
#######################################################################
#
#                 Cambridge Crystallographic Data Centre
#                                CCDC 
#
#######################################################################
#
# If this CIF has been generated from an entry in the Cambridge 
# Structural Database, then it will include bibliographic, chemical, 
# crystal, experimental, refinement or atomic coordinate data resulting 
# from the CCDC's data processing and validation procedures.
#
#######################################################################

data_UJUXUU
_chemical_formula_moiety         
'C360 H312 Co8 N72 O24 16+,2(C3 H9 O3 P1),16(B1 F4 1-)'
_chemical_name_systematic        
"dodecakis(\m~2~-(Naphthalene-1,5-diylbis(methylene-1H-pyrazole-1,3-diylpyridine-2,4-diyl))dimethanol)-octa-cobalt hexadecakis(tetrafluoroborate) bis(methyl O,O'-dimethylphosphonate)"
_symmetry_cell_setting           monoclinic
_symmetry_space_group_name_H-M   'C 2/c'
_symmetry_Int_Tables_number      15
_space_group_name_Hall           '-C 2yn'
loop_
_symmetry_equiv_pos_site_id
_symmetry_equiv_pos_as_xyz
1 x,y,z
2 -x,y,1/2-z
3 1/2+x,1/2+y,z
4 1/2-x,1/2+y,1/2-z
5 -x,-y,-z
6 x,-y,1/2+z
7 1/2-x,1/2-y,-z
8 1/2+x,1/2-y,1/2+z
_cell_length_a                   27.477(4)
_cell_length_b                   39.201(6)
_cell_length_c                   41.992(7)
_cell_angle_alpha                90
_cell_angle_beta                 107.133(5)
_cell_angle_gamma                90
_cell_volume                     43223.5
_exptl_crystal_colour            orange
_exptl_crystal_description       block
_cell_formula_units_Z            4
loop_
_atom_site_label
_atom_site_type_symbol
_atom_site_fract_x
_atom_site_fract_y
_atom_site_fract_z
Co1 Co 0.59402(5) 0.25686(3) 0.54145(4)
Co2 Co 0.31880(6) 0.25934(4) 0.28339(4)
Co3 Co 0.39946(6) 0.03597(4) 0.62400(4)
Co4 Co 0.11762(7) 0.03739(5) 0.36770(4)
N1 N 0.6364(2) 0.30235(15) 0.56149(18)
C1 C 0.6297(2) 0.31430(18) 0.59108(19)
C2 C 0.6597(3) 0.3409(2) 0.60818(18)
H1 H 0.6551 0.3491 0.6284
C3 C 0.6964(3) 0.35553(19) 0.5957(2)
C4 C 0.7031(3) 0.3436(2) 0.5661(2)
H2 H 0.7282 0.3536 0.5576
C5 C 0.6731(3) 0.3170(2) 0.54900(18)
H3 H 0.6777 0.3088 0.5288
C6 C 0.7256(7) 0.3851(4) 0.6168(4)
H4 H 0.7028 0.4052 0.6141
H5 H 0.7357 0.3785 0.6406
O1 O 0.7684(8) 0.3939(7) 0.6079(8)
N2 N 0.5260(2) 0.26205(14) 0.59556(15)
N3 N 0.5638(2) 0.27262(15) 0.58075(13)
C7 C 0.5927(2) 0.29902(15) 0.60074(18)
C8 C 0.5729(3) 0.30476(15) 0.62791(15)
H6 H 0.5851 0.3210 0.6452
C9 C 0.5316(3) 0.28191(18) 0.62471(14)
H7 H 0.5114 0.2802 0.6395
C10 C 0.4935(4) 0.2344(2) 0.5833(2)
H8 H 0.4851 0.2341 0.5587
H9 H 0.4614 0.2379 0.5890
N4 N 0.3533(3) -0.00027(14) 0.59014(17)
C11 C 0.3676(2) -0.00665(15) 0.5616(2)
C12 C 0.3398(3) -0.02943(17) 0.53778(17)
H10 H 0.3495 -0.0338 0.5183
C13 C 0.2976(3) -0.04583(15) 0.5425(2)
C14 C 0.2833(2) -0.03945(18) 0.5711(2)
H11 H 0.2545 -0.0507 0.5743
C15 C 0.3112(3) -0.01667(19) 0.59489(19)
H12 H 0.3014 -0.0123 0.6144
C16 C 0.2688(5) -0.0715(3) 0.5161(3)
H13 H 0.2493 -0.0590 0.4959
H14 H 0.2937 -0.0864 0.5098
O2 O 0.2357(5) -0.0916(3) 0.5273(3)
N5 N 0.4332(3) 0.03449(16) 0.58293(15)
N6 N 0.4774(2) 0.04657(15) 0.57559(18)
C17 C 0.4802(3) 0.0302(2) 0.54604(19)
H15 H 0.5060 0.0335 0.5354
C18 C 0.4378(3) 0.00792(19) 0.53513(17)
H16 H 0.4301 -0.0063 0.5159
C19 C 0.4087(2) 0.01060(17) 0.5579(2)
C20 C 0.5069(4) 0.0728(2) 0.5925(3)
H17 H 0.5414 0.0708 0.5898
H18 H 0.5103 0.0705 0.6165
C21 C 0.51577(18) 0.19976(9) 0.59688(12)
C22 C 0.56167(18) 0.19762(12) 0.62210(12)
H19 H 0.5791 0.2178 0.6316
C23 C 0.58214(15) 0.16590(14) 0.63347(11)
H20 H 0.6135 0.1644 0.6507
C24 C 0.55671(16) 0.13632(12) 0.61962(11)
H21 H 0.5707 0.1146 0.6274
C25 C 0.51081(13) 0.13845(9) 0.59440(9)
C26 C 0.49034(13) 0.17017(9) 0.58303(9)
C27 C 0.44444(15) 0.17231(11) 0.55782(11)
H22 H 0.4304 0.1940 0.5500
C28 C 0.41900(15) 0.14272(14) 0.54397(12)
H23 H 0.3876 0.1442 0.5267
C29 C 0.43947(18) 0.11100(12) 0.55534(13)
H24 H 0.4221 0.0908 0.5459
C30 C 0.48537(18) 0.10887(9) 0.58056(13)
N7 N 0.6479(2) 0.22476(16) 0.57748(16)
C31 C 0.6392(2) 0.18990(18) 0.57312(16)
C32 C 0.6721(3) 0.16690(14) 0.5939(2)
H25 H 0.6662 0.1431 0.5910
C33 C 0.7138(3) 0.1788(2) 0.61913(19)
C34 C 0.7225(2) 0.2136(2) 0.62349(17)
H26 H 0.7510 0.2217 0.6407
C35 C 0.6895(3) 0.23661(15) 0.60266(19)
H27 H 0.6955 0.2604 0.6056
C36 C 0.7480(5) 0.1526(3) 0.6430(3)
H28 H 0.7280 0.1411 0.6560
H29 H 0.7595 0.1351 0.6298
O3 O 0.7902(7) 0.1680(6) 0.6648(5)
N8 N 0.5182(2) 0.19072(16) 0.50993(14)
N9 N 0.5619(2) 0.20670(12) 0.53161(16)
C37 C 0.5958(2) 0.18072(18) 0.54836(15)
C38 C 0.5732(3) 0.14868(14) 0.53703(19)
H30 H 0.5876 0.1269 0.5441
C39 C 0.5252(3) 0.15486(15) 0.51328(17)
H31 H 0.5019 0.1380 0.5017
C40 C 0.4796(4) 0.2099(3) 0.4891(2)
H32 H 0.4765 0.2315 0.5006
H33 H 0.4471 0.1973 0.4855
N10 N 0.2715(2) 0.30139(14) 0.26047(15)
C41 C 0.28927(18) 0.33332(17) 0.27305(13)
C42 C 0.2617(2) 0.36243(13) 0.25995(16)
H34 H 0.2738 0.3843 0.2686
C43 C 0.2165(2) 0.35960(14) 0.23427(16)
C44 C 0.1987(2) 0.32766(17) 0.22168(14)
H35 H 0.1678 0.3257 0.2041
C45 C 0.2263(2) 0.29856(13) 0.23478(16)
H36 H 0.2142 0.2767 0.2262
C46 C 0.1845(3) 0.3914(2) 0.2213(2)
H37 H 0.1792 0.4040 0.2404
H38 H 0.2036 0.4064 0.2103
O4 O 0.1375(4) 0.3838(3) 0.1990(3)
N11 N 0.3599(3) 0.30259(16) 0.30856(17)
N12 N 0.4082(2) 0.30998(18) 0.33147(18)
C47 C 0.4136(3) 0.34599(19) 0.3339(2)
H39 H 0.4423 0.3580 0.3475
C48 C 0.3687(3) 0.36085(15) 0.3125(2)
H40 H 0.3621 0.3846 0.3093
C49 C 0.3355(2) 0.3340(2) 0.29685(18)
C50 C 0.4403(4) 0.2853(3) 0.3500(3)
H41 H 0.4757 0.2936 0.3547
H42 H 0.4370 0.2646 0.3361
C51 C 0.48621(19) 0.21868(13) 0.45457(11)
C52 C 0.52496(19) 0.20291(13) 0.44496(15)
H43 H 0.5461 0.1865 0.4591
C53 C 0.53273(18) 0.21117(14) 0.41463(15)
H44 H 0.5592 0.2004 0.4081
C54 C 0.50175(19) 0.23520(14) 0.39392(12)
H45 H 0.5071 0.2408 0.3732
C55 C 0.46300(15) 0.25097(11) 0.40353(10)
C56 C 0.45523(15) 0.24271(10) 0.43386(10)
C57 C 0.41648(19) 0.25849(14) 0.44347(13)
H46 H 0.4112 0.2528 0.4642
C58 C 0.38550(18) 0.28252(14) 0.42276(16)
H47 H 0.3590 0.2933 0.4293
C59 C 0.3933(2) 0.29078(14) 0.39244(16)
H48 H 0.3721 0.3072 0.3783
C60 C 0.4320(2) 0.27500(14) 0.38283(12)
N13 N 0.6308(2) 0.24918(17) 0.50259(14)
C61 C 0.6114(2) 0.26804(15) 0.47359(17)
C62 C 0.6340(3) 0.26602(18) 0.44809(14)
H49 H 0.6207 0.2789 0.4283
C63 C 0.6761(3) 0.2451(2) 0.45159(15)
C64 C 0.6956(2) 0.22627(18) 0.48059(19)
H50 H 0.7244 0.2120 0.4830
C65 C 0.6730(2) 0.22830(17) 0.50609(15)
H51 H 0.6863 0.2154 0.5259
C66 C 0.7038(5) 0.2415(4) 0.4248(3)
H52 H 0.7336 0.2570 0.4303
H53 H 0.7166 0.2179 0.4251
O5 O 0.6729(7) 0.2489(5) 0.3933(2)
N14 N 0.5488(2) 0.28567(15) 0.49955(14)
N15 N 0.5064(2) 0.30810(15) 0.49262(14)
C67 C 0.5012(2) 0.32370(15) 0.46127(15)
H54 H 0.4759 0.3399 0.4505
C68 C 0.5404(3) 0.31091(18) 0.44883(14)
H55 H 0.5459 0.3170 0.4283
C69 C 0.5698(2) 0.28741(16) 0.47249(17)
C70 C 0.4782(3) 0.3133(3) 0.5147(3)
H56 H 0.4771 0.2916 0.5266
H57 H 0.4428 0.3190 0.5017
N16 N 0.3432(3) 0.4591(2) 0.66923(17)
C71 C 0.3616(3) 0.4337(2) 0.6928(2)
C72 C 0.3393(3) 0.4284(2) 0.71810(18)
H58 H 0.3519 0.4111 0.7342
C73 C 0.2985(3) 0.4486(2) 0.71980(19)
C74 C 0.2801(3) 0.4740(2) 0.6962(2)
H59 H 0.2522 0.4877 0.6974
C75 C 0.3024(3) 0.47922(19) 0.67093(19)
H60 H 0.2898 0.4966 0.6548
C76 C 0.2748(5) 0.4405(4) 0.7478(3)
H61 H 0.2638 0.4163 0.7460
H62 H 0.3009 0.4434 0.7696
O6 O 0.2334(4) 0.4612(3) 0.7466(3)
N17 N 0.4226(3) 0.4227(2) 0.66290(19)
N18 N 0.4674(3) 0.4031(3) 0.6666(2)
C77 C 0.4766(3) 0.3839(2) 0.6965(2)
H63 H 0.5042 0.3685 0.7051
C78 C 0.4375(4) 0.3915(3) 0.7112(2)
H64 H 0.4343 0.3822 0.7313
C79 C 0.4041(3) 0.4155(3) 0.6904(2)
C80 C 0.4918(5) 0.4012(4) 0.6415(3)
H65 H 0.5287 0.3981 0.6524
H66 H 0.4875 0.4235 0.6299
C81 C 0.4978(2) 0.34099(14) 0.54029(12)
C82 C 0.5379(2) 0.36158(17) 0.53817(15)
H67 H 0.5522 0.3586 0.5203
C83 C 0.55706(19) 0.38651(15) 0.56212(17)
H68 H 0.5845 0.4006 0.5607
C84 C 0.5361(2) 0.39086(13) 0.58820(15)
H69 H 0.5492 0.4079 0.6046
C85 C 0.49597(17) 0.37028(11) 0.59032(11)
C86 C 0.47682(15) 0.34534(11) 0.56637(11)
C87 C 0.43670(19) 0.32476(14) 0.56849(16)
H70 H 0.4236 0.3077 0.5521
C88 C 0.4157(2) 0.32911(17) 0.59457(18)
H71 H 0.3883 0.3150 0.5960
C89 C 0.4349(2) 0.35404(19) 0.61852(15)
H72 H 0.4205 0.3570 0.6363
C90 C 0.4750(2) 0.37462(16) 0.61640(13)
N19 N 0.4439(2) 0.07687(13) 0.65212(16)
C91 C 0.42336(19) 0.10907(16) 0.64305(14)
C92 C 0.4496(2) 0.13793(12) 0.65817(17)
H73 H 0.4355 0.1599 0.6520
C93 C 0.4963(2) 0.13459(15) 0.68236(17)
C94 C 0.5169(2) 0.10238(18) 0.69143(16)
H74 H 0.5489 0.1001 0.7080
C95 C 0.4907(3) 0.07352(13) 0.67631(17)
H75 H 0.5048 0.0515 0.6825
C96 C 0.5229(4) 0.1669(2) 0.6989(3)
H76 H 0.5180 0.1851 0.6819
H77 H 0.5068 0.1746 0.7158
O7 O 0.5744(3) 0.1625(3) 0.7139(3)
N20 N 0.3513(2) 0.08027(12) 0.60699(16)
N21 N 0.3021(2) 0.08903(14) 0.58603(16)
C97 C 0.2976(2) 0.12511(15) 0.58598(17)
H78 H 0.2686 0.1379 0.5740
C98 C 0.3439(3) 0.13865(11) 0.60690(18)
H79 H 0.3514 0.1621 0.6114
C99 C 0.3771(2) 0.11094(16) 0.61989(16)
C100 C 0.2655(4) 0.0655(3) 0.5664(3)
H80 H 0.2310 0.0754 0.5620
H81 H 0.2666 0.0442 0.5793
N22 N 0.0616(4) 0.0007(3) 0.3374(2)
C101 C 0.0760(3) -0.0333(3) 0.3430(2)
C102 C 0.0443(5) -0.0589(2) 0.3253(3)
H82 H 0.0542 -0.0821 0.3292
C103 C -0.0017(4) -0.0505(3) 0.3021(3)
C104 C -0.0161(3) -0.0165(3) 0.2965(2)
H83 H -0.0475 -0.0108 0.2806
C105 C 0.0155(4) 0.0091(2) 0.3141(3)
H84 H 0.0057 0.0323 0.3103
C106 C -0.0410(5) -0.0783(4) 0.2858(4)
H85 H -0.0660 -0.0804 0.2985
H86 H -0.0596 -0.0713 0.2628
O8 O -0.0185(9) -0.1096(3) 0.2849(6)
N23 N 0.1504(4) -0.01131(18) 0.3825(2)
N24 N 0.1963(3) -0.0248(2) 0.4041(2)
C107 C 0.1935(4) -0.0610(2) 0.4018(3)
H87 H 0.2190 -0.0765 0.4136
C108 C 0.1459(5) -0.06976(19) 0.3787(3)
H88 H 0.1340 -0.0922 0.3724
C109 C 0.1193(3) -0.0391(3) 0.3668(2)
C110 C 0.2314(5) -0.0053(3) 0.4264(3)
H89 H 0.2361 0.0159 0.4149
H90 H 0.2643 -0.0177 0.4322
C111 C 0.2752(2) 0.05694(13) 0.53317(13)
C112 C 0.3175(2) 0.07073(13) 0.52614(16)
H91 H 0.3394 0.0858 0.5416
C113 C 0.32763(18) 0.06247(14) 0.49654(18)
H92 H 0.3565 0.0719 0.4917
C114 C 0.2955(2) 0.04041(14) 0.47398(14)
H93 H 0.3025 0.0348 0.4537
C115 C 0.25321(17) 0.02661(10) 0.48101(11)
C116 C 0.24305(17) 0.03488(10) 0.51060(11)
C117 C 0.2008(2) 0.02108(15) 0.51763(15)
H94 H 0.1938 0.0267 0.5379
C118 C 0.16863(19) -0.00098(15) 0.49507(19)
H95 H 0.1397 -0.0104 0.4999
C119 C 0.1788(2) -0.00925(14) 0.46547(17)
H96 H 0.1568 -0.0243 0.4501
C120 C 0.2211(2) 0.00455(14) 0.45844(13)
N25 N 0.3642(2) 0.21886(15) 0.31100(15)
C121 C 0.3519(2) 0.20903(17) 0.33948(17)
C122 C 0.3795(3) 0.18334(17) 0.35973(14)
H97 H 0.3711 0.1766 0.3792
C123 C 0.4194(3) 0.16749(15) 0.35148(17)
C124 C 0.4317(2) 0.17732(18) 0.32300(19)
H98 H 0.4590 0.1665 0.3174
C125 C 0.4041(3) 0.20301(18) 0.30275(15)
H99 H 0.4125 0.2097 0.2833
C126 C 0.4501(4) 0.1404(3) 0.3754(3)
H100 H 0.4656 0.1510 0.3975
H101 H 0.4267 0.1223 0.3783
O9 O 0.4882(4) 0.1258(2) 0.3645(2)
N26 N 0.2823(2) 0.24869(16) 0.32168(14)
N27 N 0.2402(2) 0.25905(16) 0.33248(16)
C127 C 0.2427(3) 0.24115(19) 0.36231(17)
H102 H 0.2193 0.2432 0.3749
C128 C 0.2863(3) 0.21972(18) 0.36994(15)
H103 H 0.2971 0.2049 0.3886
C129 C 0.3108(2) 0.22438(17) 0.34483(18)
C130 C 0.2066(4) 0.2853(3) 0.3162(3)
H104 H 0.1724 0.2806 0.3186
H105 H 0.2036 0.2848 0.2922
N28 N 0.0456(3) 0.50366(15) 0.35068(19)
C131 C 0.0543(3) 0.5176(2) 0.3224(2)
C132 C 0.0228(4) 0.5434(2) 0.30493(17)
H106 H 0.0288 0.5529 0.2856
C133 C -0.0175(3) 0.55509(19) 0.3156(2)
C134 C -0.0262(3) 0.5411(2) 0.3439(2)
H107 H -0.0538 0.5491 0.3512
C135 C 0.0053(3) 0.51539(19) 0.36140(17)
H108 H -0.0007 0.5058 0.3807
C136 C -0.0564(5) 0.5811(4) 0.2951(3)
H109 H -0.0470 0.6042 0.3042
H110 H -0.0906 0.5757 0.2970
O10 O -0.0580(5) 0.5805(3) 0.2616(2)
N29 N 0.1264(3) 0.4794(2) 0.33384(18)
N30 N 0.1671(3) 0.4728(2) 0.3203(2)
C137 C 0.1598(4) 0.4933(3) 0.2914(2)
H111 H 0.1815 0.4940 0.2775
C138 C 0.1146(4) 0.5126(2) 0.2871(2)
H112 H 0.1006 0.5285 0.2697
C139 C 0.0939(3) 0.5040(2) 0.3133(2)
C140 C 0.1995(5) 0.4453(3) 0.3316(3)
H113 H 0.2083 0.4447 0.3562
H114 H 0.2315 0.4497 0.3259
C141 C 0.2233(2) 0.32112(11) 0.32975(15)
C142 C 0.2708(2) 0.32482(15) 0.35314(15)
H115 H 0.2914 0.3053 0.3610
C143 C 0.28818(17) 0.35705(17) 0.36501(14)
H116 H 0.3206 0.3596 0.3810
C144 C 0.25810(19) 0.38557(14) 0.35349(14)
H117 H 0.2700 0.4076 0.3616
C145 C 0.21063(17) 0.38187(11) 0.33010(11)
C146 C 0.19324(16) 0.34964(11) 0.31823(11)
C147 C 0.14577(18) 0.34594(15) 0.29484(13)
H118 H 0.1339 0.3239 0.2867
C148 C 0.11568(18) 0.37447(19) 0.28332(14)
H119 H 0.0832 0.3719 0.2673
C149 C 0.1331(2) 0.40669(16) 0.29519(16)
H120 H 0.1125 0.4262 0.2873
C150 C 0.1805(2) 0.41039(12) 0.31858(16)
N31 N 0.3590(3) 0.2635(2) 0.24550(19)
C151 C 0.3414(3) 0.2423(2) 0.2180(2)
C152 C 0.3677(4) 0.2402(2) 0.1944(2)
H121 H 0.3556 0.2257 0.1756
C153 C 0.4117(4) 0.2594(3) 0.1983(2)
C154 C 0.4293(3) 0.2806(3) 0.2258(3)
H122 H 0.4593 0.2937 0.2285
C155 C 0.4030(3) 0.2827(2) 0.2494(2)
H123 H 0.4150 0.2972 0.2682
C156 C 0.4438(6) 0.2588(5) 0.1740(4)
H124 H 0.4601 0.2813 0.1742
H125 H 0.4712 0.2416 0.1816
O11 O 0.4152(11) 0.2512(7) 0.1417(4)
N32 N 0.2803(3) 0.22466(18) 0.24410(15)
N33 N 0.2377(3) 0.20239(19) 0.23678(18)
C157 C 0.2323(3) 0.1874(2) 0.2052(2)
H126 H 0.2069 0.1714 0.1941
C158 C 0.2716(4) 0.2004(2) 0.19294(17)
H127 H 0.2771 0.1946 0.1723
C159 C 0.3013(3) 0.2234(2) 0.2170(2)
C160 C 0.2115(4) 0.1945(3) 0.2604(3)
H128 H 0.1767 0.1866 0.2484
H129 H 0.2083 0.2155 0.2728
N34 N 0.0840(3) 0.03870(18) 0.40778(14)
C161 C 0.1071(2) 0.06153(16) 0.43302(18)
C162 C 0.0883(3) 0.06555(16) 0.46011(15)
H130 H 0.1042 0.0811 0.4774
C163 C 0.0463(3) 0.04674(19) 0.46194(16)
C164 C 0.0232(2) 0.02392(18) 0.4367(2)
H131 H -0.0055 0.0111 0.4379
C165 C 0.0420(3) 0.01990(17) 0.40961(17)
H132 H 0.0262 0.0043 0.3924
C166 C 0.0275(4) 0.0523(3) 0.4926(2)
H133 H 0.0554 0.0468 0.5129
H134 H 0.0187 0.0767 0.4937
O12 O -0.0147(3) 0.03253(19) 0.4919(2)
N35 N 0.1686(2) 0.07208(15) 0.40291(15)
N36 N 0.2148(2) 0.09043(17) 0.40804(16)
C167 C 0.2250(2) 0.10790(16) 0.43893(17)
H135 H 0.2535 0.1221 0.4486
C168 C 0.1850(3) 0.10034(18) 0.45290(14)
H136 H 0.1821 0.1086 0.4735
C169 C 0.1502(2) 0.07820(17) 0.43064(19)
C170 C 0.2411(4) 0.0950(3) 0.3844(3)
H137 H 0.2388 0.0737 0.3713
H138 H 0.2775 0.0992 0.3961
C171 C 0.2388(2) 0.16657(13) 0.28568(12)
C172 C 0.2805(2) 0.14856(16) 0.28224(14)
H139 H 0.2942 0.1539 0.2646
C173 C 0.30213(19) 0.12278(15) 0.30467(16)
H140 H 0.3307 0.1105 0.3023
C174 C 0.28201(19) 0.11500(13) 0.33053(14)
H141 H 0.2968 0.0974 0.3459
C175 C 0.24027(15) 0.13300(10) 0.33397(10)
C176 C 0.21864(16) 0.15879(10) 0.31154(10)
C177 C 0.17689(19) 0.17679(13) 0.31498(14)
H142 H 0.1621 0.1944 0.2996
C178 C 0.15678(19) 0.16901(15) 0.34084(16)
H143 H 0.1282 0.1813 0.3432
C179 C 0.1784(2) 0.14323(16) 0.36327(14)
H144 H 0.1647 0.1379 0.3810
C180 C 0.2201(2) 0.12522(14) 0.35984(12)
Co1F Co -0.09402(5) 0.24314(3) 0.45855(4)
Co2F Co 0.18120(6) 0.24066(4) 0.71661(4)
Co3F Co 0.10054(6) 0.46403(4) 0.37600(4)
Co4F Co 0.38238(7) 0.46261(5) 0.63230(4)
N1F N -0.1364(2) 0.19765(15) 0.43851(18)
C1F C -0.1297(2) 0.18570(18) 0.40892(19)
C2F C -0.1597(3) 0.1591(2) 0.39182(18)
H1F H -0.1551 0.1509 0.3716
C3F C -0.1964(3) 0.14447(19) 0.4043(2)
C4F C -0.2031(3) 0.1564(2) 0.4339(2)
H2F H -0.2282 0.1464 0.4424
C5F C -0.1731(3) 0.1830(2) 0.45100(18)
H3F H -0.1777 0.1912 0.4712
C6F C -0.2256(7) 0.1149(4) 0.3832(4)
H4F H -0.2028 0.0948 0.3859
H5F H -0.2357 0.1215 0.3594
O1F O -0.2684(8) 0.1061(7) 0.3921(8)
N2F N -0.0260(2) 0.23795(14) 0.40444(15)
N3F N -0.0638(2) 0.22738(15) 0.41925(13)
C7F C -0.0927(2) 0.20098(15) 0.39926(18)
C8F C -0.0729(3) 0.19524(15) 0.37209(15)
H6F H -0.0851 0.1790 0.3548
C9F C -0.0316(3) 0.21809(18) 0.37529(14)
H7F H -0.0114 0.2198 0.3605
C10F C 0.0065(4) 0.2656(2) 0.4167(2)
H8F H 0.0149 0.2659 0.4413
H9F H 0.0386 0.2621 0.4110
N4F N 0.1467(3) 0.50027(14) 0.40986(17)
C11F C 0.1324(2) 0.50665(15) 0.4384(2)
C12F C 0.1602(3) 0.52943(17) 0.46222(17)
H10F H 0.1505 0.5338 0.4817
C13F C 0.2024(3) 0.54583(15) 0.4575(2)
C14F C 0.2167(2) 0.53945(18) 0.4289(2)
H11F H 0.2455 0.5507 0.4257
C15F C 0.1888(3) 0.51667(19) 0.40511(19)
H12F H 0.1986 0.5123 0.3856
C16F C 0.2312(5) 0.5715(3) 0.4839(3)
H13F H 0.2507 0.5590 0.5041
H14F H 0.2063 0.5864 0.4902
O2F O 0.2643(5) 0.5916(3) 0.4727(3)
N5F N 0.0668(3) 0.46551(16) 0.41707(15)
N6F N 0.0226(2) 0.45343(15) 0.42441(18)
C17F C 0.0198(3) 0.4698(2) 0.45396(19)
H15F H -0.0060 0.4665 0.4646
C18F C 0.0622(3) 0.49208(19) 0.46487(17)
H16F H 0.0699 0.5063 0.4841
C19F C 0.0913(2) 0.48940(17) 0.4421(2)
C20F C -0.0069(4) 0.4272(2) 0.4075(3)
H17F H -0.0414 0.4292 0.4102
H18F H -0.0103 0.4295 0.3835
C21F C -0.01577(18) 0.30024(9) 0.40312(12)
C22F C -0.06167(18) 0.30238(12) 0.37790(12)
H19F H -0.0791 0.2822 0.3684
C23F C -0.08214(15) 0.33410(14) 0.36653(11)
H20F H -0.1135 0.3356 0.3493
C24F C -0.05671(16) 0.36368(12) 0.38038(11)
H21F H -0.0707 0.3854 0.3726
C25F C -0.01081(13) 0.36155(9) 0.40560(9)
C26F C 0.00966(13) 0.32983(9) 0.41697(9)
C27F C 0.05556(15) 0.32769(11) 0.44218(11)
H22F H 0.0696 0.3060 0.4500
C28F C 0.08100(15) 0.35728(14) 0.45603(12)
H23F H 0.1124 0.3558 0.4733
C29F C 0.06053(18) 0.38900(12) 0.44466(13)
H24F H 0.0779 0.4092 0.4541
C30F C 0.01463(18) 0.39113(9) 0.41944(13)
N7F N -0.1479(2) 0.27524(16) 0.42252(16)
C31F C -0.1392(2) 0.31010(18) 0.42688(16)
C32F C -0.1721(3) 0.33310(14) 0.4061(2)
H25F H -0.1662 0.3569 0.4090
C33F C -0.2138(3) 0.3212(2) 0.38087(19)
C34F C -0.2225(2) 0.2864(2) 0.37651(17)
H26F H -0.2510 0.2783 0.3593
C35F C -0.1895(3) 0.26339(15) 0.39734(19)
H27F H -0.1955 0.2396 0.3944
C36F C -0.2480(5) 0.3474(3) 0.3570(3)
H28F H -0.2280 0.3589 0.3440
H29F H -0.2595 0.3649 0.3702
O3F O -0.2902(7) 0.3320(6) 0.3352(5)
N8F N -0.0182(2) 0.30928(16) 0.49007(14)
N9F N -0.0619(2) 0.29330(12) 0.46839(16)
C37F C -0.0958(2) 0.31928(18) 0.45164(15)
C38F C -0.0732(3) 0.35132(14) 0.46297(19)
H30F H -0.0876 0.3731 0.4559
C39F C -0.0252(3) 0.34514(15) 0.48672(17)
H31F H -0.0019 0.3620 0.4983
C40F C 0.0204(4) 0.2901(3) 0.5109(2)
H32F H 0.0235 0.2685 0.4994
H33F H 0.0529 0.3027 0.5145
N10F N 0.2285(2) 0.19861(14) 0.73953(15)
C41F C 0.21073(18) 0.16668(17) 0.72695(13)
C42F C 0.2383(2) 0.13757(13) 0.74005(16)
H34F H 0.2262 0.1157 0.7314
C43F C 0.2835(2) 0.14040(14) 0.76573(16)
C44F C 0.3013(2) 0.17234(17) 0.77832(14)
H35F H 0.3322 0.1743 0.7959
C45F C 0.2737(2) 0.20144(13) 0.76522(16)
H36F H 0.2858 0.2233 0.7738
C46F C 0.3155(3) 0.1086(2) 0.7787(2)
H37F H 0.3208 0.0960 0.7596
H38F H 0.2964 0.0936 0.7897
O4F O 0.3625(4) 0.1162(3) 0.8010(3)
N11F N 0.1401(3) 0.19741(16) 0.69144(17)
N12F N 0.0918(2) 0.19002(18) 0.66853(18)
C47F C 0.0864(3) 0.15401(19) 0.6661(2)
H39F H 0.0577 0.1420 0.6525
C48F C 0.1313(3) 0.13915(15) 0.6875(2)
H40F H 0.1379 0.1154 0.6907
C49F C 0.1645(2) 0.1660(2) 0.70315(18)
C50F C 0.0597(4) 0.2147(3) 0.6500(3)
H41F H 0.0243 0.2064 0.6453
H42F H 0.0630 0.2354 0.6639
C51F C 0.01379(19) 0.28132(13) 0.54543(11)
C52F C -0.02496(19) 0.29709(13) 0.55504(15)
H43F H -0.0461 0.3135 0.5409
C53F C -0.03273(18) 0.28883(14) 0.58537(15)
H44F H -0.0592 0.2996 0.5919
C54F C -0.00175(19) 0.26480(14) 0.60608(12)
H45F H -0.0071 0.2592 0.6268
C55F C 0.03700(15) 0.24903(11) 0.59647(10)
C56F C 0.04477(15) 0.25729(10) 0.56614(10)
C57F C 0.08352(19) 0.24151(14) 0.55653(13)
H46F H 0.0888 0.2472 0.5358
C58F C 0.11450(18) 0.21748(14) 0.57724(16)
H47F H 0.1410 0.2067 0.5707
C59F C 0.1067(2) 0.20922(14) 0.60756(16)
H48F H 0.1279 0.1928 0.6217
C60F C 0.0680(2) 0.22500(14) 0.61717(12)
N13F N -0.1308(2) 0.25082(17) 0.49741(14)
C61F C -0.1114(2) 0.23196(15) 0.52641(17)
C62F C -0.1340(3) 0.23398(18) 0.55191(14)
H49F H -0.1207 0.2211 0.5717
C63F C -0.1761(3) 0.2549(2) 0.54841(15)
C64F C -0.1956(2) 0.27373(18) 0.51941(19)
H50F H -0.2244 0.2880 0.5170
C65F C -0.1730(2) 0.27170(17) 0.49391(15)
H51F H -0.1863 0.2846 0.4741
C66F C -0.2038(5) 0.2585(4) 0.5752(3)
H52F H -0.2336 0.2430 0.5697
H53F H -0.2166 0.2821 0.5749
O5F O -0.1729(7) 0.2511(5) 0.6067(2)
N14F N -0.0488(2) 0.21433(15) 0.50045(14)
N15F N -0.0064(2) 0.19190(15) 0.50738(14)
C67F C -0.0012(2) 0.17630(15) 0.53873(15)
H54F H 0.0241 0.1601 0.5495
C68F C -0.0404(3) 0.18909(18) 0.55117(14)
H55F H -0.0459 0.1830 0.5717
C69F C -0.0698(2) 0.21259(16) 0.52751(17)
C70F C 0.0218(3) 0.1867(3) 0.4853(3)
H56F H 0.0229 0.2084 0.4734
H57F H 0.0572 0.1810 0.4983
N16F N 0.1568(3) 0.0409(2) 0.33077(17)
C71F C 0.1384(3) 0.0663(2) 0.3072(2)
C72F C 0.1607(3) 0.0716(2) 0.28190(18)
H58F H 0.1481 0.0889 0.2658
C73F C 0.2015(3) 0.0514(2) 0.28020(19)
C74F C 0.2199(3) 0.0260(2) 0.3038(2)
H59F H 0.2478 0.0123 0.3026
C75F C 0.1976(3) 0.02078(19) 0.32907(19)
H60F H 0.2102 0.0034 0.3452
C76F C 0.2252(5) 0.0595(4) 0.2522(3)
H61F H 0.2362 0.0837 0.2540
H62F H 0.1991 0.0566 0.2304
O6F O 0.2666(4) 0.0388(3) 0.2534(3)
N17F N 0.0774(3) 0.0773(2) 0.33710(19)
N18F N 0.0326(3) 0.0969(3) 0.3334(2)
C77F C 0.0234(3) 0.1161(2) 0.3035(2)
H63F H -0.0042 0.1315 0.2949
C78F C 0.0625(4) 0.1085(3) 0.2888(2)
H64F H 0.0657 0.1178 0.2687
C79F C 0.0959(3) 0.0845(3) 0.3096(2)
C80F C 0.0082(5) 0.0988(4) 0.3585(3)
H65F H -0.0287 0.1019 0.3476
H66F H 0.0125 0.0765 0.3701
C81F C 0.0022(2) 0.15901(14) 0.45971(12)
C82F C -0.0379(2) 0.13842(17) 0.46183(15)
H67F H -0.0522 0.1414 0.4797
C83F C -0.05706(19) 0.11349(15) 0.43788(17)
H68F H -0.0845 0.0994 0.4393
C84F C -0.0361(2) 0.10914(13) 0.41180(15)
H69F H -0.0492 0.0921 0.3954
C85F C 0.00403(17) 0.12972(11) 0.40968(11)
C86F C 0.02318(15) 0.15466(11) 0.43363(11)
C87F C 0.06330(19) 0.17524(14) 0.43151(16)
H70F H 0.0764 0.1923 0.4479
C88F C 0.0843(2) 0.17089(17) 0.40543(18)
H71F H 0.1117 0.1850 0.4040
C89F C 0.0651(2) 0.14596(19) 0.38148(15)
H72F H 0.0795 0.1430 0.3637
C90F C 0.0250(2) 0.12538(16) 0.38360(13)
N19F N 0.0561(2) 0.42313(13) 0.34788(16)
C91F C 0.07664(19) 0.39093(16) 0.35695(14)
C92F C 0.0504(2) 0.36207(12) 0.34183(17)
H73F H 0.0645 0.3401 0.3480
C93F C 0.0037(2) 0.36541(15) 0.31764(17)
C94F C -0.0169(2) 0.39762(18) 0.30857(16)
H74F H -0.0489 0.3999 0.2920
C95F C 0.0093(3) 0.42648(13) 0.32369(17)
H75F H -0.0048 0.4485 0.3175
C96F C -0.0229(4) 0.3331(2) 0.3011(3)
H76F H -0.0180 0.3149 0.3181
H77F H -0.0068 0.3254 0.2842
O7F O -0.0744(3) 0.3375(3) 0.2861(3)
N20F N 0.1487(2) 0.41973(12) 0.39301(16)
N21F N 0.1979(2) 0.41097(14) 0.41397(16)
C97F C 0.2024(2) 0.37489(15) 0.41402(17)
H78F H 0.2314 0.3621 0.4260
C98F C 0.1561(3) 0.36135(11) 0.39310(18)
H79F H 0.1486 0.3379 0.3886
C99F C 0.1229(2) 0.38906(16) 0.38011(16)
C100F C 0.2345(4) 0.4345(3) 0.4336(3)
H80F H 0.2690 0.4246 0.4380
H81F H 0.2334 0.4558 0.4207
N22F N 0.4384(4) 0.4993(3) 0.6626(2)
C101F C 0.4240(3) 0.5333(3) 0.6570(2)
C102F C 0.4557(5) 0.5589(2) 0.6747(3)
H82F H 0.4458 0.5821 0.6708
C103F C 0.5017(4) 0.5505(3) 0.6979(3)
C104F C 0.5161(3) 0.5165(3) 0.7035(2)
H83F H 0.5475 0.5108 0.7194
C105F C 0.4845(4) 0.4909(2) 0.6859(3)
H84F H 0.4943 0.4677 0.6897
C106F C 0.5410(5) 0.5783(4) 0.7142(4)
H85F H 0.5660 0.5804 0.7015
H86F H 0.5596 0.5713 0.7372
O8F O 0.5185(9) 0.6096(3) 0.7151(6)
N23F N 0.3496(4) 0.51131(18) 0.6175(2)
N24F N 0.3037(3) 0.5248(2) 0.5959(2)
C107F C 0.3065(4) 0.5610(2) 0.5982(3)
H87F H 0.2810 0.5765 0.5864
C108F C 0.3541(5) 0.56976(19) 0.6213(3)
H88F H 0.3660 0.5922 0.6276
C109F C 0.3807(3) 0.5391(3) 0.6332(2)
C110F C 0.2686(5) 0.5053(3) 0.5736(3)
H89F H 0.2639 0.4841 0.5851
H90F H 0.2357 0.5177 0.5678
C111F C 0.2248(2) 0.44306(13) 0.46683(13)
C112F C 0.1825(2) 0.42927(13) 0.47386(16)
H91F H 0.1606 0.4142 0.4584
C113F C 0.17237(18) 0.43753(14) 0.50346(18)
H92F H 0.1435 0.4281 0.5083
C114F C 0.2045(2) 0.45959(14) 0.52602(14)
H93F H 0.1975 0.4652 0.5463
C115F C 0.24679(17) 0.47339(10) 0.51899(11)
C116F C 0.25695(17) 0.46512(10) 0.48940(11)
C117F C 0.2992(2) 0.47892(15) 0.48237(15)
H94F H 0.3062 0.4733 0.4621
C118F C 0.33137(19) 0.50098(15) 0.50493(19)
H95F H 0.3603 0.5104 0.5001
C119F C 0.3212(2) 0.50925(14) 0.53453(17)
H96F H 0.3432 0.5243 0.5499
C120F C 0.2789(2) 0.49545(14) 0.54156(13)
N25F N 0.1358(2) 0.28114(15) 0.68900(15)
C121F C 0.1481(2) 0.29097(17) 0.66052(17)
C122F C 0.1205(3) 0.31666(17) 0.64027(14)
H97F H 0.1289 0.3234 0.6208
C123F C 0.0806(3) 0.33251(15) 0.64852(17)
C124F C 0.0683(2) 0.32268(18) 0.67700(19)
H98F H 0.0410 0.3335 0.6826
C125F C 0.0959(3) 0.29699(18) 0.69725(15)
H99F H 0.0875 0.2903 0.7167
C126F C 0.0499(4) 0.3596(3) 0.6246(3)
H100F H 0.0344 0.3490 0.6025
H101F H 0.0733 0.3777 0.6217
O9F O 0.0118(4) 0.3742(2) 0.6355(2)
N26F N 0.2177(2) 0.25131(16) 0.67832(14)
N27F N 0.2598(2) 0.24095(16) 0.66752(16)
C127F C 0.2573(3) 0.25885(19) 0.63769(17)
H102F H 0.2807 0.2568 0.6251
C128F C 0.2137(3) 0.28028(18) 0.63006(15)
H103F H 0.2029 0.2951 0.6114
C129F C 0.1892(2) 0.27562(17) 0.65517(18)
C130F C 0.2934(4) 0.2147(3) 0.6838(3)
H104F H 0.3276 0.2194 0.6814
H105F H 0.2964 0.2152 0.7078
N28F N 0.4544(3) -0.00366(15) 0.64932(19)
C131F C 0.4457(3) -0.0176(2) 0.6776(2)
C132F C 0.4772(4) -0.0434(2) 0.69507(17)
H106F H 0.4712 -0.0529 0.7144
C133F C 0.5175(3) -0.05509(19) 0.6844(2)
C134F C 0.5262(3) -0.0411(2) 0.6561(2)
H107F H 0.5538 -0.0491 0.6488
C135F C 0.4947(3) -0.01539(19) 0.63860(17)
H108F H 0.5007 -0.0058 0.6193
C136F C 0.5564(5) -0.0811(4) 0.7049(3)
H109F H 0.5470 -0.1042 0.6958
H110F H 0.5906 -0.0757 0.7030
O10F O 0.5580(5) -0.0805(3) 0.7384(2)
N29F N 0.3736(3) 0.0206(2) 0.66616(18)
N30F N 0.3329(3) 0.0272(2) 0.6797(2)
C137F C 0.3402(4) 0.0067(3) 0.7086(2)
H111F H 0.3185 0.0060 0.7225
C138F C 0.3854(4) -0.0126(2) 0.7129(2)
H112F H 0.3994 -0.0285 0.7303
C139F C 0.4061(3) -0.0040(2) 0.6867(2)
C140F C 0.3005(5) 0.0547(3) 0.6684(3)
H113F H 0.2917 0.0553 0.6438
H114F H 0.2685 0.0503 0.6741
C141F C 0.2767(2) 0.17888(11) 0.67025(15)
C142F C 0.2292(2) 0.17518(15) 0.64686(15)
H115F H 0.2086 0.1947 0.6390
C143F C 0.21182(17) 0.14295(17) 0.63499(14)
H116F H 0.1794 0.1404 0.6190
C144F C 0.24190(19) 0.11443(14) 0.64651(14)
H117F H 0.2300 0.0924 0.6384
C145F C 0.28937(17) 0.11813(11) 0.66990(11)
C146F C 0.30676(16) 0.15036(11) 0.68177(11)
C147F C 0.35423(18) 0.15406(15) 0.70516(13)
H118F H 0.3661 0.1761 0.7133
C148F C 0.38432(18) 0.12553(19) 0.71668(14)
H119F H 0.4168 0.1281 0.7327
C149F C 0.3669(2) 0.09331(16) 0.70481(16)
H120F H 0.3875 0.0738 0.7127
C150F C 0.3195(2) 0.08961(12) 0.68142(16)
N31F N 0.1410(3) 0.2365(2) 0.75450(19)
C151F C 0.1586(3) 0.2577(2) 0.7820(2)
C152F C 0.1323(4) 0.2598(2) 0.8056(2)
H121F H 0.1444 0.2743 0.8244
C153F C 0.0883(4) 0.2406(3) 0.8017(2)
C154F C 0.0707(3) 0.2194(3) 0.7742(3)
H122F H 0.0407 0.2063 0.7715
C155F C 0.0970(3) 0.2173(2) 0.7506(2)
H123F H 0.0850 0.2028 0.7318
C156F C 0.0562(6) 0.2412(5) 0.8260(4)
H124F H 0.0399 0.2187 0.8258
H125F H 0.0288 0.2584 0.8184
O11F O 0.0848(11) 0.2488(7) 0.8583(4)
N32F N 0.2197(3) 0.27534(18) 0.75590(15)
N33F N 0.2623(3) 0.29761(19) 0.76322(18)
C157F C 0.2677(3) 0.3126(2) 0.7948(2)
H126F H 0.2931 0.3286 0.8059
C158F C 0.2284(4) 0.2996(2) 0.80706(17)
H127F H 0.2229 0.3054 0.8277
C159F C 0.1987(3) 0.2766(2) 0.7830(2)
C160F C 0.2885(4) 0.3055(3) 0.7396(3)
H128F H 0.3233 0.3134 0.7516
H129F H 0.2917 0.2845 0.7272
N34F N 0.4160(3) 0.46130(18) 0.59222(14)
C161F C 0.3929(2) 0.43847(16) 0.56698(18)
C162F C 0.4117(3) 0.43445(16) 0.53989(15)
H130F H 0.3958 0.4189 0.5226
C163F C 0.4537(3) 0.45326(19) 0.53806(16)
C164F C 0.4768(2) 0.47608(18) 0.5633(2)
H131F H 0.5055 0.4889 0.5621
C165F C 0.4580(3) 0.48010(17) 0.59039(17)
H132F H 0.4738 0.4957 0.6076
C166F C 0.4725(4) 0.4477(3) 0.5074(2)
H133F H 0.4446 0.4532 0.4871
H134F H 0.4813 0.4233 0.5063
O12F O 0.5147(3) 0.46747(19) 0.5081(2)
N35F N 0.3314(2) 0.42792(15) 0.59709(15)
N36F N 0.2852(2) 0.40957(17) 0.59196(16)
C167F C 0.2750(2) 0.39210(16) 0.56107(17)
H135F H 0.2465 0.3779 0.5514
C168F C 0.3150(3) 0.39966(18) 0.54710(14)
H136F H 0.3179 0.3914 0.5265
C169F C 0.3498(2) 0.42180(17) 0.56936(19)
C170F C 0.2589(4) 0.4050(3) 0.6156(3)
H137F H 0.2612 0.4263 0.6287
H138F H 0.2225 0.4008 0.6039
C171F C 0.2612(2) 0.33343(13) 0.71432(12)
C172F C 0.2195(2) 0.35144(16) 0.71776(14)
H139F H 0.2058 0.3461 0.7354
C173F C 0.19787(19) 0.37722(15) 0.69533(16)
H140F H 0.1693 0.3895 0.6977
C174F C 0.21799(19) 0.38500(13) 0.66947(14)
H141F H 0.2032 0.4026 0.6541
C175F C 0.25973(15) 0.36700(10) 0.66603(10)
C176F C 0.28136(16) 0.34121(10) 0.68846(10)
C177F C 0.32311(19) 0.32321(13) 0.68502(14)
H142F H 0.3379 0.3056 0.7004
C178F C 0.34322(19) 0.33099(15) 0.65916(16)
H143F H 0.3718 0.3187 0.6568
C179F C 0.3216(2) 0.35677(16) 0.63673(14)
H144F H 0.3353 0.3621 0.6190
C180F C 0.2799(2) 0.37478(14) 0.64016(12)
B1 B 0.3672(3) 0.37995(19) 0.45472(19)
F1 F 0.3933(3) 0.37061(17) 0.43226(17)
F2 F 0.3579(3) 0.41517(16) 0.45220(18)
F3 F 0.3977(3) 0.37238(17) 0.48681(16)
F4 F 0.3215(2) 0.36247(17) 0.44797(17)
B2 B 0.3761(3) 0.1342(2) 0.4449(2)
F5 F 0.3385(3) 0.13526(17) 0.46092(17)
F6 F 0.3873(4) 0.1670(2) 0.4363(2)
F7 F 0.3611(3) 0.1136(2) 0.41673(19)
F8 F 0.4210(3) 0.1206(2) 0.4667(2)
B3 B 0.4168(4) 0.2403(2) 0.6556(2)
F9 F 0.4433(4) 0.2221(3) 0.6390(3)
F10 F 0.4436(4) 0.2690(3) 0.6675(3)
F11 F 0.4118(4) 0.2216(3) 0.6815(2)
F12 F 0.3709(4) 0.2491(3) 0.6353(3)
B4 B 0.8819(3) 0.1251(2) 0.2984(2)
F13 F 0.9092(4) 0.1531(2) 0.2949(3)
F14 F 0.9061(3) 0.0965(2) 0.2922(2)
F15 F 0.8789(3) 0.1242(2) 0.3303(2)
F16 F 0.8336(3) 0.1259(2) 0.2770(2)
B5 B 0.8731(4) 0.4409(3) 0.4525(3)
F17 F 0.9182(4) 0.4456(3) 0.4750(3)
F18 F 0.8437(6) 0.4222(4) 0.4656(4)
F19 F 0.8797(4) 0.4247(3) 0.4263(3)
F20 F 0.8508(6) 0.4708(4) 0.4435(4)
P1 P 0.33604(13) 0.24977(8) 0.51870(8)
O16 O 0.3905(2) 0.24941(14) 0.52019(15)
O17 O 0.3205(6) 0.2241(3) 0.5435(3)
C181 C 0.3357(15) 0.2359(9) 0.5768(6)
H151 H 0.3255 0.2194 0.5911
H152 H 0.3728 0.2387 0.5843
H153 H 0.3195 0.2580 0.5779
O18 O 0.2975(3) 0.2402(3) 0.48376(19)
C182 C 0.3069(5) 0.2096(3) 0.4684(3)
H154 H 0.2806 0.2066 0.4471
H155 H 0.3404 0.2110 0.4646
H156 H 0.3063 0.1902 0.4830
C183 C 0.3123(13) 0.2931(5) 0.5176(9)
H157 H 0.2762 0.2926 0.5166
H158 H 0.3317 0.3053 0.5377
H159 H 0.3161 0.3049 0.4979
H145? H 0.7837 0.1608 0.6495
H146? H 0.7373 0.1510 0.6635
O13? O 0.7456(10) 0.1207(3) 0.6288(6)
H147? H 0.1625 0.3961 0.2357
H148? H 0.2075 0.4112 0.2228
O14? O 0.1543(5) 0.3877(3) 0.1885(3)
H149? H -0.0248 -0.1010 0.2910
H150? H -0.0697 -0.0773 0.2955
O15? O -0.0595(11) -0.0745(7) 0.2517(4)
O19? O 0.3153(4) 0.2857(2) 0.5266(3)
C184? C 0.3155(5) 0.3131(3) 0.5024(3)
H160? H 0.3022 0.3342 0.5092
H161? H 0.3505 0.3169 0.5018
H162? H 0.2941 0.3063 0.4802
C185? C 0.3263(11) 0.2275(7) 0.5548(5)
H163? H 0.2901 0.2280 0.5534
H164? H 0.3376 0.2038 0.5549
H165? H 0.3461 0.2389 0.5753
C186? C 0.2987(12) 0.2274(9) 0.4809(6)
H166? H 0.2626 0.2276 0.4799
H167? H 0.3030 0.2389 0.4612
H168? H 0.3105 0.2038 0.4815
loop_
_geom_bond_atom_site_label_1
_geom_bond_atom_site_label_2
_geom_bond_site_symmetry_1
_geom_bond_site_symmetry_2
Co1 N1 1_555 1_555
Co2 N10 1_555 1_555
Co3 N4 1_555 1_555
Co4 N22 1_555 1_555
N1 C1 1_555 1_555
C1 C2 1_555 1_555
C2 H1 1_555 1_555
C3 C2 1_555 1_555
C4 C3 1_555 1_555
H2 C4 1_555 1_555
C5 N1 1_555 1_555
H3 C5 1_555 1_555
C6 C3 1_555 1_555
H4 C6 1_555 1_555
H5 C6 1_555 1_555
O1 C6 1_555 1_555
N2 N3 1_555 1_555
N3 Co1 1_555 1_555
C7 C1 1_555 1_555
C8 C7 1_555 1_555
H6 C8 1_555 1_555
C9 N2 1_555 1_555
H7 C9 1_555 1_555
C10 N2 1_555 1_555
H8 C10 1_555 1_555
H9 C10 1_555 1_555
N4 C11 1_555 1_555
C11 C12 1_555 1_555
C12 H10 1_555 1_555
C13 C12 1_555 1_555
C14 C13 1_555 1_555
H11 C14 1_555 1_555
C15 N4 1_555 1_555
H12 C15 1_555 1_555
C16 C13 1_555 1_555
H13 C16 1_555 1_555
H14 C16 1_555 1_555
O2 C16 1_555 1_555
N5 Co3 1_555 1_555
N6 N5 1_555 1_555
C17 N6 1_555 1_555
H15 C17 1_555 1_555
C18 C17 1_555 1_555
H16 C18 1_555 1_555
C19 C11 1_555 1_555
C20 N6 1_555 1_555
H17 C20 1_555 1_555
H18 C20 1_555 1_555
C21 C10 1_555 1_555
C22 C21 1_555 1_555
H19 C22 1_555 1_555
C23 C22 1_555 1_555
H20 C23 1_555 1_555
C24 C23 1_555 1_555
H21 C24 1_555 1_555
C25 C24 1_555 1_555
C26 C21 1_555 1_555
C27 C26 1_555 1_555
H22 C27 1_555 1_555
C28 C27 1_555 1_555
H23 C28 1_555 1_555
C29 C28 1_555 1_555
H24 C29 1_555 1_555
C30 C20 1_555 1_555
N7 Co1 1_555 1_555
C31 N7 1_555 1_555
C32 C31 1_555 1_555
H25 C32 1_555 1_555
C33 C32 1_555 1_555
C34 C33 1_555 1_555
H26 C34 1_555 1_555
C35 N7 1_555 1_555
H27 C35 1_555 1_555
C36 C33 1_555 1_555
H28 C36 1_555 1_555
H29 C36 1_555 1_555
O3 C36 1_555 1_555
N8 N9 1_555 1_555
N9 Co1 1_555 1_555
C37 C31 1_555 1_555
C38 C37 1_555 1_555
H30 C38 1_555 1_555
C39 N8 1_555 1_555
H31 C39 1_555 1_555
C40 N8 1_555 1_555
H32 C40 1_555 1_555
H33 C40 1_555 1_555
N10 C41 1_555 1_555
C41 C42 1_555 1_555
C42 H34 1_555 1_555
C43 C42 1_555 1_555
C44 C43 1_555 1_555
H35 C44 1_555 1_555
C45 N10 1_555 1_555
H36 C45 1_555 1_555
C46 C43 1_555 1_555
H37 C46 1_555 1_555
H38 C46 1_555 1_555
O4 C46 1_555 1_555
N11 Co2 1_555 1_555
N12 N11 1_555 1_555
C47 N12 1_555 1_555
H39 C47 1_555 1_555
C48 C47 1_555 1_555
H40 C48 1_555 1_555
C49 C41 1_555 1_555
C50 N12 1_555 1_555
H41 C50 1_555 1_555
H42 C50 1_555 1_555
C51 C40 1_555 1_555
C52 C51 1_555 1_555
H43 C52 1_555 1_555
C53 C52 1_555 1_555
H44 C53 1_555 1_555
C54 C53 1_555 1_555
H45 C54 1_555 1_555
C55 C54 1_555 1_555
C56 C51 1_555 1_555
C57 C56 1_555 1_555
H46 C57 1_555 1_555
C58 C57 1_555 1_555
H47 C58 1_555 1_555
C59 C58 1_555 1_555
H48 C59 1_555 1_555
C60 C50 1_555 1_555
N13 Co1 1_555 1_555
C61 N13 1_555 1_555
C62 C61 1_555 1_555
H49 C62 1_555 1_555
C63 C62 1_555 1_555
C64 C63 1_555 1_555
H50 C64 1_555 1_555
C65 N13 1_555 1_555
H51 C65 1_555 1_555
C66 C63 1_555 1_555
H52 C66 1_555 1_555
H53 C66 1_555 1_555
O5 C66 1_555 1_555
N14 Co1 1_555 1_555
N15 N14 1_555 1_555
C67 N15 1_555 1_555
H54 C67 1_555 1_555
C68 C67 1_555 1_555
H55 C68 1_555 1_555
C69 C61 1_555 1_555
C70 N15 1_555 1_555
H56 C70 1_555 1_555
H57 C70 1_555 1_555
N16 C71 1_555 1_555
C71 C72 1_555 1_555
C72 H58 1_555 1_555
C73 C72 1_555 1_555
C74 C73 1_555 1_555
H59 C74 1_555 1_555
C75 N16 1_555 1_555
H60 C75 1_555 1_555
C76 C73 1_555 1_555
H61 C76 1_555 1_555
H62 C76 1_555 1_555
O6 C76 1_555 1_555
N17 N18 1_555 1_555
N18 C77 1_555 1_555
C77 H63 1_555 1_555
C78 C77 1_555 1_555
H64 C78 1_555 1_555
C79 C71 1_555 1_555
C80 N18 1_555 1_555
H65 C80 1_555 1_555
H66 C80 1_555 1_555
C81 C70 1_555 1_555
C82 C81 1_555 1_555
H67 C82 1_555 1_555
C83 C82 1_555 1_555
H68 C83 1_555 1_555
C84 C83 1_555 1_555
H69 C84 1_555 1_555
C85 C84 1_555 1_555
C86 C81 1_555 1_555
C87 C86 1_555 1_555
H70 C87 1_555 1_555
C88 C87 1_555 1_555
H71 C88 1_555 1_555
C89 C88 1_555 1_555
H72 C89 1_555 1_555
C90 C80 1_555 1_555
N19 Co3 1_555 1_555
C91 N19 1_555 1_555
C92 C91 1_555 1_555
H73 C92 1_555 1_555
C93 C92 1_555 1_555
C94 C93 1_555 1_555
H74 C94 1_555 1_555
C95 N19 1_555 1_555
H75 C95 1_555 1_555
C96 C93 1_555 1_555
H76 C96 1_555 1_555
H77 C96 1_555 1_555
O7 C96 1_555 1_555
N20 Co3 1_555 1_555
N21 N20 1_555 1_555
C97 N21 1_555 1_555
H78 C97 1_555 1_555
C98 C97 1_555 1_555
H79 C98 1_555 1_555
C99 C91 1_555 1_555
C100 N21 1_555 1_555
H80 C100 1_555 1_555
H81 C100 1_555 1_555
N22 C101 1_555 1_555
C101 C102 1_555 1_555
C102 H82 1_555 1_555
C103 C102 1_555 1_555
C104 C103 1_555 1_555
H83 C104 1_555 1_555
C105 N22 1_555 1_555
H84 C105 1_555 1_555
C106 C103 1_555 1_555
H85 C106 1_555 1_555
H86 C106 1_555 1_555
O8 C106 1_555 1_555
N23 Co4 1_555 1_555
N24 N23 1_555 1_555
C107 N24 1_555 1_555
H87 C107 1_555 1_555
C108 C107 1_555 1_555
H88 C108 1_555 1_555
C109 C101 1_555 1_555
C110 N24 1_555 1_555
H89 C110 1_555 1_555
H90 C110 1_555 1_555
C111 C100 1_555 1_555
C112 C111 1_555 1_555
H91 C112 1_555 1_555
C113 C112 1_555 1_555
H92 C113 1_555 1_555
C114 C113 1_555 1_555
H93 C114 1_555 1_555
C115 C114 1_555 1_555
C116 C111 1_555 1_555
C117 C116 1_555 1_555
H94 C117 1_555 1_555
C118 C117 1_555 1_555
H95 C118 1_555 1_555
C119 C118 1_555 1_555
H96 C119 1_555 1_555
C120 C110 1_555 1_555
N25 Co2 1_555 1_555
C121 N25 1_555 1_555
C122 C121 1_555 1_555
H97 C122 1_555 1_555
C123 C122 1_555 1_555
C124 C123 1_555 1_555
H98 C124 1_555 1_555
C125 N25 1_555 1_555
H99 C125 1_555 1_555
C126 C123 1_555 1_555
H100 C126 1_555 1_555
H101 C126 1_555 1_555
O9 C126 1_555 1_555
N26 Co2 1_555 1_555
N27 N26 1_555 1_555
C127 N27 1_555 1_555
H102 C127 1_555 1_555
C128 C127 1_555 1_555
H103 C128 1_555 1_555
C129 C121 1_555 1_555
C130 N27 1_555 1_555
H104 C130 1_555 1_555
H105 C130 1_555 1_555
N28 C131 1_555 1_555
C131 C132 1_555 1_555
C132 H106 1_555 1_555
C133 C132 1_555 1_555
C134 C133 1_555 1_555
H107 C134 1_555 1_555
C135 N28 1_555 1_555
H108 C135 1_555 1_555
C136 C133 1_555 1_555
H109 C136 1_555 1_555
H110 C136 1_555 1_555
O10 C136 1_555 1_555
N29 N30 1_555 1_555
N30 C137 1_555 1_555
C137 H111 1_555 1_555
C138 C137 1_555 1_555
H112 C138 1_555 1_555
C139 C131 1_555 1_555
C140 N30 1_555 1_555
H113 C140 1_555 1_555
H114 C140 1_555 1_555
C141 C130 1_555 1_555
C142 C141 1_555 1_555
H115 C142 1_555 1_555
C143 C142 1_555 1_555
H116 C143 1_555 1_555
C144 C143 1_555 1_555
H117 C144 1_555 1_555
C145 C144 1_555 1_555
C146 C141 1_555 1_555
C147 C146 1_555 1_555
H118 C147 1_555 1_555
C148 C147 1_555 1_555
H119 C148 1_555 1_555
C149 C148 1_555 1_555
H120 C149 1_555 1_555
C150 C140 1_555 1_555
N31 Co2 1_555 1_555
C151 N31 1_555 1_555
C152 C151 1_555 1_555
H121 C152 1_555 1_555
C153 C152 1_555 1_555
C154 C153 1_555 1_555
H122 C154 1_555 1_555
C155 N31 1_555 1_555
H123 C155 1_555 1_555
C156 C153 1_555 1_555
H124 C156 1_555 1_555
H125 C156 1_555 1_555
O11 C156 1_555 1_555
N32 Co2 1_555 1_555
N33 N32 1_555 1_555
C157 N33 1_555 1_555
H126 C157 1_555 1_555
C158 C157 1_555 1_555
H127 C158 1_555 1_555
C159 C151 1_555 1_555
C160 N33 1_555 1_555
H128 C160 1_555 1_555
H129 C160 1_555 1_555
N34 Co4 1_555 1_555
C161 N34 1_555 1_555
C162 C161 1_555 1_555
H130 C162 1_555 1_555
C163 C162 1_555 1_555
C164 C163 1_555 1_555
H131 C164 1_555 1_555
C165 N34 1_555 1_555
H132 C165 1_555 1_555
C166 C163 1_555 1_555
H133 C166 1_555 1_555
H134 C166 1_555 1_555
O12 C166 1_555 1_555
N35 Co4 1_555 1_555
N36 N35 1_555 1_555
C167 N36 1_555 1_555
H135 C167 1_555 1_555
C168 C167 1_555 1_555
H136 C168 1_555 1_555
C169 C161 1_555 1_555
C170 N36 1_555 1_555
H137 C170 1_555 1_555
H138 C170 1_555 1_555
C171 C160 1_555 1_555
C172 C171 1_555 1_555
H139 C172 1_555 1_555
C173 C172 1_555 1_555
H140 C173 1_555 1_555
C174 C173 1_555 1_555
H141 C174 1_555 1_555
C175 C174 1_555 1_555
C176 C171 1_555 1_555
C177 C176 1_555 1_555
H142 C177 1_555 1_555
C178 C177 1_555 1_555
H143 C178 1_555 1_555
C179 C178 1_555 1_555
H144 C179 1_555 1_555
C180 C170 1_555 1_555
B1 F1 1_555 1_555
F2 B1 1_555 1_555
F3 B1 1_555 1_555
F4 B1 1_555 1_555
B2 F5 1_555 1_555
F6 B2 1_555 1_555
F7 B2 1_555 1_555
F8 B2 1_555 1_555
B3 F9 1_555 1_555
F10 B3 1_555 1_555
F11 B3 1_555 1_555
F12 B3 1_555 1_555
B4 F13 1_555 1_555
F14 B4 1_555 1_555
F15 B4 1_555 1_555
F16 B4 1_555 1_555
B5 F17 1_555 1_555
F18 B5 1_555 1_555
F19 B5 1_555 1_555
F20 B5 1_555 1_555
P1 O16 1_555 1_555
O17 P1 1_555 1_555
C181 O17 1_555 1_555
H151 C181 1_555 1_555
H152 C181 1_555 1_555
H153 C181 1_555 1_555
O18 P1 1_555 1_555
C182 O18 1_555 1_555
H154 C182 1_555 1_555
H155 C182 1_555 1_555
H156 C182 1_555 1_555
C183 P1 1_555 1_555
H157 C183 1_555 1_555
H158 C183 1_555 1_555
H159 C183 1_555 1_555
Co1F N1F 1_555 1_555
Co2F N10F 1_555 1_555
Co3F N28 1_555 1_555
Co4F N16 1_555 1_555
N1F C1F 1_555 1_555
C1F C2F 1_555 1_555
C2F H1F 1_555 1_555
C3F C2F 1_555 1_555
C4F C3F 1_555 1_555
H2F C4F 1_555 1_555
C5F N1F 1_555 1_555
H3F C5F 1_555 1_555
C6F C3F 1_555 1_555
H4F C6F 1_555 1_555
H5F C6F 1_555 1_555
O1F C6F 1_555 1_555
N2F N3F 1_555 1_555
N3F Co1F 1_555 1_555
C7F C1F 1_555 1_555
C8F C7F 1_555 1_555
H6F C8F 1_555 1_555
C9F N2F 1_555 1_555
H7F C9F 1_555 1_555
C10F N2F 1_555 1_555
H8F C10F 1_555 1_555
H9F C10F 1_555 1_555
N4F Co3F 1_555 1_555
C11F N4F 1_555 1_555
C12F C11F 1_555 1_555
H10F C12F 1_555 1_555
C13F C12F 1_555 1_555
C14F C13F 1_555 1_555
H11F C14F 1_555 1_555
C15F N4F 1_555 1_555
H12F C15F 1_555 1_555
C16F C13F 1_555 1_555
H13F C16F 1_555 1_555
H14F C16F 1_555 1_555
O2F C16F 1_555 1_555
N5F Co3F 1_555 1_555
N6F N5F 1_555 1_555
C17F N6F 1_555 1_555
H15F C17F 1_555 1_555
C18F C17F 1_555 1_555
H16F C18F 1_555 1_555
C19F C11F 1_555 1_555
C20F N6F 1_555 1_555
H17F C20F 1_555 1_555
H18F C20F 1_555 1_555
C21F C10F 1_555 1_555
C22F C21F 1_555 1_555
H19F C22F 1_555 1_555
C23F C22F 1_555 1_555
H20F C23F 1_555 1_555
C24F C23F 1_555 1_555
H21F C24F 1_555 1_555
C25F C24F 1_555 1_555
C26F C21F 1_555 1_555
C27F C26F 1_555 1_555
H22F C27F 1_555 1_555
C28F C27F 1_555 1_555
H23F C28F 1_555 1_555
C29F C28F 1_555 1_555
H24F C29F 1_555 1_555
C30F C20F 1_555 1_555
N7F Co1F 1_555 1_555
C31F N7F 1_555 1_555
C32F C31F 1_555 1_555
H25F C32F 1_555 1_555
C33F C32F 1_555 1_555
C34F C33F 1_555 1_555
H26F C34F 1_555 1_555
C35F N7F 1_555 1_555
H27F C35F 1_555 1_555
C36F C33F 1_555 1_555
H28F C36F 1_555 1_555
H29F C36F 1_555 1_555
O3F C36F 1_555 1_555
N8F N9F 1_555 1_555
N9F Co1F 1_555 1_555
C37F C31F 1_555 1_555
C38F C37F 1_555 1_555
H30F C38F 1_555 1_555
C39F N8F 1_555 1_555
H31F C39F 1_555 1_555
C40F N8F 1_555 1_555
H32F C40F 1_555 1_555
H33F C40F 1_555 1_555
N10F C41F 1_555 1_555
C41F C42F 1_555 1_555
C42F H34F 1_555 1_555
C43F C42F 1_555 1_555
C44F C43F 1_555 1_555
H35F C44F 1_555 1_555
C45F N10F 1_555 1_555
H36F C45F 1_555 1_555
C46F C43F 1_555 1_555
H37F C46F 1_555 1_555
H38F C46F 1_555 1_555
O4F C46F 1_555 1_555
N11F Co2F 1_555 1_555
N12F N11F 1_555 1_555
C47F N12F 1_555 1_555
H39F C47F 1_555 1_555
C48F C47F 1_555 1_555
H40F C48F 1_555 1_555
C49F C41F 1_555 1_555
C50F N12F 1_555 1_555
H41F C50F 1_555 1_555
H42F C50F 1_555 1_555
C51F C40F 1_555 1_555
C52F C51F 1_555 1_555
H43F C52F 1_555 1_555
C53F C52F 1_555 1_555
H44F C53F 1_555 1_555
C54F C53F 1_555 1_555
H45F C54F 1_555 1_555
C55F C54F 1_555 1_555
C56F C51F 1_555 1_555
C57F C56F 1_555 1_555
H46F C57F 1_555 1_555
C58F C57F 1_555 1_555
H47F C58F 1_555 1_555
C59F C58F 1_555 1_555
H48F C59F 1_555 1_555
C60F C50F 1_555 1_555
N13F Co1F 1_555 1_555
C61F N13F 1_555 1_555
C62F C61F 1_555 1_555
H49F C62F 1_555 1_555
C63F C62F 1_555 1_555
C64F C63F 1_555 1_555
H50F C64F 1_555 1_555
C65F N13F 1_555 1_555
H51F C65F 1_555 1_555
C66F C63F 1_555 1_555
H52F C66F 1_555 1_555
H53F C66F 1_555 1_555
O5F C66F 1_555 1_555
N14F Co1F 1_555 1_555
N15F N14F 1_555 1_555
C67F N15F 1_555 1_555
H54F C67F 1_555 1_555
C68F C67F 1_555 1_555
H55F C68F 1_555 1_555
C69F C61F 1_555 1_555
C70F N15F 1_555 1_555
H56F C70F 1_555 1_555
H57F C70F 1_555 1_555
N16F Co4 1_555 1_555
C71F N16F 1_555 1_555
C72F C71F 1_555 1_555
H58F C72F 1_555 1_555
C73F C72F 1_555 1_555
C74F C73F 1_555 1_555
H59F C74F 1_555 1_555
C75F N16F 1_555 1_555
H60F C75F 1_555 1_555
C76F C73F 1_555 1_555
H61F C76F 1_555 1_555
H62F C76F 1_555 1_555
O6F C76F 1_555 1_555
N17F Co4 1_555 1_555
N18F N17F 1_555 1_555
C77F N18F 1_555 1_555
H63F C77F 1_555 1_555
C78F C77F 1_555 1_555
H64F C78F 1_555 1_555
C79F C71F 1_555 1_555
C80F N18F 1_555 1_555
H65F C80F 1_555 1_555
H66F C80F 1_555 1_555
C81F C70F 1_555 1_555
C82F C81F 1_555 1_555
H67F C82F 1_555 1_555
C83F C82F 1_555 1_555
H68F C83F 1_555 1_555
C84F C83F 1_555 1_555
H69F C84F 1_555 1_555
C85F C84F 1_555 1_555
C86F C81F 1_555 1_555
C87F C86F 1_555 1_555
H70F C87F 1_555 1_555
C88F C87F 1_555 1_555
H71F C88F 1_555 1_555
C89F C88F 1_555 1_555
H72F C89F 1_555 1_555
C90F C80F 1_555 1_555
N19F Co3F 1_555 1_555
C91F N19F 1_555 1_555
C92F C91F 1_555 1_555
H73F C92F 1_555 1_555
C93F C92F 1_555 1_555
C94F C93F 1_555 1_555
H74F C94F 1_555 1_555
C95F N19F 1_555 1_555
H75F C95F 1_555 1_555
C96F C93F 1_555 1_555
H76F C96F 1_555 1_555
H77F C96F 1_555 1_555
O7F C96F 1_555 1_555
N20F Co3F 1_555 1_555
N21F N20F 1_555 1_555
C97F N21F 1_555 1_555
H78F C97F 1_555 1_555
C98F C97F 1_555 1_555
H79F C98F 1_555 1_555
C99F C91F 1_555 1_555
C100F N21F 1_555 1_555
H80F C100F 1_555 1_555
H81F C100F 1_555 1_555
N22F Co4F 1_555 1_555
C101F N22F 1_555 1_555
C102F C101F 1_555 1_555
H82F C102F 1_555 1_555
C103F C102F 1_555 1_555
C104F C103F 1_555 1_555
H83F C104F 1_555 1_555
C105F N22F 1_555 1_555
H84F C105F 1_555 1_555
C106F C103F 1_555 1_555
H85F C106F 1_555 1_555
H86F C106F 1_555 1_555
O8F C106F 1_555 1_555
N23F Co4F 1_555 1_555
N24F N23F 1_555 1_555
C107F N24F 1_555 1_555
H87F C107F 1_555 1_555
C108F C107F 1_555 1_555
H88F C108F 1_555 1_555
C109F C101F 1_555 1_555
C110F N24F 1_555 1_555
H89F C110F 1_555 1_555
H90F C110F 1_555 1_555
C111F C100F 1_555 1_555
C112F C111F 1_555 1_555
H91F C112F 1_555 1_555
C113F C112F 1_555 1_555
H92F C113F 1_555 1_555
C114F C113F 1_555 1_555
H93F C114F 1_555 1_555
C115F C114F 1_555 1_555
C116F C111F 1_555 1_555
C117F C116F 1_555 1_555
H94F C117F 1_555 1_555
C118F C117F 1_555 1_555
H95F C118F 1_555 1_555
C119F C118F 1_555 1_555
H96F C119F 1_555 1_555
C120F C110F 1_555 1_555
N25F Co2F 1_555 1_555
C121F N25F 1_555 1_555
C122F C121F 1_555 1_555
H97F C122F 1_555 1_555
C123F C122F 1_555 1_555
C124F C123F 1_555 1_555
H98F C124F 1_555 1_555
C125F N25F 1_555 1_555
H99F C125F 1_555 1_555
C126F C123F 1_555 1_555
H100F C126F 1_555 1_555
H101F C126F 1_555 1_555
O9F C126F 1_555 1_555
N26F Co2F 1_555 1_555
N27F N26F 1_555 1_555
C127F N27F 1_555 1_555
H102F C127F 1_555 1_555
C128F C127F 1_555 1_555
H103F C128F 1_555 1_555
C129F C121F 1_555 1_555
C130F N27F 1_555 1_555
H104F C130F 1_555 1_555
H105F C130F 1_555 1_555
N28F Co3 1_555 1_555
C131F N28F 1_555 1_555
C132F C131F 1_555 1_555
H106F C132F 1_555 1_555
C133F C132F 1_555 1_555
C134F C133F 1_555 1_555
H107F C134F 1_555 1_555
C135F N28F 1_555 1_555
H108F C135F 1_555 1_555
C136F C133F 1_555 1_555
H109F C136F 1_555 1_555
H110F C136F 1_555 1_555
O10F C136F 1_555 1_555
N29F Co3 1_555 1_555
N30F N29F 1_555 1_555
C137F N30F 1_555 1_555
H111F C137F 1_555 1_555
C138F C137F 1_555 1_555
H112F C138F 1_555 1_555
C139F C131F 1_555 1_555
C140F N30F 1_555 1_555
H113F C140F 1_555 1_555
H114F C140F 1_555 1_555
C141F C130F 1_555 1_555
C142F C141F 1_555 1_555
H115F C142F 1_555 1_555
C143F C142F 1_555 1_555
H116F C143F 1_555 1_555
C144F C143F 1_555 1_555
H117F C144F 1_555 1_555
C145F C144F 1_555 1_555
C146F C141F 1_555 1_555
C147F C146F 1_555 1_555
H118F C147F 1_555 1_555
C148F C147F 1_555 1_555
H119F C148F 1_555 1_555
C149F C148F 1_555 1_555
H120F C149F 1_555 1_555
C150F C140F 1_555 1_555
N31F Co2F 1_555 1_555
C151F N31F 1_555 1_555
C152F C151F 1_555 1_555
H121F C152F 1_555 1_555
C153F C152F 1_555 1_555
C154F C153F 1_555 1_555
H122F C154F 1_555 1_555
C155F N31F 1_555 1_555
H123F C155F 1_555 1_555
C156F C153F 1_555 1_555
H124F C156F 1_555 1_555
H125F C156F 1_555 1_555
O11F C156F 1_555 1_555
N32F Co2F 1_555 1_555
N33F N32F 1_555 1_555
C157F N33F 1_555 1_555
H126F C157F 1_555 1_555
C158F C157F 1_555 1_555
H127F C158F 1_555 1_555
C159F C151F 1_555 1_555
C160F N33F 1_555 1_555
H128F C160F 1_555 1_555
H129F C160F 1_555 1_555
N34F Co4F 1_555 1_555
C161F N34F 1_555 1_555
C162F C161F 1_555 1_555
H130F C162F 1_555 1_555
C163F C162F 1_555 1_555
C164F C163F 1_555 1_555
H131F C164F 1_555 1_555
C165F N34F 1_555 1_555
H132F C165F 1_555 1_555
C166F C163F 1_555 1_555
H133F C166F 1_555 1_555
H134F C166F 1_555 1_555
O12F C166F 1_555 1_555
N35F Co4F 1_555 1_555
N36F N35F 1_555 1_555
C167F N36F 1_555 1_555
H135F C167F 1_555 1_555
C168F C167F 1_555 1_555
H136F C168F 1_555 1_555
C169F C161F 1_555 1_555
C170F N36F 1_555 1_555
H137F C170F 1_555 1_555
H138F C170F 1_555 1_555
C171F C160F 1_555 1_555
C172F C171F 1_555 1_555
H139F C172F 1_555 1_555
C173F C172F 1_555 1_555
H140F C173F 1_555 1_555
C174F C173F 1_555 1_555
H141F C174F 1_555 1_555
C175F C174F 1_555 1_555
C176F C171F 1_555 1_555
C177F C176F 1_555 1_555
H142F C177F 1_555 1_555
C178F C177F 1_555 1_555
H143F C178F 1_555 1_555
C179F C178F 1_555 1_555
H144F C179F 1_555 1_555
C180F C170F 1_555 1_555
C4 C5 1_555 1_555
N3 C7 1_555 1_555
C8 C9 1_555 1_555
C14 C15 1_555 1_555
N5 C19 1_555 1_555
C18 C19 1_555 1_555
C25 C26 1_555 1_555
C25 C30 1_555 1_555
C29 C30 1_555 1_555
C34 C35 1_555 1_555
N9 C37 1_555 1_555
C38 C39 1_555 1_555
C44 C45 1_555 1_555
N11 C49 1_555 1_555
C48 C49 1_555 1_555
C55 C56 1_555 1_555
C55 C60 1_555 1_555
C59 C60 1_555 1_555
C64 C65 1_555 1_555
N14 C69 1_555 1_555
C68 C69 1_555 1_555
C74 C75 1_555 1_555
N17 C79 1_555 1_555
N17 Co4F 1_555 1_555
C78 C79 1_555 1_555
C85 C86 1_555 1_555
C85 C90 1_555 1_555
C89 C90 1_555 1_555
C94 C95 1_555 1_555
N20 C99 1_555 1_555
C98 C99 1_555 1_555
C104 C105 1_555 1_555
N23 C109 1_555 1_555
C108 C109 1_555 1_555
C115 C116 1_555 1_555
C115 C120 1_555 1_555
C119 C120 1_555 1_555
C124 C125 1_555 1_555
N26 C129 1_555 1_555
C128 C129 1_555 1_555
C134 C135 1_555 1_555
N29 C139 1_555 1_555
N29 Co3F 1_555 1_555
C138 C139 1_555 1_555
C145 C146 1_555 1_555
C145 C150 1_555 1_555
C149 C150 1_555 1_555
C154 C155 1_555 1_555
N32 C159 1_555 1_555
C158 C159 1_555 1_555
C164 C165 1_555 1_555
N35 C169 1_555 1_555
C168 C169 1_555 1_555
C175 C176 1_555 1_555
C175 C180 1_555 1_555
C179 C180 1_555 1_555
C4F C5F 1_555 1_555
N3F C7F 1_555 1_555
C8F C9F 1_555 1_555
C14F C15F 1_555 1_555
N5F C19F 1_555 1_555
C18F C19F 1_555 1_555
C25F C26F 1_555 1_555
C25F C30F 1_555 1_555
C29F C30F 1_555 1_555
C34F C35F 1_555 1_555
N9F C37F 1_555 1_555
C38F C39F 1_555 1_555
C44F C45F 1_555 1_555
N11F C49F 1_555 1_555
C48F C49F 1_555 1_555
C55F C56F 1_555 1_555
C55F C60F 1_555 1_555
C59F C60F 1_555 1_555
C64F C65F 1_555 1_555
N14F C69F 1_555 1_555
C68F C69F 1_555 1_555
C74F C75F 1_555 1_555
N17F C79F 1_555 1_555
C78F C79F 1_555 1_555
C85F C86F 1_555 1_555
C85F C90F 1_555 1_555
C89F C90F 1_555 1_555
C94F C95F 1_555 1_555
N20F C99F 1_555 1_555
C98F C99F 1_555 1_555
C104F C105F 1_555 1_555
N23F C109F 1_555 1_555
C108F C109F 1_555 1_555
C115F C116F 1_555 1_555
C115F C120F 1_555 1_555
C119F C120F 1_555 1_555
C124F C125F 1_555 1_555
N26F C129F 1_555 1_555
C128F C129F 1_555 1_555
C134F C135F 1_555 1_555
N29F C139F 1_555 1_555
C138F C139F 1_555 1_555
C145F C146F 1_555 1_555
C145F C150F 1_555 1_555
C149F C150F 1_555 1_555
C154F C155F 1_555 1_555
N32F C159F 1_555 1_555
C158F C159F 1_555 1_555
C164F C165F 1_555 1_555
N35F C169F 1_555 1_555
C168F C169F 1_555 1_555
C175F C176F 1_555 1_555
C175F C180F 1_555 1_555
C179F C180F 1_555 1_555

#END
