# generated using pymatgen
data_Co4B7PH149C175N36O3F28
_symmetry_space_group_name_H-M   'P 1'
_cell_length_a   22.12360416
_cell_length_b   22.12360416
_cell_length_c   39.85540000
_cell_angle_alpha   85.02706932
_cell_angle_beta   85.02706932
_cell_angle_gamma   84.64544028
_symmetry_Int_Tables_number   1
_chemical_formula_structural   Co4B7PH149C175N36O3F28
_chemical_formula_sum   'Co16 B28 P4 H596 C700 N144 O12 F112'
_cell_volume   19288.30510433
_cell_formula_units_Z   4
loop_
 _symmetry_equiv_pos_site_id
 _symmetry_equiv_pos_as_xyz
  1  'x, y, z'
loop_
 _atom_site_type_symbol
 _atom_site_label
 _atom_site_symmetry_multiplicity
 _atom_site_fract_x
 _atom_site_fract_y
 _atom_site_fract_z
 _atom_site_occupancy
  B  B1  1  0.833700  0.736700  0.710900  1
  B  B2  1  0.263300  0.166300  0.789100  1
  B  B3  1  0.166300  0.263300  0.289100  1
  B  B4  1  0.736700  0.833700  0.210900  1
  B  B5  1  0.225050  0.122050  0.432760  1
  B  B6  1  0.877950  0.774950  0.067240  1
  B  B7  1  0.774950  0.877950  0.567240  1
  B  B8  1  0.122050  0.225050  0.932760  1
  B  B9  1  0.366200  0.921600  0.665270  1
  B  B10  1  0.078400  0.633800  0.834730  1
  B  B11  1  0.633800  0.078400  0.334730  1
  B  B12  1  0.921600  0.366200  0.165270  1
  B  B13  1  0.946210  0.072610  0.652510  1
  B  B14  1  0.927390  0.053790  0.847490  1
  B  B15  1  0.053790  0.927390  0.347490  1
  B  B16  1  0.072610  0.946210  0.152510  1
  B  B17  1  0.191900  0.571700  0.500800  1
  B  B18  1  0.428300  0.808100  0.999200  1
  B  B19  1  0.808100  0.428300  0.499200  1
  B  B20  1  0.571700  0.191900  0.000800  1
  B  B21  1  0.340300  0.525500  0.529900  1
  B  B22  1  0.474500  0.659700  0.970100  1
  B  B23  1  0.659700  0.474500  0.470100  1
  B  B24  1  0.525500  0.340300  0.029900  1
  B  B25  1  0.982400  0.441200  0.311700  1
  B  B26  1  0.558800  0.017600  0.188300  1
  B  B27  1  0.017600  0.558800  0.688300  1
  B  B28  1  0.441200  0.982400  0.811700  1
  C  C29  1  0.455700  0.871100  0.468200  1
  C  C30  1  0.128900  0.544300  0.031800  1
  C  C31  1  0.544300  0.128900  0.531800  1
  C  C32  1  0.871100  0.455700  0.968200  1
  C  C33  1  0.508700  0.825500  0.475900  1
  C  C34  1  0.174500  0.491300  0.024100  1
  C  C35  1  0.491300  0.174500  0.524100  1
  C  C36  1  0.825500  0.508700  0.975900  1
  C  C37  1  0.433600  0.835800  0.442500  1
  C  C38  1  0.164200  0.566400  0.057500  1
  C  C39  1  0.566400  0.164200  0.557500  1
  C  C40  1  0.835800  0.433600  0.942500  1
  C  C41  1  0.450000  0.967400  0.566000  1
  C  C42  1  0.032600  0.550000  0.934000  1
  C  C43  1  0.550000  0.032600  0.434000  1
  C  C44  1  0.967400  0.450000  0.066000  1
  C  C45  1  0.516100  0.958900  0.572300  1
  C  C46  1  0.041100  0.483900  0.927700  1
  C  C47  1  0.483900  0.041100  0.427700  1
  C  C48  1  0.958900  0.516100  0.072300  1
  C  C49  1  0.429300  0.032500  0.569900  1
  C  C50  1  0.967500  0.570700  0.930100  1
  C  C51  1  0.570700  0.967500  0.430100  1
  C  C52  1  0.032500  0.429300  0.069900  1
  C  C53  1  0.388600  0.050400  0.486800  1
  C  C54  1  0.949600  0.611400  0.013200  1
  C  C55  1  0.611400  0.949600  0.513200  1
  C  C56  1  0.050400  0.388600  0.986800  1
  C  C57  1  0.668910  0.140830  0.783560  1.0
  C  C58  1  0.859170  0.331090  0.716440  1.0
  C  C59  1  0.331090  0.859170  0.216440  1.0
  C  C60  1  0.140830  0.668910  0.283560  1.0
  C  C61  1  0.702810  0.160790  0.807560  1.0
  C  C62  1  0.839210  0.297190  0.692440  1.0
  C  C63  1  0.297190  0.839210  0.192440  1.0
  C  C64  1  0.160790  0.702810  0.307560  1.0
  C  C65  1  0.765830  0.148830  0.805320  1.0
  C  C66  1  0.851170  0.234170  0.694680  1.0
  C  C67  1  0.234170  0.851170  0.194680  1.0
  C  C68  1  0.148830  0.765830  0.305320  1.0
  C  C69  1  0.794850  0.116990  0.779070  1.0
  C  C70  1  0.883010  0.205150  0.720930  1.0
  C  C71  1  0.205150  0.883010  0.220930  1.0
  C  C72  1  0.116990  0.794850  0.279070  1.0
  C  C73  1  0.760950  0.097030  0.755070  1.0
  C  C74  1  0.902970  0.239050  0.744930  1.0
  C  C75  1  0.239050  0.902970  0.244930  1.0
  C  C76  1  0.097030  0.760950  0.255070  1.0
  C  C77  1  0.503910  0.164890  0.798240  1.0
  C  C78  1  0.835110  0.496090  0.701760  1.0
  C  C79  1  0.496090  0.835110  0.201760  1.0
  C  C80  1  0.164890  0.503910  0.298240  1.0
  C  C81  1  0.562110  0.174310  0.808250  1.0
  C  C82  1  0.825690  0.437890  0.691750  1.0
  C  C83  1  0.437890  0.825690  0.191750  1.0
  C  C84  1  0.174310  0.562110  0.308250  1.0
  C  C85  1  0.606870  0.148030  0.784780  1.0
  C  C86  1  0.851970  0.393130  0.715220  1.0
  C  C87  1  0.393130  0.851970  0.215220  1.0
  C  C88  1  0.148030  0.606870  0.284780  1.0
  C  C89  1  0.468900  0.120300  0.746400  1.0
  C  C90  1  0.879700  0.531100  0.753600  1.0
  C  C91  1  0.531100  0.879700  0.253600  1.0
  C  C92  1  0.120300  0.468900  0.246400  1.0
  C  C93  1  0.195520  0.214700  0.549350  1.0
  C  C94  1  0.785300  0.804480  0.950650  1.0
  C  C95  1  0.804480  0.785300  0.450650  1.0
  C  C96  1  0.214700  0.195520  0.049350  1.0
  C  C97  1  0.180340  0.194740  0.519290  1.0
  C  C98  1  0.805260  0.819660  0.980710  1.0
  C  C99  1  0.819660  0.805260  0.480710  1.0
  C  C100  1  0.194740  0.180340  0.019290  1.0
  C  C101  1  0.120680  0.204480  0.510260  1.0
  C  C102  1  0.795520  0.879320  0.989740  1.0
  C  C103  1  0.879320  0.795520  0.489740  1.0
  C  C104  1  0.204480  0.120680  0.010260  1.0
  C  C105  1  0.076290  0.234090  0.531280  1.0
  C  C106  1  0.765910  0.923710  0.968720  1.0
  C  C107  1  0.923710  0.765910  0.468720  1.0
  C  C108  1  0.234090  0.076290  0.031280  1.0
  C  C109  1  0.091440  0.254080  0.561340  1.0
  C  C110  1  0.745920  0.908560  0.938660  1.0
  C  C111  1  0.908560  0.745920  0.438660  1.0
  C  C112  1  0.254080  0.091440  0.061340  1.0
  C  C113  1  0.355750  0.195710  0.560540  1.0
  C  C114  1  0.804290  0.644250  0.939460  1.0
  C  C115  1  0.644250  0.804290  0.439460  1.0
  C  C116  1  0.195710  0.355750  0.060540  1.0
  C  C117  1  0.306970  0.184190  0.541730  1.0
  C  C118  1  0.815810  0.693030  0.958270  1.0
  C  C119  1  0.693030  0.815810  0.458270  1.0
  C  C120  1  0.184190  0.306970  0.041730  1.0
  C  C121  1  0.252110  0.210810  0.557570  1.0
  C  C122  1  0.789190  0.747890  0.942430  1.0
  C  C123  1  0.747890  0.789190  0.442430  1.0
  C  C124  1  0.210810  0.252110  0.057570  1.0
  C  C125  1  0.362900  0.248300  0.613600  1.0
  C  C126  1  0.751700  0.637100  0.886400  1.0
  C  C127  1  0.637100  0.751700  0.386400  1.0
  C  C128  1  0.248300  0.362900  0.113600  1.0
  C  C129  1  0.457820  0.169760  0.718430  1.0
  C  C130  1  0.830240  0.542180  0.781570  1.0
  C  C131  1  0.542180  0.830240  0.281570  1.0
  C  C132  1  0.169760  0.457820  0.218430  1.0
  C  C133  1  0.487220  0.222820  0.717400  1.0
  C  C134  1  0.777180  0.512780  0.782600  1.0
  C  C135  1  0.512780  0.777180  0.282600  1.0
  C  C136  1  0.222820  0.487220  0.217400  1.0
  C  C137  1  0.478000  0.268380  0.691620  1.0
  C  C138  1  0.731620  0.522000  0.808380  1.0
  C  C139  1  0.522000  0.731620  0.308380  1.0
  C  C140  1  0.268380  0.478000  0.191620  1.0
  C  C141  1  0.439380  0.260880  0.666860  1.0
  C  C142  1  0.739120  0.560620  0.833140  1.0
  C  C143  1  0.560620  0.739120  0.333140  1.0
  C  C144  1  0.260880  0.439380  0.166860  1.0
  C  C145  1  0.409980  0.207820  0.667890  1.0
  C  C146  1  0.792180  0.590020  0.832110  1.0
  C  C147  1  0.590020  0.792180  0.332110  1.0
  C  C148  1  0.207820  0.409980  0.167890  1.0
  C  C149  1  0.419200  0.162260  0.693670  1.0
  C  C150  1  0.837740  0.580800  0.806330  1.0
  C  C151  1  0.580800  0.837740  0.306330  1.0
  C  C152  1  0.162260  0.419200  0.193670  1.0
  C  C153  1  0.389810  0.109190  0.694700  1.0
  C  C154  1  0.890810  0.610190  0.805300  1.0
  C  C155  1  0.610190  0.890810  0.305300  1.0
  C  C156  1  0.109190  0.389810  0.194700  1.0
  C  C157  1  0.351190  0.101690  0.669940  1.0
  C  C158  1  0.898310  0.648810  0.830060  1.0
  C  C159  1  0.648810  0.898310  0.330060  1.0
  C  C160  1  0.101690  0.351190  0.169940  1.0
  C  C161  1  0.341960  0.147260  0.644160  1.0
  C  C162  1  0.852740  0.658040  0.855840  1.0
  C  C163  1  0.658040  0.852740  0.355840  1.0
  C  C164  1  0.147260  0.341960  0.144160  1.0
  C  C165  1  0.371360  0.200320  0.643130  1.0
  C  C166  1  0.799680  0.628640  0.856870  1.0
  C  C167  1  0.628640  0.799680  0.356870  1.0
  C  C168  1  0.200320  0.371360  0.143130  1.0
  C  C169  1  0.680680  0.947100  0.741350  1.0
  C  C170  1  0.052900  0.319320  0.758650  1.0
  C  C171  1  0.319320  0.052900  0.258650  1.0
  C  C172  1  0.947100  0.680680  0.241350  1.0
  C  C173  1  0.680490  0.887390  0.755430  1.0
  C  C174  1  0.112610  0.319510  0.744570  1.0
  C  C175  1  0.319510  0.112610  0.244570  1.0
  C  C176  1  0.887390  0.680490  0.255430  1.0
  C  C177  1  0.635300  0.871520  0.780210  1.0
  C  C178  1  0.128480  0.364700  0.719790  1.0
  C  C179  1  0.364700  0.128480  0.219790  1.0
  C  C180  1  0.871520  0.635300  0.280210  1.0
  C  C181  1  0.590300  0.915380  0.790920  1.0
  C  C182  1  0.084620  0.409700  0.709080  1.0
  C  C183  1  0.409700  0.084620  0.209080  1.0
  C  C184  1  0.915380  0.590300  0.290920  1.0
  C  C185  1  0.590500  0.975100  0.776840  1.0
  C  C186  1  0.024900  0.409500  0.723160  1.0
  C  C187  1  0.409500  0.024900  0.223160  1.0
  C  C188  1  0.975100  0.590500  0.276840  1.0
  C  C189  1  0.806250  0.983290  0.680640  1.0
  C  C190  1  0.016710  0.193750  0.819360  1.0
  C  C191  1  0.193750  0.016710  0.319360  1.0
  C  C192  1  0.983290  0.806250  0.180640  1.0
  C  C193  1  0.779920  0.940000  0.704580  1.0
  C  C194  1  0.060000  0.220080  0.795420  1.0
  C  C195  1  0.220080  0.060000  0.295420  1.0
  C  C196  1  0.940000  0.779920  0.204580  1.0
  C  C197  1  0.722330  0.966290  0.717210  1.0
  C  C198  1  0.033710  0.277670  0.782790  1.0
  C  C199  1  0.277670  0.033710  0.282790  1.0
  C  C200  1  0.966290  0.722330  0.217210  1.0
  C  C201  1  0.770200  0.090000  0.658580  1.0
  C  C202  1  0.910000  0.229800  0.841420  1.0
  C  C203  1  0.229800  0.910000  0.341420  1.0
  C  C204  1  0.090000  0.770200  0.158580  1.0
  C  C205  1  0.825810  0.297970  0.426030  1.0
  C  C206  1  0.702030  0.174190  0.073970  1.0
  C  C207  1  0.174190  0.702030  0.573970  1.0
  C  C208  1  0.297970  0.825810  0.926030  1.0
  C  C209  1  0.831190  0.350410  0.404510  1.0
  C  C210  1  0.649590  0.168810  0.095490  1.0
  C  C211  1  0.168810  0.649590  0.595490  1.0
  C  C212  1  0.350410  0.831190  0.904510  1.0
  C  C213  1  0.882590  0.355590  0.382130  1.0
  C  C214  1  0.644410  0.117410  0.117870  1.0
  C  C215  1  0.117410  0.644410  0.617870  1.0
  C  C216  1  0.355590  0.882590  0.882130  1.0
  C  C217  1  0.928500  0.308300  0.381260  1.0
  C  C218  1  0.691700  0.071500  0.118740  1.0
  C  C219  1  0.071500  0.691700  0.618740  1.0
  C  C220  1  0.308300  0.928500  0.881260  1.0
  C  C221  1  0.923160  0.255840  0.402770  1.0
  C  C222  1  0.744160  0.076840  0.097230  1.0
  C  C223  1  0.076840  0.744160  0.597230  1.0
  C  C224  1  0.255840  0.923160  0.902770  1.0
  C  C225  1  0.686380  0.291320  0.481440  1.0
  C  C226  1  0.708680  0.313620  0.018560  1.0
  C  C227  1  0.313620  0.708680  0.518560  1.0
  C  C228  1  0.291320  0.686380  0.981440  1.0
  C  C229  1  0.722140  0.325600  0.456750  1.0
  C  C230  1  0.674400  0.277860  0.043250  1.0
  C  C231  1  0.277860  0.674400  0.543250  1.0
  C  C232  1  0.325600  0.722140  0.956750  1.0
  C  C233  1  0.776440  0.288960  0.448010  1.0
  C  C234  1  0.711040  0.223560  0.051990  1.0
  C  C235  1  0.223560  0.711040  0.551990  1.0
  C  C236  1  0.288960  0.776440  0.948010  1.0
  C  C237  1  0.703200  0.186400  0.511130  1.0
  C  C238  1  0.813600  0.296800  0.988870  1.0
  C  C239  1  0.296800  0.813600  0.488870  1.0
  C  C240  1  0.186400  0.703200  0.011130  1.0
  C  C241  1  0.741960  0.090540  0.624420  1.0
  C  C242  1  0.909460  0.258040  0.875580  1.0
  C  C243  1  0.258040  0.909460  0.375580  1.0
  C  C244  1  0.090540  0.741960  0.124420  1.0
  C  C245  1  0.717060  0.038640  0.616520  1.0
  C  C246  1  0.961360  0.282940  0.883480  1.0
  C  C247  1  0.282940  0.961360  0.383480  1.0
  C  C248  1  0.038640  0.717060  0.116520  1.0
  C  C249  1  0.694330  0.036990  0.585200  1.0
  C  C250  1  0.963010  0.305670  0.914800  1.0
  C  C251  1  0.305670  0.963010  0.414800  1.0
  C  C252  1  0.036990  0.694330  0.085200  1.0
  C  C253  1  0.696490  0.087250  0.561780  1.0
  C  C254  1  0.912750  0.303510  0.938220  1.0
  C  C255  1  0.303510  0.912750  0.438220  1.0
  C  C256  1  0.087250  0.696490  0.061780  1.0
  C  C257  1  0.721400  0.139160  0.569680  1.0
  C  C258  1  0.860840  0.278600  0.930320  1.0
  C  C259  1  0.278600  0.860840  0.430320  1.0
  C  C260  1  0.139160  0.721400  0.069680  1.0
  C  C261  1  0.744130  0.140810  0.601000  1.0
  C  C262  1  0.859190  0.255870  0.899000  1.0
  C  C263  1  0.255870  0.859190  0.399000  1.0
  C  C264  1  0.140810  0.744130  0.101000  1.0
  C  C265  1  0.769030  0.192710  0.608900  1.0
  C  C266  1  0.807290  0.230970  0.891100  1.0
  C  C267  1  0.230970  0.807290  0.391100  1.0
  C  C268  1  0.192710  0.769030  0.108900  1.0
  C  C269  1  0.771190  0.242970  0.585480  1.0
  C  C270  1  0.757030  0.228810  0.914520  1.0
  C  C271  1  0.228810  0.757030  0.414520  1.0
  C  C272  1  0.242970  0.771190  0.085480  1.0
  C  C273  1  0.748470  0.241330  0.554160  1.0
  C  C274  1  0.758670  0.251530  0.945840  1.0
  C  C275  1  0.251530  0.758670  0.445840  1.0
  C  C276  1  0.241330  0.748470  0.054160  1.0
  C  C277  1  0.723560  0.189420  0.546260  1.0
  C  C278  1  0.810580  0.276440  0.953740  1.0
  C  C279  1  0.276440  0.810580  0.453740  1.0
  C  C280  1  0.189420  0.723560  0.046260  1.0
  C  C281  1  0.600640  0.154140  0.662320  1.0
  C  C282  1  0.845860  0.399360  0.837680  1.0
  C  C283  1  0.399360  0.845860  0.337680  1.0
  C  C284  1  0.154140  0.600640  0.162320  1.0
  C  C285  1  0.598620  0.202100  0.637380  1.0
  C  C286  1  0.797900  0.401380  0.862620  1.0
  C  C287  1  0.401380  0.797900  0.362620  1.0
  C  C288  1  0.202100  0.598620  0.137380  1.0
  C  C289  1  0.629870  0.252870  0.640210  1.0
  C  C290  1  0.747130  0.370130  0.859790  1.0
  C  C291  1  0.370130  0.747130  0.359790  1.0
  C  C292  1  0.252870  0.629870  0.140210  1.0
  C  C293  1  0.663130  0.255670  0.667980  1.0
  C  C294  1  0.744330  0.336870  0.832020  1.0
  C  C295  1  0.336870  0.744330  0.332020  1.0
  C  C296  1  0.255670  0.663130  0.167980  1.0
  C  C297  1  0.665140  0.207700  0.692930  1.0
  C  C298  1  0.792300  0.334860  0.807070  1.0
  C  C299  1  0.334860  0.792300  0.307070  1.0
  C  C300  1  0.207700  0.665140  0.192930  1.0
  C  C301  1  0.504890  0.033970  0.651660  1.0
  C  C302  1  0.966030  0.495110  0.848340  1.0
  C  C303  1  0.495110  0.966030  0.348340  1.0
  C  C304  1  0.033970  0.504890  0.151660  1.0
  C  C305  1  0.526880  0.090620  0.639260  1.0
  C  C306  1  0.909380  0.473120  0.860740  1.0
  C  C307  1  0.473120  0.909380  0.360740  1.0
  C  C308  1  0.090620  0.526880  0.139260  1.0
  C  C309  1  0.568800  0.105380  0.661690  1.0
  C  C310  1  0.894620  0.431200  0.838310  1.0
  C  C311  1  0.431200  0.894620  0.338310  1.0
  C  C312  1  0.105380  0.568800  0.161690  1.0
  C  C313  1  0.531400  0.957000  0.699270  1.0
  C  C314  1  0.043000  0.468600  0.800730  1.0
  C  C315  1  0.468600  0.043000  0.300730  1.0
  C  C316  1  0.957000  0.531400  0.199270  1.0
  C  C317  1  0.601190  0.504590  0.683430  1.0
  C  C318  1  0.495410  0.398810  0.816570  1.0
  C  C319  1  0.398810  0.495410  0.316570  1.0
  C  C320  1  0.504590  0.601190  0.183430  1.0
  C  C321  1  0.603650  0.444050  0.696360  1.0
  C  C322  1  0.555950  0.396350  0.803640  1.0
  C  C323  1  0.396350  0.555950  0.303640  1.0
  C  C324  1  0.444050  0.603650  0.196360  1.0
  C  C325  1  0.573510  0.402310  0.681400  1.0
  C  C326  1  0.597690  0.426490  0.818600  1.0
  C  C327  1  0.426490  0.597690  0.318600  1.0
  C  C328  1  0.402310  0.573510  0.181400  1.0
  C  C329  1  0.540910  0.421110  0.653500  1.0
  C  C330  1  0.578890  0.459090  0.846500  1.0
  C  C331  1  0.459090  0.578890  0.346500  1.0
  C  C332  1  0.421110  0.540910  0.153500  1.0
  C  C333  1  0.538450  0.481650  0.640570  1.0
  C  C334  1  0.518350  0.461550  0.859430  1.0
  C  C335  1  0.461550  0.518350  0.359430  1.0
  C  C336  1  0.481650  0.538450  0.140570  1.0
  C  C337  1  0.697920  0.598780  0.721120  1.0
  C  C338  1  0.401220  0.302080  0.778880  1.0
  C  C339  1  0.302080  0.401220  0.278880  1.0
  C  C340  1  0.598780  0.697920  0.221120  1.0
  C  C341  1  0.674690  0.541110  0.720940  1.0
  C  C342  1  0.458890  0.325310  0.779060  1.0
  C  C343  1  0.325310  0.458890  0.279060  1.0
  C  C344  1  0.541110  0.674690  0.220940  1.0
  C  C345  1  0.632690  0.545510  0.695660  1.0
  C  C346  1  0.454490  0.367310  0.804340  1.0
  C  C347  1  0.367310  0.454490  0.304340  1.0
  C  C348  1  0.545510  0.632690  0.195660  1.0
  C  C349  1  0.677800  0.700000  0.686520  1.0
  C  C350  1  0.300000  0.322200  0.813480  1.0
  C  C351  1  0.322200  0.300000  0.313480  1.0
  C  C352  1  0.700000  0.677800  0.186520  1.0
  C  C353  1  0.581000  0.909420  0.687630  1.0
  C  C354  1  0.090580  0.419000  0.812370  1.0
  C  C355  1  0.419000  0.090580  0.312370  1.0
  C  C356  1  0.909420  0.581000  0.187630  1.0
  C  C357  1  0.627400  0.928600  0.664520  1.0
  C  C358  1  0.071400  0.372600  0.835480  1.0
  C  C359  1  0.372600  0.071400  0.335480  1.0
  C  C360  1  0.928600  0.627400  0.164520  1.0
  C  C361  1  0.674090  0.886830  0.653350  1.0
  C  C362  1  0.113170  0.325910  0.846650  1.0
  C  C363  1  0.325910  0.113170  0.346650  1.0
  C  C364  1  0.886830  0.674090  0.153350  1.0
  C  C365  1  0.674370  0.825890  0.665290  1.0
  C  C366  1  0.174110  0.325630  0.834710  1.0
  C  C367  1  0.325630  0.174110  0.334710  1.0
  C  C368  1  0.825890  0.674370  0.165290  1.0
  C  C369  1  0.627970  0.806710  0.688400  1.0
  C  C370  1  0.193290  0.372030  0.811600  1.0
  C  C371  1  0.372030  0.193290  0.311600  1.0
  C  C372  1  0.806710  0.627970  0.188400  1.0
  C  C373  1  0.581290  0.848470  0.699570  1.0
  C  C374  1  0.151530  0.418710  0.800430  1.0
  C  C375  1  0.418710  0.151530  0.300430  1.0
  C  C376  1  0.848470  0.581290  0.199570  1.0
  C  C377  1  0.534890  0.829290  0.722690  1.0
  C  C378  1  0.170710  0.465110  0.777310  1.0
  C  C379  1  0.465110  0.170710  0.277310  1.0
  C  C380  1  0.829290  0.534890  0.222690  1.0
  C  C381  1  0.535170  0.768350  0.734630  1.0
  C  C382  1  0.231650  0.464830  0.765370  1.0
  C  C383  1  0.464830  0.231650  0.265370  1.0
  C  C384  1  0.768350  0.535170  0.234630  1.0
  C  C385  1  0.581850  0.726590  0.723460  1.0
  C  C386  1  0.273410  0.418150  0.776540  1.0
  C  C387  1  0.418150  0.273410  0.276540  1.0
  C  C388  1  0.726590  0.581850  0.223460  1.0
  C  C389  1  0.628250  0.745770  0.700350  1.0
  C  C390  1  0.254230  0.371750  0.799650  1.0
  C  C391  1  0.371750  0.254230  0.299650  1.0
  C  C392  1  0.745770  0.628250  0.200350  1.0
  C  C393  1  0.078600  0.370400  0.624100  1.0
  C  C394  1  0.629600  0.921400  0.875900  1.0
  C  C395  1  0.921400  0.629600  0.375900  1.0
  C  C396  1  0.370400  0.078600  0.124100  1.0
  C  C397  1  0.019500  0.398100  0.631900  1.0
  C  C398  1  0.601900  0.980500  0.868100  1.0
  C  C399  1  0.980500  0.601900  0.368100  1.0
  C  C400  1  0.398100  0.019500  0.131900  1.0
  C  C401  1  0.978700  0.365300  0.650500  1.0
  C  C402  1  0.634700  0.021300  0.849500  1.0
  C  C403  1  0.021300  0.634700  0.349500  1.0
  C  C404  1  0.365300  0.978700  0.150500  1.0
  C  C405  1  0.995500  0.305700  0.662100  1.0
  C  C406  1  0.694300  0.004500  0.837900  1.0
  C  C407  1  0.004500  0.694300  0.337900  1.0
  C  C408  1  0.305700  0.995500  0.162100  1.0
  C  C409  1  0.053200  0.280800  0.653600  1.0
  C  C410  1  0.719200  0.946800  0.846400  1.0
  C  C411  1  0.946800  0.719200  0.346400  1.0
  C  C412  1  0.280800  0.053200  0.153600  1.0
  C  C413  1  0.182570  0.469170  0.573120  1.0
  C  C414  1  0.530830  0.817430  0.926880  1.0
  C  C415  1  0.817430  0.530830  0.426880  1.0
  C  C416  1  0.469170  0.182570  0.073120  1.0
  C  C417  1  0.125960  0.464640  0.592500  1.0
  C  C418  1  0.535360  0.874040  0.907500  1.0
  C  C419  1  0.874040  0.535360  0.407500  1.0
  C  C420  1  0.464640  0.125960  0.092500  1.0
  C  C421  1  0.121740  0.402620  0.604220  1.0
  C  C422  1  0.597380  0.878260  0.895780  1.0
  C  C423  1  0.878260  0.597380  0.395780  1.0
  C  C424  1  0.402620  0.121740  0.104220  1.0
  C  C425  1  0.265800  0.388400  0.553200  1.0
  C  C426  1  0.611600  0.734200  0.946800  1.0
  C  C427  1  0.734200  0.611600  0.446800  1.0
  C  C428  1  0.388400  0.265800  0.053200  1.0
  C  C429  1  0.511870  0.281430  0.343820  1.0
  C  C430  1  0.718570  0.488130  0.156180  1.0
  C  C431  1  0.488130  0.718570  0.656180  1.0
  C  C432  1  0.281430  0.511870  0.843820  1.0
  C  C433  1  0.563680  0.251920  0.328260  1.0
  C  C434  1  0.748080  0.436320  0.171740  1.0
  C  C435  1  0.436320  0.748080  0.671740  1.0
  C  C436  1  0.251920  0.563680  0.828260  1.0
  C  C437  1  0.602480  0.284720  0.305830  1.0
  C  C438  1  0.715280  0.397520  0.194170  1.0
  C  C439  1  0.397520  0.715280  0.694170  1.0
  C  C440  1  0.284720  0.602480  0.805830  1.0
  C  C441  1  0.589420  0.347020  0.298960  1.0
  C  C442  1  0.652980  0.410580  0.201040  1.0
  C  C443  1  0.410580  0.652980  0.701040  1.0
  C  C444  1  0.347020  0.589420  0.798960  1.0
  C  C445  1  0.537620  0.376520  0.314520  1.0
  C  C446  1  0.623480  0.462380  0.185480  1.0
  C  C447  1  0.462380  0.623480  0.685480  1.0
  C  C448  1  0.376520  0.537620  0.814520  1.0
  C  C449  1  0.410440  0.186180  0.396310  1.0
  C  C450  1  0.813820  0.589560  0.103690  1.0
  C  C451  1  0.589560  0.813820  0.603690  1.0
  C  C452  1  0.186180  0.410440  0.896310  1.0
  C  C453  1  0.466620  0.190740  0.376540  1.0
  C  C454  1  0.809260  0.533380  0.123460  1.0
  C  C455  1  0.533380  0.809260  0.623460  1.0
  C  C456  1  0.190740  0.466620  0.876540  1.0
  C  C457  1  0.470890  0.252890  0.365060  1.0
  C  C458  1  0.747110  0.529110  0.134940  1.0
  C  C459  1  0.529110  0.747110  0.634940  1.0
  C  C460  1  0.252890  0.470890  0.865060  1.0
  C  C461  1  0.326500  0.264300  0.415800  1.0
  C  C462  1  0.735700  0.673500  0.084200  1.0
  C  C463  1  0.673500  0.735700  0.584200  1.0
  C  C464  1  0.264300  0.326500  0.915800  1.0
  C  C465  1  0.251870  0.361450  0.521190  1.0
  C  C466  1  0.638550  0.748130  0.978810  1.0
  C  C467  1  0.748130  0.638550  0.478810  1.0
  C  C468  1  0.361450  0.251870  0.021190  1.0
  C  C469  1  0.193080  0.367280  0.510800  1.0
  C  C470  1  0.632720  0.806920  0.989200  1.0
  C  C471  1  0.806920  0.632720  0.489200  1.0
  C  C472  1  0.367280  0.193080  0.010800  1.0
  C  C473  1  0.181740  0.344900  0.480640  1.0
  C  C474  1  0.655100  0.818260  0.019360  1.0
  C  C475  1  0.818260  0.655100  0.519360  1.0
  C  C476  1  0.344900  0.181740  0.980640  1.0
  C  C477  1  0.229190  0.316690  0.460860  1.0
  C  C478  1  0.683310  0.770810  0.039140  1.0
  C  C479  1  0.770810  0.683310  0.539140  1.0
  C  C480  1  0.316690  0.229190  0.960860  1.0
  C  C481  1  0.287970  0.310850  0.471250  1.0
  C  C482  1  0.689150  0.712030  0.028750  1.0
  C  C483  1  0.712030  0.689150  0.528750  1.0
  C  C484  1  0.310850  0.287970  0.971250  1.0
  C  C485  1  0.299310  0.333230  0.501420  1.0
  C  C486  1  0.666770  0.700690  0.998580  1.0
  C  C487  1  0.700690  0.666770  0.498580  1.0
  C  C488  1  0.333230  0.299310  0.001420  1.0
  C  C489  1  0.358090  0.327390  0.511810  1.0
  C  C490  1  0.672610  0.641910  0.988190  1.0
  C  C491  1  0.641910  0.672610  0.488190  1.0
  C  C492  1  0.327390  0.358090  0.011810  1.0
  C  C493  1  0.405530  0.299170  0.492040  1.0
  C  C494  1  0.700830  0.594470  0.007960  1.0
  C  C495  1  0.594470  0.700830  0.507960  1.0
  C  C496  1  0.299170  0.405530  0.992040  1.0
  C  C497  1  0.394200  0.276780  0.461870  1.0
  C  C498  1  0.723220  0.605800  0.038130  1.0
  C  C499  1  0.605800  0.723220  0.538130  1.0
  C  C500  1  0.276780  0.394200  0.961870  1.0
  C  C501  1  0.335420  0.282620  0.451480  1.0
  C  C502  1  0.717380  0.664580  0.048520  1.0
  C  C503  1  0.664580  0.717380  0.548520  1.0
  C  C504  1  0.282620  0.335420  0.951480  1.0
  C  C505  1  0.237780  0.261460  0.680770  1.0
  C  C506  1  0.738540  0.762220  0.819230  1.0
  C  C507  1  0.762220  0.738540  0.319230  1.0
  C  C508  1  0.261460  0.237780  0.180770  1.0
  C  C509  1  0.272790  0.271290  0.706780  1.0
  C  C510  1  0.728710  0.727210  0.793220  1.0
  C  C511  1  0.727210  0.728710  0.293220  1.0
  C  C512  1  0.271290  0.272790  0.206780  1.0
  C  C513  1  0.300600  0.325220  0.706090  1.0
  C  C514  1  0.674780  0.699400  0.793910  1.0
  C  C515  1  0.699400  0.674780  0.293910  1.0
  C  C516  1  0.325220  0.300600  0.206090  1.0
  C  C517  1  0.293380  0.369380  0.679370  1.0
  C  C518  1  0.630620  0.706620  0.820630  1.0
  C  C519  1  0.706620  0.630620  0.320630  1.0
  C  C520  1  0.369380  0.293380  0.179370  1.0
  C  C521  1  0.258390  0.359530  0.653360  1.0
  C  C522  1  0.640470  0.741610  0.846640  1.0
  C  C523  1  0.741610  0.640470  0.346640  1.0
  C  C524  1  0.359530  0.258390  0.153360  1.0
  C  C525  1  0.155390  0.125590  0.690200  1.0
  C  C526  1  0.874410  0.844610  0.809800  1.0
  C  C527  1  0.844610  0.874410  0.309800  1.0
  C  C528  1  0.125590  0.155390  0.190200  1.0
  C  C529  1  0.193200  0.163400  0.704480  1.0
  C  C530  1  0.836600  0.806800  0.795520  1.0
  C  C531  1  0.806800  0.836600  0.295520  1.0
  C  C532  1  0.163400  0.193200  0.204480  1.0
  C  C533  1  0.207340  0.211340  0.679860  1.0
  C  C534  1  0.788660  0.792660  0.820140  1.0
  C  C535  1  0.792660  0.788660  0.320140  1.0
  C  C536  1  0.211340  0.207340  0.179860  1.0
  C  C537  1  0.116000  0.127600  0.631700  1.0
  C  C538  1  0.872400  0.884000  0.868300  1.0
  C  C539  1  0.884000  0.872400  0.368300  1.0
  C  C540  1  0.127600  0.116000  0.131700  1.0
  C  C541  1  0.103440  0.809800  0.467760  1.0
  C  C542  1  0.190200  0.896560  0.032240  1.0
  C  C543  1  0.896560  0.190200  0.532240  1.0
  C  C544  1  0.809800  0.103440  0.967760  1.0
  C  C545  1  0.086850  0.782610  0.440170  1.0
  C  C546  1  0.217390  0.913150  0.059830  1.0
  C  C547  1  0.913150  0.217390  0.559830  1.0
  C  C548  1  0.782610  0.086850  0.940170  1.0
  C  C549  1  0.073990  0.721990  0.443610  1.0
  C  C550  1  0.278010  0.926010  0.056390  1.0
  C  C551  1  0.926010  0.278010  0.556390  1.0
  C  C552  1  0.721990  0.073990  0.943610  1.0
  C  C553  1  0.077860  0.688460  0.474640  1.0
  C  C554  1  0.311540  0.922140  0.025360  1.0
  C  C555  1  0.922140  0.311540  0.525360  1.0
  C  C556  1  0.688460  0.077860  0.974640  1.0
  C  C557  1  0.094420  0.715680  0.502230  1.0
  C  C558  1  0.284320  0.905580  0.997770  1.0
  C  C559  1  0.905580  0.284320  0.497770  1.0
  C  C560  1  0.715680  0.094420  0.002230  1.0
  C  C561  1  0.155430  0.960970  0.451070  1.0
  C  C562  1  0.039030  0.844570  0.048930  1.0
  C  C563  1  0.844570  0.039030  0.548930  1.0
  C  C564  1  0.960970  0.155430  0.951070  1.0
  C  C565  1  0.125370  0.913630  0.439550  1.0
  C  C566  1  0.086370  0.874630  0.060450  1.0
  C  C567  1  0.874630  0.086370  0.560450  1.0
  C  C568  1  0.913630  0.125370  0.939550  1.0
  C  C569  1  0.122730  0.865990  0.465770  1.0
  C  C570  1  0.134010  0.877270  0.034230  1.0
  C  C571  1  0.877270  0.134010  0.534230  1.0
  C  C572  1  0.865990  0.122730  0.965770  1.0
  C  C573  1  0.199700  0.973100  0.506070  1.0
  C  C574  1  0.026900  0.800300  0.993930  1.0
  C  C575  1  0.800300  0.026900  0.493930  1.0
  C  C576  1  0.973100  0.199700  0.006070  1.0
  C  C577  1  0.157780  0.090760  0.606950  1.0
  C  C578  1  0.909240  0.842220  0.893050  1.0
  C  C579  1  0.842220  0.909240  0.393050  1.0
  C  C580  1  0.090760  0.157780  0.106950  1.0
  C  C581  1  0.219190  0.080950  0.612570  1.0
  C  C582  1  0.919050  0.780810  0.887430  1.0
  C  C583  1  0.780810  0.919050  0.387430  1.0
  C  C584  1  0.080950  0.219190  0.112570  1.0
  C  C585  1  0.259070  0.048130  0.590550  1.0
  C  C586  1  0.951870  0.740930  0.909450  1.0
  C  C587  1  0.740930  0.951870  0.409450  1.0
  C  C588  1  0.048130  0.259070  0.090550  1.0
  C  C589  1  0.237550  0.025130  0.562920  1.0
  C  C590  1  0.974870  0.762450  0.937080  1.0
  C  C591  1  0.762450  0.974870  0.437080  1.0
  C  C592  1  0.025130  0.237550  0.062920  1.0
  C  C593  1  0.176140  0.034940  0.557300  1.0
  C  C594  1  0.965060  0.823860  0.942700  1.0
  C  C595  1  0.823860  0.965060  0.442700  1.0
  C  C596  1  0.034940  0.176140  0.057300  1.0
  C  C597  1  0.136260  0.067760  0.579310  1.0
  C  C598  1  0.932240  0.863740  0.920690  1.0
  C  C599  1  0.863740  0.932240  0.420690  1.0
  C  C600  1  0.067760  0.136260  0.079310  1.0
  C  C601  1  0.074850  0.077590  0.573700  1.0
  C  C602  1  0.922410  0.925150  0.926300  1.0
  C  C603  1  0.925150  0.922410  0.426300  1.0
  C  C604  1  0.077590  0.074850  0.073700  1.0
  C  C605  1  0.053320  0.054580  0.546060  1.0
  C  C606  1  0.945420  0.946680  0.953940  1.0
  C  C607  1  0.946680  0.945420  0.453940  1.0
  C  C608  1  0.054580  0.053320  0.046060  1.0
  C  C609  1  0.093200  0.021760  0.524050  1.0
  C  C610  1  0.978240  0.906800  0.975950  1.0
  C  C611  1  0.906800  0.978240  0.475950  1.0
  C  C612  1  0.021760  0.093200  0.024050  1.0
  C  C613  1  0.154600  0.011940  0.529670  1.0
  C  C614  1  0.988060  0.845400  0.970330  1.0
  C  C615  1  0.845400  0.988060  0.470330  1.0
  C  C616  1  0.011940  0.154600  0.029670  1.0
  C  C617  1  0.945390  0.097910  0.418150  1.0
  C  C618  1  0.902090  0.054610  0.081850  1.0
  C  C619  1  0.054610  0.902090  0.581850  1.0
  C  C620  1  0.097910  0.945390  0.918150  1.0
  C  C621  1  0.999960  0.071160  0.404010  1.0
  C  C622  1  0.928840  0.000040  0.095990  1.0
  C  C623  1  0.000040  0.928840  0.595990  1.0
  C  C624  1  0.071160  0.999960  0.904010  1.0
  C  C625  1  0.053970  0.075910  0.418610  1.0
  C  C626  1  0.924090  0.946030  0.081390  1.0
  C  C627  1  0.946030  0.924090  0.581390  1.0
  C  C628  1  0.075910  0.053970  0.918610  1.0
  C  C629  1  0.053400  0.107400  0.447350  1.0
  C  C630  1  0.892600  0.946600  0.052650  1.0
  C  C631  1  0.946600  0.892600  0.552650  1.0
  C  C632  1  0.107400  0.053400  0.947350  1.0
  C  C633  1  0.998820  0.134160  0.461490  1.0
  C  C634  1  0.865840  0.001180  0.038510  1.0
  C  C635  1  0.001180  0.865840  0.538510  1.0
  C  C636  1  0.134160  0.998820  0.961490  1.0
  C  C637  1  0.810700  0.079100  0.375680  1.0
  C  C638  1  0.920900  0.189300  0.124320  1.0
  C  C639  1  0.189300  0.920900  0.624320  1.0
  C  C640  1  0.079100  0.810700  0.875680  1.0
  C  C641  1  0.874810  0.068370  0.376790  1.0
  C  C642  1  0.931630  0.125190  0.123210  1.0
  C  C643  1  0.125190  0.931630  0.623210  1.0
  C  C644  1  0.068370  0.874810  0.876790  1.0
  C  C645  1  0.891420  0.094800  0.405510  1.0
  C  C646  1  0.905200  0.108580  0.094490  1.0
  C  C647  1  0.108580  0.905200  0.594490  1.0
  C  C648  1  0.094800  0.891420  0.905510  1.0
  C  C649  1  0.727000  0.134000  0.413300  1.0
  C  C650  1  0.866000  0.273000  0.086700  1.0
  C  C651  1  0.273000  0.866000  0.586700  1.0
  C  C652  1  0.134000  0.727000  0.913300  1.0
  C  C653  1  0.352970  0.434610  0.424810  1.0
  C  C654  1  0.565390  0.647030  0.075190  1.0
  C  C655  1  0.647030  0.565390  0.575190  1.0
  C  C656  1  0.434610  0.352970  0.924810  1.0
  C  C657  1  0.305860  0.459120  0.446280  1.0
  C  C658  1  0.540880  0.694140  0.053720  1.0
  C  C659  1  0.694140  0.540880  0.553720  1.0
  C  C660  1  0.459120  0.305860  0.946280  1.0
  C  C661  1  0.246290  0.463730  0.437140  1.0
  C  C662  1  0.536270  0.753710  0.062860  1.0
  C  C663  1  0.753710  0.536270  0.562860  1.0
  C  C664  1  0.463730  0.246290  0.937140  1.0
  C  C665  1  0.233810  0.443850  0.406530  1.0
  C  C666  1  0.556150  0.766190  0.093470  1.0
  C  C667  1  0.766190  0.556150  0.593470  1.0
  C  C668  1  0.443850  0.233810  0.906530  1.0
  C  C669  1  0.280910  0.419350  0.385060  1.0
  C  C670  1  0.580650  0.719090  0.114940  1.0
  C  C671  1  0.719090  0.580650  0.614940  1.0
  C  C672  1  0.419350  0.280910  0.885060  1.0
  C  C673  1  0.506720  0.438920  0.450040  1.0
  C  C674  1  0.561080  0.493280  0.049960  1.0
  C  C675  1  0.493280  0.561080  0.549960  1.0
  C  C676  1  0.438920  0.506720  0.950040  1.0
  C  C677  1  0.443140  0.452060  0.457630  1.0
  C  C678  1  0.547940  0.556860  0.042370  1.0
  C  C679  1  0.556860  0.547940  0.542370  1.0
  C  C680  1  0.452060  0.443140  0.957630  1.0
  C  C681  1  0.412290  0.430170  0.431960  1.0
  C  C682  1  0.569830  0.587710  0.068040  1.0
  C  C683  1  0.587710  0.569830  0.568040  1.0
  C  C684  1  0.430170  0.412290  0.931960  1.0
  C  C685  1  0.568100  0.386700  0.403400  1.0
  C  C686  1  0.613300  0.431900  0.096600  1.0
  C  C687  1  0.431900  0.613300  0.596600  1.0
  C  C688  1  0.386700  0.568100  0.903400  1.0
  C  C689  1  0.707740  0.196580  0.398060  1.0
  C  C690  1  0.803420  0.292260  0.101940  1.0
  C  C691  1  0.292260  0.803420  0.601940  1.0
  C  C692  1  0.196580  0.707740  0.898060  1.0
  C  C693  1  0.745220  0.226240  0.373400  1.0
  C  C694  1  0.773760  0.254780  0.126600  1.0
  C  C695  1  0.254780  0.773760  0.626600  1.0
  C  C696  1  0.226240  0.745220  0.873400  1.0
  C  C697  1  0.729330  0.286330  0.362040  1.0
  C  C698  1  0.713670  0.270670  0.137960  1.0
  C  C699  1  0.270670  0.713670  0.637960  1.0
  C  C700  1  0.286330  0.729330  0.862040  1.0
  C  C701  1  0.675990  0.316770  0.375330  1.0
  C  C702  1  0.683230  0.324010  0.124670  1.0
  C  C703  1  0.324010  0.683230  0.624670  1.0
  C  C704  1  0.316770  0.675990  0.875330  1.0
  C  C705  1  0.638520  0.287100  0.399990  1.0
  C  C706  1  0.712900  0.361480  0.100010  1.0
  C  C707  1  0.361480  0.712900  0.600010  1.0
  C  C708  1  0.287100  0.638520  0.899990  1.0
  C  C709  1  0.654390  0.227010  0.411360  1.0
  C  C710  1  0.772990  0.345610  0.088640  1.0
  C  C711  1  0.345610  0.772990  0.588640  1.0
  C  C712  1  0.227010  0.654390  0.911360  1.0
  C  C713  1  0.616930  0.197350  0.436020  1.0
  C  C714  1  0.802650  0.383070  0.063980  1.0
  C  C715  1  0.383070  0.802650  0.563980  1.0
  C  C716  1  0.197350  0.616930  0.936020  1.0
  C  C717  1  0.563580  0.227780  0.449310  1.0
  C  C718  1  0.772220  0.436420  0.050690  1.0
  C  C719  1  0.436420  0.772220  0.550690  1.0
  C  C720  1  0.227780  0.563580  0.949310  1.0
  C  C721  1  0.547710  0.287870  0.437950  1.0
  C  C722  1  0.712130  0.452290  0.062050  1.0
  C  C723  1  0.452290  0.712130  0.562050  1.0
  C  C724  1  0.287870  0.547710  0.937950  1.0
  C  C725  1  0.585170  0.317530  0.413290  1.0
  C  C726  1  0.682470  0.414830  0.086710  1.0
  C  C727  1  0.414830  0.682470  0.586710  1.0
  C  C728  1  0.317530  0.585170  0.913290  1.0
  Co  Co729  1  0.635440  0.077380  0.723870  1.0
  Co  Co730  1  0.922620  0.364560  0.776130  1.0
  Co  Co731  1  0.364560  0.922620  0.276130  1.0
  Co  Co732  1  0.077380  0.635440  0.223870  1.0
  Co  Co733  1  0.142180  0.823780  0.537850  1.0
  Co  Co734  1  0.176220  0.857820  0.962150  1.0
  Co  Co735  1  0.857820  0.176220  0.462150  1.0
  Co  Co736  1  0.823780  0.142180  0.037850  1.0
  Co  Co737  1  0.419590  0.382450  0.363990  1.0
  Co  Co738  1  0.617550  0.580410  0.136010  1.0
  Co  Co739  1  0.580410  0.617550  0.636010  1.0
  Co  Co740  1  0.382450  0.419590  0.863990  1.0
  Co  Co741  1  0.184600  0.277680  0.613600  1.0
  Co  Co742  1  0.722320  0.815400  0.886400  1.0
  Co  Co743  1  0.815400  0.722320  0.386400  1.0
  Co  Co744  1  0.277680  0.184600  0.113600  1.0
  F  F745  1  0.789900  0.782700  0.721400  1
  F  F746  1  0.217300  0.210100  0.778600  1
  F  F747  1  0.210100  0.217300  0.278600  1
  F  F748  1  0.782700  0.789900  0.221400  1
  F  F749  1  0.837700  0.737900  0.675100  1
  F  F750  1  0.262100  0.162300  0.824900  1
  F  F751  1  0.162300  0.262100  0.324900  1
  F  F752  1  0.737900  0.837700  0.175100  1
  F  F753  1  0.816900  0.679700  0.724640  1
  F  F754  1  0.320300  0.183100  0.775360  1
  F  F755  1  0.183100  0.320300  0.275360  1
  F  F756  1  0.679700  0.816900  0.224640  1
  F  F757  1  0.891000  0.747600  0.721500  1
  F  F758  1  0.252400  0.109000  0.778500  1
  F  F759  1  0.109000  0.252400  0.278500  1
  F  F760  1  0.747600  0.891000  0.221500  1
  F  F761  1  0.202660  0.182740  0.429100  1
  F  F762  1  0.817260  0.797340  0.070900  1
  F  F763  1  0.797340  0.817260  0.570900  1
  F  F764  1  0.182740  0.202660  0.929100  1
  F  F765  1  0.205010  0.090210  0.407930  1
  F  F766  1  0.909790  0.794990  0.092070  1
  F  F767  1  0.794990  0.909790  0.592070  1
  F  F768  1  0.090210  0.205010  0.907930  1
  F  F769  1  0.203370  0.097610  0.464240  1
  F  F770  1  0.902390  0.796630  0.035760  1
  F  F771  1  0.796630  0.902390  0.535760  1
  F  F772  1  0.097610  0.203370  0.964240  1
  F  F773  1  0.288230  0.118110  0.430040  1
  F  F774  1  0.881890  0.711770  0.069960  1
  F  F775  1  0.711770  0.881890  0.569960  1
  F  F776  1  0.118110  0.288230  0.930040  1
  F  F777  1  0.324200  0.953800  0.646550  1
  F  F778  1  0.046200  0.675800  0.853450  1
  F  F779  1  0.675800  0.046200  0.353450  1
  F  F780  1  0.953800  0.324200  0.146550  1
  F  F781  1  0.343800  0.867400  0.677200  1
  F  F782  1  0.132600  0.656200  0.822800  1
  F  F783  1  0.656200  0.132600  0.322800  1
  F  F784  1  0.867400  0.343800  0.177200  1
  F  F785  1  0.420800  0.910600  0.647500  1
  F  F786  1  0.089400  0.579200  0.852500  1
  F  F787  1  0.579200  0.089400  0.352500  1
  F  F788  1  0.910600  0.420800  0.147500  1
  F  F789  1  0.375400  0.953400  0.692300  1
  F  F790  1  0.046600  0.624600  0.807700  1
  F  F791  1  0.624600  0.046600  0.307700  1
  F  F792  1  0.953400  0.375400  0.192300  1
  F  F793  1  0.952030  0.126950  0.633370  1
  F  F794  1  0.873050  0.047970  0.866630  1
  F  F795  1  0.047970  0.873050  0.366630  1
  F  F796  1  0.126950  0.952030  0.133370  1
  F  F797  1  0.917140  0.034540  0.634740  1
  F  F798  1  0.965460  0.082860  0.865260  1
  F  F799  1  0.082860  0.965460  0.365260  1
  F  F800  1  0.034540  0.917140  0.134740  1
  F  F801  1  0.912040  0.083240  0.682380  1
  F  F802  1  0.916760  0.087960  0.817620  1
  F  F803  1  0.087960  0.916760  0.317620  1
  F  F804  1  0.083240  0.912040  0.182380  1
  F  F805  1  0.002430  0.044970  0.658900  1
  F  F806  1  0.955030  0.997570  0.841100  1
  F  F807  1  0.997570  0.955030  0.341100  1
  F  F808  1  0.044970  0.002430  0.158900  1
  F  F809  1  0.244100  0.534900  0.509500  1
  F  F810  1  0.465100  0.755900  0.990500  1
  F  F811  1  0.755900  0.465100  0.490500  1
  F  F812  1  0.534900  0.244100  0.009500  1
  F  F813  1  0.208100  0.615900  0.475300  1
  F  F814  1  0.384100  0.791900  0.024700  1
  F  F815  1  0.791900  0.384100  0.524700  1
  F  F816  1  0.615900  0.208100  0.975300  1
  F  F817  1  0.165300  0.600300  0.529100  1
  F  F818  1  0.399700  0.834700  0.970900  1
  F  F819  1  0.834700  0.399700  0.470900  1
  F  F820  1  0.600300  0.165300  0.029100  1
  F  F821  1  0.149800  0.536000  0.489500  1
  F  F822  1  0.464000  0.850200  0.010500  1
  F  F823  1  0.850200  0.464000  0.510500  1
  F  F824  1  0.536000  0.149800  0.989500  1
  F  F825  1  0.371400  0.570400  0.512100  1
  F  F826  1  0.429600  0.628600  0.987900  1
  F  F827  1  0.628600  0.429600  0.487900  1
  F  F828  1  0.570400  0.371400  0.012100  1
  F  F829  1  0.327500  0.537900  0.563000  1
  F  F830  1  0.462100  0.672500  0.937000  1
  F  F831  1  0.672500  0.462100  0.437000  1
  F  F832  1  0.537900  0.327500  0.063000  1
  F  F833  1  0.375200  0.470800  0.528700  1
  F  F834  1  0.529200  0.624800  0.971300  1
  F  F835  1  0.624800  0.529200  0.471300  1
  F  F836  1  0.470800  0.375200  0.028700  1
  F  F837  1  0.287000  0.521800  0.515400  1
  F  F838  1  0.478200  0.713000  0.984600  1
  F  F839  1  0.713000  0.478200  0.484600  1
  F  F840  1  0.521800  0.287000  0.015400  1
  F  F841  1  0.926900  0.463100  0.330700  1
  F  F842  1  0.536900  0.073100  0.169300  1
  F  F843  1  0.073100  0.536900  0.669300  1
  F  F844  1  0.463100  0.926900  0.830700  1
  F  F845  1  0.995500  0.376500  0.320500  1
  F  F846  1  0.623500  0.004500  0.179500  1
  F  F847  1  0.004500  0.623500  0.679500  1
  F  F848  1  0.376500  0.995500  0.820500  1
  F  F849  1  0.975300  0.450700  0.275700  1
  F  F850  1  0.549300  0.024700  0.224300  1
  F  F851  1  0.024700  0.549300  0.724300  1
  F  F852  1  0.450700  0.975300  0.775700  1
  F  F853  1  0.031800  0.474000  0.320100  1
  F  F854  1  0.526000  0.968200  0.179900  1
  F  F855  1  0.968200  0.526000  0.679900  1
  F  F856  1  0.474000  0.031800  0.820100  1
  H  H857  1  0.427300  0.855900  0.487400  1
  H  H858  1  0.144100  0.572700  0.012600  1
  H  H859  1  0.572700  0.144100  0.512600  1
  H  H860  1  0.855900  0.427300  0.987400  1
  H  H861  1  0.501600  0.786000  0.468300  1
  H  H862  1  0.214000  0.498400  0.031700  1
  H  H863  1  0.498400  0.214000  0.531700  1
  H  H864  1  0.786000  0.501600  0.968300  1
  H  H865  1  0.546100  0.839700  0.464000  1
  H  H866  1  0.160300  0.453900  0.036000  1
  H  H867  1  0.453900  0.160300  0.536000  1
  H  H868  1  0.839700  0.546100  0.964000  1
  H  H869  1  0.512800  0.821400  0.500300  1
  H  H870  1  0.178600  0.487200  0.999700  1
  H  H871  1  0.487200  0.178600  0.499700  1
  H  H872  1  0.821400  0.512800  0.000300  1
  H  H873  1  0.450200  0.793200  0.445600  1
  H  H874  1  0.206800  0.549800  0.054400  1
  H  H875  1  0.549800  0.206800  0.554400  1
  H  H876  1  0.793200  0.450200  0.945600  1
  H  H877  1  0.389000  0.837800  0.445000  1
  H  H878  1  0.162200  0.611000  0.055000  1
  H  H879  1  0.611000  0.162200  0.555000  1
  H  H880  1  0.837800  0.389000  0.945000  1
  H  H881  1  0.446900  0.852900  0.419900  1
  H  H882  1  0.147100  0.553100  0.080100  1
  H  H883  1  0.553100  0.147100  0.580100  1
  H  H884  1  0.852900  0.446900  0.919900  1
  H  H885  1  0.423600  0.936600  0.577800  1
  H  H886  1  0.063400  0.576400  0.922200  1
  H  H887  1  0.576400  0.063400  0.422200  1
  H  H888  1  0.936600  0.423600  0.077800  1
  H  H889  1  0.520300  0.956500  0.596600  1
  H  H890  1  0.043500  0.479700  0.903400  1
  H  H891  1  0.479700  0.043500  0.403400  1
  H  H892  1  0.956500  0.520300  0.096600  1
  H  H893  1  0.534600  0.921200  0.563100  1
  H  H894  1  0.078800  0.465400  0.936900  1
  H  H895  1  0.465400  0.078800  0.436900  1
  H  H896  1  0.921200  0.534600  0.063100  1
  H  H897  1  0.536700  0.993500  0.561200  1
  H  H898  1  0.006500  0.463300  0.938800  1
  H  H899  1  0.463300  0.006500  0.438800  1
  H  H900  1  0.993500  0.536700  0.061200  1
  H  H901  1  0.422500  0.039100  0.594000  1
  H  H902  1  0.960900  0.577500  0.906000  1
  H  H903  1  0.577500  0.960900  0.406000  1
  H  H904  1  0.039100  0.422500  0.094000  1
  H  H905  1  0.460400  0.058200  0.559200  1
  H  H906  1  0.941800  0.539600  0.940800  1
  H  H907  1  0.539600  0.941800  0.440800  1
  H  H908  1  0.058200  0.460400  0.059200  1
  H  H909  1  0.391200  0.043000  0.559000  1
  H  H910  1  0.957000  0.608800  0.941000  1
  H  H911  1  0.608800  0.957000  0.441000  1
  H  H912  1  0.043000  0.391200  0.059000  1
  H  H913  1  0.427100  0.067500  0.478600  1
  H  H914  1  0.932500  0.572900  0.021400  1
  H  H915  1  0.572900  0.932500  0.521400  1
  H  H916  1  0.067500  0.427100  0.978600  1
  H  H917  1  0.362500  0.051500  0.468100  1
  H  H918  1  0.948500  0.637500  0.031900  1
  H  H919  1  0.637500  0.948500  0.531900  1
  H  H920  1  0.051500  0.362500  0.968100  1
  H  H921  1  0.368000  0.074600  0.504600  1
  H  H922  1  0.925400  0.632000  0.995400  1
  H  H923  1  0.632000  0.925400  0.495400  1
  H  H924  1  0.074600  0.368000  0.004600  1
  H  H925  1  0.683000  0.182600  0.825500  1.0
  H  H926  1  0.817400  0.317000  0.674500  1.0
  H  H927  1  0.317000  0.817400  0.174500  1.0
  H  H928  1  0.182600  0.683000  0.325500  1.0
  H  H929  1  0.788900  0.162500  0.821700  1.0
  H  H930  1  0.837500  0.211100  0.678300  1.0
  H  H931  1  0.211100  0.837500  0.178300  1.0
  H  H932  1  0.162500  0.788900  0.321700  1.0
  H  H933  1  0.837900  0.108900  0.777500  1.0
  H  H934  1  0.891100  0.162100  0.722500  1.0
  H  H935  1  0.162100  0.891100  0.222500  1.0
  H  H936  1  0.108900  0.837900  0.277500  1.0
  H  H937  1  0.780800  0.075200  0.737100  1.0
  H  H938  1  0.924800  0.219200  0.762900  1.0
  H  H939  1  0.219200  0.924800  0.262900  1.0
  H  H940  1  0.075200  0.780800  0.237100  1.0
  H  H941  1  0.465800  0.177800  0.809400  1.0
  H  H942  1  0.822200  0.534200  0.690600  1.0
  H  H943  1  0.534200  0.822200  0.190600  1.0
  H  H944  1  0.177800  0.465800  0.309400  1.0
  H  H945  1  0.569900  0.194500  0.827300  1.0
  H  H946  1  0.805500  0.430100  0.672700  1.0
  H  H947  1  0.430100  0.805500  0.172700  1.0
  H  H948  1  0.194500  0.569900  0.327300  1.0
  H  H949  1  0.429900  0.114100  0.759800  1.0
  H  H950  1  0.885900  0.570100  0.740200  1.0
  H  H951  1  0.570100  0.885900  0.240200  1.0
  H  H952  1  0.114100  0.429900  0.259800  1.0
  H  H953  1  0.483000  0.081800  0.736100  1.0
  H  H954  1  0.918200  0.517000  0.763900  1.0
  H  H955  1  0.517000  0.918200  0.263900  1.0
  H  H956  1  0.081800  0.483000  0.236100  1.0
  H  H957  1  0.210700  0.174500  0.504900  1.0
  H  H958  1  0.825500  0.789300  0.995100  1.0
  H  H959  1  0.789300  0.825500  0.495100  1.0
  H  H960  1  0.174500  0.210700  0.004900  1.0
  H  H961  1  0.110400  0.190800  0.489700  1.0
  H  H962  1  0.809200  0.889600  0.010300  1.0
  H  H963  1  0.889600  0.809200  0.510300  1.0
  H  H964  1  0.190800  0.110400  0.989700  1.0
  H  H965  1  0.035500  0.240700  0.525100  1.0
  H  H966  1  0.759300  0.964500  0.974900  1.0
  H  H967  1  0.964500  0.759300  0.474900  1.0
  H  H968  1  0.240700  0.035500  0.025100  1.0
  H  H969  1  0.061100  0.274300  0.575700  1.0
  H  H970  1  0.725700  0.938900  0.924300  1.0
  H  H971  1  0.938900  0.725700  0.424300  1.0
  H  H972  1  0.274300  0.061100  0.075700  1.0
  H  H973  1  0.397500  0.183100  0.555600  1.0
  H  H974  1  0.816900  0.602500  0.944400  1.0
  H  H975  1  0.602500  0.816900  0.444400  1.0
  H  H976  1  0.183100  0.397500  0.055600  1.0
  H  H977  1  0.310500  0.162500  0.522000  1.0
  H  H978  1  0.837500  0.689500  0.978000  1.0
  H  H979  1  0.689500  0.837500  0.478000  1.0
  H  H980  1  0.162500  0.310500  0.022000  1.0
  H  H981  1  0.340700  0.285500  0.622200  1.0
  H  H982  1  0.714500  0.659300  0.877800  1.0
  H  H983  1  0.659300  0.714500  0.377800  1.0
  H  H984  1  0.285500  0.340700  0.122200  1.0
  H  H985  1  0.403500  0.259300  0.603700  1.0
  H  H986  1  0.740700  0.596500  0.896300  1.0
  H  H987  1  0.596500  0.740700  0.396300  1.0
  H  H988  1  0.259300  0.403500  0.103700  1.0
  H  H989  1  0.513600  0.228000  0.734300  1.0
  H  H990  1  0.772000  0.486400  0.765700  1.0
  H  H991  1  0.486400  0.772000  0.265700  1.0
  H  H992  1  0.228000  0.513600  0.234300  1.0
  H  H993  1  0.498100  0.304700  0.690900  1.0
  H  H994  1  0.695300  0.501900  0.809100  1.0
  H  H995  1  0.501900  0.695300  0.309100  1.0
  H  H996  1  0.304700  0.498100  0.190900  1.0
  H  H997  1  0.433000  0.292000  0.649200  1.0
  H  H998  1  0.708000  0.567000  0.850800  1.0
  H  H999  1  0.567000  0.708000  0.350800  1.0
  H  H1000  1  0.292000  0.433000  0.149200  1.0
  H  H1001  1  0.396100  0.078100  0.712300  1.0
  H  H1002  1  0.921900  0.603900  0.787700  1.0
  H  H1003  1  0.603900  0.921900  0.287700  1.0
  H  H1004  1  0.078100  0.396100  0.212300  1.0
  H  H1005  1  0.331100  0.065500  0.670600  1.0
  H  H1006  1  0.934500  0.668900  0.829400  1.0
  H  H1007  1  0.668900  0.934500  0.329400  1.0
  H  H1008  1  0.065500  0.331100  0.170600  1.0
  H  H1009  1  0.315600  0.142200  0.627200  1.0
  H  H1010  1  0.857800  0.684400  0.872800  1.0
  H  H1011  1  0.684400  0.857800  0.372800  1.0
  H  H1012  1  0.142200  0.315600  0.127200  1.0
  H  H1013  1  0.711200  0.857400  0.748100  1.0
  H  H1014  1  0.142600  0.288800  0.751900  1.0
  H  H1015  1  0.288800  0.142600  0.251900  1.0
  H  H1016  1  0.857400  0.711200  0.248100  1.0
  H  H1017  1  0.635100  0.830700  0.789800  1.0
  H  H1018  1  0.169300  0.364900  0.710200  1.0
  H  H1019  1  0.364900  0.169300  0.210200  1.0
  H  H1020  1  0.830700  0.635100  0.289800  1.0
  H  H1021  1  0.559400  0.904600  0.807900  1.0
  H  H1022  1  0.095400  0.440600  0.692100  1.0
  H  H1023  1  0.440600  0.095400  0.192100  1.0
  H  H1024  1  0.904600  0.559400  0.307900  1.0
  H  H1025  1  0.559700  0.005100  0.784200  1.0
  H  H1026  1  0.994900  0.440300  0.715800  1.0
  H  H1027  1  0.440300  0.994900  0.215800  1.0
  H  H1028  1  0.005100  0.559700  0.284200  1.0
  H  H1029  1  0.844700  0.977700  0.668200  1.0
  H  H1030  1  0.022300  0.155300  0.831800  1.0
  H  H1031  1  0.155300  0.022300  0.331800  1.0
  H  H1032  1  0.977700  0.844700  0.168200  1.0
  H  H1033  1  0.797700  0.900300  0.711000  1.0
  H  H1034  1  0.099700  0.202300  0.789000  1.0
  H  H1035  1  0.202300  0.099700  0.289000  1.0
  H  H1036  1  0.900300  0.797700  0.211000  1.0
  H  H1037  1  0.813800  0.096800  0.654200  1.0
  H  H1038  1  0.903200  0.186200  0.845800  1.0
  H  H1039  1  0.186200  0.903200  0.345800  1.0
  H  H1040  1  0.096800  0.813800  0.154200  1.0
  H  H1041  1  0.749900  0.124100  0.671100  1.0
  H  H1042  1  0.875900  0.250100  0.828900  1.0
  H  H1043  1  0.250100  0.875900  0.328900  1.0
  H  H1044  1  0.124100  0.749900  0.171100  1.0
  H  H1045  1  0.799800  0.382800  0.405100  1.0
  H  H1046  1  0.617200  0.200200  0.094900  1.0
  H  H1047  1  0.200200  0.617200  0.594900  1.0
  H  H1048  1  0.382800  0.799800  0.905100  1.0
  H  H1049  1  0.886300  0.391500  0.367400  1.0
  H  H1050  1  0.608500  0.113700  0.132600  1.0
  H  H1051  1  0.113700  0.608500  0.632600  1.0
  H  H1052  1  0.391500  0.886300  0.867400  1.0
  H  H1053  1  0.963700  0.311900  0.366000  1.0
  H  H1054  1  0.688100  0.036300  0.134000  1.0
  H  H1055  1  0.036300  0.688100  0.634000  1.0
  H  H1056  1  0.311900  0.963700  0.866000  1.0
  H  H1057  1  0.954600  0.223600  0.402200  1.0
  H  H1058  1  0.776400  0.045400  0.097800  1.0
  H  H1059  1  0.045400  0.776400  0.597800  1.0
  H  H1060  1  0.223600  0.954600  0.902200  1.0
  H  H1061  1  0.647700  0.304700  0.491800  1.0
  H  H1062  1  0.695300  0.352300  0.008200  1.0
  H  H1063  1  0.352300  0.695300  0.508200  1.0
  H  H1064  1  0.304700  0.647700  0.991800  1.0
  H  H1065  1  0.711600  0.366000  0.447700  1.0
  H  H1066  1  0.634000  0.288400  0.052300  1.0
  H  H1067  1  0.288400  0.634000  0.552300  1.0
  H  H1068  1  0.366000  0.711600  0.947700  1.0
  H  H1069  1  0.721000  0.147600  0.502400  1.0
  H  H1070  1  0.852400  0.279000  0.997600  1.0
  H  H1071  1  0.279000  0.852400  0.497600  1.0
  H  H1072  1  0.147600  0.721000  0.002400  1.0
  H  H1073  1  0.658300  0.185700  0.512900  1.0
  H  H1074  1  0.814300  0.341700  0.987100  1.0
  H  H1075  1  0.341700  0.814300  0.487100  1.0
  H  H1076  1  0.185700  0.658300  0.012900  1.0
  H  H1077  1  0.715500  0.004300  0.632500  1.0
  H  H1078  1  0.995700  0.284500  0.867500  1.0
  H  H1079  1  0.284500  0.995700  0.367500  1.0
  H  H1080  1  0.004300  0.715500  0.132500  1.0
  H  H1081  1  0.677300  0.001500  0.579800  1.0
  H  H1082  1  0.998500  0.322700  0.920200  1.0
  H  H1083  1  0.322700  0.998500  0.420200  1.0
  H  H1084  1  0.001500  0.677300  0.079800  1.0
  H  H1085  1  0.680900  0.086100  0.540400  1.0
  H  H1086  1  0.913900  0.319100  0.959600  1.0
  H  H1087  1  0.319100  0.913900  0.459600  1.0
  H  H1088  1  0.086100  0.680900  0.040400  1.0
  H  H1089  1  0.784600  0.193800  0.630300  1.0
  H  H1090  1  0.806200  0.215400  0.869700  1.0
  H  H1091  1  0.215400  0.806200  0.369700  1.0
  H  H1092  1  0.193800  0.784600  0.130300  1.0
  H  H1093  1  0.788200  0.278400  0.590900  1.0
  H  H1094  1  0.721600  0.211800  0.909100  1.0
  H  H1095  1  0.211800  0.721600  0.409100  1.0
  H  H1096  1  0.278400  0.788200  0.090900  1.0
  H  H1097  1  0.749900  0.275700  0.538200  1.0
  H  H1098  1  0.724300  0.250100  0.961800  1.0
  H  H1099  1  0.250100  0.724300  0.461800  1.0
  H  H1100  1  0.275700  0.749900  0.038200  1.0
  H  H1101  1  0.575900  0.200100  0.618400  1.0
  H  H1102  1  0.799900  0.424100  0.881600  1.0
  H  H1103  1  0.424100  0.799900  0.381600  1.0
  H  H1104  1  0.200100  0.575900  0.118400  1.0
  H  H1105  1  0.628500  0.285700  0.623200  1.0
  H  H1106  1  0.714300  0.371500  0.876800  1.0
  H  H1107  1  0.371500  0.714300  0.376800  1.0
  H  H1108  1  0.285700  0.628500  0.123200  1.0
  H  H1109  1  0.684500  0.290300  0.669900  1.0
  H  H1110  1  0.709700  0.315500  0.830100  1.0
  H  H1111  1  0.315500  0.709700  0.330100  1.0
  H  H1112  1  0.290300  0.684500  0.169900  1.0
  H  H1113  1  0.687800  0.209600  0.711900  1.0
  H  H1114  1  0.790400  0.312200  0.788100  1.0
  H  H1115  1  0.312200  0.790400  0.288100  1.0
  H  H1116  1  0.209600  0.687800  0.211900  1.0
  H  H1117  1  0.476300  0.013300  0.641600  1.0
  H  H1118  1  0.986700  0.523700  0.858400  1.0
  H  H1119  1  0.523700  0.986700  0.358400  1.0
  H  H1120  1  0.013300  0.476300  0.141600  1.0
  H  H1121  1  0.515500  0.114500  0.619400  1.0
  H  H1122  1  0.885500  0.484500  0.880600  1.0
  H  H1123  1  0.484500  0.885500  0.380600  1.0
  H  H1124  1  0.114500  0.515500  0.119400  1.0
  H  H1125  1  0.491300  0.941900  0.697100  1.0
  H  H1126  1  0.058100  0.508700  0.802900  1.0
  H  H1127  1  0.508700  0.058100  0.302900  1.0
  H  H1128  1  0.941900  0.491300  0.197100  1.0
  H  H1129  1  0.534600  0.961800  0.723500  1.0
  H  H1130  1  0.038200  0.465400  0.776500  1.0
  H  H1131  1  0.465400  0.038200  0.276500  1.0
  H  H1132  1  0.961800  0.534600  0.223500  1.0
  H  H1133  1  0.626000  0.431200  0.715400  1.0
  H  H1134  1  0.568800  0.374000  0.784600  1.0
  H  H1135  1  0.374000  0.568800  0.284600  1.0
  H  H1136  1  0.431200  0.626000  0.215400  1.0
  H  H1137  1  0.575200  0.361000  0.690200  1.0
  H  H1138  1  0.639000  0.424800  0.809800  1.0
  H  H1139  1  0.424800  0.639000  0.309800  1.0
  H  H1140  1  0.361000  0.575200  0.190200  1.0
  H  H1141  1  0.520200  0.392600  0.643300  1.0
  H  H1142  1  0.607400  0.479800  0.856700  1.0
  H  H1143  1  0.479800  0.607400  0.356700  1.0
  H  H1144  1  0.392600  0.520200  0.143300  1.0
  H  H1145  1  0.516100  0.494500  0.621500  1.0
  H  H1146  1  0.505500  0.483900  0.878500  1.0
  H  H1147  1  0.483900  0.505500  0.378500  1.0
  H  H1148  1  0.494500  0.516100  0.121500  1.0
  H  H1149  1  0.726800  0.608800  0.735500  1.0
  H  H1150  1  0.391200  0.273200  0.764500  1.0
  H  H1151  1  0.273200  0.391200  0.264500  1.0
  H  H1152  1  0.608800  0.726800  0.235500  1.0
  H  H1153  1  0.685400  0.505800  0.735200  1.0
  H  H1154  1  0.494200  0.314600  0.764800  1.0
  H  H1155  1  0.314600  0.494200  0.264800  1.0
  H  H1156  1  0.505800  0.685400  0.235200  1.0
  H  H1157  1  0.680500  0.705900  0.661500  1.0
  H  H1158  1  0.294100  0.319500  0.838500  1.0
  H  H1159  1  0.319500  0.294100  0.338500  1.0
  H  H1160  1  0.705900  0.680500  0.161500  1.0
  H  H1161  1  0.717300  0.709300  0.694000  1.0
  H  H1162  1  0.290700  0.282700  0.806000  1.0
  H  H1163  1  0.282700  0.290700  0.306000  1.0
  H  H1164  1  0.709300  0.717300  0.194000  1.0
  H  H1165  1  0.627200  0.970200  0.656400  1.0
  H  H1166  1  0.029800  0.372800  0.843600  1.0
  H  H1167  1  0.372800  0.029800  0.343600  1.0
  H  H1168  1  0.970200  0.627200  0.156400  1.0
  H  H1169  1  0.705800  0.900000  0.637600  1.0
  H  H1170  1  0.100000  0.294200  0.862400  1.0
  H  H1171  1  0.294200  0.100000  0.362400  1.0
  H  H1172  1  0.900000  0.705800  0.137600  1.0
  H  H1173  1  0.706300  0.797300  0.657700  1.0
  H  H1174  1  0.202700  0.293700  0.842300  1.0
  H  H1175  1  0.293700  0.202700  0.342300  1.0
  H  H1176  1  0.797300  0.706300  0.157700  1.0
  H  H1177  1  0.503000  0.857800  0.730300  1.0
  H  H1178  1  0.142200  0.497000  0.769700  1.0
  H  H1179  1  0.497000  0.142200  0.269700  1.0
  H  H1180  1  0.857800  0.503000  0.230300  1.0
  H  H1181  1  0.503400  0.755200  0.750400  1.0
  H  H1182  1  0.244800  0.496600  0.749600  1.0
  H  H1183  1  0.496600  0.244800  0.249600  1.0
  H  H1184  1  0.755200  0.503400  0.250400  1.0
  H  H1185  1  0.582100  0.684900  0.731600  1.0
  H  H1186  1  0.315100  0.417900  0.768400  1.0
  H  H1187  1  0.417900  0.315100  0.268400  1.0
  H  H1188  1  0.684900  0.582100  0.231600  1.0
  H  H1189  1  0.008800  0.439200  0.624100  1.0
  H  H1190  1  0.560800  0.991200  0.875900  1.0
  H  H1191  1  0.991200  0.560800  0.375900  1.0
  H  H1192  1  0.439200  0.008800  0.124100  1.0
  H  H1193  1  0.938600  0.383000  0.655800  1.0
  H  H1194  1  0.617000  0.061400  0.844200  1.0
  H  H1195  1  0.061400  0.617000  0.344200  1.0
  H  H1196  1  0.383000  0.938600  0.155800  1.0
  H  H1197  1  0.967200  0.282400  0.675700  1.0
  H  H1198  1  0.717600  0.032800  0.824300  1.0
  H  H1199  1  0.032800  0.717600  0.324300  1.0
  H  H1200  1  0.282400  0.967200  0.175700  1.0
  H  H1201  1  0.064900  0.240100  0.661600  1.0
  H  H1202  1  0.759900  0.935100  0.838400  1.0
  H  H1203  1  0.935100  0.759900  0.338400  1.0
  H  H1204  1  0.240100  0.064900  0.161600  1.0
  H  H1205  1  0.197300  0.505500  0.562200  1.0
  H  H1206  1  0.494500  0.802700  0.937800  1.0
  H  H1207  1  0.802700  0.494500  0.437800  1.0
  H  H1208  1  0.505500  0.197300  0.062200  1.0
  H  H1209  1  0.096200  0.497400  0.596900  1.0
  H  H1210  1  0.502600  0.903800  0.903100  1.0
  H  H1211  1  0.903800  0.502600  0.403100  1.0
  H  H1212  1  0.497400  0.096200  0.096900  1.0
  H  H1213  1  0.289500  0.357100  0.567100  1.0
  H  H1214  1  0.642900  0.710500  0.932900  1.0
  H  H1215  1  0.710500  0.642900  0.432900  1.0
  H  H1216  1  0.357100  0.289500  0.067100  1.0
  H  H1217  1  0.291600  0.422600  0.546900  1.0
  H  H1218  1  0.577400  0.708400  0.953100  1.0
  H  H1219  1  0.708400  0.577400  0.453100  1.0
  H  H1220  1  0.422600  0.291600  0.046900  1.0
  H  H1221  1  0.572600  0.209400  0.333000  1.0
  H  H1222  1  0.790600  0.427400  0.167000  1.0
  H  H1223  1  0.427400  0.790600  0.667000  1.0
  H  H1224  1  0.209400  0.572600  0.833000  1.0
  H  H1225  1  0.637900  0.264500  0.295200  1.0
  H  H1226  1  0.735500  0.362100  0.204800  1.0
  H  H1227  1  0.362100  0.735500  0.704800  1.0
  H  H1228  1  0.264500  0.637900  0.795200  1.0
  H  H1229  1  0.616000  0.369400  0.283600  1.0
  H  H1230  1  0.630600  0.384000  0.216400  1.0
  H  H1231  1  0.384000  0.630600  0.716400  1.0
  H  H1232  1  0.369400  0.616000  0.783600  1.0
  H  H1233  1  0.528700  0.419100  0.309800  1.0
  H  H1234  1  0.580900  0.471300  0.190200  1.0
  H  H1235  1  0.471300  0.580900  0.690200  1.0
  H  H1236  1  0.419100  0.528700  0.809800  1.0
  H  H1237  1  0.395800  0.149800  0.407100  1.0
  H  H1238  1  0.850200  0.604200  0.092900  1.0
  H  H1239  1  0.604200  0.850200  0.592900  1.0
  H  H1240  1  0.149800  0.395800  0.907100  1.0
  H  H1241  1  0.496200  0.158000  0.371800  1.0
  H  H1242  1  0.842000  0.503800  0.128200  1.0
  H  H1243  1  0.503800  0.842000  0.628200  1.0
  H  H1244  1  0.158000  0.496200  0.871800  1.0
  H  H1245  1  0.299200  0.231000  0.418000  1.0
  H  H1246  1  0.769000  0.700800  0.082000  1.0
  H  H1247  1  0.700800  0.769000  0.582000  1.0
  H  H1248  1  0.231000  0.299200  0.918000  1.0
  H  H1249  1  0.305800  0.299600  0.403000  1.0
  H  H1250  1  0.700400  0.694200  0.097000  1.0
  H  H1251  1  0.694200  0.700400  0.597000  1.0
  H  H1252  1  0.299600  0.305800  0.903000  1.0
  H  H1253  1  0.160600  0.386600  0.524300  1.0
  H  H1254  1  0.613400  0.839400  0.975700  1.0
  H  H1255  1  0.839400  0.613400  0.475700  1.0
  H  H1256  1  0.386600  0.160600  0.024300  1.0
  H  H1257  1  0.141500  0.348900  0.473500  1.0
  H  H1258  1  0.651100  0.858500  0.026500  1.0
  H  H1259  1  0.858500  0.651100  0.526500  1.0
  H  H1260  1  0.348900  0.141500  0.973500  1.0
  H  H1261  1  0.221400  0.301400  0.440200  1.0
  H  H1262  1  0.698600  0.778600  0.059800  1.0
  H  H1263  1  0.778600  0.698600  0.559800  1.0
  H  H1264  1  0.301400  0.221400  0.940200  1.0
  H  H1265  1  0.365900  0.342700  0.532400  1.0
  H  H1266  1  0.657300  0.634100  0.967600  1.0
  H  H1267  1  0.634100  0.657300  0.467600  1.0
  H  H1268  1  0.342700  0.365900  0.032400  1.0
  H  H1269  1  0.445700  0.295100  0.499100  1.0
  H  H1270  1  0.704900  0.554300  0.000900  1.0
  H  H1271  1  0.554300  0.704900  0.500900  1.0
  H  H1272  1  0.295100  0.445700  0.999100  1.0
  H  H1273  1  0.426700  0.257500  0.448400  1.0
  H  H1274  1  0.742500  0.573300  0.051600  1.0
  H  H1275  1  0.573300  0.742500  0.551600  1.0
  H  H1276  1  0.257500  0.426700  0.948400  1.0
  H  H1277  1  0.277700  0.241100  0.725000  1.0
  H  H1278  1  0.758900  0.722300  0.775000  1.0
  H  H1279  1  0.722300  0.758900  0.275000  1.0
  H  H1280  1  0.241100  0.277700  0.225000  1.0
  H  H1281  1  0.324500  0.331900  0.723900  1.0
  H  H1282  1  0.668100  0.675500  0.776100  1.0
  H  H1283  1  0.675500  0.668100  0.276100  1.0
  H  H1284  1  0.331900  0.324500  0.223900  1.0
  H  H1285  1  0.312400  0.406200  0.678900  1.0
  H  H1286  1  0.593800  0.687600  0.821100  1.0
  H  H1287  1  0.687600  0.593800  0.321100  1.0
  H  H1288  1  0.406200  0.312400  0.178900  1.0
  H  H1289  1  0.253500  0.389700  0.635100  1.0
  H  H1290  1  0.610300  0.746500  0.864900  1.0
  H  H1291  1  0.746500  0.610300  0.364900  1.0
  H  H1292  1  0.389700  0.253500  0.135100  1.0
  H  H1293  1  0.139200  0.090000  0.701100  1.0
  H  H1294  1  0.910000  0.860800  0.798900  1.0
  H  H1295  1  0.860800  0.910000  0.298900  1.0
  H  H1296  1  0.090000  0.139200  0.201100  1.0
  H  H1297  1  0.206700  0.157500  0.726600  1.0
  H  H1298  1  0.842500  0.793300  0.773400  1.0
  H  H1299  1  0.793300  0.842500  0.273400  1.0
  H  H1300  1  0.157500  0.206700  0.226600  1.0
  H  H1301  1  0.094700  0.162300  0.618800  1.0
  H  H1302  1  0.837700  0.905300  0.881200  1.0
  H  H1303  1  0.905300  0.837700  0.381200  1.0
  H  H1304  1  0.162300  0.094700  0.118800  1.0
  H  H1305  1  0.084800  0.101600  0.642700  1.0
  H  H1306  1  0.898400  0.915200  0.857300  1.0
  H  H1307  1  0.915200  0.898400  0.357300  1.0
  H  H1308  1  0.101600  0.084800  0.142700  1.0
  H  H1309  1  0.084300  0.805500  0.419000  1.0
  H  H1310  1  0.194500  0.915700  0.081000  1.0
  H  H1311  1  0.915700  0.194500  0.581000  1.0
  H  H1312  1  0.805500  0.084300  0.919000  1.0
  H  H1313  1  0.062700  0.703300  0.424800  1.0
  H  H1314  1  0.296700  0.937300  0.075200  1.0
  H  H1315  1  0.937300  0.296700  0.575200  1.0
  H  H1316  1  0.703300  0.062700  0.924800  1.0
  H  H1317  1  0.069100  0.647100  0.477000  1.0
  H  H1318  1  0.352900  0.930900  0.023000  1.0
  H  H1319  1  0.930900  0.352900  0.523000  1.0
  H  H1320  1  0.647100  0.069100  0.977000  1.0
  H  H1321  1  0.097000  0.692800  0.523400  1.0
  H  H1322  1  0.307200  0.903000  0.976600  1.0
  H  H1323  1  0.903000  0.307200  0.476600  1.0
  H  H1324  1  0.692800  0.097000  0.023400  1.0
  H  H1325  1  0.163400  0.998400  0.438700  1.0
  H  H1326  1  0.001600  0.836600  0.061300  1.0
  H  H1327  1  0.836600  0.001600  0.561300  1.0
  H  H1328  1  0.998400  0.163400  0.938700  1.0
  H  H1329  1  0.109800  0.913800  0.418100  1.0
  H  H1330  1  0.086200  0.890200  0.081900  1.0
  H  H1331  1  0.890200  0.086200  0.581900  1.0
  H  H1332  1  0.913800  0.109800  0.918100  1.0
  H  H1333  1  0.227600  0.000200  0.492700  1.0
  H  H1334  1  0.999800  0.772400  0.007300  1.0
  H  H1335  1  0.772400  0.999800  0.507300  1.0
  H  H1336  1  0.000200  0.227600  0.992700  1.0
  H  H1337  1  0.224600  0.943200  0.520200  1.0
  H  H1338  1  0.056800  0.775400  0.979800  1.0
  H  H1339  1  0.775400  0.056800  0.479800  1.0
  H  H1340  1  0.943200  0.224600  0.020200  1.0
  H  H1341  1  0.233900  0.096700  0.631500  1.0
  H  H1342  1  0.903300  0.766100  0.868500  1.0
  H  H1343  1  0.766100  0.903300  0.368500  1.0
  H  H1344  1  0.096700  0.233900  0.131500  1.0
  H  H1345  1  0.301000  0.041400  0.594400  1.0
  H  H1346  1  0.958600  0.699000  0.905600  1.0
  H  H1347  1  0.699000  0.958600  0.405600  1.0
  H  H1348  1  0.041400  0.301000  0.094400  1.0
  H  H1349  1  0.264700  0.002700  0.547900  1.0
  H  H1350  1  0.997300  0.735300  0.952100  1.0
  H  H1351  1  0.735300  0.997300  0.452100  1.0
  H  H1352  1  0.002700  0.264700  0.047900  1.0
  H  H1353  1  0.047600  0.100000  0.588700  1.0
  H  H1354  1  0.900000  0.952400  0.911300  1.0
  H  H1355  1  0.952400  0.900000  0.411300  1.0
  H  H1356  1  0.100000  0.047600  0.088700  1.0
  H  H1357  1  0.011300  0.061300  0.542200  1.0
  H  H1358  1  0.938700  0.988700  0.957800  1.0
  H  H1359  1  0.988700  0.938700  0.457800  1.0
  H  H1360  1  0.061300  0.011300  0.042200  1.0
  H  H1361  1  0.078500  0.006100  0.505200  1.0
  H  H1362  1  0.993900  0.921500  0.994800  1.0
  H  H1363  1  0.921500  0.993900  0.494800  1.0
  H  H1364  1  0.006100  0.078500  0.005200  1.0
  H  H1365  1  0.000400  0.049600  0.384400  1.0
  H  H1366  1  0.950400  0.999600  0.115600  1.0
  H  H1367  1  0.999600  0.950400  0.615600  1.0
  H  H1368  1  0.049600  0.000400  0.884400  1.0
  H  H1369  1  0.091200  0.057600  0.409000  1.0
  H  H1370  1  0.942400  0.908800  0.091000  1.0
  H  H1371  1  0.908800  0.942400  0.591000  1.0
  H  H1372  1  0.057600  0.091200  0.909000  1.0
  H  H1373  1  0.090300  0.110700  0.457300  1.0
  H  H1374  1  0.889300  0.909700  0.042700  1.0
  H  H1375  1  0.909700  0.889300  0.542700  1.0
  H  H1376  1  0.110700  0.090300  0.957300  1.0
  H  H1377  1  0.998500  0.155700  0.481100  1.0
  H  H1378  1  0.844300  0.001500  0.018900  1.0
  H  H1379  1  0.001500  0.844300  0.518900  1.0
  H  H1380  1  0.155700  0.998500  0.981100  1.0
  H  H1381  1  0.787400  0.066400  0.359100  1.0
  H  H1382  1  0.933600  0.212600  0.140900  1.0
  H  H1383  1  0.212600  0.933600  0.640900  1.0
  H  H1384  1  0.066400  0.787400  0.859100  1.0
  H  H1385  1  0.901800  0.047200  0.361100  1.0
  H  H1386  1  0.952800  0.098200  0.138900  1.0
  H  H1387  1  0.098200  0.952800  0.638900  1.0
  H  H1388  1  0.047200  0.901800  0.861100  1.0
  H  H1389  1  0.722100  0.134300  0.438200  1.0
  H  H1390  1  0.865700  0.277900  0.061800  1.0
  H  H1391  1  0.277900  0.865700  0.561800  1.0
  H  H1392  1  0.134300  0.722100  0.938200  1.0
  H  H1393  1  0.699300  0.105100  0.406800  1.0
  H  H1394  1  0.894900  0.300700  0.093200  1.0
  H  H1395  1  0.300700  0.894900  0.593200  1.0
  H  H1396  1  0.105100  0.699300  0.906800  1.0
  H  H1397  1  0.314300  0.472700  0.467200  1.0
  H  H1398  1  0.527300  0.685700  0.032800  1.0
  H  H1399  1  0.685700  0.527300  0.532800  1.0
  H  H1400  1  0.472700  0.314300  0.967200  1.0
  H  H1401  1  0.214100  0.480500  0.451800  1.0
  H  H1402  1  0.519500  0.785900  0.048200  1.0
  H  H1403  1  0.785900  0.519500  0.548200  1.0
  H  H1404  1  0.480500  0.214100  0.951800  1.0
  H  H1405  1  0.193100  0.447100  0.400300  1.0
  H  H1406  1  0.552900  0.806900  0.099700  1.0
  H  H1407  1  0.806900  0.552900  0.599700  1.0
  H  H1408  1  0.447100  0.193100  0.900300  1.0
  H  H1409  1  0.272400  0.405800  0.364100  1.0
  H  H1410  1  0.594200  0.727600  0.135900  1.0
  H  H1411  1  0.727600  0.594200  0.635900  1.0
  H  H1412  1  0.405800  0.272400  0.864100  1.0
  H  H1413  1  0.538000  0.448600  0.463000  1.0
  H  H1414  1  0.551400  0.462000  0.037000  1.0
  H  H1415  1  0.462000  0.551400  0.537000  1.0
  H  H1416  1  0.448600  0.538000  0.963000  1.0
  H  H1417  1  0.424600  0.472000  0.476500  1.0
  H  H1418  1  0.528000  0.575400  0.023500  1.0
  H  H1419  1  0.575400  0.528000  0.523500  1.0
  H  H1420  1  0.472000  0.424600  0.976500  1.0
  H  H1421  1  0.601500  0.410300  0.408700  1.0
  H  H1422  1  0.589700  0.398500  0.091300  1.0
  H  H1423  1  0.398500  0.589700  0.591300  1.0
  H  H1424  1  0.410300  0.601500  0.908700  1.0
  H  H1425  1  0.564600  0.392600  0.378700  1.0
  H  H1426  1  0.607400  0.435400  0.121300  1.0
  H  H1427  1  0.435400  0.607400  0.621300  1.0
  H  H1428  1  0.392600  0.564600  0.878700  1.0
  H  H1429  1  0.781700  0.205500  0.364300  1.0
  H  H1430  1  0.794500  0.218300  0.135700  1.0
  H  H1431  1  0.218300  0.794500  0.635700  1.0
  H  H1432  1  0.205500  0.781700  0.864300  1.0
  H  H1433  1  0.755000  0.306600  0.345200  1.0
  H  H1434  1  0.693400  0.245000  0.154800  1.0
  H  H1435  1  0.245000  0.693400  0.654800  1.0
  H  H1436  1  0.306600  0.755000  0.845200  1.0
  H  H1437  1  0.665200  0.357800  0.367600  1.0
  H  H1438  1  0.642200  0.334800  0.132400  1.0
  H  H1439  1  0.334800  0.642200  0.632400  1.0
  H  H1440  1  0.357800  0.665200  0.867600  1.0
  H  H1441  1  0.627800  0.156200  0.443800  1.0
  H  H1442  1  0.843800  0.372200  0.056200  1.0
  H  H1443  1  0.372200  0.843800  0.556200  1.0
  H  H1444  1  0.156200  0.627800  0.943800  1.0
  H  H1445  1  0.537900  0.207500  0.466200  1.0
  H  H1446  1  0.792500  0.462100  0.033800  1.0
  H  H1447  1  0.462100  0.792500  0.533800  1.0
  H  H1448  1  0.207500  0.537900  0.966200  1.0
  H  H1449  1  0.511300  0.308700  0.447000  1.0
  H  H1450  1  0.691300  0.488700  0.053000  1.0
  H  H1451  1  0.488700  0.691300  0.553000  1.0
  H  H1452  1  0.308700  0.511300  0.947000  1.0
  N  N1453  1  0.697980  0.108960  0.757310  1.0
  N  N1454  1  0.891040  0.302020  0.742690  1.0
  N  N1455  1  0.302020  0.891040  0.242690  1.0
  N  N1456  1  0.108960  0.697980  0.257310  1.0
  N  N1457  1  0.576250  0.122430  0.760270  1.0
  N  N1458  1  0.877570  0.423750  0.739730  1.0
  N  N1459  1  0.423750  0.877570  0.239730  1.0
  N  N1460  1  0.122430  0.576250  0.260270  1.0
  N  N1461  1  0.512620  0.132860  0.768580  1.0
  N  N1462  1  0.867140  0.487380  0.731420  1.0
  N  N1463  1  0.487380  0.867140  0.231420  1.0
  N  N1464  1  0.132860  0.512620  0.268580  1.0
  N  N1465  1  0.151070  0.244370  0.570380  1.0
  N  N1466  1  0.755630  0.848930  0.929620  1.0
  N  N1467  1  0.848930  0.755630  0.429620  1.0
  N  N1468  1  0.244370  0.151070  0.070380  1.0
  N  N1469  1  0.266980  0.238780  0.586180  1.0
  N  N1470  1  0.761220  0.733020  0.913820  1.0
  N  N1471  1  0.733020  0.761220  0.413820  1.0
  N  N1472  1  0.238780  0.266980  0.086180  1.0
  N  N1473  1  0.331030  0.229450  0.588020  1.0
  N  N1474  1  0.770550  0.668970  0.911980  1.0
  N  N1475  1  0.668970  0.770550  0.411980  1.0
  N  N1476  1  0.229450  0.331030  0.088020  1.0
  N  N1477  1  0.635690  0.990950  0.752060  1.0
  N  N1478  1  0.009050  0.364310  0.747940  1.0
  N  N1479  1  0.364310  0.009050  0.247940  1.0
  N  N1480  1  0.990950  0.635690  0.252060  1.0
  N  N1481  1  0.713070  0.025830  0.701090  1.0
  N  N1482  1  0.974170  0.286930  0.798910  1.0
  N  N1483  1  0.286930  0.974170  0.298910  1.0
  N  N1484  1  0.025830  0.713070  0.201090  1.0
  N  N1485  1  0.764930  0.036350  0.678480  1.0
  N  N1486  1  0.963650  0.235070  0.821520  1.0
  N  N1487  1  0.235070  0.963650  0.321520  1.0
  N  N1488  1  0.036350  0.764930  0.178480  1.0
  N  N1489  1  0.871800  0.250680  0.425160  1.0
  N  N1490  1  0.749320  0.128200  0.074840  1.0
  N  N1491  1  0.128200  0.749320  0.574840  1.0
  N  N1492  1  0.250680  0.871800  0.925160  1.0
  N  N1493  1  0.774240  0.232020  0.467290  1.0
  N  N1494  1  0.767980  0.225760  0.032710  1.0
  N  N1495  1  0.225760  0.767980  0.532710  1.0
  N  N1496  1  0.232020  0.774240  0.967290  1.0
  N  N1497  1  0.718590  0.233490  0.487950  1.0
  N  N1498  1  0.766510  0.281410  0.012050  1.0
  N  N1499  1  0.281410  0.766510  0.512050  1.0
  N  N1500  1  0.233490  0.718590  0.987950  1.0
  N  N1501  1  0.633900  0.156940  0.690100  1.0
  N  N1502  1  0.843060  0.366100  0.809900  1.0
  N  N1503  1  0.366100  0.843060  0.309900  1.0
  N  N1504  1  0.156940  0.633900  0.190100  1.0
  N  N1505  1  0.572710  0.057850  0.687950  1.0
  N  N1506  1  0.942150  0.427290  0.812050  1.0
  N  N1507  1  0.427290  0.942150  0.312050  1.0
  N  N1508  1  0.057850  0.572710  0.187950  1.0
  N  N1509  1  0.533210  0.013710  0.681750  1.0
  N  N1510  1  0.986290  0.466790  0.818250  1.0
  N  N1511  1  0.466790  0.986290  0.318250  1.0
  N  N1512  1  0.013710  0.533210  0.181750  1.0
  N  N1513  1  0.568620  0.523360  0.655530  1.0
  N  N1514  1  0.476640  0.431380  0.844470  1.0
  N  N1515  1  0.431380  0.476640  0.344470  1.0
  N  N1516  1  0.523360  0.568620  0.155530  1.0
  N  N1517  1  0.629960  0.605900  0.680210  1.0
  N  N1518  1  0.394100  0.370040  0.819790  1.0
  N  N1519  1  0.370040  0.394100  0.319790  1.0
  N  N1520  1  0.605900  0.629960  0.180210  1.0
  N  N1521  1  0.670280  0.638820  0.695940  1.0
  N  N1522  1  0.361180  0.329720  0.804060  1.0
  N  N1523  1  0.329720  0.361180  0.304060  1.0
  N  N1524  1  0.638820  0.670280  0.195940  1.0
  N  N1525  1  0.094800  0.313800  0.633410  1.0
  N  N1526  1  0.686200  0.905200  0.866590  1.0
  N  N1527  1  0.905200  0.686200  0.366590  1.0
  N  N1528  1  0.313800  0.094800  0.133410  1.0
  N  N1529  1  0.175710  0.368770  0.592060  1.0
  N  N1530  1  0.631230  0.824290  0.907940  1.0
  N  N1531  1  0.824290  0.631230  0.407940  1.0
  N  N1532  1  0.368770  0.175710  0.092060  1.0
  N  N1533  1  0.213290  0.409910  0.572840  1.0
  N  N1534  1  0.590090  0.786710  0.927160  1.0
  N  N1535  1  0.786710  0.590090  0.427160  1.0
  N  N1536  1  0.409910  0.213290  0.072840  1.0
  N  N1537  1  0.498840  0.343740  0.336950  1.0
  N  N1538  1  0.656260  0.501160  0.163050  1.0
  N  N1539  1  0.501160  0.656260  0.663050  1.0
  N  N1540  1  0.343740  0.498840  0.836950  1.0
  N  N1541  1  0.417320  0.286740  0.377730  1.0
  N  N1542  1  0.713260  0.582680  0.122270  1.0
  N  N1543  1  0.582680  0.713260  0.622270  1.0
  N  N1544  1  0.286740  0.417320  0.877730  1.0
  N  N1545  1  0.379950  0.245510  0.397040  1.0
  N  N1546  1  0.754490  0.620050  0.102960  1.0
  N  N1547  1  0.620050  0.754490  0.602960  1.0
  N  N1548  1  0.245510  0.379950  0.897040  1.0
  N  N1549  1  0.230570  0.305590  0.654050  1.0
  N  N1550  1  0.694410  0.769430  0.845950  1.0
  N  N1551  1  0.769430  0.694410  0.345950  1.0
  N  N1552  1  0.305590  0.230570  0.154050  1.0
  N  N1553  1  0.178320  0.203200  0.650360  1.0
  N  N1554  1  0.796800  0.821680  0.849640  1.0
  N  N1555  1  0.821680  0.796800  0.349640  1.0
  N  N1556  1  0.203200  0.178320  0.150360  1.0
  N  N1557  1  0.146210  0.150210  0.656750  1.0
  N  N1558  1  0.849790  0.853790  0.843250  1.0
  N  N1559  1  0.853790  0.849790  0.343250  1.0
  N  N1560  1  0.150210  0.146210  0.156750  1.0
  N  N1561  1  0.107230  0.776350  0.498790  1.0
  N  N1562  1  0.223650  0.892770  0.001210  1.0
  N  N1563  1  0.892770  0.223650  0.501210  1.0
  N  N1564  1  0.776350  0.107230  0.998790  1.0
  N  N1565  1  0.151150  0.883870  0.493500  1.0
  N  N1566  1  0.116130  0.848850  0.006500  1.0
  N  N1567  1  0.848850  0.116130  0.506500  1.0
  N  N1568  1  0.883870  0.151150  0.993500  1.0
  N  N1569  1  0.171360  0.942580  0.484420  1.0
  N  N1570  1  0.057420  0.828640  0.015580  1.0
  N  N1571  1  0.828640  0.057420  0.515580  1.0
  N  N1572  1  0.942580  0.171360  0.984420  1.0
  N  N1573  1  0.944810  0.129410  0.446890  1.0
  N  N1574  1  0.870590  0.055190  0.053110  1.0
  N  N1575  1  0.055190  0.870590  0.553110  1.0
  N  N1576  1  0.129410  0.944810  0.946890  1.0
  N  N1577  1  0.837580  0.121860  0.422150  1.0
  N  N1578  1  0.878140  0.162420  0.077850  1.0
  N  N1579  1  0.162420  0.878140  0.577850  1.0
  N  N1580  1  0.121860  0.837580  0.922150  1.0
  N  N1581  1  0.787690  0.112150  0.403720  1.0
  N  N1582  1  0.887850  0.212310  0.096280  1.0
  N  N1583  1  0.212310  0.887850  0.596280  1.0
  N  N1584  1  0.112150  0.787690  0.903720  1.0
  N  N1585  1  0.340490  0.414730  0.394200  1.0
  N  N1586  1  0.585270  0.659510  0.105800  1.0
  N  N1587  1  0.659510  0.585270  0.605800  1.0
  N  N1588  1  0.414730  0.340490  0.894200  1.0
  N  N1589  1  0.456730  0.403510  0.408510  1.0
  N  N1590  1  0.596490  0.543270  0.091490  1.0
  N  N1591  1  0.543270  0.596490  0.591490  1.0
  N  N1592  1  0.403510  0.456730  0.908510  1.0
  N  N1593  1  0.515080  0.408940  0.419680  1.0
  N  N1594  1  0.591060  0.484920  0.080320  1.0
  N  N1595  1  0.484920  0.591060  0.580320  1.0
  N  N1596  1  0.408940  0.515080  0.919680  1.0
  O  O1597  1  0.352300  0.939700  0.517100  1
  O  O1598  1  0.060300  0.647700  0.982900  1
  O  O1599  1  0.647700  0.060300  0.482900  1
  O  O1600  1  0.939700  0.352300  0.017100  1
  O  O1601  1  0.444400  0.935000  0.474400  1
  O  O1602  1  0.065000  0.555600  0.025600  1
  O  O1603  1  0.555600  0.065000  0.525600  1
  O  O1604  1  0.935000  0.444400  0.974400  1
  O  O1605  1  0.456400  0.969400  0.529800  1
  O  O1606  1  0.030600  0.543600  0.970200  1
  O  O1607  1  0.543600  0.030600  0.470200  1
  O  O1608  1  0.969400  0.456400  0.029800  1
  P  P1609  1  0.404400  0.971800  0.503800  1
  P  P1610  1  0.028200  0.595600  0.996200  1
  P  P1611  1  0.595600  0.028200  0.496200  1
  P  P1612  1  0.971800  0.404400  0.003800  1
