
#######################################################################
#
#                 Cambridge Crystallographic Data Centre
#                                CCDC 
#
#######################################################################
#
# If this CIF has been generated from an entry in the Cambridge 
# Structural Database, then it will include bibliographic, chemical, 
# crystal, experimental, refinement or atomic coordinate data resulting 
# from the CCDC's data processing and validation procedures.
#
#######################################################################

data_UKAGUI
_chemical_formula_moiety         
'C172 H196 N48 O16 Pd12 24+,2(C2 H10 N3 O4 Pd1),24(N1 O3 1-),C13 H10 O2,22(H2 O1)'
_chemical_name_systematic        
"bis(\m~8~-tetrakis(3,3':5',3''-terpyrid-5-yl)benzene-1,2,4,5-tetracarboxylate))-dodecakis(ethylenediamine-palladium(ii)) tetracosakis(nitrate) bis(aqua-(ethylenediamine)-nitro-palladium(ii) clathrate biphenyl-4-carboxylic acid hydrate"
_symmetry_cell_setting           triclinic
_symmetry_space_group_name_H-M   'P -1'
_symmetry_Int_Tables_number      2
_space_group_name_Hall           '-P 1'
loop_
_symmetry_equiv_pos_site_id
_symmetry_equiv_pos_as_xyz
1 x,y,z
2 -x,-y,-z
_cell_length_a                   16.494(4)
_cell_length_b                   16.610(4)
_cell_length_c                   31.977(8)
_cell_angle_alpha                78.438(5)
_cell_angle_beta                 86.281(5)
_cell_angle_gamma                70.333(4)
_cell_volume                     8082.11
_exptl_crystal_colour            yellow
_exptl_crystal_description       prism
_cell_formula_units_Z            1
loop_
_atom_site_label
_atom_site_type_symbol
_atom_site_fract_x
_atom_site_fract_y
_atom_site_fract_z
Pd1 Pd 1.26411(6) 0.88673(6) 1.18223(4)
N1 N 1.3947(9) 0.8623(8) 1.1819(6)
H1 H 1.4133 0.8622 1.2084
H2 H 1.4233 0.8091 1.1746
N2 N 1.2548(9) 0.9995(8) 1.1422(5)
H3 H 1.2384 0.9980 1.1155
H4 H 1.2142 1.0451 1.1519
C1 C 1.4106(13) 0.9331(14) 1.1498(13)
H5 H 1.4589 0.9468 1.1600
H6 H 1.4295 0.9109 1.1230
C2 C 1.3407(10) 1.0113(10) 1.1400(8)
H7 H 1.3488 1.0417 1.1109
H8 H 1.3413 1.0493 1.1601
Pd2 Pd 1.24830(6) 0.31015(6) 1.25316(4)
N3 N 1.3713(7) 0.2414(8) 1.2698(5)
H9 H 1.4013 0.2203 1.2468
H10 H 1.3972 0.2764 1.2785
N4 N 1.2186(8) 0.2083(8) 1.2895(5)
H11 H 1.1876 0.2255 1.3130
H12 H 1.1852 0.1903 1.2739
C3 C 1.3718(13) 0.1635(14) 1.3073(11)
H13 H 1.4254 0.1138 1.3063
H14 H 1.3698 0.1818 1.3351
C4 C 1.2967(15) 0.1372(13) 1.3030(11)
H15 H 1.3105 0.0978 1.2822
H16 H 1.2861 0.1037 1.3309
Pd3 Pd 0.69560(7) 1.19206(7) 1.26022(4)
N5 N 0.5708(8) 1.2643(8) 1.2465(5)
H17 H 0.5418 1.2309 1.2388
H18 H 0.5440 1.2867 1.2698
N6 N 0.7209(8) 1.2935(8) 1.2228(5)
H19 H 0.7617 1.3073 1.2354
H20 H 0.7416 1.2797 1.1968
C5 C 0.5729(11) 1.3361(11) 1.2102(8)
H21 H 0.5812 1.3147 1.1829
H22 H 0.5177 1.3849 1.2086
C6 C 0.6426(10) 1.3652(11) 1.2171(8)
H23 H 0.6479 1.4096 1.1923
H24 H 0.6310 1.3922 1.2428
Pd4 Pd 0.66861(6) 0.61761(7) 1.31494(4)
N7 N 0.5406(6) 0.6376(7) 1.3144(4)
N8 N 0.6748(8) 0.5013(8) 1.3492(5)
C7 C 0.516(2) 0.557(2) 1.3241(12)
H25 H 0.5242 0.5287 1.2990
H26 H 0.4553 0.5702 1.3337
C8 C 0.582(3) 0.498(3) 1.3625(13)
H27 H 0.5646 0.5199 1.3893
H28 H 0.5828 0.4367 1.3673
Pd5 Pd 0.71434(7) 1.00867(7) 1.06130(4)
N9 N 0.5951(11) 1.0888(10) 1.0471(6)
H33 H 0.5633 1.0594 1.0380
H34 H 0.5691 1.1094 1.0710
N10 N 0.7502(12) 1.1041(9) 1.0252(5)
H35 H 0.7916 1.1150 1.0389
H36 H 0.7720 1.0891 0.9996
C11 C 0.5983(14) 1.1625(15) 1.0130(7)
H37 H 0.5999 1.1462 0.9848
H38 H 0.5460 1.2135 1.0143
C12 C 0.6694(15) 1.1834(16) 1.0181(8)
H39 H 0.6609 1.2130 1.0428
H40 H 0.6770 1.2247 0.9924
Pd7 Pd 1.1951(6) 0.5426(6) 1.4479(3)
N13 N 1.1623(19) 0.4433(17) 1.4882(9)
H49 H 1.1471 0.4592 1.5143
H50 H 1.1147 0.4379 1.4771
N14 N 1.3130(17) 0.474(2) 1.4719(10)
H51 H 1.3501 0.4626 1.4494
H52 H 1.3303 0.5079 1.4862
C15 C 1.240(3) 0.346(3) 1.4957(17)
H53 H 1.2491 0.3198 1.4699
H54 H 1.2278 0.3057 1.5205
C16 C 1.324(3) 0.378(3) 1.5051(17)
H55 H 1.3236 0.3856 1.5352
H56 H 1.3796 0.3342 1.4998
N18 N 1.2860(6) 0.4061(6) 1.2166(4)
N19 N 1.2795(6) 0.7698(6) 1.2221(3)
N20 N 1.2489(10) 0.6172(12) 1.4073(5)
N21 N 1.0795(10) 0.6010(11) 1.4259(5)
N22 N 0.8012(7) 0.5824(6) 1.3179(4)
N23 N 1.1243(7) 0.3791(7) 1.2375(4)
N24 N 0.6612(8) 1.0949(7) 1.2955(4)
N25 N 0.6557(6) 0.7376(7) 1.2793(4)
N26 N 0.6737(7) 0.9139(7) 1.0973(3)
N27 N 0.8376(7) 0.9334(8) 1.0746(3)
N28 N 1.1354(5) 0.9133(6) 1.1825(3)
N29 N 0.8214(7) 1.1225(7) 1.2714(4)
O5 O 1.3452(9) 0.4826(8) 1.0233(4)
O6 O 1.3182(7) 0.4225(7) 1.0901(3)
O7 O 1.0380(6) 0.4031(8) 1.1182(3)
O8 O 0.9490(8) 0.4654(9) 1.0636(4)
O9 O 0.6751(6) 0.6951(7) 1.0529(3)
O10 O 0.5967(7) 0.6787(9) 1.0042(4)
O11 O 0.9977(9) 0.2925(10) 1.0426(5)
O12 O 1.0482(7) 0.2854(8) 0.9770(4)
C19 C 1.3106(10) 0.4384(11) 1.0483(6)
C20 C 1.3741(9) 0.4588(10) 1.1081(5)
H65 H 1.3709 0.5164 1.0909
H66 H 1.4346 0.4196 1.1088
C21 C 1.3426(8) 0.4673(8) 1.1518(5)
C22 C 1.3389(8) 0.5365(8) 1.1705(4)
H67 H 1.3590 0.5811 1.1549
C23 C 1.3071(7) 0.5427(8) 1.2105(4)
C24 C 1.2822(7) 0.4754(8) 1.2324(4)
H68 H 1.2608 0.4784 1.2605
C25 C 1.3141(9) 0.4031(9) 1.1764(5)
H69 H 1.3146 0.3551 1.1644
C26 C 1.2989(7) 0.6194(7) 1.2300(4)
C27 C 1.3000(8) 0.6141(8) 1.2750(4)
H70 H 1.3095 0.5592 1.2935
C28 C 1.2876(7) 0.6857(8) 1.2919(4)
C29 C 1.2788(7) 0.7626(7) 1.2640(4)
H71 H 1.2718 0.8132 1.2754
C30 C 1.2888(7) 0.6988(8) 1.2051(4)
H72 H 1.2884 0.7046 1.1749
C31 C 1.2860(8) 0.6797(9) 1.3384(4)
C32 C 1.3129(12) 0.7355(12) 1.3574(5)
H73 H 1.3367 0.7755 1.3400
C33 C 1.3058(16) 0.7339(15) 1.3997(6)
H74 H 1.3193 0.7755 1.4120
C34 C 1.2788(16) 0.6708(17) 1.4246(6)
H75 H 1.2809 0.6639 1.4547
C35 C 1.2541(9) 0.6227(11) 1.3648(4)
H76 H 1.2345 0.5849 1.3526
C36 C 1.0317(15) 0.6658(16) 1.4459(7)
H77 H 1.0557 0.6800 1.4684
C37 C 0.9512(17) 0.7091(14) 1.4336(7)
H78 H 0.9192 0.7557 1.4473
C38 C 0.9103(14) 0.6902(13) 1.4015(6)
H79 H 0.8524 0.7230 1.3933
C39 C 0.9581(10) 0.6219(11) 1.3825(5)
C40 C 1.0434(10) 0.5786(12) 1.3948(4)
H80 H 1.0773 0.5324 1.3812
C41 C 0.9219(9) 0.5937(9) 1.3488(5)
C42 C 0.9734(8) 0.5486(9) 1.3184(4)
H81 H 1.0340 0.5356 1.3188
C43 C 0.9369(8) 0.5231(8) 1.2881(4)
C44 C 0.8490(7) 0.5419(8) 1.2884(4)
H82 H 0.8224 0.5257 1.2675
C45 C 0.8330(9) 0.6121(9) 1.3468(5)
H83 H 0.7957 0.6451 1.3657
C46 C 0.9896(8) 0.4727(8) 1.2567(4)
C47 C 0.9547(8) 0.4747(9) 1.2182(4)
H84 H 0.8969 0.5094 1.2109
C48 C 1.0080(9) 0.4233(9) 1.1898(5)
C49 C 1.0908(9) 0.3784(9) 1.2013(5)
H85 H 1.1267 0.3445 1.1824
C50 C 1.0741(8) 0.4229(8) 1.2651(4)
H86 H 1.0977 0.4198 1.2919
C51 C 0.9692(9) 0.4212(11) 1.1486(5)
H87 H 0.9420 0.3754 1.1533
H88 H 0.9248 0.4780 1.1380
C52 C 1.0192(10) 0.4236(11) 1.0778(6)
C53 C 1.0976(9) 0.4010(10) 1.0506(5)
C54 C 1.1659(10) 0.4263(10) 1.0594(5)
C55 C 0.6261(10) 1.0987(11) 1.3323(6)
H89 H 0.6198 1.1479 1.3446
C56 C 0.5968(13) 1.0326(13) 1.3548(6)
H90 H 0.5739 1.0364 1.3826
C57 C 0.6006(10) 0.9629(10) 1.3374(5)
H91 H 0.5800 0.9183 1.3525
C58 C 0.6354(8) 0.9595(8) 1.2972(4)
C59 C 0.6651(8) 1.0254(9) 1.2774(5)
H92 H 0.6897 1.0228 1.2498
C60 C 0.6408(7) 0.8869(8) 1.2742(4)
C61 C 0.6513(8) 0.8025(8) 1.2996(4)
H93 H 0.6549 0.7926 1.3298
C62 C 0.6547(7) 0.7502(8) 1.2375(5)
H94 H 0.6620 0.7016 1.2245
C63 C 0.6439(7) 0.8292(8) 1.2115(4)
C64 C 0.6356(7) 0.8981(8) 1.2317(4)
H95 H 0.6259 0.9546 1.2149
C65 C 0.6441(7) 0.8405(8) 1.1644(4)
C66 C 0.6197(8) 0.7831(8) 1.1435(4)
H96 H 0.6031 0.7367 1.1598
C67 C 0.6208(9) 0.7966(9) 1.0988(4)
C68 C 0.6510(9) 0.8606(10) 1.0775(4)
H97 H 0.6562 0.8678 1.0473
C69 C 0.6689(8) 0.9050(8) 1.1390(4)
H98 H 0.6832 0.9449 1.1521
C70 C 0.5963(10) 0.7376(11) 1.0754(5)
H99 H 0.5777 0.6938 1.0957
H100 H 0.5490 0.7716 1.0549
C71 C 0.6652(11) 0.6711(11) 1.0204(6)
C72 C 0.7488(9) 0.6380(9) 0.9964(5)
C73 C 1.2418(10) 0.4055(10) 1.0362(5)
C74 C 0.8198(11) 0.6607(12) 1.0054(5)
C75 C 1.1058(10) 0.3574(10) 1.0187(5)
C76 C 1.0445(11) 0.3080(13) 1.0150(6)
C77 C 0.9898(11) 0.2413(12) 0.9684(7)
H101 H 0.9370 0.2842 0.9540
H102 H 0.9731 0.2100 0.9954
C78 C 1.0348(10) 0.1803(11) 0.9411(5)
C79 C 0.9927(9) 0.1667(9) 0.9074(5)
H103 H 0.9342 0.2006 0.9010
C80 C 1.0371(9) 0.1028(9) 0.8831(5)
C81 C 0.8802(8) 0.9452(8) 1.1053(4)
H104 H 0.8507 0.9905 1.1203
C82 C 0.8788(10) 0.8713(10) 1.0528(5)
H105 H 0.8474 0.8615 1.0315
C83 C 0.9934(8) 0.0843(8) 0.8481(4)
C84 C 1.0935(9) 0.8955(9) 1.1523(5)
H106 H 1.1262 0.8677 1.1306
C85 C 1.0910(8) 0.9547(8) 1.2103(5)
H107 H 1.1202 0.9701 1.2305
C86 C 1.0004(8) 0.9788(8) 1.2125(4)
C87 C 1.0417(8) 0.0422(8) 0.8161(4)
H108 H 1.1024 0.0289 0.8147
C88 C 0.9521(8) 1.0271(8) 1.2463(5)
C89 C 0.9931(9) 1.0247(10) 1.2851(5)
H109 H 1.0525 0.9926 1.2898
C90 C 0.9450(12) 1.0696(12) 1.3156(6)
H110 H 0.9698 1.0655 1.3423
C91 C 0.8622(11) 1.1193(10) 1.3065(5)
H111 H 0.8313 1.1539 1.3264
C92 C 0.8656(8) 1.0779(8) 1.2417(4)
H112 H 0.8364 1.0813 1.2164
C83A C 1.0066(8) 0.9157(8) 1.1519(4)
C80A C 0.9629(9) 0.8972(9) 1.1169(5)
C79A C 1.0073(9) 0.8333(9) 1.0926(5)
C78A C 0.9652(10) 0.8197(11) 1.0589(5)
C77A C 1.0102(11) 0.7587(12) 1.0316(7)
O12A O 0.9518(7) 0.7146(8) 1.0230(4)
C76A C 0.9555(11) 0.6920(13) 0.9850(6)
O11A O 1.0023(9) 0.7075(10) 0.9574(5)
C75A C 0.8942(10) 0.6426(10) 0.9813(5)
C53A C 0.9024(9) 0.5990(10) 0.9494(5)
C52A C 0.9808(10) 0.5764(11) 0.9222(6)
O7A O 0.9620(6) 0.5969(8) 0.8818(3)
C51A C 1.0308(9) 0.5788(11) 0.8514(5)
C48A C 0.9920(9) 0.5767(9) 0.8102(5)
C47A C 1.0453(8) 0.5253(9) 0.7818(4)
C46A C 1.0104(8) 0.5273(8) 0.7433(4)
C43A C 1.0631(8) 0.4769(8) 0.7119(4)
C42A C 1.0266(8) 0.4514(9) 0.6816(4)
C41A C 1.0781(9) 0.4063(9) 0.6512(5)
C39A C 1.0419(10) 0.3781(11) 0.6175(5)
C38A C 1.0897(14) 0.3098(13) 0.5985(6)
C37A C 1.0488(17) 0.2909(14) 0.5664(7)
C36A C 0.9683(15) 0.3342(16) 0.5541(7)
N21A N 0.9205(10) 0.3990(11) 0.5741(5)
Pd7A Pd 0.8049(6) 0.4574(6) 0.5521(3)
N13A N 0.8377(19) 0.5567(17) 0.5118(9)
H49A H 0.8529 0.5408 0.4857
H50A H 0.8853 0.5621 0.5229
C15A C 0.760(3) 0.654(3) 0.5043(17)
H53A H 0.7509 0.6802 0.5301
H54A H 0.7722 0.6943 0.4795
C16A C 0.676(3) 0.622(3) 0.4949(17)
N14A N 0.6870(17) 0.526(2) 0.5281(10)
N20A N 0.7511(10) 0.3828(12) 0.5927(5)
C34A C 0.7212(16) 0.3292(17) 0.5754(6)
C33A C 0.6942(16) 0.2661(15) 0.6003(6)
C32A C 0.6871(12) 0.2645(12) 0.6426(5)
C31A C 0.7140(8) 0.3203(9) 0.6616(4)
C28A C 0.7124(7) 0.3143(8) 0.7081(4)
C27A C 0.7000(8) 0.3859(8) 0.7250(4)
C26A C 0.7011(7) 0.3806(7) 0.7700(4)
C23A C 0.6929(7) 0.4573(8) 0.7895(4)
C22A C 0.6611(8) 0.4635(8) 0.8295(4)
C21A C 0.6574(8) 0.5327(8) 0.8482(5)
C20A C 0.6259(9) 0.5412(10) 0.8919(5)
O6A O 0.6818(7) 0.5775(7) 0.9099(3)
C19A C 0.6894(10) 0.5616(11) 0.9517(6)
O5A O 0.6548(9) 0.5174(8) 0.9767(4)
C73A C 0.7582(10) 0.5945(10) 0.9638(5)
C54A C 0.8341(10) 0.5737(10) 0.9406(5)
H65A H 0.6291 0.4836 0.9091
H66A H 0.5654 0.5804 0.8912
C25A C 0.6859(9) 0.5969(9) 0.8236(5)
N18A N 0.7140(6) 0.5939(6) 0.7834(4)
Pd2A Pd 0.75170(6) 0.68985(6) 0.74684(4)
N3A N 0.6287(7) 0.7586(8) 0.7302(5)
H9A H 0.5987 0.7797 0.7532
H10A H 0.6028 0.7236 0.7215
C3A C 0.6282(13) 0.8365(14) 0.6927(11)
H13A H 0.5746 0.8862 0.6937
H14A H 0.6302 0.8182 0.6649
C4A C 0.7033(15) 0.8628(13) 0.6970(11)
N4A N 0.7814(8) 0.7917(8) 0.7105(5)
N23A N 0.8757(7) 0.6209(7) 0.7625(4)
C49A C 0.9092(9) 0.6216(9) 0.7987(5)
H85A H 0.8733 0.6555 0.8176
C50A C 0.9259(8) 0.5771(8) 0.7349(4)
H86A H 0.9023 0.5802 0.7081
H11A H 0.8124 0.7745 0.6870
H12A H 0.8148 0.8097 0.7261
H15A H 0.6895 0.9022 0.7178
H16A H 0.7139 0.8963 0.6691
C24A C 0.7178(7) 0.5246(8) 0.7676(4)
H68A H 0.7392 0.5216 0.7395
H69A H 0.6854 0.6449 0.8356
H67A H 0.6410 0.4189 0.8451
C30A C 0.7112(7) 0.3012(8) 0.7949(4)
N19A N 0.7205(6) 0.2302(6) 0.7779(3)
Pd1A Pd 0.73589(6) 0.11327(6) 0.81777(4)
N1A N 0.6053(9) 0.1377(8) 0.8181(6)
H1A H 0.5867 0.1378 0.7916
H2A H 0.5767 0.1909 0.8254
C1A C 0.5894(13) 0.0669(14) 0.8502(13)
H5A H 0.5411 0.0532 0.8400
H6A H 0.5705 0.0891 0.8770
C2A C 0.6593(10) -0.0113(10) 0.8600(8)
N2A N 0.7452(9) 0.0005(8) 0.8578(5)
N28A N 0.8646(5) 0.0867(6) 0.8175(3)
C84A C 0.9065(9) 0.1045(9) 0.8477(5)
C74A C 1.1802(11) 0.3393(12) 0.9946(5)
C72A C 1.2512(9) 0.3620(9) 1.0036(5)
C71A C 1.3348(11) 0.3289(11) 0.9796(6)
O9A O 1.3249(6) 0.3049(7) 0.9471(3)
C70A C 1.4037(10) 0.2624(11) 0.9246(5)
C67A C 1.3792(9) 0.2034(9) 0.9012(4)
C66A C 1.3803(8) 0.2169(8) 0.8565(4)
C65A C 1.3559(7) 0.1595(8) 0.8356(4)
C63A C 1.3561(7) 0.1708(8) 0.7885(4)
C62A C 1.3453(7) 0.2498(8) 0.7625(5)
N25A N 1.3443(6) 0.2624(7) 0.7207(4)
Pd4A Pd 1.33139(6) 0.38239(7) 0.68506(4)
N7A N 1.4594(6) 0.3624(7) 0.6856(4)
C7A C 1.484(2) 0.443(2) 0.6759(12)
H25A H 1.4758 0.4713 0.7010
H26A H 1.5447 0.4298 0.6663
C8A C 1.418(3) 0.502(3) 0.6375(13)
N8A N 1.3252(8) 0.4987(8) 0.6508(5)
N22A N 1.1988(7) 0.4176(6) 0.6821(4)
C44A C 1.1510(7) 0.4581(8) 0.7116(4)
H82A H 1.1776 0.4743 0.7325
C45A C 1.1670(9) 0.3879(9) 0.6532(5)
H83A H 1.2043 0.3549 0.6343
H27A H 1.4354 0.4801 0.6107
H28A H 1.4172 0.5633 0.6327
C61A C 1.3487(8) 0.1975(8) 0.7004(4)
C60A C 1.3592(7) 0.1131(8) 0.7258(4)
C58A C 1.3646(8) 0.0405(8) 0.7028(4)
C57A C 1.3994(10) 0.0371(10) 0.6626(5)
C56A C 1.4032(13) -0.0326(13) 0.6452(6)
C55A C 1.3739(10) -0.0987(11) 0.6677(6)
N24A N 1.3388(8) -0.0949(7) 0.7045(4)
Pd3A Pd 1.30440(7) -0.19206(7) 0.73978(4)
N5A N 1.4292(8) -0.2643(8) 0.7535(5)
H17A H 1.4582 -0.2309 0.7612
H18A H 1.4560 -0.2867 0.7302
C5A C 1.4271(11) -0.3361(11) 0.7898(8)
H21A H 1.4188 -0.3147 0.8171
H22A H 1.4823 -0.3849 0.7914
C6A C 1.3574(10) -0.3652(11) 0.7829(8)
N6A N 1.2791(8) -0.2935(8) 0.7772(5)
N29A N 1.1786(7) -0.1225(7) 0.7286(4)
C91A C 1.1378(11) -0.1193(10) 0.6935(5)
C90A C 1.0550(12) -0.0696(12) 0.6844(6)
C89A C 1.0069(9) -0.0247(10) 0.7149(5)
C88A C 1.0479(8) -0.0271(8) 0.7537(5)
C86A C 0.9996(8) 0.0212(8) 0.7875(4)
C85A C 0.9090(8) 0.0453(8) 0.7897(5)
H107A H 0.8798 0.0299 0.7695
C92A C 1.1344(8) -0.0779(8) 0.7583(4)
H112A H 1.1636 -0.0813 0.7836
H109A H 0.9475 0.0074 0.7102
H110A H 1.0302 -0.0655 0.6577
H111A H 1.1687 -0.1539 0.6736
H19A H 1.2383 -0.3073 0.7646
H20A H 1.2584 -0.2797 0.8032
H23A H 1.3521 -0.4096 0.8077
H24A H 1.3690 -0.3922 0.7572
C59A C 1.3349(8) -0.0254(9) 0.7226(5)
H92A H 1.3103 -0.0228 0.7502
H89A H 1.3802 -0.1479 0.6554
H90A H 1.4261 -0.0364 0.6174
H91A H 1.4200 0.0817 0.6475
C64A C 1.3644(7) 0.1019(8) 0.7683(4)
H95A H 1.3741 0.0454 0.7851
H93A H 1.3451 0.2074 0.6702
H94A H 1.3380 0.2984 0.7755
C69A C 1.3311(8) 0.0950(8) 0.8610(4)
N26A N 1.3263(7) 0.0861(7) 0.9027(3)
Pd5A Pd 1.28566(7) -0.00867(7) 0.93870(4)
N9A N 1.4049(11) -0.0888(10) 0.9529(6)
H33A H 1.4367 -0.0594 0.9620
H34A H 1.4309 -0.1094 0.9290
C11A C 1.4017(14) -0.1625(15) 0.9870(7)
H37A H 1.4001 -0.1462 1.0152
H38A H 1.4540 -0.2135 0.9857
C12A C 1.3306(15) -0.1834(16) 0.9819(8)
N10A N 1.2498(12) -0.1041(9) 0.9748(5)
N27A N 1.1624(7) 0.0666(8) 0.9254(3)
C81A C 1.1198(8) 0.0548(8) 0.8947(4)
H104A H 1.1493 0.0095 0.8797
C82A C 1.1212(10) 0.1287(10) 0.9472(5)
H105A H 1.1526 0.1385 0.9685
H35A H 1.2084 -0.1150 0.9611
H36A H 1.2280 -0.0891 1.0004
H39A H 1.3391 -0.2130 0.9572
H40A H 1.3230 -0.2247 1.0076
C68A C 1.3490(9) 0.1394(10) 0.9225(4)
H97A H 1.3438 0.1322 0.9527
H98A H 1.3168 0.0551 0.8479
H96A H 1.3969 0.2633 0.8402
H99A H 1.4223 0.3062 0.9043
H100A H 1.4510 0.2284 0.9451
O10A O 1.4033(7) 0.3213(9) 0.9958(4)
H106A H 0.8738 0.1323 0.8694
H3A H 0.7616 0.0020 0.8845
H4A H 0.7858 -0.0451 0.8481
H7A H 0.6512 -0.0417 0.8891
H8A H 0.6587 -0.0493 0.8399
C29A C 0.7212(7) 0.2374(7) 0.7360(4)
H71A H 0.7282 0.1868 0.7246
H72A H 0.7116 0.2954 0.8251
H70A H 0.6905 0.4408 0.7065
C35A C 0.7459(9) 0.3773(11) 0.6352(4)
H76A H 0.7655 0.4151 0.6474
H73A H 0.6633 0.2245 0.6600
H74A H 0.6807 0.2245 0.5880
H75A H 0.7191 0.3361 0.5453
H51A H 0.6499 0.5374 0.5506
H52A H 0.6697 0.4921 0.5138
H55A H 0.6764 0.6144 0.4648
H56A H 0.6204 0.6658 0.5002
C40A C 0.9566(10) 0.4214(12) 0.6052(4)
H80A H 0.9227 0.4676 0.6188
H77A H 0.9443 0.3200 0.5316
H78A H 1.0808 0.2443 0.5527
H79A H 1.1476 0.2770 0.6067
H81A H 0.9660 0.4644 0.6812
H84A H 1.1031 0.4906 0.7891
H87A H 1.0580 0.6246 0.8467
H88A H 1.0752 0.5220 0.8620
O8A O 1.0510(8) 0.5346(9) 0.9364(4)
H101A H 1.0630 0.7158 1.0460
H102A H 1.0269 0.7900 1.0046
H103A H 1.0658 0.7994 1.0990
C87A C 0.9583(8) 0.9578(8) 1.1839(4)
H108A H 0.8976 0.9711 1.1853
Pd8 Pd 1.33619(10) 0.51933(11) 0.89524(6)
N15 N 1.2150(9) 0.5787(12) 0.9067(6)
H57 H 1.1918 0.6242 0.8846
H58 H 1.1846 0.5405 0.9091
N16 N 1.3528(12) 0.5850(12) 0.9352(7)
H59 H 1.3743 0.5469 0.9602
H60 H 1.3939 0.6096 0.9244
C17 C 1.2081(17) 0.6124(19) 0.9478(10)
H61 H 1.1501 0.6550 0.9504
H62 H 1.2183 0.5639 0.9727
C18 C 1.2752(15) 0.6549(17) 0.9456(10)
H63 H 1.2621 0.7078 0.9230
H64 H 1.2816 0.6702 0.9733
O1 O 1.4618(9) 0.4722(10) 0.8862(5)
N17 N 1.2646(8) 0.4675(9) 0.8247(5)
O2 O 1.3189(9) 0.4393(9) 0.8564(6)
O3 O 1.2668(10) 0.4235(9) 0.8015(6)
O4 O 1.2163(8) 0.5451(8) 0.8207(4)
C93 C 0.9647(16) 0.6984(16) 1.1941(7)
C94 C 1.035(2) 0.6575(17) 1.1688(9)
H113 H 1.0904 0.6519 1.1777
C95 C 1.031(2) 0.625(2) 1.1329(10)
H114 H 1.0821 0.6002 1.1182
C96 C 0.953(2) 0.628(2) 1.1184(11)
H115 H 0.9516 0.6024 1.0946
C97 C 0.878(2) 0.668(2) 1.1377(11)
H116 H 0.8227 0.6757 1.1278
C98 C 0.893(2) 0.697(2) 1.1736(11)
H117 H 0.8405 0.7218 1.1878
C99 C 0.9661(12) 0.7321(12) 1.2317(6)
C100 C 1.0391(16) 0.7180(17) 1.2554(8)
H118 H 1.0921 0.6810 1.2463
C101 C 1.042(2) 0.7519(17) 1.2903(8)
H119 H 1.0934 0.7416 1.3052
C102 C 0.960(2) 0.804(2) 1.3023(10)
C103 C 0.889(2) 0.823(2) 1.2804(9)
H120 H 0.8362 0.8608 1.2895
C104 C 0.8895(16) 0.7898(18) 1.2456(9)
H121 H 0.8378 0.8052 1.2299
C105 C 0.9660(16) 0.8404(16) 1.3401(8)
O13 O 0.898(2) 0.892(3) 1.3523(14)
O14 O 1.040(2) 0.815(3) 1.3568(14)
O17 O 1.1796(16) 0.1329(16) 1.2124(8)
O18 O 0.781(2) 0.367(2) 1.2984(11)
O19 O 1.451(3) 0.601(3) 0.9766(14)
O21 O 1.432(3) 0.639(3) 1.0679(15)
O22 O 0.801(3) 0.275(3) 1.3865(12)
O23 O 0.5501(12) 1.2896(12) 1.0994(6)
O26 O 1.135(3) 0.188(3) 1.1028(13)
O27 O 1.4072(17) 0.2096(17) 1.0935(8)
O28 O 0.690(2) 0.289(2) 1.3401(11)
O30 O 1.2500(11) 0.2418(11) 1.1492(5)
O31 O 0.8491(14) 1.2555(14) 1.1529(7)
O32 O 0.4866(13) 0.2037(13) 1.4227(6)
O34 O 1.2185(17) 0.1420(17) 1.0361(8)
O35 O 0.658(3) 0.726(3) 1.4034(12)
O40 O 1.2746(14) 0.0244(15) 1.4028(7)
O41 O 0.612(3) 0.826(3) 1.4415(13)
N30 N 0.5003(9) 1.6370(9) 1.1998(4)
O42 O 0.4777(10) 1.6617(9) 1.1631(4)
O43 O 0.4963(8) 1.6882(8) 1.2226(4)
O44 O 0.5177(10) 1.5580(9) 1.2151(5)
N31 N 1.4374(17) -0.1323(19) 1.3008(9)
O45 O 1.4251(18) -0.0507(19) 1.2794(10)
O46 O 1.4365(13) -0.1748(13) 1.2791(6)
O47 O 1.4634(14) -0.1651(14) 1.3359(7)
N32 N 1.4138(15) 0.0442(15) 1.0326(7)
O48 O 1.474(2) 0.003(2) 1.0526(11)
O49 O 1.362(2) 0.008(2) 1.0244(10)
O50 O 1.3843(12) 0.1293(12) 1.0282(6)
N33 N 1.4835(12) 0.1292(11) 1.1916(6)
O51 O 1.5305(16) 0.1117(16) 1.2218(7)
O52 O 1.4977(12) 0.0857(12) 1.1643(6)
O53 O 1.4480(13) 0.2098(11) 1.1841(6)
N34 N 0.4444(12) 0.3730(13) 1.3260(7)
O54 O 0.4204(12) 0.4211(12) 1.3534(6)
O55 O 0.4368(15) 0.4007(15) 1.2885(7)
O56 O 0.4796(12) 0.2885(13) 1.3388(6)
N35 N 0.9774(19) 0.432(2) 1.4551(10)
O57 O 0.902(2) 0.460(3) 1.4445(15)
O58 O 1.028(2) 0.372(2) 1.4416(12)
O59 O 0.994(3) 0.460(3) 1.4855(14)
N36 N 0.9261(17) 1.125(2) 1.0790(8)
O60 O 0.8550(19) 1.158(3) 1.0920(14)
O61 O 0.935(2) 1.099(3) 1.0454(10)
O62 O 0.9839(18) 1.110(2) 1.1052(9)
N37 N 0.9863(15) 0.2298(18) 1.2323(8)
O63 O 1.0377(17) 0.224(2) 1.2596(9)
O64 O 1.0171(19) 0.209(2) 1.1989(9)
O65 O 0.9123(14) 0.2761(17) 1.2389(8)
N39 N 1.2210(10) 0.4103(11) 1.3515(5)
O69 O 1.2242(15) 0.4042(15) 1.3888(7)
O70 O 1.2605(15) 0.3453(16) 1.3400(7)
O71 O 1.1913(7) 0.4830(8) 1.3284(3)
N40 N 1.300(2) 0.813(3) 1.0895(10)
O72 O 1.243(3) 0.881(3) 1.0748(16)
O73 O 1.371(3) 0.815(3) 1.0964(17)
O74 O 1.277(4) 0.748(3) 1.0957(19)
N42 N 0.7025(15) 1.1117(14) 1.1567(7)
O78 O 0.6659(19) 1.1150(16) 1.1246(7)
O79 O 0.6987(18) 1.1763(14) 1.1713(8)
O80 O 0.742(2) 1.0366(15) 1.1755(10)
N44 N 1.205(2) -0.017(3) 1.3323(12)
O84 O 1.248(4) -0.068(4) 1.3617(15)
O85 O 1.153(3) 0.048(3) 1.3410(14)
O86 O 1.219(2) -0.037(2) 1.2965(12)
C9? C 0.519(2) 0.569(2) 1.3438(13)
H29? H 0.4593 0.5711 1.3393
H30? H 0.5261 0.5718 1.3739
C10? C 0.590(2) 0.483(2) 1.3302(11)
H31? H 0.5923 0.4856 1.2990
H32? H 0.5817 0.4281 1.3452
Pd6? Pd 1.2114(6) 0.5122(6) 1.4405(3)
N11? N 1.1649(19) 0.4155(19) 1.4741(9)
H41? H 1.1071 0.4373 1.4797
H42? H 1.1749 0.3703 1.4597
N12? N 1.3340(16) 0.435(2) 1.4518(10)
H43? H 1.3605 0.4154 1.4277
H44? H 1.3659 0.4614 1.4630
C13? C 1.223(3) 0.385(4) 1.5181(12)
H45? H 1.2132 0.3363 1.5385
H46? H 1.2196 0.4339 1.5324
C14? C 1.315(4) 0.354(3) 1.4880(17)
H47? H 1.3652 0.3271 1.5076
H48? H 1.3114 0.3091 1.4729
C106? C 0.968(2) 0.757(2) 1.2573(10)
C107? C 1.039(3) 0.700(3) 1.2388(14)
H122? H 1.0930 0.6855 1.2526
C108? C 1.042(3) 0.662(3) 1.2039(16)
H123? H 1.0950 0.6219 1.1961
C109? C 0.968(2) 0.682(3) 1.1804(13)
H124? H 0.9699 0.6632 1.1540
C110? C 0.892(3) 0.729(4) 1.1966(17)
H125? H 0.8380 0.7360 1.1854
C111? C 0.899(3) 0.767(4) 1.2303(15)
H126? H 0.8469 0.8088 1.2367
C112? C 0.962(2) 0.797(2) 1.2933(11)
C113? C 1.032(3) 0.791(3) 1.3169(13)
H127? H 1.0875 0.7583 1.3082
C114? C 1.029(3) 0.828(3) 1.3513(14)
H128? H 1.0792 0.8215 1.3666
C115? C 0.945(2) 0.879(3) 1.3628(12)
C116? C 0.877(3) 0.887(4) 1.3410(15)
H129? H 0.8221 0.9229 1.3487
C117? C 0.883(3) 0.846(3) 1.3085(14)
H130? H 0.8310 0.8510 1.2951
C118? C 0.941(3) 0.916(2) 1.4017(11)
O15? O 0.868(3) 0.957(5) 1.415(2)
O16? O 1.013(3) 0.903(5) 1.419(2)
O20? O 1.471(2) 0.582(2) 1.0245(10)
O24? O 1.184(2) 0.975(2) 1.0580(9)
O25? O 1.473(3) 0.086(2) 1.2357(12)
O29? O 0.710(3) 0.235(4) 1.3706(19)
O33? O 1.469(4) -0.033(4) 1.0357(19)
O36? O 0.639(4) 0.687(4) 1.4010(17)
O37? O 0.681(2) 0.761(2) 1.4036(9)
O38? O 1.2360(12) -0.0316(12) 1.2726(7)
O39? O 1.418(2) -0.055(2) 1.2474(11)
N38? N 0.940(3) 0.287(4) 1.2921(16)
O66? O 1.014(2) 0.250(3) 1.2818(14)
O67? O 0.926(4) 0.311(4) 1.3260(16)
O68? O 0.887(3) 0.307(5) 1.2629(19)
N41? N 1.2505(15) 0.6830(15) 1.0824(7)
O75? O 1.2160(19) 0.637(2) 1.0711(9)
O76? O 1.3213(17) 0.686(2) 1.0721(9)
O77? O 1.2113(14) 0.7165(14) 1.1126(6)
N43? N 0.7081(17) 1.1067(15) 1.1602(8)
O81? O 0.727(2) 1.123(2) 1.1232(8)
O82? O 0.657(2) 1.1666(19) 1.1755(9)
O83? O 0.744(2) 1.0339(16) 1.1821(11)
loop_
_geom_bond_atom_site_label_1
_geom_bond_atom_site_label_2
_geom_bond_site_symmetry_1
_geom_bond_site_symmetry_2
Pd1 N1 1_555 1_555
N1 H1 1_555 1_555
H2 N1 1_555 1_555
N2 Pd1 1_555 1_555
H3 N2 1_555 1_555
H4 N2 1_555 1_555
C1 N1 1_555 1_555
H5 C1 1_555 1_555
H6 C1 1_555 1_555
C2 N2 1_555 1_555
H7 C2 1_555 1_555
H8 C2 1_555 1_555
Pd2 N3 1_555 1_555
N3 H9 1_555 1_555
H10 N3 1_555 1_555
N4 Pd2 1_555 1_555
H11 N4 1_555 1_555
H12 N4 1_555 1_555
C3 N3 1_555 1_555
H13 C3 1_555 1_555
H14 C3 1_555 1_555
C4 N4 1_555 1_555
H15 C4 1_555 1_555
H16 C4 1_555 1_555
Pd3 N5 1_555 1_555
N5 H17 1_555 1_555
H18 N5 1_555 1_555
N6 Pd3 1_555 1_555
H19 N6 1_555 1_555
H20 N6 1_555 1_555
C5 N5 1_555 1_555
H21 C5 1_555 1_555
H22 C5 1_555 1_555
C6 N6 1_555 1_555
H23 C6 1_555 1_555
H24 C6 1_555 1_555
Pd4 N7 1_555 1_555
N7 C7 1_555 1_555
N8 Pd4 1_555 1_555
C7 H25 1_555 1_555
H26 C7 1_555 1_555
C8 N8 1_555 1_555
H27 C8 1_555 1_555
H28 C8 1_555 1_555
Pd5 N9 1_555 1_555
N9 H33 1_555 1_555
H34 N9 1_555 1_555
N10 Pd5 1_555 1_555
H35 N10 1_555 1_555
H36 N10 1_555 1_555
C11 N9 1_555 1_555
H37 C11 1_555 1_555
H38 C11 1_555 1_555
C12 N10 1_555 1_555
H39 C12 1_555 1_555
H40 C12 1_555 1_555
Pd7 N13 1_555 1_555
N13 H49 1_555 1_555
H50 N13 1_555 1_555
N14 Pd7 1_555 1_555
H51 N14 1_555 1_555
H52 N14 1_555 1_555
C15 N13 1_555 1_555
H53 C15 1_555 1_555
H54 C15 1_555 1_555
C16 N14 1_555 1_555
H55 C16 1_555 1_555
H56 C16 1_555 1_555
Pd8 N15 1_555 1_555
N15 H57 1_555 1_555
H58 N15 1_555 1_555
N16 Pd8 1_555 1_555
H59 N16 1_555 1_555
H60 N16 1_555 1_555
C17 N15 1_555 1_555
H61 C17 1_555 1_555
H62 C17 1_555 1_555
C18 N16 1_555 1_555
H63 C18 1_555 1_555
H64 C18 1_555 1_555
O1 Pd8 1_555 1_555
N17 O2 1_555 1_555
O2 Pd8 1_555 1_555
O3 N17 1_555 1_555
O4 N17 1_555 1_555
N18 Pd2 1_555 1_555
N19 Pd1 1_555 1_555
N20 Pd7 1_555 1_555
N21 Pd7 1_555 1_555
N22 Pd4 1_555 1_555
N23 Pd2 1_555 1_555
N24 Pd3 1_555 1_555
N25 Pd4 1_555 1_555
N26 Pd5 1_555 1_555
N27 Pd5 1_555 1_555
N28 Pd1 1_555 1_555
N29 Pd3 1_555 1_555
O5 C19 1_555 1_555
O6 C19 1_555 1_555
O7 C51 1_555 1_555
O8 C52 1_555 1_555
O9 C70 1_555 1_555
O10 C71 1_555 1_555
O11 C76 1_555 1_555
O12 C76 1_555 1_555
C19 C73 1_555 1_555
C20 O6 1_555 1_555
H65 C20 1_555 1_555
H66 C20 1_555 1_555
C21 C20 1_555 1_555
C22 C21 1_555 1_555
H67 C22 1_555 1_555
C23 C22 1_555 1_555
C24 N18 1_555 1_555
H68 C24 1_555 1_555
C25 N18 1_555 1_555
H69 C25 1_555 1_555
C26 C23 1_555 1_555
C27 C26 1_555 1_555
H70 C27 1_555 1_555
C28 C27 1_555 1_555
C29 N19 1_555 1_555
H71 C29 1_555 1_555
C30 N19 1_555 1_555
H72 C30 1_555 1_555
C31 C28 1_555 1_555
C32 C31 1_555 1_555
H73 C32 1_555 1_555
C33 C32 1_555 1_555
H74 C33 1_555 1_555
C34 N20 1_555 1_555
H75 C34 1_555 1_555
C35 N20 1_555 1_555
H76 C35 1_555 1_555
C36 N21 1_555 1_555
H77 C36 1_555 1_555
C37 C36 1_555 1_555
H78 C37 1_555 1_555
C38 C37 1_555 1_555
H79 C38 1_555 1_555
C39 C38 1_555 1_555
C40 N21 1_555 1_555
H80 C40 1_555 1_555
C41 C39 1_555 1_555
C42 C41 1_555 1_555
H81 C42 1_555 1_555
C43 C42 1_555 1_555
C44 N22 1_555 1_555
H82 C44 1_555 1_555
C45 N22 1_555 1_555
H83 C45 1_555 1_555
C46 C43 1_555 1_555
C47 C46 1_555 1_555
H84 C47 1_555 1_555
C48 C47 1_555 1_555
C49 N23 1_555 1_555
H85 C49 1_555 1_555
C50 N23 1_555 1_555
H86 C50 1_555 1_555
C51 C48 1_555 1_555
H87 C51 1_555 1_555
H88 C51 1_555 1_555
C52 O7 1_555 1_555
C53 C52 1_555 1_555
C54 C53 1_555 1_555
C55 N24 1_555 1_555
H89 C55 1_555 1_555
C56 C55 1_555 1_555
H90 C56 1_555 1_555
C57 C56 1_555 1_555
H91 C57 1_555 1_555
C58 C57 1_555 1_555
C59 N24 1_555 1_555
H92 C59 1_555 1_555
C60 C58 1_555 1_555
C61 N25 1_555 1_555
H93 C61 1_555 1_555
C62 N25 1_555 1_555
H94 C62 1_555 1_555
C63 C62 1_555 1_555
C64 C60 1_555 1_555
H95 C64 1_555 1_555
C65 C63 1_555 1_555
C66 C65 1_555 1_555
H96 C66 1_555 1_555
C67 C66 1_555 1_555
C68 N26 1_555 1_555
H97 C68 1_555 1_555
C69 N26 1_555 1_555
H98 C69 1_555 1_555
C70 C67 1_555 1_555
H99 C70 1_555 1_555
H100 C70 1_555 1_555
C71 O9 1_555 1_555
C72 C71 1_555 1_555
C73 C54 1_555 1_555
C74 C72 1_555 1_555
C75 C53 1_555 1_555
C76 C75 1_555 1_555
C77 O12 1_555 1_555
H101 C77 1_555 1_555
H102 C77 1_555 1_555
C78 C77 1_555 1_555
C79 C78 1_555 1_555
H103 C79 1_555 1_555
C80 C79 1_555 1_555
C81 N27 1_555 1_555
H104 C81 1_555 1_555
C82 N27 1_555 1_555
H105 C82 1_555 1_555
C83 C80 1_555 1_555
C84 N28 1_555 1_555
H106 C84 1_555 1_555
C85 N28 1_555 1_555
H107 C85 1_555 1_555
C86 C85 1_555 1_555
C87 C83 1_555 1_555
H108 C87 1_555 1_555
C88 C86 1_555 1_555
C89 C88 1_555 1_555
H109 C89 1_555 1_555
C90 C89 1_555 1_555
H110 C90 1_555 1_555
C91 N29 1_555 1_555
H111 C91 1_555 1_555
C92 N29 1_555 1_555
H112 C92 1_555 1_555
C93 C94 1_555 1_555
C94 H113 1_555 1_555
C95 C94 1_555 1_555
H114 C95 1_555 1_555
C96 C95 1_555 1_555
H115 C96 1_555 1_555
C97 C96 1_555 1_555
H116 C97 1_555 1_555
C98 C93 1_555 1_555
H117 C98 1_555 1_555
C99 C93 1_555 1_555
C100 C99 1_555 1_555
H118 C100 1_555 1_555
C101 C100 1_555 1_555
H119 C101 1_555 1_555
C102 C101 1_555 1_555
C103 C102 1_555 1_555
H120 C103 1_555 1_555
C104 C99 1_555 1_555
H121 C104 1_555 1_555
C105 C102 1_555 1_555
O13 C105 1_555 1_555
O14 C105 1_555 1_555
N30 O42 1_555 1_555
O43 N30 1_555 1_555
O44 N30 1_555 1_555
N31 O45 1_555 1_555
O46 N31 1_555 1_555
O47 N31 1_555 1_555
N32 O48 1_555 1_555
O49 N32 1_555 1_555
O50 N32 1_555 1_555
N33 O51 1_555 1_555
O52 N33 1_555 1_555
O53 N33 1_555 1_555
N34 O54 1_555 1_555
O55 N34 1_555 1_555
O56 N34 1_555 1_555
N35 O57 1_555 1_555
O58 N35 1_555 1_555
O59 N35 1_555 1_555
N36 O60 1_555 1_555
O61 N36 1_555 1_555
O62 N36 1_555 1_555
N37 O63 1_555 1_555
O64 N37 1_555 1_555
O65 N37 1_555 1_555
N39 O69 1_555 1_555
O70 N39 1_555 1_555
O71 N39 1_555 1_555
N40 O72 1_555 1_555
O73 N40 1_555 1_555
O74 N40 1_555 1_555
N42 O78 1_555 1_555
O79 N42 1_555 1_555
O80 N42 1_555 1_555
N44 O84 1_555 1_555
O85 N44 1_555 1_555
O86 N44 1_555 1_555
C83A C84 1_555 1_555
C80A C81 1_555 1_555
C79A C80A 1_555 1_555
C78A C82 1_555 1_555
C77A C78A 1_555 1_555
O12A C77A 1_555 1_555
C76A O12A 1_555 1_555
O11A C76A 1_555 1_555
C75A C74 1_555 1_555
C53A C75A 1_555 1_555
C52A C53A 1_555 1_555
O7A C52A 1_555 1_555
C51A O7A 1_555 1_555
C48A C51A 1_555 1_555
C47A C48A 1_555 1_555
C46A C47A 1_555 1_555
C43A C46A 1_555 1_555
C42A C43A 1_555 1_555
C41A C42A 1_555 1_555
C39A C41A 1_555 1_555
C38A C39A 1_555 1_555
C37A C38A 1_555 1_555
C36A C37A 1_555 1_555
N21A C36A 1_555 1_555
Pd7A N21A 1_555 1_555
N13A Pd7A 1_555 1_555
H49A N13A 1_555 1_555
H50A N13A 1_555 1_555
C15A N13A 1_555 1_555
H53A C15A 1_555 1_555
H54A C15A 1_555 1_555
C16A C15A 1_555 1_555
N14A Pd7A 1_555 1_555
N20A Pd7A 1_555 1_555
C34A N20A 1_555 1_555
C33A C34A 1_555 1_555
C32A C33A 1_555 1_555
C31A C32A 1_555 1_555
C28A C31A 1_555 1_555
C27A C28A 1_555 1_555
C26A C27A 1_555 1_555
C23A C26A 1_555 1_555
C22A C23A 1_555 1_555
C21A C22A 1_555 1_555
C20A C21A 1_555 1_555
O6A C20A 1_555 1_555
C19A O6A 1_555 1_555
O5A C19A 1_555 1_555
C73A C72 1_555 1_555
C54A C53A 1_555 1_555
H65A C20A 1_555 1_555
H66A C20A 1_555 1_555
C25A C21A 1_555 1_555
N18A C25A 1_555 1_555
Pd2A N18A 1_555 1_555
N3A Pd2A 1_555 1_555
H9A N3A 1_555 1_555
H10A N3A 1_555 1_555
C3A N3A 1_555 1_555
H13A C3A 1_555 1_555
H14A C3A 1_555 1_555
C4A C3A 1_555 1_555
N4A Pd2A 1_555 1_555
N23A Pd2A 1_555 1_555
C49A C48A 1_555 1_555
H85A C49A 1_555 1_555
C50A C46A 1_555 1_555
H86A C50A 1_555 1_555
H11A N4A 1_555 1_555
H12A N4A 1_555 1_555
H15A C4A 1_555 1_555
H16A C4A 1_555 1_555
C24A C23A 1_555 1_555
H68A C24A 1_555 1_555
H69A C25A 1_555 1_555
H67A C22A 1_555 1_555
C30A C26A 1_555 1_555
N19A C30A 1_555 1_555
Pd1A N19A 1_555 1_555
N1A Pd1A 1_555 1_555
H1A N1A 1_555 1_555
H2A N1A 1_555 1_555
C1A N1A 1_555 1_555
H5A C1A 1_555 1_555
H6A C1A 1_555 1_555
C2A C1A 1_555 1_555
N2A Pd1A 1_555 1_555
N28A Pd1A 1_555 1_555
C84A C83 1_555 1_555
C74A C75 1_555 1_555
C72A C73 1_555 1_555
C71A C72A 1_555 1_555
O9A C71A 1_555 1_555
C70A O9A 1_555 1_555
C67A C70A 1_555 1_555
C66A C67A 1_555 1_555
C65A C66A 1_555 1_555
C63A C65A 1_555 1_555
C62A C63A 1_555 1_555
N25A C62A 1_555 1_555
Pd4A N25A 1_555 1_555
N7A Pd4A 1_555 1_555
C7A N7A 1_555 1_555
H25A C7A 1_555 1_555
H26A C7A 1_555 1_555
C8A C7A 1_555 1_555
N8A Pd4A 1_555 1_555
N22A Pd4A 1_555 1_555
C44A C43A 1_555 1_555
H82A C44A 1_555 1_555
C45A C41A 1_555 1_555
H83A C45A 1_555 1_555
H27A C8A 1_555 1_555
H28A C8A 1_555 1_555
C61A N25A 1_555 1_555
C60A C61A 1_555 1_555
C58A C60A 1_555 1_555
C57A C58A 1_555 1_555
C56A C57A 1_555 1_555
C55A C56A 1_555 1_555
N24A C55A 1_555 1_555
Pd3A N24A 1_555 1_555
N5A Pd3A 1_555 1_555
H17A N5A 1_555 1_555
H18A N5A 1_555 1_555
C5A N5A 1_555 1_555
H21A C5A 1_555 1_555
H22A C5A 1_555 1_555
C6A C5A 1_555 1_555
N6A Pd3A 1_555 1_555
N29A Pd3A 1_555 1_555
C91A N29A 1_555 1_555
C90A C91A 1_555 1_555
C89A C90A 1_555 1_555
C88A C89A 1_555 1_555
C86A C87 1_555 1_555
C85A N28A 1_555 1_555
H107A C85A 1_555 1_555
C92A N29A 1_555 1_555
H112A C92A 1_555 1_555
H109A C89A 1_555 1_555
H110A C90A 1_555 1_555
H111A C91A 1_555 1_555
H19A N6A 1_555 1_555
H20A N6A 1_555 1_555
H23A C6A 1_555 1_555
H24A C6A 1_555 1_555
C59A C58A 1_555 1_555
H92A C59A 1_555 1_555
H89A C55A 1_555 1_555
H90A C56A 1_555 1_555
H91A C57A 1_555 1_555
C64A C63A 1_555 1_555
H95A C64A 1_555 1_555
H93A C61A 1_555 1_555
H94A C62A 1_555 1_555
C69A C65A 1_555 1_555
N26A C69A 1_555 1_555
Pd5A N26A 1_555 1_555
N9A Pd5A 1_555 1_555
H33A N9A 1_555 1_555
H34A N9A 1_555 1_555
C11A N9A 1_555 1_555
H37A C11A 1_555 1_555
H38A C11A 1_555 1_555
C12A C11A 1_555 1_555
N10A Pd5A 1_555 1_555
N27A Pd5A 1_555 1_555
C81A C80 1_555 1_555
H104A C81A 1_555 1_555
C82A C78 1_555 1_555
H105A C82A 1_555 1_555
H35A N10A 1_555 1_555
H36A N10A 1_555 1_555
H39A C12A 1_555 1_555
H40A C12A 1_555 1_555
C68A C67A 1_555 1_555
H97A C68A 1_555 1_555
H98A C69A 1_555 1_555
H96A C66A 1_555 1_555
H99A C70A 1_555 1_555
H100A C70A 1_555 1_555
O10A C71A 1_555 1_555
H106A C84A 1_555 1_555
H3A N2A 1_555 1_555
H4A N2A 1_555 1_555
H7A C2A 1_555 1_555
H8A C2A 1_555 1_555
C29A C28A 1_555 1_555
H71A C29A 1_555 1_555
H72A C30A 1_555 1_555
H70A C27A 1_555 1_555
C35A N20A 1_555 1_555
H76A C35A 1_555 1_555
H73A C32A 1_555 1_555
H74A C33A 1_555 1_555
H75A C34A 1_555 1_555
H51A N14A 1_555 1_555
H52A N14A 1_555 1_555
H55A C16A 1_555 1_555
H56A C16A 1_555 1_555
C40A C39A 1_555 1_555
H80A C40A 1_555 1_555
H77A C36A 1_555 1_555
H78A C37A 1_555 1_555
H79A C38A 1_555 1_555
H81A C42A 1_555 1_555
H84A C47A 1_555 1_555
H87A C51A 1_555 1_555
H88A C51A 1_555 1_555
O8A C52A 1_555 1_555
H101A C77A 1_555 1_555
H102A C77A 1_555 1_555
H103A C79A 1_555 1_555
C87A C86 1_555 1_555
H108A C87A 1_555 1_555
C1 C2 1_555 1_555
C3 C4 1_555 1_555
C5 C6 1_555 1_555
C7 C8 1_555 1_555
C11 C12 1_555 1_555
C15 C16 1_555 1_555
C17 C18 1_555 1_555
C21 C25 1_555 1_555
C23 C24 1_555 1_555
C26 C30 1_555 1_555
C28 C29 1_555 1_555
C31 C35 1_555 1_555
C33 C34 1_555 1_555
C39 C40 1_555 1_555
C41 C45 1_555 1_555
C43 C44 1_555 1_555
C46 C50 1_555 1_555
C48 C49 1_555 1_555
C58 C59 1_555 1_555
C60 C61 1_555 1_555
C63 C64 1_555 1_555
C65 C69 1_555 1_555
C67 C68 1_555 1_555
C88 C92 1_555 1_555
C90 C91 1_555 1_555
C97 C98 1_555 1_555
C103 C104 1_555 1_555
C83A C80A 1_555 1_555
C83A C87A 1_555 1_555
C79A C78A 1_555 1_555
C76A C75A 1_555 1_555
N21A C40A 1_555 1_555
C16A N14A 1_555 1_555
C31A C35A 1_555 1_555
C19A C73A 1_555 1_555
C73A C54A 1_555 1_555
N18A C24A 1_555 1_555
C4A N4A 1_555 1_555
N23A C49A 1_555 1_555
N23A C50A 1_555 1_555
N19A C29A 1_555 1_555
C2A N2A 1_555 1_555
N28A C84A 1_555 1_555
C74A C72A 1_555 1_555
C8A N8A 1_555 1_555
N22A C44A 1_555 1_555
N22A C45A 1_555 1_555
C60A C64A 1_555 1_555
N24A C59A 1_555 1_555
C6A N6A 1_555 1_555
C88A C86A 1_555 1_555
C88A C92A 1_555 1_555
C86A C85A 1_555 1_555
N26A C68A 1_555 1_555
C12A N10A 1_555 1_555
N27A C81A 1_555 1_555
N27A C82A 1_555 1_555

#END
