
#######################################################################
#
#                 Cambridge Crystallographic Data Centre
#                                CCDC 
#
#######################################################################
#
# If this CIF has been generated from an entry in the Cambridge 
# Structural Database, then it will include bibliographic, chemical, 
# crystal, experimental, refinement or atomic coordinate data resulting 
# from the CCDC's data processing and validation procedures.
#
#######################################################################

data_UKOLUB
_chemical_formula_moiety         'C24 H48 N16 Pt4 8+,8(N1 O3 1-),4(H2 O1)'
_chemical_name_systematic        
'tetrakis(\m~2~-Pyrazine)-tetrakis(1,2-diaminoethane)-tetra-platinum(ii) octanitrate tetrahydrate'
_symmetry_cell_setting           triclinic
_symmetry_space_group_name_H-M   'P -1'
_symmetry_Int_Tables_number      2
_space_group_name_Hall           '-P 1'
loop_
_symmetry_equiv_pos_site_id
_symmetry_equiv_pos_as_xyz
1 x,y,z
2 -x,-y,-z
_cell_length_a                   8.0932(13)
_cell_length_b                   12.085(2)
_cell_length_c                   14.318(2)
_cell_angle_alpha                78.246(3)
_cell_angle_beta                 81.786(3)
_cell_angle_gamma                72.530(3)
_cell_volume                     1302.77
_exptl_crystal_colour            colorless
_exptl_crystal_description       needles
_cell_formula_units_Z            1
loop_
_atom_site_label
_atom_site_type_symbol
_atom_site_fract_x
_atom_site_fract_y
_atom_site_fract_z
Pt1 Pt 1.05015(5) -0.25330(3) 0.38616(3)
Pt2 Pt 0.41197(5) 0.20811(3) 0.17921(3)
N1 N 0.6130(13) 0.0686(9) 0.2339(7)
N2 N 0.8673(13) -0.1193(9) 0.3165(7)
C1 C 0.6405(14) -0.0382(10) 0.2135(8)
H1 H 0.5711 -0.0498 0.1701
C2 C 0.7689(15) -0.1333(10) 0.2546(8)
H2 H 0.7870 -0.2088 0.2386
C3 C 0.8405(14) -0.0101(10) 0.3345(8)
H3 H 0.9111 0.0031 0.3764
C4 C 0.7121(15) 0.0832(10) 0.2932(8)
H4 H 0.6948 0.1593 0.3077
N3 N 0.9053(12) -0.2369(8) 0.5132(7)
N4 N 0.2845(12) 0.2195(8) 0.3117(7)
C5 C 0.9669(15) -0.2045(10) 0.5831(8)
H5 H 1.0765 -0.1882 0.5721
C6 C 0.1288(14) 0.1951(10) 0.3295(8)
H6 H 0.0850 0.1712 0.2812
C7 C 0.3398(14) 0.2546(10) 0.3789(8)
H7 H 0.4454 0.2762 0.3662
C8 C 0.7524(13) -0.2612(10) 0.5310(8)
H8 H 0.7060 -0.2830 0.4824
N5 N 0.5185(14) 0.2053(9) 0.0391(7)
H9 H 0.5007 0.1440 0.0167
H10 H 0.6363 0.1958 0.0354
N6 N 0.2237(14) 0.3475(10) 0.1193(7)
H11 H 0.2359 0.4164 0.1314
H12 H 0.1157 0.3408 0.1455
C9 C 0.4320(16) 0.3179(11) -0.0175(8)
H13 H 0.4813 0.3801 -0.0079
H14 H 0.4515 0.3120 -0.0864
C10 C 0.2396(16) 0.3498(11) 0.0128(9)
H15 H 0.1866 0.2922 -0.0021
H16 H 0.1806 0.4291 -0.0207
N7 N 1.2167(12) -0.2795(9) 0.2663(8)
H17 H 1.1743 -0.3154 0.2281
H18 H 1.2266 -0.2083 0.2320
N8 N 1.2438(13) -0.3825(9) 0.4525(7)
H19 H 1.3042 -0.3503 0.4841
H20 H 1.1974 -0.4345 0.4966
C11 C 1.3891(14) -0.3546(11) 0.2949(8)
H21 H 1.4548 -0.3060 0.3128
H22 H 1.4564 -0.3922 0.2408
C12 C 1.3640(15) -0.4459(10) 0.3776(8)
H23 H 1.4769 -0.4911 0.4030
H24 H 1.3121 -0.5012 0.3580
C5A C 0.0331(15) 0.2045(10) 0.4169(8)
N3A N 0.0947(12) 0.2369(8) 0.4868(7)
Pt1A Pt -0.05015(5) 0.25330(3) 0.61384(3)
N2A N 0.1327(13) 0.1193(9) 0.6835(7)
C2A C 0.2311(15) 0.1333(10) 0.7454(8)
C1A C 0.3595(14) 0.0382(10) 0.7865(8)
N1A N 0.3870(13) -0.0686(9) 0.7661(7)
Pt2A Pt 0.58803(5) -0.20811(3) 0.82079(3)
N4A N 0.7155(12) -0.2195(8) 0.6883(7)
C6A C 0.8712(14) -0.1951(10) 0.6705(8)
C7A C 0.6602(14) -0.2546(10) 0.6211(8)
H7A H 0.5546 -0.2762 0.6338
H6A H 0.9150 -0.1712 0.7188
N5A N 0.4815(14) -0.2053(9) 0.9609(7)
H9A H 0.4993 -0.1440 0.9833
H10A H 0.3637 -0.1958 0.9646
C9A C 0.5680(16) -0.3179(11) 1.0175(8)
H13A H 0.5187 -0.3801 1.0079
H14A H 0.5485 -0.3120 1.0864
C10A C 0.7604(16) -0.3498(11) 0.9872(9)
N6A N 0.7763(14) -0.3475(10) 0.8807(7)
H11A H 0.7641 -0.4164 0.8686
H12A H 0.8843 -0.3408 0.8545
H15A H 0.8134 -0.2922 1.0021
H16A H 0.8194 -0.4291 1.0207
C4A C 0.2879(15) -0.0832(10) 0.7068(8)
C3A C 0.1595(14) 0.0101(10) 0.6655(8)
H3A H 0.0889 -0.0031 0.6236
H4A H 0.3052 -0.1593 0.6923
H1A H 0.4289 0.0498 0.8299
H2A H 0.2130 0.2088 0.7614
N7A N -0.2167(12) 0.2795(9) 0.7337(8)
H17A H -0.1743 0.3154 0.7719
H18A H -0.2266 0.2083 0.7680
C11A C -0.3891(14) 0.3546(11) 0.7051(8)
H21A H -0.4548 0.3060 0.6872
H22A H -0.4564 0.3922 0.7592
C12A C -0.3640(15) 0.4459(10) 0.6224(8)
N8A N -0.2438(13) 0.3825(9) 0.5475(7)
H19A H -0.3042 0.3503 0.5159
H20A H -0.1974 0.4345 0.5034
H23A H -0.4769 0.4911 0.5970
H24A H -0.3121 0.5012 0.6420
C8A C 0.2476(13) 0.2612(10) 0.4690(8)
H8A H 0.2940 0.2830 0.5176
H5A H -0.0765 0.1882 0.4279
O1 O 1.1451(12) -0.4022(8) 0.1297(6)
O2 O 0.8696(12) 0.2152(9) 0.0210(7)
N9 N 0.2273(15) -0.0093(9) 0.0965(8)
O3 O 0.0780(17) 0.0020(13) 0.1379(12)
O4 O 0.2556(18) 0.0551(10) 0.0244(8)
O5 O 0.3419(11) -0.0969(8) 0.1323(7)
N10 N 0.7203(14) 0.3709(10) 0.2020(9)
O6 O 0.6126(16) 0.4290(10) 0.1431(9)
O7 O 0.8723(13) 0.3177(11) 0.1700(8)
O8 O 0.6823(15) 0.3605(9) 0.2872(8)
N11 N 0.8721(14) -0.4571(8) 0.3139(7)
O9 O 1.0117(14) -0.5350(9) 0.3240(8)
O10 O 0.7666(13) -0.4312(9) 0.3856(7)
O11 O 0.8302(11) -0.4020(8) 0.2326(6)
N12 N 1.3418(14) -0.1091(11) 0.4471(8)
O12 O 1.448(2) -0.086(2) 0.392(2)
O13 O 1.1891(17) -0.0411(11) 0.4489(11)
O14 O 1.3648(12) -0.2033(9) 0.5037(7)
loop_
_geom_bond_atom_site_label_1
_geom_bond_atom_site_label_2
_geom_bond_site_symmetry_1
_geom_bond_site_symmetry_2
Pt1 N2 1_555 1_555
Pt2 N1 1_555 1_555
N1 C1 1_555 1_555
N2 C2 1_555 1_555
C1 H1 1_555 1_555
C2 C1 1_555 1_555
H2 C2 1_555 1_555
C3 N2 1_555 1_555
H3 C3 1_555 1_555
C4 N1 1_555 1_555
H4 C4 1_555 1_555
N3 Pt1 1_555 1_555
N4 Pt2 1_555 1_555
C5 N3 1_555 1_555
H5 C5 1_555 1_555
C6 N4 1_555 1_555
H6 C6 1_555 1_555
C7 N4 1_555 1_555
H7 C7 1_555 1_555
C8 N3 1_555 1_555
H8 C8 1_555 1_555
N5 Pt2 1_555 1_555
H9 N5 1_555 1_555
H10 N5 1_555 1_555
N6 Pt2 1_555 1_555
H11 N6 1_555 1_555
H12 N6 1_555 1_555
C9 N5 1_555 1_555
H13 C9 1_555 1_555
H14 C9 1_555 1_555
C10 N6 1_555 1_555
H15 C10 1_555 1_555
H16 C10 1_555 1_555
N7 Pt1 1_555 1_555
H17 N7 1_555 1_555
H18 N7 1_555 1_555
N8 Pt1 1_555 1_555
H19 N8 1_555 1_555
H20 N8 1_555 1_555
C11 N7 1_555 1_555
H21 C11 1_555 1_555
H22 C11 1_555 1_555
C12 N8 1_555 1_555
H23 C12 1_555 1_555
H24 C12 1_555 1_555
N9 O3 1_555 1_555
O4 N9 1_555 1_555
O5 N9 1_555 1_555
N10 O6 1_555 1_555
O7 N10 1_555 1_555
O8 N10 1_555 1_555
N11 O9 1_555 1_555
O10 N11 1_555 1_555
O11 N11 1_555 1_555
N12 O12 1_555 1_555
O13 N12 1_555 1_555
O14 N12 1_555 1_555
C5A C6 1_555 1_555
N3A C5A 1_555 1_555
Pt1A N3A 1_555 1_555
N2A Pt1A 1_555 1_555
C2A N2A 1_555 1_555
C1A C2A 1_555 1_555
N1A C1A 1_555 1_555
Pt2A N1A 1_555 1_555
N4A Pt2A 1_555 1_555
C6A C5 1_555 1_555
C7A C8 1_555 1_555
H7A C7A 1_555 1_555
H6A C6A 1_555 1_555
N5A Pt2A 1_555 1_555
H9A N5A 1_555 1_555
H10A N5A 1_555 1_555
C9A N5A 1_555 1_555
H13A C9A 1_555 1_555
H14A C9A 1_555 1_555
C10A C9A 1_555 1_555
N6A Pt2A 1_555 1_555
H11A N6A 1_555 1_555
H12A N6A 1_555 1_555
H15A C10A 1_555 1_555
H16A C10A 1_555 1_555
C4A N1A 1_555 1_555
C3A N2A 1_555 1_555
H3A C3A 1_555 1_555
H4A C4A 1_555 1_555
H1A C1A 1_555 1_555
H2A C2A 1_555 1_555
N7A Pt1A 1_555 1_555
H17A N7A 1_555 1_555
H18A N7A 1_555 1_555
C11A N7A 1_555 1_555
H21A C11A 1_555 1_555
H22A C11A 1_555 1_555
C12A C11A 1_555 1_555
N8A Pt1A 1_555 1_555
H19A N8A 1_555 1_555
H20A N8A 1_555 1_555
H23A C12A 1_555 1_555
H24A C12A 1_555 1_555
C8A C7 1_555 1_555
H8A C8A 1_555 1_555
H5A C5A 1_555 1_555
C3 C4 1_555 1_555
C9 C10 1_555 1_555
C11 C12 1_555 1_555
N3A C8A 1_555 1_555
N4A C6A 1_555 1_555
N4A C7A 1_555 1_555
C10A N6A 1_555 1_555
C4A C3A 1_555 1_555
C12A N8A 1_555 1_555

#END
