
#######################################################################
#
#                 Cambridge Crystallographic Data Centre
#                                CCDC 
#
#######################################################################
#
# If this CIF has been generated from an entry in the Cambridge 
# Structural Database, then it will include bibliographic, chemical, 
# crystal, experimental, refinement or atomic coordinate data resulting 
# from the CCDC's data processing and validation procedures.
#
#######################################################################

data_UKOMAI
_chemical_formula_moiety         
'C60 H84 N30 Pt6 12+,12(N1 O3 1-),C24 H24 O6,9(H2 O1)'
_chemical_name_systematic        
'bis(\m~3~-2,4,6-tris(4-pyridyl)-1,3,5-triazine)-tris(\m~2~-pyrazine)-hexakis(1,2-diaminoethane)-hexa-platinum(ii) dinitrate 2,3,6,7,10,11-hexamethoxytriphenylene nonahydrate'
_symmetry_cell_setting           trigonal
_symmetry_space_group_name_H-M   'P -3'
_symmetry_Int_Tables_number      147
_space_group_name_Hall           '-P 3'
loop_
_symmetry_equiv_pos_site_id
_symmetry_equiv_pos_as_xyz
1 x,y,z
2 -y,x-y,z
3 -x+y,-x,z
4 -x,-y,-z
5 y,-x+y,-z
6 x-y,x,-z
_cell_length_a                   19.8516(12)
_cell_length_b                   19.8516(12)
_cell_length_c                   19.515(2)
_cell_angle_alpha                90
_cell_angle_beta                 90
_cell_angle_gamma                120
_cell_volume                     6660.25
_exptl_crystal_colour            red-purple
_cell_formula_units_Z            2
loop_
_atom_site_label
_atom_site_type_symbol
_atom_site_fract_x
_atom_site_fract_y
_atom_site_fract_z
Pt1 Pt 1.11828(15) 0.43054(11) 1.07662(9)
Pt2 Pt 1.11843(14) 0.43062(10) 1.42344(9)
N1 N 1.0843(12) 0.3119(11) 1.0797(11)
N2 N 1.0741(9) 0.0534(10) 1.0815(9)
N3 N 1.0836(12) 0.3112(11) 1.4206(11)
N4 N 1.0745(9) 0.0540(10) 1.4184(9)
N5 N 1.1162(11) 0.4342(10) 1.1799(11)
N6 N 1.1149(11) 0.4337(10) 1.3203(11)
N7 N 1.1514(15) 0.5457(12) 1.0664(13)
H1 H 1.1115 0.5537 1.0759
H2 H 1.1912 0.5753 1.0947
N8 N 1.1227(15) 0.4346(14) 0.9717(12)
H3 H 1.1543 0.4171 0.9576
H4 H 1.0748 0.4016 0.9555
N9 N 1.1496(14) 0.5446(12) 1.4321(13)
H5 H 1.1887 0.5741 1.4031
H6 H 1.1090 0.5515 1.4231
N10 N 1.1231(14) 0.4346(13) 1.5282(12)
H7 H 1.0754 0.4019 1.5450
H8 H 1.1553 0.4180 1.5427
C1 C 1.1361(13) 0.2894(13) 1.0804(11)
H9 H 1.1883 0.3277 1.0801
C2 C 1.1183(13) 0.2126(12) 1.0817(11)
H10 H 1.1575 0.2001 1.0834
C3 C 1.0422(12) 0.1556(12) 1.0804(11)
C4 C 0.9881(13) 0.1802(12) 1.0781(11)
H11 H 0.9354 0.1437 1.0759
C5 C 1.0120(14) 0.2587(13) 1.0791(12)
H12 H 0.9745 0.2736 1.0794
C6 C 1.0198(12) 0.0723(11) 1.0811(11)
C7 C 1.1372(13) 0.2914(12) 1.4219(11)
H13 H 1.1893 0.3299 1.4241
C8 C 1.1176(13) 0.2131(12) 1.4201(11)
H14 H 1.1569 0.2005 1.4182
C9 C 1.0420(12) 0.1553(12) 1.4209(11)
C10 C 0.9889(13) 0.1807(13) 1.4219(12)
H15 H 0.9361 0.1443 1.4236
C11 C 1.0126(14) 0.2599(14) 1.4203(12)
H16 H 0.9752 0.2750 1.4189
C12 C 1.0203(12) 0.0726(12) 1.4180(11)
C13 C 1.1821(15) 0.4546(15) 1.2147(15)
H17 H 1.2278 0.4677 1.1911
C14 C 1.1819(15) 0.4559(15) 1.2798(15)
H18 H 1.2290 0.4727 1.3022
C15 C 1.0527(15) 0.4167(14) 1.2834(14)
H19 H 1.0065 0.4036 1.3060
C16 C 1.0533(15) 0.4176(14) 1.2149(14)
H20 H 1.0080 0.4063 1.1914
C17 C 1.148(2) 0.507(2) 0.9428(18)
H21 H 1.1055 0.5069 0.9182
H22 H 1.1895 0.5186 0.9106
C18 C 1.175(2) 0.564(2) 0.9952(19)
H23 H 1.1617 0.6025 0.9811
H24 H 1.2313 0.5890 0.9947
C19 C 1.174(2) 0.5640(19) 1.5031(18)
H25 H 1.2308 0.5894 1.5032
H26 H 1.1612 0.6027 1.5172
C20 C 1.148(2) 0.5083(19) 1.5538(17)
H27 H 1.1060 0.5086 1.5782
H28 H 1.1901 0.5212 1.5863
C6B C 1.0525(16) -0.0198(12) 1.0811(11)
N2B N 0.9793(13) -0.0741(9) 1.0815(9)
C6A C 0.9277(11) -0.0525(16) 1.0811(11)
N2A N 0.9466(10) 0.0207(13) 1.0815(9)
C3A C 0.8444(12) -0.1134(17) 1.0804(11)
C2A C 0.7874(12) -0.0943(18) 1.0817(11)
C1A C 0.7106(13) -0.1533(18) 1.0804(11)
N1A N 0.6881(11) -0.2276(16) 1.0797(11)
Pt1A Pt 0.56946(11) -0.31226(19) 1.07662(9)
N5A N 0.5658(10) -0.3180(15) 1.1799(11)
C13A C 0.5454(15) -0.2725(21) 1.2147(15)
H17A H 0.5323 -0.2399 1.1911
C14A C 0.5441(15) -0.2740(21) 1.2798(15)
N6A N 0.5663(10) -0.3188(15) 1.3203(11)
Pt2A Pt 0.56938(10) -0.31219(17) 1.42344(9)
N3A N 0.6888(11) -0.2276(16) 1.4206(11)
C7A C 0.7086(12) -0.1542(18) 1.4219(11)
H13A H 0.6701 -0.1406 1.4241
C8A C 0.7869(12) -0.0955(18) 1.4201(11)
H14A H 0.7995 -0.0436 1.4182
C9A C 0.8447(12) -0.1133(17) 1.4209(11)
C10A C 0.8193(13) -0.1918(18) 1.4219(12)
H15A H 0.8557 -0.2082 1.4236
C11A C 0.7401(14) -0.2473(20) 1.4203(12)
H16A H 0.7250 -0.2998 1.4189
C12A C 0.9274(12) -0.0523(17) 1.4180(11)
N4A N 0.9460(10) 0.0205(13) 1.4184(9)
C12B C 1.0523(17) -0.0203(12) 1.4180(11)
N4B N 0.9795(13) -0.0745(9) 1.4184(9)
C9B C 1.1133(17) -0.0420(12) 1.4209(11)
C8B C 1.0955(18) -0.1176(13) 1.4201(11)
C7B C 1.1542(18) -0.1372(13) 1.4219(11)
N3B N 1.2276(16) -0.0836(12) 1.4206(11)
Pt2B Pt 1.31219(17) -0.11843(14) 1.42344(9)
N6B N 1.3188(15) -0.1149(11) 1.3203(11)
C14B C 1.2740(21) -0.1819(15) 1.2798(15)
C13B C 1.2725(21) -0.1821(15) 1.2147(15)
N5B N 1.3180(15) -0.1162(11) 1.1799(11)
Pt1B Pt 1.31226(19) -0.11828(15) 1.07662(9)
N1B N 1.2276(16) -0.0843(12) 1.0797(11)
C1B C 1.1533(18) -0.1361(13) 1.0804(11)
H9B H 1.1394 -0.1883 1.0801
C2B C 1.0943(18) -0.1183(13) 1.0817(11)
H10B H 1.0426 -0.1575 1.0834
C3B C 1.1134(17) -0.0422(12) 1.0804(11)
C4B C 1.1921(18) 0.0119(13) 1.0781(11)
H11B H 1.2083 0.0646 1.0759
C5B C 1.2467(19) -0.0120(14) 1.0791(12)
H12B H 1.2991 0.0255 1.0794
N7B N 1.3943(19) -0.1514(15) 1.0664(13)
H1B H 1.4422 -0.1115 1.0759
H2B H 1.3841 -0.1912 1.0947
C18B C 1.389(3) -0.175(2) 0.9952(19)
C17B C 1.359(3) -0.148(2) 0.9428(18)
N8B N 1.3119(21) -0.1227(15) 0.9717(12)
H3B H 1.2628 -0.1543 0.9576
H4B H 1.3268 -0.0748 0.9555
H21B H 1.4014 -0.1055 0.9182
H22B H 1.3291 -0.1895 0.9106
H23B H 1.4408 -0.1617 0.9811
H24B H 1.3577 -0.2313 0.9947
C16B C 1.3643(21) -0.0533(15) 1.2149(14)
C15B C 1.3640(21) -0.0527(15) 1.2834(14)
H19B H 1.3971 -0.0065 1.3060
H20B H 1.3983 -0.0080 1.1914
H17B H 1.2399 -0.2278 1.1911
H18B H 1.2437 -0.2290 1.3022
N9B N 1.3950(18) -0.1496(14) 1.4321(13)
H5B H 1.3854 -0.1887 1.4031
H6B H 1.4425 -0.1090 1.4231
C19B C 1.3900(28) -0.174(2) 1.5031(18)
H25B H 1.3586 -0.2308 1.5032
H26B H 1.4415 -0.1612 1.5172
C20B C 1.3603(28) -0.148(2) 1.5538(17)
N10B N 1.3115(19) -0.1231(14) 1.5282(12)
H7B H 1.3265 -0.0754 1.5450
H8B H 1.2627 -0.1553 1.5427
H27B H 1.4026 -0.1060 1.5782
H28B H 1.3311 -0.1901 1.5863
C11B C 1.2473(20) -0.0126(14) 1.4203(12)
C10B C 1.1918(18) 0.0111(13) 1.4219(12)
H15B H 1.2082 0.0639 1.4236
H16B H 1.2998 0.0248 1.4189
H13B H 1.1406 -0.1893 1.4241
H14B H 1.0436 -0.1569 1.4182
N9A N 0.4554(12) -0.3950(18) 1.4321(13)
H5A H 0.4259 -0.3854 1.4031
H6A H 0.4485 -0.4425 1.4231
C19A C 0.4360(19) -0.3900(28) 1.5031(18)
H25A H 0.4106 -0.3586 1.5032
H26A H 0.3973 -0.4415 1.5172
C20A C 0.4917(19) -0.3603(28) 1.5538(17)
N10A N 0.5654(13) -0.3115(19) 1.5282(12)
H7A H 0.5981 -0.3265 1.5450
H8A H 0.5820 -0.2627 1.5427
H27A H 0.4914 -0.4026 1.5782
H28A H 0.4788 -0.3311 1.5863
C15A C 0.5833(14) -0.3640(21) 1.2834(14)
H19A H 0.5964 -0.3971 1.3060
C16A C 0.5824(14) -0.3643(21) 1.2149(14)
H20A H 0.5937 -0.3983 1.1914
H18A H 0.5273 -0.2437 1.3022
N7A N 0.4543(12) -0.3943(19) 1.0664(13)
H1A H 0.4463 -0.4422 1.0759
H2A H 0.4247 -0.3841 1.0947
C18A C 0.436(2) -0.389(3) 0.9952(19)
C17A C 0.493(2) -0.359(3) 0.9428(18)
N8A N 0.5654(14) -0.3119(21) 0.9717(12)
H3A H 0.5829 -0.2628 0.9576
H4A H 0.5984 -0.3268 0.9555
H21A H 0.4931 -0.4014 0.9182
H22A H 0.4814 -0.3291 0.9106
H23A H 0.3975 -0.4408 0.9811
H24A H 0.4110 -0.3577 0.9947
C5A C 0.7413(13) -0.2467(19) 1.0791(12)
C4A C 0.8198(12) -0.1921(18) 1.0781(11)
H11A H 0.8563 -0.2083 1.0759
H12A H 0.7264 -0.2991 1.0794
H9A H 0.6723 -0.1394 1.0801
H10A H 0.7999 -0.0426 1.0834
C21 C 0.7667(16) 0.6857(14) 0.2495(13)
H29 H 0.7210 0.6351 0.2498
H30 H 0.7977 0.6914 0.2892
H31 H 0.7964 0.6916 0.2089
C22 C 0.6829(14) 0.9058(17) 0.2490(15)
H32 H 0.6271 0.8788 0.2490
H33 H 0.7019 0.9375 0.2086
H34 H 0.7020 0.9382 0.2889
C23 C 0.8046(13) 0.8198(13) 0.2502(11)
C24 C 0.8821(12) 0.8435(12) 0.2493(10)
H35 H 0.8969 0.8058 0.2485
C25 C 0.9404(12) 0.9219(12) 0.2497(11)
C26 C 0.9192(12) 0.9755(11) 0.2498(10)
C27 C 0.8411(11) 0.9529(13) 0.2492(11)
H36 H 0.8269 0.9910 0.2488
C28 C 0.7835(12) 0.8758(13) 0.2493(11)
O1 O 0.7439(9) 0.7448(10) 0.2506(9)
O2 O 0.7079(8) 0.8533(10) 0.2495(8)
C25B C 0.9815(17) 1.0596(12) 0.2497(11)
C24B C 0.9614(17) 1.1179(12) 0.2493(10)
C23B C 1.0152(18) 1.1954(13) 0.2502(11)
C28B C 1.0923(18) 1.2165(12) 0.2493(11)
C27B C 1.1118(17) 1.1589(11) 0.2492(11)
C26B C 1.0563(16) 1.0808(12) 0.2498(10)
C25A C 1.0781(12) 1.0185(17) 0.2497(11)
C24A C 1.1565(12) 1.0386(17) 0.2493(10)
C23A C 1.1802(13) 0.9848(18) 0.2502(11)
C28A C 1.1242(13) 0.9077(18) 0.2493(11)
C27A C 1.0471(13) 0.8882(17) 0.2492(11)
C26A C 1.0245(11) 0.9437(16) 0.2498(10)
H36A H 1.0090 0.8359 0.2488
O2A O 1.1467(10) 0.8546(13) 0.2495(8)
C22A C 1.0942(17) 0.7771(22) 0.2490(15)
H32A H 1.1212 0.7483 0.2490
H33A H 1.0625 0.7644 0.2086
H34A H 1.0618 0.7638 0.2889
O1A O 1.2552(10) 0.9991(13) 0.2506(9)
C21A C 1.3143(14) 1.0810(21) 0.2495(13)
H29A H 1.3649 1.0859 0.2498
H30A H 1.3086 1.1063 0.2892
H31A H 1.3084 1.1048 0.2089
H35A H 1.1942 1.0911 0.2485
H36B H 1.1641 1.1731 0.2488
O2B O 1.1454(13) 1.2921(8) 0.2495(8)
C22B C 1.2229(22) 1.3171(14) 0.2490(15)
H32B H 1.2517 1.3729 0.2490
H33B H 1.2356 1.2981 0.2086
H34B H 1.2362 1.2980 0.2889
O1B O 1.0009(13) 1.2561(9) 0.2506(9)
C21B C 0.9190(21) 1.2333(16) 0.2495(13)
H29B H 0.9141 1.2790 0.2498
H30B H 0.8937 1.2023 0.2892
H31B H 0.8952 1.2036 0.2089
H35B H 0.9089 1.1031 0.2485
N11 N 1.052(3) 0.649(3) 1.405(2)
O3 O 1.026(2) 0.579(3) 1.402(2)
O4 O 1.123(2) 0.683(2) 1.3963(17)
O5 O 1.0258(17) 0.6841(17) 1.4195(15)
N12 N 0.837(3) 0.276(3) 1.105(3)
O6 O 0.785(3) 0.271(3) 1.146(3)
O7 O 0.8413(18) 0.245(2) 1.0623(18)
O8 O 0.9037(18) 0.3479(18) 1.1171(16)
N13 N 0.945(3) 0.346(3) 0.910(2)
O9 O 0.970(2) 0.420(3) 0.914(2)
O10 O 0.873(2) 0.317(2) 0.8974(17)
O11 O 0.9772(18) 0.3143(17) 0.9203(15)
O12 O 1.3755(16) 0.5439(16) 1.2492(14)
O13 O 0.880(3) 0.606(3) 0.254(2)
O14 O 1.063(4) 0.579(4) 1.174(4)
O15 O 0.963(3) 0.540(3) 1.249(2)
O16 O 0.853(5) 0.393(5) 1.247(4)
O17 O 1.079(3) 0.304(3) 0.856(3)
O18 O 1.3333 0.6667 1.671(7)
O19 O 1.3333 0.6667 0.865(7)
O20 O 0.919(3) 0.703(3) 1.357(3)
loop_
_geom_bond_atom_site_label_1
_geom_bond_atom_site_label_2
_geom_bond_site_symmetry_1
_geom_bond_site_symmetry_2
Pt1 N1 1_555 1_555
Pt2 N3 1_555 1_555
N1 C1 1_555 1_555
N2 C6 1_555 1_555
N3 C7 1_555 1_555
N4 C12 1_555 1_555
N5 Pt1 1_555 1_555
N6 Pt2 1_555 1_555
N7 Pt1 1_555 1_555
H1 N7 1_555 1_555
H2 N7 1_555 1_555
N8 Pt1 1_555 1_555
H3 N8 1_555 1_555
H4 N8 1_555 1_555
N9 Pt2 1_555 1_555
H5 N9 1_555 1_555
H6 N9 1_555 1_555
N10 Pt2 1_555 1_555
H7 N10 1_555 1_555
H8 N10 1_555 1_555
C1 H9 1_555 1_555
C2 C1 1_555 1_555
H10 C2 1_555 1_555
C3 C2 1_555 1_555
C4 C3 1_555 1_555
H11 C4 1_555 1_555
C5 N1 1_555 1_555
H12 C5 1_555 1_555
C6 C3 1_555 1_555
C7 H13 1_555 1_555
C8 C7 1_555 1_555
H14 C8 1_555 1_555
C9 C8 1_555 1_555
C10 C9 1_555 1_555
H15 C10 1_555 1_555
C11 N3 1_555 1_555
H16 C11 1_555 1_555
C12 C9 1_555 1_555
C13 N5 1_555 1_555
H17 C13 1_555 1_555
C14 N6 1_555 1_555
H18 C14 1_555 1_555
C15 N6 1_555 1_555
H19 C15 1_555 1_555
C16 N5 1_555 1_555
H20 C16 1_555 1_555
C17 N8 1_555 1_555
H21 C17 1_555 1_555
H22 C17 1_555 1_555
C18 N7 1_555 1_555
H23 C18 1_555 1_555
H24 C18 1_555 1_555
C19 N9 1_555 1_555
H25 C19 1_555 1_555
H26 C19 1_555 1_555
C20 N10 1_555 1_555
H27 C20 1_555 1_555
H28 C20 1_555 1_555
C21 H29 1_555 1_555
H30 C21 1_555 1_555
H31 C21 1_555 1_555
C22 H32 1_555 1_555
H33 C22 1_555 1_555
H34 C22 1_555 1_555
C23 C24 1_555 1_555
C24 H35 1_555 1_555
C25 C24 1_555 1_555
C26 C25 1_555 1_555
C27 C26 1_555 1_555
H36 C27 1_555 1_555
C28 C23 1_555 1_555
O1 C21 1_555 1_555
O2 C22 1_555 1_555
N11 O3 1_555 1_555
O4 N11 1_555 1_555
O5 N11 1_555 1_555
N12 O6 1_555 1_555
O7 N12 1_555 1_555
O8 N12 1_555 1_555
N13 O9 1_555 1_555
O10 N13 1_555 1_555
O11 N13 1_555 1_555
C6B N2 1_555 1_555
N2B C6B 1_555 1_555
C6A N2B 1_555 1_555
N2A C6 1_555 1_555
C3A C6A 1_555 1_555
C2A C3A 1_555 1_555
C1A C2A 1_555 1_555
N1A C1A 1_555 1_555
Pt1A N1A 1_555 1_555
N5A Pt1A 1_555 1_555
C13A N5A 1_555 1_555
H17A C13A 1_555 1_555
C14A C13A 1_555 1_555
N6A C14A 1_555 1_555
Pt2A N6A 1_555 1_555
N3A Pt2A 1_555 1_555
C7A N3A 1_555 1_555
H13A C7A 1_555 1_555
C8A C7A 1_555 1_555
H14A C8A 1_555 1_555
C9A C8A 1_555 1_555
C10A C9A 1_555 1_555
H15A C10A 1_555 1_555
C11A N3A 1_555 1_555
H16A C11A 1_555 1_555
C12A C9A 1_555 1_555
N4A C12 1_555 1_555
C12B N4 1_555 1_555
N4B C12A 1_555 1_555
C9B C12B 1_555 1_555
C8B C9B 1_555 1_555
C7B C8B 1_555 1_555
N3B C7B 1_555 1_555
Pt2B N3B 1_555 1_555
N6B Pt2B 1_555 1_555
C14B N6B 1_555 1_555
C13B C14B 1_555 1_555
N5B C13B 1_555 1_555
Pt1B N5B 1_555 1_555
N1B Pt1B 1_555 1_555
C1B N1B 1_555 1_555
H9B C1B 1_555 1_555
C2B C1B 1_555 1_555
H10B C2B 1_555 1_555
C3B C6B 1_555 1_555
C4B C3B 1_555 1_555
H11B C4B 1_555 1_555
C5B N1B 1_555 1_555
H12B C5B 1_555 1_555
N7B Pt1B 1_555 1_555
H1B N7B 1_555 1_555
H2B N7B 1_555 1_555
C18B N7B 1_555 1_555
C17B C18B 1_555 1_555
N8B Pt1B 1_555 1_555
H3B N8B 1_555 1_555
H4B N8B 1_555 1_555
H21B C17B 1_555 1_555
H22B C17B 1_555 1_555
H23B C18B 1_555 1_555
H24B C18B 1_555 1_555
C16B N5B 1_555 1_555
C15B N6B 1_555 1_555
H19B C15B 1_555 1_555
H20B C16B 1_555 1_555
H17B C13B 1_555 1_555
H18B C14B 1_555 1_555
N9B Pt2B 1_555 1_555
H5B N9B 1_555 1_555
H6B N9B 1_555 1_555
C19B N9B 1_555 1_555
H25B C19B 1_555 1_555
H26B C19B 1_555 1_555
C20B C19B 1_555 1_555
N10B Pt2B 1_555 1_555
H7B N10B 1_555 1_555
H8B N10B 1_555 1_555
H27B C20B 1_555 1_555
H28B C20B 1_555 1_555
C11B N3B 1_555 1_555
C10B C9B 1_555 1_555
H15B C10B 1_555 1_555
H16B C11B 1_555 1_555
H13B C7B 1_555 1_555
H14B C8B 1_555 1_555
N9A Pt2A 1_555 1_555
H5A N9A 1_555 1_555
H6A N9A 1_555 1_555
C19A N9A 1_555 1_555
H25A C19A 1_555 1_555
H26A C19A 1_555 1_555
C20A C19A 1_555 1_555
N10A Pt2A 1_555 1_555
H7A N10A 1_555 1_555
H8A N10A 1_555 1_555
H27A C20A 1_555 1_555
H28A C20A 1_555 1_555
C15A N6A 1_555 1_555
H19A C15A 1_555 1_555
C16A N5A 1_555 1_555
H20A C16A 1_555 1_555
H18A C14A 1_555 1_555
N7A Pt1A 1_555 1_555
H1A N7A 1_555 1_555
H2A N7A 1_555 1_555
C18A N7A 1_555 1_555
C17A C18A 1_555 1_555
N8A Pt1A 1_555 1_555
H3A N8A 1_555 1_555
H4A N8A 1_555 1_555
H21A C17A 1_555 1_555
H22A C17A 1_555 1_555
H23A C18A 1_555 1_555
H24A C18A 1_555 1_555
C5A N1A 1_555 1_555
C4A C3A 1_555 1_555
H11A C4A 1_555 1_555
H12A C5A 1_555 1_555
H9A C1A 1_555 1_555
H10A C2A 1_555 1_555
C25B C26 1_555 1_555
C24B C25B 1_555 1_555
C23B C24B 1_555 1_555
C28B C23B 1_555 1_555
C27B C28B 1_555 1_555
C26B C25B 1_555 1_555
C25A C26B 1_555 1_555
C24A C25A 1_555 1_555
C23A C24A 1_555 1_555
C28A C23A 1_555 1_555
C27A C28A 1_555 1_555
C26A C25 1_555 1_555
H36A C27A 1_555 1_555
O2A C28A 1_555 1_555
C22A O2A 1_555 1_555
H32A C22A 1_555 1_555
H33A C22A 1_555 1_555
H34A C22A 1_555 1_555
O1A C23A 1_555 1_555
C21A O1A 1_555 1_555
H29A C21A 1_555 1_555
H30A C21A 1_555 1_555
H31A C21A 1_555 1_555
H35A C24A 1_555 1_555
H36B C27B 1_555 1_555
O2B C28B 1_555 1_555
C22B O2B 1_555 1_555
H32B C22B 1_555 1_555
H33B C22B 1_555 1_555
H34B C22B 1_555 1_555
O1B C23B 1_555 1_555
C21B O1B 1_555 1_555
H29B C21B 1_555 1_555
H30B C21B 1_555 1_555
H31B C21B 1_555 1_555
H35B C24B 1_555 1_555
C4 C5 1_555 1_555
C10 C11 1_555 1_555
C13 C14 1_555 1_555
C15 C16 1_555 1_555
C17 C18 1_555 1_555
C19 C20 1_555 1_555
C23 O1 1_555 1_555
C27 C28 1_555 1_555
C28 O2 1_555 1_555
C6A N2A 1_555 1_555
C10A C11A 1_555 1_555
C12A N4A 1_555 1_555
C12B N4B 1_555 1_555
C2B C3B 1_555 1_555
C4B C5B 1_555 1_555
C17B N8B 1_555 1_555
C16B C15B 1_555 1_555
C20B N10B 1_555 1_555
C11B C10B 1_555 1_555
C20A N10A 1_555 1_555
C15A C16A 1_555 1_555
C17A N8A 1_555 1_555
C5A C4A 1_555 1_555
C27B C26B 1_555 1_555
C25A C26A 1_555 1_555
C27A C26A 1_555 1_555

#END
