
#######################################################################
#
#                 Cambridge Crystallographic Data Centre
#                                CCDC 
#
#######################################################################
#
# If this CIF has been generated from an entry in the Cambridge 
# Structural Database, then it will include bibliographic, chemical, 
# crystal, experimental, refinement or atomic coordinate data resulting 
# from the CCDC's data processing and validation procedures.
#
#######################################################################

data_ULEGEZ
_chemical_formula_moiety         'C216 H192 Cl12 Co6 Cr8 N24 O48,4(C4 H8 O1)'
_chemical_name_systematic        
'tetracosakis(\m~2~-4-Oxo-4-(pyridin-4-yl)buten-2-olato)-dodecachloro-octa-chromium(iii)-hexa-cobalt(ii) tetrahydrofuran unknown solvate'
_symmetry_cell_setting           triclinic
_symmetry_space_group_name_H-M   'P -1'
_symmetry_Int_Tables_number      2
_space_group_name_Hall           '-P 1'
loop_
_symmetry_equiv_pos_site_id
_symmetry_equiv_pos_as_xyz
1 x,y,z
2 -x,-y,-z
_cell_length_a                   28.265(4)
_cell_length_b                   29.830(4)
_cell_length_c                   31.290(5)
_cell_angle_alpha                72.023(16)
_cell_angle_beta                 71.093(15)
_cell_angle_gamma                63.981(13)
_cell_volume                     21994.7
_exptl_crystal_colour            'dark orange'
_exptl_crystal_description       block
_cell_formula_units_Z            2
loop_
_atom_site_label
_atom_site_type_symbol
_atom_site_fract_x
_atom_site_fract_y
_atom_site_fract_z
C1 C -0.2699(5) 1.0495(4) 0.7129(4)
H1 H -0.2787 1.0753 0.7305
H2 H -0.3030 1.0458 0.7138
H3 H -0.2529 1.0601 0.6808
C2 C -0.2322(4) 1.0002(3) 0.7333(3)
C3 C -0.1973(4) 0.9995(3) 0.7551(3)
H4 H -0.1965 1.0313 0.7538
C4 C -0.1617(2) 0.9556(2) 0.7798(2)
C5 C -0.1228(3) 0.9582(3) 0.8014(2)
C6 C -0.1199(3) 1.0016(3) 0.8028(2)
H5 H -0.1441 1.0334 0.7900
C7 C -0.0820(3) 1.0004(2) 0.8227(2)
H6 H -0.0811 1.0319 0.8223
C8 C -0.0503(3) 0.9132(3) 0.8421(3)
H7 H -0.0271 0.8816 0.8563
C9 C -0.0883(3) 0.9135(3) 0.8212(3)
H8 H -0.0896 0.8823 0.8210
C10 C -0.2350(4) 0.8290(4) 0.6714(3)
H9 H -0.2107 0.8037 0.6521
H10 H -0.2597 0.8576 0.6537
H11 H -0.2558 0.8133 0.6987
C11 C -0.2033(3) 0.8471(3) 0.6857(2)
C12 C -0.1492(3) 0.8424(3) 0.6600(2)
H12 H -0.1336 0.8236 0.6360
C13 C -0.1182(3) 0.8636(3) 0.6681(2)
C14 C -0.0651(3) 0.8598(3) 0.6383(2)
C15 C -0.0491(3) 0.8507(3) 0.5947(2)
H13 H -0.0722 0.8457 0.5818
C16 C 0.0032(3) 0.8489(3) 0.5692(2)
H14 H 0.0139 0.8433 0.5386
C17 C 0.0220(3) 0.8639(3) 0.6263(3)
H15 H 0.0463 0.8677 0.6387
C18 C -0.0315(3) 0.8690(4) 0.6538(3)
H16 H -0.0431 0.8788 0.6828
C19 C -0.0092(5) 0.5543(5) 0.5824(4)
H17 H -0.0406 0.5645 0.6076
H18 H -0.0054 0.5224 0.5763
H19 H -0.0143 0.5809 0.5546
C20 C 0.0416(4) 0.5466(4) 0.5958(2)
C21 C 0.0364(3) 0.5545(4) 0.6402(2)
C22 C 0.0804(3) 0.5457(3) 0.6589(2)
C23 C 0.0678(3) 0.5556(2) 0.7056(2)
C24 C 0.1101(3) 0.5571(3) 0.7194(2)
H20 H 0.1440 0.5522 0.6982
C25 C 0.1044(3) 0.5650(3) 0.7603(2)
H21 H 0.1340 0.5647 0.7687
C26 C 0.0136(4) 0.5743(3) 0.7787(2)
H22 H -0.0212 0.5817 0.7988
C27 C 0.0208(4) 0.5643(3) 0.7372(2)
H23 H -0.0088 0.5633 0.7299
C28 C 0.2222(4) 0.5442(3) 0.4284(2)
H24 H 0.2389 0.5686 0.4092
H25 H 0.1956 0.5454 0.4140
H26 H 0.2501 0.5099 0.4316
C29 C 0.1955(3) 0.5573(3) 0.4738(2)
C30 C 0.1846(3) 0.6071(3) 0.4798(2)
H27 H 0.1963 0.6296 0.4539
C31 C 0.1585(3) 0.6243(2) 0.5201(2)
C32 C 0.1514(3) 0.6764(2) 0.5228(2)
C33 C 0.1298(4) 0.6902(3) 0.5669(2)
H28 H 0.1209 0.6672 0.5938
C34 C 0.1222(3) 0.7395(3) 0.5692(2)
H29 H 0.1070 0.7487 0.5986
C35 C 0.1536(3) 0.7606(3) 0.4932(2)
H30 H 0.1621 0.7848 0.4673
C36 C 0.1620(3) 0.7119(3) 0.4862(2)
H31 H 0.1751 0.7047 0.4561
C37 C 0.2155(4) 0.3664(3) 0.6201(3)
H32 H 0.2389 0.3458 0.6420
H33 H 0.2292 0.3513 0.5926
H34 H 0.1787 0.3674 0.6345
C38 C 0.2149(3) 0.4195(3) 0.6065(2)
C39 C 0.2531(3) 0.4300(3) 0.6159(3)
H35 H 0.2768 0.4033 0.6340
C40 C 0.2600(3) 0.4768(2) 0.6007(2)
C41 C 0.4643(4) 0.6883(3) 0.3298(3)
H36 H 0.4714 0.6519 0.3369
H37 H 0.4912 0.6957 0.3027
H38 H 0.4281 0.7077 0.3233
C42 C 0.4672(3) 0.7027(3) 0.3687(2)
C43 C 0.4647(3) 0.6681(3) 0.4128(2)
H39 H 0.4587 0.6385 0.4149
C44 C 0.4706(3) 0.6756(3) 0.4540(2)
C45 C 0.4655(3) 0.6372(2) 0.4971(2)
C46 C 0.4665(3) 0.5880(2) 0.4984(2)
H40 H 0.4708 0.5777 0.4711
C47 C 0.4612(4) 0.5566(3) 0.5407(2)
H41 H 0.4618 0.5243 0.5411
C48 C 0.4508(4) 0.6154(3) 0.5786(3)
H42 H 0.4414 0.6266 0.6066
C49 C 0.4586(4) 0.6486(3) 0.5388(3)
H43 H 0.4594 0.6798 0.5396
C50 C 0.5181(4) 0.2529(4) 0.9199(3)
H44 H 0.5477 0.2462 0.8927
H45 H 0.5127 0.2212 0.9366
H46 H 0.5269 0.2661 0.9401
C51 C 0.4661(4) 0.2922(3) 0.9046(3)
C52 C 0.4735(4) 0.3246(3) 0.8607(3)
H47 H 0.5087 0.3227 0.8438
C53 C 0.4270(3) 0.3601(3) 0.8424(2)
C54 C 0.4329(3) 0.3934(3) 0.7970(2)
C55 C 0.3852(3) 0.4315(3) 0.7813(2)
H48 H 0.3501 0.4347 0.7994
C56 C 0.3930(3) 0.4637(3) 0.7381(2)
H49 H 0.3619 0.4884 0.7273
C57 C 0.4839(3) 0.4236(3) 0.7262(2)
H50 H 0.5177 0.4188 0.7050
C58 C 0.4851(3) 0.3921(3) 0.7663(2)
H51 H 0.5183 0.3695 0.7749
C59 C 0.2808(4) 0.3041(3) 1.0687(3)
H52 H 0.2660 0.3255 1.0918
H53 H 0.3092 0.2721 1.0789
H54 H 0.2520 0.2967 1.0650
C60 C 0.3038(3) 0.3310(2) 1.0241(2)
C61 C 0.3073(3) 0.3795(3) 1.0220(2)
H55 H 0.2904 0.3944 1.0486
C62 C 0.3333(3) 0.4045(3) 0.9841(2)
C63 C 0.3296(3) 0.4557(3) 0.9851(2)
C64 C 0.3434(4) 0.4865(3) 0.9442(3)
H56 H 0.3511 0.4764 0.9159
C65 C 0.3464(4) 0.5332(3) 0.9435(2)
H57 H 0.3559 0.5538 0.9148
C66 C 0.3238(3) 0.5197(3) 1.0225(2)
H58 H 0.3156 0.5314 1.0501
C67 C 0.3224(4) 0.4721(3) 1.0257(2)
H59 H 0.3167 0.4508 1.0550
C68 C 0.7057(5) 0.4314(4) 0.8364(4)
H60 H 0.6838 0.4105 0.8490
H61 H 0.7264 0.4260 0.8585
H62 H 0.7306 0.4219 0.8075
C69 C 0.6704(4) 0.4851(4) 0.8273(3)
C70 C 0.6181(4) 0.5029(3) 0.8525(4)
H63 H 0.6050 0.4785 0.8745
C71 C 0.5825(3) 0.5542(3) 0.8485(2)
C72 C 0.5278(4) 0.5699(3) 0.8802(3)
C73 C 0.4865(4) 0.6174(3) 0.8702(3)
H64 H 0.4927 0.6425 0.8441
C74 C 0.4394(4) 0.6255(3) 0.8982(3)
H65 H 0.4126 0.6578 0.8898
C75 C 0.4593(3) 0.5535(3) 0.9471(3)
H66 H 0.4492 0.5317 0.9746
C76 C 0.5140(3) 0.5366(3) 0.9202(3)
H67 H 0.5398 0.5040 0.9294
C77 C 0.7690(4) 0.5603(5) 0.6404(3)
H68 H 0.7717 0.5453 0.6155
H69 H 0.8003 0.5397 0.6544
H70 H 0.7684 0.5950 0.6279
C78 C 0.7184(4) 0.5618(4) 0.6760(3)
C79 C 0.6763(4) 0.5548(5) 0.6663(3)
H71 H 0.6812 0.5513 0.6359
C80 C 0.6287(3) 0.5527(3) 0.6972(2)
C81 C 0.5874(3) 0.5429(3) 0.6844(2)
C82 C 0.5417(3) 0.5462(3) 0.7152(2)
H72 H 0.5363 0.5530 0.7445
C83 C 0.5007(3) 0.5395(3) 0.7041(2)
H73 H 0.4676 0.5433 0.7261
C84 C 0.5555(4) 0.5259(3) 0.6325(3)
H74 H 0.5610 0.5217 0.6021
C85 C 0.5961(4) 0.5297(4) 0.6442(3)
H75 H 0.6306 0.5229 0.6238
C86 C 0.6905(6) 0.6564(6) 0.8401(4)
H76 H 0.6807 0.6917 0.8419
H77 H 0.7299 0.6398 0.8318
H78 H 0.6765 0.6382 0.8700
C87 C 0.6645(9) 0.6556(8) 0.8011(7)
C88 C 0.6253(8) 0.6929(7) 0.7865(6)
H79 H 0.6094 0.7222 0.7999
C89 C 0.6044(6) 0.6929(5) 0.7517(4)
C90 C 0.5568(3) 0.7376(2) 0.7323(3)
C91 C 0.5254(4) 0.73125(19) 0.7100(3)
H80 H 0.5317 0.6982 0.7072
C92 C 0.4849(3) 0.7733(3) 0.6918(3)
H81 H 0.4635 0.7690 0.6766
N1 N 0.4757(3) 0.8218(2) 0.6959(3)
C93 C 0.5071(3) 0.82807(19) 0.7181(3)
H82 H 0.5008 0.8612 0.7209
C94 C 0.5476(3) 0.7860(3) 0.7363(3)
H83 H 0.5690 0.7903 0.7515
C95 C 0.4516(4) 0.8859(4) 0.9825(5)
H84 H 0.4785 0.8511 0.9868
H85 H 0.4397 0.8989 1.0109
H86 H 0.4677 0.9076 0.9573
C96 C 0.4051(5) 0.8859(4) 0.9711(4)
C97 C 0.3998(4) 0.8381(3) 0.9756(5)
H87 H 0.4284 0.8068 0.9827
C98 C 0.3499(3) 0.8378(3) 0.9690(3)
C99 C 0.3503(3) 0.7881(3) 0.9720(3)
C100 C 0.3028(3) 0.7856(3) 0.9646(2)
H88 H 0.2722 0.8155 0.9587
C101 C 0.3042(3) 0.7386(3) 0.9665(3)
H89 H 0.2740 0.7375 0.9604
C102 C 0.3886(3) 0.6957(3) 0.9836(4)
H90 H 0.4179 0.6646 0.9898
C103 C 0.3925(4) 0.7403(3) 0.9824(5)
H91 H 0.4237 0.7393 0.9887
C104 C 0.1992(4) 0.9512(4) 1.0849(3)
H92 H 0.1660 0.9445 1.0993
H93 H 0.1933 0.9849 1.0885
H94 H 0.2284 0.9253 1.0998
C105 C 0.2147(3) 0.9497(3) 1.0339(2)
C106 C 0.1790(4) 0.9524(3) 1.0125(2)
H95 H 0.1455 0.9510 1.0312
C107 C 0.1869(3) 0.9571(3) 0.9644(2)
C108 C 0.1461(3) 0.9568(2) 0.9451(2)
C109 C 0.1594(3) 0.9491(3) 0.9000(2)
H96 H 0.1946 0.9449 0.8816
C110 C 0.1211(3) 0.9477(3) 0.8821(2)
H97 H 0.1312 0.9427 0.8514
C111 C 0.0578(3) 0.9612(3) 0.9488(2)
H98 H 0.0223 0.9654 0.9664
C112 C 0.0937(3) 0.9642(3) 0.9688(2)
H99 H 0.0819 0.9713 0.9989
C113 C -0.0478(4) 1.2034(3) 0.5664(4)
H100 H -0.0663 1.1889 0.5562
H101 H -0.0427 1.2325 0.5430
H102 H -0.0696 1.2147 0.5954
C114 C 0.0071(3) 1.1632(3) 0.5738(3)
C115 C 0.0230(3) 1.1124(3) 0.5658(3)
H103 H -0.0034 1.1054 0.5593
C116 C 0.0726(3) 1.0737(2) 0.5667(2)
C117 C 0.0825(3) 1.0232(2) 0.5597(2)
C118 C 0.1284(3) 0.9821(3) 0.5698(3)
H104 H 0.1545 0.9865 0.5794
C119 C 0.1358(3) 0.9334(3) 0.5657(3)
H105 H 0.1669 0.9054 0.5736
C120 C 0.0591(3) 0.9643(3) 0.5428(3)
H106 H 0.0336 0.9584 0.5339
C121 C 0.0461(3) 1.0135(3) 0.5451(3)
H107 H 0.0140 1.0400 0.5373
C122 C 0.4189(4) 0.9187(4) 0.3213(4)
H108 H 0.3856 0.9358 0.3099
H109 H 0.4494 0.9055 0.2964
H110 H 0.4249 0.9431 0.3319
C123 C 0.4142(4) 0.8756(4) 0.3607(3)
C124 C 0.3636(4) 0.8770(3) 0.3864(3)
H111 H 0.3326 0.9069 0.3814
C125 C 0.3577(3) 0.8345(3) 0.4202(3)
C126 C 0.3027(3) 0.8378(3) 0.4476(3)
C127 C 0.2940(3) 0.8002(3) 0.4843(2)
H112 H 0.3243 0.7712 0.4925
C128 C 0.2443(3) 0.8030(3) 0.5092(2)
H113 H 0.2415 0.7749 0.5332
C129 C 0.2051(3) 0.8813(3) 0.4652(3)
H114 H 0.1746 0.9114 0.4595
C130 C 0.2529(3) 0.8784(3) 0.4367(3)
H115 H 0.2544 0.9032 0.4091
C131 C 0.1056(4) 1.2347(3) 0.6686(3)
H116 H 0.0878 1.2391 0.7005
H117 H 0.0885 1.2655 0.6474
H118 H 0.1439 1.2285 0.6632
C132 C 0.1005(3) 1.1911(3) 0.6608(2)
C133 C 0.0907(3) 1.1532(3) 0.6981(2)
H119 H 0.0917 1.1546 0.7276
C134 C 0.0797(3) 1.1138(2) 0.6945(2)
C135 C 0.0626(3) 1.0781(3) 0.7363(2)
C136 C 0.0601(3) 1.0345(3) 0.7309(2)
H120 H 0.0679 1.0278 0.7011
C137 C 0.0458(3) 1.0009(2) 0.76996(19)
H121 H 0.0435 0.9719 0.7655
C138 C 0.0364(5) 1.0512(3) 0.8178(2)
H122 H 0.0273 1.0584 0.8476
C139 C 0.0501(4) 1.0847(3) 0.7809(2)
H123 H 0.0512 1.1141 0.7859
C140 C 0.3163(3) 0.2460(3) 0.8674(3)
H124 H 0.2869 0.2539 0.8528
H125 H 0.3165 0.2178 0.8938
H126 H 0.3508 0.2362 0.8451
C141 C 0.3082(3) 0.2907(2) 0.8831(2)
C142 C 0.2646(3) 0.3372(2) 0.8764(2)
H127 H 0.2419 0.3406 0.8580
C143 C 0.2524(3) 0.3789(2) 0.8952(2)
C144 C 0.2023(3) 0.4251(2) 0.8860(2)
C145 C 0.1985(4) 0.4725(3) 0.8928(3)
H128 H 0.2263 0.4737 0.9026
C146 C 0.1545(3) 0.5152(3) 0.8849(2)
H129 H 0.1529 0.5463 0.8886
C147 C 0.1182(4) 0.4716(3) 0.8658(3)
H130 H 0.0898 0.4707 0.8566
C148 C 0.1617(4) 0.4271(3) 0.8718(3)
H131 H 0.1629 0.3972 0.8658
C149 C -0.1783(3) 0.7624(3) 1.1159(3)
H132 H -0.1932 0.7753 1.0883
H133 H -0.1989 0.7864 1.1369
H134 H -0.1808 0.7292 1.1313
C150 C -0.1207(3) 0.7568(3) 1.1025(2)
C151 C -0.1059(3) 0.7905(2) 1.0644(2)
H135 H -0.1313 0.8132 1.0461
C152 C -0.0510(2) 0.7920(2) 1.05134(18)
C153 C -0.0408(3) 0.8320(2) 1.01140(19)
C154 C 0.0137(3) 0.8197(3) 0.9856(2)
H136 H 0.0415 0.7884 0.9944
C155 C 0.0247(3) 0.8557(3) 0.9469(2)
H137 H 0.0606 0.8474 0.9289
C156 C -0.0618(3) 0.9131(3) 0.9570(2)
H138 H -0.0878 0.9452 0.9470
C157 C -0.0788(3) 0.8792(2) 0.9980(2)
H139 H -0.1151 0.8893 1.0151
C158 C 0.0172(3) 0.7494(3) 1.2120(2)
H140 H 0.0502 0.7484 1.2170
H141 H 0.0004 0.7302 1.2394
H142 H -0.0080 0.7848 1.2062
C159 C 0.0306(3) 0.7268(2) 1.1726(2)
C160 C 0.0837(3) 0.7096(3) 1.1464(2)
H143 H 0.1106 0.7143 1.1545
C161 C 0.0995(3) 0.6857(2) 1.10859(19)
C162 C 0.1569(3) 0.6721(2) 1.0799(2)
C163 C 0.1653(3) 0.6503(3) 1.0425(2)
H144 H 0.1379 0.6451 1.0359
C164 C 0.2198(3) 0.6369(3) 1.0157(2)
H145 H 0.2285 0.6211 0.9906
C165 C 0.2473(3) 0.6649(3) 1.0609(2)
H146 H 0.2749 0.6701 1.0674
C166 C 0.1974(3) 0.6779(2) 1.0891(2)
H147 H 0.1908 0.6911 1.1154
C167 C 0.5583(6) 0.7734(5) 0.4586(5)
H148 H 0.5821 0.7673 0.4771
C168 C 0.5039(6) 0.7966(6) 0.4751(5)
C169 C 0.4840(3) 0.8162(3) 0.5230(2)
C170 C 0.4295(3) 0.8294(3) 0.5440(2)
H149 H 0.4060 0.8252 0.5310
C171 C 0.4093(2) 0.8488(3) 0.5842(2)
H150 H 0.3720 0.8578 0.5986
N2 N 0.4436(3) 0.8550(3) 0.6033(2)
C172 C 0.4981(3) 0.8418(3) 0.5822(3)
H151 H 0.5215 0.8460 0.5953
C173 C 0.5183(2) 0.8224(4) 0.5421(3)
H152 H 0.5555 0.8134 0.5277
C174 C 0.2035(6) 1.1651(6) 0.4575(4)
H153 H 0.2416 1.1610 0.4474
H154 H 0.1806 1.2012 0.4513
H155 H 0.1965 1.1466 0.4408
C175 C 0.1904(6) 1.1430(4) 0.5109(4)
C176 C 0.2312(6) 1.0998(5) 0.5300(4)
H156 H 0.2653 1.0857 0.5104
C177 C 0.2221(6) 1.0765(6) 0.5788(5)
C178 C 0.2699(3) 1.0338(3) 0.5964(2)
C179 C 0.2564(2) 1.0053(3) 0.6395(2)
H157 H 0.2198 1.0146 0.6561
C180 C 0.2963(3) 0.9631(3) 0.6584(2)
H158 H 0.2870 0.9436 0.6878
N3 N 0.3497(3) 0.9495(3) 0.6342(2)
C181 C 0.3633(2) 0.9781(3) 0.5911(2)
H159 H 0.3998 0.9688 0.5745
C182 C 0.3234(3) 1.0202(3) 0.5722(2)
H160 H 0.3326 1.0397 0.5428
C183 C -0.2059(3) 0.8117(3) 0.8543(2)
H161 H -0.2077 0.7909 0.8842
C184 C -0.1579(3) 0.7956(3) 0.8196(2)
C185 C -0.1137(3) 0.7475(3) 0.8312(2)
C186 C -0.0636(3) 0.7370(3) 0.7991(2)
H162 H -0.0585 0.7605 0.7712
C187 C -0.0224(3) 0.6916(3) 0.8098(2)
H163 H 0.0108 0.6847 0.7875
C188 C -0.0699(3) 0.6641(3) 0.8778(2)
H164 H -0.0723 0.6389 0.9048
C189 C -0.1173(3) 0.7101(3) 0.8713(3)
H165 H -0.1502 0.7148 0.8938
Co1 Co 0.44614(4) 0.51575(4) 0.64656(3)
Co2 Co 0.04463(4) 0.58641(3) 0.85988(3)
Co3 Co 0.34052(4) 0.62183(3) 0.97816(3)
Co4 Co 0.11888(4) 0.84828(3) 0.54375(3)
Cr1 Cr -0.19479(5) 0.88877(5) 0.75464(4)
Cr2 Cr 0.11192(5) 1.13340(4) 0.59395(3)
Cr3 Cr 0.15666(5) 0.52632(4) 0.57237(3)
Cr4 Cr 0.47180(4) 0.77548(4) 0.41072(3)
Cr5 Cr 0.65255(5) 0.58415(4) 0.76552(3)
Cr6 Cr 0.35175(5) 0.33643(4) 0.92627(4)
N4 N -0.0466(2) 0.95771(19) 0.84233(17)
N5 N 0.0381(2) 0.8543(2) 0.58508(18)
N6 N 0.0533(3) 0.5740(2) 0.79186(18)
N7 N 0.1340(2) 0.7731(2) 0.53522(18)
N8 N 0.38316(17) 0.50218(15) 0.62958(16)
C190 C 0.3338(2) 0.54154(12) 0.6251(2)
H166 H 0.3272 0.5745 0.6284
C191 C 0.29419(17) 0.53264(15) 0.6157(2)
H167 H 0.2605 0.5595 0.6127
C192 C 0.30391(16) 0.48439(17) 0.61086(17)
C193 C 0.35326(18) 0.44503(13) 0.61535(19)
H168 H 0.3599 0.4121 0.6120
C194 C 0.39289(15) 0.45393(13) 0.62471(19)
H169 H 0.4266 0.4270 0.6278
N9 N 0.4552(3) 0.5667(2) 0.58185(18)
N10 N 0.4414(3) 0.4616(2) 0.71136(18)
N11 N 0.3361(3) 0.54859(19) 0.98244(18)
N12 N 0.4231(3) 0.5984(2) 0.9343(2)
N13 N 0.5064(3) 0.5278(2) 0.66300(16)
N14 N 0.3442(2) 0.6941(2) 0.9762(2)
N15 N 0.0710(2) 0.9528(2) 0.90587(16)
N16 N 0.1021(3) 0.9243(2) 0.5514(2)
N17 N 0.1967(2) 0.8440(2) 0.50221(19)
N18 N 0.0351(2) 1.0066(2) 0.81413(18)
N19 N 0.1127(3) 0.5159(2) 0.87191(17)
N20 N -0.0121(2) 0.90070(19) 0.93378(17)
N21 N 0.2591(2) 0.64463(19) 1.02328(18)
N22 N -0.0243(2) 0.6564(2) 0.84782(17)
O1 O -0.2379(2) 0.9615(2) 0.73076(16)
O2 O -0.16155(18) 0.91173(17) 0.78535(15)
O3 O -0.13409(18) 0.88852(17) 0.70063(15)
O4 O -0.2276(2) 0.8673(2) 0.72215(17)
O5 O 0.1279(2) 0.53151(18) 0.63699(15)
O6 O 0.0875(2) 0.53543(17) 0.56544(15)
O7 O 0.1379(2) 0.59967(17) 0.55832(15)
O8 O 0.1849(2) 0.52370(19) 0.50694(16)
O9 O 0.2265(2) 0.51728(17) 0.57874(15)
O10 O 0.1762(2) 0.45130(18) 0.58831(15)
O11 O 0.4805(2) 0.71068(17) 0.45739(14)
O12 O 0.4744(2) 0.74405(17) 0.36295(14)
O13 O 0.4264(2) 0.28991(18) 0.93170(16)
O14 O 0.3790(2) 0.36514(16) 0.86254(15)
O15 O 0.3556(2) 0.39007(16) 0.94619(14)
O16 O 0.3235(2) 0.30946(17) 0.99103(15)
O17 O 0.6894(2) 0.5143(2) 0.79246(16)
O18 O 0.58985(19) 0.59271(16) 0.81769(14)
O19 O 0.7144(2) 0.5759(2) 0.71159(16)
O20 O 0.6164(2) 0.5618(2) 0.73718(15)
O21 O 0.6851(9) 0.6125(6) 0.7945(7)
O22 O 0.6136(19) 0.6540(13) 0.7388(10)
O23 O 0.3659(2) 0.9312(2) 0.96373(17)
O24 O 0.3085(2) 0.87572(18) 0.96447(18)
O25 O 0.2618(2) 0.9542(2) 1.01257(18)
O26 O 0.2299(2) 0.96251(18) 0.93458(16)
O27 O 0.0402(2) 1.17664(18) 0.58188(15)
O28 O 0.1130(2) 1.07792(18) 0.57228(14)
O29 O 0.4615(2) 0.83956(19) 0.36522(16)
O30 O 0.39352(18) 0.79302(16) 0.43090(15)
O31 O 0.1112(2) 1.18819(18) 0.61760(15)
O32 O 0.0818(2) 1.10308(17) 0.65527(14)
O33 O 0.3440(2) 0.28388(17) 0.90562(17)
O34 O 0.2788(2) 0.38172(17) 0.91909(15)
O35 O -0.0097(2) 0.72435(19) 1.16483(14)
O36 O 0.0677(2) 0.67453(17) 1.09618(14)
O37 O 0.5493(2) 0.75742(19) 0.39331(15)
O38 O 0.4635(6) 0.8087(6) 0.4575(6)
O39 O 0.1410(5) 1.1649(5) 0.5318(5)
O40 O 0.1810(8) 1.0955(7) 0.6079(7)
O41 O -0.2534(2) 0.8890(2) 0.80906(17)
O42 O -0.15178(18) 0.81870(17) 0.77858(14)
O43 O -0.0910(2) 0.72250(17) 1.12996(14)
O44 O -0.01311(18) 0.76193(16) 1.07173(13)
Co5 Co 0.01306(4) 0.95380(3) 0.87330(3)
Cl1 Cl -0.05363(8) 1.02597(6) 0.90748(5)
Cl2 Cl 0.08126(7) 0.88253(6) 0.83672(5)
Cl3 Cl 0.37577(8) 0.58456(7) 0.68544(6)
Cl4 Cl 0.51786(8) 0.44762(7) 0.60940(5)
Cl5 Cl -0.01663(9) 0.54043(8) 0.89231(6)
Cl6 Cl 0.10487(7) 0.63517(6) 0.82691(5)
Cl7 Cl 0.30084(9) 0.65956(6) 0.90983(6)
Cl8 Cl 0.38009(8) 0.58682(7) 1.04505(6)
Cl9 Cl 0.08386(7) 0.88538(6) 0.47389(6)
Cl10 Cl 0.15497(7) 0.80970(7) 0.61396(6)
C195 C -0.2956(5) 0.8704(5) 0.8891(4)
H170 H -0.2933 0.8393 0.9126
H171 H -0.3309 0.8855 0.8810
H172 H -0.2912 0.8946 0.9012
C196 C -0.2509(3) 0.8573(4) 0.8460(3)
Co6 Co 0.41201(7) 0.88576(6) 0.66548(5)
Cl11 Cl 0.47174(13) 0.93314(12) 0.63535(11)
Cl12 Cl 0.35168(12) 0.83669(11) 0.69680(10)
Cr7 Cr -0.01023(5) 0.69785(4) 1.11458(3)
O45 O -0.0052(2) 0.63262(17) 1.15681(14)
O46 O -0.00776(19) 0.67178(16) 1.06349(13)
C197 C 0.0130(4) 0.5447(3) 1.1845(2)
H173 H 0.0190 0.5153 1.1728
H174 H -0.0199 0.5514 1.2089
H175 H 0.0438 0.5375 1.1968
C198 C 0.0068(3) 0.5903(3) 1.1460(2)
C199 C 0.0134(3) 0.5852(3) 1.1017(2)
H176 H 0.0229 0.5518 1.0976
C200 C 0.0078(3) 0.6227(2) 1.0629(2)
C201 C 0.0154(3) 0.6133(2) 1.0168(2)
C202 C 0.0196(3) 0.6510(2) 0.9781(2)
H177 H 0.0159 0.6830 0.9814
C203 C 0.0290(3) 0.6421(2) 0.9345(2)
H178 H 0.0321 0.6682 0.9084
N23 N 0.0338(2) 0.59739(18) 0.92822(16)
C204 C 0.0339(3) 0.5583(2) 0.9656(2)
H179 H 0.0422 0.5252 0.9614
C205 C 0.0219(3) 0.5673(2) 1.0095(2)
H180 H 0.0181 0.5412 1.0354
Cr8 Cr 0.29767(5) 0.94776(4) 0.94883(4)
O47 O 0.28763(16) 1.01991(18) 0.93229(18)
O48 O 0.32963(16) 0.94230(18) 0.88576(16)
C206 C 0.2686(3) 1.1038(3) 0.8888(3)
H181 H 0.2841 1.1198 0.8583
H182 H 0.2794 1.1101 0.9125
H183 H 0.2291 1.1183 0.8938
C207 C 0.2887(2) 1.0478(3) 0.8914(3)
C208 C 0.3071(3) 1.0286(6) 0.8515(6)
H184 H 0.3062 1.0523 0.8231
C209 C 0.3262(2) 0.9786(6) 0.8499(5)
C210 C 0.3456(2) 0.9588(4) 0.8070(3)
C211 C 0.3469(3) 0.9881(5) 0.7639(4)
H185 H 0.3345 1.0239 0.7605
C212 C 0.3655(3) 0.9675(4) 0.7250(4)
H186 H 0.3654 0.9898 0.6958
N24 N 0.3832(3) 0.9185(3) 0.7265(3)
C213 C 0.3829(3) 0.8876(5) 0.7687(4)
H187 H 0.3954 0.8519 0.7711
C214 C 0.3642(3) 0.9076(4) 0.8086(4)
H188 H 0.3644 0.8850 0.8377
C215 C 0.5801(3) 0.7586(3) 0.4171(3)
C216 C 0.6377(3) 0.7366(6) 0.3951(4)
H189 H 0.6447 0.7060 0.3847
H190 H 0.6596 0.7278 0.4173
H191 H 0.6469 0.7616 0.3685
C217 C 0.1702(6) 1.1022(4) 0.7887(5)
H192 H 0.2024 1.1114 0.7772
H193 H 0.1688 1.0868 0.7654
C218 C 0.1738(7) 1.0635(5) 0.8354(5)
H194 H 0.1630 1.0357 0.8365
H195 H 0.2107 1.0487 0.8410
C219 C 0.1342(7) 1.0967(6) 0.8692(5)
H196 H 0.1521 1.0969 0.8915
H197 H 0.1043 1.0847 0.8862
C220 C 0.1122(7) 1.1528(5) 0.8374(4)
H198 H 0.0728 1.1700 0.8485
H199 H 0.1306 1.1739 0.8385
O49 O 0.1226(4) 1.1462(3) 0.7959(3)
C221 C 0.3969(5) 0.2709(3) 0.7136(3)
H200 H 0.3821 0.2506 0.7058
H201 H 0.4368 0.2544 0.7069
O50 O 0.3770(3) 0.2750(3) 0.7586(2)
C222 C 0.3880(5) 0.3189(4) 0.7636(3)
H202 H 0.3626 0.3342 0.7903
H203 H 0.4256 0.3079 0.7664
C223 C 0.3782(6) 0.3542(4) 0.7190(3)
H204 H 0.4065 0.3687 0.7052
H205 H 0.3427 0.3824 0.7240
C224 C 0.3793(6) 0.3242(3) 0.6867(3)
H206 H 0.3432 0.3354 0.6806
H207 H 0.4055 0.3278 0.6571
C225 C 0.2365(6) 0.3659(6) 0.7632(4)
H208 H 0.2550 0.3446 0.7394
H209 H 0.2631 0.3675 0.7763
C226 C 0.1971(6) 0.4171(6) 0.7469(7)
H210 H 0.2099 0.4276 0.7133
H211 H 0.1963 0.4420 0.7622
C227 C 0.1407(6) 0.4193(6) 0.7559(6)
H212 H 0.1134 0.4498 0.7681
H213 H 0.1324 0.4179 0.7280
C228 C 0.1454(5) 0.3728(4) 0.7905(4)
H214 H 0.1184 0.3810 0.8193
H215 H 0.1379 0.3493 0.7796
O51 O 0.1937(3) 0.3509(3) 0.7988(2)
C229 C 0.0235(8) 0.8628(5) 1.0864(5)
H216 H 0.0160 0.8997 1.0771
H217 H -0.0074 0.8573 1.0836
C230 C 0.0749(7) 0.8341(5) 1.0548(5)
H218 H 0.0774 0.7995 1.0562
H219 H 0.0776 0.8528 1.0224
C231 C 0.1153(6) 0.8323(5) 1.0746(5)
H220 H 0.1285 0.8603 1.0582
H221 H 0.1463 0.7993 1.0746
C232 C 0.0832(7) 0.8391(5) 1.1233(4)
H222 H 0.0995 0.8084 1.1455
H223 H 0.0850 0.8685 1.1301
O52 O 0.0286(6) 0.8471(4) 1.1286(3)
loop_
_geom_bond_atom_site_label_1
_geom_bond_atom_site_label_2
_geom_bond_site_symmetry_1
_geom_bond_site_symmetry_2
C1 H1 1_555 1_555
H2 C1 1_555 1_555
H3 C1 1_555 1_555
C2 C1 1_555 1_555
C3 C2 1_555 1_555
H4 C3 1_555 1_555
C4 C3 1_555 1_555
C5 C4 1_555 1_555
C6 C5 1_555 1_555
H5 C6 1_555 1_555
C7 C6 1_555 1_555
H6 C7 1_555 1_555
C8 H7 1_555 1_555
C9 C5 1_555 1_555
H8 C9 1_555 1_555
C10 H9 1_555 1_555
H10 C10 1_555 1_555
H11 C10 1_555 1_555
C11 C10 1_555 1_555
C12 C11 1_555 1_555
H12 C12 1_555 1_555
C13 C12 1_555 1_555
C14 C13 1_555 1_555
C15 C14 1_555 1_555
H13 C15 1_555 1_555
C16 C15 1_555 1_555
H14 C16 1_555 1_555
C17 H15 1_555 1_555
C18 C14 1_555 1_555
H16 C18 1_555 1_555
C19 H17 1_555 1_555
H18 C19 1_555 1_555
H19 C19 1_555 1_555
C20 C19 1_555 1_555
C21 C20 1_555 1_555
C22 C21 1_555 1_555
C23 C22 1_555 1_555
C24 C23 1_555 1_555
H20 C24 1_555 1_555
C25 C24 1_555 1_555
H21 C25 1_555 1_555
C26 H22 1_555 1_555
C27 C23 1_555 1_555
H23 C27 1_555 1_555
C28 H24 1_555 1_555
H25 C28 1_555 1_555
H26 C28 1_555 1_555
C29 C28 1_555 1_555
C30 C29 1_555 1_555
H27 C30 1_555 1_555
C31 C30 1_555 1_555
C32 C31 1_555 1_555
C33 C32 1_555 1_555
H28 C33 1_555 1_555
C34 C33 1_555 1_555
H29 C34 1_555 1_555
C35 H30 1_555 1_555
C36 C32 1_555 1_555
H31 C36 1_555 1_555
C37 H32 1_555 1_555
H33 C37 1_555 1_555
H34 C37 1_555 1_555
C38 C37 1_555 1_555
C39 C38 1_555 1_555
H35 C39 1_555 1_555
C40 C39 1_555 1_555
C41 H36 1_555 1_555
H37 C41 1_555 1_555
H38 C41 1_555 1_555
C42 C41 1_555 1_555
C43 C42 1_555 1_555
H39 C43 1_555 1_555
C44 C43 1_555 1_555
C45 C44 1_555 1_555
C46 C45 1_555 1_555
H40 C46 1_555 1_555
C47 C46 1_555 1_555
H41 C47 1_555 1_555
C48 H42 1_555 1_555
C49 C45 1_555 1_555
H43 C49 1_555 1_555
C50 H44 1_555 1_555
H45 C50 1_555 1_555
H46 C50 1_555 1_555
C51 C50 1_555 1_555
C52 C51 1_555 1_555
H47 C52 1_555 1_555
C53 C52 1_555 1_555
C54 C53 1_555 1_555
C55 C54 1_555 1_555
H48 C55 1_555 1_555
C56 C55 1_555 1_555
H49 C56 1_555 1_555
C57 H50 1_555 1_555
C58 C54 1_555 1_555
H51 C58 1_555 1_555
C59 H52 1_555 1_555
H53 C59 1_555 1_555
H54 C59 1_555 1_555
C60 C59 1_555 1_555
C61 C60 1_555 1_555
H55 C61 1_555 1_555
C62 C61 1_555 1_555
C63 C62 1_555 1_555
C64 C63 1_555 1_555
H56 C64 1_555 1_555
C65 C64 1_555 1_555
H57 C65 1_555 1_555
C66 H58 1_555 1_555
C67 C63 1_555 1_555
H59 C67 1_555 1_555
C68 H60 1_555 1_555
H61 C68 1_555 1_555
H62 C68 1_555 1_555
C69 C68 1_555 1_555
C70 C69 1_555 1_555
H63 C70 1_555 1_555
C71 C70 1_555 1_555
C72 C71 1_555 1_555
C73 C72 1_555 1_555
H64 C73 1_555 1_555
C74 C73 1_555 1_555
H65 C74 1_555 1_555
C75 H66 1_555 1_555
C76 C72 1_555 1_555
H67 C76 1_555 1_555
C77 H68 1_555 1_555
H69 C77 1_555 1_555
H70 C77 1_555 1_555
C78 C77 1_555 1_555
C79 C78 1_555 1_555
H71 C79 1_555 1_555
C80 C79 1_555 1_555
C81 C80 1_555 1_555
C82 C81 1_555 1_555
H72 C82 1_555 1_555
C83 C82 1_555 1_555
H73 C83 1_555 1_555
C84 H74 1_555 1_555
C85 C81 1_555 1_555
H75 C85 1_555 1_555
C86 H76 1_555 1_555
H77 C86 1_555 1_555
H78 C86 1_555 1_555
C87 C86 1_555 1_555
C88 C87 1_555 1_555
H79 C88 1_555 1_555
C89 C88 1_555 1_555
C90 C89 1_555 1_555
C91 C90 1_555 1_555
H80 C91 1_555 1_555
C92 C91 1_555 1_555
H81 C92 1_555 1_555
N1 C92 1_555 1_555
C93 N1 1_555 1_555
H82 C93 1_555 1_555
C94 C90 1_555 1_555
H83 C94 1_555 1_555
C95 H84 1_555 1_555
H85 C95 1_555 1_555
H86 C95 1_555 1_555
C96 C95 1_555 1_555
C97 C96 1_555 1_555
H87 C97 1_555 1_555
C98 C97 1_555 1_555
C99 C98 1_555 1_555
C100 C99 1_555 1_555
H88 C100 1_555 1_555
C101 C100 1_555 1_555
H89 C101 1_555 1_555
C102 H90 1_555 1_555
C103 C99 1_555 1_555
H91 C103 1_555 1_555
C104 H92 1_555 1_555
H93 C104 1_555 1_555
H94 C104 1_555 1_555
C105 C104 1_555 1_555
C106 C105 1_555 1_555
H95 C106 1_555 1_555
C107 C106 1_555 1_555
C108 C107 1_555 1_555
C109 C108 1_555 1_555
H96 C109 1_555 1_555
C110 C109 1_555 1_555
H97 C110 1_555 1_555
C111 H98 1_555 1_555
C112 C108 1_555 1_555
H99 C112 1_555 1_555
C113 H100 1_555 1_555
H101 C113 1_555 1_555
H102 C113 1_555 1_555
C114 C113 1_555 1_555
C115 C114 1_555 1_555
H103 C115 1_555 1_555
C116 C115 1_555 1_555
C117 C116 1_555 1_555
C118 C117 1_555 1_555
H104 C118 1_555 1_555
C119 C118 1_555 1_555
H105 C119 1_555 1_555
C120 H106 1_555 1_555
C121 C117 1_555 1_555
H107 C121 1_555 1_555
C122 H108 1_555 1_555
H109 C122 1_555 1_555
H110 C122 1_555 1_555
C123 C122 1_555 1_555
C124 C123 1_555 1_555
H111 C124 1_555 1_555
C125 C124 1_555 1_555
C126 C125 1_555 1_555
C127 C126 1_555 1_555
H112 C127 1_555 1_555
C128 C127 1_555 1_555
H113 C128 1_555 1_555
C129 H114 1_555 1_555
C130 C126 1_555 1_555
H115 C130 1_555 1_555
C131 H116 1_555 1_555
H117 C131 1_555 1_555
H118 C131 1_555 1_555
C132 C131 1_555 1_555
C133 C132 1_555 1_555
H119 C133 1_555 1_555
C134 C133 1_555 1_555
C135 C134 1_555 1_555
C136 C135 1_555 1_555
H120 C136 1_555 1_555
C137 C136 1_555 1_555
H121 C137 1_555 1_555
C138 H122 1_555 1_555
C139 C135 1_555 1_555
H123 C139 1_555 1_555
C140 H124 1_555 1_555
H125 C140 1_555 1_555
H126 C140 1_555 1_555
C141 C140 1_555 1_555
C142 C141 1_555 1_555
H127 C142 1_555 1_555
C143 C142 1_555 1_555
C144 C143 1_555 1_555
C145 C144 1_555 1_555
H128 C145 1_555 1_555
C146 C145 1_555 1_555
H129 C146 1_555 1_555
C147 H130 1_555 1_555
C148 C144 1_555 1_555
H131 C148 1_555 1_555
C149 H132 1_555 1_555
H133 C149 1_555 1_555
H134 C149 1_555 1_555
C150 C149 1_555 1_555
C151 C150 1_555 1_555
H135 C151 1_555 1_555
C152 C151 1_555 1_555
C153 C152 1_555 1_555
C154 C153 1_555 1_555
H136 C154 1_555 1_555
C155 C154 1_555 1_555
H137 C155 1_555 1_555
C156 H138 1_555 1_555
C157 C153 1_555 1_555
H139 C157 1_555 1_555
C158 H140 1_555 1_555
H141 C158 1_555 1_555
H142 C158 1_555 1_555
C159 C158 1_555 1_555
C160 C159 1_555 1_555
H143 C160 1_555 1_555
C161 C160 1_555 1_555
C162 C161 1_555 1_555
C163 C162 1_555 1_555
H144 C163 1_555 1_555
C164 C163 1_555 1_555
H145 C164 1_555 1_555
C165 H146 1_555 1_555
C166 C162 1_555 1_555
H147 C166 1_555 1_555
C167 H148 1_555 1_555
C168 C167 1_555 1_555
C169 C168 1_555 1_555
C170 C169 1_555 1_555
H149 C170 1_555 1_555
C171 C170 1_555 1_555
H150 C171 1_555 1_555
N2 C171 1_555 1_555
C172 N2 1_555 1_555
H151 C172 1_555 1_555
C173 C169 1_555 1_555
H152 C173 1_555 1_555
C174 H153 1_555 1_555
H154 C174 1_555 1_555
H155 C174 1_555 1_555
C175 C174 1_555 1_555
C176 C175 1_555 1_555
H156 C176 1_555 1_555
C177 C176 1_555 1_555
C178 C177 1_555 1_555
C179 C178 1_555 1_555
H157 C179 1_555 1_555
C180 C179 1_555 1_555
H158 C180 1_555 1_555
N3 C180 1_555 1_555
C181 N3 1_555 1_555
H159 C181 1_555 1_555
C182 C178 1_555 1_555
H160 C182 1_555 1_555
C183 H161 1_555 1_555
C184 C183 1_555 1_555
C185 C184 1_555 1_555
C186 C185 1_555 1_555
H162 C186 1_555 1_555
C187 C186 1_555 1_555
H163 C187 1_555 1_555
C188 H164 1_555 1_555
C189 C185 1_555 1_555
H165 C189 1_555 1_555
Co1 N8 1_555 1_555
Co2 N6 1_555 1_555
Co3 N11 1_555 1_555
Co4 N5 1_555 1_555
Cr1 O1 1_555 1_555
Cr2 O27 1_555 1_555
Cr3 O5 1_555 1_555
Cr4 O11 1_555 1_555
Cr5 O17 1_555 1_555
Cr6 O13 1_555 1_555
N4 C7 1_555 1_555
N5 C16 1_555 1_555
N6 C25 1_555 1_555
N7 C34 1_555 1_555
N8 C190 1_555 1_555
C190 H166 1_555 1_555
C191 C190 1_555 1_555
H167 C191 1_555 1_555
C192 C40 1_555 1_555
C193 C192 1_555 1_555
H168 C193 1_555 1_555
C194 N8 1_555 1_555
H169 C194 1_555 1_555
N9 C47 1_555 1_555
N10 C56 1_555 1_555
N11 C65 1_555 1_555
N12 C74 1_555 1_555
N13 C83 1_555 1_555
N14 C101 1_555 1_555
N15 C110 1_555 1_555
N16 C119 1_555 1_555
N17 C128 1_555 1_555
N18 C137 1_555 1_555
N19 C146 1_555 1_555
N20 C155 1_555 1_555
N21 C164 1_555 1_555
N22 C187 1_555 1_555
O1 C2 1_555 1_555
O2 C4 1_555 1_555
O3 C13 1_555 1_555
O4 C11 1_555 1_555
O5 C22 1_555 1_555
O6 C20 1_555 1_555
O7 C31 1_555 1_555
O8 C29 1_555 1_555
O9 C40 1_555 1_555
O10 C38 1_555 1_555
O11 C44 1_555 1_555
O12 C42 1_555 1_555
O13 C51 1_555 1_555
O14 C53 1_555 1_555
O15 C62 1_555 1_555
O16 C60 1_555 1_555
O17 C69 1_555 1_555
O18 C71 1_555 1_555
O19 C78 1_555 1_555
O20 C80 1_555 1_555
O21 C87 1_555 1_555
O22 C89 1_555 1_555
O23 C96 1_555 1_555
O24 C98 1_555 1_555
O25 C105 1_555 1_555
O26 C107 1_555 1_555
O27 C114 1_555 1_555
O28 C116 1_555 1_555
O29 C123 1_555 1_555
O30 C125 1_555 1_555
O31 C132 1_555 1_555
O32 C134 1_555 1_555
O33 C141 1_555 1_555
O34 C143 1_555 1_555
O35 C159 1_555 1_555
O36 C161 1_555 1_555
O37 Cr4 1_555 1_555
O38 C168 1_555 1_555
O39 C175 1_555 1_555
O40 C177 1_555 1_555
O41 Cr1 1_555 1_555
O42 C184 1_555 1_555
O43 C150 1_555 1_555
O44 C152 1_555 1_555
Co5 N4 1_555 1_555
Cl1 Co5 1_555 1_555
Cl2 Co5 1_555 1_555
Cl3 Co1 1_555 1_555
Cl4 Co1 1_555 1_555
Cl5 Co2 1_555 1_555
Cl6 Co2 1_555 1_555
Cl7 Co3 1_555 1_555
Cl8 Co3 1_555 1_555
Cl9 Co4 1_555 1_555
Cl10 Co4 1_555 1_555
C195 H170 1_555 1_555
H171 C195 1_555 1_555
H172 C195 1_555 1_555
C196 C183 1_555 1_555
Co6 N1 1_555 1_555
Cl11 Co6 1_555 1_555
Cl12 Co6 1_555 1_555
Cr7 O35 1_555 1_555
O45 Cr7 1_555 1_555
O46 Cr7 1_555 1_555
C197 H173 1_555 1_555
H174 C197 1_555 1_555
H175 C197 1_555 1_555
C198 O45 1_555 1_555
C199 C198 1_555 1_555
H176 C199 1_555 1_555
C200 O46 1_555 1_555
C201 C200 1_555 1_555
C202 C201 1_555 1_555
H177 C202 1_555 1_555
C203 C202 1_555 1_555
H178 C203 1_555 1_555
N23 Co2 1_555 1_555
C204 N23 1_555 1_555
H179 C204 1_555 1_555
C205 C201 1_555 1_555
H180 C205 1_555 1_555
Cr8 O23 1_555 1_555
O47 Cr8 1_555 1_555
O48 Cr8 1_555 1_555
C206 H181 1_555 1_555
H182 C206 1_555 1_555
H183 C206 1_555 1_555
C207 O47 1_555 1_555
C208 C207 1_555 1_555
H184 C208 1_555 1_555
C209 O48 1_555 1_555
C210 C209 1_555 1_555
C211 C210 1_555 1_555
H185 C211 1_555 1_555
C212 C211 1_555 1_555
H186 C212 1_555 1_555
N24 Co6 1_555 1_555
C213 N24 1_555 1_555
H187 C213 1_555 1_555
C214 C210 1_555 1_555
H188 C214 1_555 1_555
C215 C167 1_555 1_555
C216 C215 1_555 1_555
H189 C216 1_555 1_555
H190 C216 1_555 1_555
H191 C216 1_555 1_555
C217 H192 1_555 1_555
H193 C217 1_555 1_555
C218 C217 1_555 1_555
H194 C218 1_555 1_555
H195 C218 1_555 1_555
C219 C218 1_555 1_555
H196 C219 1_555 1_555
H197 C219 1_555 1_555
C220 C219 1_555 1_555
H198 C220 1_555 1_555
H199 C220 1_555 1_555
O49 C217 1_555 1_555
C221 H200 1_555 1_555
H201 C221 1_555 1_555
O50 C221 1_555 1_555
C222 O50 1_555 1_555
H202 C222 1_555 1_555
H203 C222 1_555 1_555
C223 C222 1_555 1_555
H204 C223 1_555 1_555
H205 C223 1_555 1_555
C224 C221 1_555 1_555
H206 C224 1_555 1_555
H207 C224 1_555 1_555
C225 H208 1_555 1_555
H209 C225 1_555 1_555
C226 C225 1_555 1_555
H210 C226 1_555 1_555
H211 C226 1_555 1_555
C227 C226 1_555 1_555
H212 C227 1_555 1_555
H213 C227 1_555 1_555
C228 C227 1_555 1_555
H214 C228 1_555 1_555
H215 C228 1_555 1_555
O51 C225 1_555 1_555
C229 H216 1_555 1_555
H217 C229 1_555 1_555
C230 C229 1_555 1_555
H218 C230 1_555 1_555
H219 C230 1_555 1_555
C231 C230 1_555 1_555
H220 C231 1_555 1_555
H221 C231 1_555 1_555
C232 C231 1_555 1_555
H222 C232 1_555 1_555
H223 C232 1_555 1_555
O52 C229 1_555 1_555
C8 C9 1_555 1_555
C8 N4 1_555 1_555
C17 C18 1_555 1_555
C17 N5 1_555 1_555
C26 C27 1_555 1_555
C26 N6 1_555 1_555
C35 C36 1_555 1_555
C35 N7 1_555 1_555
C48 C49 1_555 1_555
C48 N9 1_555 1_555
C57 C58 1_555 1_555
C57 N10 1_555 1_555
C66 C67 1_555 1_555
C66 N11 1_555 1_555
C75 C76 1_555 1_555
C75 N12 1_555 1_555
C84 C85 1_555 1_555
C84 N13 1_555 1_555
C93 C94 1_555 1_555
C102 C103 1_555 1_555
C102 N14 1_555 1_555
C111 C112 1_555 1_555
C111 N15 1_555 1_555
C120 C121 1_555 1_555
C120 N16 1_555 1_555
C129 C130 1_555 1_555
C129 N17 1_555 1_555
C138 C139 1_555 1_555
C138 N18 1_555 1_555
C147 C148 1_555 1_555
C147 N19 1_555 1_555
C156 C157 1_555 1_555
C156 N20 1_555 1_555
C165 C166 1_555 1_555
C165 N21 1_555 1_555
N2 Co6 1_555 1_555
C172 C173 1_555 1_555
N3 Co6 1_555 1_555
C181 C182 1_555 1_555
C188 C189 1_555 1_555
C188 N22 1_555 1_555
Co1 N9 1_555 1_555
Co1 N10 1_555 1_555
Co1 N13 1_555 1_555
Co2 N19 1_555 1_555
Co2 N22 1_555 1_555
Co3 N12 1_555 1_555
Co3 N14 1_555 1_555
Co3 N21 1_555 1_555
Co4 N7 1_555 1_555
Co4 N16 1_555 1_555
Co4 N17 1_555 1_555
Cr1 O2 1_555 1_555
Cr1 O3 1_555 1_555
Cr1 O4 1_555 1_555
Cr1 O42 1_555 1_555
Cr2 O28 1_555 1_555
Cr2 O31 1_555 1_555
Cr2 O32 1_555 1_555
Cr2 O39 1_555 1_555
Cr2 O40 1_555 1_555
Cr3 O6 1_555 1_555
Cr3 O7 1_555 1_555
Cr3 O8 1_555 1_555
Cr3 O9 1_555 1_555
Cr3 O10 1_555 1_555
Cr4 O12 1_555 1_555
Cr4 O29 1_555 1_555
Cr4 O30 1_555 1_555
Cr4 O38 1_555 1_555
Cr5 O18 1_555 1_555
Cr5 O19 1_555 1_555
Cr5 O20 1_555 1_555
Cr5 O21 1_555 1_555
Cr5 O22 1_555 1_555
Cr6 O14 1_555 1_555
Cr6 O15 1_555 1_555
Cr6 O16 1_555 1_555
Cr6 O33 1_555 1_555
Cr6 O34 1_555 1_555
C191 C192 1_555 1_555
C193 C194 1_555 1_555
N15 Co5 1_555 1_555
N18 Co5 1_555 1_555
N20 Co5 1_555 1_555
O24 Cr8 1_555 1_555
O25 Cr8 1_555 1_555
O26 Cr8 1_555 1_555
O36 Cr7 1_555 1_555
O37 C215 1_555 1_555
O41 C196 1_555 1_555
O43 Cr7 1_555 1_555
O44 Cr7 1_555 1_555
C195 C196 1_555 1_555
C197 C198 1_555 1_555
C199 C200 1_555 1_555
C203 N23 1_555 1_555
C204 C205 1_555 1_555
C206 C207 1_555 1_555
C208 C209 1_555 1_555
C212 N24 1_555 1_555
C213 C214 1_555 1_555
C220 O49 1_555 1_555
C223 C224 1_555 1_555
C228 O51 1_555 1_555
C232 O52 1_555 1_555

#END
