
#######################################################################
#
#                 Cambridge Crystallographic Data Centre
#                                CCDC 
#
#######################################################################
#
# If this CIF has been generated from an entry in the Cambridge 
# Structural Database, then it will include bibliographic, chemical, 
# crystal, experimental, refinement or atomic coordinate data resulting 
# from the CCDC's data processing and validation procedures.
#
#######################################################################

data_ULEGID
_chemical_formula_moiety         'C228 H192 Co6 Cr8 N36 O48 S12'
_chemical_name_systematic        
'tetracosakis(\m~2~-4-Oxo-4-(pyridin-4-yl)buten-2-olato)-dodecakis(isothiocyanato)-octa-chromium(iii)-hexa-cobalt(ii) unknown solvate'
_symmetry_cell_setting           tetragonal
_symmetry_space_group_name_H-M   'I 41 2 2'
_symmetry_Int_Tables_number      98
_space_group_name_Hall           'I 4bw 2bw'
loop_
_symmetry_equiv_pos_site_id
_symmetry_equiv_pos_as_xyz
1 x,y,z
2 -y,1/2+x,1/4+z
3 -x,-y,z
4 y,1/2-x,1/4+z
5 x,1/2-y,1/4-z
6 -x,1/2+y,1/4-z
7 y,x,-z
8 -y,-x,-z
9 1/2+x,1/2+y,1/2+z
10 1/2-y,x,3/4+z
11 1/2-x,1/2-y,1/2+z
12 1/2+y,-x,3/4+z
13 1/2+x,-y,3/4-z
14 1/2-x,y,3/4-z
15 1/2+y,1/2+x,1/2-z
16 1/2-y,1/2-x,1/2-z
_cell_length_a                   41.7282(5)
_cell_length_b                   41.7282(5)
_cell_length_c                   30.6665(7)
_cell_angle_alpha                90
_cell_angle_beta                 90
_cell_angle_gamma                90
_cell_volume                     53397.8
_exptl_crystal_colour            'light brown'
_exptl_crystal_description       prism
_cell_formula_units_Z            4
loop_
_atom_site_label
_atom_site_type_symbol
_atom_site_fract_x
_atom_site_fract_y
_atom_site_fract_z
Co1 Co -1.40911(2) -0.90142(2) -0.57588(2)
Co2 Co -1.63102(2) -0.86898(2) -0.7500
Cr1 Cr -1.24227(2) -0.95763(2) -0.74182(3)
Cr2 Cr -1.60746(2) -0.90049(2) -0.46466(2)
S1 S -1.46523(7) -0.96436(6) -0.68499(7)
S2 S -1.36697(6) -0.83287(8) -0.46191(11)
S3 S -1.54734(5) -0.95266(5) -0.7500
S4 S -1.71756(8) -0.78244(8) -0.7500
O1 O -1.21326(6) -0.97255(7) -0.78733(11)
O2 O -1.27173(6) -0.94112(6) -0.78751(10)
O3 O -1.21883(6) -0.91487(9) -0.74037(9)
O4 O -1.27277(6) -0.94422(7) -0.69981(8)
O5 O -1.21443(7) -0.97443(9) -0.69533(10)
O6 O -1.26691(6) -0.99828(7) -0.74645(11)
O7 O -1.59547(9) -0.91209(8) -0.40627(9)
O8 O -1.56187(7) -0.89700(7) -0.48148(8)
O9 O -1.61065(7) -0.85583(8) -0.44734(10)
O10 O -1.61811(6) -0.88964(7) -0.52268(8)
O11 O -1.65458(7) -0.90402(7) -0.45004(9)
O12 O -1.60646(7) -0.94496(7) -0.48345(8)
N1 N -1.35485(9) -0.92052(9) -0.89258(13)
N2 N -1.36536(8) -0.90434(9) -0.61395(12)
N3 N -1.33145(9) -1.09309(11) -0.73938(12)
N4 N -1.45180(9) -0.90199(9) -0.53567(13)
N5 N -1.62399(9) -0.86555(11) -0.67704(11)
N6 N -1.60490(9) -1.05529(9) -0.54727(11)
N7 N -1.43235(9) -0.92617(9) -0.62613(13)
N8 N -1.38542(9) -0.87763(10) -0.52644(13)
N9 N -1.59626(10) -0.90374(10) -0.7500
N10 N -1.66538(12) -0.83462(12) -0.7500
C1 C -1.19025(13) -0.99195(16) -0.84894(17)
H1 H -1.1720 -0.9772 -0.8495
H2 H -1.1952 -0.9989 -0.8787
H3 H -1.1849 -1.0106 -0.8311
C2 C -1.21864(11) -0.97539(10) -0.82995(17)
C3 C -1.24673(11) -0.96686(12) -0.85173(16)
H4 H -1.2499 -0.9717 -0.8817
C4 C -1.27159(9) -0.94966(9) -0.82559(16)
C5 C -1.30023(11) -0.93907(11) -0.84957(16)
C6 C -1.32502(10) -0.92910(10) -0.82652(15)
H5 H -1.3244 -0.9286 -0.7956
C7 C -1.35377(11) -0.91871(13) -0.85097(16)
H6 H -1.3717 -0.9106 -0.8355
C8 C -1.33185(12) -0.93127(11) -0.91691(16)
H7 H -1.3337 -0.9328 -0.9477
C9 C -1.30361(10) -0.94059(9) -0.89432(15)
H8 H -1.2860 -0.9483 -0.9110
C10 C -1.21043(11) -0.86218(12) -0.72603(19)
H9 H -1.1875 -0.8670 -0.7273
H10 H -1.2146 -0.8475 -0.7017
H11 H -1.2171 -0.8521 -0.7534
C11 C -1.22853(12) -0.89200(13) -0.71956(14)
C12 C -1.25736(11) -0.89033(11) -0.69506(14)
H12 H -1.2636 -0.8701 -0.6837
C13 C -1.27673(10) -0.91628(13) -0.68689(13)
C14 C -1.30654(9) -0.91021(9) -0.66079(10)
C15 C -1.31401(11) -0.88420(11) -0.63472(13)
H13 H -1.2986 -0.8676 -0.6316
C16 C -1.34246(11) -0.88134(11) -0.61332(12)
H14 H -1.3464 -0.8623 -0.5972
C17 C -1.36032(10) -0.92840(10) -0.64111(14)
H15 H -1.3770 -0.9434 -0.6464
C18 C -1.33133(11) -0.93203(12) -0.66190(14)
H16 H -1.3281 -0.9511 -0.6783
C19 C -1.19536(12) -1.00841(14) -0.63947(15)
H17 H -1.1744 -1.0128 -0.6526
H18 H -1.2027 -1.0273 -0.6233
H19 H -1.1935 -0.9902 -0.6195
C20 C -1.21893(11) -1.00063(14) -0.67439(17)
C21 C -1.23777(10) -1.02805(12) -0.68606(13)
H20 H -1.2345 -1.0489 -0.6745
C22 C -1.26388(11) -1.01978(13) -0.71941(16)
C23 C -1.28574(10) -1.04962(12) -0.72461(14)
C24 C -1.28435(11) -1.07662(12) -0.70627(17)
H21 H -1.2666 -1.0810 -0.6879
C25 C -1.30602(14) -1.09887(13) -0.71119(18)
H22 H -1.3045 -1.1186 -0.6958
C26 C -1.33531(10) -1.06673(12) -0.75879(14)
H23 H -1.3541 -1.0622 -0.7752
C27 C -1.31177(12) -1.04574(12) -0.75498(17)
H24 H -1.3120 -1.0273 -0.7731
C28 C -1.56401(15) -0.93260(12) -0.34556(11)
H25 H -1.5779 -0.9206 -0.3256
H26 H -1.5416 -0.9296 -0.3371
H27 H -1.5695 -0.9554 -0.3442
C29 C -1.56889(14) -0.92043(10) -0.39179(13)
C30 C -1.54090(14) -0.91875(12) -0.41920(15)
H28 H -1.5218 -0.9277 -0.4075
C31 C -1.53851(11) -0.90546(10) -0.46102(14)
C32 C -1.50766(11) -0.90333(9) -0.48606(16)
C33 C -1.50622(13) -0.89867(14) -0.52910(17)
H29 H -1.5260 -0.8945 -0.5433
C34 C -1.48075(12) -0.89919(12) -0.55417(15)
H30 H -1.4828 -0.8976 -0.5849
C35 C -1.45365(12) -0.90670(12) -0.49347(18)
H31 H -1.4340 -0.9092 -0.4782
C36 C -1.47873(12) -0.90828(12) -0.47132(18)
H32 H -1.4766 -0.9135 -0.4413
C37 C -1.6024(2) -0.79896(13) -0.4567(2)
H33 H -1.6198 -0.7839 -0.4632
H34 H -1.5823 -0.7909 -0.4690
H35 H -1.6002 -0.8011 -0.4250
C38 C -1.60998(17) -0.83129(15) -0.4763(2)
C39 C -1.61466(17) -0.83179(14) -0.5241(2)
H36 H -1.6163 -0.8130 -0.5414
C40 C -1.61644(12) -0.86280(13) -0.54125(14)
C41 C -1.61906(12) -0.86149(13) -0.59048(14)
C42 C -1.62562(13) -0.83695(12) -0.61917(19)
H37 H -1.6276 -0.8165 -0.6058
C43 C -1.62956(12) -0.83658(13) -0.66062(17)
H38 H -1.6356 -0.8183 -0.6772
C44 C -1.61776(10) -0.89076(12) -0.65391(14)
H39 H -1.6139 -0.9100 -0.6697
C45 C -1.61618(11) -0.89287(12) -0.61238(13)
H40 H -1.6134 -0.9125 -0.5972
C46 C -1.70731(11) -0.92333(10) -0.45366(16)
H41 H -1.7147 -0.9043 -0.4695
H42 H -1.7104 -0.9201 -0.4223
H43 H -1.7196 -0.9421 -0.4632
C47 C -1.67210(12) -0.92869(12) -0.46289(15)
C48 C -1.66033(10) -0.95545(10) -0.48444(12)
H44 H -1.6761 -0.9699 -0.4950
C49 C -1.63139(11) -0.96346(11) -0.49216(15)
C50 C -1.62210(9) -0.99443(11) -0.50726(13)
C51 C -1.64263(10) -1.02091(10) -0.50879(15)
H45 H -1.6634 -1.0200 -0.4963
C52 C -1.63120(12) -1.04973(11) -0.52999(15)
H46 H -1.6461 -1.0670 -0.5308
C53 C -1.58582(11) -1.02938(11) -0.54623(14)
H47 H -1.5658 -1.0318 -0.5605
C54 C -1.59102(10) -0.99909(11) -0.52718(12)
H48 H -1.5751 -0.9828 -0.5274
C55 C -1.44778(13) -0.94019(12) -0.64991(18)
C56 C -1.37614(14) -0.86055(18) -0.4984(2)
C57 C -1.57491(14) -0.92509(14) -0.7500
C58 C -1.6862(2) -0.8138(2) -0.7500
Co1B Co -1.59089(2) -1.09858(2) -0.57588(2)
Co2B Co -1.36898(2) -1.13102(2) -0.7500
Cr1B Cr -1.75773(2) -1.04237(2) -0.74182(3)
Cr2B Cr -1.39254(2) -1.09951(2) -0.46466(2)
S1B S -1.53477(7) -1.03564(6) -0.68499(7)
S2B S -1.63303(6) -1.16713(8) -0.46191(11)
S3B S -1.45266(5) -1.04734(5) -0.7500
S4B S -1.28244(8) -1.21756(8) -0.7500
O1B O -1.78674(6) -1.02745(7) -0.78733(11)
O2B O -1.72827(6) -1.05888(6) -0.78751(10)
O3B O -1.78117(6) -1.08513(9) -0.74037(9)
O4B O -1.72723(6) -1.05578(7) -0.69981(8)
O5B O -1.78557(7) -1.02557(9) -0.69533(10)
O6B O -1.73309(6) -1.00172(7) -0.74645(11)
O7B O -1.40453(9) -1.08791(8) -0.40627(9)
O8B O -1.43813(7) -1.10300(7) -0.48148(8)
O9B O -1.38935(7) -1.14417(8) -0.44734(10)
O10B O -1.38189(6) -1.11036(7) -0.52268(8)
O11B O -1.34542(7) -1.09598(7) -0.45004(9)
O12B O -1.39354(7) -1.05504(7) -0.48345(8)
N1B N -1.64515(9) -1.07948(9) -0.89258(13)
N2B N -1.63464(8) -1.09566(9) -0.61395(12)
N3B N -1.66855(9) -0.90691(11) -0.73938(12)
N4B N -1.54820(9) -1.09801(9) -0.53567(13)
N5B N -1.37601(9) -1.13445(11) -0.67704(11)
N6B N -1.39510(9) -0.94471(9) -0.54727(11)
N7B N -1.56765(9) -1.07383(9) -0.62613(13)
N8B N -1.61458(9) -1.12237(10) -0.52644(13)
N9B N -1.40374(10) -1.09626(10) -0.7500
N10B N -1.33462(12) -1.16538(12) -0.7500
C1B C -1.80975(13) -1.00805(16) -0.84894(17)
H1B H -1.8280 -1.0228 -0.8495
H2B H -1.8048 -1.0011 -0.8787
H3B H -1.8151 -0.9894 -0.8311
C2B C -1.78136(11) -1.02461(10) -0.82995(17)
C3B C -1.75327(11) -1.03314(12) -0.85173(16)
H4B H -1.7501 -1.0283 -0.8817
C4B C -1.72841(9) -1.05034(9) -0.82559(16)
C5B C -1.69977(11) -1.06093(11) -0.84957(16)
C6B C -1.67498(10) -1.07090(10) -0.82652(15)
H5B H -1.6756 -1.0714 -0.7956
C7B C -1.64623(11) -1.08129(13) -0.85097(16)
H6B H -1.6283 -1.0894 -0.8355
C8B C -1.66815(12) -1.06873(11) -0.91691(16)
H7B H -1.6663 -1.0672 -0.9477
C9B C -1.69639(10) -1.05941(9) -0.89432(15)
H8B H -1.7140 -1.0517 -0.9110
C10B C -1.78957(11) -1.13782(12) -0.72603(19)
H9B H -1.8125 -1.1330 -0.7273
H10B H -1.7854 -1.1525 -0.7017
H11B H -1.7829 -1.1479 -0.7534
C11B C -1.77147(12) -1.10800(13) -0.71956(14)
C12B C -1.74264(11) -1.10967(11) -0.69506(14)
H12B H -1.7364 -1.1299 -0.6837
C13B C -1.72327(10) -1.08372(13) -0.68689(13)
C14B C -1.69346(9) -1.08979(9) -0.66079(10)
C15B C -1.68599(11) -1.11580(11) -0.63472(13)
H13B H -1.7014 -1.1324 -0.6316
C16B C -1.65754(11) -1.11866(11) -0.61332(12)
H14B H -1.6536 -1.1377 -0.5972
C17B C -1.63968(10) -1.07160(10) -0.64111(14)
H15B H -1.6230 -1.0566 -0.6464
C18B C -1.66867(11) -1.06797(12) -0.66190(14)
H16B H -1.6719 -1.0489 -0.6783
C19B C -1.80464(12) -0.99159(14) -0.63947(15)
H17B H -1.8256 -0.9872 -0.6526
H18B H -1.7973 -0.9727 -0.6233
H19B H -1.8065 -1.0098 -0.6195
C20B C -1.78107(11) -0.99937(14) -0.67439(17)
C21B C -1.76223(10) -0.97195(12) -0.68606(13)
H20B H -1.7655 -0.9511 -0.6745
C22B C -1.73612(11) -0.98022(13) -0.71941(16)
C23B C -1.71426(10) -0.95038(12) -0.72461(14)
C24B C -1.71565(11) -0.92338(12) -0.70627(17)
H21B H -1.7334 -0.9190 -0.6879
C25B C -1.69398(14) -0.90113(13) -0.71119(18)
H22B H -1.6955 -0.8814 -0.6958
C26B C -1.66469(10) -0.93327(12) -0.75879(14)
H23B H -1.6459 -0.9378 -0.7752
C27B C -1.68823(12) -0.95426(12) -0.75498(17)
H24B H -1.6880 -0.9727 -0.7731
C28B C -1.43599(15) -1.06740(12) -0.34556(11)
H25B H -1.4221 -1.0794 -0.3256
H26B H -1.4584 -1.0704 -0.3371
H27B H -1.4305 -1.0446 -0.3442
C29B C -1.43111(14) -1.07957(10) -0.39179(13)
C30B C -1.45910(14) -1.08125(12) -0.41920(15)
H28B H -1.4782 -1.0723 -0.4075
C31B C -1.46149(11) -1.09454(10) -0.46102(14)
C32B C -1.49234(11) -1.09667(9) -0.48606(16)
C33B C -1.49378(13) -1.10133(14) -0.52910(17)
H29B H -1.4740 -1.1055 -0.5433
C34B C -1.51925(12) -1.10081(12) -0.55417(15)
H30B H -1.5172 -1.1024 -0.5849
C35B C -1.54635(12) -1.09330(12) -0.49347(18)
H31B H -1.5660 -1.0908 -0.4782
C36B C -1.52127(12) -1.09172(12) -0.47132(18)
H32B H -1.5234 -1.0865 -0.4413
C37B C -1.3976(2) -1.20104(13) -0.4567(2)
H33B H -1.3802 -1.2161 -0.4632
H34B H -1.4177 -1.2091 -0.4690
H35B H -1.3998 -1.1989 -0.4250
C38B C -1.39002(17) -1.16871(15) -0.4763(2)
C39B C -1.38534(17) -1.16821(14) -0.5241(2)
H36B H -1.3837 -1.1870 -0.5414
C40B C -1.38356(12) -1.13720(13) -0.54125(14)
C41B C -1.38094(12) -1.13851(13) -0.59048(14)
C42B C -1.37438(13) -1.16305(12) -0.61917(19)
H37B H -1.3724 -1.1835 -0.6058
C43B C -1.37044(12) -1.16342(13) -0.66062(17)
H38B H -1.3644 -1.1817 -0.6772
C44B C -1.38224(10) -1.10924(12) -0.65391(14)
H39B H -1.3861 -1.0900 -0.6697
C45B C -1.38382(11) -1.10713(12) -0.61238(13)
H40B H -1.3866 -1.0875 -0.5972
C46B C -1.29269(11) -1.07667(10) -0.45366(16)
H41B H -1.2853 -1.0957 -0.4695
H42B H -1.2896 -1.0799 -0.4223
H43B H -1.2804 -1.0579 -0.4632
C47B C -1.32790(12) -1.07131(12) -0.46289(15)
C48B C -1.33967(10) -1.04455(10) -0.48444(12)
H44B H -1.3239 -1.0301 -0.4950
C49B C -1.36861(11) -1.03654(11) -0.49216(15)
C50B C -1.37790(9) -1.00557(11) -0.50726(13)
C51B C -1.35737(10) -0.97909(10) -0.50879(15)
H45B H -1.3366 -0.9800 -0.4963
C52B C -1.36880(12) -0.95027(11) -0.52999(15)
H46B H -1.3539 -0.9330 -0.5308
C53B C -1.41418(11) -0.97062(11) -0.54623(14)
H47B H -1.4342 -0.9682 -0.5605
C54B C -1.40898(10) -1.00091(11) -0.52718(12)
H48B H -1.4249 -1.0172 -0.5274
C55B C -1.55222(13) -1.05981(12) -0.64991(18)
C56B C -1.62386(14) -1.13945(18) -0.4984(2)
C57B C -1.42509(14) -1.07491(14) -0.7500
C58B C -1.3138(2) -1.1862(2) -0.7500
Co1N Co -1.40142(2) -0.90911(2) -0.92412(2)
Cr1N Cr -1.45763(2) -0.74227(2) -0.75818(3)
Cr2N Cr -1.40049(2) -1.10746(2) -1.03534(2)
S1N S -1.46436(6) -0.96523(7) -0.81501(7)
S2N S -1.33287(8) -0.86697(6) -1.03809(11)
O1N O -1.47255(7) -0.71326(6) -0.71267(11)
O2N O -1.44112(6) -0.77173(6) -0.71249(10)
O3N O -1.41487(9) -0.71883(6) -0.75963(9)
O4N O -1.44422(7) -0.77277(6) -0.80019(8)
O5N O -1.47443(9) -0.71443(7) -0.80467(10)
O6N O -1.49828(7) -0.76691(6) -0.75355(11)
O7N O -1.41209(8) -1.09547(9) -1.09373(9)
O8N O -1.39700(7) -1.06187(7) -1.01852(8)
O9N O -1.35583(8) -1.11065(7) -1.05266(10)
O10N O -1.38964(7) -1.11811(6) -0.97732(8)
O11N O -1.40402(7) -1.15458(7) -1.04996(9)
O12N O -1.44496(7) -1.10646(7) -1.01655(8)
N1N N -1.42052(9) -0.85485(9) -0.60742(13)
N2N N -1.40434(9) -0.86536(8) -0.88605(12)
N3N N -1.59309(11) -0.83145(9) -0.76062(12)
N4N N -1.40199(9) -0.95180(9) -0.96433(13)
N5N N -1.36555(11) -1.12399(9) -0.82296(11)
N6N N -1.55529(9) -1.10490(9) -0.95273(11)
N7N N -1.42617(9) -0.93235(9) -0.87387(13)
N8N N -1.37763(10) -0.88542(9) -0.97356(13)
C1N C -1.49195(16) -0.69025(13) -0.65106(17)
H1N H -1.4772 -0.6720 -0.6505
H2N H -1.4989 -0.6952 -0.6213
H3N H -1.5106 -0.6849 -0.6689
C2N C -1.47539(10) -0.71864(11) -0.67005(17)
C3N C -1.46686(12) -0.74673(11) -0.64827(16)
H4N H -1.4717 -0.7499 -0.6183
C4N C -1.44966(9) -0.77159(9) -0.67441(16)
C5N C -1.43907(11) -0.80023(11) -0.65043(16)
C6N C -1.42910(10) -0.82502(10) -0.67348(15)
H5N H -1.4286 -0.8244 -0.7044
C7N C -1.41871(13) -0.85377(11) -0.64903(16)
H6N H -1.4106 -0.8717 -0.6645
C8N C -1.43127(11) -0.83185(12) -0.58309(16)
H7N H -1.4328 -0.8337 -0.5523
C9N C -1.44059(9) -0.80361(10) -0.60568(15)
H8N H -1.4483 -0.7860 -0.5890
C10N C -1.36218(12) -0.71043(11) -0.77397(19)
H9N H -1.3670 -0.6875 -0.7727
H10N H -1.3475 -0.7146 -0.7983
H11N H -1.3521 -0.7171 -0.7466
C11N C -1.39200(13) -0.72853(12) -0.78044(14)
C12N C -1.39033(11) -0.75736(11) -0.80494(14)
H12N H -1.3701 -0.7636 -0.8163
C13N C -1.41628(13) -0.77673(10) -0.81311(13)
C14N C -1.41021(9) -0.80654(9) -0.83921(10)
C15N C -1.38420(11) -0.81401(11) -0.86528(13)
H13N H -1.3676 -0.7986 -0.8684
C16N C -1.38134(11) -0.84246(11) -0.88668(12)
H14N H -1.3623 -0.8464 -0.9028
C17N C -1.42840(10) -0.86032(10) -0.85889(14)
H15N H -1.4434 -0.8770 -0.8536
C18N C -1.43203(12) -0.83133(11) -0.83810(14)
H16N H -1.4511 -0.8281 -0.8217
C19N C -1.50841(14) -0.69536(12) -0.86053(15)
H17N H -1.5128 -0.6744 -0.8474
H18N H -1.5273 -0.7027 -0.8767
H19N H -1.4902 -0.6935 -0.8805
C20N C -1.50063(14) -0.71893(11) -0.82561(17)
C21N C -1.52805(12) -0.73777(10) -0.81394(13)
H20N H -1.5489 -0.7345 -0.8255
C22N C -1.51978(13) -0.76388(11) -0.78059(16)
C23N C -1.54962(12) -0.78574(10) -0.77539(14)
C24N C -1.57662(12) -0.78435(11) -0.79373(17)
H21N H -1.5810 -0.7666 -0.8121
C25N C -1.59887(13) -0.80602(14) -0.78881(18)
H22N H -1.6186 -0.8045 -0.8042
C26N C -1.56673(12) -0.83531(10) -0.74121(14)
H23N H -1.5622 -0.8541 -0.7248
C27N C -1.54574(12) -0.81177(12) -0.74502(17)
H24N H -1.5273 -0.8120 -0.7269
C28N C -1.43260(12) -1.06401(15) -1.15444(11)
H25N H -1.4206 -1.0779 -1.1744
H26N H -1.4296 -1.0416 -1.1629
H27N H -1.4554 -1.0695 -1.1558
C29N C -1.42043(10) -1.06889(14) -1.10821(13)
C30N C -1.41875(12) -1.04090(14) -1.08080(15)
H28N H -1.4277 -1.0218 -1.0925
C31N C -1.40546(10) -1.03851(11) -1.03898(14)
C32N C -1.40333(9) -1.00766(11) -1.01394(16)
C33N C -1.39867(14) -1.00622(13) -0.97090(17)
H29N H -1.3945 -1.0260 -0.9567
C34N C -1.39919(12) -0.98075(12) -0.94583(15)
H30N H -1.3976 -0.9828 -0.9151
C35N C -1.40670(12) -0.95365(12) -1.00653(18)
H31N H -1.4092 -0.9340 -1.0218
C36N C -1.40828(12) -0.97873(12) -1.02868(18)
H32N H -1.4135 -0.9766 -1.0587
C37N C -1.29896(13) -1.1024(2) -1.0433(2)
H33N H -1.2839 -1.1198 -1.0368
H34N H -1.2909 -1.0823 -1.0310
H35N H -1.3011 -1.1002 -1.0750
C38N C -1.33129(15) -1.10998(17) -1.0237(2)
C39N C -1.33179(14) -1.11466(17) -0.9759(2)
H36N H -1.3130 -1.1163 -0.9586
C40N C -1.36280(13) -1.11644(12) -0.95875(14)
C41N C -1.36149(13) -1.11906(12) -0.90952(14)
C42N C -1.33695(12) -1.12562(13) -0.88083(19)
H37N H -1.3165 -1.1276 -0.8942
C43N C -1.33658(13) -1.12956(12) -0.83938(17)
H38N H -1.3183 -1.1356 -0.8228
C44N C -1.39076(12) -1.11776(10) -0.84609(14)
H39N H -1.4100 -1.1139 -0.8303
C45N C -1.39287(12) -1.11618(11) -0.88762(13)
H40N H -1.4125 -1.1134 -0.9028
C46N C -1.42333(10) -1.20731(11) -1.04634(16)
H41N H -1.4043 -1.2147 -1.0305
H42N H -1.4201 -1.2104 -1.0777
H43N H -1.4421 -1.2196 -1.0368
C47N C -1.42869(12) -1.17210(12) -1.03711(15)
C48N C -1.45545(10) -1.16033(10) -1.01556(12)
H44N H -1.4699 -1.1761 -1.0050
C49N C -1.46346(11) -1.13139(11) -1.00784(15)
C50N C -1.49443(11) -1.12210(9) -0.99274(13)
C51N C -1.52091(10) -1.14263(10) -0.99121(15)
H45N H -1.5200 -1.1634 -1.0037
C52N C -1.54973(11) -1.13120(12) -0.97001(15)
H46N H -1.5670 -1.1461 -0.9692
C53N C -1.52938(11) -1.08582(11) -0.95377(14)
H47N H -1.5318 -1.0658 -0.9395
C54N C -1.49909(11) -1.09102(10) -0.97282(12)
H48N H -1.4828 -1.0751 -0.9726
C55N C -1.44019(12) -0.94778(13) -0.85009(18)
C56N C -1.36055(18) -0.87614(14) -1.0016(2)
Co1O Co -1.59858(2) -1.09089(2) -0.92412(2)
Cr1O Cr -1.54237(2) -1.25773(2) -0.75818(3)
Cr2O Cr -1.59951(2) -0.89254(2) -1.03534(2)
S1O S -1.53564(6) -1.03477(7) -0.81501(7)
S2O S -1.66713(8) -1.13303(6) -1.03809(11)
O1O O -1.52745(7) -1.28674(6) -0.71267(11)
O2O O -1.55888(6) -1.22827(6) -0.71249(10)
O3O O -1.58513(9) -1.28117(6) -0.75963(9)
O4O O -1.55578(7) -1.22723(6) -0.80019(8)
O5O O -1.52557(9) -1.28557(7) -0.80467(10)
O6O O -1.50172(7) -1.23309(6) -0.75355(11)
O7O O -1.58791(8) -0.90453(9) -1.09373(9)
O8O O -1.60300(7) -0.93813(7) -1.01852(8)
O9O O -1.64417(8) -0.88935(7) -1.05266(10)
O10O O -1.61036(7) -0.88189(6) -0.97732(8)
O11O O -1.59598(7) -0.84542(7) -1.04996(9)
O12O O -1.55504(7) -0.89354(7) -1.01655(8)
N1O N -1.57948(9) -1.14515(9) -0.60742(13)
N2O N -1.59566(9) -1.13464(8) -0.88605(12)
N3O N -1.40691(11) -1.16855(9) -0.76062(12)
N4O N -1.59801(9) -1.04820(9) -0.96433(13)
N5O N -1.63445(11) -0.87601(9) -0.82296(11)
N6O N -1.44471(9) -0.89510(9) -0.95273(11)
N7O N -1.57383(9) -1.06765(9) -0.87387(13)
N8O N -1.62237(10) -1.11458(9) -0.97356(13)
C1O C -1.50805(16) -1.30975(13) -0.65106(17)
H1O H -1.5228 -1.3280 -0.6505
H2O H -1.5011 -1.3048 -0.6213
H3O H -1.4894 -1.3151 -0.6689
C2O C -1.52461(10) -1.28136(11) -0.67005(17)
C3O C -1.53314(12) -1.25327(11) -0.64827(16)
H4O H -1.5283 -1.2501 -0.6183
C4O C -1.55034(9) -1.22841(9) -0.67441(16)
C5O C -1.56093(11) -1.19977(11) -0.65043(16)
C6O C -1.57090(10) -1.17498(10) -0.67348(15)
H5O H -1.5714 -1.1756 -0.7044
C7O C -1.58129(13) -1.14623(11) -0.64903(16)
H6O H -1.5894 -1.1283 -0.6645
C8O C -1.56873(11) -1.16815(12) -0.58309(16)
H7O H -1.5672 -1.1663 -0.5523
C9O C -1.55941(9) -1.19639(10) -0.60568(15)
H8O H -1.5517 -1.2140 -0.5890
C10O C -1.63782(12) -1.28957(11) -0.77397(19)
H9O H -1.6330 -1.3125 -0.7727
H10O H -1.6525 -1.2854 -0.7983
H11O H -1.6479 -1.2829 -0.7466
C11O C -1.60800(13) -1.27147(12) -0.78044(14)
C12O C -1.60967(11) -1.24264(11) -0.80494(14)
H12O H -1.6299 -1.2364 -0.8163
C13O C -1.58372(13) -1.22327(10) -0.81311(13)
C14O C -1.58979(9) -1.19346(9) -0.83921(10)
C15O C -1.61580(11) -1.18599(11) -0.86528(13)
H13O H -1.6324 -1.2014 -0.8684
C16O C -1.61866(11) -1.15754(11) -0.88668(12)
H14O H -1.6377 -1.1536 -0.9028
C17O C -1.57160(10) -1.13968(10) -0.85889(14)
H15O H -1.5566 -1.1230 -0.8536
C18O C -1.56797(12) -1.16867(11) -0.83810(14)
H16O H -1.5489 -1.1719 -0.8217
C19O C -1.49159(14) -1.30464(12) -0.86053(15)
H17O H -1.4872 -1.3256 -0.8474
H18O H -1.4727 -1.2973 -0.8767
H19O H -1.5098 -1.3065 -0.8805
C20O C -1.49937(14) -1.28107(11) -0.82561(17)
C21O C -1.47195(12) -1.26223(10) -0.81394(13)
H20O H -1.4511 -1.2655 -0.8255
C22O C -1.48022(13) -1.23612(11) -0.78059(16)
C23O C -1.45038(12) -1.21426(10) -0.77539(14)
C24O C -1.42338(12) -1.21565(11) -0.79373(17)
H21O H -1.4190 -1.2334 -0.8121
C25O C -1.40113(13) -1.19398(14) -0.78881(18)
H22O H -1.3814 -1.1955 -0.8042
C26O C -1.43327(12) -1.16469(10) -0.74121(14)
H23O H -1.4378 -1.1459 -0.7248
C27O C -1.45426(12) -1.18823(12) -0.74502(17)
H24O H -1.4727 -1.1880 -0.7269
C28O C -1.56740(12) -0.93599(15) -1.15444(11)
H25O H -1.5794 -0.9221 -1.1744
H26O H -1.5704 -0.9584 -1.1629
H27O H -1.5446 -0.9305 -1.1558
C29O C -1.57957(10) -0.93111(14) -1.10821(13)
C30O C -1.58125(12) -0.95910(14) -1.08080(15)
H28O H -1.5723 -0.9782 -1.0925
C31O C -1.59454(10) -0.96149(11) -1.03898(14)
C32O C -1.59667(9) -0.99234(11) -1.01394(16)
C33O C -1.60133(14) -0.99378(13) -0.97090(17)
H29O H -1.6055 -0.9740 -0.9567
C34O C -1.60081(12) -1.01925(12) -0.94583(15)
H30O H -1.6024 -1.0172 -0.9151
C35O C -1.59330(12) -1.04635(12) -1.00653(18)
H31O H -1.5908 -1.0660 -1.0218
C36O C -1.59172(12) -1.02127(12) -1.02868(18)
H32O H -1.5865 -1.0234 -1.0587
C37O C -1.70104(13) -0.8976(2) -1.0433(2)
H33O H -1.7161 -0.8802 -1.0368
H34O H -1.7091 -0.9177 -1.0310
H35O H -1.6989 -0.8998 -1.0750
C38O C -1.66871(15) -0.89002(17) -1.0237(2)
C39O C -1.66821(14) -0.88534(17) -0.9759(2)
H36O H -1.6870 -0.8837 -0.9586
C40O C -1.63720(13) -0.88356(12) -0.95875(14)
C41O C -1.63851(13) -0.88094(12) -0.90952(14)
C42O C -1.66305(12) -0.87438(13) -0.88083(19)
H37O H -1.6835 -0.8724 -0.8942
C43O C -1.66342(13) -0.87044(12) -0.83938(17)
H38O H -1.6817 -0.8644 -0.8228
C44O C -1.60924(12) -0.88224(10) -0.84609(14)
H39O H -1.5900 -0.8861 -0.8303
C45O C -1.60713(12) -0.88382(11) -0.88762(13)
H40O H -1.5875 -0.8866 -0.9028
C46O C -1.57667(10) -0.79269(11) -1.04634(16)
H41O H -1.5957 -0.7853 -1.0305
H42O H -1.5799 -0.7896 -1.0777
H43O H -1.5579 -0.7804 -1.0368
C47O C -1.57131(12) -0.82790(12) -1.03711(15)
C48O C -1.54455(10) -0.83967(10) -1.01556(12)
H44O H -1.5301 -0.8239 -1.0050
C49O C -1.53654(11) -0.86861(11) -1.00784(15)
C50O C -1.50557(11) -0.87790(9) -0.99274(13)
C51O C -1.47909(10) -0.85737(10) -0.99121(15)
H45O H -1.4800 -0.8366 -1.0037
C52O C -1.45027(11) -0.86880(12) -0.97001(15)
H46O H -1.4330 -0.8539 -0.9692
C53O C -1.47062(11) -0.91418(11) -0.95377(14)
H47O H -1.4682 -0.9342 -0.9395
C54O C -1.50091(11) -0.90898(10) -0.97282(12)
H48O H -1.5172 -0.9249 -0.9726
C55O C -1.55981(12) -1.05222(13) -0.85009(18)
C56O C -1.63945(18) -1.12386(14) -1.0016(2)
loop_
_geom_bond_atom_site_label_1
_geom_bond_atom_site_label_2
_geom_bond_site_symmetry_1
_geom_bond_site_symmetry_2
Co1 N2 1_555 1_555
Co2 N5 1_555 1_555
Cr1 O1 1_555 1_555
Cr2 O7 1_555 1_555
S1 C55 1_555 1_555
S2 C56 1_555 1_555
S3 C57 1_555 1_555
S4 C58 1_555 1_555
O1 C2 1_555 1_555
O2 Cr1 1_555 1_555
O3 Cr1 1_555 1_555
O4 Cr1 1_555 1_555
O5 Cr1 1_555 1_555
O6 Cr1 1_555 1_555
O7 C29 1_555 1_555
O8 Cr2 1_555 1_555
O9 Cr2 1_555 1_555
O10 Cr2 1_555 1_555
O11 Cr2 1_555 1_555
O12 Cr2 1_555 1_555
N1 C7 1_555 1_555
N2 C16 1_555 1_555
N3 C25 1_555 1_555
N4 Co1 1_555 1_555
N5 C43 1_555 1_555
N6 C52 1_555 1_555
N7 Co1 1_555 1_555
N8 Co1 1_555 1_555
N9 Co2 1_555 1_555
N10 Co2 1_555 1_555
C1 H1 1_555 1_555
H2 C1 1_555 1_555
H3 C1 1_555 1_555
C2 C1 1_555 1_555
C3 C2 1_555 1_555
H4 C3 1_555 1_555
C4 O2 1_555 1_555
C5 C4 1_555 1_555
C6 C5 1_555 1_555
H5 C6 1_555 1_555
C7 C6 1_555 1_555
H6 C7 1_555 1_555
C8 N1 1_555 1_555
H7 C8 1_555 1_555
C9 C5 1_555 1_555
H8 C9 1_555 1_555
C10 H9 1_555 1_555
H10 C10 1_555 1_555
H11 C10 1_555 1_555
C11 O3 1_555 1_555
C12 C11 1_555 1_555
H12 C12 1_555 1_555
C13 O4 1_555 1_555
C14 C13 1_555 1_555
C15 C14 1_555 1_555
H13 C15 1_555 1_555
C16 C15 1_555 1_555
H14 C16 1_555 1_555
C17 N2 1_555 1_555
H15 C17 1_555 1_555
C18 C14 1_555 1_555
H16 C18 1_555 1_555
C19 H17 1_555 1_555
H18 C19 1_555 1_555
H19 C19 1_555 1_555
C20 O5 1_555 1_555
C21 C20 1_555 1_555
H20 C21 1_555 1_555
C22 O6 1_555 1_555
C23 C22 1_555 1_555
C24 C23 1_555 1_555
H21 C24 1_555 1_555
C25 C24 1_555 1_555
H22 C25 1_555 1_555
C26 N3 1_555 1_555
H23 C26 1_555 1_555
C27 C23 1_555 1_555
H24 C27 1_555 1_555
C28 H25 1_555 1_555
H26 C28 1_555 1_555
H27 C28 1_555 1_555
C29 C28 1_555 1_555
C30 C29 1_555 1_555
H28 C30 1_555 1_555
C31 O8 1_555 1_555
C32 C31 1_555 1_555
C33 C32 1_555 1_555
H29 C33 1_555 1_555
C34 N4 1_555 1_555
H30 C34 1_555 1_555
C35 N4 1_555 1_555
H31 C35 1_555 1_555
C36 C32 1_555 1_555
H32 C36 1_555 1_555
C37 H33 1_555 1_555
H34 C37 1_555 1_555
H35 C37 1_555 1_555
C38 O9 1_555 1_555
C39 C38 1_555 1_555
H36 C39 1_555 1_555
C40 O10 1_555 1_555
C41 C40 1_555 1_555
C42 C41 1_555 1_555
H37 C42 1_555 1_555
C43 C42 1_555 1_555
H38 C43 1_555 1_555
C44 N5 1_555 1_555
H39 C44 1_555 1_555
C45 C41 1_555 1_555
H40 C45 1_555 1_555
C46 H41 1_555 1_555
H42 C46 1_555 1_555
H43 C46 1_555 1_555
C47 O11 1_555 1_555
C48 C47 1_555 1_555
H44 C48 1_555 1_555
C49 O12 1_555 1_555
C50 C49 1_555 1_555
C51 C50 1_555 1_555
H45 C51 1_555 1_555
C52 C51 1_555 1_555
H46 C52 1_555 1_555
C53 N6 1_555 1_555
H47 C53 1_555 1_555
C54 C50 1_555 1_555
H48 C54 1_555 1_555
C55 N7 1_555 1_555
C56 N8 1_555 1_555
C57 N9 1_555 1_555
C58 N10 1_555 1_555
Co1B N6 1_555 1_555
Co2B N3 1_555 1_555
Cr1B O1B 1_555 1_555
Cr2B O7B 1_555 1_555
S1B C55B 1_555 1_555
S2B C56B 1_555 1_555
S3B C57B 1_555 1_555
S4B C58B 1_555 1_555
O1B C2B 1_555 1_555
O2B Cr1B 1_555 1_555
O3B Cr1B 1_555 1_555
O4B Cr1B 1_555 1_555
O5B Cr1B 1_555 1_555
O6B Cr1B 1_555 1_555
O7B C29B 1_555 1_555
O8B Cr2B 1_555 1_555
O9B Cr2B 1_555 1_555
O10B Cr2B 1_555 1_555
O11B Cr2B 1_555 1_555
O12B Cr2B 1_555 1_555
N1B C7B 1_555 1_555
N2B Co1B 1_555 1_555
N3B Co2 1_555 1_555
N4B Co1B 1_555 1_555
N5B Co2B 1_555 1_555
N6B Co1 1_555 1_555
N7B Co1B 1_555 1_555
N8B Co1B 1_555 1_555
N9B Co2B 1_555 1_555
N10B Co2B 1_555 1_555
C1B H1B 1_555 1_555
H2B C1B 1_555 1_555
H3B C1B 1_555 1_555
C2B C1B 1_555 1_555
C3B C2B 1_555 1_555
H4B C3B 1_555 1_555
C4B O2B 1_555 1_555
C5B C4B 1_555 1_555
C6B C5B 1_555 1_555
H5B C6B 1_555 1_555
C7B C6B 1_555 1_555
H6B C7B 1_555 1_555
C8B N1B 1_555 1_555
H7B C8B 1_555 1_555
C9B C5B 1_555 1_555
H8B C9B 1_555 1_555
C10B H9B 1_555 1_555
H10B C10B 1_555 1_555
H11B C10B 1_555 1_555
C11B O3B 1_555 1_555
C12B C11B 1_555 1_555
H12B C12B 1_555 1_555
C13B O4B 1_555 1_555
C14B C13B 1_555 1_555
C15B C14B 1_555 1_555
H13B C15B 1_555 1_555
C16B N2B 1_555 1_555
H14B C16B 1_555 1_555
C17B N2B 1_555 1_555
H15B C17B 1_555 1_555
C18B C14B 1_555 1_555
H16B C18B 1_555 1_555
C19B H17B 1_555 1_555
H18B C19B 1_555 1_555
H19B C19B 1_555 1_555
C20B O5B 1_555 1_555
C21B C20B 1_555 1_555
H20B C21B 1_555 1_555
C22B O6B 1_555 1_555
C23B C22B 1_555 1_555
C24B C23B 1_555 1_555
H21B C24B 1_555 1_555
C25B N3B 1_555 1_555
H22B C25B 1_555 1_555
C26B N3B 1_555 1_555
H23B C26B 1_555 1_555
C27B C23B 1_555 1_555
H24B C27B 1_555 1_555
C28B H25B 1_555 1_555
H26B C28B 1_555 1_555
H27B C28B 1_555 1_555
C29B C28B 1_555 1_555
C30B C29B 1_555 1_555
H28B C30B 1_555 1_555
C31B O8B 1_555 1_555
C32B C31B 1_555 1_555
C33B C32B 1_555 1_555
H29B C33B 1_555 1_555
C34B N4B 1_555 1_555
H30B C34B 1_555 1_555
C35B N4B 1_555 1_555
H31B C35B 1_555 1_555
C36B C32B 1_555 1_555
H32B C36B 1_555 1_555
C37B H33B 1_555 1_555
H34B C37B 1_555 1_555
H35B C37B 1_555 1_555
C38B O9B 1_555 1_555
C39B C38B 1_555 1_555
H36B C39B 1_555 1_555
C40B O10B 1_555 1_555
C41B C40B 1_555 1_555
C42B C41B 1_555 1_555
H37B C42B 1_555 1_555
C43B N5B 1_555 1_555
H38B C43B 1_555 1_555
C44B N5B 1_555 1_555
H39B C44B 1_555 1_555
C45B C41B 1_555 1_555
H40B C45B 1_555 1_555
C46B H41B 1_555 1_555
H42B C46B 1_555 1_555
H43B C46B 1_555 1_555
C47B O11B 1_555 1_555
C48B C47B 1_555 1_555
H44B C48B 1_555 1_555
C49B O12B 1_555 1_555
C50B C49B 1_555 1_555
C51B C50B 1_555 1_555
H45B C51B 1_555 1_555
C52B N6B 1_555 1_555
H46B C52B 1_555 1_555
C53B N6B 1_555 1_555
H47B C53B 1_555 1_555
C54B C50B 1_555 1_555
H48B C54B 1_555 1_555
C55B N7B 1_555 1_555
C56B N8B 1_555 1_555
C57B N9B 1_555 1_555
C58B N10B 1_555 1_555
Co1N N1 1_555 1_555
Cr1N O1N 1_555 1_555
Cr2N O7N 1_555 1_555
S1N C55N 1_555 1_555
S2N C56N 1_555 1_555
O1N C2N 1_555 1_555
O2N Cr1N 1_555 1_555
O3N Cr1N 1_555 1_555
O4N Cr1N 1_555 1_555
O5N Cr1N 1_555 1_555
O6N Cr1N 1_555 1_555
O7N C29N 1_555 1_555
O8N Cr2N 1_555 1_555
O9N Cr2N 1_555 1_555
O10N Cr2N 1_555 1_555
O11N Cr2N 1_555 1_555
O12N Cr2N 1_555 1_555
N1N Co1 1_555 1_555
N2N Co1N 1_555 1_555
N3N Co2 1_555 1_555
N4N Co1N 1_555 1_555
N5N Co2B 1_555 1_555
N6N C52N 1_555 1_555
N7N Co1N 1_555 1_555
N8N Co1N 1_555 1_555
C1N H1N 1_555 1_555
H2N C1N 1_555 1_555
H3N C1N 1_555 1_555
C2N C1N 1_555 1_555
C3N C2N 1_555 1_555
H4N C3N 1_555 1_555
C4N O2N 1_555 1_555
C5N C4N 1_555 1_555
C6N C5N 1_555 1_555
H5N C6N 1_555 1_555
C7N N1N 1_555 1_555
H6N C7N 1_555 1_555
C8N N1N 1_555 1_555
H7N C8N 1_555 1_555
C9N C5N 1_555 1_555
H8N C9N 1_555 1_555
C10N H9N 1_555 1_555
H10N C10N 1_555 1_555
H11N C10N 1_555 1_555
C11N O3N 1_555 1_555
C12N C11N 1_555 1_555
H12N C12N 1_555 1_555
C13N O4N 1_555 1_555
C14N C13N 1_555 1_555
C15N C14N 1_555 1_555
H13N C15N 1_555 1_555
C16N N2N 1_555 1_555
H14N C16N 1_555 1_555
C17N N2N 1_555 1_555
H15N C17N 1_555 1_555
C18N C14N 1_555 1_555
H16N C18N 1_555 1_555
C19N H17N 1_555 1_555
H18N C19N 1_555 1_555
H19N C19N 1_555 1_555
C20N O5N 1_555 1_555
C21N C20N 1_555 1_555
H20N C21N 1_555 1_555
C22N O6N 1_555 1_555
C23N C22N 1_555 1_555
C24N C23N 1_555 1_555
H21N C24N 1_555 1_555
C25N N3N 1_555 1_555
H22N C25N 1_555 1_555
C26N N3N 1_555 1_555
H23N C26N 1_555 1_555
C27N C23N 1_555 1_555
H24N C27N 1_555 1_555
C28N H25N 1_555 1_555
H26N C28N 1_555 1_555
H27N C28N 1_555 1_555
C29N C28N 1_555 1_555
C30N C29N 1_555 1_555
H28N C30N 1_555 1_555
C31N O8N 1_555 1_555
C32N C31N 1_555 1_555
C33N C32N 1_555 1_555
H29N C33N 1_555 1_555
C34N N4N 1_555 1_555
H30N C34N 1_555 1_555
C35N N4N 1_555 1_555
H31N C35N 1_555 1_555
C36N C32N 1_555 1_555
H32N C36N 1_555 1_555
C37N H33N 1_555 1_555
H34N C37N 1_555 1_555
H35N C37N 1_555 1_555
C38N O9N 1_555 1_555
C39N C38N 1_555 1_555
H36N C39N 1_555 1_555
C40N O10N 1_555 1_555
C41N C40N 1_555 1_555
C42N C41N 1_555 1_555
H37N C42N 1_555 1_555
C43N N5N 1_555 1_555
H38N C43N 1_555 1_555
C44N N5N 1_555 1_555
H39N C44N 1_555 1_555
C45N C41N 1_555 1_555
H40N C45N 1_555 1_555
C46N H41N 1_555 1_555
H42N C46N 1_555 1_555
H43N C46N 1_555 1_555
C47N O11N 1_555 1_555
C48N C47N 1_555 1_555
H44N C48N 1_555 1_555
C49N O12N 1_555 1_555
C50N C49N 1_555 1_555
C51N C50N 1_555 1_555
H45N C51N 1_555 1_555
C52N C51N 1_555 1_555
H46N C52N 1_555 1_555
C53N N6N 1_555 1_555
H47N C53N 1_555 1_555
C54N C50N 1_555 1_555
H48N C54N 1_555 1_555
C55N N7N 1_555 1_555
C56N N8N 1_555 1_555
Co1O N1B 1_555 1_555
Cr1O O1O 1_555 1_555
Cr2O O7O 1_555 1_555
S1O C55O 1_555 1_555
S2O C56O 1_555 1_555
O1O C2O 1_555 1_555
O2O Cr1O 1_555 1_555
O3O Cr1O 1_555 1_555
O4O Cr1O 1_555 1_555
O5O Cr1O 1_555 1_555
O6O Cr1O 1_555 1_555
O7O C29O 1_555 1_555
O8O Cr2O 1_555 1_555
O9O Cr2O 1_555 1_555
O10O Cr2O 1_555 1_555
O11O Cr2O 1_555 1_555
O12O Cr2O 1_555 1_555
N1O Co1B 1_555 1_555
N2O Co1O 1_555 1_555
N3O Co2B 1_555 1_555
N4O Co1O 1_555 1_555
N5O Co2 1_555 1_555
N6O Co1N 1_555 1_555
N7O Co1O 1_555 1_555
N8O Co1O 1_555 1_555
C1O H1O 1_555 1_555
H2O C1O 1_555 1_555
H3O C1O 1_555 1_555
C2O C1O 1_555 1_555
C3O C2O 1_555 1_555
H4O C3O 1_555 1_555
C4O O2O 1_555 1_555
C5O C4O 1_555 1_555
C6O C5O 1_555 1_555
H5O C6O 1_555 1_555
C7O N1O 1_555 1_555
H6O C7O 1_555 1_555
C8O N1O 1_555 1_555
H7O C8O 1_555 1_555
C9O C5O 1_555 1_555
H8O C9O 1_555 1_555
C10O H9O 1_555 1_555
H10O C10O 1_555 1_555
H11O C10O 1_555 1_555
C11O O3O 1_555 1_555
C12O C11O 1_555 1_555
H12O C12O 1_555 1_555
C13O O4O 1_555 1_555
C14O C13O 1_555 1_555
C15O C14O 1_555 1_555
H13O C15O 1_555 1_555
C16O N2O 1_555 1_555
H14O C16O 1_555 1_555
C17O N2O 1_555 1_555
H15O C17O 1_555 1_555
C18O C14O 1_555 1_555
H16O C18O 1_555 1_555
C19O H17O 1_555 1_555
H18O C19O 1_555 1_555
H19O C19O 1_555 1_555
C20O O5O 1_555 1_555
C21O C20O 1_555 1_555
H20O C21O 1_555 1_555
C22O O6O 1_555 1_555
C23O C22O 1_555 1_555
C24O C23O 1_555 1_555
H21O C24O 1_555 1_555
C25O N3O 1_555 1_555
H22O C25O 1_555 1_555
C26O N3O 1_555 1_555
H23O C26O 1_555 1_555
C27O C23O 1_555 1_555
H24O C27O 1_555 1_555
C28O H25O 1_555 1_555
H26O C28O 1_555 1_555
H27O C28O 1_555 1_555
C29O C28O 1_555 1_555
C30O C29O 1_555 1_555
H28O C30O 1_555 1_555
C31O O8O 1_555 1_555
C32O C31O 1_555 1_555
C33O C32O 1_555 1_555
H29O C33O 1_555 1_555
C34O N4O 1_555 1_555
H30O C34O 1_555 1_555
C35O N4O 1_555 1_555
H31O C35O 1_555 1_555
C36O C32O 1_555 1_555
H32O C36O 1_555 1_555
C37O H33O 1_555 1_555
H34O C37O 1_555 1_555
H35O C37O 1_555 1_555
C38O O9O 1_555 1_555
C39O C38O 1_555 1_555
H36O C39O 1_555 1_555
C40O O10O 1_555 1_555
C41O C40O 1_555 1_555
C42O C41O 1_555 1_555
H37O C42O 1_555 1_555
C43O N5O 1_555 1_555
H38O C43O 1_555 1_555
C44O N5O 1_555 1_555
H39O C44O 1_555 1_555
C45O C41O 1_555 1_555
H40O C45O 1_555 1_555
C46O H41O 1_555 1_555
H42O C46O 1_555 1_555
H43O C46O 1_555 1_555
C47O O11O 1_555 1_555
C48O C47O 1_555 1_555
H44O C48O 1_555 1_555
C49O O12O 1_555 1_555
C50O C49O 1_555 1_555
C51O C50O 1_555 1_555
H45O C51O 1_555 1_555
C52O N6O 1_555 1_555
H46O C52O 1_555 1_555
C53O N6O 1_555 1_555
H47O C53O 1_555 1_555
C54O C50O 1_555 1_555
H48O C54O 1_555 1_555
C55O N7O 1_555 1_555
C56O N8O 1_555 1_555
C3 C4 1_555 1_555
C8 C9 1_555 1_555
C10 C11 1_555 1_555
C12 C13 1_555 1_555
C17 C18 1_555 1_555
C19 C20 1_555 1_555
C21 C22 1_555 1_555
C26 C27 1_555 1_555
C30 C31 1_555 1_555
C33 C34 1_555 1_555
C35 C36 1_555 1_555
C37 C38 1_555 1_555
C39 C40 1_555 1_555
C44 C45 1_555 1_555
C46 C47 1_555 1_555
C48 C49 1_555 1_555
C53 C54 1_555 1_555
C3B C4B 1_555 1_555
C8B C9B 1_555 1_555
C10B C11B 1_555 1_555
C12B C13B 1_555 1_555
C15B C16B 1_555 1_555
C17B C18B 1_555 1_555
C19B C20B 1_555 1_555
C21B C22B 1_555 1_555
C24B C25B 1_555 1_555
C26B C27B 1_555 1_555
C30B C31B 1_555 1_555
C33B C34B 1_555 1_555
C35B C36B 1_555 1_555
C37B C38B 1_555 1_555
C39B C40B 1_555 1_555
C42B C43B 1_555 1_555
C44B C45B 1_555 1_555
C46B C47B 1_555 1_555
C48B C49B 1_555 1_555
C51B C52B 1_555 1_555
C53B C54B 1_555 1_555
N6N Co1O 1_555 1_555
C3N C4N 1_555 1_555
C6N C7N 1_555 1_555
C8N C9N 1_555 1_555
C10N C11N 1_555 1_555
C12N C13N 1_555 1_555
C15N C16N 1_555 1_555
C17N C18N 1_555 1_555
C19N C20N 1_555 1_555
C21N C22N 1_555 1_555
C24N C25N 1_555 1_555
C26N C27N 1_555 1_555
C30N C31N 1_555 1_555
C33N C34N 1_555 1_555
C35N C36N 1_555 1_555
C37N C38N 1_555 1_555
C39N C40N 1_555 1_555
C42N C43N 1_555 1_555
C44N C45N 1_555 1_555
C46N C47N 1_555 1_555
C48N C49N 1_555 1_555
C53N C54N 1_555 1_555
C3O C4O 1_555 1_555
C6O C7O 1_555 1_555
C8O C9O 1_555 1_555
C10O C11O 1_555 1_555
C12O C13O 1_555 1_555
C15O C16O 1_555 1_555
C17O C18O 1_555 1_555
C19O C20O 1_555 1_555
C21O C22O 1_555 1_555
C24O C25O 1_555 1_555
C26O C27O 1_555 1_555
C30O C31O 1_555 1_555
C33O C34O 1_555 1_555
C35O C36O 1_555 1_555
C37O C38O 1_555 1_555
C39O C40O 1_555 1_555
C42O C43O 1_555 1_555
C44O C45O 1_555 1_555
C46O C47O 1_555 1_555
C48O C49O 1_555 1_555
C51O C52O 1_555 1_555
C53O C54O 1_555 1_555

#END
