
#######################################################################
#
#                 Cambridge Crystallographic Data Centre
#                                CCDC 
#
#######################################################################
#
# If this CIF has been generated from an entry in the Cambridge 
# Structural Database, then it will include bibliographic, chemical, 
# crystal, experimental, refinement or atomic coordinate data resulting 
# from the CCDC's data processing and validation procedures.
#
#######################################################################

data_ULEGOJ
_chemical_formula_moiety         'C216 H216 Cr8 Cu6 N24 O60 12+,6(O4 S1 2-)'
_chemical_name_systematic        
'tetracosakis(\m~2~-4-Oxo-4-(pyridin-4-yl)buten-2-olato)-dodeca-aqua-octa-chromium(iii)-hexa-copper(ii) hexasulfate unknown solvate'
_symmetry_cell_setting           tetragonal
_symmetry_space_group_name_H-M   'P 4/n'
_symmetry_Int_Tables_number      85
_space_group_name_Hall           '-P 4a'
loop_
_symmetry_equiv_pos_site_id
_symmetry_equiv_pos_as_xyz
1 x,y,z
2 1/2-y,x,z
3 1/2-x,1/2-y,z
4 y,1/2-x,z
5 -x,-y,-z
6 1/2+y,-x,-z
7 1/2+x,1/2+y,-z
8 -y,1/2+x,-z
_cell_length_a                   28.79166(19)
_cell_length_b                   28.79166(19)
_cell_length_c                   24.4854(3)
_cell_angle_alpha                90
_cell_angle_beta                 90
_cell_angle_gamma                90
_cell_volume                     20297.4
_exptl_crystal_colour            brown
_exptl_crystal_description       block
_cell_formula_units_Z            2
_exptl_crystal_recrystallization_method dichloromethane/methanol
loop_
_atom_site_label
_atom_site_type_symbol
_atom_site_fract_x
_atom_site_fract_y
_atom_site_fract_z
Cu1 Cu 0.2500 0.2500 0.47701(12)
Cu2 Cu 0.34124(4) 0.49094(5) 0.78838(5)
Cu3 Cu 0.2500 0.2500 1.10376(11)
Cr1 Cr 0.12767(4) 0.52466(4) 0.53746(5)
Cr2 Cr 0.52459(4) 0.37287(4) 1.03950(5)
O1 O 0.15540(15) 0.46722(15) 0.5130(2)
O2 O 0.07845(16) 0.51901(18) 0.4824(2)
O3 O 0.17554(15) 0.52898(16) 0.5922(2)
O4 O 0.16568(16) 0.56091(18) 0.4872(2)
O5 O 0.09209(15) 0.48861(15) 0.5893(2)
O6 O 0.09957(16) 0.58235(16) 0.5661(2)
O7 O 0.49110(15) 0.40783(15) 0.9847(2)
O8 O 0.51662(15) 0.42387(17) 1.0917(2)
O9 O 0.46579(15) 0.34763(16) 1.0633(2)
O10 O 0.55748(17) 0.33619(19) 1.0943(2)
O11 O 0.52902(16) 0.32223(16) 0.9871(2)
O12 O 0.58402(15) 0.39777(17) 1.0134(2)
O13 O 0.2500 0.2500 0.3787(6)
O14 O 0.2500 0.2500 0.5911(7)
O15 O 0.37241(19) 0.5685(2) 0.7881(2)
H1 H 0.3879 0.5759 0.7601
H2 H 0.3664 0.5855 0.8157
O16 O 0.3075(2) 0.4086(3) 0.7895(2)
H3 H 0.3161 0.3813 0.7768
H4 H 0.2819 0.4013 0.8047
O17 O 0.2500 0.2500 1.1986(5)
N1 N 0.2120(2) 0.3086(2) 0.4784(3)
N2 N 0.3037(2) 0.5048(3) 0.7208(3)
N3 N 0.0313(2) 0.39464(19) 0.7405(3)
N4 N 0.3785(2) 0.4752(2) 0.8548(3)
N5 N 0.3176(2) 0.26820(19) 1.1005(3)
N6 N 0.5127(2) 0.2121(2) 0.8354(3)
C1 C 0.1807(3) 0.3186(3) 0.4410(4)
H5 H 0.1754 0.2966 0.4128
C2 C 0.1554(3) 0.3588(3) 0.4406(4)
H6 H 0.1330 0.3640 0.4127
C3 C 0.1622(2) 0.3913(2) 0.4802(3)
C4 C 0.1940(3) 0.3816(3) 0.5224(4)
H7 H 0.1989 0.4028 0.5515
C5 C 0.2180(3) 0.3398(3) 0.5200(4)
H8 H 0.2393 0.3326 0.5483
C6 C 0.1376(2) 0.4374(2) 0.4825(3)
C7 C 0.0967(3) 0.4426(3) 0.4519(4)
H9 H 0.0864 0.4176 0.4295
C8 C 0.0704(2) 0.4841(3) 0.4535(4)
C9 C 0.0269(3) 0.4852(4) 0.4181(5)
H10 H 0.0334 0.5025 0.3844
H11 H 0.0017 0.5005 0.4380
H12 H 0.0177 0.4534 0.4089
C10 C 0.3197(2) 0.5327(3) 0.6816(4)
H13 H 0.3497 0.5458 0.6859
C11 C 0.2948(2) 0.5434(3) 0.6354(4)
H14 H 0.3081 0.5623 0.6077
C12 C 0.2496(2) 0.5261(2) 0.6297(3)
C13 C 0.2333(2) 0.4967(3) 0.6711(3)
H15 H 0.2028 0.4842 0.6688
C14 C 0.2604(3) 0.4860(3) 0.7139(4)
H16 H 0.2492 0.4647 0.7404
C15 C 0.2194(2) 0.5372(2) 0.5831(3)
C16 C 0.2364(2) 0.5529(3) 0.5339(4)
H17 H 0.2692 0.5547 0.5301
C17 C 0.2091(3) 0.5665(3) 0.4885(3)
C18 C 0.2316(3) 0.5903(4) 0.4418(4)
H18 H 0.2143 0.6186 0.4330
H19 H 0.2317 0.5696 0.4100
H20 H 0.2636 0.5984 0.4516
C19 C 0.0665(3) 0.3880(3) 0.7037(3)
H21 H 0.0814 0.3586 0.7014
C20 C 0.0802(3) 0.4232(3) 0.6705(4)
H22 H 0.1041 0.4176 0.6446
C21 C 0.0605(2) 0.4668(2) 0.6733(3)
C22 C 0.0252(3) 0.4734(2) 0.7118(3)
H23 H 0.0110 0.5029 0.7157
C23 C 0.0114(3) 0.4365(2) 0.7440(3)
H24 H -0.0131 0.4411 0.7695
C24 C 0.0763(2) 0.5040(2) 0.6352(3)
C25 C 0.0730(2) 0.5497(2) 0.6492(3)
H25 H 0.0635 0.5569 0.6853
C26 C 0.0827(2) 0.5871(2) 0.6134(4)
C27 C 0.0717(3) 0.6365(3) 0.6307(4)
H26 H 0.0737 0.6389 0.6706
H27 H 0.0402 0.6446 0.6188
H28 H 0.0941 0.6578 0.6140
C28 C 0.3855(3) 0.5063(3) 0.8952(3)
H29 H 0.3723 0.5364 0.8913
C29 C 0.4110(2) 0.4968(2) 0.9423(3)
H30 H 0.4139 0.5192 0.9705
C30 C 0.4320(2) 0.4536(2) 0.9467(3)
C31 C 0.4243(3) 0.4210(3) 0.9050(3)
H31 H 0.4382 0.3912 0.9072
C32 C 0.3977(3) 0.4317(3) 0.8623(3)
H32 H 0.3916 0.4083 0.8358
C33 C 0.4621(2) 0.4408(2) 0.9950(3)
C34 C 0.4572(2) 0.4633(3) 1.0434(3)
H33 H 0.4328 0.4853 1.0467
C35 C 0.4861(2) 0.4562(3) 1.0890(3)
C36 C 0.4807(3) 0.4867(3) 1.1380(4)
H34 H 0.4829 0.4678 1.1712
H35 H 0.4504 0.5021 1.1367
H36 H 0.5054 0.5101 1.1382
C37 C 0.3477(3) 0.2546(3) 1.1394(4)
H37 H 0.3367 0.2355 1.1683
C38 C 0.3942(3) 0.2674(3) 1.1388(4)
H38 H 0.4147 0.2568 1.1665
C39 C 0.4101(2) 0.2958(2) 1.0972(3)
C40 C 0.3797(3) 0.3082(3) 1.0564(4)
H39 H 0.3904 0.3264 1.0266
C41 C 0.3344(3) 0.2948(3) 1.0585(4)
H40 H 0.3140 0.3041 1.0301
C42 C 0.4601(2) 0.3120(3) 1.0940(4)
C43 C 0.4953(3) 0.2872(4) 1.1192(5)
H41 H 0.4874 0.2589 1.1368
C44 C 0.5416(3) 0.3014(3) 1.1202(4)
C45 C 0.5757(3) 0.2771(5) 1.1551(6)
H42 H 0.5935 0.3000 1.1761
H43 H 0.5969 0.2590 1.1321
H44 H 0.5594 0.2562 1.1802
C46 C 0.4846(3) 0.2286(3) 0.8773(4)
H45 H 0.4544 0.2158 0.8813
C47 C 0.4979(3) 0.2611(3) 0.9116(4)
H46 H 0.4778 0.2705 0.9402
C48 C 0.5421(2) 0.2819(2) 0.9060(3)
C49 C 0.5703(3) 0.2665(3) 0.8664(4)
H47 H 0.6006 0.2791 0.8623
C50 C 0.5543(3) 0.2307(3) 0.8304(4)
H48 H 0.5741 0.2202 0.8020
C51 C 0.5549(2) 0.3204(2) 0.9465(3)
C52 C 0.5911(3) 0.3514(3) 0.9328(4)
C53 C 0.6047(3) 0.3867(3) 0.9679(4)
C54 C 0.6469(4) 0.4153(4) 0.9552(6)
H49 H 0.6373 0.4455 0.9406
H50 H 0.6659 0.3990 0.9281
H51 H 0.6650 0.4199 0.9887
O18 O 0.2500 0.2500 0.9890(7)
Cu2A Cu 0.00906(5) 0.34124(4) 0.78838(5)
Cr1A Cr -0.02466(4) 0.12767(4) 0.53746(5)
Cr2A Cr 0.12713(4) 0.52459(4) 1.03950(5)
O1A O 0.03278(15) 0.15540(15) 0.5130(2)
O2A O -0.01901(18) 0.07845(16) 0.4824(2)
O3A O -0.02898(16) 0.17554(15) 0.5922(2)
O4A O -0.06091(18) 0.16568(16) 0.4872(2)
O5A O 0.01139(15) 0.09209(15) 0.5893(2)
O6A O -0.08235(16) 0.09957(16) 0.5661(2)
O7A O 0.09217(15) 0.49110(15) 0.9847(2)
O8A O 0.07613(17) 0.51662(15) 1.0917(2)
O9A O 0.15237(16) 0.46579(15) 1.0633(2)
O10A O 0.16381(19) 0.55748(17) 1.0943(2)
O11A O 0.17777(16) 0.52902(16) 0.9871(2)
O12A O 0.10223(17) 0.58402(15) 1.0134(2)
O15A O -0.0685(2) 0.37241(19) 0.7881(2)
H1A H -0.0759 0.3879 0.7601
H2A H -0.0855 0.3664 0.8157
O16A O 0.0914(3) 0.3075(2) 0.7895(2)
H3A H 0.1187 0.3161 0.7768
H4A H 0.0987 0.2819 0.8047
N1A N 0.1914(2) 0.2120(2) 0.4784(3)
N2A N -0.0048(3) 0.3037(2) 0.7208(3)
N3A N 0.10536(19) 0.0313(2) 0.7405(3)
N4A N 0.0248(2) 0.3785(2) 0.8548(3)
N5A N 0.23180(19) 0.3176(2) 1.1005(3)
N6A N 0.2879(2) 0.5127(2) 0.8354(3)
C1A C 0.1814(3) 0.1807(3) 0.4410(4)
H5A H 0.2034 0.1754 0.4128
C2A C 0.1412(3) 0.1554(3) 0.4406(4)
H6A H 0.1360 0.1330 0.4127
C3A C 0.1087(2) 0.1622(2) 0.4802(3)
C4A C 0.1184(3) 0.1940(3) 0.5224(4)
H7A H 0.0972 0.1989 0.5515
C5A C 0.1602(3) 0.2180(3) 0.5200(4)
H8A H 0.1674 0.2393 0.5483
C6A C 0.0626(2) 0.1376(2) 0.4825(3)
C7A C 0.0574(3) 0.0967(3) 0.4519(4)
H9A H 0.0824 0.0864 0.4295
C8A C 0.0159(3) 0.0704(2) 0.4535(4)
C9A C 0.0148(4) 0.0269(3) 0.4181(5)
H10A H -0.0025 0.0334 0.3844
H11A H -0.0005 0.0017 0.4380
H12A H 0.0466 0.0177 0.4089
C10A C -0.0327(3) 0.3197(2) 0.6816(4)
H13A H -0.0458 0.3497 0.6859
C11A C -0.0434(3) 0.2948(2) 0.6354(4)
H14A H -0.0623 0.3081 0.6077
C12A C -0.0261(2) 0.2496(2) 0.6297(3)
C13A C 0.0033(3) 0.2333(2) 0.6711(3)
H15A H 0.0158 0.2028 0.6688
C14A C 0.0140(3) 0.2604(3) 0.7139(4)
H16A H 0.0353 0.2492 0.7404
C15A C -0.0372(2) 0.2194(2) 0.5831(3)
C16A C -0.0529(3) 0.2364(2) 0.5339(4)
H17A H -0.0547 0.2692 0.5301
C17A C -0.0665(3) 0.2091(3) 0.4885(3)
C18A C -0.0903(4) 0.2316(3) 0.4418(4)
H18A H -0.1186 0.2143 0.4330
H19A H -0.0696 0.2317 0.4100
H20A H -0.0984 0.2636 0.4516
C19A C 0.1120(3) 0.0665(3) 0.7037(3)
H21A H 0.1414 0.0814 0.7014
C20A C 0.0768(3) 0.0802(3) 0.6705(4)
H22A H 0.0824 0.1041 0.6446
C21A C 0.0332(2) 0.0605(2) 0.6733(3)
C22A C 0.0266(2) 0.0252(3) 0.7118(3)
H23A H -0.0029 0.0110 0.7157
C23A C 0.0635(2) 0.0114(3) 0.7440(3)
H24A H 0.0589 -0.0131 0.7695
C24A C -0.0040(2) 0.0763(2) 0.6352(3)
C25A C -0.0497(2) 0.0730(2) 0.6492(3)
H25A H -0.0569 0.0635 0.6853
C26A C -0.0871(2) 0.0827(2) 0.6134(4)
C27A C -0.1365(3) 0.0717(3) 0.6307(4)
H26A H -0.1389 0.0737 0.6706
H27A H -0.1446 0.0402 0.6188
H28A H -0.1578 0.0941 0.6140
C28A C -0.0063(3) 0.3855(3) 0.8952(3)
H29A H -0.0364 0.3723 0.8913
C29A C 0.0032(2) 0.4110(2) 0.9423(3)
H30A H -0.0192 0.4139 0.9705
C30A C 0.0464(2) 0.4320(2) 0.9467(3)
C31A C 0.0790(3) 0.4243(3) 0.9050(3)
H31A H 0.1088 0.4382 0.9072
C32A C 0.0683(3) 0.3977(3) 0.8623(3)
H32A H 0.0917 0.3916 0.8358
C33A C 0.0592(2) 0.4621(2) 0.9950(3)
C34A C 0.0367(3) 0.4572(2) 1.0434(3)
H33A H 0.0147 0.4328 1.0467
C35A C 0.0438(3) 0.4861(2) 1.0890(3)
C36A C 0.0133(3) 0.4807(3) 1.1380(4)
H34A H 0.0322 0.4829 1.1712
H35A H -0.0021 0.4504 1.1367
H36A H -0.0101 0.5054 1.1382
C37A C 0.2454(3) 0.3477(3) 1.1394(4)
H37A H 0.2645 0.3367 1.1683
C38A C 0.2326(3) 0.3942(3) 1.1388(4)
H38A H 0.2432 0.4147 1.1665
C39A C 0.2042(2) 0.4101(2) 1.0972(3)
C40A C 0.1918(3) 0.3797(3) 1.0564(4)
H39A H 0.1736 0.3904 1.0266
C41A C 0.2052(3) 0.3344(3) 1.0585(4)
H40A H 0.1959 0.3140 1.0301
C42A C 0.1880(3) 0.4601(2) 1.0940(4)
C43A C 0.2128(4) 0.4953(3) 1.1192(5)
H41A H 0.2411 0.4874 1.1368
C44A C 0.1986(3) 0.5416(3) 1.1202(4)
C45A C 0.2229(5) 0.5757(3) 1.1551(6)
H42A H 0.2000 0.5935 1.1761
H43A H 0.2410 0.5969 1.1321
H44A H 0.2438 0.5594 1.1802
C46A C 0.2714(3) 0.4846(3) 0.8773(4)
H45A H 0.2842 0.4544 0.8813
C47A C 0.2389(3) 0.4979(3) 0.9116(4)
H46A H 0.2295 0.4778 0.9402
C48A C 0.2181(2) 0.5421(2) 0.9060(3)
C49A C 0.2335(3) 0.5703(3) 0.8664(4)
H47A H 0.2209 0.6006 0.8623
C50A C 0.2693(3) 0.5543(3) 0.8304(4)
H48A H 0.2798 0.5741 0.8020
C51A C 0.1796(2) 0.5549(2) 0.9465(3)
C52A C 0.1486(3) 0.5911(3) 0.9328(4)
C53A C 0.1133(3) 0.6047(3) 0.9679(4)
C54A C 0.0847(4) 0.6469(4) 0.9552(6)
H49A H 0.0545 0.6373 0.9406
H50A H 0.1010 0.6659 0.9281
H51A H 0.0801 0.6650 0.9887
Cu2B Cu 0.15876(4) 0.00906(5) 0.78838(5)
Cr1B Cr 0.37233(4) -0.02466(4) 0.53746(5)
Cr2B Cr -0.02459(4) 0.12713(4) 1.03950(5)
O1B O 0.34460(15) 0.03278(15) 0.5130(2)
O2B O 0.42155(16) -0.01901(18) 0.4824(2)
O3B O 0.32446(15) -0.02898(16) 0.5922(2)
O4B O 0.33432(16) -0.06091(18) 0.4872(2)
O5B O 0.40791(15) 0.01139(15) 0.5893(2)
O6B O 0.40043(16) -0.08235(16) 0.5661(2)
O7B O 0.00890(15) 0.09217(15) 0.9847(2)
O8B O -0.01662(15) 0.07613(17) 1.0917(2)
O9B O 0.03421(15) 0.15237(16) 1.0633(2)
O10B O -0.05748(17) 0.16381(19) 1.0943(2)
O11B O -0.02902(16) 0.17777(16) 0.9871(2)
O12B O -0.08402(15) 0.10223(17) 1.0134(2)
O15B O 0.12759(19) -0.0685(2) 0.7881(2)
H1B H 0.1121 -0.0759 0.7601
H2B H 0.1336 -0.0855 0.8157
O16B O 0.1925(2) 0.0914(3) 0.7895(2)
H3B H 0.1839 0.1187 0.7768
H4B H 0.2181 0.0987 0.8047
N1B N 0.2880(2) 0.1914(2) 0.4784(3)
N2B N 0.1963(2) -0.0048(3) 0.7208(3)
N3B N 0.4687(2) 0.10536(19) 0.7405(3)
N4B N 0.1215(2) 0.0248(2) 0.8548(3)
N5B N 0.1824(2) 0.23180(19) 1.1005(3)
N6B N -0.0127(2) 0.2879(2) 0.8354(3)
C1B C 0.3193(3) 0.1814(3) 0.4410(4)
H5B H 0.3246 0.2034 0.4128
C2B C 0.3446(3) 0.1412(3) 0.4406(4)
H6B H 0.3670 0.1360 0.4127
C3B C 0.3378(2) 0.1087(2) 0.4802(3)
C4B C 0.3060(3) 0.1184(3) 0.5224(4)
H7B H 0.3011 0.0972 0.5515
C5B C 0.2820(3) 0.1602(3) 0.5200(4)
H8B H 0.2607 0.1674 0.5483
C6B C 0.3624(2) 0.0626(2) 0.4825(3)
C7B C 0.4033(3) 0.0574(3) 0.4519(4)
H9B H 0.4136 0.0824 0.4295
C8B C 0.4296(2) 0.0159(3) 0.4535(4)
C9B C 0.4731(3) 0.0148(4) 0.4181(5)
H10B H 0.4666 -0.0025 0.3844
H11B H 0.4983 -0.0005 0.4380
H12B H 0.4823 0.0466 0.4089
C10B C 0.1803(2) -0.0327(3) 0.6816(4)
H13B H 0.1503 -0.0458 0.6859
C11B C 0.2052(2) -0.0434(3) 0.6354(4)
H14B H 0.1919 -0.0623 0.6077
C12B C 0.2504(2) -0.0261(2) 0.6297(3)
C13B C 0.2667(2) 0.0033(3) 0.6711(3)
H15B H 0.2972 0.0158 0.6688
C14B C 0.2396(3) 0.0140(3) 0.7139(4)
H16B H 0.2508 0.0353 0.7404
C15B C 0.2806(2) -0.0372(2) 0.5831(3)
C16B C 0.2636(2) -0.0529(3) 0.5339(4)
H17B H 0.2308 -0.0547 0.5301
C17B C 0.2909(3) -0.0665(3) 0.4885(3)
C18B C 0.2684(3) -0.0903(4) 0.4418(4)
H18B H 0.2857 -0.1186 0.4330
H19B H 0.2683 -0.0696 0.4100
H20B H 0.2364 -0.0984 0.4516
C19B C 0.4335(3) 0.1120(3) 0.7037(3)
H21B H 0.4186 0.1414 0.7014
C20B C 0.4198(3) 0.0768(3) 0.6705(4)
H22B H 0.3959 0.0824 0.6446
C21B C 0.4395(2) 0.0332(2) 0.6733(3)
C22B C 0.4748(3) 0.0266(2) 0.7118(3)
H23B H 0.4890 -0.0029 0.7157
C23B C 0.4886(3) 0.0635(2) 0.7440(3)
H24B H 0.5131 0.0589 0.7695
C24B C 0.4237(2) -0.0040(2) 0.6352(3)
C25B C 0.4270(2) -0.0497(2) 0.6492(3)
H25B H 0.4365 -0.0569 0.6853
C26B C 0.4173(2) -0.0871(2) 0.6134(4)
C27B C 0.4283(3) -0.1365(3) 0.6307(4)
H26B H 0.4263 -0.1389 0.6706
H27B H 0.4598 -0.1446 0.6188
H28B H 0.4059 -0.1578 0.6140
C28B C 0.1145(3) -0.0063(3) 0.8952(3)
H29B H 0.1277 -0.0364 0.8913
C29B C 0.0890(2) 0.0032(2) 0.9423(3)
H30B H 0.0861 -0.0192 0.9705
C30B C 0.0680(2) 0.0464(2) 0.9467(3)
C31B C 0.0757(3) 0.0790(3) 0.9050(3)
H31B H 0.0618 0.1088 0.9072
C32B C 0.1023(3) 0.0683(3) 0.8623(3)
H32B H 0.1084 0.0917 0.8358
C33B C 0.0379(2) 0.0592(2) 0.9950(3)
C34B C 0.0428(2) 0.0367(3) 1.0434(3)
H33B H 0.0672 0.0147 1.0467
C35B C 0.0139(2) 0.0438(3) 1.0890(3)
C36B C 0.0193(3) 0.0133(3) 1.1380(4)
H34B H 0.0171 0.0322 1.1712
H35B H 0.0496 -0.0021 1.1367
H36B H -0.0054 -0.0101 1.1382
C37B C 0.1523(3) 0.2454(3) 1.1394(4)
H37B H 0.1633 0.2645 1.1683
C38B C 0.1058(3) 0.2326(3) 1.1388(4)
H38B H 0.0853 0.2432 1.1665
C39B C 0.0899(2) 0.2042(2) 1.0972(3)
C40B C 0.1203(3) 0.1918(3) 1.0564(4)
H39B H 0.1096 0.1736 1.0266
C41B C 0.1656(3) 0.2052(3) 1.0585(4)
H40B H 0.1860 0.1959 1.0301
C42B C 0.0399(2) 0.1880(3) 1.0940(4)
C43B C 0.0047(3) 0.2128(4) 1.1192(5)
H41B H 0.0126 0.2411 1.1368
C44B C -0.0416(3) 0.1986(3) 1.1202(4)
C45B C -0.0757(3) 0.2229(5) 1.1551(6)
H42B H -0.0935 0.2000 1.1761
H43B H -0.0969 0.2410 1.1321
H44B H -0.0594 0.2438 1.1802
C46B C 0.0154(3) 0.2714(3) 0.8773(4)
H45B H 0.0456 0.2842 0.8813
C47B C 0.0021(3) 0.2389(3) 0.9116(4)
H46B H 0.0222 0.2295 0.9402
C48B C -0.0421(2) 0.2181(2) 0.9060(3)
C49B C -0.0703(3) 0.2335(3) 0.8664(4)
H47B H -0.1006 0.2209 0.8623
C50B C -0.0543(3) 0.2693(3) 0.8304(4)
H48B H -0.0741 0.2798 0.8020
C51B C -0.0549(2) 0.1796(2) 0.9465(3)
C52B C -0.0911(3) 0.1486(3) 0.9328(4)
C53B C -0.1047(3) 0.1133(3) 0.9679(4)
C54B C -0.1469(4) 0.0847(4) 0.9552(6)
H49B H -0.1373 0.0545 0.9406
H50B H -0.1659 0.1010 0.9281
H51B H -0.1650 0.0801 0.9887
Cu2C Cu 0.49094(5) 0.15876(4) 0.78838(5)
Cr1C Cr 0.52466(4) 0.37233(4) 0.53746(5)
Cr2C Cr 0.37287(4) -0.02459(4) 1.03950(5)
O1C O 0.46722(15) 0.34460(15) 0.5130(2)
O2C O 0.51901(18) 0.42155(16) 0.4824(2)
O3C O 0.52898(16) 0.32446(15) 0.5922(2)
O4C O 0.56091(18) 0.33432(16) 0.4872(2)
O5C O 0.48861(15) 0.40791(15) 0.5893(2)
O6C O 0.58235(16) 0.40043(16) 0.5661(2)
O7C O 0.40783(15) 0.00890(15) 0.9847(2)
O8C O 0.42387(17) -0.01662(15) 1.0917(2)
O9C O 0.34763(16) 0.03421(15) 1.0633(2)
O10C O 0.33619(19) -0.05748(17) 1.0943(2)
O11C O 0.32223(16) -0.02902(16) 0.9871(2)
O12C O 0.39777(17) -0.08402(15) 1.0134(2)
O15C O 0.5685(2) 0.12759(19) 0.7881(2)
H1C H 0.5759 0.1121 0.7601
H2C H 0.5855 0.1336 0.8157
O16C O 0.4086(3) 0.1925(2) 0.7895(2)
H3C H 0.3813 0.1839 0.7768
H4C H 0.4013 0.2181 0.8047
N1C N 0.3086(2) 0.2880(2) 0.4784(3)
N2C N 0.5048(3) 0.1963(2) 0.7208(3)
N3C N 0.39464(19) 0.4687(2) 0.7405(3)
N4C N 0.4752(2) 0.1215(2) 0.8548(3)
N5C N 0.26820(19) 0.1824(2) 1.1005(3)
N6C N 0.2121(2) -0.0127(2) 0.8354(3)
C1C C 0.3186(3) 0.3193(3) 0.4410(4)
H5C H 0.2966 0.3246 0.4128
C2C C 0.3588(3) 0.3446(3) 0.4406(4)
H6C H 0.3640 0.3670 0.4127
C3C C 0.3913(2) 0.3378(2) 0.4802(3)
C4C C 0.3816(3) 0.3060(3) 0.5224(4)
H7C H 0.4028 0.3011 0.5515
C5C C 0.3398(3) 0.2820(3) 0.5200(4)
H8C H 0.3326 0.2607 0.5483
C6C C 0.4374(2) 0.3624(2) 0.4825(3)
C7C C 0.4426(3) 0.4033(3) 0.4519(4)
H9C H 0.4176 0.4136 0.4295
C8C C 0.4841(3) 0.4296(2) 0.4535(4)
C9C C 0.4852(4) 0.4731(3) 0.4181(5)
H10C H 0.5025 0.4666 0.3844
H11C H 0.5005 0.4983 0.4380
H12C H 0.4534 0.4823 0.4089
C10C C 0.5327(3) 0.1803(2) 0.6816(4)
H13C H 0.5458 0.1503 0.6859
C11C C 0.5434(3) 0.2052(2) 0.6354(4)
H14C H 0.5623 0.1919 0.6077
C12C C 0.5261(2) 0.2504(2) 0.6297(3)
C13C C 0.4967(3) 0.2667(2) 0.6711(3)
H15C H 0.4842 0.2972 0.6688
C14C C 0.4860(3) 0.2396(3) 0.7139(4)
H16C H 0.4647 0.2508 0.7404
C15C C 0.5372(2) 0.2806(2) 0.5831(3)
C16C C 0.5529(3) 0.2636(2) 0.5339(4)
H17C H 0.5547 0.2308 0.5301
C17C C 0.5665(3) 0.2909(3) 0.4885(3)
C18C C 0.5903(4) 0.2684(3) 0.4418(4)
H18C H 0.6186 0.2857 0.4330
H19C H 0.5696 0.2683 0.4100
H20C H 0.5984 0.2364 0.4516
C19C C 0.3880(3) 0.4335(3) 0.7037(3)
H21C H 0.3586 0.4186 0.7014
C20C C 0.4232(3) 0.4198(3) 0.6705(4)
H22C H 0.4176 0.3959 0.6446
C21C C 0.4668(2) 0.4395(2) 0.6733(3)
C22C C 0.4734(2) 0.4748(3) 0.7118(3)
H23C H 0.5029 0.4890 0.7157
C23C C 0.4365(2) 0.4886(3) 0.7440(3)
H24C H 0.4411 0.5131 0.7695
C24C C 0.5040(2) 0.4237(2) 0.6352(3)
C25C C 0.5497(2) 0.4270(2) 0.6492(3)
H25C H 0.5569 0.4365 0.6853
C26C C 0.5871(2) 0.4173(2) 0.6134(4)
C27C C 0.6365(3) 0.4283(3) 0.6307(4)
H26C H 0.6389 0.4263 0.6706
H27C H 0.6446 0.4598 0.6188
H28C H 0.6578 0.4059 0.6140
C28C C 0.5063(3) 0.1145(3) 0.8952(3)
H29C H 0.5364 0.1277 0.8913
C29C C 0.4968(2) 0.0890(2) 0.9423(3)
H30C H 0.5192 0.0861 0.9705
C30C C 0.4536(2) 0.0680(2) 0.9467(3)
C31C C 0.4210(3) 0.0757(3) 0.9050(3)
H31C H 0.3912 0.0618 0.9072
C32C C 0.4317(3) 0.1023(3) 0.8623(3)
H32C H 0.4083 0.1084 0.8358
C33C C 0.4408(2) 0.0379(2) 0.9950(3)
C34C C 0.4633(3) 0.0428(2) 1.0434(3)
H33C H 0.4853 0.0672 1.0467
C35C C 0.4562(3) 0.0139(2) 1.0890(3)
C36C C 0.4867(3) 0.0193(3) 1.1380(4)
H34C H 0.4678 0.0171 1.1712
H35C H 0.5021 0.0496 1.1367
H36C H 0.5101 -0.0054 1.1382
C37C C 0.2546(3) 0.1523(3) 1.1394(4)
H37C H 0.2355 0.1633 1.1683
C38C C 0.2674(3) 0.1058(3) 1.1388(4)
H38C H 0.2568 0.0853 1.1665
C39C C 0.2958(2) 0.0899(2) 1.0972(3)
C40C C 0.3082(3) 0.1203(3) 1.0564(4)
H39C H 0.3264 0.1096 1.0266
C41C C 0.2948(3) 0.1656(3) 1.0585(4)
H40C H 0.3041 0.1860 1.0301
C42C C 0.3120(3) 0.0399(2) 1.0940(4)
C43C C 0.2872(4) 0.0047(3) 1.1192(5)
H41C H 0.2589 0.0126 1.1368
C44C C 0.3014(3) -0.0416(3) 1.1202(4)
C45C C 0.2771(5) -0.0757(3) 1.1551(6)
H42C H 0.3000 -0.0935 1.1761
H43C H 0.2590 -0.0969 1.1321
H44C H 0.2562 -0.0594 1.1802
C46C C 0.2286(3) 0.0154(3) 0.8773(4)
H45C H 0.2158 0.0456 0.8813
C47C C 0.2611(3) 0.0021(3) 0.9116(4)
H46C H 0.2705 0.0222 0.9402
C48C C 0.2819(2) -0.0421(2) 0.9060(3)
C49C C 0.2665(3) -0.0703(3) 0.8664(4)
H47C H 0.2791 -0.1006 0.8623
C50C C 0.2307(3) -0.0543(3) 0.8304(4)
H48C H 0.2202 -0.0741 0.8020
C51C C 0.3204(2) -0.0549(2) 0.9465(3)
C52C C 0.3514(3) -0.0911(3) 0.9328(4)
C53C C 0.3867(3) -0.1047(3) 0.9679(4)
C54C C 0.4153(4) -0.1469(4) 0.9552(6)
H49C H 0.4455 -0.1373 0.9406
H50C H 0.3990 -0.1659 0.9281
H51C H 0.4199 -0.1650 0.9887
S1 S 0.2920(4) 0.3471(3) 1.2882(3)
O19 O 0.3296(8) 0.3595(7) 1.3190(8)
O20 O 0.2546(8) 0.3313(6) 1.3239(8)
O21 O 0.2785(9) 0.3865(6) 1.2552(8)
O22 O 0.2978(7) 0.3072(5) 1.2584(8)
S2 S 0.3402(3) 0.2909(3) 0.7047(4)
O23 O 0.2974(6) 0.2755(7) 0.6930(9)
O24 O 0.3593(9) 0.3170(8) 0.6567(10)
O25 O 0.3416(8) 0.3183(8) 0.7525(9)
O26 O 0.3747(6) 0.2561(6) 0.7029(9)
S3 S 0.2093(7) 0.3340(7) 0.8716(7)
O27 O 0.2175(18) 0.3241(16) 0.9234(11)
O28 O 0.2350(12) 0.3013(10) 0.8347(14)
O29 O 0.2192(11) 0.3817(9) 0.8579(14)
O30 O 0.1657(9) 0.3200(10) 0.8512(13)
H52? H 0.2491 0.2762 0.3635
H53? H 0.2624 0.2563 0.6208
H54? H 0.2521 0.2678 0.9629
H55? H 0.2695 0.2675 1.2151
loop_
_geom_bond_atom_site_label_1
_geom_bond_atom_site_label_2
_geom_bond_site_symmetry_1
_geom_bond_site_symmetry_2
Cu1 O13 1_555 1_555
Cu2 O15 1_555 1_555
Cu3 O17 1_555 1_555
Cr1 O1 1_555 1_555
Cr2 O7 1_555 1_555
O1 C6 1_555 1_555
O2 Cr1 1_555 1_555
O3 Cr1 1_555 1_555
O4 Cr1 1_555 1_555
O5 Cr1 1_555 1_555
O6 Cr1 1_555 1_555
O7 C33 1_555 1_555
O8 Cr2 1_555 1_555
O9 Cr2 1_555 1_555
O10 Cr2 1_555 1_555
O11 Cr2 1_555 1_555
O12 Cr2 1_555 1_555
O14 Cu1 1_555 1_555
O15 H1 1_555 1_555
H2 O15 1_555 1_555
O16 Cu2 1_555 1_555
H3 O16 1_555 1_555
H4 O16 1_555 1_555
N1 Cu1 1_555 1_555
N2 Cu2 1_555 1_555
N3 C19 1_555 1_555
N4 Cu2 1_555 1_555
N5 Cu3 1_555 1_555
N6 C46 1_555 1_555
C1 N1 1_555 1_555
H5 C1 1_555 1_555
C2 C1 1_555 1_555
H6 C2 1_555 1_555
C3 C2 1_555 1_555
C4 C3 1_555 1_555
H7 C4 1_555 1_555
C5 N1 1_555 1_555
H8 C5 1_555 1_555
C6 C3 1_555 1_555
C7 C6 1_555 1_555
H9 C7 1_555 1_555
C8 O2 1_555 1_555
C9 C8 1_555 1_555
H10 C9 1_555 1_555
H11 C9 1_555 1_555
H12 C9 1_555 1_555
C10 N2 1_555 1_555
H13 C10 1_555 1_555
C11 C10 1_555 1_555
H14 C11 1_555 1_555
C12 C11 1_555 1_555
C13 C12 1_555 1_555
H15 C13 1_555 1_555
C14 N2 1_555 1_555
H16 C14 1_555 1_555
C15 O3 1_555 1_555
C16 C15 1_555 1_555
H17 C16 1_555 1_555
C17 O4 1_555 1_555
C18 C17 1_555 1_555
H18 C18 1_555 1_555
H19 C18 1_555 1_555
H20 C18 1_555 1_555
C19 H21 1_555 1_555
C20 C19 1_555 1_555
H22 C20 1_555 1_555
C21 C20 1_555 1_555
C22 C21 1_555 1_555
H23 C22 1_555 1_555
C23 N3 1_555 1_555
H24 C23 1_555 1_555
C24 O5 1_555 1_555
C25 C24 1_555 1_555
H25 C25 1_555 1_555
C26 O6 1_555 1_555
C27 C26 1_555 1_555
H26 C27 1_555 1_555
H27 C27 1_555 1_555
H28 C27 1_555 1_555
C28 N4 1_555 1_555
H29 C28 1_555 1_555
C29 C28 1_555 1_555
H30 C29 1_555 1_555
C30 C29 1_555 1_555
C31 C30 1_555 1_555
H31 C31 1_555 1_555
C32 N4 1_555 1_555
H32 C32 1_555 1_555
C33 C30 1_555 1_555
C34 C33 1_555 1_555
H33 C34 1_555 1_555
C35 O8 1_555 1_555
C36 C35 1_555 1_555
H34 C36 1_555 1_555
H35 C36 1_555 1_555
H36 C36 1_555 1_555
C37 N5 1_555 1_555
H37 C37 1_555 1_555
C38 C37 1_555 1_555
H38 C38 1_555 1_555
C39 C38 1_555 1_555
C40 C39 1_555 1_555
H39 C40 1_555 1_555
C41 N5 1_555 1_555
H40 C41 1_555 1_555
C42 O9 1_555 1_555
C43 C42 1_555 1_555
H41 C43 1_555 1_555
C44 O10 1_555 1_555
C45 C44 1_555 1_555
H42 C45 1_555 1_555
H43 C45 1_555 1_555
H44 C45 1_555 1_555
C46 H45 1_555 1_555
C47 C46 1_555 1_555
H46 C47 1_555 1_555
C48 C47 1_555 1_555
C49 C48 1_555 1_555
H47 C49 1_555 1_555
C50 N6 1_555 1_555
H48 C50 1_555 1_555
C51 O11 1_555 1_555
C52 C51 1_555 1_555
C53 O12 1_555 1_555
C54 C53 1_555 1_555
H49 C54 1_555 1_555
H50 C54 1_555 1_555
H51 C54 1_555 1_555
O18 Cu3 1_555 1_555
S1 O19 1_555 1_555
O20 S1 1_555 1_555
O21 S1 1_555 1_555
O22 S1 1_555 1_555
S2 O23 1_555 1_555
O24 S2 1_555 1_555
O25 S2 1_555 1_555
O26 S2 1_555 1_555
S3 O27 1_555 1_555
O28 S3 1_555 1_555
O29 S3 1_555 1_555
O30 S3 1_555 1_555
Cu2A N3 1_555 1_555
Cr1A O1A 1_555 1_555
Cr2A O7A 1_555 1_555
O1A C6A 1_555 1_555
O2A Cr1A 1_555 1_555
O3A Cr1A 1_555 1_555
O4A Cr1A 1_555 1_555
O5A Cr1A 1_555 1_555
O6A Cr1A 1_555 1_555
O7A C33A 1_555 1_555
O8A Cr2A 1_555 1_555
O9A Cr2A 1_555 1_555
O10A Cr2A 1_555 1_555
O11A Cr2A 1_555 1_555
O12A Cr2A 1_555 1_555
O15A Cu2A 1_555 1_555
H1A O15A 1_555 1_555
H2A O15A 1_555 1_555
O16A Cu2A 1_555 1_555
H3A O16A 1_555 1_555
H4A O16A 1_555 1_555
N1A Cu1 1_555 1_555
N2A Cu2A 1_555 1_555
N3A C19A 1_555 1_555
N4A Cu2A 1_555 1_555
N5A Cu3 1_555 1_555
N6A Cu2 1_555 1_555
C1A N1A 1_555 1_555
H5A C1A 1_555 1_555
C2A C1A 1_555 1_555
H6A C2A 1_555 1_555
C3A C2A 1_555 1_555
C4A C3A 1_555 1_555
H7A C4A 1_555 1_555
C5A N1A 1_555 1_555
H8A C5A 1_555 1_555
C6A C3A 1_555 1_555
C7A C6A 1_555 1_555
H9A C7A 1_555 1_555
C8A O2A 1_555 1_555
C9A C8A 1_555 1_555
H10A C9A 1_555 1_555
H11A C9A 1_555 1_555
H12A C9A 1_555 1_555
C10A N2A 1_555 1_555
H13A C10A 1_555 1_555
C11A C10A 1_555 1_555
H14A C11A 1_555 1_555
C12A C11A 1_555 1_555
C13A C12A 1_555 1_555
H15A C13A 1_555 1_555
C14A N2A 1_555 1_555
H16A C14A 1_555 1_555
C15A O3A 1_555 1_555
C16A C15A 1_555 1_555
H17A C16A 1_555 1_555
C17A O4A 1_555 1_555
C18A C17A 1_555 1_555
H18A C18A 1_555 1_555
H19A C18A 1_555 1_555
H20A C18A 1_555 1_555
C19A H21A 1_555 1_555
C20A C19A 1_555 1_555
H22A C20A 1_555 1_555
C21A C20A 1_555 1_555
C22A C21A 1_555 1_555
H23A C22A 1_555 1_555
C23A N3A 1_555 1_555
H24A C23A 1_555 1_555
C24A O5A 1_555 1_555
C25A C24A 1_555 1_555
H25A C25A 1_555 1_555
C26A O6A 1_555 1_555
C27A C26A 1_555 1_555
H26A C27A 1_555 1_555
H27A C27A 1_555 1_555
H28A C27A 1_555 1_555
C28A N4A 1_555 1_555
H29A C28A 1_555 1_555
C29A C28A 1_555 1_555
H30A C29A 1_555 1_555
C30A C29A 1_555 1_555
C31A C30A 1_555 1_555
H31A C31A 1_555 1_555
C32A N4A 1_555 1_555
H32A C32A 1_555 1_555
C33A C30A 1_555 1_555
C34A C33A 1_555 1_555
H33A C34A 1_555 1_555
C35A O8A 1_555 1_555
C36A C35A 1_555 1_555
H34A C36A 1_555 1_555
H35A C36A 1_555 1_555
H36A C36A 1_555 1_555
C37A N5A 1_555 1_555
H37A C37A 1_555 1_555
C38A C37A 1_555 1_555
H38A C38A 1_555 1_555
C39A C38A 1_555 1_555
C40A C39A 1_555 1_555
H39A C40A 1_555 1_555
C41A N5A 1_555 1_555
H40A C41A 1_555 1_555
C42A O9A 1_555 1_555
C43A C42A 1_555 1_555
H41A C43A 1_555 1_555
C44A O10A 1_555 1_555
C45A C44A 1_555 1_555
H42A C45A 1_555 1_555
H43A C45A 1_555 1_555
H44A C45A 1_555 1_555
C46A N6A 1_555 1_555
H45A C46A 1_555 1_555
C47A C46A 1_555 1_555
H46A C47A 1_555 1_555
C48A C47A 1_555 1_555
C49A C48A 1_555 1_555
H47A C49A 1_555 1_555
C50A N6A 1_555 1_555
H48A C50A 1_555 1_555
C51A O11A 1_555 1_555
C52A C51A 1_555 1_555
C53A O12A 1_555 1_555
C54A C53A 1_555 1_555
H49A C54A 1_555 1_555
H50A C54A 1_555 1_555
H51A C54A 1_555 1_555
Cu2B N3A 1_555 1_555
Cr1B O1B 1_555 1_555
Cr2B O7B 1_555 1_555
O1B C6B 1_555 1_555
O2B Cr1B 1_555 1_555
O3B Cr1B 1_555 1_555
O4B Cr1B 1_555 1_555
O5B Cr1B 1_555 1_555
O6B Cr1B 1_555 1_555
O7B C33B 1_555 1_555
O8B Cr2B 1_555 1_555
O9B Cr2B 1_555 1_555
O10B Cr2B 1_555 1_555
O11B Cr2B 1_555 1_555
O12B Cr2B 1_555 1_555
O15B Cu2B 1_555 1_555
H1B O15B 1_555 1_555
H2B O15B 1_555 1_555
O16B Cu2B 1_555 1_555
H3B O16B 1_555 1_555
H4B O16B 1_555 1_555
N1B Cu1 1_555 1_555
N2B Cu2B 1_555 1_555
N3B C19B 1_555 1_555
N4B Cu2B 1_555 1_555
N5B Cu3 1_555 1_555
N6B Cu2A 1_555 1_555
C1B N1B 1_555 1_555
H5B C1B 1_555 1_555
C2B C1B 1_555 1_555
H6B C2B 1_555 1_555
C3B C2B 1_555 1_555
C4B C3B 1_555 1_555
H7B C4B 1_555 1_555
C5B N1B 1_555 1_555
H8B C5B 1_555 1_555
C6B C3B 1_555 1_555
C7B C6B 1_555 1_555
H9B C7B 1_555 1_555
C8B O2B 1_555 1_555
C9B C8B 1_555 1_555
H10B C9B 1_555 1_555
H11B C9B 1_555 1_555
H12B C9B 1_555 1_555
C10B N2B 1_555 1_555
H13B C10B 1_555 1_555
C11B C10B 1_555 1_555
H14B C11B 1_555 1_555
C12B C11B 1_555 1_555
C13B C12B 1_555 1_555
H15B C13B 1_555 1_555
C14B N2B 1_555 1_555
H16B C14B 1_555 1_555
C15B O3B 1_555 1_555
C16B C15B 1_555 1_555
H17B C16B 1_555 1_555
C17B O4B 1_555 1_555
C18B C17B 1_555 1_555
H18B C18B 1_555 1_555
H19B C18B 1_555 1_555
H20B C18B 1_555 1_555
C19B H21B 1_555 1_555
C20B C19B 1_555 1_555
H22B C20B 1_555 1_555
C21B C20B 1_555 1_555
C22B C21B 1_555 1_555
H23B C22B 1_555 1_555
C23B N3B 1_555 1_555
H24B C23B 1_555 1_555
C24B O5B 1_555 1_555
C25B C24B 1_555 1_555
H25B C25B 1_555 1_555
C26B O6B 1_555 1_555
C27B C26B 1_555 1_555
H26B C27B 1_555 1_555
H27B C27B 1_555 1_555
H28B C27B 1_555 1_555
C28B N4B 1_555 1_555
H29B C28B 1_555 1_555
C29B C28B 1_555 1_555
H30B C29B 1_555 1_555
C30B C29B 1_555 1_555
C31B C30B 1_555 1_555
H31B C31B 1_555 1_555
C32B N4B 1_555 1_555
H32B C32B 1_555 1_555
C33B C30B 1_555 1_555
C34B C33B 1_555 1_555
H33B C34B 1_555 1_555
C35B O8B 1_555 1_555
C36B C35B 1_555 1_555
H34B C36B 1_555 1_555
H35B C36B 1_555 1_555
H36B C36B 1_555 1_555
C37B N5B 1_555 1_555
H37B C37B 1_555 1_555
C38B C37B 1_555 1_555
H38B C38B 1_555 1_555
C39B C38B 1_555 1_555
C40B C39B 1_555 1_555
H39B C40B 1_555 1_555
C41B N5B 1_555 1_555
H40B C41B 1_555 1_555
C42B O9B 1_555 1_555
C43B C42B 1_555 1_555
H41B C43B 1_555 1_555
C44B O10B 1_555 1_555
C45B C44B 1_555 1_555
H42B C45B 1_555 1_555
H43B C45B 1_555 1_555
H44B C45B 1_555 1_555
C46B N6B 1_555 1_555
H45B C46B 1_555 1_555
C47B C46B 1_555 1_555
H46B C47B 1_555 1_555
C48B C47B 1_555 1_555
C49B C48B 1_555 1_555
H47B C49B 1_555 1_555
C50B N6B 1_555 1_555
H48B C50B 1_555 1_555
C51B O11B 1_555 1_555
C52B C51B 1_555 1_555
C53B O12B 1_555 1_555
C54B C53B 1_555 1_555
H49B C54B 1_555 1_555
H50B C54B 1_555 1_555
H51B C54B 1_555 1_555
Cu2C N6 1_555 1_555
Cr1C O1C 1_555 1_555
Cr2C O7C 1_555 1_555
O1C C6C 1_555 1_555
O2C Cr1C 1_555 1_555
O3C Cr1C 1_555 1_555
O4C Cr1C 1_555 1_555
O5C Cr1C 1_555 1_555
O6C Cr1C 1_555 1_555
O7C C33C 1_555 1_555
O8C Cr2C 1_555 1_555
O9C Cr2C 1_555 1_555
O10C Cr2C 1_555 1_555
O11C Cr2C 1_555 1_555
O12C Cr2C 1_555 1_555
O15C Cu2C 1_555 1_555
H1C O15C 1_555 1_555
H2C O15C 1_555 1_555
O16C Cu2C 1_555 1_555
H3C O16C 1_555 1_555
H4C O16C 1_555 1_555
N1C Cu1 1_555 1_555
N2C Cu2C 1_555 1_555
N3C Cu2 1_555 1_555
N4C Cu2C 1_555 1_555
N5C Cu3 1_555 1_555
N6C Cu2B 1_555 1_555
C1C N1C 1_555 1_555
H5C C1C 1_555 1_555
C2C C1C 1_555 1_555
H6C C2C 1_555 1_555
C3C C2C 1_555 1_555
C4C C3C 1_555 1_555
H7C C4C 1_555 1_555
C5C N1C 1_555 1_555
H8C C5C 1_555 1_555
C6C C3C 1_555 1_555
C7C C6C 1_555 1_555
H9C C7C 1_555 1_555
C8C O2C 1_555 1_555
C9C C8C 1_555 1_555
H10C C9C 1_555 1_555
H11C C9C 1_555 1_555
H12C C9C 1_555 1_555
C10C N2C 1_555 1_555
H13C C10C 1_555 1_555
C11C C10C 1_555 1_555
H14C C11C 1_555 1_555
C12C C11C 1_555 1_555
C13C C12C 1_555 1_555
H15C C13C 1_555 1_555
C14C N2C 1_555 1_555
H16C C14C 1_555 1_555
C15C O3C 1_555 1_555
C16C C15C 1_555 1_555
H17C C16C 1_555 1_555
C17C O4C 1_555 1_555
C18C C17C 1_555 1_555
H18C C18C 1_555 1_555
H19C C18C 1_555 1_555
H20C C18C 1_555 1_555
C19C N3C 1_555 1_555
H21C C19C 1_555 1_555
C20C C19C 1_555 1_555
H22C C20C 1_555 1_555
C21C C20C 1_555 1_555
C22C C21C 1_555 1_555
H23C C22C 1_555 1_555
C23C N3C 1_555 1_555
H24C C23C 1_555 1_555
C24C O5C 1_555 1_555
C25C C24C 1_555 1_555
H25C C25C 1_555 1_555
C26C O6C 1_555 1_555
C27C C26C 1_555 1_555
H26C C27C 1_555 1_555
H27C C27C 1_555 1_555
H28C C27C 1_555 1_555
C28C N4C 1_555 1_555
H29C C28C 1_555 1_555
C29C C28C 1_555 1_555
H30C C29C 1_555 1_555
C30C C29C 1_555 1_555
C31C C30C 1_555 1_555
H31C C31C 1_555 1_555
C32C N4C 1_555 1_555
H32C C32C 1_555 1_555
C33C C30C 1_555 1_555
C34C C33C 1_555 1_555
H33C C34C 1_555 1_555
C35C O8C 1_555 1_555
C36C C35C 1_555 1_555
H34C C36C 1_555 1_555
H35C C36C 1_555 1_555
H36C C36C 1_555 1_555
C37C N5C 1_555 1_555
H37C C37C 1_555 1_555
C38C C37C 1_555 1_555
H38C C38C 1_555 1_555
C39C C38C 1_555 1_555
C40C C39C 1_555 1_555
H39C C40C 1_555 1_555
C41C N5C 1_555 1_555
H40C C41C 1_555 1_555
C42C O9C 1_555 1_555
C43C C42C 1_555 1_555
H41C C43C 1_555 1_555
C44C O10C 1_555 1_555
C45C C44C 1_555 1_555
H42C C45C 1_555 1_555
H43C C45C 1_555 1_555
H44C C45C 1_555 1_555
C46C N6C 1_555 1_555
H45C C46C 1_555 1_555
C47C C46C 1_555 1_555
H46C C47C 1_555 1_555
C48C C47C 1_555 1_555
C49C C48C 1_555 1_555
H47C C49C 1_555 1_555
C50C N6C 1_555 1_555
H48C C50C 1_555 1_555
C51C O11C 1_555 1_555
C52C C51C 1_555 1_555
C53C O12C 1_555 1_555
C54C C53C 1_555 1_555
H49C C54C 1_555 1_555
H50C C54C 1_555 1_555
H51C C54C 1_555 1_555
C4 C5 1_555 1_555
C7 C8 1_555 1_555
C12 C15 1_555 1_555
C13 C14 1_555 1_555
C16 C17 1_555 1_555
C21 C24 1_555 1_555
C22 C23 1_555 1_555
C25 C26 1_555 1_555
C31 C32 1_555 1_555
C34 C35 1_555 1_555
C39 C42 1_555 1_555
C40 C41 1_555 1_555
C43 C44 1_555 1_555
C48 C51 1_555 1_555
C49 C50 1_555 1_555
C52 C53 1_555 1_555
C4A C5A 1_555 1_555
C7A C8A 1_555 1_555
C12A C15A 1_555 1_555
C13A C14A 1_555 1_555
C16A C17A 1_555 1_555
C21A C24A 1_555 1_555
C22A C23A 1_555 1_555
C25A C26A 1_555 1_555
C31A C32A 1_555 1_555
C34A C35A 1_555 1_555
C39A C42A 1_555 1_555
C40A C41A 1_555 1_555
C43A C44A 1_555 1_555
C48A C51A 1_555 1_555
C49A C50A 1_555 1_555
C52A C53A 1_555 1_555
N3B Cu2C 1_555 1_555
C4B C5B 1_555 1_555
C7B C8B 1_555 1_555
C12B C15B 1_555 1_555
C13B C14B 1_555 1_555
C16B C17B 1_555 1_555
C21B C24B 1_555 1_555
C22B C23B 1_555 1_555
C25B C26B 1_555 1_555
C31B C32B 1_555 1_555
C34B C35B 1_555 1_555
C39B C42B 1_555 1_555
C40B C41B 1_555 1_555
C43B C44B 1_555 1_555
C48B C51B 1_555 1_555
C49B C50B 1_555 1_555
C52B C53B 1_555 1_555
C4C C5C 1_555 1_555
C7C C8C 1_555 1_555
C12C C15C 1_555 1_555
C13C C14C 1_555 1_555
C16C C17C 1_555 1_555
C21C C24C 1_555 1_555
C22C C23C 1_555 1_555
C25C C26C 1_555 1_555
C31C C32C 1_555 1_555
C34C C35C 1_555 1_555
C39C C42C 1_555 1_555
C40C C41C 1_555 1_555
C43C C44C 1_555 1_555
C48C C51C 1_555 1_555
C49C C50C 1_555 1_555
C52C C53C 1_555 1_555

#END
