
#######################################################################
#
#                 Cambridge Crystallographic Data Centre
#                                CCDC 
#
#######################################################################
#
# If this CIF has been generated from an entry in the Cambridge 
# Structural Database, then it will include bibliographic, chemical, 
# crystal, experimental, refinement or atomic coordinate data resulting 
# from the CCDC's data processing and validation procedures.
#
#######################################################################

data_ULEGUP
_chemical_formula_moiety         'C216 H192 Cl12 Cr8 Cu6 N24 O48'
_chemical_name_systematic        
'tetracosakis(\m~2~-4-Oxo-4-(pyridin-4-yl)buten-2-olato)-dodecachloro-octa-chromium(iii)-hexa-copper(ii) unknown solvate'
_symmetry_cell_setting           tetragonal
_symmetry_space_group_name_H-M   'I 41 2 2'
_symmetry_Int_Tables_number      98
_space_group_name_Hall           'I 4bw 2bw'
loop_
_symmetry_equiv_pos_site_id
_symmetry_equiv_pos_as_xyz
1 x,y,z
2 -y,1/2+x,1/4+z
3 -x,-y,z
4 y,1/2-x,1/4+z
5 x,1/2-y,1/4-z
6 -x,1/2+y,1/4-z
7 y,x,-z
8 -y,-x,-z
9 1/2+x,1/2+y,1/2+z
10 1/2-y,x,3/4+z
11 1/2-x,1/2-y,1/2+z
12 1/2+y,-x,3/4+z
13 1/2+x,-y,3/4-z
14 1/2-x,y,3/4-z
15 1/2+y,1/2+x,1/2-z
16 1/2-y,1/2-x,1/2-z
_cell_length_a                   41.329(14)
_cell_length_b                   41.329(14)
_cell_length_c                   31.056(10)
_cell_angle_alpha                90
_cell_angle_beta                 90
_cell_angle_gamma                90
_cell_volume                     53046.3
_exptl_crystal_colour            green
_exptl_crystal_description       Prism
_cell_formula_units_Z            4
loop_
_atom_site_label
_atom_site_type_symbol
_atom_site_fract_x
_atom_site_fract_y
_atom_site_fract_z
Cu1 Cu 0.62781(2) 0.62781(2) 0.5000
Cu2 Cu 0.40736(2) 0.59764(2) 0.32435(2)
Cr1 Cr 0.60702(2) 0.60137(2) 0.21961(3)
Cr2 Cr 0.45696(2) 0.75542(2) 0.50496(3)
Cl1 Cl 0.58103(3) 0.58103(3) 0.5000
Cl2 Cl 0.37639(4) 0.63148(5) 0.26121(8)
O1 O 0.59641(9) 0.59101(8) 0.15976(13)
O2 O 0.56192(7) 0.60365(5) 0.23242(11)
O3 O 0.60789(9) 0.64596(10) 0.20454(15)
O4 O 0.61728(6) 0.60909(8) 0.27793(12)
O5 O 0.65578(7) 0.59762(8) 0.20566(10)
O6 O 0.60648(7) 0.55478(7) 0.23606(11)
O7 O 0.47437(9) 0.78458(7) 0.54893(14)
O8 O 0.49887(8) 0.73158(6) 0.50341(14)
O9 O 0.47218(8) 0.78459(7) 0.46247(15)
O10 O 0.44166(7) 0.72520(6) 0.46072(13)
O11 O 0.41500(7) 0.77764(6) 0.50640(12)
O12 O 0.44161(6) 0.72371(5) 0.54665(11)
N1 N 0.44837(4) 0.59598(7) 0.28579(11)
C1 C 0.44785(5) 0.59129(7) 0.24147(11)
H1 H 0.4278 0.5883 0.2270
C2 C 0.47664(7) 0.59095(8) 0.21834(9)
H2 H 0.4763 0.5878 0.1881
C3 C 0.50595(5) 0.59530(7) 0.23952(10)
C4 C 0.50646(4) 0.59998(7) 0.28384(11)
H3 H 0.5265 0.6030 0.2983
C5 C 0.47767(6) 0.60032(7) 0.30697(9)
H4 H 0.4780 0.6035 0.3373
N2 N 0.62276(7) 0.63358(9) 0.43296(11)
C6 C 0.61633(7) 0.60586(6) 0.40911(14)
H5 H 0.6143 0.5855 0.4232
C7 C 0.61284(8) 0.60786(7) 0.36467(14)
H6 H 0.6085 0.5889 0.3484
C8 C 0.61577(9) 0.63759(10) 0.34409(11)
C9 C 0.62219(8) 0.66531(7) 0.36795(14)
H7 H 0.6242 0.6856 0.3539
C10 C 0.62568(7) 0.66331(7) 0.41239(14)
H8 H 0.6301 0.6823 0.4287
N3 N 0.60483(6) 0.44489(8) 0.29702(11)
N4 N 0.59467(6) 0.66392(6) 0.51060(10)
C11 C 0.60115(6) 0.69141(7) 0.53489(11)
H9 H 0.6219 0.6943 0.5474
C12 C 0.57725(8) 0.71464(6) 0.54087(10)
H10 H 0.5817 0.7334 0.5575
C13 C 0.54686(6) 0.71037(5) 0.52255(11)
C14 C 0.54037(6) 0.68287(6) 0.49826(10)
H11 H 0.5196 0.6800 0.4857
C15 C 0.56428(7) 0.65965(5) 0.49229(9)
H12 H 0.5599 0.6409 0.4757
N5 N 0.41933(8) 0.64026(7) 0.35608(17)
N6 N 0.40419(7) 0.63315(5) 0.63745(10)
C16 C 0.43009(6) 0.63791(6) 0.60960(12)
H13 H 0.4462 0.6216 0.6066
C17 C 0.43245(6) 0.66647(7) 0.58617(11)
H14 H 0.4502 0.6697 0.5671
C18 C 0.40892(7) 0.69027(5) 0.59059(10)
C19 C 0.38302(6) 0.68551(5) 0.61843(10)
H15 H 0.3669 0.7018 0.6215
C20 C 0.38066(6) 0.65695(6) 0.64186(10)
H16 H 0.3630 0.6537 0.6609
C21 C 0.5568(2) 0.57032(10) 0.1050(2)
H17 H 0.5478 0.5881 0.0879
H18 H 0.5401 0.5540 0.1101
H19 H 0.5749 0.5605 0.0893
C22 C 0.56873(13) 0.58314(7) 0.14735(18)
C23 C 0.53765(13) 0.58452(8) 0.17357(19)
H20 H 0.5178 0.5779 0.1608
C24 C 0.53788(11) 0.59514(7) 0.21509(18)
C25 C 0.5911(2) 0.70284(15) 0.2176(3)
H21 H 0.5675 0.7048 0.2157
H22 H 0.6007 0.7074 0.1894
H23 H 0.5994 0.7184 0.2387
C26 C 0.5998(2) 0.66970(15) 0.2310(3)
C27 C 0.60701(13) 0.66974(12) 0.2768(2)
H24 H 0.6081 0.6891 0.2931
C28 C 0.61284(10) 0.63641(13) 0.29699(17)
C29 C 0.70749(11) 0.57974(16) 0.2014(2)
H25 H 0.7086 0.5804 0.1699
H26 H 0.7217 0.5626 0.2122
H27 H 0.7145 0.6006 0.2131
C30 C 0.67374(11) 0.57326(12) 0.21497(19)
C31 C 0.66126(9) 0.54552(11) 0.23897(18)
H28 H 0.6770 0.5326 0.2532
C32 C 0.63066(9) 0.53599(10) 0.24338(14)
C33 C 0.62263(8) 0.50441(10) 0.25881(14)
C34 C 0.64362(7) 0.47547(9) 0.25938(16)
H29 H 0.6642 0.4758 0.2457
C35 C 0.63322(8) 0.44864(9) 0.27956(15)
H30 H 0.6478 0.4309 0.2812
C36 C 0.58619(11) 0.46771(11) 0.29906(17)
H31 H 0.5668 0.4653 0.3152
C37 C 0.59267(10) 0.49935(10) 0.27715(17)
H32 H 0.5765 0.5156 0.2759
C38 C 0.50579(16) 0.80572(12) 0.60740(17)
H33 H 0.5222 0.8215 0.5985
H34 H 0.5136 0.7939 0.6327
H35 H 0.4857 0.8170 0.6146
C39 C 0.49958(15) 0.78231(10) 0.57118(19)
C40 C 0.52568(13) 0.75691(14) 0.5589(2)
H36 H 0.5462 0.7579 0.5727
C41 C 0.52092(11) 0.73551(9) 0.53204(18)
C42 C 0.49295(13) 0.80483(10) 0.39943(17)
H37 H 0.5062 0.8180 0.4188
H38 H 0.4774 0.8187 0.3844
H39 H 0.5070 0.7941 0.3783
C43 C 0.47527(10) 0.78001(11) 0.4247(2)
C44 C 0.46747(9) 0.74967(9) 0.40205(17)
H40 H 0.4751 0.7464 0.3735
C45 C 0.44895(10) 0.72558(10) 0.4219(2)
C46 C 0.43635(13) 0.69938(12) 0.3952(2)
C47 C 0.42948(9) 0.66812(10) 0.41811(18)
H41 H 0.4309 0.6678 0.4486
C48 C 0.42198(10) 0.64242(13) 0.3990(2)
H42 H 0.4180 0.6236 0.4157
C49 C 0.42906(12) 0.66437(13) 0.3357(2)
H43 H 0.4291 0.6632 0.3052
C50 C 0.44043(9) 0.69450(10) 0.3558(2)
H44 H 0.4509 0.7104 0.3387
C51 C 0.35992(10) 0.78903(8) 0.51747(15)
H45 H 0.3659 0.8105 0.5067
H46 H 0.3481 0.7913 0.5446
H47 H 0.3462 0.7781 0.4963
C52 C 0.38949(10) 0.76969(9) 0.52484(11)
C53 C 0.38947(10) 0.74012(8) 0.55459(12)
H48 H 0.3693 0.7352 0.5678
C54 C 0.41388(12) 0.72020(9) 0.56464(14)
Cl3 Cl 0.44284(3) 0.56161(3) 0.39099(6)
Cl4 Cl 0.68139(15) 0.68139(15) 0.5000
Cu1B Cu 0.37219(2) 0.37219(2) 0.5000
Cu2B Cu 0.59264(2) 0.40236(2) 0.32435(2)
Cr1B Cr 0.39298(2) 0.39863(2) 0.21961(3)
Cr2B Cr 0.54304(2) 0.24458(2) 0.50496(3)
Cl1B Cl 0.41897(3) 0.41897(3) 0.5000
Cl2B Cl 0.62361(4) 0.36852(5) 0.26121(8)
O1B O 0.40359(9) 0.40899(8) 0.15976(13)
O2B O 0.43808(7) 0.39635(5) 0.23242(11)
O3B O 0.39211(9) 0.35404(10) 0.20454(15)
O4B O 0.38272(6) 0.39091(8) 0.27793(12)
O5B O 0.34422(7) 0.40238(8) 0.20566(10)
O6B O 0.39352(7) 0.44522(7) 0.23606(11)
O7B O 0.52563(9) 0.21542(7) 0.54893(14)
O8B O 0.50113(8) 0.26842(6) 0.50341(14)
O9B O 0.52782(8) 0.21541(7) 0.46247(15)
O10B O 0.55834(7) 0.27480(6) 0.46072(13)
O11B O 0.58500(7) 0.22236(6) 0.50640(12)
O12B O 0.55839(6) 0.27629(5) 0.54665(11)
N1B N 0.55163(4) 0.40402(7) 0.28579(11)
C1B C 0.55215(5) 0.40871(7) 0.24147(11)
H1B H 0.5722 0.4117 0.2270
C2B C 0.52336(7) 0.40905(8) 0.21834(9)
H2B H 0.5237 0.4122 0.1881
C3B C 0.49405(5) 0.40470(7) 0.23952(10)
C4B C 0.49354(4) 0.40002(7) 0.28384(11)
H3B H 0.4735 0.3970 0.2983
C5B C 0.52233(6) 0.39968(7) 0.30697(9)
H4B H 0.5220 0.3965 0.3373
N2B N 0.37724(7) 0.36642(9) 0.43296(11)
C6B C 0.38367(7) 0.39414(6) 0.40911(14)
H5B H 0.3857 0.4145 0.4232
C7B C 0.38716(8) 0.39214(7) 0.36467(14)
H6B H 0.3915 0.4111 0.3484
C8B C 0.38423(9) 0.36241(10) 0.34409(11)
C9B C 0.37781(8) 0.33469(7) 0.36795(14)
H7B H 0.3758 0.3144 0.3539
C10B C 0.37432(7) 0.33669(7) 0.41239(14)
H8B H 0.3699 0.3177 0.4287
N3B N 0.39517(6) 0.55511(8) 0.29702(11)
N4B N 0.40533(6) 0.33608(6) 0.51060(10)
C11B C 0.39885(6) 0.30859(7) 0.53489(11)
H9B H 0.3781 0.3057 0.5474
C12B C 0.42275(8) 0.28536(6) 0.54087(10)
H10B H 0.4183 0.2666 0.5575
C13B C 0.45314(6) 0.28963(5) 0.52255(11)
C14B C 0.45963(6) 0.31713(6) 0.49826(10)
H11B H 0.4804 0.3200 0.4857
C15B C 0.43572(7) 0.34035(5) 0.49229(9)
H12B H 0.4401 0.3591 0.4757
N5B N 0.58067(8) 0.35974(7) 0.35608(17)
N6B N 0.59581(7) 0.36685(5) 0.63745(10)
C16B C 0.56991(6) 0.36209(6) 0.60960(12)
H13B H 0.5538 0.3784 0.6066
C17B C 0.56755(6) 0.33353(7) 0.58617(11)
H14B H 0.5498 0.3303 0.5671
C18B C 0.59108(7) 0.30973(5) 0.59059(10)
C19B C 0.61698(6) 0.31449(5) 0.61843(10)
H15B H 0.6331 0.2982 0.6215
C20B C 0.61934(6) 0.34305(6) 0.64186(10)
H16B H 0.6370 0.3463 0.6609
C21B C 0.4432(2) 0.42968(10) 0.1050(2)
H17B H 0.4522 0.4119 0.0879
H18B H 0.4599 0.4460 0.1101
H19B H 0.4251 0.4395 0.0893
C22B C 0.43127(13) 0.41686(7) 0.14735(18)
C23B C 0.46235(13) 0.41548(8) 0.17357(19)
H20B H 0.4822 0.4221 0.1608
C24B C 0.46212(11) 0.40486(7) 0.21509(18)
C25B C 0.4089(2) 0.29716(15) 0.2176(3)
H21B H 0.4325 0.2952 0.2157
H22B H 0.3993 0.2926 0.1894
H23B H 0.4006 0.2816 0.2387
C26B C 0.4002(2) 0.33030(15) 0.2310(3)
C27B C 0.39299(13) 0.33026(12) 0.2768(2)
H24B H 0.3919 0.3109 0.2931
C28B C 0.38716(10) 0.36359(13) 0.29699(17)
C29B C 0.29251(11) 0.42026(16) 0.2014(2)
H25B H 0.2914 0.4196 0.1699
H26B H 0.2783 0.4374 0.2122
H27B H 0.2855 0.3994 0.2131
C30B C 0.32626(11) 0.42674(12) 0.21497(19)
C31B C 0.33874(9) 0.45448(11) 0.23897(18)
H28B H 0.3230 0.4674 0.2532
C32B C 0.36934(9) 0.46401(10) 0.24338(14)
C33B C 0.37737(8) 0.49559(10) 0.25881(14)
C34B C 0.35638(7) 0.52453(9) 0.25938(16)
H29B H 0.3358 0.5242 0.2457
C35B C 0.36678(8) 0.55136(9) 0.27956(15)
H30B H 0.3522 0.5691 0.2812
C36B C 0.41381(11) 0.53229(11) 0.29906(17)
H31B H 0.4332 0.5347 0.3152
C37B C 0.40733(10) 0.50065(10) 0.27715(17)
H32B H 0.4235 0.4844 0.2759
C38B C 0.49421(16) 0.19428(12) 0.60740(17)
H33B H 0.4778 0.1785 0.5985
H34B H 0.4864 0.2061 0.6327
H35B H 0.5143 0.1830 0.6146
C39B C 0.50042(15) 0.21769(10) 0.57118(19)
C40B C 0.47432(13) 0.24309(14) 0.5589(2)
H36B H 0.4538 0.2421 0.5727
C41B C 0.47908(11) 0.26449(9) 0.53204(18)
C42B C 0.50705(13) 0.19517(10) 0.39943(17)
H37B H 0.4938 0.1820 0.4188
H38B H 0.5226 0.1813 0.3844
H39B H 0.4930 0.2059 0.3783
C43B C 0.52473(10) 0.21999(11) 0.4247(2)
C44B C 0.53253(9) 0.25033(9) 0.40205(17)
H40B H 0.5249 0.2536 0.3735
C45B C 0.55105(10) 0.27442(10) 0.4219(2)
C46B C 0.56365(13) 0.30062(12) 0.3952(2)
C47B C 0.57052(9) 0.33188(10) 0.41811(18)
H41B H 0.5691 0.3322 0.4486
C48B C 0.57802(10) 0.35758(13) 0.3990(2)
H42B H 0.5820 0.3764 0.4157
C49B C 0.57094(12) 0.33563(13) 0.3357(2)
H43B H 0.5709 0.3368 0.3052
C50B C 0.55957(9) 0.30550(10) 0.3558(2)
H44B H 0.5491 0.2896 0.3387
C51B C 0.64008(10) 0.21097(8) 0.51747(15)
H45B H 0.6341 0.1895 0.5067
H46B H 0.6519 0.2087 0.5446
H47B H 0.6538 0.2219 0.4963
C52B C 0.61051(10) 0.23031(9) 0.52484(11)
C53B C 0.61053(10) 0.25988(8) 0.55459(12)
H48B H 0.6307 0.2648 0.5678
C54B C 0.58612(12) 0.27980(9) 0.56464(14)
Cl3B Cl 0.55716(3) 0.43839(3) 0.39099(6)
Cl4B Cl 0.31861(15) 0.31861(15) 0.5000
Cu2F Cu 0.59764(2) 0.40736(2) 0.67565(2)
Cr1F Cr 0.60137(2) 0.60702(2) 0.78039(3)
Cr2F Cr 0.75542(2) 0.45696(2) 0.49504(3)
Cl2F Cl 0.63148(5) 0.37639(4) 0.73879(8)
O1F O 0.59101(8) 0.59641(9) 0.84024(13)
O2F O 0.60365(5) 0.56192(7) 0.76758(11)
O3F O 0.64596(10) 0.60789(9) 0.79546(15)
O4F O 0.60909(8) 0.61728(6) 0.72207(12)
O5F O 0.59762(8) 0.65578(7) 0.79434(10)
O6F O 0.55478(7) 0.60648(7) 0.76394(11)
O7F O 0.78458(7) 0.47437(9) 0.45107(14)
O8F O 0.73158(6) 0.49887(8) 0.49659(14)
O9F O 0.78459(7) 0.47218(8) 0.53753(15)
O10F O 0.72520(6) 0.44166(7) 0.53928(13)
O11F O 0.77764(6) 0.41500(7) 0.49360(12)
O12F O 0.72371(5) 0.44161(6) 0.45335(11)
N1F N 0.59598(7) 0.44837(4) 0.71421(11)
C1F C 0.59129(7) 0.44785(5) 0.75853(11)
H1F H 0.5883 0.4278 0.7730
C2F C 0.59095(8) 0.47664(7) 0.78166(9)
H2F H 0.5878 0.4763 0.8119
C3F C 0.59530(7) 0.50595(5) 0.76048(10)
C4F C 0.59998(7) 0.50646(4) 0.71616(11)
H3F H 0.6030 0.5265 0.7017
C5F C 0.60032(7) 0.47767(6) 0.69303(9)
H4F H 0.6035 0.4780 0.6627
N2F N 0.63358(9) 0.62276(7) 0.56704(11)
C6F C 0.60586(6) 0.61633(7) 0.59089(14)
H5F H 0.5855 0.6143 0.5768
C7F C 0.60786(7) 0.61284(8) 0.63533(14)
H6F H 0.5889 0.6085 0.6516
C8F C 0.63759(10) 0.61577(9) 0.65591(11)
C9F C 0.66531(7) 0.62219(8) 0.63205(14)
H7F H 0.6856 0.6242 0.6461
C10F C 0.66331(7) 0.62568(7) 0.58761(14)
H8F H 0.6823 0.6301 0.5713
N3F N 0.44489(8) 0.60483(6) 0.70298(11)
N4F N 0.66392(6) 0.59467(6) 0.48940(10)
C11F C 0.69141(7) 0.60115(6) 0.46511(11)
H9F H 0.6943 0.6219 0.4526
C12F C 0.71464(6) 0.57725(8) 0.45913(10)
H10F H 0.7334 0.5817 0.4425
C13F C 0.71037(5) 0.54686(6) 0.47745(11)
C14F C 0.68287(6) 0.54037(6) 0.50174(10)
H11F H 0.6800 0.5196 0.5143
C15F C 0.65965(5) 0.56428(7) 0.50771(9)
H12F H 0.6409 0.5599 0.5243
N5F N 0.64026(7) 0.41933(8) 0.64392(17)
N6F N 0.63315(5) 0.40419(7) 0.36255(10)
C16F C 0.63791(6) 0.43009(6) 0.39040(12)
H13F H 0.6216 0.4462 0.3934
C17F C 0.66647(7) 0.43245(6) 0.41383(11)
H14F H 0.6697 0.4502 0.4329
C18F C 0.69027(5) 0.40892(7) 0.40941(10)
C19F C 0.68551(5) 0.38302(6) 0.38157(10)
H15F H 0.7018 0.3669 0.3785
C20F C 0.65695(6) 0.38066(6) 0.35814(10)
H16F H 0.6537 0.3630 0.3391
C21F C 0.57032(10) 0.5568(2) 0.8950(2)
H17F H 0.5881 0.5478 0.9121
H18F H 0.5540 0.5401 0.8899
H19F H 0.5605 0.5749 0.9107
C22F C 0.58314(7) 0.56873(13) 0.85265(18)
C23F C 0.58452(8) 0.53765(13) 0.82643(19)
H20F H 0.5779 0.5178 0.8392
C24F C 0.59514(7) 0.53788(11) 0.78491(18)
C25F C 0.70284(15) 0.5911(2) 0.7824(3)
H21F H 0.7048 0.5675 0.7843
H22F H 0.7074 0.6007 0.8106
H23F H 0.7184 0.5994 0.7613
C26F C 0.66970(15) 0.5998(2) 0.7690(3)
C27F C 0.66974(12) 0.60701(13) 0.7232(2)
H24F H 0.6891 0.6081 0.7069
C28F C 0.63641(13) 0.61284(10) 0.70301(17)
C29F C 0.57974(16) 0.70749(11) 0.7986(2)
H25F H 0.5804 0.7086 0.8301
H26F H 0.5626 0.7217 0.7878
H27F H 0.6006 0.7145 0.7869
C30F C 0.57326(12) 0.67374(11) 0.78503(19)
C31F C 0.54552(11) 0.66126(9) 0.76103(18)
H28F H 0.5326 0.6770 0.7468
C32F C 0.53599(10) 0.63066(9) 0.75662(14)
C33F C 0.50441(10) 0.62263(8) 0.74119(14)
C34F C 0.47547(9) 0.64362(7) 0.74062(16)
H29F H 0.4758 0.6642 0.7543
C35F C 0.44864(9) 0.63322(8) 0.72044(15)
H30F H 0.4309 0.6478 0.7188
C36F C 0.46771(11) 0.58619(11) 0.70094(17)
H31F H 0.4653 0.5668 0.6848
C37F C 0.49935(10) 0.59267(10) 0.72285(17)
H32F H 0.5156 0.5765 0.7241
C38F C 0.80572(12) 0.50579(16) 0.39260(17)
H33F H 0.8215 0.5222 0.4015
H34F H 0.7939 0.5136 0.3673
H35F H 0.8170 0.4857 0.3854
C39F C 0.78231(10) 0.49958(15) 0.42882(19)
C40F C 0.75691(14) 0.52568(13) 0.4411(2)
H36F H 0.7579 0.5462 0.4273
C41F C 0.73551(9) 0.52092(11) 0.46796(18)
C42F C 0.80483(10) 0.49295(13) 0.60057(17)
H37F H 0.8180 0.5062 0.5812
H38F H 0.8187 0.4774 0.6156
H39F H 0.7941 0.5070 0.6217
C43F C 0.78001(11) 0.47527(10) 0.5753(2)
C44F C 0.74967(9) 0.46747(9) 0.59795(17)
H40F H 0.7464 0.4751 0.6265
C45F C 0.72558(10) 0.44895(10) 0.5781(2)
C46F C 0.69938(12) 0.43635(13) 0.6048(2)
C47F C 0.66812(10) 0.42948(9) 0.58189(18)
H41F H 0.6678 0.4309 0.5514
C48F C 0.64242(13) 0.42198(10) 0.6010(2)
H42F H 0.6236 0.4180 0.5843
C49F C 0.66437(13) 0.42906(12) 0.6643(2)
H43F H 0.6632 0.4291 0.6948
C50F C 0.69450(10) 0.44043(9) 0.6442(2)
H44F H 0.7104 0.4509 0.6613
C51F C 0.78903(8) 0.35992(10) 0.48253(15)
H45F H 0.8105 0.3659 0.4933
H46F H 0.7913 0.3481 0.4554
H47F H 0.7781 0.3462 0.5037
C52F C 0.76969(9) 0.38949(10) 0.47516(11)
C53F C 0.74012(8) 0.38947(10) 0.44541(12)
H48F H 0.7352 0.3693 0.4322
C54F C 0.72020(9) 0.41388(12) 0.43536(14)
Cl3F Cl 0.56161(3) 0.44284(3) 0.60901(6)
Cu2G Cu 0.40236(2) 0.59264(2) 0.67565(2)
Cr1G Cr 0.39863(2) 0.39298(2) 0.78039(3)
Cr2G Cr 0.24458(2) 0.54304(2) 0.49504(3)
Cl2G Cl 0.36852(5) 0.62361(4) 0.73879(8)
O1G O 0.40899(8) 0.40359(9) 0.84024(13)
O2G O 0.39635(5) 0.43808(7) 0.76758(11)
O3G O 0.35404(10) 0.39211(9) 0.79546(15)
O4G O 0.39091(8) 0.38272(6) 0.72207(12)
O5G O 0.40238(8) 0.34422(7) 0.79434(10)
O6G O 0.44522(7) 0.39352(7) 0.76394(11)
O7G O 0.21542(7) 0.52563(9) 0.45107(14)
O8G O 0.26842(6) 0.50113(8) 0.49659(14)
O9G O 0.21541(7) 0.52782(8) 0.53753(15)
O10G O 0.27480(6) 0.55834(7) 0.53928(13)
O11G O 0.22236(6) 0.58500(7) 0.49360(12)
O12G O 0.27629(5) 0.55839(6) 0.45335(11)
N1G N 0.40402(7) 0.55163(4) 0.71421(11)
C1G C 0.40871(7) 0.55215(5) 0.75853(11)
H1G H 0.4117 0.5722 0.7730
C2G C 0.40905(8) 0.52336(7) 0.78166(9)
H2G H 0.4122 0.5237 0.8119
C3G C 0.40470(7) 0.49405(5) 0.76048(10)
C4G C 0.40002(7) 0.49354(4) 0.71616(11)
H3G H 0.3970 0.4735 0.7017
C5G C 0.39968(7) 0.52233(6) 0.69303(9)
H4G H 0.3965 0.5220 0.6627
N2G N 0.36642(9) 0.37724(7) 0.56704(11)
C6G C 0.39414(6) 0.38367(7) 0.59089(14)
H5G H 0.4145 0.3857 0.5768
C7G C 0.39214(7) 0.38716(8) 0.63533(14)
H6G H 0.4111 0.3915 0.6516
C8G C 0.36241(10) 0.38423(9) 0.65591(11)
C9G C 0.33469(7) 0.37781(8) 0.63205(14)
H7G H 0.3144 0.3758 0.6461
C10G C 0.33669(7) 0.37432(7) 0.58761(14)
H8G H 0.3177 0.3699 0.5713
N3G N 0.55511(8) 0.39517(6) 0.70298(11)
N4G N 0.33608(6) 0.40533(6) 0.48940(10)
C11G C 0.30859(7) 0.39885(6) 0.46511(11)
H9G H 0.3057 0.3781 0.4526
C12G C 0.28536(6) 0.42275(8) 0.45913(10)
H10G H 0.2666 0.4183 0.4425
C13G C 0.28963(5) 0.45314(6) 0.47745(11)
C14G C 0.31713(6) 0.45963(6) 0.50174(10)
H11G H 0.3200 0.4804 0.5143
C15G C 0.34035(5) 0.43572(7) 0.50771(9)
H12G H 0.3591 0.4401 0.5243
N5G N 0.35974(7) 0.58067(8) 0.64392(17)
N6G N 0.36685(5) 0.59581(7) 0.36255(10)
C16G C 0.36209(6) 0.56991(6) 0.39040(12)
H13G H 0.3784 0.5538 0.3934
C17G C 0.33353(7) 0.56755(6) 0.41383(11)
H14G H 0.3303 0.5498 0.4329
C18G C 0.30973(5) 0.59108(7) 0.40941(10)
C19G C 0.31449(5) 0.61698(6) 0.38157(10)
H15G H 0.2982 0.6331 0.3785
C20G C 0.34305(6) 0.61934(6) 0.35814(10)
H16G H 0.3463 0.6370 0.3391
C21G C 0.42968(10) 0.4432(2) 0.8950(2)
H17G H 0.4119 0.4522 0.9121
H18G H 0.4460 0.4599 0.8899
H19G H 0.4395 0.4251 0.9107
C22G C 0.41686(7) 0.43127(13) 0.85265(18)
C23G C 0.41548(8) 0.46235(13) 0.82643(19)
H20G H 0.4221 0.4822 0.8392
C24G C 0.40486(7) 0.46212(11) 0.78491(18)
C25G C 0.29716(15) 0.4089(2) 0.7824(3)
H21G H 0.2952 0.4325 0.7843
H22G H 0.2926 0.3993 0.8106
H23G H 0.2816 0.4006 0.7613
C26G C 0.33030(15) 0.4002(2) 0.7690(3)
C27G C 0.33026(12) 0.39299(13) 0.7232(2)
H24G H 0.3109 0.3919 0.7069
C28G C 0.36359(13) 0.38716(10) 0.70301(17)
C29G C 0.42026(16) 0.29251(11) 0.7986(2)
H25G H 0.4196 0.2914 0.8301
H26G H 0.4374 0.2783 0.7878
H27G H 0.3994 0.2855 0.7869
C30G C 0.42674(12) 0.32626(11) 0.78503(19)
C31G C 0.45448(11) 0.33874(9) 0.76103(18)
H28G H 0.4674 0.3230 0.7468
C32G C 0.46401(10) 0.36934(9) 0.75662(14)
C33G C 0.49559(10) 0.37737(8) 0.74119(14)
C34G C 0.52453(9) 0.35638(7) 0.74062(16)
H29G H 0.5242 0.3358 0.7543
C35G C 0.55136(9) 0.36678(8) 0.72044(15)
H30G H 0.5691 0.3522 0.7188
C36G C 0.53229(11) 0.41381(11) 0.70094(17)
H31G H 0.5347 0.4332 0.6848
C37G C 0.50065(10) 0.40733(10) 0.72285(17)
H32G H 0.4844 0.4235 0.7241
C38G C 0.19428(12) 0.49421(16) 0.39260(17)
H33G H 0.1785 0.4778 0.4015
H34G H 0.2061 0.4864 0.3673
H35G H 0.1830 0.5143 0.3854
C39G C 0.21769(10) 0.50042(15) 0.42882(19)
C40G C 0.24309(14) 0.47432(13) 0.4411(2)
H36G H 0.2421 0.4538 0.4273
C41G C 0.26449(9) 0.47908(11) 0.46796(18)
C42G C 0.19517(10) 0.50705(13) 0.60057(17)
H37G H 0.1820 0.4938 0.5812
H38G H 0.1813 0.5226 0.6156
H39G H 0.2059 0.4930 0.6217
C43G C 0.21999(11) 0.52473(10) 0.5753(2)
C44G C 0.25033(9) 0.53253(9) 0.59795(17)
H40G H 0.2536 0.5249 0.6265
C45G C 0.27442(10) 0.55105(10) 0.5781(2)
C46G C 0.30062(12) 0.56365(13) 0.6048(2)
C47G C 0.33188(10) 0.57052(9) 0.58189(18)
H41G H 0.3322 0.5691 0.5514
C48G C 0.35758(13) 0.57802(10) 0.6010(2)
H42G H 0.3764 0.5820 0.5843
C49G C 0.33563(13) 0.57094(12) 0.6643(2)
H43G H 0.3368 0.5709 0.6948
C50G C 0.30550(10) 0.55957(9) 0.6442(2)
H44G H 0.2896 0.5491 0.6613
C51G C 0.21097(8) 0.64008(10) 0.48253(15)
H45G H 0.1895 0.6341 0.4933
H46G H 0.2087 0.6519 0.4554
H47G H 0.2219 0.6538 0.5037
C52G C 0.23031(9) 0.61051(10) 0.47516(11)
C53G C 0.25988(8) 0.61053(10) 0.44541(12)
H48G H 0.2648 0.6307 0.4322
C54G C 0.27980(9) 0.58612(12) 0.43536(14)
Cl3G Cl 0.43839(3) 0.55716(3) 0.60901(6)
loop_
_geom_bond_atom_site_label_1
_geom_bond_atom_site_label_2
_geom_bond_site_symmetry_1
_geom_bond_site_symmetry_2
Cu1 Cl1 1_555 1_555
Cu2 Cl2 1_555 1_555
Cr1 O1 1_555 1_555
Cr2 O7 1_555 1_555
O1 C22 1_555 1_555
O2 Cr1 1_555 1_555
O3 Cr1 1_555 1_555
O4 Cr1 1_555 1_555
O5 Cr1 1_555 1_555
O6 Cr1 1_555 1_555
O7 C39 1_555 1_555
O8 Cr2 1_555 1_555
O9 Cr2 1_555 1_555
O10 Cr2 1_555 1_555
O11 Cr2 1_555 1_555
O12 Cr2 1_555 1_555
N1 Cu2 1_555 1_555
C1 N1 1_555 1_555
H1 C1 1_555 1_555
C2 C1 1_555 1_555
H2 C2 1_555 1_555
C3 C2 1_555 1_555
C4 C3 1_555 1_555
H3 C4 1_555 1_555
C5 N1 1_555 1_555
H4 C5 1_555 1_555
N2 Cu1 1_555 1_555
C6 N2 1_555 1_555
H5 C6 1_555 1_555
C7 C6 1_555 1_555
H6 C7 1_555 1_555
C8 C7 1_555 1_555
C9 C8 1_555 1_555
H7 C9 1_555 1_555
C10 N2 1_555 1_555
H8 C10 1_555 1_555
N3 C35 1_555 1_555
N4 Cu1 1_555 1_555
C11 N4 1_555 1_555
H9 C11 1_555 1_555
C12 C11 1_555 1_555
H10 C12 1_555 1_555
C13 C12 1_555 1_555
C14 C13 1_555 1_555
H11 C14 1_555 1_555
C15 N4 1_555 1_555
H12 C15 1_555 1_555
N5 Cu2 1_555 1_555
N6 C16 1_555 1_555
C16 H13 1_555 1_555
C17 C16 1_555 1_555
H14 C17 1_555 1_555
C18 C17 1_555 1_555
C19 C18 1_555 1_555
H15 C19 1_555 1_555
C20 N6 1_555 1_555
H16 C20 1_555 1_555
C21 H17 1_555 1_555
H18 C21 1_555 1_555
H19 C21 1_555 1_555
C22 C21 1_555 1_555
C23 C22 1_555 1_555
H20 C23 1_555 1_555
C24 O2 1_555 1_555
C25 H21 1_555 1_555
H22 C25 1_555 1_555
H23 C25 1_555 1_555
C26 O3 1_555 1_555
C27 C26 1_555 1_555
H24 C27 1_555 1_555
C28 O4 1_555 1_555
C29 H25 1_555 1_555
H26 C29 1_555 1_555
H27 C29 1_555 1_555
C30 O5 1_555 1_555
C31 C30 1_555 1_555
H28 C31 1_555 1_555
C32 O6 1_555 1_555
C33 C32 1_555 1_555
C34 C33 1_555 1_555
H29 C34 1_555 1_555
C35 C34 1_555 1_555
H30 C35 1_555 1_555
C36 N3 1_555 1_555
H31 C36 1_555 1_555
C37 C33 1_555 1_555
H32 C37 1_555 1_555
C38 H33 1_555 1_555
H34 C38 1_555 1_555
H35 C38 1_555 1_555
C39 C38 1_555 1_555
C40 C39 1_555 1_555
H36 C40 1_555 1_555
C41 O8 1_555 1_555
C42 H37 1_555 1_555
H38 C42 1_555 1_555
H39 C42 1_555 1_555
C43 O9 1_555 1_555
C44 C43 1_555 1_555
H40 C44 1_555 1_555
C45 O10 1_555 1_555
C46 C45 1_555 1_555
C47 C46 1_555 1_555
H41 C47 1_555 1_555
C48 N5 1_555 1_555
H42 C48 1_555 1_555
C49 N5 1_555 1_555
H43 C49 1_555 1_555
C50 C46 1_555 1_555
H44 C50 1_555 1_555
C51 H45 1_555 1_555
H46 C51 1_555 1_555
H47 C51 1_555 1_555
C52 O11 1_555 1_555
C53 C52 1_555 1_555
H48 C53 1_555 1_555
C54 O12 1_555 1_555
Cl3 Cu2 1_555 1_555
Cl4 Cu1 1_555 1_555
Cu1B Cl1B 1_555 1_555
Cu2B N3 1_555 1_555
Cr1B O1B 1_555 1_555
Cr2B O7B 1_555 1_555
Cl2B Cu2B 1_555 1_555
O1B C22B 1_555 1_555
O2B Cr1B 1_555 1_555
O3B Cr1B 1_555 1_555
O4B Cr1B 1_555 1_555
O5B Cr1B 1_555 1_555
O6B Cr1B 1_555 1_555
O7B C39B 1_555 1_555
O8B Cr2B 1_555 1_555
O9B Cr2B 1_555 1_555
O10B Cr2B 1_555 1_555
O11B Cr2B 1_555 1_555
O12B Cr2B 1_555 1_555
N1B Cu2B 1_555 1_555
C1B N1B 1_555 1_555
H1B C1B 1_555 1_555
C2B C1B 1_555 1_555
H2B C2B 1_555 1_555
C3B C2B 1_555 1_555
C4B C3B 1_555 1_555
H3B C4B 1_555 1_555
C5B N1B 1_555 1_555
H4B C5B 1_555 1_555
N2B Cu1B 1_555 1_555
C6B N2B 1_555 1_555
H5B C6B 1_555 1_555
C7B C6B 1_555 1_555
H6B C7B 1_555 1_555
C8B C7B 1_555 1_555
C9B C8B 1_555 1_555
H7B C9B 1_555 1_555
C10B N2B 1_555 1_555
H8B C10B 1_555 1_555
N3B Cu2 1_555 1_555
N4B Cu1B 1_555 1_555
C11B N4B 1_555 1_555
H9B C11B 1_555 1_555
C12B C11B 1_555 1_555
H10B C12B 1_555 1_555
C13B C12B 1_555 1_555
C14B C13B 1_555 1_555
H11B C14B 1_555 1_555
C15B N4B 1_555 1_555
H12B C15B 1_555 1_555
N5B Cu2B 1_555 1_555
N6B C16B 1_555 1_555
C16B H13B 1_555 1_555
C17B C16B 1_555 1_555
H14B C17B 1_555 1_555
C18B C17B 1_555 1_555
C19B C18B 1_555 1_555
H15B C19B 1_555 1_555
C20B N6B 1_555 1_555
H16B C20B 1_555 1_555
C21B H17B 1_555 1_555
H18B C21B 1_555 1_555
H19B C21B 1_555 1_555
C22B C21B 1_555 1_555
C23B C22B 1_555 1_555
H20B C23B 1_555 1_555
C24B O2B 1_555 1_555
C25B H21B 1_555 1_555
H22B C25B 1_555 1_555
H23B C25B 1_555 1_555
C26B O3B 1_555 1_555
C27B C26B 1_555 1_555
H24B C27B 1_555 1_555
C28B O4B 1_555 1_555
C29B H25B 1_555 1_555
H26B C29B 1_555 1_555
H27B C29B 1_555 1_555
C30B O5B 1_555 1_555
C31B C30B 1_555 1_555
H28B C31B 1_555 1_555
C32B O6B 1_555 1_555
C33B C32B 1_555 1_555
C34B C33B 1_555 1_555
H29B C34B 1_555 1_555
C35B N3B 1_555 1_555
H30B C35B 1_555 1_555
C36B N3B 1_555 1_555
H31B C36B 1_555 1_555
C37B C33B 1_555 1_555
H32B C37B 1_555 1_555
C38B H33B 1_555 1_555
H34B C38B 1_555 1_555
H35B C38B 1_555 1_555
C39B C38B 1_555 1_555
C40B C39B 1_555 1_555
H36B C40B 1_555 1_555
C41B O8B 1_555 1_555
C42B H37B 1_555 1_555
H38B C42B 1_555 1_555
H39B C42B 1_555 1_555
C43B O9B 1_555 1_555
C44B C43B 1_555 1_555
H40B C44B 1_555 1_555
C45B O10B 1_555 1_555
C46B C45B 1_555 1_555
C47B C46B 1_555 1_555
H41B C47B 1_555 1_555
C48B N5B 1_555 1_555
H42B C48B 1_555 1_555
C49B N5B 1_555 1_555
H43B C49B 1_555 1_555
C50B C46B 1_555 1_555
H44B C50B 1_555 1_555
C51B H45B 1_555 1_555
H46B C51B 1_555 1_555
H47B C51B 1_555 1_555
C52B O11B 1_555 1_555
C53B C52B 1_555 1_555
H48B C53B 1_555 1_555
C54B O12B 1_555 1_555
Cl3B Cu2B 1_555 1_555
Cl4B Cu1B 1_555 1_555
Cu2F N6B 1_555 1_555
Cr1F O1F 1_555 1_555
Cr2F O7F 1_555 1_555
Cl2F Cu2F 1_555 1_555
O1F C22F 1_555 1_555
O2F Cr1F 1_555 1_555
O3F Cr1F 1_555 1_555
O4F Cr1F 1_555 1_555
O5F Cr1F 1_555 1_555
O6F Cr1F 1_555 1_555
O7F C39F 1_555 1_555
O8F Cr2F 1_555 1_555
O9F Cr2F 1_555 1_555
O10F Cr2F 1_555 1_555
O11F Cr2F 1_555 1_555
O12F Cr2F 1_555 1_555
N1F Cu2F 1_555 1_555
C1F N1F 1_555 1_555
H1F C1F 1_555 1_555
C2F C1F 1_555 1_555
H2F C2F 1_555 1_555
C3F C2F 1_555 1_555
C4F C3F 1_555 1_555
H3F C4F 1_555 1_555
C5F N1F 1_555 1_555
H4F C5F 1_555 1_555
N2F Cu1 1_555 1_555
C6F N2F 1_555 1_555
H5F C6F 1_555 1_555
C7F C6F 1_555 1_555
H6F C7F 1_555 1_555
C8F C7F 1_555 1_555
C9F C8F 1_555 1_555
H7F C9F 1_555 1_555
C10F N2F 1_555 1_555
H8F C10F 1_555 1_555
N3F C35F 1_555 1_555
N4F Cu1 1_555 1_555
C11F N4F 1_555 1_555
H9F C11F 1_555 1_555
C12F C11F 1_555 1_555
H10F C12F 1_555 1_555
C13F C12F 1_555 1_555
C14F C13F 1_555 1_555
H11F C14F 1_555 1_555
C15F N4F 1_555 1_555
H12F C15F 1_555 1_555
N5F Cu2F 1_555 1_555
N6F Cu2B 1_555 1_555
C16F N6F 1_555 1_555
H13F C16F 1_555 1_555
C17F C16F 1_555 1_555
H14F C17F 1_555 1_555
C18F C17F 1_555 1_555
C19F C18F 1_555 1_555
H15F C19F 1_555 1_555
C20F N6F 1_555 1_555
H16F C20F 1_555 1_555
C21F H17F 1_555 1_555
H18F C21F 1_555 1_555
H19F C21F 1_555 1_555
C22F C21F 1_555 1_555
C23F C22F 1_555 1_555
H20F C23F 1_555 1_555
C24F O2F 1_555 1_555
C25F H21F 1_555 1_555
H22F C25F 1_555 1_555
H23F C25F 1_555 1_555
C26F O3F 1_555 1_555
C27F C26F 1_555 1_555
H24F C27F 1_555 1_555
C28F O4F 1_555 1_555
C29F H25F 1_555 1_555
H26F C29F 1_555 1_555
H27F C29F 1_555 1_555
C30F O5F 1_555 1_555
C31F C30F 1_555 1_555
H28F C31F 1_555 1_555
C32F O6F 1_555 1_555
C33F C32F 1_555 1_555
C34F C33F 1_555 1_555
H29F C34F 1_555 1_555
C35F C34F 1_555 1_555
H30F C35F 1_555 1_555
C36F N3F 1_555 1_555
H31F C36F 1_555 1_555
C37F C33F 1_555 1_555
H32F C37F 1_555 1_555
C38F H33F 1_555 1_555
H34F C38F 1_555 1_555
H35F C38F 1_555 1_555
C39F C38F 1_555 1_555
C40F C39F 1_555 1_555
H36F C40F 1_555 1_555
C41F O8F 1_555 1_555
C42F H37F 1_555 1_555
H38F C42F 1_555 1_555
H39F C42F 1_555 1_555
C43F O9F 1_555 1_555
C44F C43F 1_555 1_555
H40F C44F 1_555 1_555
C45F O10F 1_555 1_555
C46F C45F 1_555 1_555
C47F C46F 1_555 1_555
H41F C47F 1_555 1_555
C48F N5F 1_555 1_555
H42F C48F 1_555 1_555
C49F N5F 1_555 1_555
H43F C49F 1_555 1_555
C50F C46F 1_555 1_555
H44F C50F 1_555 1_555
C51F H45F 1_555 1_555
H46F C51F 1_555 1_555
H47F C51F 1_555 1_555
C52F O11F 1_555 1_555
C53F C52F 1_555 1_555
H48F C53F 1_555 1_555
C54F O12F 1_555 1_555
Cl3F Cu2F 1_555 1_555
Cu2G N6 1_555 1_555
Cr1G O1G 1_555 1_555
Cr2G O7G 1_555 1_555
Cl2G Cu2G 1_555 1_555
O1G C22G 1_555 1_555
O2G Cr1G 1_555 1_555
O3G Cr1G 1_555 1_555
O4G Cr1G 1_555 1_555
O5G Cr1G 1_555 1_555
O6G Cr1G 1_555 1_555
O7G C39G 1_555 1_555
O8G Cr2G 1_555 1_555
O9G Cr2G 1_555 1_555
O10G Cr2G 1_555 1_555
O11G Cr2G 1_555 1_555
O12G Cr2G 1_555 1_555
N1G Cu2G 1_555 1_555
C1G N1G 1_555 1_555
H1G C1G 1_555 1_555
C2G C1G 1_555 1_555
H2G C2G 1_555 1_555
C3G C2G 1_555 1_555
C4G C3G 1_555 1_555
H3G C4G 1_555 1_555
C5G N1G 1_555 1_555
H4G C5G 1_555 1_555
N2G Cu1B 1_555 1_555
C6G N2G 1_555 1_555
H5G C6G 1_555 1_555
C7G C6G 1_555 1_555
H6G C7G 1_555 1_555
C8G C7G 1_555 1_555
C9G C8G 1_555 1_555
H7G C9G 1_555 1_555
C10G N2G 1_555 1_555
H8G C10G 1_555 1_555
N3G Cu2F 1_555 1_555
N4G Cu1B 1_555 1_555
C11G N4G 1_555 1_555
H9G C11G 1_555 1_555
C12G C11G 1_555 1_555
H10G C12G 1_555 1_555
C13G C12G 1_555 1_555
C14G C13G 1_555 1_555
H11G C14G 1_555 1_555
C15G N4G 1_555 1_555
H12G C15G 1_555 1_555
N5G Cu2G 1_555 1_555
N6G Cu2 1_555 1_555
C16G N6G 1_555 1_555
H13G C16G 1_555 1_555
C17G C16G 1_555 1_555
H14G C17G 1_555 1_555
C18G C17G 1_555 1_555
C19G C18G 1_555 1_555
H15G C19G 1_555 1_555
C20G N6G 1_555 1_555
H16G C20G 1_555 1_555
C21G H17G 1_555 1_555
H18G C21G 1_555 1_555
H19G C21G 1_555 1_555
C22G C21G 1_555 1_555
C23G C22G 1_555 1_555
H20G C23G 1_555 1_555
C24G O2G 1_555 1_555
C25G H21G 1_555 1_555
H22G C25G 1_555 1_555
H23G C25G 1_555 1_555
C26G O3G 1_555 1_555
C27G C26G 1_555 1_555
H24G C27G 1_555 1_555
C28G O4G 1_555 1_555
C29G H25G 1_555 1_555
H26G C29G 1_555 1_555
H27G C29G 1_555 1_555
C30G O5G 1_555 1_555
C31G C30G 1_555 1_555
H28G C31G 1_555 1_555
C32G O6G 1_555 1_555
C33G C32G 1_555 1_555
C34G C33G 1_555 1_555
H29G C34G 1_555 1_555
C35G N3G 1_555 1_555
H30G C35G 1_555 1_555
C36G N3G 1_555 1_555
H31G C36G 1_555 1_555
C37G C33G 1_555 1_555
H32G C37G 1_555 1_555
C38G H33G 1_555 1_555
H34G C38G 1_555 1_555
H35G C38G 1_555 1_555
C39G C38G 1_555 1_555
C40G C39G 1_555 1_555
H36G C40G 1_555 1_555
C41G O8G 1_555 1_555
C42G H37G 1_555 1_555
H38G C42G 1_555 1_555
H39G C42G 1_555 1_555
C43G O9G 1_555 1_555
C44G C43G 1_555 1_555
H40G C44G 1_555 1_555
C45G O10G 1_555 1_555
C46G C45G 1_555 1_555
C47G C46G 1_555 1_555
H41G C47G 1_555 1_555
C48G N5G 1_555 1_555
H42G C48G 1_555 1_555
C49G N5G 1_555 1_555
H43G C49G 1_555 1_555
C50G C46G 1_555 1_555
H44G C50G 1_555 1_555
C51G H45G 1_555 1_555
H46G C51G 1_555 1_555
H47G C51G 1_555 1_555
C52G O11G 1_555 1_555
C53G C52G 1_555 1_555
H48G C53G 1_555 1_555
C54G O12G 1_555 1_555
Cl3G Cu2G 1_555 1_555
C3 C24 1_555 1_555
C4 C5 1_555 1_555
C8 C28 1_555 1_555
C9 C10 1_555 1_555
C13 C41 1_555 1_555
C14 C15 1_555 1_555
C18 C54 1_555 1_555
C19 C20 1_555 1_555
C23 C24 1_555 1_555
C25 C26 1_555 1_555
C27 C28 1_555 1_555
C29 C30 1_555 1_555
C31 C32 1_555 1_555
C36 C37 1_555 1_555
C40 C41 1_555 1_555
C42 C43 1_555 1_555
C44 C45 1_555 1_555
C47 C48 1_555 1_555
C49 C50 1_555 1_555
C51 C52 1_555 1_555
C53 C54 1_555 1_555
C3B C24B 1_555 1_555
C4B C5B 1_555 1_555
C8B C28B 1_555 1_555
C9B C10B 1_555 1_555
C13B C41B 1_555 1_555
C14B C15B 1_555 1_555
C18B C54B 1_555 1_555
C19B C20B 1_555 1_555
C23B C24B 1_555 1_555
C25B C26B 1_555 1_555
C27B C28B 1_555 1_555
C29B C30B 1_555 1_555
C31B C32B 1_555 1_555
C34B C35B 1_555 1_555
C36B C37B 1_555 1_555
C40B C41B 1_555 1_555
C42B C43B 1_555 1_555
C44B C45B 1_555 1_555
C47B C48B 1_555 1_555
C49B C50B 1_555 1_555
C51B C52B 1_555 1_555
C53B C54B 1_555 1_555
C3F C24F 1_555 1_555
C4F C5F 1_555 1_555
C8F C28F 1_555 1_555
C9F C10F 1_555 1_555
N3F Cu2G 1_555 1_555
C13F C41F 1_555 1_555
C14F C15F 1_555 1_555
C18F C54F 1_555 1_555
C19F C20F 1_555 1_555
C23F C24F 1_555 1_555
C25F C26F 1_555 1_555
C27F C28F 1_555 1_555
C29F C30F 1_555 1_555
C31F C32F 1_555 1_555
C36F C37F 1_555 1_555
C40F C41F 1_555 1_555
C42F C43F 1_555 1_555
C44F C45F 1_555 1_555
C47F C48F 1_555 1_555
C49F C50F 1_555 1_555
C51F C52F 1_555 1_555
C53F C54F 1_555 1_555
C3G C24G 1_555 1_555
C4G C5G 1_555 1_555
C8G C28G 1_555 1_555
C9G C10G 1_555 1_555
C13G C41G 1_555 1_555
C14G C15G 1_555 1_555
C18G C54G 1_555 1_555
C19G C20G 1_555 1_555
C23G C24G 1_555 1_555
C25G C26G 1_555 1_555
C27G C28G 1_555 1_555
C29G C30G 1_555 1_555
C31G C32G 1_555 1_555
C34G C35G 1_555 1_555
C36G C37G 1_555 1_555
C40G C41G 1_555 1_555
C42G C43G 1_555 1_555
C44G C45G 1_555 1_555
C47G C48G 1_555 1_555
C49G C50G 1_555 1_555
C51G C52G 1_555 1_555
C53G C54G 1_555 1_555

#END
