# generated using pymatgen
data_Cr4Cu3H110C108S6(N2O9)6
_symmetry_space_group_name_H-M   'P 1'
_cell_length_a   24.48540000
_cell_length_b   28.79166000
_cell_length_c   28.79166000
_cell_angle_alpha   90.00000000
_cell_angle_beta   90.00000000
_cell_angle_gamma   90.00000000
_symmetry_Int_Tables_number   1
_chemical_formula_structural   Cr4Cu3H110C108S6(N2O9)6
_chemical_formula_sum   'Cr16 Cu12 H440 C432 S24 N48 O216'
_cell_volume   20297.40948470
_cell_formula_units_Z   4
loop_
 _symmetry_equiv_pos_site_id
 _symmetry_equiv_pos_as_xyz
  1  'x, y, z'
loop_
 _atom_site_type_symbol
 _atom_site_label
 _atom_site_symmetry_multiplicity
 _atom_site_fract_x
 _atom_site_fract_y
 _atom_site_fract_z
 _atom_site_occupancy
  Cr  Cr1  1  0.537460  0.127670  0.524660  1.0
  Cr  Cr2  1  0.537460  0.975340  0.127670  1.0
  Cr  Cr3  1  0.537460  0.372330  0.975340  1.0
  Cr  Cr4  1  0.537460  0.524660  0.372330  1.0
  Cr  Cr5  1  0.462540  0.872330  0.475340  1.0
  Cr  Cr6  1  0.462540  0.024660  0.872330  1.0
  Cr  Cr7  1  0.462540  0.627670  0.024660  1.0
  Cr  Cr8  1  0.462540  0.475340  0.627670  1.0
  Cr  Cr9  1  0.039500  0.524590  0.372870  1.0
  Cr  Cr10  1  0.039500  0.127130  0.524590  1.0
  Cr  Cr11  1  0.039500  0.975410  0.127130  1.0
  Cr  Cr12  1  0.039500  0.372870  0.975410  1.0
  Cr  Cr13  1  0.960500  0.475410  0.627130  1.0
  Cr  Cr14  1  0.960500  0.872870  0.475410  1.0
  Cr  Cr15  1  0.960500  0.024590  0.872870  1.0
  Cr  Cr16  1  0.960500  0.627130  0.024590  1.0
  Cu  Cu17  1  0.477010  0.250000  0.250000  1
  Cu  Cu18  1  0.522990  0.750000  0.750000  1
  Cu  Cu19  1  0.103760  0.250000  0.250000  1
  Cu  Cu20  1  0.896240  0.750000  0.750000  1
  Cu  Cu21  1  0.788380  0.341240  0.490940  1.0
  Cu  Cu22  1  0.788380  0.009060  0.341240  1.0
  Cu  Cu23  1  0.788380  0.158760  0.009060  1.0
  Cu  Cu24  1  0.788380  0.490940  0.158760  1.0
  Cu  Cu25  1  0.211620  0.658760  0.509060  1.0
  Cu  Cu26  1  0.211620  0.990940  0.658760  1.0
  Cu  Cu27  1  0.211620  0.841240  0.990940  1.0
  Cu  Cu28  1  0.211620  0.509060  0.841240  1.0
  H  H29  1  0.363500  0.249100  0.276200  1
  H  H30  1  0.363500  0.223800  0.249100  1
  H  H31  1  0.363500  0.250900  0.223800  1
  H  H32  1  0.363500  0.276200  0.250900  1
  H  H33  1  0.636500  0.750900  0.723800  1
  H  H34  1  0.636500  0.776200  0.750900  1
  H  H35  1  0.636500  0.749100  0.776200  1
  H  H36  1  0.636500  0.723800  0.749100  1
  H  H37  1  0.620800  0.262400  0.256300  1
  H  H38  1  0.620800  0.243700  0.262400  1
  H  H39  1  0.620800  0.237600  0.243700  1
  H  H40  1  0.620800  0.256300  0.237600  1
  H  H41  1  0.379200  0.737600  0.743700  1
  H  H42  1  0.379200  0.756300  0.737600  1
  H  H43  1  0.379200  0.762400  0.756300  1
  H  H44  1  0.379200  0.743700  0.762400  1
  H  H45  1  0.962900  0.252100  0.267800  1
  H  H46  1  0.962900  0.232200  0.252100  1
  H  H47  1  0.962900  0.247900  0.232200  1
  H  H48  1  0.962900  0.267800  0.247900  1
  H  H49  1  0.037100  0.747900  0.732200  1
  H  H50  1  0.037100  0.767800  0.747900  1
  H  H51  1  0.037100  0.752100  0.767800  1
  H  H52  1  0.037100  0.732200  0.752100  1
  H  H53  1  0.215100  0.269500  0.267500  1
  H  H54  1  0.215100  0.232500  0.269500  1
  H  H55  1  0.215100  0.230500  0.232500  1
  H  H56  1  0.215100  0.267500  0.230500  1
  H  H57  1  0.784900  0.730500  0.732500  1
  H  H58  1  0.784900  0.767500  0.730500  1
  H  H59  1  0.784900  0.769500  0.767500  1
  H  H60  1  0.784900  0.732500  0.769500  1
  H  H61  1  0.760100  0.387900  0.575900  1.0
  H  H62  1  0.760100  0.924100  0.387900  1.0
  H  H63  1  0.760100  0.112100  0.924100  1.0
  H  H64  1  0.760100  0.575900  0.112100  1.0
  H  H65  1  0.239900  0.612100  0.424100  1.0
  H  H66  1  0.239900  0.075900  0.612100  1.0
  H  H67  1  0.239900  0.887900  0.075900  1.0
  H  H68  1  0.239900  0.424100  0.887900  1.0
  H  H69  1  0.815700  0.366400  0.585500  1.0
  H  H70  1  0.815700  0.914500  0.366400  1.0
  H  H71  1  0.815700  0.133600  0.914500  1.0
  H  H72  1  0.815700  0.585500  0.133600  1.0
  H  H73  1  0.184300  0.633600  0.414500  1.0
  H  H74  1  0.184300  0.085500  0.633600  1.0
  H  H75  1  0.184300  0.866400  0.085500  1.0
  H  H76  1  0.184300  0.414500  0.866400  1.0
  H  H77  1  0.776800  0.316100  0.381300  1.0
  H  H78  1  0.776800  0.118700  0.316100  1.0
  H  H79  1  0.776800  0.183900  0.118700  1.0
  H  H80  1  0.776800  0.381300  0.183900  1.0
  H  H81  1  0.223200  0.683900  0.618700  1.0
  H  H82  1  0.223200  0.881300  0.683900  1.0
  H  H83  1  0.223200  0.816100  0.881300  1.0
  H  H84  1  0.223200  0.618700  0.816100  1.0
  H  H85  1  0.804700  0.281900  0.401300  1.0
  H  H86  1  0.804700  0.098700  0.281900  1.0
  H  H87  1  0.804700  0.218100  0.098700  1.0
  H  H88  1  0.804700  0.401300  0.218100  1.0
  H  H89  1  0.195300  0.718100  0.598700  1.0
  H  H90  1  0.195300  0.901300  0.718100  1.0
  H  H91  1  0.195300  0.781900  0.901300  1.0
  H  H92  1  0.195300  0.598700  0.781900  1.0
  H  H93  1  0.412800  0.175400  0.296600  1.0
  H  H94  1  0.412800  0.203400  0.175400  1.0
  H  H95  1  0.412800  0.324600  0.203400  1.0
  H  H96  1  0.412800  0.296600  0.324600  1.0
  H  H97  1  0.587200  0.824600  0.703400  1.0
  H  H98  1  0.587200  0.796600  0.824600  1.0
  H  H99  1  0.587200  0.675400  0.796600  1.0
  H  H100  1  0.587200  0.703400  0.675400  1.0
  H  H101  1  0.412700  0.133000  0.364000  1.0
  H  H102  1  0.412700  0.136000  0.133000  1.0
  H  H103  1  0.412700  0.367000  0.136000  1.0
  H  H104  1  0.412700  0.364000  0.367000  1.0
  H  H105  1  0.587300  0.867000  0.636000  1.0
  H  H106  1  0.587300  0.864000  0.867000  1.0
  H  H107  1  0.587300  0.633000  0.864000  1.0
  H  H108  1  0.587300  0.636000  0.633000  1.0
  H  H109  1  0.551500  0.198900  0.402800  1.0
  H  H110  1  0.551500  0.097200  0.198900  1.0
  H  H111  1  0.551500  0.301100  0.097200  1.0
  H  H112  1  0.551500  0.402800  0.301100  1.0
  H  H113  1  0.448500  0.801100  0.597200  1.0
  H  H114  1  0.448500  0.902800  0.801100  1.0
  H  H115  1  0.448500  0.698900  0.902800  1.0
  H  H116  1  0.448500  0.597200  0.698900  1.0
  H  H117  1  0.548300  0.239300  0.332600  1.0
  H  H118  1  0.548300  0.167400  0.239300  1.0
  H  H119  1  0.548300  0.260700  0.167400  1.0
  H  H120  1  0.548300  0.332600  0.260700  1.0
  H  H121  1  0.451700  0.760700  0.667400  1.0
  H  H122  1  0.451700  0.832600  0.760700  1.0
  H  H123  1  0.451700  0.739300  0.832600  1.0
  H  H124  1  0.451700  0.667400  0.739300  1.0
  H  H125  1  0.429500  0.086400  0.417600  1.0
  H  H126  1  0.429500  0.082400  0.086400  1.0
  H  H127  1  0.429500  0.413600  0.082400  1.0
  H  H128  1  0.429500  0.417600  0.413600  1.0
  H  H129  1  0.570500  0.913600  0.582400  1.0
  H  H130  1  0.570500  0.917600  0.913600  1.0
  H  H131  1  0.570500  0.586400  0.917600  1.0
  H  H132  1  0.570500  0.582400  0.586400  1.0
  H  H133  1  0.384400  0.033400  0.502500  1.0
  H  H134  1  0.384400  0.997500  0.033400  1.0
  H  H135  1  0.384400  0.466600  0.997500  1.0
  H  H136  1  0.384400  0.502500  0.466600  1.0
  H  H137  1  0.615600  0.966600  0.497500  1.0
  H  H138  1  0.615600  0.002500  0.966600  1.0
  H  H139  1  0.615600  0.533400  0.002500  1.0
  H  H140  1  0.615600  0.497500  0.533400  1.0
  H  H141  1  0.438000  0.001700  0.500500  1.0
  H  H142  1  0.438000  0.999500  0.001700  1.0
  H  H143  1  0.438000  0.498300  0.999500  1.0
  H  H144  1  0.438000  0.500500  0.498300  1.0
  H  H145  1  0.562000  0.998300  0.499500  1.0
  H  H146  1  0.562000  0.000500  0.998300  1.0
  H  H147  1  0.562000  0.501700  0.000500  1.0
  H  H148  1  0.562000  0.499500  0.501700  1.0
  H  H149  1  0.408900  0.017700  0.453400  1.0
  H  H150  1  0.408900  0.046600  0.017700  1.0
  H  H151  1  0.408900  0.482300  0.046600  1.0
  H  H152  1  0.408900  0.453400  0.482300  1.0
  H  H153  1  0.591100  0.982300  0.546600  1.0
  H  H154  1  0.591100  0.953400  0.982300  1.0
  H  H155  1  0.591100  0.517700  0.953400  1.0
  H  H156  1  0.591100  0.546600  0.517700  1.0
  H  H157  1  0.685900  0.349700  0.545800  1.0
  H  H158  1  0.685900  0.954200  0.349700  1.0
  H  H159  1  0.685900  0.150300  0.954200  1.0
  H  H160  1  0.685900  0.545800  0.150300  1.0
  H  H161  1  0.314100  0.650300  0.454200  1.0
  H  H162  1  0.314100  0.045800  0.650300  1.0
  H  H163  1  0.314100  0.849700  0.045800  1.0
  H  H164  1  0.314100  0.454200  0.849700  1.0
  H  H165  1  0.607700  0.308100  0.562300  1.0
  H  H166  1  0.607700  0.937700  0.308100  1.0
  H  H167  1  0.607700  0.191900  0.937700  1.0
  H  H168  1  0.607700  0.562300  0.191900  1.0
  H  H169  1  0.392300  0.691900  0.437700  1.0
  H  H170  1  0.392300  0.062300  0.691900  1.0
  H  H171  1  0.392300  0.808100  0.062300  1.0
  H  H172  1  0.392300  0.437700  0.808100  1.0
  H  H173  1  0.668800  0.202800  0.484200  1.0
  H  H174  1  0.668800  0.015800  0.202800  1.0
  H  H175  1  0.668800  0.297200  0.015800  1.0
  H  H176  1  0.668800  0.484200  0.297200  1.0
  H  H177  1  0.331200  0.797200  0.515800  1.0
  H  H178  1  0.331200  0.984200  0.797200  1.0
  H  H179  1  0.331200  0.702800  0.984200  1.0
  H  H180  1  0.331200  0.515800  0.702800  1.0
  H  H181  1  0.740400  0.249200  0.464700  1.0
  H  H182  1  0.740400  0.035300  0.249200  1.0
  H  H183  1  0.740400  0.250800  0.035300  1.0
  H  H184  1  0.740400  0.464700  0.250800  1.0
  H  H185  1  0.259600  0.750800  0.535300  1.0
  H  H186  1  0.259600  0.964700  0.750800  1.0
  H  H187  1  0.259600  0.749200  0.964700  1.0
  H  H188  1  0.259600  0.535300  0.749200  1.0
  H  H189  1  0.530100  0.269200  0.554700  1.0
  H  H190  1  0.530100  0.945300  0.269200  1.0
  H  H191  1  0.530100  0.230800  0.945300  1.0
  H  H192  1  0.530100  0.554700  0.230800  1.0
  H  H193  1  0.469900  0.730800  0.445300  1.0
  H  H194  1  0.469900  0.054700  0.730800  1.0
  H  H195  1  0.469900  0.769200  0.054700  1.0
  H  H196  1  0.469900  0.445300  0.769200  1.0
  H  H197  1  0.433000  0.214300  0.618600  1.0
  H  H198  1  0.433000  0.881400  0.214300  1.0
  H  H199  1  0.433000  0.285700  0.881400  1.0
  H  H200  1  0.433000  0.618600  0.285700  1.0
  H  H201  1  0.567000  0.785700  0.381400  1.0
  H  H202  1  0.567000  0.118600  0.785700  1.0
  H  H203  1  0.567000  0.714300  0.118600  1.0
  H  H204  1  0.567000  0.381400  0.714300  1.0
  H  H205  1  0.410000  0.231700  0.569600  1.0
  H  H206  1  0.410000  0.930400  0.231700  1.0
  H  H207  1  0.410000  0.268300  0.930400  1.0
  H  H208  1  0.410000  0.569600  0.268300  1.0
  H  H209  1  0.590000  0.768300  0.430400  1.0
  H  H210  1  0.590000  0.069600  0.768300  1.0
  H  H211  1  0.590000  0.731700  0.069600  1.0
  H  H212  1  0.590000  0.430400  0.731700  1.0
  H  H213  1  0.451600  0.263600  0.598400  1.0
  H  H214  1  0.451600  0.901600  0.263600  1.0
  H  H215  1  0.451600  0.236400  0.901600  1.0
  H  H216  1  0.451600  0.598400  0.236400  1.0
  H  H217  1  0.548400  0.736400  0.401600  1.0
  H  H218  1  0.548400  0.098400  0.736400  1.0
  H  H219  1  0.548400  0.763600  0.098400  1.0
  H  H220  1  0.548400  0.401600  0.763600  1.0
  H  H221  1  0.701400  0.081400  0.358600  1.0
  H  H222  1  0.701400  0.141400  0.081400  1.0
  H  H223  1  0.701400  0.418600  0.141400  1.0
  H  H224  1  0.701400  0.358600  0.418600  1.0
  H  H225  1  0.298600  0.918600  0.641400  1.0
  H  H226  1  0.298600  0.858600  0.918600  1.0
  H  H227  1  0.298600  0.581400  0.858600  1.0
  H  H228  1  0.298600  0.641400  0.581400  1.0
  H  H229  1  0.644600  0.104100  0.417600  1.0
  H  H230  1  0.644600  0.082400  0.104100  1.0
  H  H231  1  0.644600  0.395900  0.082400  1.0
  H  H232  1  0.644600  0.417600  0.395900  1.0
  H  H233  1  0.355400  0.895900  0.582400  1.0
  H  H234  1  0.355400  0.917600  0.895900  1.0
  H  H235  1  0.355400  0.604100  0.917600  1.0
  H  H236  1  0.355400  0.582400  0.604100  1.0
  H  H237  1  0.715700  0.011000  0.502900  1.0
  H  H238  1  0.715700  0.997100  0.011000  1.0
  H  H239  1  0.715700  0.489000  0.997100  1.0
  H  H240  1  0.715700  0.502900  0.489000  1.0
  H  H241  1  0.284300  0.989000  0.497100  1.0
  H  H242  1  0.284300  0.002900  0.989000  1.0
  H  H243  1  0.284300  0.511000  0.002900  1.0
  H  H244  1  0.284300  0.497100  0.511000  1.0
  H  H245  1  0.769500  0.986900  0.441100  1.0
  H  H246  1  0.769500  0.058900  0.986900  1.0
  H  H247  1  0.769500  0.513100  0.058900  1.0
  H  H248  1  0.769500  0.441100  0.513100  1.0
  H  H249  1  0.230500  0.013100  0.558900  1.0
  H  H250  1  0.230500  0.941100  0.013100  1.0
  H  H251  1  0.230500  0.486900  0.941100  1.0
  H  H252  1  0.230500  0.558900  0.486900  1.0
  H  H253  1  0.685300  0.063500  0.556900  1.0
  H  H254  1  0.685300  0.943100  0.063500  1.0
  H  H255  1  0.685300  0.436500  0.943100  1.0
  H  H256  1  0.685300  0.556900  0.436500  1.0
  H  H257  1  0.314700  0.936500  0.443100  1.0
  H  H258  1  0.314700  0.056900  0.936500  1.0
  H  H259  1  0.314700  0.563500  0.056900  1.0
  H  H260  1  0.314700  0.443100  0.563500  1.0
  H  H261  1  0.670600  0.073700  0.638900  1.0
  H  H262  1  0.670600  0.861100  0.073700  1.0
  H  H263  1  0.670600  0.426300  0.861100  1.0
  H  H264  1  0.670600  0.638900  0.426300  1.0
  H  H265  1  0.329400  0.926300  0.361100  1.0
  H  H266  1  0.329400  0.138900  0.926300  1.0
  H  H267  1  0.329400  0.573700  0.138900  1.0
  H  H268  1  0.329400  0.361100  0.573700  1.0
  H  H269  1  0.618800  0.040200  0.644600  1.0
  H  H270  1  0.618800  0.855400  0.040200  1.0
  H  H271  1  0.618800  0.459800  0.855400  1.0
  H  H272  1  0.618800  0.644600  0.459800  1.0
  H  H273  1  0.381200  0.959800  0.355400  1.0
  H  H274  1  0.381200  0.144600  0.959800  1.0
  H  H275  1  0.381200  0.540200  0.144600  1.0
  H  H276  1  0.381200  0.355400  0.540200  1.0
  H  H277  1  0.614000  0.094100  0.657800  1.0
  H  H278  1  0.614000  0.842200  0.094100  1.0
  H  H279  1  0.614000  0.405900  0.842200  1.0
  H  H280  1  0.614000  0.657800  0.405900  1.0
  H  H281  1  0.386000  0.905900  0.342200  1.0
  H  H282  1  0.386000  0.157800  0.905900  1.0
  H  H283  1  0.386000  0.594100  0.157800  1.0
  H  H284  1  0.386000  0.342200  0.594100  1.0
  H  H285  1  0.891300  0.372300  0.536400  1.0
  H  H286  1  0.891300  0.963600  0.372300  1.0
  H  H287  1  0.891300  0.127700  0.963600  1.0
  H  H288  1  0.891300  0.536400  0.127700  1.0
  H  H289  1  0.108700  0.627700  0.463600  1.0
  H  H290  1  0.108700  0.036400  0.627700  1.0
  H  H291  1  0.108700  0.872300  0.036400  1.0
  H  H292  1  0.108700  0.463600  0.872300  1.0
  H  H293  1  0.970500  0.413900  0.519200  1.0
  H  H294  1  0.970500  0.980800  0.413900  1.0
  H  H295  1  0.970500  0.086100  0.980800  1.0
  H  H296  1  0.970500  0.519200  0.086100  1.0
  H  H297  1  0.029500  0.586100  0.480800  1.0
  H  H298  1  0.029500  0.019200  0.586100  1.0
  H  H299  1  0.029500  0.913900  0.019200  1.0
  H  H300  1  0.029500  0.480800  0.913900  1.0
  H  H301  1  0.907200  0.438200  0.391200  1.0
  H  H302  1  0.907200  0.108800  0.438200  1.0
  H  H303  1  0.907200  0.061800  0.108800  1.0
  H  H304  1  0.907200  0.391200  0.061800  1.0
  H  H305  1  0.092800  0.561800  0.608800  1.0
  H  H306  1  0.092800  0.891200  0.561800  1.0
  H  H307  1  0.092800  0.938200  0.891200  1.0
  H  H308  1  0.092800  0.608800  0.938200  1.0
  H  H309  1  0.835800  0.391600  0.408300  1.0
  H  H310  1  0.835800  0.091700  0.391600  1.0
  H  H311  1  0.835800  0.108400  0.091700  1.0
  H  H312  1  0.835800  0.408300  0.108400  1.0
  H  H313  1  0.164200  0.608400  0.591700  1.0
  H  H314  1  0.164200  0.908300  0.608400  1.0
  H  H315  1  0.164200  0.891600  0.908300  1.0
  H  H316  1  0.164200  0.591700  0.891600  1.0
  H  H317  1  0.046700  0.432800  0.485300  1.0
  H  H318  1  0.046700  0.014700  0.432800  1.0
  H  H319  1  0.046700  0.067200  0.014700  1.0
  H  H320  1  0.046700  0.485300  0.067200  1.0
  H  H321  1  0.953300  0.567200  0.514700  1.0
  H  H322  1  0.953300  0.985300  0.567200  1.0
  H  H323  1  0.953300  0.932800  0.985300  1.0
  H  H324  1  0.953300  0.514700  0.932800  1.0
  H  H325  1  0.171200  0.482900  0.467800  1.0
  H  H326  1  0.171200  0.032200  0.482900  1.0
  H  H327  1  0.171200  0.017100  0.032200  1.0
  H  H328  1  0.171200  0.467800  0.017100  1.0
  H  H329  1  0.828800  0.517100  0.532200  1.0
  H  H330  1  0.828800  0.967800  0.517100  1.0
  H  H331  1  0.828800  0.982900  0.967800  1.0
  H  H332  1  0.828800  0.532200  0.982900  1.0
  H  H333  1  0.136700  0.450400  0.502100  1.0
  H  H334  1  0.136700  0.997900  0.450400  1.0
  H  H335  1  0.136700  0.049600  0.997900  1.0
  H  H336  1  0.136700  0.502100  0.049600  1.0
  H  H337  1  0.863300  0.549600  0.497900  1.0
  H  H338  1  0.863300  0.002100  0.549600  1.0
  H  H339  1  0.863300  0.950400  0.002100  1.0
  H  H340  1  0.863300  0.497900  0.950400  1.0
  H  H341  1  0.138200  0.505400  0.510100  1.0
  H  H342  1  0.138200  0.989900  0.505400  1.0
  H  H343  1  0.138200  0.994600  0.989900  1.0
  H  H344  1  0.138200  0.510100  0.994600  1.0
  H  H345  1  0.861800  0.494600  0.489900  1.0
  H  H346  1  0.861800  0.010100  0.494600  1.0
  H  H347  1  0.861800  0.005400  0.010100  1.0
  H  H348  1  0.861800  0.489900  0.005400  1.0
  H  H349  1  0.168300  0.336700  0.235500  1.0
  H  H350  1  0.168300  0.264500  0.336700  1.0
  H  H351  1  0.168300  0.163300  0.264500  1.0
  H  H352  1  0.168300  0.235500  0.163300  1.0
  H  H353  1  0.831700  0.663300  0.764500  1.0
  H  H354  1  0.831700  0.735500  0.663300  1.0
  H  H355  1  0.831700  0.836700  0.735500  1.0
  H  H356  1  0.831700  0.764500  0.836700  1.0
  H  H357  1  0.166500  0.414700  0.256800  1.0
  H  H358  1  0.166500  0.243200  0.414700  1.0
  H  H359  1  0.166500  0.085300  0.243200  1.0
  H  H360  1  0.166500  0.256800  0.085300  1.0
  H  H361  1  0.833500  0.585300  0.743200  1.0
  H  H362  1  0.833500  0.756800  0.585300  1.0
  H  H363  1  0.833500  0.914700  0.756800  1.0
  H  H364  1  0.833500  0.743200  0.914700  1.0
  H  H365  1  0.026600  0.390400  0.326400  1.0
  H  H366  1  0.026600  0.173600  0.390400  1.0
  H  H367  1  0.026600  0.109600  0.173600  1.0
  H  H368  1  0.026600  0.326400  0.109600  1.0
  H  H369  1  0.973400  0.609600  0.673600  1.0
  H  H370  1  0.973400  0.826400  0.609600  1.0
  H  H371  1  0.973400  0.890400  0.826400  1.0
  H  H372  1  0.973400  0.673600  0.890400  1.0
  H  H373  1  0.030100  0.314000  0.304100  1.0
  H  H374  1  0.030100  0.195900  0.314000  1.0
  H  H375  1  0.030100  0.186000  0.195900  1.0
  H  H376  1  0.030100  0.304100  0.186000  1.0
  H  H377  1  0.969900  0.686000  0.695900  1.0
  H  H378  1  0.969900  0.804100  0.686000  1.0
  H  H379  1  0.969900  0.814000  0.804100  1.0
  H  H380  1  0.969900  0.695900  0.814000  1.0
  H  H381  1  0.136800  0.487400  0.258900  1.0
  H  H382  1  0.136800  0.241100  0.487400  1.0
  H  H383  1  0.136800  0.012600  0.241100  1.0
  H  H384  1  0.136800  0.258900  0.012600  1.0
  H  H385  1  0.863200  0.512600  0.741100  1.0
  H  H386  1  0.863200  0.758900  0.512600  1.0
  H  H387  1  0.863200  0.987400  0.758900  1.0
  H  H388  1  0.863200  0.741100  0.987400  1.0
  H  H389  1  0.176100  0.593500  0.300000  1.0
  H  H390  1  0.176100  0.200000  0.593500  1.0
  H  H391  1  0.176100  0.906500  0.200000  1.0
  H  H392  1  0.176100  0.300000  0.906500  1.0
  H  H393  1  0.823900  0.406500  0.700000  1.0
  H  H394  1  0.823900  0.800000  0.406500  1.0
  H  H395  1  0.823900  0.093500  0.800000  1.0
  H  H396  1  0.823900  0.700000  0.093500  1.0
  H  H397  1  0.132100  0.596900  0.259000  1.0
  H  H398  1  0.132100  0.241000  0.596900  1.0
  H  H399  1  0.132100  0.903100  0.241000  1.0
  H  H400  1  0.132100  0.259000  0.903100  1.0
  H  H401  1  0.867900  0.403100  0.741000  1.0
  H  H402  1  0.867900  0.759000  0.403100  1.0
  H  H403  1  0.867900  0.096900  0.759000  1.0
  H  H404  1  0.867900  0.741000  0.096900  1.0
  H  H405  1  0.180200  0.559400  0.256200  1.0
  H  H406  1  0.180200  0.243800  0.559400  1.0
  H  H407  1  0.180200  0.940600  0.243800  1.0
  H  H408  1  0.180200  0.256200  0.940600  1.0
  H  H409  1  0.819800  0.440600  0.743800  1.0
  H  H410  1  0.819800  0.756200  0.440600  1.0
  H  H411  1  0.819800  0.059400  0.756200  1.0
  H  H412  1  0.819800  0.743800  0.059400  1.0
  H  H413  1  0.881300  0.454400  0.215800  1.0
  H  H414  1  0.881300  0.284200  0.454400  1.0
  H  H415  1  0.881300  0.045600  0.284200  1.0
  H  H416  1  0.881300  0.215800  0.045600  1.0
  H  H417  1  0.118700  0.545600  0.784200  1.0
  H  H418  1  0.118700  0.715800  0.545600  1.0
  H  H419  1  0.118700  0.954400  0.715800  1.0
  H  H420  1  0.118700  0.784200  0.954400  1.0
  H  H421  1  0.940200  0.477800  0.270500  1.0
  H  H422  1  0.940200  0.229500  0.477800  1.0
  H  H423  1  0.940200  0.022200  0.229500  1.0
  H  H424  1  0.940200  0.270500  0.022200  1.0
  H  H425  1  0.059800  0.522200  0.729500  1.0
  H  H426  1  0.059800  0.770500  0.522200  1.0
  H  H427  1  0.059800  0.977800  0.770500  1.0
  H  H428  1  0.059800  0.729500  0.977800  1.0
  H  H429  1  0.862300  0.600600  0.279100  1.0
  H  H430  1  0.862300  0.220900  0.600600  1.0
  H  H431  1  0.862300  0.899400  0.220900  1.0
  H  H432  1  0.862300  0.279100  0.899400  1.0
  H  H433  1  0.137700  0.399400  0.720900  1.0
  H  H434  1  0.137700  0.779100  0.399400  1.0
  H  H435  1  0.137700  0.100600  0.779100  1.0
  H  H436  1  0.137700  0.720900  0.100600  1.0
  H  H437  1  0.802000  0.574100  0.220200  1.0
  H  H438  1  0.802000  0.279800  0.574100  1.0
  H  H439  1  0.802000  0.925900  0.279800  1.0
  H  H440  1  0.802000  0.220200  0.925900  1.0
  H  H441  1  0.198000  0.425900  0.779800  1.0
  H  H442  1  0.198000  0.720200  0.425900  1.0
  H  H443  1  0.198000  0.074100  0.720200  1.0
  H  H444  1  0.198000  0.779800  0.074100  1.0
  H  H445  1  0.940600  0.637300  0.445500  1.0
  H  H446  1  0.940600  0.054500  0.637300  1.0
  H  H447  1  0.940600  0.862700  0.054500  1.0
  H  H448  1  0.940600  0.445500  0.862700  1.0
  H  H449  1  0.059400  0.362700  0.554500  1.0
  H  H450  1  0.059400  0.945500  0.362700  1.0
  H  H451  1  0.059400  0.137300  0.945500  1.0
  H  H452  1  0.059400  0.554500  0.137300  1.0
  H  H453  1  0.928100  0.665900  0.399000  1.0
  H  H454  1  0.928100  0.101000  0.665900  1.0
  H  H455  1  0.928100  0.834100  0.101000  1.0
  H  H456  1  0.928100  0.399000  0.834100  1.0
  H  H457  1  0.071900  0.334100  0.601000  1.0
  H  H458  1  0.071900  0.899000  0.334100  1.0
  H  H459  1  0.071900  0.165900  0.899000  1.0
  H  H460  1  0.071900  0.601000  0.165900  1.0
  H  H461  1  0.988700  0.665000  0.419900  1.0
  H  H462  1  0.988700  0.080100  0.665000  1.0
  H  H463  1  0.988700  0.835000  0.080100  1.0
  H  H464  1  0.988700  0.419900  0.835000  1.0
  H  H465  1  0.011300  0.335000  0.580100  1.0
  H  H466  1  0.011300  0.919900  0.335000  1.0
  H  H467  1  0.011300  0.165000  0.919900  1.0
  H  H468  1  0.011300  0.580100  0.165000  1.0
  C  C469  1  0.441000  0.180700  0.318600  1.0
  C  C470  1  0.441000  0.181400  0.180700  1.0
  C  C471  1  0.441000  0.319300  0.181400  1.0
  C  C472  1  0.441000  0.318600  0.319300  1.0
  C  C473  1  0.559000  0.819300  0.681400  1.0
  C  C474  1  0.559000  0.818600  0.819300  1.0
  C  C475  1  0.559000  0.680700  0.818600  1.0
  C  C476  1  0.559000  0.681400  0.680700  1.0
  C  C477  1  0.440600  0.155400  0.358800  1.0
  C  C478  1  0.440600  0.141200  0.155400  1.0
  C  C479  1  0.440600  0.344600  0.141200  1.0
  C  C480  1  0.440600  0.358800  0.344600  1.0
  C  C481  1  0.559400  0.844600  0.641200  1.0
  C  C482  1  0.559400  0.858800  0.844600  1.0
  C  C483  1  0.559400  0.655400  0.858800  1.0
  C  C484  1  0.559400  0.641200  0.655400  1.0
  C  C485  1  0.480200  0.162200  0.391300  1.0
  C  C486  1  0.480200  0.108700  0.162200  1.0
  C  C487  1  0.480200  0.337800  0.108700  1.0
  C  C488  1  0.480200  0.391300  0.337800  1.0
  C  C489  1  0.519800  0.837800  0.608700  1.0
  C  C490  1  0.519800  0.891300  0.837800  1.0
  C  C491  1  0.519800  0.662200  0.891300  1.0
  C  C492  1  0.519800  0.608700  0.662200  1.0
  C  C493  1  0.522400  0.194000  0.381600  1.0
  C  C494  1  0.522400  0.118400  0.194000  1.0
  C  C495  1  0.522400  0.306000  0.118400  1.0
  C  C496  1  0.522400  0.381600  0.306000  1.0
  C  C497  1  0.477600  0.806000  0.618400  1.0
  C  C498  1  0.477600  0.881600  0.806000  1.0
  C  C499  1  0.477600  0.694000  0.881600  1.0
  C  C500  1  0.477600  0.618400  0.694000  1.0
  C  C501  1  0.520000  0.218000  0.339800  1.0
  C  C502  1  0.520000  0.160200  0.218000  1.0
  C  C503  1  0.520000  0.282000  0.160200  1.0
  C  C504  1  0.520000  0.339800  0.282000  1.0
  C  C505  1  0.480000  0.782000  0.660200  1.0
  C  C506  1  0.480000  0.839800  0.782000  1.0
  C  C507  1  0.480000  0.718000  0.839800  1.0
  C  C508  1  0.480000  0.660200  0.718000  1.0
  C  C509  1  0.482500  0.137600  0.437400  1.0
  C  C510  1  0.482500  0.062600  0.137600  1.0
  C  C511  1  0.482500  0.362400  0.062600  1.0
  C  C512  1  0.482500  0.437400  0.362400  1.0
  C  C513  1  0.517500  0.862400  0.562600  1.0
  C  C514  1  0.517500  0.937400  0.862400  1.0
  C  C515  1  0.517500  0.637600  0.937400  1.0
  C  C516  1  0.517500  0.562600  0.637600  1.0
  C  C517  1  0.451900  0.096700  0.442600  1.0
  C  C518  1  0.451900  0.057400  0.096700  1.0
  C  C519  1  0.451900  0.403300  0.057400  1.0
  C  C520  1  0.451900  0.442600  0.403300  1.0
  C  C521  1  0.548100  0.903300  0.557400  1.0
  C  C522  1  0.548100  0.942600  0.903300  1.0
  C  C523  1  0.548100  0.596700  0.942600  1.0
  C  C524  1  0.548100  0.557400  0.596700  1.0
  C  C525  1  0.453500  0.070400  0.484100  1.0
  C  C526  1  0.453500  0.015900  0.070400  1.0
  C  C527  1  0.453500  0.429600  0.015900  1.0
  C  C528  1  0.453500  0.484100  0.429600  1.0
  C  C529  1  0.546500  0.929600  0.515900  1.0
  C  C530  1  0.546500  0.984100  0.929600  1.0
  C  C531  1  0.546500  0.570400  0.984100  1.0
  C  C532  1  0.546500  0.515900  0.570400  1.0
  C  C533  1  0.418100  0.026900  0.485200  1.0
  C  C534  1  0.418100  0.014800  0.026900  1.0
  C  C535  1  0.418100  0.473100  0.014800  1.0
  C  C536  1  0.418100  0.485200  0.473100  1.0
  C  C537  1  0.581900  0.973100  0.514800  1.0
  C  C538  1  0.581900  0.985200  0.973100  1.0
  C  C539  1  0.581900  0.526900  0.985200  1.0
  C  C540  1  0.581900  0.514800  0.526900  1.0
  C  C541  1  0.681600  0.319700  0.532700  1.0
  C  C542  1  0.681600  0.967300  0.319700  1.0
  C  C543  1  0.681600  0.180300  0.967300  1.0
  C  C544  1  0.681600  0.532700  0.180300  1.0
  C  C545  1  0.318400  0.680300  0.467300  1.0
  C  C546  1  0.318400  0.032700  0.680300  1.0
  C  C547  1  0.318400  0.819700  0.032700  1.0
  C  C548  1  0.318400  0.467300  0.819700  1.0
  C  C549  1  0.635400  0.294800  0.543400  1.0
  C  C550  1  0.635400  0.956600  0.294800  1.0
  C  C551  1  0.635400  0.205200  0.956600  1.0
  C  C552  1  0.635400  0.543400  0.205200  1.0
  C  C553  1  0.364600  0.705200  0.456600  1.0
  C  C554  1  0.364600  0.043400  0.705200  1.0
  C  C555  1  0.364600  0.794800  0.043400  1.0
  C  C556  1  0.364600  0.456600  0.794800  1.0
  C  C557  1  0.629700  0.249600  0.526100  1.0
  C  C558  1  0.629700  0.973900  0.249600  1.0
  C  C559  1  0.629700  0.250400  0.973900  1.0
  C  C560  1  0.629700  0.526100  0.250400  1.0
  C  C561  1  0.370300  0.750400  0.473900  1.0
  C  C562  1  0.370300  0.026100  0.750400  1.0
  C  C563  1  0.370300  0.749600  0.026100  1.0
  C  C564  1  0.370300  0.473900  0.749600  1.0
  C  C565  1  0.671100  0.233300  0.496700  1.0
  C  C566  1  0.671100  0.003300  0.233300  1.0
  C  C567  1  0.671100  0.266700  0.003300  1.0
  C  C568  1  0.671100  0.496700  0.266700  1.0
  C  C569  1  0.328900  0.766700  0.503300  1.0
  C  C570  1  0.328900  0.996700  0.766700  1.0
  C  C571  1  0.328900  0.733300  0.996700  1.0
  C  C572  1  0.328900  0.503300  0.733300  1.0
  C  C573  1  0.713900  0.260400  0.486000  1.0
  C  C574  1  0.713900  0.014000  0.260400  1.0
  C  C575  1  0.713900  0.239600  0.014000  1.0
  C  C576  1  0.713900  0.486000  0.239600  1.0
  C  C577  1  0.286100  0.739600  0.514000  1.0
  C  C578  1  0.286100  0.986000  0.739600  1.0
  C  C579  1  0.286100  0.760400  0.986000  1.0
  C  C580  1  0.286100  0.514000  0.760400  1.0
  C  C581  1  0.583100  0.219400  0.537200  1.0
  C  C582  1  0.583100  0.962800  0.219400  1.0
  C  C583  1  0.583100  0.280600  0.962800  1.0
  C  C584  1  0.583100  0.537200  0.280600  1.0
  C  C585  1  0.416900  0.780600  0.462800  1.0
  C  C586  1  0.416900  0.037200  0.780600  1.0
  C  C587  1  0.416900  0.719400  0.037200  1.0
  C  C588  1  0.416900  0.462800  0.719400  1.0
  C  C589  1  0.533900  0.236400  0.552900  1.0
  C  C590  1  0.533900  0.947100  0.236400  1.0
  C  C591  1  0.533900  0.263600  0.947100  1.0
  C  C592  1  0.533900  0.552900  0.263600  1.0
  C  C593  1  0.466100  0.763600  0.447100  1.0
  C  C594  1  0.466100  0.052900  0.763600  1.0
  C  C595  1  0.466100  0.736400  0.052900  1.0
  C  C596  1  0.466100  0.447100  0.736400  1.0
  C  C597  1  0.488500  0.209100  0.566500  1.0
  C  C598  1  0.488500  0.933500  0.209100  1.0
  C  C599  1  0.488500  0.290900  0.933500  1.0
  C  C600  1  0.488500  0.566500  0.290900  1.0
  C  C601  1  0.511500  0.790900  0.433500  1.0
  C  C602  1  0.511500  0.066500  0.790900  1.0
  C  C603  1  0.511500  0.709100  0.066500  1.0
  C  C604  1  0.511500  0.433500  0.709100  1.0
  C  C605  1  0.441800  0.231600  0.590300  1.0
  C  C606  1  0.441800  0.909700  0.231600  1.0
  C  C607  1  0.441800  0.268400  0.909700  1.0
  C  C608  1  0.441800  0.590300  0.268400  1.0
  C  C609  1  0.558200  0.768400  0.409700  1.0
  C  C610  1  0.558200  0.090300  0.768400  1.0
  C  C611  1  0.558200  0.731600  0.090300  1.0
  C  C612  1  0.558200  0.409700  0.731600  1.0
  C  C613  1  0.703700  0.066500  0.388000  1.0
  C  C614  1  0.703700  0.112000  0.066500  1.0
  C  C615  1  0.703700  0.433500  0.112000  1.0
  C  C616  1  0.703700  0.388000  0.433500  1.0
  C  C617  1  0.296300  0.933500  0.612000  1.0
  C  C618  1  0.296300  0.888000  0.933500  1.0
  C  C619  1  0.296300  0.566500  0.888000  1.0
  C  C620  1  0.296300  0.612000  0.566500  1.0
  C  C621  1  0.670500  0.080200  0.423200  1.0
  C  C622  1  0.670500  0.076800  0.080200  1.0
  C  C623  1  0.670500  0.419800  0.076800  1.0
  C  C624  1  0.670500  0.423200  0.419800  1.0
  C  C625  1  0.329500  0.919800  0.576800  1.0
  C  C626  1  0.329500  0.923200  0.919800  1.0
  C  C627  1  0.329500  0.580200  0.923200  1.0
  C  C628  1  0.329500  0.576800  0.580200  1.0
  C  C629  1  0.673300  0.060500  0.466800  1.0
  C  C630  1  0.673300  0.033200  0.060500  1.0
  C  C631  1  0.673300  0.439500  0.033200  1.0
  C  C632  1  0.673300  0.466800  0.439500  1.0
  C  C633  1  0.326700  0.939500  0.533200  1.0
  C  C634  1  0.326700  0.966800  0.939500  1.0
  C  C635  1  0.326700  0.560500  0.966800  1.0
  C  C636  1  0.326700  0.533200  0.560500  1.0
  C  C637  1  0.711800  0.025200  0.473400  1.0
  C  C638  1  0.711800  0.026600  0.025200  1.0
  C  C639  1  0.711800  0.474800  0.026600  1.0
  C  C640  1  0.711800  0.473400  0.474800  1.0
  C  C641  1  0.288200  0.974800  0.526600  1.0
  C  C642  1  0.288200  0.973400  0.974800  1.0
  C  C643  1  0.288200  0.525200  0.973400  1.0
  C  C644  1  0.288200  0.526600  0.525200  1.0
  C  C645  1  0.744000  0.011400  0.436500  1.0
  C  C646  1  0.744000  0.063500  0.011400  1.0
  C  C647  1  0.744000  0.488600  0.063500  1.0
  C  C648  1  0.744000  0.436500  0.488600  1.0
  C  C649  1  0.256000  0.988600  0.563500  1.0
  C  C650  1  0.256000  0.936500  0.988600  1.0
  C  C651  1  0.256000  0.511400  0.936500  1.0
  C  C652  1  0.256000  0.563500  0.511400  1.0
  C  C653  1  0.635200  0.076300  0.504000  1.0
  C  C654  1  0.635200  0.996000  0.076300  1.0
  C  C655  1  0.635200  0.423700  0.996000  1.0
  C  C656  1  0.635200  0.504000  0.423700  1.0
  C  C657  1  0.364800  0.923700  0.496000  1.0
  C  C658  1  0.364800  0.004000  0.923700  1.0
  C  C659  1  0.364800  0.576300  0.004000  1.0
  C  C660  1  0.364800  0.496000  0.576300  1.0
  C  C661  1  0.649200  0.073000  0.549700  1.0
  C  C662  1  0.649200  0.950300  0.073000  1.0
  C  C663  1  0.649200  0.427000  0.950300  1.0
  C  C664  1  0.649200  0.549700  0.427000  1.0
  C  C665  1  0.350800  0.927000  0.450300  1.0
  C  C666  1  0.350800  0.049700  0.927000  1.0
  C  C667  1  0.350800  0.573000  0.049700  1.0
  C  C668  1  0.350800  0.450300  0.573000  1.0
  C  C669  1  0.613400  0.082700  0.587100  1.0
  C  C670  1  0.613400  0.912900  0.082700  1.0
  C  C671  1  0.613400  0.417300  0.912900  1.0
  C  C672  1  0.613400  0.587100  0.417300  1.0
  C  C673  1  0.386600  0.917300  0.412900  1.0
  C  C674  1  0.386600  0.087100  0.917300  1.0
  C  C675  1  0.386600  0.582700  0.087100  1.0
  C  C676  1  0.386600  0.412900  0.582700  1.0
  C  C677  1  0.630700  0.071700  0.636500  1.0
  C  C678  1  0.630700  0.863500  0.071700  1.0
  C  C679  1  0.630700  0.428300  0.863500  1.0
  C  C680  1  0.630700  0.636500  0.428300  1.0
  C  C681  1  0.369300  0.928300  0.363500  1.0
  C  C682  1  0.369300  0.136500  0.928300  1.0
  C  C683  1  0.369300  0.571700  0.136500  1.0
  C  C684  1  0.369300  0.363500  0.571700  1.0
  C  C685  1  0.895200  0.385500  0.506300  1.0
  C  C686  1  0.895200  0.993700  0.385500  1.0
  C  C687  1  0.895200  0.114500  0.993700  1.0
  C  C688  1  0.895200  0.506300  0.114500  1.0
  C  C689  1  0.104800  0.614500  0.493700  1.0
  C  C690  1  0.104800  0.006300  0.614500  1.0
  C  C691  1  0.104800  0.885500  0.006300  1.0
  C  C692  1  0.104800  0.493700  0.885500  1.0
  C  C693  1  0.942300  0.411000  0.496800  1.0
  C  C694  1  0.942300  0.003200  0.411000  1.0
  C  C695  1  0.942300  0.089000  0.003200  1.0
  C  C696  1  0.942300  0.496800  0.089000  1.0
  C  C697  1  0.057700  0.589000  0.503200  1.0
  C  C698  1  0.057700  0.996800  0.589000  1.0
  C  C699  1  0.057700  0.911000  0.996800  1.0
  C  C700  1  0.057700  0.503200  0.911000  1.0
  C  C701  1  0.946700  0.432000  0.453600  1.0
  C  C702  1  0.946700  0.046400  0.432000  1.0
  C  C703  1  0.946700  0.068000  0.046400  1.0
  C  C704  1  0.946700  0.453600  0.068000  1.0
  C  C705  1  0.053300  0.568000  0.546400  1.0
  C  C706  1  0.053300  0.953600  0.568000  1.0
  C  C707  1  0.053300  0.932000  0.953600  1.0
  C  C708  1  0.053300  0.546400  0.932000  1.0
  C  C709  1  0.905000  0.424300  0.421000  1.0
  C  C710  1  0.905000  0.079000  0.424300  1.0
  C  C711  1  0.905000  0.075700  0.079000  1.0
  C  C712  1  0.905000  0.421000  0.075700  1.0
  C  C713  1  0.095000  0.575700  0.579000  1.0
  C  C714  1  0.095000  0.921000  0.575700  1.0
  C  C715  1  0.095000  0.924300  0.921000  1.0
  C  C716  1  0.095000  0.579000  0.924300  1.0
  C  C717  1  0.862300  0.397700  0.431700  1.0
  C  C718  1  0.862300  0.068300  0.397700  1.0
  C  C719  1  0.862300  0.102300  0.068300  1.0
  C  C720  1  0.862300  0.431700  0.102300  1.0
  C  C721  1  0.137700  0.602300  0.568300  1.0
  C  C722  1  0.137700  0.931700  0.602300  1.0
  C  C723  1  0.137700  0.897700  0.931700  1.0
  C  C724  1  0.137700  0.568300  0.897700  1.0
  C  C725  1  0.995000  0.462100  0.440800  1.0
  C  C726  1  0.995000  0.059200  0.462100  1.0
  C  C727  1  0.995000  0.037900  0.059200  1.0
  C  C728  1  0.995000  0.440800  0.037900  1.0
  C  C729  1  0.005000  0.537900  0.559200  1.0
  C  C730  1  0.005000  0.940800  0.537900  1.0
  C  C731  1  0.005000  0.962100  0.940800  1.0
  C  C732  1  0.005000  0.559200  0.962100  1.0
  C  C733  1  0.043400  0.457200  0.463300  1.0
  C  C734  1  0.043400  0.036700  0.457200  1.0
  C  C735  1  0.043400  0.042800  0.036700  1.0
  C  C736  1  0.043400  0.463300  0.042800  1.0
  C  C737  1  0.956600  0.542800  0.536700  1.0
  C  C738  1  0.956600  0.963300  0.542800  1.0
  C  C739  1  0.956600  0.957200  0.963300  1.0
  C  C740  1  0.956600  0.536700  0.957200  1.0
  C  C741  1  0.089000  0.486100  0.456200  1.0
  C  C742  1  0.089000  0.043800  0.486100  1.0
  C  C743  1  0.089000  0.013900  0.043800  1.0
  C  C744  1  0.089000  0.456200  0.013900  1.0
  C  C745  1  0.911000  0.513900  0.543800  1.0
  C  C746  1  0.911000  0.956200  0.513900  1.0
  C  C747  1  0.911000  0.986100  0.956200  1.0
  C  C748  1  0.911000  0.543800  0.986100  1.0
  C  C749  1  0.138000  0.480700  0.486700  1.0
  C  C750  1  0.138000  0.013300  0.480700  1.0
  C  C751  1  0.138000  0.019300  0.013300  1.0
  C  C752  1  0.138000  0.486700  0.019300  1.0
  C  C753  1  0.862000  0.519300  0.513300  1.0
  C  C754  1  0.862000  0.986700  0.519300  1.0
  C  C755  1  0.862000  0.980700  0.986700  1.0
  C  C756  1  0.862000  0.513300  0.980700  1.0
  C  C757  1  0.139400  0.347700  0.254600  1.0
  C  C758  1  0.139400  0.245400  0.347700  1.0
  C  C759  1  0.139400  0.152300  0.245400  1.0
  C  C760  1  0.139400  0.254600  0.152300  1.0
  C  C761  1  0.860600  0.652300  0.745400  1.0
  C  C762  1  0.860600  0.754600  0.652300  1.0
  C  C763  1  0.860600  0.847700  0.754600  1.0
  C  C764  1  0.860600  0.745400  0.847700  1.0
  C  C765  1  0.138800  0.394200  0.267400  1.0
  C  C766  1  0.138800  0.232600  0.394200  1.0
  C  C767  1  0.138800  0.105800  0.232600  1.0
  C  C768  1  0.138800  0.267400  0.105800  1.0
  C  C769  1  0.861200  0.605800  0.732600  1.0
  C  C770  1  0.861200  0.767400  0.605800  1.0
  C  C771  1  0.861200  0.894200  0.767400  1.0
  C  C772  1  0.861200  0.732600  0.894200  1.0
  C  C773  1  0.097200  0.410100  0.295800  1.0
  C  C774  1  0.097200  0.204200  0.410100  1.0
  C  C775  1  0.097200  0.089900  0.204200  1.0
  C  C776  1  0.097200  0.295800  0.089900  1.0
  C  C777  1  0.902800  0.589900  0.704200  1.0
  C  C778  1  0.902800  0.795800  0.589900  1.0
  C  C779  1  0.902800  0.910100  0.795800  1.0
  C  C780  1  0.902800  0.704200  0.910100  1.0
  C  C781  1  0.056400  0.379700  0.308200  1.0
  C  C782  1  0.056400  0.191800  0.379700  1.0
  C  C783  1  0.056400  0.120300  0.191800  1.0
  C  C784  1  0.056400  0.308200  0.120300  1.0
  C  C785  1  0.943600  0.620300  0.691800  1.0
  C  C786  1  0.943600  0.808200  0.620300  1.0
  C  C787  1  0.943600  0.879700  0.808200  1.0
  C  C788  1  0.943600  0.691800  0.879700  1.0
  C  C789  1  0.058500  0.334400  0.294800  1.0
  C  C790  1  0.058500  0.205200  0.334400  1.0
  C  C791  1  0.058500  0.165600  0.205200  1.0
  C  C792  1  0.058500  0.294800  0.165600  1.0
  C  C793  1  0.941500  0.665600  0.705200  1.0
  C  C794  1  0.941500  0.794800  0.665600  1.0
  C  C795  1  0.941500  0.834400  0.794800  1.0
  C  C796  1  0.941500  0.705200  0.834400  1.0
  C  C797  1  0.094000  0.460100  0.312000  1.0
  C  C798  1  0.094000  0.188000  0.460100  1.0
  C  C799  1  0.094000  0.039900  0.188000  1.0
  C  C800  1  0.094000  0.312000  0.039900  1.0
  C  C801  1  0.906000  0.539900  0.688000  1.0
  C  C802  1  0.906000  0.812000  0.539900  1.0
  C  C803  1  0.906000  0.960100  0.812000  1.0
  C  C804  1  0.906000  0.688000  0.960100  1.0
  C  C805  1  0.119200  0.495300  0.287200  1.0
  C  C806  1  0.119200  0.212800  0.495300  1.0
  C  C807  1  0.119200  0.004700  0.212800  1.0
  C  C808  1  0.119200  0.287200  0.004700  1.0
  C  C809  1  0.880800  0.504700  0.712800  1.0
  C  C810  1  0.880800  0.787200  0.504700  1.0
  C  C811  1  0.880800  0.995300  0.787200  1.0
  C  C812  1  0.880800  0.712800  0.995300  1.0
  C  C813  1  0.120200  0.541600  0.301400  1.0
  C  C814  1  0.120200  0.198600  0.541600  1.0
  C  C815  1  0.120200  0.958400  0.198600  1.0
  C  C816  1  0.120200  0.301400  0.958400  1.0
  C  C817  1  0.879800  0.458400  0.698600  1.0
  C  C818  1  0.879800  0.801400  0.458400  1.0
  C  C819  1  0.879800  0.041600  0.801400  1.0
  C  C820  1  0.879800  0.698600  0.041600  1.0
  C  C821  1  0.155100  0.575700  0.277100  1.0
  C  C822  1  0.155100  0.222900  0.575700  1.0
  C  C823  1  0.155100  0.924300  0.222900  1.0
  C  C824  1  0.155100  0.277100  0.924300  1.0
  C  C825  1  0.844900  0.424300  0.722900  1.0
  C  C826  1  0.844900  0.777100  0.424300  1.0
  C  C827  1  0.844900  0.075700  0.777100  1.0
  C  C828  1  0.844900  0.722900  0.075700  1.0
  C  C829  1  0.877300  0.484600  0.228600  1.0
  C  C830  1  0.877300  0.271400  0.484600  1.0
  C  C831  1  0.877300  0.015400  0.271400  1.0
  C  C832  1  0.877300  0.228600  0.015400  1.0
  C  C833  1  0.122700  0.515400  0.771400  1.0
  C  C834  1  0.122700  0.728600  0.515400  1.0
  C  C835  1  0.122700  0.984600  0.728600  1.0
  C  C836  1  0.122700  0.771400  0.984600  1.0
  C  C837  1  0.911600  0.497900  0.261100  1.0
  C  C838  1  0.911600  0.238900  0.497900  1.0
  C  C839  1  0.911600  0.002100  0.238900  1.0
  C  C840  1  0.911600  0.261100  0.002100  1.0
  C  C841  1  0.088400  0.502100  0.738900  1.0
  C  C842  1  0.088400  0.761100  0.502100  1.0
  C  C843  1  0.088400  0.997900  0.761100  1.0
  C  C844  1  0.088400  0.738900  0.997900  1.0
  C  C845  1  0.906000  0.542100  0.281900  1.0
  C  C846  1  0.906000  0.218100  0.542100  1.0
  C  C847  1  0.906000  0.957900  0.218100  1.0
  C  C848  1  0.906000  0.281900  0.957900  1.0
  C  C849  1  0.094000  0.457900  0.718100  1.0
  C  C850  1  0.094000  0.781900  0.457900  1.0
  C  C851  1  0.094000  0.042100  0.781900  1.0
  C  C852  1  0.094000  0.718100  0.042100  1.0
  C  C853  1  0.866400  0.570300  0.266500  1.0
  C  C854  1  0.866400  0.233500  0.570300  1.0
  C  C855  1  0.866400  0.929700  0.233500  1.0
  C  C856  1  0.866400  0.266500  0.929700  1.0
  C  C857  1  0.133600  0.429700  0.733500  1.0
  C  C858  1  0.133600  0.766500  0.429700  1.0
  C  C859  1  0.133600  0.070300  0.766500  1.0
  C  C860  1  0.133600  0.733500  0.070300  1.0
  C  C861  1  0.830400  0.554300  0.230700  1.0
  C  C862  1  0.830400  0.269300  0.554300  1.0
  C  C863  1  0.830400  0.945700  0.269300  1.0
  C  C864  1  0.830400  0.230700  0.945700  1.0
  C  C865  1  0.169600  0.445700  0.769300  1.0
  C  C866  1  0.169600  0.730700  0.445700  1.0
  C  C867  1  0.169600  0.054300  0.730700  1.0
  C  C868  1  0.169600  0.769300  0.054300  1.0
  C  C869  1  0.946500  0.554900  0.320400  1.0
  C  C870  1  0.946500  0.179600  0.554900  1.0
  C  C871  1  0.946500  0.945100  0.179600  1.0
  C  C872  1  0.946500  0.320400  0.945100  1.0
  C  C873  1  0.053500  0.445100  0.679600  1.0
  C  C874  1  0.053500  0.820400  0.445100  1.0
  C  C875  1  0.053500  0.054900  0.820400  1.0
  C  C876  1  0.053500  0.679600  0.054900  1.0
  C  C877  1  0.932800  0.591100  0.351400  1.0
  C  C878  1  0.932800  0.148600  0.591100  1.0
  C  C879  1  0.932800  0.908900  0.148600  1.0
  C  C880  1  0.932800  0.351400  0.908900  1.0
  C  C881  1  0.067200  0.408900  0.648600  1.0
  C  C882  1  0.067200  0.851400  0.408900  1.0
  C  C883  1  0.067200  0.091100  0.851400  1.0
  C  C884  1  0.067200  0.648600  0.091100  1.0
  C  C885  1  0.967900  0.604700  0.386700  1.0
  C  C886  1  0.967900  0.113300  0.604700  1.0
  C  C887  1  0.967900  0.895300  0.113300  1.0
  C  C888  1  0.967900  0.386700  0.895300  1.0
  C  C889  1  0.032100  0.395300  0.613300  1.0
  C  C890  1  0.032100  0.886700  0.395300  1.0
  C  C891  1  0.032100  0.104700  0.886700  1.0
  C  C892  1  0.032100  0.613300  0.104700  1.0
  C  C893  1  0.955200  0.646900  0.415300  1.0
  C  C894  1  0.955200  0.084700  0.646900  1.0
  C  C895  1  0.955200  0.853100  0.084700  1.0
  C  C896  1  0.955200  0.415300  0.853100  1.0
  C  C897  1  0.044800  0.353100  0.584700  1.0
  C  C898  1  0.044800  0.915300  0.353100  1.0
  C  C899  1  0.044800  0.146900  0.915300  1.0
  C  C900  1  0.044800  0.584700  0.146900  1.0
  S  S901  1  0.288200  0.292000  0.347100  1
  S  S902  1  0.288200  0.152900  0.292000  1
  S  S903  1  0.288200  0.208000  0.152900  1
  S  S904  1  0.288200  0.347100  0.208000  1
  S  S905  1  0.711800  0.708000  0.652900  1
  S  S906  1  0.711800  0.847100  0.708000  1
  S  S907  1  0.711800  0.792000  0.847100  1
  S  S908  1  0.711800  0.652900  0.792000  1
  S  S909  1  0.704700  0.340200  0.290900  1
  S  S910  1  0.704700  0.209100  0.340200  1
  S  S911  1  0.704700  0.159800  0.209100  1
  S  S912  1  0.704700  0.290900  0.159800  1
  S  S913  1  0.295300  0.659800  0.709100  1
  S  S914  1  0.295300  0.790900  0.659800  1
  S  S915  1  0.295300  0.840200  0.790900  1
  S  S916  1  0.295300  0.709100  0.840200  1
  S  S917  1  0.871600  0.209300  0.334000  1
  S  S918  1  0.871600  0.166000  0.209300  1
  S  S919  1  0.871600  0.290700  0.166000  1
  S  S920  1  0.871600  0.334000  0.290700  1
  S  S921  1  0.128400  0.790700  0.666000  1
  S  S922  1  0.128400  0.834000  0.790700  1
  S  S923  1  0.128400  0.709300  0.834000  1
  S  S924  1  0.128400  0.666000  0.709300  1
  N  N925  1  0.478400  0.212000  0.308600  1.0
  N  N926  1  0.478400  0.191400  0.212000  1.0
  N  N927  1  0.478400  0.288000  0.191400  1.0
  N  N928  1  0.478400  0.308600  0.288000  1.0
  N  N929  1  0.521600  0.788000  0.691400  1.0
  N  N930  1  0.521600  0.808600  0.788000  1.0
  N  N931  1  0.521600  0.712000  0.808600  1.0
  N  N932  1  0.521600  0.691400  0.712000  1.0
  N  N933  1  0.720800  0.303700  0.504800  1.0
  N  N934  1  0.720800  0.995200  0.303700  1.0
  N  N935  1  0.720800  0.196300  0.995200  1.0
  N  N936  1  0.720800  0.504800  0.196300  1.0
  N  N937  1  0.279200  0.696300  0.495200  1.0
  N  N938  1  0.279200  0.004800  0.696300  1.0
  N  N939  1  0.279200  0.803700  0.004800  1.0
  N  N940  1  0.279200  0.495200  0.803700  1.0
  N  N941  1  0.740500  0.031300  0.394640  1.0
  N  N942  1  0.740500  0.105360  0.031300  1.0
  N  N943  1  0.740500  0.468700  0.105360  1.0
  N  N944  1  0.740500  0.394640  0.468700  1.0
  N  N945  1  0.259500  0.968700  0.605360  1.0
  N  N946  1  0.259500  0.894640  0.968700  1.0
  N  N947  1  0.259500  0.531300  0.894640  1.0
  N  N948  1  0.259500  0.605360  0.531300  1.0
  N  N949  1  0.854800  0.378500  0.475200  1.0
  N  N950  1  0.854800  0.024800  0.378500  1.0
  N  N951  1  0.854800  0.121500  0.024800  1.0
  N  N952  1  0.854800  0.475200  0.121500  1.0
  N  N953  1  0.145200  0.621500  0.524800  1.0
  N  N954  1  0.145200  0.975200  0.621500  1.0
  N  N955  1  0.145200  0.878500  0.975200  1.0
  N  N956  1  0.145200  0.524800  0.878500  1.0
  N  N957  1  0.100500  0.317600  0.268200  1.0
  N  N958  1  0.100500  0.231800  0.317600  1.0
  N  N959  1  0.100500  0.182400  0.231800  1.0
  N  N960  1  0.100500  0.268200  0.182400  1.0
  N  N961  1  0.899500  0.682400  0.731800  1.0
  N  N962  1  0.899500  0.768200  0.682400  1.0
  N  N963  1  0.899500  0.817600  0.768200  1.0
  N  N964  1  0.899500  0.731800  0.817600  1.0
  N  N965  1  0.835400  0.512700  0.212100  1.0
  N  N966  1  0.835400  0.287900  0.512700  1.0
  N  N967  1  0.835400  0.987300  0.287900  1.0
  N  N968  1  0.835400  0.212100  0.987300  1.0
  N  N969  1  0.164600  0.487300  0.787900  1.0
  N  N970  1  0.164600  0.712100  0.487300  1.0
  N  N971  1  0.164600  0.012700  0.712100  1.0
  N  N972  1  0.164600  0.787900  0.012700  1.0
  O  O973  1  0.378700  0.250000  0.250000  1
  O  O974  1  0.621300  0.750000  0.750000  1
  O  O975  1  0.591100  0.250000  0.250000  1
  O  O976  1  0.408900  0.750000  0.750000  1
  O  O977  1  0.198600  0.250000  0.250000  1
  O  O978  1  0.801400  0.750000  0.750000  1
  O  O979  1  0.989000  0.250000  0.250000  1
  O  O980  1  0.011000  0.750000  0.750000  1
  O  O981  1  0.319000  0.329600  0.359500  1
  O  O982  1  0.319000  0.140500  0.329600  1
  O  O983  1  0.319000  0.170400  0.140500  1
  O  O984  1  0.319000  0.359500  0.170400  1
  O  O985  1  0.681000  0.670400  0.640500  1
  O  O986  1  0.681000  0.859500  0.670400  1
  O  O987  1  0.681000  0.829600  0.859500  1
  O  O988  1  0.681000  0.640500  0.829600  1
  O  O989  1  0.323900  0.254600  0.331300  1
  O  O990  1  0.323900  0.168700  0.254600  1
  O  O991  1  0.323900  0.245400  0.168700  1
  O  O992  1  0.323900  0.331300  0.245400  1
  O  O993  1  0.676100  0.745400  0.668700  1
  O  O994  1  0.676100  0.831300  0.745400  1
  O  O995  1  0.676100  0.754600  0.831300  1
  O  O996  1  0.676100  0.668700  0.754600  1
  O  O997  1  0.255200  0.278500  0.386500  1
  O  O998  1  0.255200  0.113500  0.278500  1
  O  O999  1  0.255200  0.221500  0.113500  1
  O  O1000  1  0.255200  0.386500  0.221500  1
  O  O1001  1  0.744800  0.721500  0.613500  1
  O  O1002  1  0.744800  0.886500  0.721500  1
  O  O1003  1  0.744800  0.778500  0.886500  1
  O  O1004  1  0.744800  0.613500  0.778500  1
  O  O1005  1  0.258400  0.297800  0.307200  1
  O  O1006  1  0.258400  0.192800  0.297800  1
  O  O1007  1  0.258400  0.202200  0.192800  1
  O  O1008  1  0.258400  0.307200  0.202200  1
  O  O1009  1  0.741600  0.702200  0.692800  1
  O  O1010  1  0.741600  0.807200  0.702200  1
  O  O1011  1  0.741600  0.797800  0.807200  1
  O  O1012  1  0.741600  0.692800  0.797800  1
  O  O1013  1  0.693000  0.297400  0.275500  1
  O  O1014  1  0.693000  0.224500  0.297400  1
  O  O1015  1  0.693000  0.202600  0.224500  1
  O  O1016  1  0.693000  0.275500  0.202600  1
  O  O1017  1  0.307000  0.702600  0.724500  1
  O  O1018  1  0.307000  0.775500  0.702600  1
  O  O1019  1  0.307000  0.797400  0.775500  1
  O  O1020  1  0.307000  0.724500  0.797400  1
  O  O1021  1  0.656700  0.359300  0.317000  1
  O  O1022  1  0.656700  0.183000  0.359300  1
  O  O1023  1  0.656700  0.140700  0.183000  1
  O  O1024  1  0.656700  0.317000  0.140700  1
  O  O1025  1  0.343300  0.640700  0.683000  1
  O  O1026  1  0.343300  0.817000  0.640700  1
  O  O1027  1  0.343300  0.859300  0.817000  1
  O  O1028  1  0.343300  0.683000  0.859300  1
  O  O1029  1  0.752500  0.341600  0.318300  1
  O  O1030  1  0.752500  0.181700  0.341600  1
  O  O1031  1  0.752500  0.158400  0.181700  1
  O  O1032  1  0.752500  0.318300  0.158400  1
  O  O1033  1  0.247500  0.658400  0.681700  1
  O  O1034  1  0.247500  0.818300  0.658400  1
  O  O1035  1  0.247500  0.841600  0.818300  1
  O  O1036  1  0.247500  0.681700  0.841600  1
  O  O1037  1  0.702900  0.374700  0.256100  1
  O  O1038  1  0.702900  0.243900  0.374700  1
  O  O1039  1  0.702900  0.125300  0.243900  1
  O  O1040  1  0.702900  0.256100  0.125300  1
  O  O1041  1  0.297100  0.625300  0.743900  1
  O  O1042  1  0.297100  0.756100  0.625300  1
  O  O1043  1  0.297100  0.874700  0.756100  1
  O  O1044  1  0.297100  0.743900  0.874700  1
  O  O1045  1  0.923400  0.217500  0.324100  1
  O  O1046  1  0.923400  0.175900  0.217500  1
  O  O1047  1  0.923400  0.282500  0.175900  1
  O  O1048  1  0.923400  0.324100  0.282500  1
  O  O1049  1  0.076600  0.782500  0.675900  1
  O  O1050  1  0.076600  0.824100  0.782500  1
  O  O1051  1  0.076600  0.717500  0.824100  1
  O  O1052  1  0.076600  0.675900  0.717500  1
  O  O1053  1  0.834700  0.235000  0.301300  1
  O  O1054  1  0.834700  0.198700  0.235000  1
  O  O1055  1  0.834700  0.265000  0.198700  1
  O  O1056  1  0.834700  0.301300  0.265000  1
  O  O1057  1  0.165300  0.765000  0.698700  1
  O  O1058  1  0.165300  0.801300  0.765000  1
  O  O1059  1  0.165300  0.735000  0.801300  1
  O  O1060  1  0.165300  0.698700  0.735000  1
  O  O1061  1  0.857900  0.219200  0.381700  1
  O  O1062  1  0.857900  0.118300  0.219200  1
  O  O1063  1  0.857900  0.280800  0.118300  1
  O  O1064  1  0.857900  0.381700  0.280800  1
  O  O1065  1  0.142100  0.780800  0.618300  1
  O  O1066  1  0.142100  0.881700  0.780800  1
  O  O1067  1  0.142100  0.719200  0.881700  1
  O  O1068  1  0.142100  0.618300  0.719200  1
  O  O1069  1  0.851200  0.165700  0.320000  1
  O  O1070  1  0.851200  0.180000  0.165700  1
  O  O1071  1  0.851200  0.334300  0.180000  1
  O  O1072  1  0.851200  0.320000  0.334300  1
  O  O1073  1  0.148800  0.834300  0.680000  1
  O  O1074  1  0.148800  0.820000  0.834300  1
  O  O1075  1  0.148800  0.665700  0.820000  1
  O  O1076  1  0.148800  0.680000  0.665700  1
  O  O1077  1  0.513000  0.155400  0.467220  1.0
  O  O1078  1  0.513000  0.032780  0.155400  1.0
  O  O1079  1  0.513000  0.344600  0.032780  1.0
  O  O1080  1  0.513000  0.467220  0.344600  1.0
  O  O1081  1  0.487000  0.844600  0.532780  1.0
  O  O1082  1  0.487000  0.967220  0.844600  1.0
  O  O1083  1  0.487000  0.655400  0.967220  1.0
  O  O1084  1  0.487000  0.532780  0.655400  1.0
  O  O1085  1  0.482400  0.078450  0.519010  1.0
  O  O1086  1  0.482400  0.980990  0.078450  1.0
  O  O1087  1  0.482400  0.421550  0.980990  1.0
  O  O1088  1  0.482400  0.519010  0.421550  1.0
  O  O1089  1  0.517600  0.921550  0.480990  1.0
  O  O1090  1  0.517600  0.019010  0.921550  1.0
  O  O1091  1  0.517600  0.578450  0.019010  1.0
  O  O1092  1  0.517600  0.480990  0.578450  1.0
  O  O1093  1  0.592200  0.175540  0.528980  1.0
  O  O1094  1  0.592200  0.971020  0.175540  1.0
  O  O1095  1  0.592200  0.324460  0.971020  1.0
  O  O1096  1  0.592200  0.528980  0.324460  1.0
  O  O1097  1  0.407800  0.824460  0.471020  1.0
  O  O1098  1  0.407800  0.028980  0.824460  1.0
  O  O1099  1  0.407800  0.675540  0.028980  1.0
  O  O1100  1  0.407800  0.471020  0.675540  1.0
  O  O1101  1  0.487200  0.165680  0.560910  1.0
  O  O1102  1  0.487200  0.939090  0.165680  1.0
  O  O1103  1  0.487200  0.334320  0.939090  1.0
  O  O1104  1  0.487200  0.560910  0.334320  1.0
  O  O1105  1  0.512800  0.834320  0.439090  1.0
  O  O1106  1  0.512800  0.060910  0.834320  1.0
  O  O1107  1  0.512800  0.665680  0.060910  1.0
  O  O1108  1  0.512800  0.439090  0.665680  1.0
  O  O1109  1  0.589300  0.092090  0.488610  1.0
  O  O1110  1  0.589300  0.011390  0.092090  1.0
  O  O1111  1  0.589300  0.407910  0.011390  1.0
  O  O1112  1  0.589300  0.488610  0.407910  1.0
  O  O1113  1  0.410700  0.907910  0.511390  1.0
  O  O1114  1  0.410700  0.988610  0.907910  1.0
  O  O1115  1  0.410700  0.592090  0.988610  1.0
  O  O1116  1  0.410700  0.511390  0.592090  1.0
  O  O1117  1  0.566100  0.099570  0.582350  1.0
  O  O1118  1  0.566100  0.917650  0.099570  1.0
  O  O1119  1  0.566100  0.400430  0.917650  1.0
  O  O1120  1  0.566100  0.582350  0.400430  1.0
  O  O1121  1  0.433900  0.900430  0.417650  1.0
  O  O1122  1  0.433900  0.082350  0.900430  1.0
  O  O1123  1  0.433900  0.599570  0.082350  1.0
  O  O1124  1  0.433900  0.417650  0.599570  1.0
  O  O1125  1  0.984700  0.491100  0.407830  1.0
  O  O1126  1  0.984700  0.092170  0.491100  1.0
  O  O1127  1  0.984700  0.008900  0.092170  1.0
  O  O1128  1  0.984700  0.407830  0.008900  1.0
  O  O1129  1  0.015300  0.508900  0.592170  1.0
  O  O1130  1  0.015300  0.907830  0.508900  1.0
  O  O1131  1  0.015300  0.991100  0.907830  1.0
  O  O1132  1  0.015300  0.592170  0.991100  1.0
  O  O1133  1  0.091700  0.516620  0.423870  1.0
  O  O1134  1  0.091700  0.076130  0.516620  1.0
  O  O1135  1  0.091700  0.983380  0.076130  1.0
  O  O1136  1  0.091700  0.423870  0.983380  1.0
  O  O1137  1  0.908300  0.483380  0.576130  1.0
  O  O1138  1  0.908300  0.923870  0.483380  1.0
  O  O1139  1  0.908300  0.016620  0.923870  1.0
  O  O1140  1  0.908300  0.576130  0.016620  1.0
  O  O1141  1  0.063300  0.465790  0.347630  1.0
  O  O1142  1  0.063300  0.152370  0.465790  1.0
  O  O1143  1  0.063300  0.034210  0.152370  1.0
  O  O1144  1  0.063300  0.347630  0.034210  1.0
  O  O1145  1  0.936700  0.534210  0.652370  1.0
  O  O1146  1  0.936700  0.847630  0.534210  1.0
  O  O1147  1  0.936700  0.965790  0.847630  1.0
  O  O1148  1  0.936700  0.652370  0.965790  1.0
  O  O1149  1  0.094300  0.557480  0.336190  1.0
  O  O1150  1  0.094300  0.163810  0.557480  1.0
  O  O1151  1  0.094300  0.942520  0.163810  1.0
  O  O1152  1  0.094300  0.336190  0.942520  1.0
  O  O1153  1  0.905700  0.442520  0.663810  1.0
  O  O1154  1  0.905700  0.836190  0.442520  1.0
  O  O1155  1  0.905700  0.057480  0.836190  1.0
  O  O1156  1  0.905700  0.663810  0.057480  1.0
  O  O1157  1  0.987100  0.529020  0.322230  1.0
  O  O1158  1  0.987100  0.177770  0.529020  1.0
  O  O1159  1  0.987100  0.970980  0.177770  1.0
  O  O1160  1  0.987100  0.322230  0.970980  1.0
  O  O1161  1  0.012900  0.470980  0.677770  1.0
  O  O1162  1  0.012900  0.822230  0.470980  1.0
  O  O1163  1  0.012900  0.029020  0.822230  1.0
  O  O1164  1  0.012900  0.677770  0.029020  1.0
  O  O1165  1  0.013400  0.584020  0.397770  1.0
  O  O1166  1  0.013400  0.102230  0.584020  1.0
  O  O1167  1  0.013400  0.915980  0.102230  1.0
  O  O1168  1  0.013400  0.397770  0.915980  1.0
  O  O1169  1  0.986600  0.415980  0.602230  1.0
  O  O1170  1  0.986600  0.897770  0.415980  1.0
  O  O1171  1  0.986600  0.084020  0.897770  1.0
  O  O1172  1  0.986600  0.602230  0.084020  1.0
  O  O1173  1  0.788100  0.372410  0.568500  1.0
  O  O1174  1  0.788100  0.931500  0.372410  1.0
  O  O1175  1  0.788100  0.127590  0.931500  1.0
  O  O1176  1  0.788100  0.568500  0.127590  1.0
  O  O1177  1  0.211900  0.627590  0.431500  1.0
  O  O1178  1  0.211900  0.068500  0.627590  1.0
  O  O1179  1  0.211900  0.872410  0.068500  1.0
  O  O1180  1  0.211900  0.431500  0.872410  1.0
  O  O1181  1  0.789500  0.307500  0.408600  1.0
  O  O1182  1  0.789500  0.091400  0.307500  1.0
  O  O1183  1  0.789500  0.192500  0.091400  1.0
  O  O1184  1  0.789500  0.408600  0.192500  1.0
  O  O1185  1  0.210500  0.692500  0.591400  1.0
  O  O1186  1  0.210500  0.908600  0.692500  1.0
  O  O1187  1  0.210500  0.807500  0.908600  1.0
  O  O1188  1  0.210500  0.591400  0.807500  1.0
