# generated using pymatgen
data_Cr4Cu3H96C108N12(ClO4)6
_symmetry_space_group_name_H-M   'P 1'
_cell_length_a   31.05600000
_cell_length_b   33.09323049
_cell_length_c   33.09323049
_cell_angle_alpha   77.28114347
_cell_angle_beta   62.01633405
_cell_angle_gamma   62.01633405
_symmetry_Int_Tables_number   1
_chemical_formula_structural   Cr4Cu3H96C108N12(ClO4)6
_chemical_formula_sum   'Cr16 Cu12 H384 C432 N48 Cl24 O96'
_cell_volume   26523.16315025
_cell_formula_units_Z   4
loop_
 _symmetry_equiv_pos_site_id
 _symmetry_equiv_pos_as_xyz
  1  'x, y, z'
loop_
 _atom_site_type_symbol
 _atom_site_label
 _atom_site_symmetry_multiplicity
 _atom_site_fract_x
 _atom_site_fract_y
 _atom_site_fract_z
 _atom_site_occupancy
  C  C1  1  0.167240  0.143440  0.039140  1.0
  C  C2  1  0.560680  0.539140  0.356560  1.0
  C  C3  1  0.349820  0.856560  0.960860  1.0
  C  C4  1  0.456380  0.460860  0.643440  1.0
  C  C5  1  0.082760  0.460860  0.356560  1.0
  C  C6  1  0.900180  0.539140  0.643440  1.0
  C  C7  1  0.793620  0.856560  0.039140  1.0
  C  C8  1  0.689320  0.143440  0.960860  1.0
  C  C9  1  0.190710  0.114310  0.067590  1.0
  C  C10  1  0.555020  0.567590  0.385690  1.0
  C  C11  1  0.372610  0.885690  0.932410  1.0
  C  C12  1  0.508300  0.432410  0.614310  1.0
  C  C13  1  0.059290  0.432410  0.385690  1.0
  C  C14  1  0.877390  0.567590  0.614310  1.0
  C  C15  1  0.741700  0.885690  0.067590  1.0
  C  C16  1  0.694980  0.114310  0.932410  1.0
  C  C17  1  0.165180  0.089350  0.101250  1.0
  C  C18  1  0.504530  0.601250  0.410650  1.0
  C  C19  1  0.355780  0.910650  0.898750  1.0
  C  C20  1  0.516430  0.398750  0.589350  1.0
  C  C21  1  0.084820  0.398750  0.410650  1.0
  C  C22  1  0.894220  0.601250  0.589350  1.0
  C  C23  1  0.733570  0.910650  0.101250  1.0
  C  C24  1  0.745470  0.089350  0.898750  1.0
  C  C25  1  0.116180  0.093520  0.106440  1.0
  C  C26  1  0.459700  0.606440  0.406480  1.0
  C  C27  1  0.316140  0.906480  0.893560  1.0
  C  C28  1  0.472620  0.393560  0.593520  1.0
  C  C29  1  0.133820  0.393560  0.406480  1.0
  C  C30  1  0.933860  0.606440  0.593520  1.0
  C  C31  1  0.777380  0.906480  0.106440  1.0
  C  C32  1  0.790300  0.093520  0.893560  1.0
  C  C33  1  0.092710  0.122650  0.077990  1.0
  C  C34  1  0.465360  0.577990  0.377350  1.0
  C  C35  1  0.293350  0.877350  0.922010  1.0
  C  C36  1  0.420700  0.422010  0.622650  1.0
  C  C37  1  0.157290  0.422010  0.377350  1.0
  C  C38  1  0.956650  0.577990  0.622650  1.0
  C  C39  1  0.829300  0.877350  0.077990  1.0
  C  C40  1  0.784640  0.122650  0.922010  1.0
  C  C41  1  0.985030  0.989530  0.222190  1.0
  C  C42  1  0.224560  0.722190  0.510470  1.0
  C  C43  1  0.196750  0.010470  0.777810  1.0
  C  C44  1  0.457220  0.277810  0.489530  1.0
  C  C45  1  0.264970  0.277810  0.510470  1.0
  C  C46  1  0.053250  0.722190  0.489530  1.0
  C  C47  1  0.792780  0.010470  0.222190  1.0
  C  C48  1  0.025440  0.989530  0.777810  1.0
  C  C49  1  0.027470  0.995020  0.220700  1.0
  C  C50  1  0.272490  0.720700  0.504980  1.0
  C  C51  1  0.243190  0.004980  0.779300  1.0
  C  C52  1  0.498170  0.279300  0.495020  1.0
  C  C53  1  0.222530  0.279300  0.504980  1.0
  C  C54  1  0.006810  0.720700  0.495020  1.0
  C  C55  1  0.751830  0.004980  0.220700  1.0
  C  C56  1  0.977510  0.995020  0.779300  1.0
  C  C57  1  0.018320  0.021820  0.253360  1.0
  C  C58  1  0.290140  0.753360  0.478180  1.0
  C  C59  1  0.293500  0.978180  0.746640  1.0
  C  C60  1  0.521680  0.246640  0.521820  1.0
  C  C61  1  0.231680  0.246640  0.478180  1.0
  C  C62  1  0.956500  0.753360  0.521820  1.0
  C  C63  1  0.728320  0.978180  0.253360  1.0
  C  C64  1  0.959860  0.021820  0.746640  1.0
  C  C65  1  0.966740  0.043120  0.287500  1.0
  C  C66  1  0.259860  0.787500  0.456880  1.0
  C  C67  1  0.297360  0.956880  0.712500  1.0
  C  C68  1  0.504240  0.212500  0.543120  1.0
  C  C69  1  0.283260  0.212500  0.456880  1.0
  C  C70  1  0.952640  0.787500  0.543120  1.0
  C  C71  1  0.745760  0.956880  0.287500  1.0
  C  C72  1  0.990140  0.043120  0.712500  1.0
  C  C73  1  0.924300  0.037630  0.288990  1.0
  C  C74  1  0.211930  0.788990  0.462370  1.0
  C  C75  1  0.250920  0.962370  0.711010  1.0
  C  C76  1  0.463290  0.211010  0.537630  1.0
  C  C77  1  0.325700  0.211010  0.462370  1.0
  C  C78  1  0.999080  0.788990  0.537630  1.0
  C  C79  1  0.786710  0.962370  0.288990  1.0
  C  C80  1  0.038070  0.037630  0.711010  1.0
  C  C81  1  0.773700  0.090260  0.292560  1.0
  C  C82  1  0.113960  0.792560  0.409740  1.0
  C  C83  1  0.156520  0.909740  0.707440  1.0
  C  C84  1  0.316260  0.207440  0.590260  1.0
  C  C85  1  0.476300  0.207440  0.409740  1.0
  C  C86  1  0.093480  0.792560  0.590260  1.0
  C  C87  1  0.933740  0.909740  0.292560  1.0
  C  C88  1  0.136040  0.090260  0.707440  1.0
  C  C89  1  0.744490  0.137390  0.291890  1.0
  C  C90  1  0.131880  0.791890  0.362610  1.0
  C  C91  1  0.173770  0.862610  0.708110  1.0
  C  C92  1  0.286380  0.208110  0.637390  1.0
  C  C93  1  0.505510  0.208110  0.362610  1.0
  C  C94  1  0.076230  0.791890  0.637390  1.0
  C  C95  1  0.963620  0.862610  0.291890  1.0
  C  C96  1  0.118120  0.137390  0.708110  1.0
  C  C97  1  0.767080  0.163510  0.257230  1.0
  C  C98  1  0.180590  0.757230  0.336490  1.0
  C  C99  1  0.187820  0.836490  0.742770  1.0
  C  C100  1  0.274310  0.242770  0.663510  1.0
  C  C101  1  0.482920  0.242770  0.336490  1.0
  C  C102  1  0.062180  0.757230  0.663510  1.0
  C  C103  1  0.975690  0.836490  0.257230  1.0
  C  C104  1  0.069410  0.163510  0.742770  1.0
  C  C105  1  0.818870  0.142500  0.223240  1.0
  C  C106  1  0.211370  0.723240  0.357500  1.0
  C  C107  1  0.184610  0.857500  0.776760  1.0
  C  C108  1  0.292110  0.276760  0.642500  1.0
  C  C109  1  0.431130  0.276760  0.357500  1.0
  C  C110  1  0.065390  0.723240  0.642500  1.0
  C  C111  1  0.957890  0.857500  0.223240  1.0
  C  C112  1  0.038630  0.142500  0.776760  1.0
  C  C113  1  0.848060  0.095370  0.223930  1.0
  C  C114  1  0.193430  0.723930  0.404630  1.0
  C  C115  1  0.167360  0.904630  0.776070  1.0
  C  C116  1  0.321990  0.276070  0.595370  1.0
  C  C117  1  0.401940  0.276070  0.404630  1.0
  C  C118  1  0.082640  0.723930  0.595370  1.0
  C  C119  1  0.928010  0.904630  0.223930  1.0
  C  C120  1  0.056570  0.095370  0.776070  1.0
  C  C121  1  0.752490  0.207820  0.068000  1.0
  C  C122  1  0.210310  0.568000  0.292180  1.0
  C  C123  1  0.028310  0.792180  0.932000  1.0
  C  C124  1  0.070490  0.432000  0.707820  1.0
  C  C125  1  0.497510  0.432000  0.292180  1.0
  C  C126  1  0.221690  0.568000  0.707820  1.0
  C  C127  1  0.179510  0.792180  0.068000  1.0
  C  C128  1  0.039690  0.207820  0.932000  1.0
  C  C129  1  0.747360  0.234020  0.098920  1.0
  C  C130  1  0.231380  0.598920  0.265980  1.0
  C  C131  1  0.080300  0.765980  0.901080  1.0
  C  C132  1  0.096280  0.401080  0.734020  1.0
  C  C133  1  0.502640  0.401080  0.265980  1.0
  C  C134  1  0.169700  0.598920  0.734020  1.0
  C  C135  1  0.153720  0.765980  0.098920  1.0
  C  C136  1  0.018620  0.234020  0.901080  1.0
  C  C137  1  0.719140  0.281350  0.099190  1.0
  C  C138  1  0.250490  0.599190  0.218650  1.0
  C  C139  1  0.099680  0.718650  0.900810  1.0
  C  C140  1  0.068330  0.400810  0.781350  1.0
  C  C141  1  0.530860  0.400810  0.218650  1.0
  C  C142  1  0.150320  0.599190  0.781350  1.0
  C  C143  1  0.181670  0.718650  0.099190  1.0
  C  C144  1  0.999510  0.281350  0.900810  1.0
  C  C145  1  0.696060  0.302490  0.068530  1.0
  C  C146  1  0.248550  0.568530  0.197510  1.0
  C  C147  1  0.067080  0.697510  0.931470  1.0
  C  C148  1  0.014590  0.431470  0.802490  1.0
  C  C149  1  0.553940  0.431470  0.197510  1.0
  C  C150  1  0.182920  0.568530  0.802490  1.0
  C  C151  1  0.235410  0.697510  0.068530  1.0
  C  C152  1  0.001450  0.302490  0.931470  1.0
  C  C153  1  0.701190  0.276290  0.037610  1.0
  C  C154  1  0.227480  0.537610  0.223710  1.0
  C  C155  1  0.015090  0.723710  0.962390  1.0
  C  C156  1  0.988800  0.462390  0.776290  1.0
  C  C157  1  0.548810  0.462390  0.223710  1.0
  C  C158  1  0.234910  0.537610  0.776290  1.0
  C  C159  1  0.261200  0.723710  0.037610  1.0
  C  C160  1  0.022520  0.276290  0.962390  1.0
  C  C161  1  0.324680  0.013520  0.127120  1.0
  C  C162  1  0.588200  0.627120  0.486480  1.0
  C  C163  1  0.465320  0.986480  0.872880  1.0
  C  C164  1  0.701800  0.372880  0.513520  1.0
  C  C165  1  0.925320  0.372880  0.486480  1.0
  C  C166  1  0.784680  0.627120  0.513520  1.0
  C  C167  1  0.548200  0.986480  0.127120  1.0
  C  C168  1  0.661800  0.013520  0.872880  1.0
  C  C169  1  0.269510  0.014410  0.151870  1.0
  C  C170  1  0.533920  0.651870  0.485590  1.0
  C  C171  1  0.435790  0.985590  0.848130  1.0
  C  C172  1  0.671380  0.348130  0.514410  1.0
  C  C173  1  0.980490  0.348130  0.485590  1.0
  C  C174  1  0.814210  0.651870  0.514410  1.0
  C  C175  1  0.578620  0.985590  0.151870  1.0
  C  C176  1  0.716080  0.014410  0.848130  1.0
  C  C177  1  0.241910  0.046870  0.122170  1.0
  C  C178  1  0.538780  0.622170  0.453130  1.0
  C  C179  1  0.410950  0.953130  0.877830  1.0
  C  C180  1  0.614080  0.377830  0.546870  1.0
  C  C181  1  0.008090  0.377830  0.453130  1.0
  C  C182  1  0.839050  0.622170  0.546870  1.0
  C  C183  1  0.635920  0.953130  0.122170  1.0
  C  C184  1  0.711220  0.046870  0.877830  1.0
  C  C185  1  0.189770  0.057260  0.133020  1.0
  C  C186  1  0.497030  0.633020  0.442740  1.0
  C  C187  1  0.380050  0.942740  0.866980  1.0
  C  C188  1  0.572790  0.366980  0.557260  1.0
  C  C189  1  0.060230  0.366980  0.442740  1.0
  C  C190  1  0.869950  0.633020  0.557260  1.0
  C  C191  1  0.677210  0.942740  0.133020  1.0
  C  C192  1  0.752970  0.057260  0.866980  1.0
  C  C193  1  0.079560  0.111740  0.293940  1.0
  C  C194  1  0.441300  0.793940  0.388260  1.0
  C  C195  1  0.485240  0.888260  0.706060  1.0
  C  C196  1  0.623500  0.206060  0.611740  1.0
  C  C197  1  0.170440  0.206060  0.388260  1.0
  C  C198  1  0.764760  0.793940  0.611740  1.0
  C  C199  1  0.626500  0.888260  0.293940  1.0
  C  C200  1  0.808700  0.111740  0.706060  1.0
  C  C201  1  0.099300  0.069900  0.269500  1.0
  C  C202  1  0.419200  0.769500  0.430100  1.0
  C  C203  1  0.438700  0.930100  0.730500  1.0
  C  C204  1  0.618800  0.230500  0.569900  1.0
  C  C205  1  0.150700  0.230500  0.430100  1.0
  C  C206  1  0.811300  0.769500  0.569900  1.0
  C  C207  1  0.631200  0.930100  0.269500  1.0
  C  C208  1  0.830800  0.069900  0.730500  1.0
  C  C209  1  0.053460  0.062730  0.276750  1.0
  C  C210  1  0.366190  0.776750  0.437270  1.0
  C  C211  1  0.392940  0.937270  0.723250  1.0
  C  C212  1  0.580210  0.223250  0.562730  1.0
  C  C213  1  0.196540  0.223250  0.437270  1.0
  C  C214  1  0.857060  0.776750  0.562730  1.0
  C  C215  1  0.669790  0.937270  0.276750  1.0
  C  C216  1  0.883810  0.062730  0.723250  1.0
  C  C217  1  0.066600  0.023570  0.249250  1.0
  C  C218  1  0.340170  0.749250  0.476430  1.0
  C  C219  1  0.339420  0.976430  0.750750  1.0
  C  C220  1  0.565850  0.250750  0.523570  1.0
  C  C221  1  0.183400  0.250750  0.476430  1.0
  C  C222  1  0.910580  0.749250  0.523570  1.0
  C  C223  1  0.684150  0.976430  0.249250  1.0
  C  C224  1  0.909830  0.023570  0.750750  1.0
  C  C225  1  0.218860  0.872250  0.287230  1.0
  C  C226  1  0.341110  0.787230  0.627750  1.0
  C  C227  1  0.378340  0.127750  0.712770  1.0
  C  C228  1  0.756090  0.212770  0.372250  1.0
  C  C229  1  0.031140  0.212770  0.627750  1.0
  C  C230  1  0.871660  0.787230  0.372250  1.0
  C  C231  1  0.493910  0.127750  0.287230  1.0
  C  C232  1  0.908890  0.872250  0.712770  1.0
  C  C233  1  0.211770  0.899520  0.247000  1.0
  C  C234  1  0.361290  0.747000  0.600480  1.0
  C  C235  1  0.358290  0.100480  0.753000  1.0
  C  C236  1  0.708770  0.253000  0.399520  1.0
  C  C237  1  0.038230  0.253000  0.600480  1.0
  C  C238  1  0.891710  0.747000  0.399520  1.0
  C  C239  1  0.541230  0.100480  0.247000  1.0
  C  C240  1  0.888710  0.899520  0.753000  1.0
  C  C241  1  0.215510  0.884260  0.206780  1.0
  C  C242  1  0.349770  0.706780  0.615740  1.0
  C  C243  1  0.306550  0.115740  0.793220  1.0
  C  C244  1  0.672290  0.293220  0.384260  1.0
  C  C245  1  0.034490  0.293220  0.615740  1.0
  C  C246  1  0.943450  0.706780  0.384260  1.0
  C  C247  1  0.577710  0.115740  0.206780  1.0
  C  C248  1  0.900230  0.884260  0.793220  1.0
  C  C249  1  0.220630  0.905330  0.166650  1.0
  C  C250  1  0.375960  0.666650  0.594670  1.0
  C  C251  1  0.292610  0.094670  0.833350  1.0
  C  C252  1  0.637280  0.333350  0.405330  1.0
  C  C253  1  0.029370  0.333350  0.594670  1.0
  C  C254  1  0.957390  0.666650  0.405330  1.0
  C  C255  1  0.612720  0.094670  0.166650  1.0
  C  C256  1  0.874040  0.905330  0.833350  1.0
  C  C257  1  0.236780  0.881780  0.127040  1.0
  C  C258  1  0.368560  0.627040  0.618220  1.0
  C  C259  1  0.245600  0.118220  0.872960  1.0
  C  C260  1  0.613820  0.372960  0.381780  1.0
  C  C261  1  0.013220  0.372960  0.618220  1.0
  C  C262  1  0.004400  0.627040  0.381780  1.0
  C  C263  1  0.636180  0.118220  0.127040  1.0
  C  C264  1  0.881440  0.881780  0.872960  1.0
  C  C265  1  0.265150  0.831850  0.119090  1.0
  C  C266  1  0.347000  0.619090  0.668150  1.0
  C  C267  1  0.216090  0.168150  0.880910  1.0
  C  C268  1  0.634240  0.380910  0.331850  1.0
  C  C269  1  0.984850  0.380910  0.668150  1.0
  C  C270  1  0.033910  0.619090  0.331850  1.0
  C  C271  1  0.615760  0.168150  0.119090  1.0
  C  C272  1  0.903000  0.831850  0.880910  1.0
  C  C273  1  0.271800  0.815420  0.081860  1.0
  C  C274  1  0.337220  0.581860  0.684580  1.0
  C  C275  1  0.169080  0.184580  0.918140  1.0
  C  C276  1  0.603660  0.418140  0.315420  1.0
  C  C277  1  0.978200  0.418140  0.684580  1.0
  C  C278  1  0.080920  0.581860  0.315420  1.0
  C  C279  1  0.646340  0.184580  0.081860  1.0
  C  C280  1  0.912780  0.815420  0.918140  1.0
  C  C281  1  0.233230  0.881520  0.053900  1.0
  C  C282  1  0.364750  0.553900  0.618480  1.0
  C  C283  1  0.168650  0.118480  0.946100  1.0
  C  C284  1  0.537130  0.446100  0.381520  1.0
  C  C285  1  0.016770  0.446100  0.618480  1.0
  C  C286  1  0.081350  0.553900  0.381520  1.0
  C  C287  1  0.712870  0.118480  0.053900  1.0
  C  C288  1  0.885250  0.881520  0.946100  1.0
  C  C289  1  0.223500  0.906680  0.092020  1.0
  C  C290  1  0.380180  0.592020  0.593320  1.0
  C  C291  1  0.222200  0.093320  0.907980  1.0
  C  C292  1  0.565520  0.407980  0.406680  1.0
  C  C293  1  0.026500  0.407980  0.593320  1.0
  C  C294  1  0.027800  0.592020  0.406680  1.0
  C  C295  1  0.684480  0.093320  0.092020  1.0
  C  C296  1  0.869820  0.906680  0.907980  1.0
  C  C297  1  0.586880  0.299930  0.311510  1.0
  C  C298  1  0.136810  0.811510  0.200070  1.0
  C  C299  1  0.198320  0.700070  0.688490  1.0
  C  C300  1  0.148390  0.188490  0.799930  1.0
  C  C301  1  0.663120  0.188490  0.200070  1.0
  C  C302  1  0.051680  0.811510  0.799930  1.0
  C  C303  1  0.101610  0.700070  0.311510  1.0
  C  C304  1  0.113190  0.299930  0.688490  1.0
  C  C305  1  0.646510  0.282730  0.281890  1.0
  C  C306  1  0.179240  0.781890  0.217270  1.0
  C  C307  1  0.211130  0.717270  0.718110  1.0
  C  C308  1  0.178400  0.218110  0.782730  1.0
  C  C309  1  0.603490  0.218110  0.217270  1.0
  C  C310  1  0.038870  0.781890  0.782730  1.0
  C  C311  1  0.071600  0.717270  0.281890  1.0
  C  C312  1  0.070760  0.282730  0.718110  1.0
  C  C313  1  0.684190  0.231230  0.282590  1.0
  C  C314  1  0.165420  0.782590  0.268770  1.0
  C  C315  1  0.198010  0.768770  0.717410  1.0
  C  C316  1  0.216780  0.217410  0.731230  1.0
  C  C317  1  0.565810  0.217410  0.268770  1.0
  C  C318  1  0.051990  0.782590  0.731230  1.0
  C  C319  1  0.033220  0.768770  0.282590  1.0
  C  C320  1  0.084580  0.231230  0.717410  1.0
  C  C321  1  0.732450  0.214590  0.256430  1.0
  C  C322  1  0.197040  0.756430  0.285410  1.0
  C  C323  1  0.203470  0.785410  0.743570  1.0
  C  C324  1  0.238880  0.243570  0.714590  1.0
  C  C325  1  0.517550  0.243570  0.285410  1.0
  C  C326  1  0.046530  0.756430  0.714590  1.0
  C  C327  1  0.011120  0.785410  0.256430  1.0
  C  C328  1  0.052960  0.214590  0.743570  1.0
  C  C329  1  0.795740  0.311880  0.297780  1.0
  C  C330  1  0.357620  0.797780  0.188120  1.0
  C  C331  1  0.405400  0.688120  0.702220  1.0
  C  C332  1  0.343520  0.202220  0.811880  1.0
  C  C333  1  0.454260  0.202220  0.188120  1.0
  C  C334  1  0.844600  0.797780  0.811880  1.0
  C  C335  1  0.906480  0.688120  0.297780  1.0
  C  C336  1  0.892380  0.311880  0.702220  1.0
  C  C337  1  0.795290  0.304740  0.255280  1.0
  C  C338  1  0.350030  0.755280  0.195260  1.0
  C  C339  1  0.355310  0.695260  0.744720  1.0
  C  C340  1  0.300570  0.244720  0.804740  1.0
  C  C341  1  0.454710  0.244720  0.195260  1.0
  C  C342  1  0.894690  0.755280  0.804740  1.0
  C  C343  1  0.949430  0.695260  0.255280  1.0
  C  C344  1  0.899970  0.304740  0.744720  1.0
  C  C345  1  0.848280  0.282200  0.217140  1.0
  C  C346  1  0.380480  0.717140  0.217800  1.0
  C  C347  1  0.347620  0.717800  0.782860  1.0
  C  C348  1  0.315420  0.282860  0.782200  1.0
  C  C349  1  0.401720  0.282860  0.217800  1.0
  C  C350  1  0.902380  0.717140  0.782200  1.0
  C  C351  1  0.934580  0.717800  0.217140  1.0
  C  C352  1  0.869520  0.282200  0.782860  1.0
  C  C353  1  0.852520  0.276630  0.174530  1.0
  C  C354  1  0.379150  0.674530  0.223370  1.0
  C  C355  1  0.303680  0.723370  0.825470  1.0
  C  C356  1  0.277050  0.325470  0.776630  1.0
  C  C357  1  0.397480  0.325470  0.223370  1.0
  C  C358  1  0.946320  0.674530  0.776630  1.0
  C  C359  1  0.972950  0.723370  0.174530  1.0
  C  C360  1  0.870850  0.276630  0.825470  1.0
  C  C361  1  0.905420  0.263030  0.135730  1.0
  C  C362  1  0.418450  0.635730  0.236970  1.0
  C  C363  1  0.304180  0.736970  0.864270  1.0
  C  C364  1  0.291150  0.364270  0.763030  1.0
  C  C365  1  0.344580  0.364270  0.236970  1.0
  C  C366  1  0.945820  0.635730  0.763030  1.0
  C  C367  1  0.958850  0.736970  0.135730  1.0
  C  C368  1  0.831550  0.263030  0.864270  1.0
  C  C369  1  0.913770  0.238640  0.097600  1.0
  C  C370  1  0.402410  0.597600  0.261360  1.0
  C  C371  1  0.250010  0.761360  0.902400  1.0
  C  C372  1  0.261370  0.402400  0.738640  1.0
  C  C373  1  0.336230  0.402400  0.261360  1.0
  C  C374  1  0.999990  0.597600  0.738640  1.0
  C  C375  1  0.988630  0.761360  0.097600  1.0
  C  C376  1  0.847590  0.238640  0.902400  1.0
  C  C377  1  0.958580  0.220440  0.064400  1.0
  C  C378  1  0.429020  0.564400  0.279560  1.0
  C  C379  1  0.243420  0.779560  0.935600  1.0
  C  C380  1  0.272980  0.435600  0.720440  1.0
  C  C381  1  0.291420  0.435600  0.279560  1.0
  C  C382  1  0.006580  0.564400  0.720440  1.0
  C  C383  1  0.977020  0.779560  0.064400  1.0
  C  C384  1  0.820980  0.220440  0.935600  1.0
  C  C385  1  0.999930  0.235310  0.093430  1.0
  C  C386  1  0.485240  0.593430  0.264690  1.0
  C  C387  1  0.328670  0.764690  0.906570  1.0
  C  C388  1  0.343360  0.406570  0.735310  1.0
  C  C389  1  0.250070  0.406570  0.264690  1.0
  C  C390  1  0.921330  0.593430  0.735310  1.0
  C  C391  1  0.906640  0.764690  0.093430  1.0
  C  C392  1  0.764760  0.235310  0.906570  1.0
  C  C393  1  0.949700  0.254070  0.134930  1.0
  C  C394  1  0.453770  0.634930  0.245930  1.0
  C  C395  1  0.338700  0.745930  0.865070  1.0
  C  C396  1  0.334630  0.365070  0.754070  1.0
  C  C397  1  0.300300  0.365070  0.245930  1.0
  C  C398  1  0.911300  0.634930  0.754070  1.0
  C  C399  1  0.915370  0.745930  0.134930  1.0
  C  C400  1  0.796230  0.254070  0.865070  1.0
  C  C401  1  0.693500  0.429110  0.148950  1.0
  C  C402  1  0.372610  0.648950  0.070890  1.0
  C  C403  1  0.271560  0.570890  0.851050  1.0
  C  C404  1  0.092450  0.351050  0.929110  1.0
  C  C405  1  0.556500  0.351050  0.070890  1.0
  C  C406  1  0.978440  0.648950  0.929110  1.0
  C  C407  1  0.157550  0.570890  0.148950  1.0
  C  C408  1  0.877390  0.429110  0.851050  1.0
  C  C409  1  0.705470  0.380200  0.159180  1.0
  C  C410  1  0.335670  0.659180  0.119800  1.0
  C  C411  1  0.244850  0.619800  0.840820  1.0
  C  C412  1  0.114650  0.340820  0.880200  1.0
  C  C413  1  0.544530  0.340820  0.119800  1.0
  C  C414  1  0.005150  0.659180  0.880200  1.0
  C  C415  1  0.135350  0.619800  0.159180  1.0
  C  C416  1  0.914330  0.380200  0.840820  1.0
  C  C417  1  0.705290  0.350650  0.129590  1.0
  C  C418  1  0.305940  0.629590  0.149350  1.0
  C  C419  1  0.185530  0.649350  0.870410  1.0
  C  C420  1  0.084880  0.370410  0.850650  1.0
  C  C421  1  0.544710  0.370410  0.149350  1.0
  C  C422  1  0.064470  0.629590  0.850650  1.0
  C  C423  1  0.165120  0.649350  0.129590  1.0
  C  C424  1  0.944060  0.350650  0.870410  1.0
  C  C425  1  0.715160  0.306320  0.134080  1.0
  C  C426  1  0.271480  0.634080  0.193680  1.0
  C  C427  1  0.155560  0.693680  0.865920  1.0
  C  C428  1  0.099240  0.365920  0.806320  1.0
  C  C429  1  0.534840  0.365920  0.193680  1.0
  C  C430  1  0.094440  0.634080  0.806320  1.0
  C  C431  1  0.150760  0.693680  0.134080  1.0
  C  C432  1  0.978520  0.306320  0.865920  1.0
  Cl  Cl433  1  0.918970  0.000000  0.162060  1.0
  Cl  Cl434  1  0.168970  0.662060  0.500000  1.0
  Cl  Cl435  1  0.081030  0.000000  0.837940  1.0
  Cl  Cl436  1  0.331030  0.337940  0.500000  1.0
  Cl  Cl437  1  0.818610  0.000000  0.362780  1.0
  Cl  Cl438  1  0.068610  0.862780  0.500000  1.0
  Cl  Cl439  1  0.181390  0.000000  0.637220  1.0
  Cl  Cl440  1  0.431390  0.137220  0.500000  1.0
  Cl  Cl441  1  0.107310  0.255090  0.007870  1.0
  Cl  Cl442  1  0.612400  0.507870  0.244910  1.0
  Cl  Cl443  1  0.370270  0.744910  0.992130  1.0
  Cl  Cl444  1  0.365180  0.492130  0.755090  1.0
  Cl  Cl445  1  0.142690  0.492130  0.244910  1.0
  Cl  Cl446  1  0.879730  0.507870  0.755090  1.0
  Cl  Cl447  1  0.884820  0.744910  0.007870  1.0
  Cl  Cl448  1  0.637600  0.255090  0.992130  1.0
  Cl  Cl449  1  0.047400  0.118770  0.004450  1.0
  Cl  Cl450  1  0.416170  0.504450  0.381230  1.0
  Cl  Cl451  1  0.170620  0.881230  0.995550  1.0
  Cl  Cl452  1  0.301850  0.495550  0.618770  1.0
  Cl  Cl453  1  0.202600  0.495550  0.381230  1.0
  Cl  Cl454  1  0.079380  0.504450  0.618770  1.0
  Cl  Cl455  1  0.948150  0.881230  0.004450  1.0
  Cl  Cl456  1  0.833830  0.118770  0.995550  1.0
  Cr  Cr457  1  0.179020  0.994350  0.208390  1.0
  Cr  Cr458  1  0.423370  0.708390  0.505650  1.0
  Cr  Cr459  1  0.381760  0.005650  0.791610  1.0
  Cr  Cr460  1  0.637410  0.291610  0.494350  1.0
  Cr  Cr461  1  0.070980  0.291610  0.505650  1.0
  Cr  Cr462  1  0.868240  0.708390  0.494350  1.0
  Cr  Cr463  1  0.612590  0.005650  0.208390  1.0
  Cr  Cr464  1  0.826630  0.994350  0.791610  1.0
  Cr  Cr465  1  0.739620  0.298460  0.212380  1.0
  Cr  Cr466  1  0.288080  0.712380  0.201540  1.0
  Cr  Cr467  1  0.250460  0.701540  0.787620  1.0
  Cr  Cr468  1  0.202000  0.287620  0.798460  1.0
  Cr  Cr469  1  0.510380  0.287620  0.201540  1.0
  Cr  Cr470  1  0.999540  0.712380  0.798460  1.0
  Cr  Cr471  1  0.048000  0.701540  0.212380  1.0
  Cr  Cr472  1  0.961920  0.298460  0.787620  1.0
  Cu  Cu473  1  0.872190  0.000000  0.255620  1.0
  Cu  Cu474  1  0.122190  0.755620  0.500000  1.0
  Cu  Cu475  1  0.127810  0.000000  0.744380  1.0
  Cu  Cu476  1  0.377810  0.244380  0.500000  1.0
  Cu  Cu477  1  0.078010  0.190280  0.005000  1.0
  Cu  Cu478  1  0.518290  0.505000  0.309720  1.0
  Cu  Cu479  1  0.273290  0.809720  0.995000  1.0
  Cu  Cu480  1  0.333010  0.495000  0.690280  1.0
  Cu  Cu481  1  0.171990  0.495000  0.309720  1.0
  Cu  Cu482  1  0.976710  0.505000  0.690280  1.0
  Cu  Cu483  1  0.916990  0.809720  0.005000  1.0
  Cu  Cu484  1  0.731710  0.190280  0.995000  1.0
  H  H485  1  0.184700  0.160500  0.016100  1.0
  H  H486  1  0.595200  0.516100  0.339500  1.0
  H  H487  1  0.361300  0.839500  0.983900  1.0
  H  H488  1  0.450800  0.483900  0.660500  1.0
  H  H489  1  0.065300  0.483900  0.339500  1.0
  H  H490  1  0.888700  0.516100  0.660500  1.0
  H  H491  1  0.799200  0.839500  0.016100  1.0
  H  H492  1  0.654800  0.160500  0.983900  1.0
  H  H493  1  0.224100  0.111500  0.064100  1.0
  H  H494  1  0.585600  0.564100  0.388500  1.0
  H  H495  1  0.399700  0.888500  0.935900  1.0
  H  H496  1  0.538200  0.435900  0.611500  1.0
  H  H497  1  0.025900  0.435900  0.388500  1.0
  H  H498  1  0.850300  0.564100  0.611500  1.0
  H  H499  1  0.711800  0.888500  0.064100  1.0
  H  H500  1  0.664400  0.111500  0.935900  1.0
  H  H501  1  0.098700  0.076500  0.129500  1.0
  H  H502  1  0.425200  0.629500  0.423500  1.0
  H  H503  1  0.304700  0.923500  0.870500  1.0
  H  H504  1  0.478200  0.370500  0.576500  1.0
  H  H505  1  0.151300  0.370500  0.423500  1.0
  H  H506  1  0.945300  0.629500  0.576500  1.0
  H  H507  1  0.771800  0.923500  0.129500  1.0
  H  H508  1  0.824800  0.076500  0.870500  1.0
  H  H509  1  0.059200  0.125500  0.081500  1.0
  H  H510  1  0.434700  0.581500  0.374500  1.0
  H  H511  1  0.266200  0.874500  0.918500  1.0
  H  H512  1  0.390700  0.418500  0.625500  1.0
  H  H513  1  0.190800  0.418500  0.374500  1.0
  H  H514  1  0.983800  0.581500  0.625500  1.0
  H  H515  1  0.859300  0.874500  0.081500  1.0
  H  H516  1  0.815300  0.125500  0.918500  1.0
  H  H517  1  0.991300  0.971200  0.199800  1.0
  H  H518  1  0.212500  0.699800  0.528800  1.0
  H  H519  1  0.162300  0.028800  0.800200  1.0
  H  H520  1  0.441100  0.300200  0.471200  1.0
  H  H521  1  0.258700  0.300200  0.528800  1.0
  H  H522  1  0.087700  0.699800  0.471200  1.0
  H  H523  1  0.808900  0.028800  0.199800  1.0
  H  H524  1  0.037500  0.971200  0.800200  1.0
  H  H525  1  0.062700  0.980400  0.197400  1.0
  H  H526  1  0.293100  0.697400  0.519600  1.0
  H  H527  1  0.240500  0.019600  0.802600  1.0
  H  H528  1  0.510100  0.302600  0.480400  1.0
  H  H529  1  0.187300  0.302600  0.519600  1.0
  H  H530  1  0.009500  0.697400  0.480400  1.0
  H  H531  1  0.739900  0.019600  0.197400  1.0
  H  H532  1  0.956900  0.980400  0.802600  1.0
  H  H533  1  0.960500  0.061400  0.309800  1.0
  H  H534  1  0.271900  0.809800  0.438600  1.0
  H  H535  1  0.331700  0.938600  0.690200  1.0
  H  H536  1  0.520300  0.190200  0.561400  1.0
  H  H537  1  0.289500  0.190200  0.438600  1.0
  H  H538  1  0.918300  0.809800  0.561400  1.0
  H  H539  1  0.729700  0.938600  0.309800  1.0
  H  H540  1  0.978100  0.061400  0.690200  1.0
  H  H541  1  0.889000  0.052200  0.312400  1.0
  H  H542  1  0.191200  0.812400  0.447800  1.0
  H  H543  1  0.253600  0.947800  0.687600  1.0
  H  H544  1  0.451400  0.187600  0.552200  1.0
  H  H545  1  0.361000  0.187600  0.447800  1.0
  H  H546  1  0.996400  0.812400  0.552200  1.0
  H  H547  1  0.798600  0.947800  0.312400  1.0
  H  H548  1  0.058800  0.052200  0.687600  1.0
  H  H549  1  0.758300  0.072400  0.316200  1.0
  H  H550  1  0.080700  0.816200  0.427600  1.0
  H  H551  1  0.146900  0.927600  0.683800  1.0
  H  H552  1  0.324500  0.183800  0.572400  1.0
  H  H553  1  0.491700  0.183800  0.427600  1.0
  H  H554  1  0.103100  0.816200  0.572400  1.0
  H  H555  1  0.925500  0.927600  0.316200  1.0
  H  H556  1  0.169300  0.072400  0.683800  1.0
  H  H557  1  0.709100  0.151700  0.315100  1.0
  H  H558  1  0.110800  0.815100  0.348300  1.0
  H  H559  1  0.175900  0.848300  0.684900  1.0
  H  H560  1  0.274200  0.184900  0.651700  1.0
  H  H561  1  0.540900  0.184900  0.348300  1.0
  H  H562  1  0.074100  0.815100  0.651700  1.0
  H  H563  1  0.975800  0.848300  0.315100  1.0
  H  H564  1  0.139200  0.151700  0.684900  1.0
  H  H565  1  0.834300  0.160400  0.199600  1.0
  H  H566  1  0.244700  0.699600  0.339600  1.0
  H  H567  1  0.194300  0.839600  0.800400  1.0
  H  H568  1  0.283900  0.300400  0.660400  1.0
  H  H569  1  0.415700  0.300400  0.339600  1.0
  H  H570  1  0.055700  0.699600  0.660400  1.0
  H  H571  1  0.966100  0.839600  0.199600  1.0
  H  H572  1  0.005300  0.160400  0.800400  1.0
  H  H573  1  0.883400  0.081000  0.200800  1.0
  H  H574  1  0.214400  0.700800  0.419000  1.0
  H  H575  1  0.165200  0.919000  0.799200  1.0
  H  H576  1  0.334200  0.299200  0.581000  1.0
  H  H577  1  0.366600  0.299200  0.419000  1.0
  H  H578  1  0.084800  0.700800  0.581000  1.0
  H  H579  1  0.915800  0.919000  0.200800  1.0
  H  H580  1  0.035600  0.081000  0.799200  1.0
  H  H581  1  0.771800  0.175400  0.067800  1.0
  H  H582  1  0.197200  0.567800  0.324600  1.0
  H  H583  1  0.015000  0.824600  0.932200  1.0
  H  H584  1  0.089600  0.432200  0.675400  1.0
  H  H585  1  0.478200  0.432200  0.324600  1.0
  H  H586  1  0.235000  0.567800  0.675400  1.0
  H  H587  1  0.160400  0.824600  0.067800  1.0
  H  H588  1  0.052800  0.175400  0.932200  1.0
  H  H589  1  0.763200  0.219500  0.119900  1.0
  H  H590  1  0.232700  0.619900  0.280500  1.0
  H  H591  1  0.102600  0.780500  0.880100  1.0
  H  H592  1  0.133100  0.380100  0.719500  1.0
  H  H593  1  0.486800  0.380100  0.280500  1.0
  H  H594  1  0.147400  0.619900  0.719500  1.0
  H  H595  1  0.116900  0.780500  0.119900  1.0
  H  H596  1  0.017300  0.219500  0.880100  1.0
  H  H597  1  0.676700  0.334900  0.068700  1.0
  H  H598  1  0.261600  0.568700  0.165100  1.0
  H  H599  1  0.080300  0.665100  0.931300  1.0
  H  H600  1  0.995400  0.431300  0.834900  1.0
  H  H601  1  0.573300  0.431300  0.165100  1.0
  H  H602  1  0.169700  0.568700  0.834900  1.0
  H  H603  1  0.254600  0.665100  0.068700  1.0
  H  H604  1  0.988400  0.334900  0.931300  1.0
  H  H605  1  0.685400  0.290700  0.016700  1.0
  H  H606  1  0.226100  0.516700  0.209300  1.0
  H  H607  1  0.992800  0.709300  0.983300  1.0
  H  H608  1  0.952100  0.483300  0.790700  1.0
  H  H609  1  0.564600  0.483300  0.209300  1.0
  H  H610  1  0.257200  0.516700  0.790700  1.0
  H  H611  1  0.297900  0.709300  0.016700  1.0
  H  H612  1  0.023900  0.290700  0.983300  1.0
  H  H613  1  0.324000  0.040300  0.135900  1.0
  H  H614  1  0.614300  0.635900  0.459700  1.0
  H  H615  1  0.500200  0.959700  0.864100  1.0
  H  H616  1  0.709900  0.364100  0.540300  1.0
  H  H617  1  0.926000  0.364100  0.459700  1.0
  H  H618  1  0.749800  0.635900  0.540300  1.0
  H  H619  1  0.540100  0.959700  0.135900  1.0
  H  H620  1  0.635700  0.040300  0.864100  1.0
  H  H621  1  0.335900  0.013900  0.094100  1.0
  H  H622  1  0.599800  0.594100  0.486100  1.0
  H  H623  1  0.443900  0.986100  0.905900  1.0
  H  H624  1  0.680000  0.405900  0.513900  1.0
  H  H625  1  0.914100  0.405900  0.486100  1.0
  H  H626  1  0.806100  0.594100  0.513900  1.0
  H  H627  1  0.570000  0.986100  0.094100  1.0
  H  H628  1  0.650200  0.013900  0.905900  1.0
  H  H629  1  0.350200  0.985600  0.135400  1.0
  H  H630  1  0.585800  0.635400  0.514400  1.0
  H  H631  1  0.471200  0.014400  0.864600  1.0
  H  H632  1  0.735600  0.364600  0.485600  1.0
  H  H633  1  0.899800  0.364600  0.514400  1.0
  H  H634  1  0.778800  0.635400  0.485600  1.0
  H  H635  1  0.514400  0.014400  0.135400  1.0
  H  H636  1  0.664200  0.985600  0.864600  1.0
  H  H637  1  0.261300  0.060100  0.095700  1.0
  H  H638  1  0.571400  0.595700  0.439900  1.0
  H  H639  1  0.417100  0.939900  0.904300  1.0
  H  H640  1  0.607000  0.404300  0.560100  1.0
  H  H641  1  0.988700  0.404300  0.439900  1.0
  H  H642  1  0.832900  0.595700  0.560100  1.0
  H  H643  1  0.643000  0.939900  0.095700  1.0
  H  H644  1  0.678600  0.060100  0.904300  1.0
  H  H645  1  0.079500  0.137300  0.272300  1.0
  H  H646  1  0.466800  0.772300  0.362700  1.0
  H  H647  1  0.489100  0.862700  0.727700  1.0
  H  H648  1  0.601800  0.227700  0.637300  1.0
  H  H649  1  0.170500  0.227700  0.362700  1.0
  H  H650  1  0.760900  0.772300  0.637300  1.0
  H  H651  1  0.648200  0.862700  0.272300  1.0
  H  H652  1  0.783200  0.137300  0.727700  1.0
  H  H653  1  0.103200  0.106700  0.308100  1.0
  H  H654  1  0.459900  0.808100  0.393300  1.0
  H  H655  1  0.518000  0.893300  0.691900  1.0
  H  H656  1  0.661300  0.191900  0.606700  1.0
  H  H657  1  0.146800  0.191900  0.393300  1.0
  H  H658  1  0.732000  0.808100  0.606700  1.0
  H  H659  1  0.588700  0.893300  0.308100  1.0
  H  H660  1  0.790100  0.106700  0.691900  1.0
  H  H661  1  0.042900  0.119000  0.317800  1.0
  H  H662  1  0.411900  0.817800  0.381000  1.0
  H  H663  1  0.479700  0.881000  0.682200  1.0
  H  H664  1  0.610700  0.182200  0.619000  1.0
  H  H665  1  0.207100  0.182200  0.381000  1.0
  H  H666  1  0.770300  0.817800  0.619000  1.0
  H  H667  1  0.639300  0.881000  0.317800  1.0
  H  H668  1  0.838100  0.119000  0.682200  1.0
  H  H669  1  0.017800  0.081000  0.297200  1.0
  H  H670  1  0.348800  0.797200  0.419000  1.0
  H  H671  1  0.396000  0.919000  0.702800  1.0
  H  H672  1  0.565000  0.202800  0.581000  1.0
  H  H673  1  0.232200  0.202800  0.419000  1.0
  H  H674  1  0.854000  0.797200  0.581000  1.0
  H  H675  1  0.685000  0.919000  0.297200  1.0
  H  H676  1  0.901200  0.081000  0.702800  1.0
  H  H677  1  0.249700  0.871800  0.289000  1.0
  H  H678  1  0.371500  0.789000  0.628200  1.0
  H  H679  1  0.410500  0.128200  0.711000  1.0
  H  H680  1  0.788700  0.211000  0.371800  1.0
  H  H681  1  0.000300  0.211000  0.628200  1.0
  H  H682  1  0.839500  0.789000  0.371800  1.0
  H  H683  1  0.461300  0.128200  0.289000  1.0
  H  H684  1  0.878500  0.871800  0.711000  1.0
  H  H685  1  0.225200  0.840900  0.284300  1.0
  H  H686  1  0.316100  0.784300  0.659100  1.0
  H  H687  1  0.350400  0.159100  0.715700  1.0
  H  H688  1  0.759500  0.215700  0.340900  1.0
  H  H689  1  0.024800  0.215700  0.659100  1.0
  H  H690  1  0.899600  0.784300  0.340900  1.0
  H  H691  1  0.490500  0.159100  0.284300  1.0
  H  H692  1  0.933900  0.840900  0.715700  1.0
  H  H693  1  0.186300  0.886100  0.315100  1.0
  H  H694  1  0.322400  0.815100  0.613900  1.0
  H  H695  1  0.387500  0.113900  0.684900  1.0
  H  H696  1  0.751400  0.184900  0.386100  1.0
  H  H697  1  0.063700  0.184900  0.613900  1.0
  H  H698  1  0.862500  0.815100  0.386100  1.0
  H  H699  1  0.498600  0.113900  0.315100  1.0
  H  H700  1  0.927600  0.886100  0.684900  1.0
  H  H701  1  0.214200  0.855600  0.209600  1.0
  H  H702  1  0.319800  0.709600  0.644400  1.0
  H  H703  1  0.279400  0.144400  0.790400  1.0
  H  H704  1  0.673800  0.290400  0.355600  1.0
  H  H705  1  0.035800  0.290400  0.644400  1.0
  H  H706  1  0.970600  0.709600  0.355600  1.0
  H  H707  1  0.576200  0.144400  0.209600  1.0
  H  H708  1  0.930200  0.855600  0.790400  1.0
  H  H709  1  0.278500  0.811600  0.140000  1.0
  H  H710  1  0.340100  0.640000  0.688400  1.0
  H  H711  1  0.230100  0.188400  0.860000  1.0
  H  H712  1  0.668500  0.360000  0.311600  1.0
  H  H713  1  0.971500  0.360000  0.688400  1.0
  H  H714  1  0.019900  0.640000  0.311600  1.0
  H  H715  1  0.581500  0.188400  0.140000  1.0
  H  H716  1  0.909900  0.811600  0.860000  1.0
  H  H717  1  0.287900  0.783100  0.078700  1.0
  H  H718  1  0.321000  0.578700  0.716900  1.0
  H  H719  1  0.149700  0.216900  0.921300  1.0
  H  H720  1  0.616600  0.421300  0.283100  1.0
  H  H721  1  0.962100  0.421300  0.716900  1.0
  H  H722  1  0.100300  0.578700  0.283100  1.0
  H  H723  1  0.633400  0.216900  0.078700  1.0
  H  H724  1  0.929000  0.783100  0.921300  1.0
  H  H725  1  0.219500  0.898500  0.032100  1.0
  H  H726  1  0.368000  0.532100  0.601500  1.0
  H  H727  1  0.150100  0.101500  0.967900  1.0
  H  H728  1  0.501600  0.467900  0.398500  1.0
  H  H729  1  0.030500  0.467900  0.601500  1.0
  H  H730  1  0.099900  0.532100  0.398500  1.0
  H  H731  1  0.748400  0.101500  0.032100  1.0
  H  H732  1  0.882000  0.898500  0.967900  1.0
  H  H733  1  0.208500  0.939100  0.092100  1.0
  H  H734  1  0.397600  0.592100  0.560900  1.0
  H  H735  1  0.239700  0.060900  0.907900  1.0
  H  H736  1  0.550600  0.407900  0.439100  1.0
  H  H737  1  0.041500  0.407900  0.560900  1.0
  H  H738  1  0.010300  0.592100  0.439100  1.0
  H  H739  1  0.699400  0.060900  0.092100  1.0
  H  H740  1  0.852400  0.939100  0.907900  1.0
  H  H741  1  0.580000  0.299300  0.343700  1.0
  H  H742  1  0.129300  0.843700  0.200700  1.0
  H  H743  1  0.223000  0.700700  0.656300  1.0
  H  H744  1  0.173700  0.156300  0.799300  1.0
  H  H745  1  0.670000  0.156300  0.200700  1.0
  H  H746  1  0.027000  0.843700  0.799300  1.0
  H  H747  1  0.076300  0.700700  0.343700  1.0
  H  H748  1  0.120700  0.299300  0.656300  1.0
  H  H749  1  0.573400  0.280300  0.307500  1.0
  H  H750  1  0.103700  0.807500  0.219700  1.0
  H  H751  1  0.161200  0.719700  0.692500  1.0
  H  H752  1  0.130900  0.192500  0.780300  1.0
  H  H753  1  0.676600  0.192500  0.219700  1.0
  H  H754  1  0.088800  0.807500  0.780300  1.0
  H  H755  1  0.119100  0.719700  0.307500  1.0
  H  H756  1  0.146300  0.280300  0.692500  1.0
  H  H757  1  0.568400  0.331300  0.302700  1.0
  H  H758  1  0.149700  0.802700  0.168700  1.0
  H  H759  1  0.202400  0.668700  0.697300  1.0
  H  H760  1  0.121100  0.197300  0.831300  1.0
  H  H761  1  0.681600  0.197300  0.168700  1.0
  H  H762  1  0.047600  0.802700  0.831300  1.0
  H  H763  1  0.128900  0.668700  0.302700  1.0
  H  H764  1  0.100300  0.331300  0.697300  1.0
  H  H765  1  0.669400  0.211700  0.304100  1.0
  H  H766  1  0.131100  0.804100  0.288300  1.0
  H  H767  1  0.185200  0.788300  0.695900  1.0
  H  H768  1  0.223500  0.195900  0.711700  1.0
  H  H769  1  0.580600  0.195900  0.288300  1.0
  H  H770  1  0.064800  0.804100  0.711700  1.0
  H  H771  1  0.026500  0.788300  0.304100  1.0
  H  H772  1  0.118900  0.211700  0.695900  1.0
  H  H773  1  0.763200  0.311800  0.324200  1.0
  H  H774  1  0.325000  0.824200  0.188200  1.0
  H  H775  1  0.399200  0.688200  0.675800  1.0
  H  H776  1  0.337400  0.175800  0.811800  1.0
  H  H777  1  0.486800  0.175800  0.188200  1.0
  H  H778  1  0.850800  0.824200  0.811800  1.0
  H  H779  1  0.912600  0.688200  0.324200  1.0
  H  H780  1  0.925000  0.311800  0.675800  1.0
  H  H781  1  0.796900  0.341300  0.296100  1.0
  H  H782  1  0.388200  0.796100  0.158700  1.0
  H  H783  1  0.434300  0.658700  0.703900  1.0
  H  H784  1  0.343000  0.203900  0.841300  1.0
  H  H785  1  0.453100  0.203900  0.158700  1.0
  H  H786  1  0.815700  0.796100  0.841300  1.0
  H  H787  1  0.907000  0.658700  0.296100  1.0
  H  H788  1  0.861800  0.341300  0.703900  1.0
  H  H789  1  0.827600  0.287100  0.301100  1.0
  H  H790  1  0.364700  0.801100  0.212900  1.0
  H  H791  1  0.415800  0.712900  0.698900  1.0
  H  H792  1  0.378700  0.198900  0.787100  1.0
  H  H793  1  0.422400  0.198900  0.212900  1.0
  H  H794  1  0.834200  0.801100  0.787100  1.0
  H  H795  1  0.871300  0.712900  0.301100  1.0
  H  H796  1  0.885300  0.287100  0.698900  1.0
  H  H797  1  0.880100  0.271300  0.221500  1.0
  H  H798  1  0.401400  0.721500  0.228700  1.0
  H  H799  1  0.372900  0.728700  0.778500  1.0
  H  H800  1  0.351600  0.278500  0.771300  1.0
  H  H801  1  0.369900  0.278500  0.228700  1.0
  H  H802  1  0.877100  0.721500  0.771300  1.0
  H  H803  1  0.898400  0.728700  0.221500  1.0
  H  H804  1  0.848600  0.271300  0.778500  1.0
  H  H805  1  0.883600  0.236900  0.098700  1.0
  H  H806  1  0.370500  0.598700  0.263100  1.0
  H  H807  1  0.219200  0.763100  0.901300  1.0
  H  H808  1  0.232300  0.401300  0.736900  1.0
  H  H809  1  0.366400  0.401300  0.263100  1.0
  H  H810  1  0.030800  0.598700  0.736900  1.0
  H  H811  1  0.017700  0.763100  0.098700  1.0
  H  H812  1  0.879500  0.236900  0.901300  1.0
  H  H813  1  0.960700  0.205600  0.041600  1.0
  H  H814  1  0.416300  0.541600  0.294400  1.0
  H  H815  1  0.207900  0.794400  0.958400  1.0
  H  H816  1  0.252300  0.458400  0.705600  1.0
  H  H817  1  0.289300  0.458400  0.294400  1.0
  H  H818  1  0.042100  0.541600  0.705600  1.0
  H  H819  1  0.997700  0.794400  0.041600  1.0
  H  H820  1  0.833700  0.205600  0.958400  1.0
  H  H821  1  0.031600  0.234100  0.092300  1.0
  H  H822  1  0.515700  0.592300  0.265900  1.0
  H  H823  1  0.358000  0.765900  0.907700  1.0
  H  H824  1  0.373900  0.407700  0.734100  1.0
  H  H825  1  0.218400  0.407700  0.265900  1.0
  H  H826  1  0.892000  0.592300  0.734100  1.0
  H  H827  1  0.876100  0.765900  0.092300  1.0
  H  H828  1  0.734300  0.234100  0.907700  1.0
  H  H829  1  0.950900  0.259500  0.161300  1.0
  H  H830  1  0.460400  0.661300  0.240500  1.0
  H  H831  1  0.371700  0.740500  0.838700  1.0
  H  H832  1  0.362200  0.338700  0.759500  1.0
  H  H833  1  0.299100  0.338700  0.240500  1.0
  H  H834  1  0.878300  0.661300  0.759500  1.0
  H  H835  1  0.887800  0.740500  0.161300  1.0
  H  H836  1  0.789600  0.259500  0.838700  1.0
  H  H837  1  0.682800  0.444600  0.176400  1.0
  H  H838  1  0.377400  0.676400  0.055400  1.0
  H  H839  1  0.303800  0.555400  0.823600  1.0
  H  H840  1  0.109200  0.323600  0.944600  1.0
  H  H841  1  0.567200  0.323600  0.055400  1.0
  H  H842  1  0.946200  0.676400  0.944600  1.0
  H  H843  1  0.140800  0.555400  0.176400  1.0
  H  H844  1  0.872600  0.444600  0.823600  1.0
  H  H845  1  0.664100  0.443200  0.139400  1.0
  H  H846  1  0.357300  0.639400  0.056800  1.0
  H  H847  1  0.246700  0.556800  0.860600  1.0
  H  H848  1  0.053500  0.360600  0.943200  1.0
  H  H849  1  0.585900  0.360600  0.056800  1.0
  H  H850  1  0.003300  0.639400  0.943200  1.0
  H  H851  1  0.196500  0.556800  0.139400  1.0
  H  H852  1  0.892700  0.443200  0.860600  1.0
  H  H853  1  0.725600  0.431900  0.124300  1.0
  H  H854  1  0.407500  0.624300  0.068100  1.0
  H  H855  1  0.281800  0.568100  0.875700  1.0
  H  H856  1  0.099900  0.375700  0.931900  1.0
  H  H857  1  0.524400  0.375700  0.068100  1.0
  H  H858  1  0.968200  0.624300  0.931900  1.0
  H  H859  1  0.150100  0.568100  0.124300  1.0
  H  H860  1  0.842500  0.431900  0.875700  1.0
  H  H861  1  0.697000  0.365900  0.104500  1.0
  H  H862  1  0.312900  0.604500  0.134100  1.0
  H  H863  1  0.167400  0.634100  0.895500  1.0
  H  H864  1  0.051500  0.395500  0.865900  1.0
  H  H865  1  0.553000  0.395500  0.134100  1.0
  H  H866  1  0.082600  0.604500  0.865900  1.0
  H  H867  1  0.198500  0.634100  0.104500  1.0
  H  H868  1  0.937100  0.365900  0.895500  1.0
  N  N869  1  0.118230  0.147610  0.044350  1.0
  N  N870  1  0.515840  0.544350  0.352390  1.0
  N  N871  1  0.310190  0.852390  0.955650  1.0
  N  N872  1  0.412580  0.455650  0.647610  1.0
  N  N873  1  0.131770  0.455650  0.352390  1.0
  N  N874  1  0.939810  0.544350  0.647610  1.0
  N  N875  1  0.837420  0.852390  0.044350  1.0
  N  N876  1  0.734160  0.147610  0.955650  1.0
  N  N877  1  0.933460  0.010820  0.256340  1.0
  N  N878  1  0.194280  0.756340  0.489180  1.0
  N  N879  1  0.200620  0.989180  0.743660  1.0
  N  N880  1  0.439800  0.243660  0.510820  1.0
  N  N881  1  0.316540  0.243660  0.489180  1.0
  N  N882  1  0.049380  0.756340  0.510820  1.0
  N  N883  1  0.810200  0.989180  0.256340  1.0
  N  N884  1  0.055720  0.010820  0.743660  1.0
  N  N885  1  0.258090  0.840060  0.049720  1.0
  N  N886  1  0.348150  0.549720  0.659940  1.0
  N  N887  1  0.147870  0.159940  0.950280  1.0
  N  N888  1  0.557810  0.450280  0.340060  1.0
  N  N889  1  0.991910  0.450280  0.659940  1.0
  N  N890  1  0.102130  0.549720  0.340060  1.0
  N  N891  1  0.692190  0.159940  0.049720  1.0
  N  N892  1  0.901850  0.840060  0.950280  1.0
  N  N893  1  0.825480  0.069250  0.258590  1.0
  N  N894  1  0.144730  0.758590  0.430750  1.0
  N  N895  1  0.153320  0.930750  0.741410  1.0
  N  N896  1  0.334070  0.241410  0.569250  1.0
  N  N897  1  0.424520  0.241410  0.430750  1.0
  N  N898  1  0.096680  0.758590  0.569250  1.0
  N  N899  1  0.915930  0.930750  0.258590  1.0
  N  N900  1  0.105270  0.069250  0.741410  1.0
  N  N901  1  0.003660  0.220930  0.059590  1.0
  N  N902  1  0.474590  0.559590  0.279070  1.0
  N  N903  1  0.284180  0.779070  0.940410  1.0
  N  N904  1  0.313250  0.440410  0.720930  1.0
  N  N905  1  0.246340  0.440410  0.279070  1.0
  N  N906  1  0.965820  0.559590  0.720930  1.0
  N  N907  1  0.936750  0.779070  0.059590  1.0
  N  N908  1  0.775410  0.220930  0.940410  1.0
  N  N909  1  0.729400  0.228960  0.037340  1.0
  N  N910  1  0.208360  0.537340  0.271040  1.0
  N  N911  1  0.995700  0.771040  0.962660  1.0
  N  N912  1  0.016740  0.462660  0.728960  1.0
  N  N913  1  0.520600  0.462660  0.271040  1.0
  N  N914  1  0.254300  0.537340  0.728960  1.0
  N  N915  1  0.233260  0.771040  0.037340  1.0
  N  N916  1  0.041640  0.228960  0.962660  1.0
  O  O917  1  0.249230  0.994600  0.187420  1.0
  O  O918  1  0.493830  0.687420  0.505400  1.0
  O  O919  1  0.431250  0.005400  0.812580  1.0
  O  O920  1  0.686650  0.312580  0.494600  1.0
  O  O921  1  0.000770  0.312580  0.505400  1.0
  O  O922  1  0.818750  0.687420  0.494600  1.0
  O  O923  1  0.563350  0.005400  0.187420  1.0
  O  O924  1  0.756170  0.994600  0.812580  1.0
  O  O925  1  0.163930  0.041730  0.165570  1.0
  O  O926  1  0.455660  0.665570  0.458270  1.0
  O  O927  1  0.371230  0.958270  0.834430  1.0
  O  O928  1  0.579500  0.334430  0.541730  1.0
  O  O929  1  0.086070  0.334430  0.458270  1.0
  O  O930  1  0.878770  0.665570  0.541730  1.0
  O  O931  1  0.670500  0.958270  0.165570  1.0
  O  O932  1  0.794340  0.041730  0.834430  1.0
  O  O933  1  0.149500  0.038070  0.253850  1.0
  O  O934  1  0.437570  0.753850  0.461930  1.0
  O  O935  1  0.441420  0.961930  0.746150  1.0
  O  O936  1  0.653350  0.246150  0.538070  1.0
  O  O937  1  0.100500  0.246150  0.461930  1.0
  O  O938  1  0.808580  0.753850  0.538070  1.0
  O  O939  1  0.596650  0.961930  0.253850  1.0
  O  O940  1  0.812430  0.038070  0.746150  1.0
  O  O941  1  0.112980  0.991810  0.226370  1.0
  O  O942  1  0.354790  0.726370  0.508190  1.0
  O  O943  1  0.331160  0.008190  0.773630  1.0
  O  O944  1  0.589350  0.273630  0.491810  1.0
  O  O945  1  0.137020  0.273630  0.508190  1.0
  O  O946  1  0.918840  0.726370  0.491810  1.0
  O  O947  1  0.660650  0.008190  0.226370  1.0
  O  O948  1  0.895210  0.991810  0.773630  1.0
  O  O949  1  0.196720  0.941840  0.253400  1.0
  O  O950  1  0.388560  0.753400  0.558160  1.0
  O  O951  1  0.391960  0.058160  0.746600  1.0
  O  O952  1  0.700120  0.246600  0.441840  1.0
  O  O953  1  0.053280  0.246600  0.558160  1.0
  O  O954  1  0.858040  0.753400  0.441840  1.0
  O  O955  1  0.549880  0.058160  0.253400  1.0
  O  O956  1  0.861440  0.941840  0.746600  1.0
  O  O957  1  0.209160  0.948300  0.161260  1.0
  O  O958  1  0.407460  0.661260  0.551700  1.0
  O  O959  1  0.318720  0.051700  0.838740  1.0
  O  O960  1  0.620420  0.338740  0.448300  1.0
  O  O961  1  0.040840  0.338740  0.551700  1.0
  O  O962  1  0.931280  0.661260  0.448300  1.0
  O  O963  1  0.629580  0.051700  0.161260  1.0
  O  O964  1  0.842540  0.948300  0.838740  1.0
  O  O965  1  0.666490  0.310210  0.258950  1.0
  O  O966  1  0.226700  0.758950  0.189790  1.0
  O  O967  1  0.235650  0.689790  0.741050  1.0
  O  O968  1  0.175440  0.241050  0.810210  1.0
  O  O969  1  0.583510  0.241050  0.189790  1.0
  O  O970  1  0.014350  0.758950  0.810210  1.0
  O  O971  1  0.074560  0.689790  0.258950  1.0
  O  O972  1  0.023300  0.310210  0.741050  1.0
  O  O973  1  0.765010  0.232710  0.230450  1.0
  O  O974  1  0.247720  0.730450  0.267290  1.0
  O  O975  1  0.228170  0.767290  0.769550  1.0
  O  O976  1  0.245460  0.269550  0.732710  1.0
  O  O977  1  0.484990  0.269550  0.267290  1.0
  O  O978  1  0.021830  0.730450  0.732710  1.0
  O  O979  1  0.004540  0.767290  0.230450  1.0
  O  O980  1  0.002280  0.232710  0.769550  1.0
  O  O981  1  0.752940  0.312410  0.256770  1.0
  O  O982  1  0.315350  0.756770  0.187590  1.0
  O  O983  1  0.322120  0.687590  0.743230  1.0
  O  O984  1  0.259710  0.243230  0.812410  1.0
  O  O985  1  0.497060  0.243230  0.187590  1.0
  O  O986  1  0.927880  0.756770  0.812410  1.0
  O  O987  1  0.990290  0.687590  0.256770  1.0
  O  O988  1  0.934650  0.312410  0.743230  1.0
  O  O989  1  0.814080  0.283540  0.166860  1.0
  O  O990  1  0.347620  0.666860  0.216460  1.0
  O  O991  1  0.264480  0.716460  0.833140  1.0
  O  O992  1  0.230940  0.333140  0.783540  1.0
  O  O993  1  0.435920  0.333140  0.216460  1.0
  O  O994  1  0.985520  0.666860  0.783540  1.0
  O  O995  1  0.019060  0.716460  0.166860  1.0
  O  O996  1  0.902380  0.283540  0.833140  1.0
  O  O997  1  0.715960  0.362640  0.192640  1.0
  O  O998  1  0.328600  0.692640  0.137360  1.0
  O  O999  1  0.271240  0.637360  0.807360  1.0
  O  O1000  1  0.158600  0.307360  0.862640  1.0
  O  O1001  1  0.534040  0.307360  0.137360  1.0
  O  O1002  1  0.978760  0.692640  0.862640  1.0
  O  O1003  1  0.091400  0.637360  0.192640  1.0
  O  O1004  1  0.921400  0.362640  0.807360  1.0
  O  O1005  1  0.729640  0.282100  0.165320  1.0
  O  O1006  1  0.261740  0.665320  0.217900  1.0
  O  O1007  1  0.177060  0.717900  0.834680  1.0
  O  O1008  1  0.144960  0.334680  0.782100  1.0
  O  O1009  1  0.520360  0.334680  0.217900  1.0
  O  O1010  1  0.072940  0.665320  0.782100  1.0
  O  O1011  1  0.105040  0.717900  0.165320  1.0
  O  O1012  1  0.988260  0.282100  0.834680  1.0
