# generated using pymatgen
data_Cr8Co7H251C264N28Cl14O57
_symmetry_space_group_name_H-M   'P 1'
_cell_length_a   28.26500000
_cell_length_b   29.83000000
_cell_length_c   31.29000000
_cell_angle_alpha   72.02300000
_cell_angle_beta   71.09300000
_cell_angle_gamma   63.98100000
_symmetry_Int_Tables_number   1
_chemical_formula_structural   Cr8Co7H251C264N28Cl14O57
_chemical_formula_sum   'Cr16 Co14 H502 C528 N56 Cl28 O114'
_cell_volume   21994.70076972
_cell_formula_units_Z   2
loop_
 _symmetry_equiv_pos_site_id
 _symmetry_equiv_pos_as_xyz
  1  'x, y, z'
loop_
 _atom_site_type_symbol
 _atom_site_label
 _atom_site_symmetry_multiplicity
 _atom_site_fract_x
 _atom_site_fract_y
 _atom_site_fract_z
 _atom_site_occupancy
  Cr  Cr1  1  0.805210  0.888770  0.754640  1
  Cr  Cr2  1  0.194790  0.111230  0.245360  1
  Cr  Cr3  1  0.111920  0.133400  0.593950  1
  Cr  Cr4  1  0.888080  0.866600  0.406050  1
  Cr  Cr5  1  0.156660  0.526320  0.572370  1
  Cr  Cr6  1  0.843340  0.473680  0.427630  1
  Cr  Cr7  1  0.471800  0.775480  0.410720  1
  Cr  Cr8  1  0.528200  0.224520  0.589280  1
  Cr  Cr9  1  0.652550  0.584150  0.765520  1
  Cr  Cr10  1  0.347450  0.415850  0.234480  1
  Cr  Cr11  1  0.351750  0.336430  0.926270  1
  Cr  Cr12  1  0.648250  0.663570  0.073730  1
  Cr  Cr13  1  0.989770  0.697850  0.114580  1
  Cr  Cr14  1  0.010230  0.302150  0.885420  1
  Cr  Cr15  1  0.297670  0.947760  0.948830  1
  Cr  Cr16  1  0.702330  0.052240  0.051170  1
  Co  Co17  1  0.446140  0.515750  0.646560  1
  Co  Co18  1  0.553860  0.484250  0.353440  1
  Co  Co19  1  0.044630  0.586410  0.859880  1
  Co  Co20  1  0.955370  0.413590  0.140120  1
  Co  Co21  1  0.340520  0.621830  0.978160  1
  Co  Co22  1  0.659480  0.378170  0.021840  1
  Co  Co23  1  0.118880  0.848280  0.543750  1
  Co  Co24  1  0.881120  0.151720  0.456250  1
  Co  Co25  1  0.013060  0.953800  0.873300  1
  Co  Co26  1  0.986940  0.046200  0.126700  1
  Co  Co27  1  0.412010  0.885760  0.665480  1
  Co  Co28  1  0.587990  0.114240  0.334520  1
  Co  Co29  1  0.441640  0.904600  0.651180  1
  Co  Co30  1  0.558360  0.095400  0.348820  1
  H  H31  1  0.721300  0.075300  0.730500  1
  H  H32  1  0.278700  0.924700  0.269500  1
  H  H33  1  0.697000  0.045800  0.713800  1
  H  H34  1  0.303000  0.954200  0.286200  1
  H  H35  1  0.747100  0.060100  0.680800  1
  H  H36  1  0.252900  0.939900  0.319200  1
  H  H37  1  0.803500  0.031300  0.753800  1
  H  H38  1  0.196500  0.968700  0.246200  1
  H  H39  1  0.855900  0.033400  0.790000  1
  H  H40  1  0.144100  0.966600  0.210000  1
  H  H41  1  0.918900  0.031900  0.822300  1
  H  H42  1  0.081100  0.968100  0.177700  1
  H  H43  1  0.972900  0.881600  0.856300  1
  H  H44  1  0.027100  0.118400  0.143700  1
  H  H45  1  0.910400  0.882300  0.821000  1
  H  H46  1  0.089600  0.117700  0.179000  1
  H  H47  1  0.789300  0.803700  0.652100  1
  H  H48  1  0.210700  0.196300  0.347900  1
  H  H49  1  0.740300  0.857600  0.653700  1
  H  H50  1  0.259700  0.142400  0.346300  1
  H  H51  1  0.744200  0.813300  0.698700  1
  H  H52  1  0.255800  0.186700  0.301300  1
  H  H53  1  0.866400  0.823600  0.636000  1
  H  H54  1  0.133600  0.176400  0.364000  1
  H  H55  1  0.927800  0.845700  0.581800  1
  H  H56  1  0.072200  0.154300  0.418200  1
  H  H57  1  0.013900  0.843300  0.538600  1
  H  H58  1  0.986100  0.156700  0.461400  1
  H  H59  1  0.046300  0.867700  0.638700  1
  H  H60  1  0.953700  0.132300  0.361300  1
  H  H61  1  0.956900  0.878800  0.682800  1
  H  H62  1  0.043100  0.121200  0.317200  1
  H  H63  1  0.959400  0.564500  0.607600  1
  H  H64  1  0.040600  0.435500  0.392400  1
  H  H65  1  0.994600  0.522400  0.576300  1
  H  H66  1  0.005400  0.477600  0.423700  1
  H  H67  1  0.985700  0.580900  0.554600  1
  H  H68  1  0.014300  0.419100  0.445400  1
  H  H69  1  0.144000  0.552200  0.698200  1
  H  H70  1  0.856000  0.447800  0.301800  1
  H  H71  1  0.134000  0.564700  0.768700  1
  H  H72  1  0.866000  0.435300  0.231300  1
  H  H73  1  0.978800  0.581700  0.798800  1
  H  H74  1  0.021200  0.418300  0.201200  1
  H  H75  1  0.991200  0.563300  0.729900  1
  H  H76  1  0.008800  0.436700  0.270100  1
  H  H77  1  0.238900  0.568600  0.409200  1
  H  H78  1  0.761100  0.431400  0.590800  1
  H  H79  1  0.195600  0.545400  0.414000  1
  H  H80  1  0.804400  0.454600  0.586000  1
  H  H81  1  0.250100  0.509900  0.431600  1
  H  H82  1  0.749900  0.490100  0.568400  1
  H  H83  1  0.196300  0.629600  0.453900  1
  H  H84  1  0.803700  0.370400  0.546100  1
  H  H85  1  0.120900  0.667200  0.593800  1
  H  H86  1  0.879100  0.332800  0.406200  1
  H  H87  1  0.107000  0.748700  0.598600  1
  H  H88  1  0.893000  0.251300  0.401400  1
  H  H89  1  0.162100  0.784800  0.467300  1
  H  H90  1  0.837900  0.215200  0.532700  1
  H  H91  1  0.175100  0.704700  0.456100  1
  H  H92  1  0.824900  0.295300  0.543900  1
  H  H93  1  0.238900  0.345800  0.642000  1
  H  H94  1  0.761100  0.654200  0.358000  1
  H  H95  1  0.229200  0.351300  0.592600  1
  H  H96  1  0.770800  0.648700  0.407400  1
  H  H97  1  0.178700  0.367400  0.634500  1
  H  H98  1  0.821300  0.632600  0.365500  1
  H  H99  1  0.276800  0.403300  0.634000  1
  H  H100  1  0.723200  0.596700  0.366000  1
  H  H101  1  0.471400  0.651900  0.336900  1
  H  H102  1  0.528600  0.348100  0.663100  1
  H  H103  1  0.491200  0.695700  0.302700  1
  H  H104  1  0.508800  0.304300  0.697300  1
  H  H105  1  0.428100  0.707700  0.323300  1
  H  H106  1  0.571900  0.292300  0.676700  1
  H  H107  1  0.458700  0.638500  0.414900  1
  H  H108  1  0.541300  0.361500  0.585100  1
  H  H109  1  0.470800  0.577700  0.471100  1
  H  H110  1  0.529200  0.422300  0.528900  1
  H  H111  1  0.461800  0.524300  0.541100  1
  H  H112  1  0.538200  0.475700  0.458900  1
  H  H113  1  0.441400  0.626600  0.606600  1
  H  H114  1  0.558600  0.373400  0.393400  1
  H  H115  1  0.459400  0.679800  0.539600  1
  H  H116  1  0.540600  0.320200  0.460400  1
  H  H117  1  0.547700  0.246200  0.892700  1
  H  H118  1  0.452300  0.753800  0.107300  1
  H  H119  1  0.512700  0.221200  0.936600  1
  H  H120  1  0.487300  0.778800  0.063400  1
  H  H121  1  0.526900  0.266100  0.940100  1
  H  H122  1  0.473100  0.733900  0.059900  1
  H  H123  1  0.508700  0.322700  0.843800  1
  H  H124  1  0.491300  0.677300  0.156200  1
  H  H125  1  0.350100  0.434700  0.799400  1
  H  H126  1  0.649900  0.565300  0.200600  1
  H  H127  1  0.361900  0.488400  0.727300  1
  H  H128  1  0.638100  0.511600  0.272700  1
  H  H129  1  0.517700  0.418800  0.705000  1
  H  H130  1  0.482300  0.581200  0.295000  1
  H  H131  1  0.518300  0.369500  0.774900  1
  H  H132  1  0.481700  0.630500  0.225100  1
  H  H133  1  0.266000  0.325500  0.091800  1
  H  H134  1  0.734000  0.674500  0.908200  1
  H  H135  1  0.309200  0.272100  0.078900  1
  H  H136  1  0.690800  0.727900  0.921100  1
  H  H137  1  0.252000  0.296700  0.065000  1
  H  H138  1  0.748000  0.703300  0.935000  1
  H  H139  1  0.290400  0.394400  0.048600  1
  H  H140  1  0.709600  0.605600  0.951400  1
  H  H141  1  0.351100  0.476400  0.915900  1
  H  H142  1  0.648900  0.523600  0.084100  1
  H  H143  1  0.355900  0.553800  0.914800  1
  H  H144  1  0.644100  0.446200  0.085200  1
  H  H145  1  0.315600  0.531400  0.050100  1
  H  H146  1  0.684400  0.468600  0.949900  1
  H  H147  1  0.316700  0.450800  0.055000  1
  H  H148  1  0.683300  0.549200  0.945000  1
  H  H149  1  0.683800  0.410500  0.849000  1
  H  H150  1  0.316200  0.589500  0.151000  1
  H  H151  1  0.726400  0.426000  0.858500  1
  H  H152  1  0.273600  0.574000  0.141500  1
  H  H153  1  0.730600  0.421900  0.807500  1
  H  H154  1  0.269400  0.578100  0.192500  1
  H  H155  1  0.605000  0.478500  0.874500  1
  H  H156  1  0.395000  0.521500  0.125500  1
  H  H157  1  0.492700  0.642500  0.844100  1
  H  H158  1  0.507300  0.357500  0.155900  1
  H  H159  1  0.412600  0.657800  0.889800  1
  H  H160  1  0.587400  0.342200  0.110200  1
  H  H161  1  0.449200  0.531700  0.974600  1
  H  H162  1  0.550800  0.468300  0.025400  1
  H  H163  1  0.539800  0.504000  0.929400  1
  H  H164  1  0.460200  0.496000  0.070600  1
  H  H165  1  0.771700  0.545300  0.615500  1
  H  H166  1  0.228300  0.454700  0.384500  1
  H  H167  1  0.800300  0.539700  0.654400  1
  H  H168  1  0.199700  0.460300  0.345600  1
  H  H169  1  0.768400  0.595000  0.627900  1
  H  H170  1  0.231600  0.405000  0.372100  1
  H  H171  1  0.681200  0.551300  0.635900  1
  H  H172  1  0.318800  0.448700  0.364100  1
  H  H173  1  0.536300  0.553000  0.744500  1
  H  H174  1  0.463700  0.447000  0.255500  1
  H  H175  1  0.467600  0.543300  0.726100  1
  H  H176  1  0.532400  0.456700  0.273900  1
  H  H177  1  0.561000  0.521700  0.602100  1
  H  H178  1  0.439000  0.478300  0.397900  1
  H  H179  1  0.630600  0.522900  0.623800  1
  H  H180  1  0.369400  0.477100  0.376200  1
  H  H181  1  0.680700  0.691700  0.841900  1
  H  H182  1  0.319300  0.308300  0.158100  1
  H  H183  1  0.729900  0.639800  0.831800  1
  H  H184  1  0.270100  0.360200  0.168200  1
  H  H185  1  0.676500  0.638200  0.870000  1
  H  H186  1  0.323500  0.361800  0.130000  1
  H  H187  1  0.609400  0.722200  0.799900  1
  H  H188  1  0.390600  0.277800  0.200100  1
  H  H189  1  0.531700  0.698200  0.707200  1
  H  H190  1  0.468300  0.301800  0.292800  1
  H  H191  1  0.463500  0.769000  0.676600  1
  H  H192  1  0.536500  0.231000  0.323400  1
  H  H193  1  0.500800  0.861200  0.720900  1
  H  H194  1  0.499200  0.138800  0.279100  1
  H  H195  1  0.569000  0.790300  0.751500  1
  H  H196  1  0.431000  0.209700  0.248500  1
  H  H197  1  0.478500  0.851100  0.986800  1
  H  H198  1  0.521500  0.148900  0.013200  1
  H  H199  1  0.439700  0.898900  0.010900  1
  H  H200  1  0.560300  0.101100  0.989100  1
  H  H201  1  0.467700  0.907600  0.957300  1
  H  H202  1  0.532300  0.092400  0.042700  1
  H  H203  1  0.428400  0.806800  0.982700  1
  H  H204  1  0.571600  0.193200  0.017300  1
  H  H205  1  0.272200  0.815500  0.958700  1
  H  H206  1  0.727800  0.184500  0.041300  1
  H  H207  1  0.274000  0.737500  0.960400  1
  H  H208  1  0.726000  0.262500  0.039600  1
  H  H209  1  0.417900  0.664600  0.989800  1
  H  H210  1  0.582100  0.335400  0.010200  1
  H  H211  1  0.423700  0.739300  0.988700  1
  H  H212  1  0.576300  0.260700  0.011300  1
  H  H213  1  0.166000  0.944500  0.099300  1
  H  H214  1  0.834000  0.055500  0.900700  1
  H  H215  1  0.193300  0.984900  0.088500  1
  H  H216  1  0.806700  0.015100  0.911500  1
  H  H217  1  0.228400  0.925300  0.099800  1
  H  H218  1  0.771600  0.074700  0.900200  1
  H  H219  1  0.145500  0.951000  0.031200  1
  H  H220  1  0.854500  0.049000  0.968800  1
  H  H221  1  0.194600  0.944900  0.881600  1
  H  H222  1  0.805400  0.055100  0.118400  1
  H  H223  1  0.131200  0.942700  0.851400  1
  H  H224  1  0.868800  0.057300  0.148600  1
  H  H225  1  0.022300  0.965400  0.966400  1
  H  H226  1  0.977700  0.034600  0.033600  1
  H  H227  1  0.081900  0.971300  0.998900  1
  H  H228  1  0.918100  0.028700  0.001100  1
  H  H229  1  0.933700  0.188900  0.556200  1
  H  H230  1  0.066300  0.811100  0.443800  1
  H  H231  1  0.957300  0.232500  0.543000  1
  H  H232  1  0.042700  0.767500  0.457000  1
  H  H233  1  0.930400  0.214700  0.595400  1
  H  H234  1  0.069600  0.785300  0.404600  1
  H  H235  1  0.996600  0.105400  0.559300  1
  H  H236  1  0.003400  0.894600  0.440700  1
  H  H237  1  0.154500  0.986500  0.579400  1
  H  H238  1  0.845500  0.013500  0.420600  1
  H  H239  1  0.166900  0.905400  0.573600  1
  H  H240  1  0.833100  0.094600  0.426400  1
  H  H241  1  0.033600  0.958400  0.533900  1
  H  H242  1  0.966400  0.041600  0.466100  1
  H  H243  1  0.014000  0.040000  0.537300  1
  H  H244  1  0.986000  0.960000  0.462700  1
  H  H245  1  0.385600  0.935800  0.309900  1
  H  H246  1  0.614400  0.064200  0.690100  1
  H  H247  1  0.449400  0.905500  0.296400  1
  H  H248  1  0.550600  0.094500  0.703600  1
  H  H249  1  0.424900  0.943100  0.331900  1
  H  H250  1  0.575100  0.056900  0.668100  1
  H  H251  1  0.332600  0.906900  0.381400  1
  H  H252  1  0.667400  0.093100  0.618600  1
  H  H253  1  0.324300  0.771200  0.492500  1
  H  H254  1  0.675700  0.228800  0.507500  1
  H  H255  1  0.241500  0.774900  0.533200  1
  H  H256  1  0.758500  0.225100  0.466800  1
  H  H257  1  0.174600  0.911400  0.459500  1
  H  H258  1  0.825400  0.088600  0.540500  1
  H  H259  1  0.254400  0.903200  0.409100  1
  H  H260  1  0.745600  0.096800  0.590900  1
  H  H261  1  0.087800  0.239100  0.700500  1
  H  H262  1  0.912200  0.760900  0.299500  1
  H  H263  1  0.088500  0.265500  0.647400  1
  H  H264  1  0.911500  0.734500  0.352600  1
  H  H265  1  0.143900  0.228500  0.663200  1
  H  H266  1  0.856100  0.771500  0.336800  1
  H  H267  1  0.091700  0.154600  0.727600  1
  H  H268  1  0.908300  0.845400  0.272400  1
  H  H269  1  0.067900  0.027800  0.701100  1
  H  H270  1  0.932100  0.972200  0.298900  1
  H  H271  1  0.043500  0.971900  0.765500  1
  H  H272  1  0.956500  0.028100  0.234500  1
  H  H273  1  0.027300  0.058400  0.847600  1
  H  H274  1  0.972700  0.941600  0.152400  1
  H  H275  1  0.051200  0.114100  0.785900  1
  H  H276  1  0.948800  0.885900  0.214100  1
  H  H277  1  0.286900  0.253900  0.852800  1
  H  H278  1  0.713100  0.746100  0.147200  1
  H  H279  1  0.316500  0.217800  0.893800  1
  H  H280  1  0.683500  0.782200  0.106200  1
  H  H281  1  0.350800  0.236200  0.845100  1
  H  H282  1  0.649200  0.763800  0.154900  1
  H  H283  1  0.241900  0.340600  0.858000  1
  H  H284  1  0.758100  0.659400  0.142000  1
  H  H285  1  0.226300  0.473700  0.902600  1
  H  H286  1  0.773700  0.526300  0.097400  1
  H  H287  1  0.152900  0.546300  0.888600  1
  H  H288  1  0.847100  0.453700  0.111400  1
  H  H289  1  0.089800  0.470700  0.856600  1
  H  H290  1  0.910200  0.529300  0.143400  1
  H  H291  1  0.162900  0.397200  0.865800  1
  H  H292  1  0.837100  0.602800  0.134200  1
  H  H293  1  0.806800  0.775300  0.088300  1
  H  H294  1  0.193200  0.224700  0.911700  1
  H  H295  1  0.801100  0.786400  0.136900  1
  H  H296  1  0.198900  0.213600  0.863100  1
  H  H297  1  0.819200  0.729200  0.131300  1
  H  H298  1  0.180800  0.270800  0.868700  1
  H  H299  1  0.868700  0.813200  0.046100  1
  H  H300  1  0.131300  0.186800  0.953900  1
  H  H301  1  0.041500  0.788400  0.994400  1
  H  H302  1  0.958500  0.211600  0.005600  1
  H  H303  1  0.060600  0.847400  0.928900  1
  H  H304  1  0.939400  0.152600  0.071100  1
  H  H305  1  0.912200  0.945200  0.947000  1
  H  H306  1  0.087800  0.054800  0.053000  1
  H  H307  1  0.884900  0.889300  0.015100  1
  H  H308  1  0.115100  0.110700  0.984900  1
  H  H309  1  0.050200  0.748400  0.217000  1
  H  H310  1  0.949800  0.251600  0.783000  1
  H  H311  1  0.000400  0.730200  0.239400  1
  H  H312  1  0.999600  0.269800  0.760600  1
  H  H313  1  0.992000  0.784800  0.206200  1
  H  H314  1  0.008000  0.215200  0.793800  1
  H  H315  1  0.110600  0.714300  0.154500  1
  H  H316  1  0.889400  0.285700  0.845500  1
  H  H317  1  0.137900  0.645100  0.035900  1
  H  H318  1  0.862100  0.354900  0.964100  1
  H  H319  1  0.228500  0.621100  0.990600  1
  H  H320  1  0.771500  0.378900  0.009400  1
  H  H321  1  0.274900  0.670100  0.067400  1
  H  H322  1  0.725100  0.329900  0.932600  1
  H  H323  1  0.190800  0.691100  0.115400  1
  H  H324  1  0.809200  0.308900  0.884600  1
  H  H325  1  0.582100  0.767300  0.477100  1
  H  H326  1  0.417900  0.232700  0.522900  1
  H  H327  1  0.406000  0.825200  0.531000  1
  H  H328  1  0.594000  0.174800  0.469000  1
  H  H329  1  0.372000  0.857800  0.598600  1
  H  H330  1  0.628000  0.142200  0.401400  1
  H  H331  1  0.521500  0.846000  0.595300  1
  H  H332  1  0.478500  0.154000  0.404700  1
  H  H333  1  0.555500  0.813400  0.527700  1
  H  H334  1  0.444500  0.186600  0.472300  1
  H  H335  1  0.241600  0.161000  0.447400  1
  H  H336  1  0.758400  0.839000  0.552600  1
  H  H337  1  0.180600  0.201200  0.451300  1
  H  H338  1  0.819400  0.798800  0.548700  1
  H  H339  1  0.196500  0.146600  0.440800  1
  H  H340  1  0.803500  0.853400  0.559200  1
  H  H341  1  0.265300  0.085700  0.510400  1
  H  H342  1  0.734700  0.914300  0.489600  1
  H  H343  1  0.219800  0.014600  0.656100  1
  H  H344  1  0.780200  0.985400  0.343900  1
  H  H345  1  0.287000  0.943600  0.687800  1
  H  H346  1  0.713000  0.056400  0.312200  1
  H  H347  1  0.399800  0.968800  0.574500  1
  H  H348  1  0.600200  0.031200  0.425500  1
  H  H349  1  0.332600  0.039700  0.542800  1
  H  H350  1  0.667400  0.960300  0.457200  1
  H  H351  1  0.792300  0.790900  0.884200  1
  H  H352  1  0.207700  0.209100  0.115800  1
  H  H353  1  0.941500  0.760500  0.771200  1
  H  H354  1  0.058500  0.239500  0.228800  1
  H  H355  1  0.010800  0.684700  0.787500  1
  H  H356  1  0.989200  0.315300  0.212500  1
  H  H357  1  0.927700  0.638900  0.904800  1
  H  H358  1  0.072300  0.361100  0.095200  1
  H  H359  1  0.849800  0.714800  0.893800  1
  H  H360  1  0.150200  0.285200  0.106200  1
  H  H361  1  0.327200  0.574500  0.628400  1
  H  H362  1  0.672800  0.425500  0.371600  1
  H  H363  1  0.260500  0.559500  0.612700  1
  H  H364  1  0.739500  0.440500  0.387300  1
  H  H365  1  0.359900  0.412100  0.612000  1
  H  H366  1  0.640100  0.587900  0.388000  1
  H  H367  1  0.426600  0.427000  0.627800  1
  H  H368  1  0.573400  0.573000  0.372200  1
  H  H369  1  0.706700  0.839300  0.912600  1
  H  H370  1  0.293300  0.160700  0.087400  1
  H  H371  1  0.669100  0.885500  0.881000  1
  H  H372  1  0.330900  0.114500  0.119000  1
  H  H373  1  0.708800  0.894600  0.901200  1
  H  H374  1  0.291200  0.105400  0.098800  1
  H  H375  1  0.019000  0.515300  0.172800  1
  H  H376  1  0.981000  0.484700  0.827200  1
  H  H377  1  0.980100  0.551400  0.208900  1
  H  H378  1  0.019900  0.448600  0.791100  1
  H  H379  1  0.043800  0.537500  0.196800  1
  H  H380  1  0.956200  0.462500  0.803200  1
  H  H381  1  0.022900  0.551800  0.097600  1
  H  H382  1  0.977100  0.448200  0.902400  1
  H  H383  1  0.015900  0.683000  0.981400  1
  H  H384  1  0.984100  0.317000  0.018600  1
  H  H385  1  0.032100  0.668200  0.908400  1
  H  H386  1  0.967900  0.331800  0.091600  1
  H  H387  1  0.042200  0.525200  0.961400  1
  H  H388  1  0.957800  0.474800  0.038600  1
  H  H389  1  0.018100  0.541200  0.035400  1
  H  H390  1  0.981900  0.458800  0.964600  1
  H  H391  1  0.284100  0.119800  0.858300  1
  H  H392  1  0.715900  0.880200  0.141700  1
  H  H393  1  0.279400  0.110100  0.912500  1
  H  H394  1  0.720600  0.889900  0.087500  1
  H  H395  1  0.229100  0.118300  0.893800  1
  H  H396  1  0.770900  0.881700  0.106200  1
  H  H397  1  0.306200  0.052300  0.823100  1
  H  H398  1  0.693800  0.947700  0.176900  1
  H  H399  1  0.334500  0.023900  0.760500  1
  H  H400  1  0.665500  0.976100  0.239500  1
  H  H401  1  0.365400  0.989800  0.695800  1
  H  H402  1  0.634600  0.010200  0.304200  1
  H  H403  1  0.395400  0.851900  0.771100  1
  H  H404  1  0.604600  0.148100  0.228900  1
  H  H405  1  0.364400  0.885000  0.837700  1
  H  H406  1  0.635600  0.115000  0.162300  1
  H  H407  1  0.644700  0.706000  0.384700  1
  H  H408  1  0.355300  0.294000  0.615300  1
  H  H409  1  0.659600  0.727800  0.417300  1
  H  H410  1  0.340400  0.272200  0.582700  1
  H  H411  1  0.646900  0.761600  0.368500  1
  H  H412  1  0.353100  0.238400  0.631500  1
  H  H413  1  0.202400  0.111400  0.777200  1
  H  H414  1  0.797600  0.888600  0.222800  1
  H  H415  1  0.168800  0.086800  0.765400  1
  H  H416  1  0.831200  0.913200  0.234600  1
  H  H417  1  0.163000  0.035700  0.836500  1
  H  H418  1  0.837000  0.964300  0.163500  1
  H  H419  1  0.210700  0.048700  0.841000  1
  H  H420  1  0.789300  0.951300  0.159000  1
  H  H421  1  0.152100  0.096900  0.891500  1
  H  H422  1  0.847900  0.903100  0.108500  1
  H  H423  1  0.104300  0.084700  0.886200  1
  H  H424  1  0.895700  0.915300  0.113800  1
  H  H425  1  0.072800  0.170000  0.848500  1
  H  H426  1  0.927200  0.830000  0.151500  1
  H  H427  1  0.130600  0.173900  0.838500  1
  H  H428  1  0.869400  0.826100  0.161500  1
  H  H429  1  0.382100  0.250600  0.705800  1
  H  H430  1  0.617900  0.749400  0.294200  1
  H  H431  1  0.436800  0.254400  0.706900  1
  H  H432  1  0.563200  0.745600  0.293100  1
  H  H433  1  0.362600  0.334200  0.790300  1
  H  H434  1  0.637400  0.665800  0.209700  1
  H  H435  1  0.425600  0.307900  0.766400  1
  H  H436  1  0.574400  0.692100  0.233600  1
  H  H437  1  0.406500  0.368700  0.705200  1
  H  H438  1  0.593500  0.631300  0.294800  1
  H  H439  1  0.342700  0.382400  0.724000  1
  H  H440  1  0.657300  0.617600  0.276000  1
  H  H441  1  0.343200  0.335400  0.680600  1
  H  H442  1  0.656800  0.664600  0.319400  1
  H  H443  1  0.405500  0.327800  0.657100  1
  H  H444  1  0.594500  0.672200  0.342900  1
  H  H445  1  0.255000  0.344600  0.739400  1
  H  H446  1  0.745000  0.655400  0.260600  1
  H  H447  1  0.263100  0.367500  0.776300  1
  H  H448  1  0.736900  0.632500  0.223700  1
  H  H449  1  0.209900  0.427600  0.713300  1
  H  H450  1  0.790100  0.572400  0.286700  1
  H  H451  1  0.196300  0.442000  0.762200  1
  H  H452  1  0.803700  0.558000  0.237800  1
  H  H453  1  0.113400  0.449800  0.768100  1
  H  H454  1  0.886600  0.550200  0.231900  1
  H  H455  1  0.132400  0.417900  0.728000  1
  H  H456  1  0.867600  0.582100  0.272000  1
  H  H457  1  0.118400  0.381000  0.819300  1
  H  H458  1  0.881600  0.619000  0.180700  1
  H  H459  1  0.137900  0.349300  0.779600  1
  H  H460  1  0.862100  0.650700  0.220400  1
  H  H461  1  0.016000  0.899700  0.077100  1
  H  H462  1  0.984000  0.100300  0.922900  1
  H  H463  1  0.992600  0.857300  0.083600  1
  H  H464  1  0.007400  0.142700  0.916400  1
  H  H465  1  0.077400  0.799500  0.056200  1
  H  H466  1  0.922600  0.200500  0.943800  1
  H  H467  1  0.077600  0.852800  0.022400  1
  H  H468  1  0.922400  0.147200  0.977600  1
  H  H469  1  0.128500  0.860300  0.058200  1
  H  H470  1  0.871500  0.139700  0.941800  1
  H  H471  1  0.146300  0.799300  0.074600  1
  H  H472  1  0.853700  0.200700  0.925400  1
  H  H473  1  0.099500  0.808400  0.145500  1
  H  H474  1  0.900500  0.191600  0.854500  1
  H  H475  1  0.085000  0.868500  0.130100  1
  H  H476  1  0.915000  0.131500  0.869900  1
  H  H477  1  0.548000  0.866300  0.695800  1
  H  H478  1  0.452000  0.133700  0.304200  1
  H  H479  1  0.587700  0.799700  0.740700  1
  H  H480  1  0.412300  0.200300  0.259300  1
  H  H481  1  0.561900  0.713200  0.682900  1
  H  H482  1  0.438100  0.286800  0.317100  1
  H  H483  1  0.493700  0.782700  0.655200  1
  H  H484  1  0.506300  0.217300  0.344800  1
  H  H485  1  0.638200  0.727900  0.782800  1
  H  H486  1  0.361800  0.272100  0.217200  1
  H  H487  1  0.678800  0.698000  0.832300  1
  H  H488  1  0.321200  0.302000  0.167700  1
  H  H489  1  0.732700  0.665400  0.800700  1
  H  H490  1  0.267300  0.334600  0.199300  1
  H  H491  1  0.712000  0.640000  0.852600  1
  H  H492  1  0.288000  0.360000  0.147400  1
  H  H493  1  0.429100  0.858500  0.757600  1
  H  H494  1  0.570900  0.141500  0.242400  1
  H  H495  1  0.401700  0.879800  0.822800  1
  H  H496  1  0.598300  0.120200  0.177200  1
  H  H497  1  0.375900  0.026800  0.756800  1
  H  H498  1  0.624100  0.973200  0.243200  1
  H  H499  1  0.410800  0.000000  0.693200  1
  H  H500  1  0.589200  0.000000  0.306800  1
  H  H501  1  0.541100  0.861600  0.573100  1
  H  H502  1  0.458900  0.138400  0.426900  1
  H  H503  1  0.391900  0.892300  0.578200  1
  H  H504  1  0.608100  0.107700  0.421800  1
  H  H505  1  0.413700  0.852300  0.523500  1
  H  H506  1  0.586300  0.147700  0.476500  1
  H  H507  1  0.567500  0.834700  0.507400  1
  H  H508  1  0.432500  0.165300  0.492600  1
  H  H509  1  0.591600  0.797300  0.452100  1
  H  H510  1  0.408400  0.202700  0.547900  1
  H  H511  1  0.315900  0.968500  0.684900  1
  H  H512  1  0.684100  0.031500  0.315100  1
  H  H513  1  0.245600  0.030400  0.658100  1
  H  H514  1  0.754400  0.969600  0.341900  1
  H  H515  1  0.422600  0.984400  0.567100  1
  H  H516  1  0.577400  0.015600  0.432900  1
  H  H517  1  0.347100  0.060800  0.539300  1
  H  H518  1  0.652900  0.939200  0.460700  1
  H  H519  1  0.281500  0.110800  0.513000  1
  H  H520  1  0.718500  0.889200  0.487000  1
  H  H521  1  0.236300  0.156000  0.447300  1
  H  H522  1  0.763700  0.844000  0.552700  1
  H  H523  1  0.221200  0.207800  0.463000  1
  H  H524  1  0.778800  0.792200  0.537000  1
  H  H525  1  0.175100  0.195800  0.454900  1
  H  H526  1  0.824900  0.804200  0.545100  1
  H  H527  1  0.324800  0.052700  0.822700  1
  H  H528  1  0.675200  0.947300  0.177300  1
  H  H529  1  0.012100  0.590500  0.640800  1
  H  H530  1  0.987900  0.409500  0.359200  1
  H  H531  1  0.016500  0.533600  0.662700  1
  H  H532  1  0.983500  0.466400  0.337300  1
  C  C533  1  0.730100  0.049500  0.712900  1
  C  C534  1  0.269900  0.950500  0.287100  1
  C  C535  1  0.767800  0.000200  0.733300  1
  C  C536  1  0.232200  0.999800  0.266700  1
  C  C537  1  0.802700  0.999500  0.755100  1
  C  C538  1  0.197300  0.000500  0.244900  1
  C  C539  1  0.838300  0.955600  0.779800  1
  C  C540  1  0.161700  0.044400  0.220200  1
  C  C541  1  0.877200  0.958200  0.801400  1
  C  C542  1  0.122800  0.041800  0.198600  1
  C  C543  1  0.880100  0.001600  0.802800  1
  C  C544  1  0.119900  0.998400  0.197200  1
  C  C545  1  0.918000  0.000400  0.822700  1
  C  C546  1  0.082000  0.999600  0.177300  1
  C  C547  1  0.949700  0.913200  0.842100  1
  C  C548  1  0.050300  0.086800  0.157900  1
  C  C549  1  0.911700  0.913500  0.821200  1
  C  C550  1  0.088300  0.086500  0.178800  1
  C  C551  1  0.765000  0.829000  0.671400  1
  C  C552  1  0.235000  0.171000  0.328600  1
  C  C553  1  0.796700  0.847100  0.685700  1
  C  C554  1  0.203300  0.152900  0.314300  1
  C  C555  1  0.850800  0.842400  0.660000  1
  C  C556  1  0.149200  0.157600  0.340000  1
  C  C557  1  0.881800  0.863600  0.668100  1
  C  C558  1  0.118200  0.136400  0.331900  1
  C  C559  1  0.934900  0.859800  0.638300  1
  C  C560  1  0.065100  0.140200  0.361700  1
  C  C561  1  0.950900  0.850700  0.594700  1
  C  C562  1  0.049100  0.149300  0.405300  1
  C  C563  1  0.003200  0.848900  0.569200  1
  C  C564  1  0.996800  0.151100  0.430800  1
  C  C565  1  0.022000  0.863900  0.626300  1
  C  C566  1  0.978000  0.136100  0.373700  1
  C  C567  1  0.968500  0.869000  0.653800  1
  C  C568  1  0.031500  0.131000  0.346200  1
  C  C569  1  0.990800  0.554300  0.582400  1
  C  C570  1  0.009200  0.445700  0.417600  1
  C  C571  1  0.041600  0.546600  0.595800  1
  C  C572  1  0.958400  0.453400  0.404200  1
  C  C573  1  0.036400  0.554500  0.640200  1
  C  C574  1  0.963600  0.445500  0.359800  1
  C  C575  1  0.080400  0.545700  0.658900  1
  C  C576  1  0.919600  0.454300  0.341100  1
  C  C577  1  0.067800  0.555600  0.705600  1
  C  C578  1  0.932200  0.444400  0.294400  1
  C  C579  1  0.110100  0.557100  0.719400  1
  C  C580  1  0.889900  0.442900  0.280600  1
  C  C581  1  0.104400  0.565000  0.760300  1
  C  C582  1  0.895600  0.435000  0.239700  1
  C  C583  1  0.013600  0.574300  0.778700  1
  C  C584  1  0.986400  0.425700  0.221300  1
  C  C585  1  0.020800  0.564300  0.737200  1
  C  C586  1  0.979200  0.435700  0.262800  1
  C  C587  1  0.222200  0.544200  0.428400  1
  C  C588  1  0.777800  0.455800  0.571600  1
  C  C589  1  0.195500  0.557300  0.473800  1
  C  C590  1  0.804500  0.442700  0.526200  1
  C  C591  1  0.184600  0.607100  0.479800  1
  C  C592  1  0.815400  0.392900  0.520200  1
  C  C593  1  0.158500  0.624300  0.520100  1
  C  C594  1  0.841500  0.375700  0.479900  1
  C  C595  1  0.151400  0.676400  0.522800  1
  C  C596  1  0.848600  0.323600  0.477200  1
  C  C597  1  0.129800  0.690200  0.566900  1
  C  C598  1  0.870200  0.309800  0.433100  1
  C  C599  1  0.122200  0.739500  0.569200  1
  C  C600  1  0.877800  0.260500  0.430800  1
  C  C601  1  0.153600  0.760600  0.493200  1
  C  C602  1  0.846400  0.239400  0.506800  1
  C  C603  1  0.162000  0.711900  0.486200  1
  C  C604  1  0.838000  0.288100  0.513800  1
  C  C605  1  0.215500  0.366400  0.620100  1
  C  C606  1  0.784500  0.633600  0.379900  1
  C  C607  1  0.214900  0.419500  0.606500  1
  C  C608  1  0.785100  0.580500  0.393500  1
  C  C609  1  0.253100  0.430000  0.615900  1
  C  C610  1  0.746900  0.570000  0.384100  1
  C  C611  1  0.260000  0.476800  0.600700  1
  C  C612  1  0.740000  0.523200  0.399300  1
  C  C613  1  0.464300  0.688300  0.329800  1
  C  C614  1  0.535700  0.311700  0.670200  1
  C  C615  1  0.467200  0.702700  0.368700  1
  C  C616  1  0.532800  0.297300  0.631300  1
  C  C617  1  0.464700  0.668100  0.412800  1
  C  C618  1  0.535300  0.331900  0.587200  1
  C  C619  1  0.470600  0.675600  0.454000  1
  C  C620  1  0.529400  0.324400  0.546000  1
  C  C621  1  0.465500  0.637200  0.497100  1
  C  C622  1  0.534500  0.362800  0.502900  1
  C  C623  1  0.466500  0.588000  0.498400  1
  C  C624  1  0.533500  0.412000  0.501600  1
  C  C625  1  0.461200  0.556600  0.540700  1
  C  C626  1  0.538800  0.443400  0.459300  1
  C  C627  1  0.450800  0.615400  0.578600  1
  C  C628  1  0.549200  0.384600  0.421400  1
  C  C629  1  0.458600  0.648600  0.538800  1
  C  C630  1  0.541400  0.351400  0.461200  1
  C  C631  1  0.518100  0.252900  0.919900  1
  C  C632  1  0.481900  0.747100  0.080100  1
  C  C633  1  0.466100  0.292200  0.904600  1
  C  C634  1  0.533900  0.707800  0.095400  1
  C  C635  1  0.473500  0.324600  0.860700  1
  C  C636  1  0.526500  0.675400  0.139300  1
  C  C637  1  0.427000  0.360100  0.842400  1
  C  C638  1  0.573000  0.639900  0.157600  1
  C  C639  1  0.432900  0.393400  0.797000  1
  C  C640  1  0.567100  0.606600  0.203000  1
  C  C641  1  0.385200  0.431500  0.781300  1
  C  C642  1  0.614800  0.568500  0.218700  1
  C  C643  1  0.393000  0.463700  0.738100  1
  C  C644  1  0.607000  0.536300  0.261900  1
  C  C645  1  0.483900  0.423600  0.726200  1
  C  C646  1  0.516100  0.576400  0.273800  1
  C  C647  1  0.485100  0.392100  0.766300  1
  C  C648  1  0.514900  0.607900  0.233700  1
  C  C649  1  0.280800  0.304100  0.068700  1
  C  C650  1  0.719200  0.695900  0.931300  1
  C  C651  1  0.303800  0.331000  0.024100  1
  C  C652  1  0.696200  0.669000  0.975900  1
  C  C653  1  0.307300  0.379500  0.022000  1
  C  C654  1  0.692700  0.620500  0.978000  1
  C  C655  1  0.333333  0.404500  0.984100  1
  C  C656  1  0.666667  0.595500  0.015900  1
  C  C657  1  0.329600  0.455700  0.985100  1
  C  C658  1  0.670400  0.544300  0.014900  1
  C  C659  1  0.343400  0.486500  0.944200  1
  C  C660  1  0.656600  0.513500  0.055800  1
  C  C661  1  0.346400  0.533200  0.943500  1
  C  C662  1  0.653600  0.466800  0.056500  1
  C  C663  1  0.323800  0.519700  0.022500  1
  C  C664  1  0.676200  0.480300  0.977500  1
  C  C665  1  0.322400  0.472100  0.025700  1
  C  C666  1  0.677600  0.527900  0.974300  1
  C  C667  1  0.705700  0.431400  0.836400  1
  C  C668  1  0.294300  0.568600  0.163600  1
  C  C669  1  0.670400  0.485100  0.827300  1
  C  C670  1  0.329600  0.514900  0.172700  1
  C  C671  1  0.618100  0.502900  0.852500  1
  C  C672  1  0.381900  0.497100  0.147500  1
  C  C673  1  0.582500  0.554200  0.848500  1
  C  C674  1  0.417500  0.445800  0.151500  1
  C  C675  1  0.527800  0.569900  0.880200  1
  C  C676  1  0.472200  0.430100  0.119800  1
  C  C677  1  0.486500  0.617400  0.870200  1
  C  C678  1  0.513500  0.382600  0.129800  1
  C  C679  1  0.439400  0.625500  0.898200  1
  C  C680  1  0.560600  0.374500  0.101800  1
  C  C681  1  0.459300  0.553500  0.947100  1
  C  C682  1  0.540700  0.446500  0.052900  1
  C  C683  1  0.514000  0.536600  0.920200  1
  C  C684  1  0.486000  0.463400  0.079800  1
  C  C685  1  0.769000  0.560300  0.640400  1
  C  C686  1  0.231000  0.439700  0.359600  1
  C  C687  1  0.718400  0.561800  0.676000  1
  C  C688  1  0.281600  0.438200  0.324000  1
  C  C689  1  0.676300  0.554800  0.666300  1
  C  C690  1  0.323700  0.445200  0.333700  1
  C  C691  1  0.628700  0.552700  0.697200  1
  C  C692  1  0.371300  0.447300  0.302800  1
  C  C693  1  0.587400  0.542900  0.684400  1
  C  C694  1  0.412600  0.457100  0.315600  1
  C  C695  1  0.541700  0.546200  0.715200  1
  C  C696  1  0.458300  0.453800  0.284800  1
  C  C697  1  0.500700  0.539500  0.704100  1
  C  C698  1  0.499300  0.460500  0.295900  1
  C  C699  1  0.555500  0.525900  0.632500  1
  C  C700  1  0.444500  0.474100  0.367500  1
  C  C701  1  0.596100  0.529700  0.644200  1
  C  C702  1  0.403900  0.470300  0.355800  1
  C  C703  1  0.690500  0.656400  0.840100  1
  C  C704  1  0.309500  0.343600  0.159900  1
  C  C705  1  0.664500  0.655600  0.801100  1
  C  C706  1  0.335500  0.344400  0.198900  1
  C  C707  1  0.625300  0.692900  0.786500  1
  C  C708  1  0.374700  0.307100  0.213500  1
  C  C709  1  0.604400  0.692900  0.751700  1
  C  C710  1  0.395600  0.307100  0.248300  1
  C  C711  1  0.556800  0.737600  0.732300  1
  C  C712  1  0.443200  0.262400  0.267700  1
  C  C713  1  0.525400  0.731250  0.710000  1
  C  C714  1  0.474600  0.268750  0.290000  1
  C  C715  1  0.484900  0.773300  0.691800  1
  C  C716  1  0.515100  0.226700  0.308200  1
  C  C717  1  0.507100  0.828070  0.718100  1
  C  C718  1  0.492900  0.171930  0.281900  1
  C  C719  1  0.547600  0.786000  0.736300  1
  C  C720  1  0.452400  0.214000  0.263700  1
  C  C721  1  0.451600  0.885900  0.982500  1
  C  C722  1  0.548400  0.114100  0.017500  1
  C  C723  1  0.405100  0.885900  0.971100  1
  C  C724  1  0.594900  0.114100  0.028900  1
  C  C725  1  0.399800  0.838100  0.975600  1
  C  C726  1  0.600200  0.161900  0.024400  1
  C  C727  1  0.349900  0.837800  0.969000  1
  C  C728  1  0.650100  0.162200  0.031000  1
  C  C729  1  0.350300  0.788100  0.972000  1
  C  C730  1  0.649700  0.211900  0.028000  1
  C  C731  1  0.302800  0.785600  0.964600  1
  C  C732  1  0.697200  0.214400  0.035400  1
  C  C733  1  0.304200  0.738600  0.966500  1
  C  C734  1  0.695800  0.261400  0.033500  1
  C  C735  1  0.388600  0.695700  0.983600  1
  C  C736  1  0.611400  0.304300  0.016400  1
  C  C737  1  0.392500  0.740300  0.982400  1
  C  C738  1  0.607500  0.259700  0.017600  1
  C  C739  1  0.199200  0.951200  0.084900  1
  C  C740  1  0.800800  0.048800  0.915100  1
  C  C741  1  0.214700  0.949700  0.033900  1
  C  C742  1  0.785300  0.050300  0.966100  1
  C  C743  1  0.179000  0.952400  0.012500  1
  C  C744  1  0.821000  0.047600  0.987500  1
  C  C745  1  0.186900  0.957100  0.964400  1
  C  C746  1  0.813100  0.042900  0.035600  1
  C  C747  1  0.146100  0.956800  0.945100  1
  C  C748  1  0.853900  0.043200  0.054900  1
  C  C749  1  0.159400  0.949100  0.900000  1
  C  C750  1  0.840600  0.050900  0.100000  1
  C  C751  1  0.121100  0.947700  0.882100  1
  C  C752  1  0.878900  0.052300  0.117900  1
  C  C753  1  0.057800  0.961200  0.948800  1
  C  C754  1  0.942200  0.038800  0.051200  1
  C  C755  1  0.093700  0.964200  0.968800  1
  C  C756  1  0.906300  0.035800  0.031200  1
  C  C757  1  0.952200  0.203400  0.566400  1
  C  C758  1  0.047800  0.796600  0.433600  1
  C  C759  1  0.007100  0.163200  0.573800  1
  C  C760  1  0.992900  0.836800  0.426200  1
  C  C761  1  0.023000  0.112400  0.565800  1
  C  C762  1  0.977000  0.887600  0.434200  1
  C  C763  1  0.072600  0.073700  0.566700  1
  C  C764  1  0.927400  0.926300  0.433300  1
  C  C765  1  0.082500  0.023200  0.559700  1
  C  C766  1  0.917500  0.976800  0.440300  1
  C  C767  1  0.128400  0.982100  0.569800  1
  C  C768  1  0.871600  0.017900  0.430200  1
  C  C769  1  0.135800  0.933400  0.565700  1
  C  C770  1  0.864200  0.066600  0.434300  1
  C  C771  1  0.059100  0.964300  0.542800  1
  C  C772  1  0.940900  0.035700  0.457200  1
  C  C773  1  0.046100  0.013500  0.545100  1
  C  C774  1  0.953900  0.986500  0.454900  1
  C  C775  1  0.418900  0.918700  0.321300  1
  C  C776  1  0.581100  0.081300  0.678700  1
  C  C777  1  0.414200  0.875600  0.360700  1
  C  C778  1  0.585800  0.124400  0.639300  1
  C  C779  1  0.363600  0.877000  0.386400  1
  C  C780  1  0.636400  0.123000  0.613600  1
  C  C781  1  0.357700  0.834500  0.420200  1
  C  C782  1  0.642300  0.165500  0.579800  1
  C  C783  1  0.302700  0.837800  0.447600  1
  C  C784  1  0.697300  0.162200  0.552400  1
  C  C785  1  0.294000  0.800200  0.484300  1
  C  C786  1  0.706000  0.199800  0.515700  1
  C  C787  1  0.244300  0.803000  0.509200  1
  C  C788  1  0.755700  0.197000  0.490800  1
  C  C789  1  0.205100  0.881300  0.465200  1
  C  C790  1  0.794900  0.118700  0.534800  1
  C  C791  1  0.252900  0.878400  0.436700  1
  C  C792  1  0.747100  0.121600  0.563300  1
  C  C793  1  0.105600  0.234700  0.668600  1
  C  C794  1  0.894400  0.765300  0.331400  1
  C  C795  1  0.100500  0.191100  0.660800  1
  C  C796  1  0.899500  0.808900  0.339200  1
  C  C797  1  0.090700  0.153200  0.698100  1
  C  C798  1  0.909300  0.846800  0.301900  1
  C  C799  1  0.079700  0.113800  0.694500  1
  C  C800  1  0.920300  0.886200  0.305500  1
  C  C801  1  0.062600  0.078100  0.736300  1
  C  C802  1  0.937400  0.921900  0.263700  1
  C  C803  1  0.060100  0.034500  0.730900  1
  C  C804  1  0.939900  0.965500  0.269100  1
  C  C805  1  0.045800  0.000900  0.769960  1
  C  C806  1  0.954200  0.999100  0.230040  1
  C  C807  1  0.036400  0.051200  0.817800  1
  C  C808  1  0.963600  0.948800  0.182200  1
  C  C809  1  0.050100  0.084700  0.780900  1
  C  C810  1  0.949900  0.915300  0.219100  1
  C  C811  1  0.316300  0.246000  0.867400  1
  C  C812  1  0.683700  0.754000  0.132600  1
  C  C813  1  0.308200  0.290700  0.883100  1
  C  C814  1  0.691800  0.709300  0.116900  1
  C  C815  1  0.264600  0.337200  0.876400  1
  C  C816  1  0.735400  0.662800  0.123600  1
  C  C817  1  0.252400  0.378900  0.895200  1
  C  C818  1  0.747600  0.621100  0.104800  1
  C  C819  1  0.202300  0.425100  0.886000  1
  C  C820  1  0.797700  0.574900  0.114000  1
  C  C821  1  0.198500  0.472500  0.892800  1
  C  C822  1  0.801500  0.527500  0.107200  1
  C  C823  1  0.154500  0.515200  0.884900  1
  C  C824  1  0.845500  0.484800  0.115100  1
  C  C825  1  0.118200  0.471600  0.865800  1
  C  C826  1  0.881800  0.528400  0.134200  1
  C  C827  1  0.161700  0.427100  0.871800  1
  C  C828  1  0.838300  0.572900  0.128200  1
  C  C829  1  0.821700  0.762400  0.115900  1
  C  C830  1  0.178300  0.237600  0.884100  1
  C  C831  1  0.879300  0.756800  0.102500  1
  C  C832  1  0.120700  0.243200  0.897500  1
  C  C833  1  0.894100  0.790500  0.064400  1
  C  C834  1  0.105900  0.209500  0.935600  1
  C  C835  1  0.949000  0.792000  0.051340  1
  C  C836  1  0.051000  0.208000  0.948660  1
  C  C837  1  0.959200  0.832000  0.011400  1
  C  C838  1  0.040800  0.168000  0.988600  1
  C  C839  1  0.013700  0.819700  0.985600  1
  C  C840  1  0.986300  0.180300  0.014400  1
  C  C841  1  0.024700  0.855700  0.946900  1
  C  C842  1  0.975300  0.144300  0.053100  1
  C  C843  1  0.938200  0.913100  0.957000  1
  C  C844  1  0.061800  0.086900  0.043000  1
  C  C845  1  0.921200  0.879200  0.998000  1
  C  C846  1  0.078800  0.120800  0.002000  1
  C  C847  1  0.017200  0.749400  0.212000  1
  C  C848  1  0.982800  0.250600  0.788000  1
  C  C849  1  0.030600  0.726800  0.172600  1
  C  C850  1  0.969400  0.273200  0.827400  1
  C  C851  1  0.083700  0.709600  0.146400  1
  C  C852  1  0.916300  0.290400  0.853600  1
  C  C853  1  0.099500  0.685700  0.108590  1
  C  C854  1  0.900500  0.314300  0.891410  1
  C  C855  1  0.156900  0.672100  0.079900  1
  C  C856  1  0.843100  0.327900  0.920100  1
  C  C857  1  0.165300  0.650300  0.042500  1
  C  C858  1  0.834700  0.349700  0.957500  1
  C  C859  1  0.219800  0.636900  0.015700  1
  C  C860  1  0.780200  0.363100  0.984300  1
  C  C861  1  0.247300  0.664900  0.060900  1
  C  C862  1  0.752700  0.335100  0.939100  1
  C  C863  1  0.197400  0.677900  0.089100  1
  C  C864  1  0.802600  0.322100  0.910900  1
  C  C865  1  0.558300  0.773400  0.458600  1
  C  C866  1  0.441700  0.226600  0.541400  1
  C  C867  1  0.503900  0.796600  0.475100  1
  C  C868  1  0.496100  0.203400  0.524900  1
  C  C869  1  0.484000  0.816200  0.523000  1
  C  C870  1  0.516000  0.183800  0.477000  1
  C  C871  1  0.429500  0.829400  0.544000  1
  C  C872  1  0.570500  0.170600  0.456000  1
  C  C873  1  0.409300  0.848800  0.584200  1
  C  C874  1  0.590700  0.151200  0.415800  1
  C  C875  1  0.498100  0.841800  0.582200  1
  C  C876  1  0.501900  0.158200  0.417800  1
  C  C877  1  0.518300  0.822400  0.542100  1
  C  C878  1  0.481700  0.177600  0.457900  1
  C  C879  1  0.203500  0.165100  0.457500  1
  C  C880  1  0.796500  0.834900  0.542500  1
  C  C881  1  0.190400  0.143000  0.510900  1
  C  C882  1  0.809600  0.857000  0.489100  1
  C  C883  1  0.231200  0.099800  0.530000  1
  C  C884  1  0.768800  0.900200  0.470000  1
  C  C885  1  0.222100  0.076500  0.578800  1
  C  C886  1  0.777900  0.923500  0.421200  1
  C  C887  1  0.269900  0.033800  0.596400  1
  C  C888  1  0.730100  0.966200  0.403600  1
  C  C889  1  0.256400  0.005300  0.639500  1
  C  C890  1  0.743600  0.994700  0.360500  1
  C  C891  1  0.296300  0.963100  0.658400  1
  C  C892  1  0.703700  0.036900  0.341600  1
  C  C893  1  0.363300  0.978100  0.591100  1
  C  C894  1  0.636700  0.021900  0.408900  1
  C  C895  1  0.323400  0.020200  0.572200  1
  C  C896  1  0.676600  0.979800  0.427800  1
  C  C897  1  0.794100  0.811700  0.854300  1
  C  C898  1  0.205900  0.188300  0.145700  1
  C  C899  1  0.842100  0.795600  0.819600  1
  C  C900  1  0.157900  0.204400  0.180400  1
  C  C901  1  0.886300  0.747500  0.831200  1
  C  C902  1  0.113700  0.252500  0.168800  1
  C  C903  1  0.936400  0.737000  0.799100  1
  C  C904  1  0.063600  0.263000  0.200900  1
  C  C905  1  0.977600  0.691600  0.809800  1
  C  C906  1  0.022400  0.308400  0.190200  1
  C  C907  1  0.930100  0.664100  0.877800  1
  C  C908  1  0.069900  0.335900  0.122200  1
  C  C909  1  0.882700  0.710100  0.871300  1
  C  C910  1  0.117300  0.289900  0.128700  1
  C  C911  1  0.333800  0.541540  0.625100  1
  C  C912  1  0.666200  0.458460  0.374900  1
  C  C913  1  0.294190  0.532640  0.615700  1
  C  C914  1  0.705810  0.467360  0.384300  1
  C  C915  1  0.303910  0.484390  0.610860  1
  C  C916  1  0.696090  0.515610  0.389140  1
  C  C917  1  0.353260  0.445030  0.615350  1
  C  C918  1  0.646740  0.554970  0.384650  1
  C  C919  1  0.392890  0.453930  0.624710  1
  C  C920  1  0.607110  0.546070  0.375290  1
  C  C921  1  0.704400  0.870400  0.889100  1
  C  C922  1  0.295600  0.129600  0.110900  1
  C  C923  1  0.749100  0.857300  0.846000  1
  C  C924  1  0.250900  0.142700  0.154000  1
  C  C925  1  0.013000  0.544700  0.184500  1
  C  C926  1  0.987000  0.455300  0.815500  1
  C  C927  1  0.006800  0.590300  0.146000  1
  C  C928  1  0.993200  0.409700  0.854000  1
  C  C929  1  0.013400  0.585200  0.101700  1
  C  C930  1  0.986600  0.414800  0.898300  1
  C  C931  1  0.007800  0.622700  0.062900  1
  C  C932  1  0.992200  0.377300  0.937100  1
  C  C933  1  0.015400  0.613300  0.016800  1
  C  C934  1  0.984600  0.386700  0.983200  1
  C  C935  1  0.019600  0.651000  0.978100  1
  C  C936  1  0.980400  0.349000  0.021900  1
  C  C937  1  0.029000  0.642100  0.934500  1
  C  C938  1  0.971000  0.357900  0.065500  1
  C  C939  1  0.033900  0.558300  0.965600  1
  C  C940  1  0.966100  0.441700  0.034400  1
  C  C941  1  0.021900  0.567300  0.009500  1
  C  C942  1  0.978100  0.432700  0.990500  1
  C  C943  1  0.268600  0.103800  0.888800  1
  C  C944  1  0.731400  0.896200  0.111200  1
  C  C945  1  0.288700  0.047800  0.891400  1
  C  C946  1  0.711300  0.952200  0.108600  1
  C  C947  1  0.307100  0.028600  0.851500  1
  C  C948  1  0.692900  0.971400  0.148500  1
  C  C949  1  0.326200  0.978600  0.849900  1
  C  C950  1  0.673800  0.021400  0.150100  1
  C  C951  1  0.345600  0.958800  0.807000  1
  C  C952  1  0.654400  0.041200  0.193000  1
  C  C953  1  0.346900  0.988100  0.763900  1
  C  C954  1  0.653100  0.011900  0.236100  1
  C  C955  1  0.365500  0.967500  0.725000  1
  C  C956  1  0.634500  0.032500  0.275000  1
  C  C957  1  0.382900  0.887600  0.768700  1
  C  C958  1  0.617100  0.112400  0.231300  1
  C  C959  1  0.364200  0.907600  0.808600  1
  C  C960  1  0.635800  0.092400  0.191400  1
  C  C961  1  0.580100  0.758600  0.417100  1
  C  C962  1  0.419900  0.241400  0.582900  1
  C  C963  1  0.637700  0.736600  0.395100  1
  C  C964  1  0.362300  0.263400  0.604900  1
  C  C965  1  0.170200  0.102200  0.788700  1
  C  C966  1  0.829800  0.897800  0.211300  1
  C  C967  1  0.173800  0.063500  0.835400  1
  C  C968  1  0.826200  0.936500  0.164600  1
  C  C969  1  0.134200  0.096700  0.869200  1
  C  C970  1  0.865800  0.903300  0.130800  1
  C  C971  1  0.112200  0.152800  0.837400  1
  C  C972  1  0.887800  0.847200  0.162600  1
  C  C973  1  0.396900  0.270900  0.713600  1
  C  C974  1  0.603100  0.729100  0.286400  1
  C  C975  1  0.388000  0.318900  0.763600  1
  C  C976  1  0.612000  0.681100  0.236400  1
  C  C977  1  0.378200  0.354200  0.719000  1
  C  C978  1  0.621800  0.645800  0.281000  1
  C  C979  1  0.379300  0.324200  0.686700  1
  C  C980  1  0.620700  0.675800  0.313300  1
  C  C981  1  0.236500  0.365900  0.763200  1
  C  C982  1  0.763500  0.634100  0.236800  1
  C  C983  1  0.197100  0.417100  0.746900  1
  C  C984  1  0.802900  0.582900  0.253100  1
  C  C985  1  0.140700  0.419300  0.755900  1
  C  C986  1  0.859300  0.580700  0.244100  1
  C  C987  1  0.145400  0.372800  0.790500  1
  C  C988  1  0.854600  0.627200  0.209500  1
  C  C989  1  0.023500  0.862800  0.086400  1
  C  C990  1  0.976500  0.137200  0.913600  1
  C  C991  1  0.074900  0.834100  0.054800  1
  C  C992  1  0.925100  0.165900  0.945200  1
  C  C993  1  0.115300  0.832300  0.074600  1
  C  C994  1  0.884700  0.167700  0.925400  1
  C  C995  1  0.083200  0.839100  0.123300  1
  C  C996  1  0.916800  0.160900  0.876700  1
  C  C997  1  0.543000  0.836000  0.698700  1
  C  C998  1  0.457000  0.164000  0.301300  1
  C  C999  1  0.569900  0.796400  0.721400  1
  C  C1000  1  0.430100  0.203600  0.278600  1
  C  C1001  1  0.576600  0.746400  0.721100  1
  C  C1002  1  0.423400  0.253600  0.278900  1
  C  C1003  1  0.552000  0.744900  0.690900  1
  C  C1004  1  0.448000  0.255100  0.309100  1
  C  C1005  1  0.514300  0.786300  0.671700  1
  C  C1006  1  0.485700  0.213700  0.328300  1
  C  C1007  1  0.617300  0.698900  0.739300  1
  C  C1008  1  0.382700  0.301100  0.260700  1
  C  C1009  1  0.640900  0.696900  0.777900  1
  C  C1010  1  0.359100  0.303100  0.222100  1
  C  C1011  1  0.668400  0.647400  0.808600  1
  C  C1012  1  0.331600  0.352600  0.191400  1
  C  C1013  1  0.700700  0.664100  0.824900  1
  C  C1014  1  0.299300  0.335900  0.175100  1
  C  C1015  1  0.416800  0.893500  0.758400  1
  C  C1016  1  0.583200  0.106500  0.241600  1
  C  C1017  1  0.398800  0.906100  0.796100  1
  C  C1018  1  0.601200  0.093900  0.203900  1
  C  C1019  1  0.369400  0.966400  0.803800  1
  C  C1020  1  0.630600  0.033600  0.196200  1
  C  C1021  1  0.383500  0.991800  0.759300  1
  C  C1022  1  0.616500  0.008200  0.240700  1
  C  C1023  1  0.405200  0.976100  0.720600  1
  C  C1024  1  0.594800  0.023900  0.279400  1
  C  C1025  1  0.338600  0.977500  0.844700  1
  C  C1026  1  0.661400  0.022500  0.155300  1
  C  C1027  1  0.513800  0.861700  0.561700  1
  C  C1028  1  0.486200  0.138300  0.438300  1
  C  C1029  1  0.429300  0.876700  0.565700  1
  C  C1030  1  0.570700  0.123300  0.434300  1
  C  C1031  1  0.441700  0.854600  0.532100  1
  C  C1032  1  0.558300  0.145400  0.467900  1
  C  C1033  1  0.531100  0.842800  0.524100  1
  C  C1034  1  0.468900  0.157200  0.475900  1
  C  C1035  1  0.491800  0.834800  0.509200  1
  C  C1036  1  0.508200  0.165200  0.490800  1
  C  C1037  1  0.510200  0.811600  0.470600  1
  C  C1038  1  0.489800  0.188400  0.529400  1
  C  C1039  1  0.564900  0.789700  0.446900  1
  C  C1040  1  0.435100  0.210300  0.553100  1
  C  C1041  1  0.322000  0.985900  0.653800  1
  C  C1042  1  0.678000  0.014100  0.346200  1
  C  C1043  1  0.280600  0.021200  0.638600  1
  C  C1044  1  0.719400  0.978800  0.361400  1
  C  C1045  1  0.387000  0.994400  0.585600  1
  C  C1046  1  0.613000  0.005600  0.414400  1
  C  C1047  1  0.339700  0.038600  0.567500  1
  C  C1048  1  0.660300  0.961400  0.432500  1
  C  C1049  1  0.290000  0.047000  0.588900  1
  C  C1050  1  0.710000  0.953000  0.411100  1
  C  C1051  1  0.236600  0.083100  0.575800  1
  C  C1052  1  0.763400  0.916900  0.424200  1
  C  C1053  1  0.245800  0.115700  0.530600  1
  C  C1054  1  0.754200  0.884300  0.469400  1
  C  C1055  1  0.199200  0.156300  0.512800  1
  C  C1056  1  0.800800  0.843700  0.487200  1
  C  C1057  1  0.208700  0.180900  0.465800  1
  C  C1058  1  0.791300  0.819100  0.534200  1
  C  C1059  1  0.318000  0.029000  0.850000  1
  C  C1060  1  0.682000  0.971000  0.150000  1
  N  N1061  1  0.475700  0.821800  0.695900  1
  N  N1062  1  0.524300  0.178200  0.304100  1
  N  N1063  1  0.443600  0.855000  0.603300  1
  N  N1064  1  0.556400  0.145000  0.396700  1
  N  N1065  1  0.349700  0.949500  0.634200  1
  N  N1066  1  0.650300  0.050500  0.365800  1
  N  N1067  1  0.953400  0.957710  0.842330  1
  N  N1068  1  0.046600  0.042290  0.157670  1
  N  N1069  1  0.038100  0.854300  0.585080  1
  N  N1070  1  0.961900  0.145700  0.414920  1
  N  N1071  1  0.053300  0.574000  0.791860  1
  N  N1072  1  0.946700  0.426000  0.208140  1
  N  N1073  1  0.134000  0.773100  0.535220  1
  N  N1074  1  0.866000  0.226900  0.464780  1
  N  N1075  1  0.383160  0.502180  0.629580  1
  N  N1076  1  0.616840  0.497820  0.370420  1
  N  N1077  1  0.455200  0.566700  0.581850  1
  N  N1078  1  0.544800  0.433300  0.418150  1
  N  N1079  1  0.441400  0.461600  0.711360  1
  N  N1080  1  0.558600  0.538400  0.288640  1
  N  N1081  1  0.336100  0.548590  0.982440  1
  N  N1082  1  0.663900  0.451410  0.017560  1
  N  N1083  1  0.423100  0.598400  0.934300  1
  N  N1084  1  0.576900  0.401600  0.065700  1
  N  N1085  1  0.506400  0.527800  0.663000  1
  N  N1086  1  0.493600  0.472200  0.337000  1
  N  N1087  1  0.344200  0.694100  0.976200  1
  N  N1088  1  0.655800  0.305900  0.023800  1
  N  N1089  1  0.071000  0.952800  0.905870  1
  N  N1090  1  0.929000  0.047200  0.094130  1
  N  N1091  1  0.102100  0.924300  0.551400  1
  N  N1092  1  0.897900  0.075700  0.448600  1
  N  N1093  1  0.196700  0.844000  0.502210  1
  N  N1094  1  0.803300  0.156000  0.497790  1
  N  N1095  1  0.035100  0.006600  0.814130  1
  N  N1096  1  0.964900  0.993400  0.185870  1
  N  N1097  1  0.112700  0.515900  0.871910  1
  N  N1098  1  0.887300  0.484100  0.128090  1
  N  N1099  1  0.987900  0.900700  0.933780  1
  N  N1100  1  0.012100  0.099300  0.066220  1
  N  N1101  1  0.259100  0.644630  0.023280  1
  N  N1102  1  0.740900  0.355370  0.976720  1
  N  N1103  1  0.975700  0.656400  0.847820  1
  N  N1104  1  0.024300  0.343600  0.152180  1
  N  N1105  1  0.033800  0.597390  0.928220  1
  N  N1106  1  0.966200  0.402610  0.071780  1
  N  N1107  1  0.383200  0.918500  0.726500  1
  N  N1108  1  0.616800  0.081500  0.273500  1
  N  N1109  1  0.505000  0.838800  0.676700  1
  N  N1110  1  0.495000  0.161200  0.323300  1
  N  N1111  1  0.420200  0.927300  0.717300  1
  N  N1112  1  0.579800  0.072700  0.282700  1
  N  N1113  1  0.464100  0.880700  0.586000  1
  N  N1114  1  0.535900  0.119300  0.414000  1
  N  N1115  1  0.375800  0.971500  0.627400  1
  N  N1116  1  0.624200  0.028500  0.372600  1
  Cl  Cl1117  1  0.946370  0.025970  0.907480  1
  Cl  Cl1118  1  0.053630  0.974030  0.092520  1
  Cl  Cl1119  1  0.081260  0.882530  0.836720  1
  Cl  Cl1120  1  0.918740  0.117470  0.163280  1
  Cl  Cl1121  1  0.375770  0.584560  0.685440  1
  Cl  Cl1122  1  0.624230  0.415440  0.314560  1
  Cl  Cl1123  1  0.517860  0.447620  0.609400  1
  Cl  Cl1124  1  0.482140  0.552380  0.390600  1
  Cl  Cl1125  1  0.983370  0.540430  0.892310  1
  Cl  Cl1126  1  0.016630  0.459570  0.107690  1
  Cl  Cl1127  1  0.104870  0.635170  0.826910  1
  Cl  Cl1128  1  0.895130  0.364830  0.173090  1
  Cl  Cl1129  1  0.300840  0.659560  0.909830  1
  Cl  Cl1130  1  0.699160  0.340440  0.090170  1
  Cl  Cl1131  1  0.380090  0.586820  0.045050  1
  Cl  Cl1132  1  0.619910  0.413180  0.954950  1
  Cl  Cl1133  1  0.083860  0.885380  0.473890  1
  Cl  Cl1134  1  0.916140  0.114620  0.526110  1
  Cl  Cl1135  1  0.154970  0.809700  0.613960  1
  Cl  Cl1136  1  0.845030  0.190300  0.386040  1
  Cl  Cl1137  1  0.471740  0.933140  0.635350  1
  Cl  Cl1138  1  0.528260  0.066860  0.364650  1
  Cl  Cl1139  1  0.351680  0.836690  0.696800  1
  Cl  Cl1140  1  0.648320  0.163310  0.303200  1
  Cl  Cl1141  1  0.501700  0.950180  0.621630  1
  Cl  Cl1142  1  0.498300  0.049820  0.378370  1
  Cl  Cl1143  1  0.382810  0.857320  0.681890  1
  Cl  Cl1144  1  0.617190  0.142680  0.318110  1
  O  O1145  1  0.762100  0.961500  0.730760  1
  O  O1146  1  0.237900  0.038500  0.269240  1
  O  O1147  1  0.838450  0.911730  0.785350  1
  O  O1148  1  0.161550  0.088270  0.214650  1
  O  O1149  1  0.865910  0.888520  0.700630  1
  O  O1150  1  0.134090  0.111480  0.299370  1
  O  O1151  1  0.772400  0.867300  0.722150  1
  O  O1152  1  0.227600  0.132700  0.277850  1
  O  O1153  1  0.127900  0.531510  0.636990  1
  O  O1154  1  0.872100  0.468490  0.363010  1
  O  O1155  1  0.087500  0.535430  0.565440  1
  O  O1156  1  0.912500  0.464570  0.434560  1
  O  O1157  1  0.137900  0.599670  0.558320  1
  O  O1158  1  0.862100  0.400330  0.441680  1
  O  O1159  1  0.184900  0.523700  0.506940  1
  O  O1160  1  0.815100  0.476300  0.493060  1
  O  O1161  1  0.226500  0.517280  0.578740  1
  O  O1162  1  0.773500  0.482720  0.421260  1
  O  O1163  1  0.176200  0.451300  0.588310  1
  O  O1164  1  0.823800  0.548700  0.411690  1
  O  O1165  1  0.480500  0.710680  0.457390  1
  O  O1166  1  0.519500  0.289320  0.542610  1
  O  O1167  1  0.474400  0.744050  0.362950  1
  O  O1168  1  0.525600  0.255950  0.637050  1
  O  O1169  1  0.426400  0.289910  0.931700  1
  O  O1170  1  0.573600  0.710090  0.068300  1
  O  O1171  1  0.379000  0.365140  0.862540  1
  O  O1172  1  0.621000  0.634860  0.137460  1
  O  O1173  1  0.355600  0.390070  0.946190  1
  O  O1174  1  0.644400  0.609930  0.053810  1
  O  O1175  1  0.323500  0.309460  0.991030  1
  O  O1176  1  0.676500  0.690540  0.008970  1
  O  O1177  1  0.689400  0.514300  0.792460  1
  O  O1178  1  0.310600  0.485700  0.207540  1
  O  O1179  1  0.589850  0.592710  0.817690  1
  O  O1180  1  0.410150  0.407290  0.182310  1
  O  O1181  1  0.714400  0.575900  0.711590  1
  O  O1182  1  0.285600  0.424100  0.288410  1
  O  O1183  1  0.616400  0.561800  0.737180  1
  O  O1184  1  0.383600  0.438200  0.262820  1
  O  O1185  1  0.685100  0.612500  0.794500  1
  O  O1186  1  0.314900  0.387500  0.205500  1
  O  O1187  1  0.613600  0.654000  0.738800  1
  O  O1188  1  0.386400  0.346000  0.261200  1
  O  O1189  1  0.365900  0.931200  0.963730  1
  O  O1190  1  0.634100  0.068800  0.036270  1
  O  O1191  1  0.308500  0.875720  0.964470  1
  O  O1192  1  0.691500  0.124280  0.035530  1
  O  O1193  1  0.261800  0.954200  0.012570  1
  O  O1194  1  0.738200  0.045800  0.987430  1
  O  O1195  1  0.229900  0.962510  0.934580  1
  O  O1196  1  0.770100  0.037490  0.065420  1
  O  O1197  1  0.040200  0.176640  0.581880  1
  O  O1198  1  0.959800  0.823360  0.418120  1
  O  O1199  1  0.113000  0.077920  0.572280  1
  O  O1200  1  0.887000  0.922080  0.427720  1
  O  O1201  1  0.461500  0.839560  0.365220  1
  O  O1202  1  0.538500  0.160440  0.634780  1
  O  O1203  1  0.393520  0.793020  0.430900  1
  O  O1204  1  0.606480  0.206980  0.569100  1
  O  O1205  1  0.111200  0.188190  0.617600  1
  O  O1206  1  0.888800  0.811810  0.382400  1
  O  O1207  1  0.081800  0.103080  0.655270  1
  O  O1208  1  0.918200  0.896920  0.344730  1
  O  O1209  1  0.344000  0.283880  0.905620  1
  O  O1210  1  0.656000  0.716120  0.094380  1
  O  O1211  1  0.278800  0.381720  0.919090  1
  O  O1212  1  0.721200  0.618280  0.080910  1
  O  O1213  1  0.990300  0.724350  0.164830  1
  O  O1214  1  0.009700  0.275650  0.835170  1
  O  O1215  1  0.067700  0.674530  0.096180  1
  O  O1216  1  0.932300  0.325470  0.903820  1
  O  O1217  1  0.549300  0.757420  0.393310  1
  O  O1218  1  0.450700  0.242580  0.606690  1
  O  O1219  1  0.463500  0.808700  0.457500  1
  O  O1220  1  0.536500  0.191300  0.542500  1
  O  O1221  1  0.141000  0.164900  0.531800  1
  O  O1222  1  0.859000  0.835100  0.468200  1
  O  O1223  1  0.181000  0.095500  0.607900  1
  O  O1224  1  0.819000  0.904500  0.392100  1
  O  O1225  1  0.746600  0.889000  0.809060  1
  O  O1226  1  0.253400  0.111000  0.190940  1
  O  O1227  1  0.848220  0.818700  0.778580  1
  O  O1228  1  0.151780  0.181300  0.221420  1
  O  O1229  1  0.909000  0.722500  0.129960  1
  O  O1230  1  0.091000  0.277500  0.870040  1
  O  O1231  1  0.986890  0.761930  0.071730  1
  O  O1232  1  0.013110  0.238070  0.928270  1
  O  O1233  1  0.994800  0.632620  0.156810  1
  O  O1234  1  0.005200  0.367380  0.843190  1
  O  O1235  1  0.992240  0.671780  0.063490  1
  O  O1236  1  0.007760  0.328220  0.936510  1
  O  O1237  1  0.287630  0.019910  0.932290  1
  O  O1238  1  0.712370  0.980090  0.067710  1
  O  O1239  1  0.329630  0.942300  0.885760  1
  O  O1240  1  0.670370  0.057700  0.114240  1
  O  O1241  1  0.122600  0.146200  0.795900  1
  O  O1242  1  0.877400  0.853800  0.204100  1
  O  O1243  1  0.377000  0.275000  0.758600  1
  O  O1244  1  0.623000  0.725000  0.241400  1
  O  O1245  1  0.193700  0.350900  0.798800  1
  O  O1246  1  0.806300  0.649100  0.201200  1
  O  O1247  1  0.028600  0.847100  0.128600  1
  O  O1248  1  0.971400  0.152900  0.871400  1
  O  O1249  1  0.617000  0.655400  0.732400  1
  O  O1250  1  0.383000  0.344600  0.267600  1
  O  O1251  1  0.681900  0.602900  0.797600  1
  O  O1252  1  0.318100  0.397100  0.202400  1
  O  O1253  1  0.475300  0.805700  0.458600  1
  O  O1254  1  0.524700  0.194300  0.541400  1
  O  O1255  1  0.186800  0.087500  0.603600  1
  O  O1256  1  0.813200  0.912500  0.396400  1
  O  O1257  1  0.152600  0.153200  0.531000  1
  O  O1258  1  0.847400  0.846800  0.469000  1
