# generated using pymatgen
data_Cr4Co3H96C114S6(N3O4)6
_symmetry_space_group_name_H-M   'P 1'
_cell_length_a   30.66650000
_cell_length_b   33.25251710
_cell_length_c   33.25251710
_cell_angle_alpha   77.72362639
_cell_angle_beta   62.54088990
_cell_angle_gamma   62.54088990
_symmetry_Int_Tables_number   1
_chemical_formula_structural   Cr4Co3H96C114S6(N3O4)6
_chemical_formula_sum   'Cr16 Co12 H384 C456 S24 N72 O96'
_cell_volume   26698.90925012
_cell_formula_units_Z   4
loop_
 _symmetry_equiv_pos_site_id
 _symmetry_equiv_pos_as_xyz
  1  'x, y, z'
loop_
 _atom_site_type_symbol
 _atom_site_label
 _atom_site_symmetry_multiplicity
 _atom_site_fract_x
 _atom_site_fract_y
 _atom_site_fract_z
 _atom_site_occupancy
  C  C1  1  0.675090  0.649820  0.500000  1.0
  C  C2  1  0.574910  1.000000  0.850180  1.0
  C  C3  1  0.824910  0.350180  0.500000  1.0
  C  C4  1  0.425090  0.000000  0.149820  1.0
  C  C5  1  0.563800  0.872400  0.500000  1.0
  C  C6  1  0.686200  0.000000  0.627600  1.0
  C  C7  1  0.936200  0.127600  0.500000  1.0
  C  C8  1  0.313800  0.000000  0.372400  1.0
  C  C9  1  0.840890  0.198300  0.817800  1.0
  C  C10  1  0.289190  0.317800  0.301700  1.0
  C  C11  1  0.856990  0.801700  0.182200  1.0
  C  C12  1  0.908690  0.682200  0.698300  1.0
  C  C13  1  0.409110  0.682200  0.301700  1.0
  C  C14  1  0.393010  0.317800  0.698300  1.0
  C  C15  1  0.341310  0.801700  0.817800  1.0
  C  C16  1  0.960810  0.198300  0.182200  1.0
  C  C17  1  0.805340  0.243250  0.805970  1.0
  C  C18  1  0.298590  0.305970  0.256750  1.0
  C  C19  1  0.854560  0.756750  0.194030  1.0
  C  C20  1  0.861310  0.694030  0.743250  1.0
  C  C21  1  0.444660  0.694030  0.256750  1.0
  C  C22  1  0.395440  0.305970  0.743250  1.0
  C  C23  1  0.388690  0.756750  0.805970  1.0
  C  C24  1  0.951410  0.243250  0.194030  1.0
  C  C25  1  0.818590  0.279870  0.786410  1.0
  C  C26  1  0.348460  0.286410  0.220130  1.0
  C  C27  1  0.884870  0.720130  0.213590  1.0
  C  C28  1  0.855000  0.713590  0.779870  1.0
  C  C29  1  0.431410  0.713590  0.220130  1.0
  C  C30  1  0.365130  0.286410  0.779870  1.0
  C  C31  1  0.395000  0.720130  0.786410  1.0
  C  C32  1  0.901540  0.279870  0.213590  1.0
  C  C33  1  0.775250  0.321930  0.778750  1.0
  C  C34  1  0.347180  0.278750  0.178070  1.0
  C  C35  1  0.875930  0.678070  0.221250  1.0
  C  C36  1  0.804000  0.721250  0.821930  1.0
  C  C37  1  0.474750  0.721250  0.178070  1.0
  C  C38  1  0.374070  0.278750  0.821930  1.0
  C  C39  1  0.446000  0.678070  0.778750  1.0
  C  C40  1  0.902820  0.321930  0.221250  1.0
  C  C41  1  0.788640  0.361160  0.760700  1.0
  C  C42  1  0.399800  0.260700  0.138840  1.0
  C  C43  1  0.910500  0.638840  0.239300  1.0
  C  C44  1  0.799340  0.739300  0.861160  1.0
  C  C45  1  0.461360  0.739300  0.138840  1.0
  C  C46  1  0.339500  0.260700  0.861160  1.0
  C  C47  1  0.450660  0.638840  0.760700  1.0
  C  C48  1  0.850200  0.361160  0.239300  1.0
  C  C49  1  0.755620  0.395920  0.745880  1.0
  C  C50  1  0.401540  0.245880  0.104080  1.0
  C  C51  1  0.897420  0.604080  0.254120  1.0
  C  C52  1  0.751500  0.754120  0.895920  1.0
  C  C53  1  0.494380  0.754120  0.104080  1.0
  C  C54  1  0.352580  0.245880  0.895920  1.0
  C  C55  1  0.498500  0.604080  0.745880  1.0
  C  C56  1  0.848460  0.395920  0.254120  1.0
  C  C57  1  0.769680  0.435060  0.727520  1.0
  C  C58  1  0.454740  0.227520  0.064940  1.0
  C  C59  1  0.932260  0.564940  0.272480  1.0
  C  C60  1  0.747200  0.772480  0.935060  1.0
  C  C61  1  0.480320  0.772480  0.064940  1.0
  C  C62  1  0.317740  0.227520  0.935060  1.0
  C  C63  1  0.502800  0.564940  0.727520  1.0
  C  C64  1  0.795260  0.435060  0.272480  1.0
  C  C65  1  0.848180  0.400580  0.736880  1.0
  C  C66  1  0.498760  0.236880  0.099420  1.0
  C  C67  1  0.985640  0.599420  0.263120  1.0
  C  C68  1  0.835060  0.763120  0.900580  1.0
  C  C69  1  0.401820  0.763120  0.099420  1.0
  C  C70  1  0.264360  0.236880  0.900580  1.0
  C  C71  1  0.414940  0.599420  0.736880  1.0
  C  C72  1  0.751240  0.400580  0.263120  1.0
  C  C73  1  0.834910  0.363020  0.755800  1.0
  C  C74  1  0.447930  0.255800  0.136980  1.0
  C  C75  1  0.953730  0.636980  0.244200  1.0
  C  C76  1  0.840710  0.744200  0.863020  1.0
  C  C77  1  0.415090  0.744200  0.136980  1.0
  C  C78  1  0.296270  0.255800  0.863020  1.0
  C  C79  1  0.409290  0.636980  0.755800  1.0
  C  C80  1  0.802070  0.363020  0.244200  1.0
  C  C81  1  0.588210  0.348250  0.927390  1.0
  C  C82  1  0.186460  0.427390  0.151750  1.0
  C  C83  1  0.863850  0.651750  0.072610  1.0
  C  C84  1  0.765600  0.572610  0.848250  1.0
  C  C85  1  0.661790  0.572610  0.151750  1.0
  C  C86  1  0.386150  0.427390  0.848250  1.0
  C  C87  1  0.484400  0.651750  0.927390  1.0
  C  C88  1  0.063540  0.348250  0.072610  1.0
  C  C89  1  0.611560  0.336530  0.879470  1.0
  C  C90  1  0.198090  0.379470  0.163470  1.0
  C  C91  1  0.827560  0.663470  0.120530  1.0
  C  C92  1  0.741030  0.620530  0.836530  1.0
  C  C93  1  0.638440  0.620530  0.163470  1.0
  C  C94  1  0.422440  0.379470  0.836530  1.0
  C  C95  1  0.508970  0.663470  0.879470  1.0
  C  C96  1  0.051910  0.336530  0.120530  1.0
  C  C97  1  0.585390  0.367030  0.852310  1.0
  C  C98  1  0.202420  0.352310  0.132970  1.0
  C  C99  1  0.804730  0.632970  0.147690  1.0
  C  C100  1  0.687700  0.647690  0.867030  1.0
  C  C101  1  0.664610  0.647690  0.132970  1.0
  C  C102  1  0.445270  0.352310  0.867030  1.0
  C  C103  1  0.562300  0.632970  0.852310  1.0
  C  C104  1  0.047580  0.367030  0.147690  1.0
  C  C105  1  0.603170  0.360450  0.806990  1.0
  C  C106  1  0.213620  0.306990  0.139550  1.0
  C  C107  1  0.770610  0.639550  0.193010  1.0
  C  C108  1  0.660160  0.693010  0.860450  1.0
  C  C109  1  0.646830  0.693010  0.139550  1.0
  C  C110  1  0.479390  0.306990  0.860450  1.0
  C  C111  1  0.589840  0.639550  0.806990  1.0
  C  C112  1  0.036380  0.360450  0.193010  1.0
  C  C113  1  0.571000  0.396330  0.783250  1.0
  C  C114  1  0.217330  0.283250  0.103670  1.0
  C  C115  1  0.750580  0.603670  0.216750  1.0
  C  C116  1  0.604250  0.716750  0.896330  1.0
  C  C117  1  0.679000  0.716750  0.103670  1.0
  C  C118  1  0.499420  0.283250  0.896330  1.0
  C  C119  1  0.645750  0.603670  0.783250  1.0
  C  C120  1  0.032670  0.396330  0.216750  1.0
  C  C121  1  0.518920  0.429810  0.801790  1.0
  C  C122  1  0.198730  0.301790  0.070190  1.0
  C  C123  1  0.750520  0.570190  0.198210  1.0
  C  C124  1  0.570710  0.698210  0.929810  1.0
  C  C125  1  0.731080  0.698210  0.070190  1.0
  C  C126  1  0.499480  0.301790  0.929810  1.0
  C  C127  1  0.679290  0.570190  0.801790  1.0
  C  C128  1  0.051270  0.429810  0.198210  1.0
  C  C129  1  0.494660  0.461120  0.776200  1.0
  C  C130  1  0.205780  0.276200  0.038880  1.0
  C  C131  1  0.731980  0.538880  0.223800  1.0
  C  C132  1  0.520860  0.723800  0.961120  1.0
  C  C133  1  0.755340  0.723800  0.038880  1.0
  C  C134  1  0.518020  0.276200  0.961120  1.0
  C  C135  1  0.729140  0.538880  0.776200  1.0
  C  C136  1  0.044220  0.461120  0.223800  1.0
  C  C137  1  0.569510  0.431920  0.711280  1.0
  C  C138  1  0.251430  0.211280  0.068080  1.0
  C  C139  1  0.712710  0.568080  0.288720  1.0
  C  C140  1  0.530790  0.788720  0.931920  1.0
  C  C141  1  0.680490  0.788720  0.068080  1.0
  C  C142  1  0.537290  0.211280  0.931920  1.0
  C  C143  1  0.719210  0.568080  0.711280  1.0
  C  C144  1  0.998570  0.431920  0.288720  1.0
  C  C145  1  0.593930  0.399300  0.736640  1.0
  C  C146  1  0.243230  0.236640  0.100700  1.0
  C  C147  1  0.729870  0.600700  0.263360  1.0
  C  C148  1  0.580570  0.763360  0.899300  1.0
  C  C149  1  0.656070  0.763360  0.100700  1.0
  C  C150  1  0.520130  0.236640  0.899300  1.0
  C  C151  1  0.669430  0.600700  0.736640  1.0
  C  C152  1  0.006770  0.399300  0.263360  1.0
  C  C153  1  0.647880  0.186950  0.796230  1.0
  C  C154  1  0.084830  0.296230  0.313050  1.0
  C  C155  1  0.631060  0.813050  0.203770  1.0
  C  C156  1  0.694110  0.703770  0.686950  1.0
  C  C157  1  0.602120  0.703770  0.313050  1.0
  C  C158  1  0.618940  0.296230  0.686950  1.0
  C  C159  1  0.555890  0.813050  0.796230  1.0
  C  C160  1  0.165170  0.186950  0.203770  1.0
  C  C161  1  0.675020  0.218300  0.780440  1.0
  C  C162  1  0.143320  0.280440  0.281700  1.0
  C  C163  1  0.673760  0.781700  0.219560  1.0
  C  C164  1  0.705460  0.719560  0.718300  1.0
  C  C165  1  0.574980  0.719560  0.281700  1.0
  C  C166  1  0.576240  0.280440  0.718300  1.0
  C  C167  1  0.544540  0.781700  0.780440  1.0
  C  C168  1  0.106680  0.218300  0.219560  1.0
  C  C169  1  0.714110  0.209720  0.734180  1.0
  C  C170  1  0.173830  0.234180  0.290280  1.0
  C  C171  1  0.658010  0.790280  0.265820  1.0
  C  C172  1  0.698290  0.765820  0.709720  1.0
  C  C173  1  0.535890  0.765820  0.290280  1.0
  C  C174  1  0.591990  0.234180  0.709720  1.0
  C  C175  1  0.551710  0.790280  0.734180  1.0
  C  C176  1  0.076170  0.209720  0.265820  1.0
  C  C177  1  0.739190  0.244100  0.716340  1.0
  C  C178  1  0.233290  0.216340  0.255900  1.0
  C  C179  1  0.699630  0.755900  0.283660  1.0
  C  C180  1  0.705530  0.783660  0.744100  1.0
  C  C181  1  0.510810  0.783660  0.255900  1.0
  C  C182  1  0.550370  0.216340  0.744100  1.0
  C  C183  1  0.544470  0.755900  0.716340  1.0
  C  C184  1  0.016710  0.244100  0.283660  1.0
  C  C185  1  0.774230  0.236120  0.664640  1.0
  C  C186  1  0.260350  0.164640  0.263880  1.0
  C  C187  1  0.674990  0.763880  0.335360  1.0
  C  C188  1  0.688870  0.835360  0.736120  1.0
  C  C189  1  0.475770  0.835360  0.263880  1.0
  C  C190  1  0.575010  0.164640  0.736120  1.0
  C  C191  1  0.561130  0.763880  0.664640  1.0
  C  C192  1  0.989650  0.236120  0.335360  1.0
  C  C193  1  0.782890  0.207730  0.639030  1.0
  C  C194  1  0.240620  0.139030  0.292270  1.0
  C  C195  1  0.629650  0.792270  0.360970  1.0
  C  C196  1  0.671920  0.860970  0.707730  1.0
  C  C197  1  0.467110  0.860970  0.292270  1.0
  C  C198  1  0.620350  0.139030  0.707730  1.0
  C  C199  1  0.578080  0.792270  0.639030  1.0
  C  C200  1  0.009380  0.207730  0.360970  1.0
  C  C201  1  0.810060  0.207150  0.595110  1.0
  C  C202  1  0.267210  0.095110  0.292850  1.0
  C  C203  1  0.612320  0.792850  0.404890  1.0
  C  C204  1  0.655170  0.904890  0.707150  1.0
  C  C205  1  0.439940  0.904890  0.292850  1.0
  C  C206  1  0.637680  0.095110  0.707150  1.0
  C  C207  1  0.594830  0.792850  0.595110  1.0
  C  C208  1  0.982790  0.207150  0.404890  1.0
  C  C209  1  0.825520  0.268580  0.597960  1.0
  C  C210  1  0.344100  0.097960  0.231420  1.0
  C  C211  1  0.692060  0.731420  0.402040  1.0
  C  C212  1  0.673480  0.902040  0.768580  1.0
  C  C213  1  0.424480  0.902040  0.231420  1.0
  C  C214  1  0.557940  0.097960  0.768580  1.0
  C  C215  1  0.576520  0.731420  0.597960  1.0
  C  C216  1  0.905900  0.268580  0.402040  1.0
  C  C217  1  0.800720  0.266030  0.642490  1.0
  C  C218  1  0.316750  0.142490  0.233970  1.0
  C  C219  1  0.709240  0.733970  0.357510  1.0
  C  C220  1  0.693210  0.857510  0.766030  1.0
  C  C221  1  0.449280  0.857510  0.233970  1.0
  C  C222  1  0.540760  0.142490  0.766030  1.0
  C  C223  1  0.556790  0.733970  0.642490  1.0
  C  C224  1  0.933250  0.266030  0.357510  1.0
  C  C225  1  0.278160  0.631410  0.503390  1.0
  C  C226  1  0.159570  0.003390  0.868590  1.0
  C  C227  1  0.412960  0.368590  0.496610  1.0
  C  C228  1  0.031550  0.996610  0.131410  1.0
  C  C229  1  0.971840  0.996610  0.868590  1.0
  C  C230  1  0.837040  0.003390  0.131410  1.0
  C  C231  1  0.218450  0.368590  0.503390  1.0
  C  C232  1  0.090430  0.631410  0.496610  1.0
  C  C233  1  0.312220  0.648460  0.510680  1.0
  C  C234  1  0.210680  0.010680  0.851540  1.0
  C  C235  1  0.471360  0.351540  0.489320  1.0
  C  C236  1  0.072900  0.989320  0.148460  1.0
  C  C237  1  0.937780  0.989320  0.851540  1.0
  C  C238  1  0.778640  0.010680  0.148460  1.0
  C  C239  1  0.177100  0.351540  0.510680  1.0
  C  C240  1  0.039320  0.648460  0.489320  1.0
  C  C241  1  0.337950  0.622150  0.540350  1.0
  C  C242  1  0.210100  0.040350  0.877850  1.0
  C  C243  1  0.500450  0.377850  0.459650  1.0
  C  C244  1  0.128300  0.959650  0.122150  1.0
  C  C245  1  0.912050  0.959650  0.877850  1.0
  C  C246  1  0.749550  0.040350  0.122150  1.0
  C  C247  1  0.121700  0.377850  0.540350  1.0
  C  C248  1  0.039900  0.622150  0.459650  1.0
  C  C249  1  0.366480  0.633050  0.556030  1.0
  C  C250  1  0.249530  0.056030  0.866950  1.0
  C  C251  1  0.555560  0.366950  0.443970  1.0
  C  C252  1  0.172510  0.943970  0.133050  1.0
  C  C253  1  0.883520  0.943970  0.866950  1.0
  C  C254  1  0.694440  0.056030  0.133050  1.0
  C  C255  1  0.077490  0.366950  0.556030  1.0
  C  C256  1  0.000470  0.633050  0.443970  1.0
  C  C257  1  0.389390  0.604330  0.589010  1.0
  C  C258  1  0.243720  0.089010  0.895670  1.0
  C  C259  1  0.582730  0.395670  0.410990  1.0
  C  C260  1  0.228400  0.910990  0.104330  1.0
  C  C261  1  0.860610  0.910990  0.895670  1.0
  C  C262  1  0.667270  0.089010  0.104330  1.0
  C  C263  1  0.021600  0.395670  0.589010  1.0
  C  C264  1  0.006280  0.604330  0.410990  1.0
  C  C265  1  0.427770  0.607550  0.595110  1.0
  C  C266  1  0.285320  0.095110  0.892450  1.0
  C  C267  1  0.630430  0.392450  0.404890  1.0
  C  C268  1  0.272880  0.904890  0.107550  1.0
  C  C269  1  0.822230  0.904890  0.892450  1.0
  C  C270  1  0.619570  0.095110  0.107550  1.0
  C  C271  1  0.977120  0.392450  0.595110  1.0
  C  C272  1  0.964680  0.607550  0.404890  1.0
  C  C273  1  0.453360  0.581560  0.620060  1.0
  C  C274  1  0.284920  0.120060  0.918440  1.0
  C  C275  1  0.654980  0.418440  0.379940  1.0
  C  C276  1  0.323420  0.879940  0.081560  1.0
  C  C277  1  0.796640  0.879940  0.918440  1.0
  C  C278  1  0.595020  0.120060  0.081560  1.0
  C  C279  1  0.926580  0.418440  0.620060  1.0
  C  C280  1  0.965080  0.581560  0.379940  1.0
  C  C281  1  0.400170  0.546950  0.639650  1.0
  C  C282  1  0.197120  0.139650  0.953050  1.0
  C  C283  1  0.586770  0.453050  0.360350  1.0
  C  C284  1  0.289820  0.860350  0.046950  1.0
  C  C285  1  0.849830  0.860350  0.953050  1.0
  C  C286  1  0.663230  0.139650  0.046950  1.0
  C  C287  1  0.960180  0.453050  0.639650  1.0
  C  C288  1  0.052880  0.546950  0.360350  1.0
  C  C289  1  0.379600  0.570450  0.612990  1.0
  C  C290  1  0.200050  0.112990  0.929550  1.0
  C  C291  1  0.563040  0.429550  0.387010  1.0
  C  C292  1  0.242590  0.887010  0.070450  1.0
  C  C293  1  0.870400  0.887010  0.929550  1.0
  C  C294  1  0.686960  0.112990  0.070450  1.0
  C  C295  1  0.007410  0.429550  0.612990  1.0
  C  C296  1  0.049950  0.570450  0.387010  1.0
  C  C297  1  0.255660  0.803440  0.598640  1.0
  C  C298  1  0.309100  0.098640  0.696560  1.0
  C  C299  1  0.657740  0.196560  0.401360  1.0
  C  C300  1  0.104300  0.901360  0.303440  1.0
  C  C301  1  0.994340  0.901360  0.696560  1.0
  C  C302  1  0.592260  0.098640  0.303440  1.0
  C  C303  1  0.145700  0.196560  0.598640  1.0
  C  C304  1  0.940900  0.803440  0.401360  1.0
  C  C305  1  0.307590  0.778690  0.558730  1.0
  C  C306  1  0.336280  0.058730  0.721310  1.0
  C  C307  1  0.645010  0.221310  0.441270  1.0
  C  C308  1  0.116320  0.941270  0.278690  1.0
  C  C309  1  0.942410  0.941270  0.721310  1.0
  C  C310  1  0.604990  0.058730  0.278690  1.0
  C  C311  1  0.133680  0.221310  0.558730  1.0
  C  C312  1  0.913720  0.778690  0.441270  1.0
  C  C313  1  0.355890  0.782870  0.553550  1.0
  C  C314  1  0.388760  0.053550  0.717130  1.0
  C  C315  1  0.692310  0.217130  0.446450  1.0
  C  C316  1  0.159440  0.946450  0.282870  1.0
  C  C317  1  0.894110  0.946450  0.717130  1.0
  C  C318  1  0.557690  0.053550  0.282870  1.0
  C  C319  1  0.090560  0.217130  0.553550  1.0
  C  C320  1  0.861240  0.782870  0.446450  1.0
  C  C321  1  0.404050  0.753640  0.520760  1.0
  C  C322  1  0.407690  0.020760  0.746360  1.0
  C  C323  1  0.678450  0.246360  0.479240  1.0
  C  C324  1  0.174810  0.979240  0.253640  1.0
  C  C325  1  0.845950  0.979240  0.746360  1.0
  C  C326  1  0.571550  0.020760  0.253640  1.0
  C  C327  1  0.075190  0.246360  0.520760  1.0
  C  C328  1  0.842310  0.753640  0.479240  1.0
  C  C329  1  0.451970  0.757570  0.519450  1.0
  C  C330  1  0.459540  0.019450  0.742430  1.0
  C  C331  1  0.728990  0.242430  0.480550  1.0
  C  C332  1  0.221420  0.980550  0.257570  1.0
  C  C333  1  0.798030  0.980550  0.742430  1.0
  C  C334  1  0.521010  0.019450  0.257570  1.0
  C  C335  1  0.028580  0.242430  0.519450  1.0
  C  C336  1  0.790460  0.757570  0.480550  1.0
  C  C337  1  0.456120  0.788670  0.537430  1.0
  C  C338  1  0.494790  0.037430  0.711330  1.0
  C  C339  1  0.782220  0.211330  0.462570  1.0
  C  C340  1  0.243550  0.962570  0.288670  1.0
  C  C341  1  0.793880  0.962570  0.711330  1.0
  C  C342  1  0.467780  0.037430  0.288670  1.0
  C  C343  1  0.006450  0.211330  0.537430  1.0
  C  C344  1  0.755210  0.788670  0.462570  1.0
  C  C345  1  0.497200  0.792980  0.533860  1.0
  C  C346  1  0.540180  0.033860  0.707020  1.0
  C  C347  1  0.824040  0.207020  0.466140  1.0
  C  C348  1  0.281060  0.966140  0.292980  1.0
  C  C349  1  0.752800  0.966140  0.707020  1.0
  C  C350  1  0.425960  0.033860  0.292980  1.0
  C  C351  1  0.968940  0.207020  0.533860  1.0
  C  C352  1  0.709820  0.792980  0.466140  1.0
  C  C353  1  0.544670  0.727000  0.491480  1.0
  C  C354  1  0.521670  0.991480  0.773000  1.0
  C  C355  1  0.763150  0.273000  0.508520  1.0
  C  C356  1  0.286150  0.008520  0.227000  1.0
  C  C357  1  0.705330  0.008520  0.773000  1.0
  C  C358  1  0.486850  0.991480  0.227000  1.0
  C  C359  1  0.963850  0.273000  0.491480  1.0
  C  C360  1  0.728330  0.727000  0.508520  1.0
  C  C361  1  0.505250  0.723310  0.490950  1.0
  C  C362  1  0.478560  0.990950  0.776690  1.0
  C  C363  1  0.719510  0.276690  0.509050  1.0
  C  C364  1  0.246200  0.009050  0.223310  1.0
  C  C365  1  0.744750  0.009050  0.776690  1.0
  C  C366  1  0.530490  0.990950  0.223310  1.0
  C  C367  1  0.003800  0.276690  0.490950  1.0
  C  C368  1  0.771440  0.723310  0.509050  1.0
  C  C369  1  0.376990  0.783980  0.369360  1.0
  C  C370  1  0.410970  0.869360  0.716020  1.0
  C  C371  1  0.530330  0.216020  0.630640  1.0
  C  C372  1  0.996350  0.130640  0.283980  1.0
  C  C373  1  0.873010  0.130640  0.716020  1.0
  C  C374  1  0.719670  0.869360  0.283980  1.0
  C  C375  1  0.253650  0.216020  0.369360  1.0
  C  C376  1  0.839030  0.783980  0.630640  1.0
  C  C377  1  0.391580  0.743410  0.399210  1.0
  C  C378  1  0.384990  0.899210  0.756590  1.0
  C  C379  1  0.534200  0.256590  0.600790  1.0
  C  C380  1  0.040790  0.100790  0.243410  1.0
  C  C381  1  0.858420  0.100790  0.756590  1.0
  C  C382  1  0.715800  0.899210  0.243410  1.0
  C  C383  1  0.209210  0.256590  0.399210  1.0
  C  C384  1  0.865010  0.743410  0.600790  1.0
  C  C385  1  0.439890  0.704880  0.384220  1.0
  C  C386  1  0.394770  0.884220  0.795120  1.0
  C  C387  1  0.528990  0.295120  0.615780  1.0
  C  C388  1  0.074110  0.115780  0.204880  1.0
  C  C389  1  0.810110  0.115780  0.795120  1.0
  C  C390  1  0.721010  0.884220  0.204880  1.0
  C  C391  1  0.175890  0.295120  0.384220  1.0
  C  C392  1  0.855230  0.704880  0.615780  1.0
  C  C393  1  0.455620  0.667930  0.405150  1.0
  C  C394  1  0.373550  0.905150  0.832070  1.0
  C  C395  1  0.528700  0.332070  0.594850  1.0
  C  C396  1  0.110770  0.094850  0.167930  1.0
  C  C397  1  0.794380  0.094850  0.832070  1.0
  C  C398  1  0.721300  0.905150  0.167930  1.0
  C  C399  1  0.139230  0.332070  0.405150  1.0
  C  C400  1  0.876450  0.667930  0.594850  1.0
  C  C401  1  0.501690  0.627670  0.383470  1.0
  C  C402  1  0.379360  0.883470  0.872330  1.0
  C  C403  1  0.512830  0.372330  0.616530  1.0
  C  C404  1  0.135160  0.116530  0.127670  1.0
  C  C405  1  0.748310  0.116530  0.872330  1.0
  C  C406  1  0.737170  0.883470  0.127670  1.0
  C  C407  1  0.114840  0.372330  0.383470  1.0
  C  C408  1  0.870640  0.627670  0.616530  1.0
  C  C409  1  0.529700  0.621720  0.336460  1.0
  C  C410  1  0.401420  0.836460  0.878280  1.0
  C  C411  1  0.487880  0.378280  0.663540  1.0
  C  C412  1  0.116160  0.163540  0.121720  1.0
  C  C413  1  0.720300  0.163540  0.878280  1.0
  C  C414  1  0.762120  0.836460  0.121720  1.0
  C  C415  1  0.133840  0.378280  0.336460  1.0
  C  C416  1  0.848580  0.621720  0.663540  1.0
  C  C417  1  0.579720  0.581470  0.319070  1.0
  C  C418  1  0.411190  0.819070  0.918530  1.0
  C  C419  1  0.480260  0.418530  0.680930  1.0
  C  C420  1  0.148790  0.180930  0.081470  1.0
  C  C421  1  0.670280  0.180930  0.918530  1.0
  C  C422  1  0.769740  0.819070  0.081470  1.0
  C  C423  1  0.101210  0.418530  0.319070  1.0
  C  C424  1  0.838810  0.581470  0.680930  1.0
  C  C425  1  0.575610  0.556440  0.384800  1.0
  C  C426  1  0.382050  0.884800  0.943560  1.0
  C  C427  1  0.516850  0.443560  0.615200  1.0
  C  C428  1  0.210410  0.115200  0.056440  1.0
  C  C429  1  0.674390  0.115200  0.943560  1.0
  C  C430  1  0.733150  0.884800  0.056440  1.0
  C  C431  1  0.039590  0.443560  0.384800  1.0
  C  C432  1  0.867950  0.556440  0.615200  1.0
  C  C433  1  0.526270  0.591930  0.409890  1.0
  C  C434  1  0.368200  0.909890  0.908070  1.0
  C  C435  1  0.528090  0.408070  0.590110  1.0
  C  C436  1  0.186160  0.090110  0.091930  1.0
  C  C437  1  0.723730  0.090110  0.908070  1.0
  C  C438  1  0.721910  0.909890  0.091930  1.0
  C  C439  1  0.063840  0.408070  0.409890  1.0
  C  C440  1  0.881800  0.591930  0.590110  1.0
  C  C441  1  0.590100  0.507590  0.612030  1.0
  C  C442  1  0.347690  0.112030  0.992410  1.0
  C  C443  1  0.709720  0.492410  0.387970  1.0
  C  C444  1  0.452130  0.887970  0.007590  1.0
  C  C445  1  0.659900  0.887970  0.992410  1.0
  C  C446  1  0.540280  0.112030  0.007590  1.0
  C  C447  1  0.797870  0.492410  0.612030  1.0
  C  C448  1  0.902310  0.507590  0.387970  1.0
  C  C449  1  0.358950  0.515590  0.763310  1.0
  C  C450  1  0.124540  0.263310  0.984410  1.0
  C  C451  1  0.637850  0.484410  0.236690  1.0
  C  C452  1  0.372260  0.736690  0.015590  1.0
  C  C453  1  0.891050  0.736690  0.984410  1.0
  C  C454  1  0.612150  0.263310  0.015590  1.0
  C  C455  1  0.877740  0.484410  0.763310  1.0
  C  C456  1  0.125460  0.515590  0.236690  1.0
  Co  Co457  1  0.618980  0.762040  0.500000  1.0
  Co  Co458  1  0.631020  0.000000  0.737960  1.0
  Co  Co459  1  0.881020  0.237960  0.500000  1.0
  Co  Co460  1  0.368980  0.000000  0.262040  1.0
  Co  Co461  1  0.477300  0.507690  0.689470  1.0
  Co  Co462  1  0.234990  0.189470  0.992310  1.0
  Co  Co463  1  0.674460  0.492310  0.310530  1.0
  Co  Co464  1  0.416770  0.810530  0.007690  1.0
  Co  Co465  1  0.772700  0.810530  0.992310  1.0
  Co  Co466  1  0.575540  0.189470  0.007690  1.0
  Co  Co467  1  0.833230  0.492310  0.689470  1.0
  Co  Co468  1  0.015010  0.507690  0.310530  1.0
  Cr  Cr469  1  0.699450  0.284640  0.800100  1.0
  Cr  Cr470  1  0.234090  0.300100  0.215360  1.0
  Cr  Cr471  1  0.784190  0.715360  0.199900  1.0
  Cr  Cr472  1  0.749550  0.699900  0.784640  1.0
  Cr  Cr473  1  0.550550  0.699900  0.215360  1.0
  Cr  Cr474  1  0.465810  0.300100  0.784640  1.0
  Cr  Cr475  1  0.500450  0.715360  0.800100  1.0
  Cr  Cr476  1  0.015910  0.284640  0.199900  1.0
  Cr  Cr477  1  0.365150  0.706970  0.492050  1.0
  Cr  Cr478  1  0.322120  0.992050  0.793030  1.0
  Cr  Cr479  1  0.564170  0.293030  0.507950  1.0
  Cr  Cr480  1  0.107200  0.007950  0.206970  1.0
  Cr  Cr481  1  0.884850  0.007950  0.793030  1.0
  Cr  Cr482  1  0.685830  0.992050  0.206970  1.0
  Cr  Cr483  1  0.142800  0.293030  0.492050  1.0
  Cr  Cr484  1  0.927880  0.706970  0.507950  1.0
  H  H485  1  0.826700  0.194800  0.850800  1.0
  H  H486  1  0.271500  0.350800  0.305200  1.0
  H  H487  1  0.872300  0.805200  0.149200  1.0
  H  H488  1  0.927500  0.649200  0.694800  1.0
  H  H489  1  0.423300  0.649200  0.305200  1.0
  H  H490  1  0.377700  0.350800  0.694800  1.0
  H  H491  1  0.322500  0.805200  0.850800  1.0
  H  H492  1  0.978500  0.194800  0.149200  1.0
  H  H493  1  0.877600  0.196300  0.805900  1.0
  H  H494  1  0.323900  0.305900  0.303700  1.0
  H  H495  1  0.879800  0.803700  0.194100  1.0
  H  H496  1  0.933500  0.694100  0.696300  1.0
  H  H497  1  0.372400  0.694100  0.303700  1.0
  H  H498  1  0.370200  0.305900  0.696300  1.0
  H  H499  1  0.316500  0.803700  0.805900  1.0
  H  H500  1  0.926100  0.196300  0.194100  1.0
  H  H501  1  0.841700  0.174300  0.804500  1.0
  H  H502  1  0.266000  0.304500  0.325700  1.0
  H  H503  1  0.820500  0.825700  0.195500  1.0
  H  H504  1  0.896200  0.695500  0.674300  1.0
  H  H505  1  0.408300  0.695500  0.325700  1.0
  H  H506  1  0.429500  0.304500  0.674300  1.0
  H  H507  1  0.353800  0.825700  0.804500  1.0
  H  H508  1  0.984000  0.174300  0.195500  1.0
  H  H509  1  0.853400  0.278200  0.778400  1.0
  H  H510  1  0.381600  0.278400  0.221800  1.0
  H  H511  1  0.910000  0.721800  0.221600  1.0
  H  H512  1  0.881800  0.721600  0.778200  1.0
  H  H513  1  0.396600  0.721600  0.221800  1.0
  H  H514  1  0.340000  0.278400  0.778200  1.0
  H  H515  1  0.368200  0.721800  0.778400  1.0
  H  H516  1  0.868400  0.278200  0.221600  1.0
  H  H517  1  0.724200  0.395800  0.747000  1.0
  H  H518  1  0.370000  0.247000  0.104200  1.0
  H  H519  1  0.867000  0.604200  0.253000  1.0
  H  H520  1  0.721200  0.753000  0.895800  1.0
  H  H521  1  0.525800  0.753000  0.104200  1.0
  H  H522  1  0.383000  0.247000  0.895800  1.0
  H  H523  1  0.528800  0.604200  0.747000  1.0
  H  H524  1  0.880000  0.395800  0.253000  1.0
  H  H525  1  0.746100  0.461100  0.717700  1.0
  H  H526  1  0.457200  0.217700  0.038900  1.0
  H  H527  1  0.924900  0.538900  0.282300  1.0
  H  H528  1  0.713800  0.782300  0.961100  1.0
  H  H529  1  0.503900  0.782300  0.038900  1.0
  H  H530  1  0.325100  0.217700  0.961100  1.0
  H  H531  1  0.536200  0.538900  0.717700  1.0
  H  H532  1  0.792800  0.461100  0.282300  1.0
  H  H533  1  0.880500  0.400900  0.733500  1.0
  H  H534  1  0.531400  0.233500  0.099100  1.0
  H  H535  1  0.014900  0.599100  0.266500  1.0
  H  H536  1  0.864000  0.766500  0.900900  1.0
  H  H537  1  0.369500  0.766500  0.099100  1.0
  H  H538  1  0.235100  0.233500  0.900900  1.0
  H  H539  1  0.386000  0.599100  0.733500  1.0
  H  H540  1  0.718600  0.400900  0.266500  1.0
  H  H541  1  0.859300  0.337700  0.765700  1.0
  H  H542  1  0.447000  0.265700  0.162300  1.0
  H  H543  1  0.962700  0.662300  0.234300  1.0
  H  H544  1  0.875000  0.734300  0.837700  1.0
  H  H545  1  0.390700  0.734300  0.162300  1.0
  H  H546  1  0.287300  0.265700  0.837700  1.0
  H  H547  1  0.375000  0.662300  0.765700  1.0
  H  H548  1  0.803000  0.337700  0.234300  1.0
  H  H549  1  0.594300  0.320500  0.945500  1.0
  H  H550  1  0.164800  0.445500  0.179500  1.0
  H  H551  1  0.860300  0.679500  0.054500  1.0
  H  H552  1  0.789800  0.554500  0.820500  1.0
  H  H553  1  0.655700  0.554500  0.179500  1.0
  H  H554  1  0.389700  0.445500  0.820500  1.0
  H  H555  1  0.460200  0.679500  0.945500  1.0
  H  H556  1  0.085200  0.320500  0.054500  1.0
  H  H557  1  0.549200  0.367100  0.937900  1.0
  H  H558  1  0.166300  0.437900  0.132900  1.0
  H  H559  1  0.854200  0.632900  0.062100  1.0
  H  H560  1  0.737100  0.562100  0.867100  1.0
  H  H561  1  0.700800  0.562100  0.132900  1.0
  H  H562  1  0.395800  0.437900  0.867100  1.0
  H  H563  1  0.512900  0.632900  0.937900  1.0
  H  H564  1  0.083700  0.367100  0.062100  1.0
  H  H565  1  0.605500  0.365000  0.930800  1.0
  H  H566  1  0.220500  0.430800  0.135000  1.0
  H  H567  1  0.901300  0.635000  0.069200  1.0
  H  H568  1  0.786300  0.569200  0.865000  1.0
  H  H569  1  0.644500  0.569200  0.135000  1.0
  H  H570  1  0.348700  0.430800  0.865000  1.0
  H  H571  1  0.463700  0.635000  0.930800  1.0
  H  H572  1  0.029500  0.365000  0.069200  1.0
  H  H573  1  0.553800  0.393500  0.866300  1.0
  H  H574  1  0.197300  0.366300  0.106500  1.0
  H  H575  1  0.813600  0.606500  0.133700  1.0
  H  H576  1  0.670100  0.633700  0.893500  1.0
  H  H577  1  0.696200  0.633700  0.106500  1.0
  H  H578  1  0.436400  0.366300  0.893500  1.0
  H  H579  1  0.579900  0.606500  0.866300  1.0
  H  H580  1  0.052700  0.393500  0.133700  1.0
  H  H581  1  0.499200  0.431000  0.833800  1.0
  H  H582  1  0.180200  0.333800  0.069000  1.0
  H  H583  1  0.764000  0.569000  0.166200  1.0
  H  H584  1  0.583000  0.666200  0.931000  1.0
  H  H585  1  0.750800  0.666200  0.069000  1.0
  H  H586  1  0.486000  0.333800  0.931000  1.0
  H  H587  1  0.667000  0.569000  0.833800  1.0
  H  H588  1  0.069800  0.431000  0.166200  1.0
  H  H589  1  0.459500  0.484100  0.791300  1.0
  H  H590  1  0.193600  0.291300  0.015900  1.0
  H  H591  1  0.734900  0.515900  0.208700  1.0
  H  H592  1  0.500800  0.708700  0.984100  1.0
  H  H593  1  0.790500  0.708700  0.015900  1.0
  H  H594  1  0.515100  0.291300  0.984100  1.0
  H  H595  1  0.749200  0.515900  0.791300  1.0
  H  H596  1  0.056400  0.484100  0.208700  1.0
  H  H597  1  0.589800  0.433600  0.679600  1.0
  H  H598  1  0.273400  0.179600  0.066400  1.0
  H  H599  1  0.703000  0.566400  0.320400  1.0
  H  H600  1  0.519400  0.820400  0.933600  1.0
  H  H601  1  0.660200  0.820400  0.066400  1.0
  H  H602  1  0.547000  0.179600  0.933600  1.0
  H  H603  1  0.730600  0.566400  0.679600  1.0
  H  H604  1  0.976600  0.433600  0.320400  1.0
  H  H605  1  0.629400  0.377000  0.720800  1.0
  H  H606  1  0.256400  0.220800  0.123000  1.0
  H  H607  1  0.727200  0.623000  0.279200  1.0
  H  H608  1  0.600200  0.779200  0.877000  1.0
  H  H609  1  0.620600  0.779200  0.123000  1.0
  H  H610  1  0.522800  0.220800  0.877000  1.0
  H  H611  1  0.649800  0.623000  0.720800  1.0
  H  H612  1  0.993600  0.377000  0.279200  1.0
  H  H613  1  0.665400  0.161600  0.812800  1.0
  H  H614  1  0.077000  0.312800  0.338400  1.0
  H  H615  1  0.639800  0.838400  0.187200  1.0
  H  H616  1  0.728200  0.687200  0.661600  1.0
  H  H617  1  0.584600  0.687200  0.338400  1.0
  H  H618  1  0.610200  0.312800  0.661600  1.0
  H  H619  1  0.521800  0.838400  0.812800  1.0
  H  H620  1  0.173000  0.161600  0.187200  1.0
  H  H621  1  0.650600  0.175400  0.770000  1.0
  H  H622  1  0.076000  0.270000  0.324600  1.0
  H  H623  1  0.596000  0.824600  0.230000  1.0
  H  H624  1  0.670600  0.730000  0.675400  1.0
  H  H625  1  0.599400  0.730000  0.324600  1.0
  H  H626  1  0.654000  0.270000  0.675400  1.0
  H  H627  1  0.579400  0.824600  0.770000  1.0
  H  H628  1  0.174000  0.175400  0.230000  1.0
  H  H629  1  0.609700  0.203300  0.816300  1.0
  H  H630  1  0.063000  0.316300  0.296700  1.0
  H  H631  1  0.629300  0.796700  0.183700  1.0
  H  H632  1  0.676000  0.683700  0.703300  1.0
  H  H633  1  0.640300  0.683700  0.296700  1.0
  H  H634  1  0.620700  0.316300  0.703300  1.0
  H  H635  1  0.574000  0.796700  0.816300  1.0
  H  H636  1  0.187000  0.203300  0.183700  1.0
  H  H637  1  0.723400  0.185600  0.716600  1.0
  H  H638  1  0.159000  0.216600  0.314400  1.0
  H  H639  1  0.625600  0.814400  0.283400  1.0
  H  H640  1  0.690000  0.783400  0.685600  1.0
  H  H641  1  0.526600  0.783400  0.314400  1.0
  H  H642  1  0.624400  0.216600  0.685600  1.0
  H  H643  1  0.560000  0.814400  0.716600  1.0
  H  H644  1  0.091000  0.185600  0.283400  1.0
  H  H645  1  0.768900  0.185600  0.652400  1.0
  H  H646  1  0.204500  0.152400  0.314400  1.0
  H  H647  1  0.606900  0.814400  0.347600  1.0
  H  H648  1  0.671300  0.847600  0.685600  1.0
  H  H649  1  0.481100  0.847600  0.314400  1.0
  H  H650  1  0.643100  0.152400  0.685600  1.0
  H  H651  1  0.578700  0.814400  0.652400  1.0
  H  H652  1  0.045500  0.185600  0.347600  1.0
  H  H653  1  0.814400  0.185900  0.576900  1.0
  H  H654  1  0.250300  0.076900  0.314100  1.0
  H  H655  1  0.577200  0.814100  0.423100  1.0
  H  H656  1  0.641300  0.923100  0.685900  1.0
  H  H657  1  0.435600  0.923100  0.314100  1.0
  H  H658  1  0.672800  0.076900  0.685900  1.0
  H  H659  1  0.608700  0.814100  0.576900  1.0
  H  H660  1  0.999700  0.185900  0.423100  1.0
  H  H661  1  0.837400  0.291900  0.583700  1.0
  H  H662  1  0.379300  0.083700  0.208100  1.0
  H  H663  1  0.713000  0.708100  0.416300  1.0
  H  H664  1  0.671100  0.916300  0.791900  1.0
  H  H665  1  0.412600  0.916300  0.208100  1.0
  H  H666  1  0.537000  0.083700  0.791900  1.0
  H  H667  1  0.578900  0.708100  0.583700  1.0
  H  H668  1  0.870700  0.291900  0.416300  1.0
  H  H669  1  0.800400  0.284700  0.660700  1.0
  H  H670  1  0.335100  0.160700  0.215300  1.0
  H  H671  1  0.745800  0.715300  0.339300  1.0
  H  H672  1  0.711100  0.839300  0.784700  1.0
  H  H673  1  0.449600  0.839300  0.215300  1.0
  H  H674  1  0.504200  0.160700  0.784700  1.0
  H  H675  1  0.538900  0.715300  0.660700  1.0
  H  H676  1  0.914900  0.284700  0.339300  1.0
  H  H677  1  0.246200  0.657300  0.501500  1.0
  H  H678  1  0.153500  0.001500  0.842700  1.0
  H  H679  1  0.405000  0.342700  0.498500  1.0
  H  H680  1  0.997700  0.998500  0.157300  1.0
  H  H681  1  0.003800  0.998500  0.842700  1.0
  H  H682  1  0.845000  0.001500  0.157300  1.0
  H  H683  1  0.252300  0.342700  0.501500  1.0
  H  H684  1  0.096500  0.657300  0.498500  1.0
  H  H685  1  0.266700  0.612000  0.528800  1.0
  H  H686  1  0.128700  0.028800  0.888000  1.0
  H  H687  1  0.407500  0.388000  0.471200  1.0
  H  H688  1  0.045500  0.971200  0.112000  1.0
  H  H689  1  0.983300  0.971200  0.888000  1.0
  H  H690  1  0.842500  0.028800  0.112000  1.0
  H  H691  1  0.204500  0.388000  0.528800  1.0
  H  H692  1  0.121300  0.612000  0.471200  1.0
  H  H693  1  0.299600  0.614100  0.475100  1.0
  H  H694  1  0.163700  0.975100  0.885900  1.0
  H  H695  1  0.388800  0.385900  0.524900  1.0
  H  H696  1  0.024700  0.024900  0.114100  1.0
  H  H697  1  0.950400  0.024900  0.885900  1.0
  H  H698  1  0.861200  0.975100  0.114100  1.0
  H  H699  1  0.225300  0.385900  0.475100  1.0
  H  H700  1  0.086300  0.614100  0.524900  1.0
  H  H701  1  0.335200  0.594100  0.550500  1.0
  H  H702  1  0.179300  0.050500  0.905900  1.0
  H  H703  1  0.479800  0.405900  0.449500  1.0
  H  H704  1  0.135700  0.949500  0.094100  1.0
  H  H705  1  0.914800  0.949500  0.905900  1.0
  H  H706  1  0.770200  0.050500  0.094100  1.0
  H  H707  1  0.114300  0.405900  0.550500  1.0
  H  H708  1  0.070700  0.594100  0.449500  1.0
  H  H709  1  0.437800  0.631500  0.579500  1.0
  H  H710  1  0.319300  0.079500  0.868500  1.0
  H  H711  1  0.648800  0.368500  0.420500  1.0
  H  H712  1  0.267300  0.920500  0.131500  1.0
  H  H713  1  0.812200  0.920500  0.868500  1.0
  H  H714  1  0.601200  0.079500  0.131500  1.0
  H  H715  1  0.982700  0.368500  0.579500  1.0
  H  H716  1  0.930700  0.631500  0.420500  1.0
  H  H717  1  0.482500  0.585200  0.619600  1.0
  H  H718  1  0.317700  0.119600  0.914800  1.0
  H  H719  1  0.687300  0.414800  0.380400  1.0
  H  H720  1  0.352100  0.880400  0.085200  1.0
  H  H721  1  0.767500  0.880400  0.914800  1.0
  H  H722  1  0.562700  0.119600  0.085200  1.0
  H  H723  1  0.897900  0.414800  0.619600  1.0
  H  H724  1  0.932300  0.585200  0.380400  1.0
  H  H725  1  0.387400  0.524800  0.656800  1.0
  H  H726  1  0.162200  0.156800  0.975200  1.0
  H  H727  1  0.569000  0.475200  0.343200  1.0
  H  H728  1  0.294200  0.843200  0.024800  1.0
  H  H729  1  0.862600  0.843200  0.975200  1.0
  H  H730  1  0.681000  0.156800  0.024800  1.0
  H  H731  1  0.955800  0.475200  0.656800  1.0
  H  H732  1  0.087800  0.524800  0.343200  1.0
  H  H733  1  0.354800  0.563100  0.609900  1.0
  H  H734  1  0.167900  0.109900  0.936900  1.0
  H  H735  1  0.527800  0.436900  0.390100  1.0
  H  H736  1  0.214700  0.890100  0.063100  1.0
  H  H737  1  0.895200  0.890100  0.936900  1.0
  H  H738  1  0.722200  0.109900  0.063100  1.0
  H  H739  1  0.035300  0.436900  0.609900  1.0
  H  H740  1  0.082100  0.563100  0.390100  1.0
  H  H741  1  0.247100  0.835900  0.596300  1.0
  H  H742  1  0.333000  0.096300  0.664100  1.0
  H  H743  1  0.679300  0.164100  0.403700  1.0
  H  H744  1  0.093400  0.903700  0.335900  1.0
  H  H745  1  0.002900  0.903700  0.664100  1.0
  H  H746  1  0.570700  0.096300  0.335900  1.0
  H  H747  1  0.156600  0.164100  0.596300  1.0
  H  H748  1  0.917000  0.835900  0.403700  1.0
  H  H749  1  0.259900  0.791400  0.626800  1.0
  H  H750  1  0.301300  0.126800  0.708600  1.0
  H  H751  1  0.678100  0.208600  0.373200  1.0
  H  H752  1  0.136700  0.873200  0.291400  1.0
  H  H753  1  0.990100  0.873200  0.708600  1.0
  H  H754  1  0.571900  0.126800  0.291400  1.0
  H  H755  1  0.113300  0.208600  0.626800  1.0
  H  H756  1  0.948700  0.791400  0.373200  1.0
  H  H757  1  0.226100  0.799100  0.598700  1.0
  H  H758  1  0.275200  0.098700  0.700900  1.0
  H  H759  1  0.623900  0.200900  0.401300  1.0
  H  H760  1  0.074800  0.901300  0.299100  1.0
  H  H761  1  0.023900  0.901300  0.700900  1.0
  H  H762  1  0.626100  0.098700  0.299100  1.0
  H  H763  1  0.175200  0.200900  0.598700  1.0
  H  H764  1  0.974800  0.799100  0.401300  1.0
  H  H765  1  0.354400  0.803300  0.570700  1.0
  H  H766  1  0.407700  0.070700  0.696700  1.0
  H  H767  1  0.728400  0.196700  0.429300  1.0
  H  H768  1  0.175100  0.929300  0.303300  1.0
  H  H769  1  0.895600  0.929300  0.696700  1.0
  H  H770  1  0.521600  0.070700  0.303300  1.0
  H  H771  1  0.074900  0.196700  0.570700  1.0
  H  H772  1  0.842300  0.803300  0.429300  1.0
  H  H773  1  0.422300  0.811100  0.555900  1.0
  H  H774  1  0.483400  0.055900  0.688900  1.0
  H  H775  1  0.789300  0.188900  0.444100  1.0
  H  H776  1  0.228200  0.944100  0.311100  1.0
  H  H777  1  0.827700  0.944100  0.688900  1.0
  H  H778  1  0.460700  0.055900  0.311100  1.0
  H  H779  1  0.021800  0.188900  0.555900  1.0
  H  H780  1  0.766600  0.811100  0.444100  1.0
  H  H781  1  0.495500  0.817300  0.546100  1.0
  H  H782  1  0.562800  0.046100  0.682700  1.0
  H  H783  1  0.858900  0.182700  0.453900  1.0
  H  H784  1  0.291600  0.953900  0.317300  1.0
  H  H785  1  0.754500  0.953900  0.682700  1.0
  H  H786  1  0.391100  0.046100  0.317300  1.0
  H  H787  1  0.958400  0.182700  0.546100  1.0
  H  H788  1  0.687200  0.817300  0.453900  1.0
  H  H789  1  0.579700  0.703900  0.476100  1.0
  H  H790  1  0.533600  0.976100  0.796100  1.0
  H  H791  1  0.759700  0.296100  0.523900  1.0
  H  H792  1  0.305800  0.023900  0.203900  1.0
  H  H793  1  0.670300  0.023900  0.796100  1.0
  H  H794  1  0.490300  0.976100  0.203900  1.0
  H  H795  1  0.944200  0.296100  0.476100  1.0
  H  H796  1  0.716400  0.703900  0.523900  1.0
  H  H797  1  0.509700  0.700900  0.474100  1.0
  H  H798  1  0.460600  0.974100  0.799100  1.0
  H  H799  1  0.684700  0.299100  0.525900  1.0
  H  H800  1  0.233800  0.025900  0.200900  1.0
  H  H801  1  0.740300  0.025900  0.799100  1.0
  H  H802  1  0.565300  0.974100  0.200900  1.0
  H  H803  1  0.016200  0.299100  0.474100  1.0
  H  H804  1  0.789400  0.700900  0.525900  1.0
  H  H805  1  0.373800  0.810400  0.381000  1.0
  H  H806  1  0.434200  0.881000  0.689600  1.0
  H  H807  1  0.565200  0.189600  0.619000  1.0
  H  H808  1  0.004800  0.119000  0.310400  1.0
  H  H809  1  0.876200  0.119000  0.689600  1.0
  H  H810  1  0.684800  0.881000  0.310400  1.0
  H  H811  1  0.245200  0.189600  0.381000  1.0
  H  H812  1  0.815800  0.810400  0.619000  1.0
  H  H813  1  0.342400  0.790300  0.369500  1.0
  H  H814  1  0.382700  0.869500  0.709700  1.0
  H  H815  1  0.502200  0.209700  0.630500  1.0
  H  H816  1  0.961900  0.130500  0.290300  1.0
  H  H817  1  0.907600  0.130500  0.709700  1.0
  H  H818  1  0.747800  0.869500  0.290300  1.0
  H  H819  1  0.288100  0.209700  0.369500  1.0
  H  H820  1  0.867300  0.790300  0.630500  1.0
  H  H821  1  0.405300  0.777500  0.338300  1.0
  H  H822  1  0.432800  0.838300  0.722500  1.0
  H  H823  1  0.521100  0.222500  0.661700  1.0
  H  H824  1  0.993600  0.161700  0.277500  1.0
  H  H825  1  0.844700  0.161700  0.722500  1.0
  H  H826  1  0.728900  0.838300  0.277500  1.0
  H  H827  1  0.256400  0.222500  0.338300  1.0
  H  H828  1  0.817200  0.777500  0.661700  1.0
  H  H829  1  0.464900  0.706200  0.354000  1.0
  H  H830  1  0.421100  0.854000  0.793800  1.0
  H  H831  1  0.525100  0.293800  0.646000  1.0
  H  H832  1  0.068900  0.146000  0.206200  1.0
  H  H833  1  0.785100  0.146000  0.793800  1.0
  H  H834  1  0.724900  0.854000  0.206200  1.0
  H  H835  1  0.181100  0.293800  0.354000  1.0
  H  H836  1  0.828900  0.706200  0.646000  1.0
  H  H837  1  0.516300  0.643400  0.316600  1.0
  H  H838  1  0.409700  0.816600  0.856600  1.0
  H  H839  1  0.476300  0.356600  0.683400  1.0
  H  H840  1  0.082900  0.183400  0.143400  1.0
  H  H841  1  0.733700  0.183400  0.856600  1.0
  H  H842  1  0.773700  0.816600  0.143400  1.0
  H  H843  1  0.167100  0.356600  0.316600  1.0
  H  H844  1  0.840300  0.643400  0.683400  1.0
  H  H845  1  0.597800  0.579100  0.286900  1.0
  H  H846  1  0.426900  0.786900  0.920900  1.0
  H  H847  1  0.463800  0.420900  0.713100  1.0
  H  H848  1  0.134700  0.213100  0.079100  1.0
  H  H849  1  0.652200  0.213100  0.920900  1.0
  H  H850  1  0.786200  0.786900  0.079100  1.0
  H  H851  1  0.115300  0.420900  0.286900  1.0
  H  H852  1  0.823100  0.579100  0.713100  1.0
  H  H853  1  0.592300  0.534000  0.402400  1.0
  H  H854  1  0.376300  0.902400  0.966000  1.0
  H  H855  1  0.528700  0.466000  0.597600  1.0
  H  H856  1  0.244700  0.097600  0.034000  1.0
  H  H857  1  0.657700  0.097600  0.966000  1.0
  H  H858  1  0.721300  0.902400  0.034000  1.0
  H  H859  1  0.005300  0.466000  0.402400  1.0
  H  H860  1  0.873700  0.534000  0.597600  1.0
  H  H861  1  0.510200  0.592300  0.442100  1.0
  H  H862  1  0.352500  0.942100  0.907700  1.0
  H  H863  1  0.544600  0.407700  0.557900  1.0
  H  H864  1  0.202300  0.057900  0.092300  1.0
  H  H865  1  0.739800  0.057900  0.907700  1.0
  H  H866  1  0.705400  0.942100  0.092300  1.0
  H  H867  1  0.047700  0.407700  0.442100  1.0
  H  H868  1  0.897500  0.592300  0.557900  1.0
  N  N869  1  0.653740  0.692520  0.500000  1.0
  N  N870  1  0.596260  0.000000  0.807480  1.0
  N  N871  1  0.846260  0.307480  0.500000  1.0
  N  N872  1  0.403740  0.000000  0.192520  1.0
  N  N873  1  0.584620  0.830760  0.500000  1.0
  N  N874  1  0.665380  0.000000  0.669240  1.0
  N  N875  1  0.915380  0.169240  0.500000  1.0
  N  N876  1  0.334620  0.000000  0.330760  1.0
  N  N877  1  0.813100  0.434330  0.724630  1.0
  N  N878  1  0.497430  0.224630  0.065670  1.0
  N  N879  1  0.972060  0.565670  0.275370  1.0
  N  N880  1  0.787730  0.775370  0.934330  1.0
  N  N881  1  0.436900  0.775370  0.065670  1.0
  N  N882  1  0.277940  0.224630  0.934330  1.0
  N  N883  1  0.462270  0.565670  0.724630  1.0
  N  N884  1  0.752570  0.434330  0.275370  1.0
  N  N885  1  0.518290  0.461020  0.730300  1.0
  N  N886  1  0.229310  0.230300  0.038980  1.0
  N  N887  1  0.709610  0.538980  0.269700  1.0
  N  N888  1  0.498590  0.769700  0.961020  1.0
  N  N889  1  0.731710  0.769700  0.038980  1.0
  N  N890  1  0.540390  0.230300  0.961020  1.0
  N  N891  1  0.751410  0.538980  0.730300  1.0
  N  N892  1  0.020690  0.461020  0.269700  1.0
  N  N893  1  0.832470  0.238360  0.575460  1.0
  N  N894  1  0.320830  0.075460  0.261640  1.0
  N  N895  1  0.646290  0.761640  0.424540  1.0
  N  N896  1  0.657930  0.924540  0.738360  1.0
  N  N897  1  0.417530  0.924540  0.261640  1.0
  N  N898  1  0.603710  0.075460  0.738360  1.0
  N  N899  1  0.592070  0.761640  0.575460  1.0
  N  N900  1  0.929170  0.238360  0.424540  1.0
  N  N901  1  0.437660  0.549810  0.646210  1.0
  N  N902  1  0.237470  0.146210  0.950190  1.0
  N  N903  1  0.633680  0.450190  0.353790  1.0
  N  N904  1  0.333870  0.853790  0.049810  1.0
  N  N905  1  0.812340  0.853790  0.950190  1.0
  N  N906  1  0.616320  0.146210  0.049810  1.0
  N  N907  1  0.916130  0.450190  0.646210  1.0
  N  N908  1  0.012530  0.549810  0.353790  1.0
  N  N909  1  0.542590  0.758440  0.510460  1.0
  N  N910  1  0.551030  0.010460  0.741560  1.0
  N  N911  1  0.811490  0.241560  0.489540  1.0
  N  N912  1  0.303050  0.989540  0.258440  1.0
  N  N913  1  0.707410  0.989540  0.741560  1.0
  N  N914  1  0.438510  0.010460  0.258440  1.0
  N  N915  1  0.946950  0.241560  0.510460  1.0
  N  N916  1  0.698970  0.758440  0.489540  1.0
  N  N917  1  0.602560  0.549610  0.339810  1.0
  N  N918  1  0.402170  0.839810  0.950390  1.0
  N  N919  1  0.491980  0.450390  0.660190  1.0
  N  N920  1  0.192370  0.160190  0.049610  1.0
  N  N921  1  0.647440  0.160190  0.950390  1.0
  N  N922  1  0.758020  0.839810  0.049610  1.0
  N  N923  1  0.057630  0.450390  0.339810  1.0
  N  N924  1  0.847830  0.549610  0.660190  1.0
  N  N925  1  0.552300  0.506180  0.641480  1.0
  N  N926  1  0.308480  0.141480  0.993820  1.0
  N  N927  1  0.699960  0.493820  0.358520  1.0
  N  N928  1  0.443780  0.858520  0.006180  1.0
  N  N929  1  0.697700  0.858520  0.993820  1.0
  N  N930  1  0.550040  0.141480  0.006180  1.0
  N  N931  1  0.806220  0.493820  0.641480  1.0
  N  N932  1  0.941520  0.506180  0.358520  1.0
  N  N933  1  0.404070  0.507790  0.736950  1.0
  N  N934  1  0.161860  0.236950  0.992210  1.0
  N  N935  1  0.648810  0.492210  0.263050  1.0
  N  N936  1  0.391020  0.763050  0.007790  1.0
  N  N937  1  0.845930  0.763050  0.992210  1.0
  N  N938  1  0.601190  0.236950  0.007790  1.0
  N  N939  1  0.858980  0.492210  0.736950  1.0
  N  N940  1  0.088140  0.507790  0.263050  1.0
  O  O941  1  0.759880  0.240710  0.814190  1.0
  O  O942  1  0.250590  0.314190  0.259290  1.0
  O  O943  1  0.814780  0.759290  0.185810  1.0
  O  O944  1  0.824070  0.685810  0.740710  1.0
  O  O945  1  0.490120  0.685810  0.259290  1.0
  O  O946  1  0.435220  0.314190  0.740710  1.0
  O  O947  1  0.425930  0.759290  0.814190  1.0
  O  O948  1  0.999410  0.240710  0.185810  1.0
  O  O949  1  0.728630  0.330610  0.787150  1.0
  O  O950  1  0.309240  0.287150  0.169390  1.0
  O  O951  1  0.846390  0.669390  0.212850  1.0
  O  O952  1  0.765780  0.712850  0.830610  1.0
  O  O953  1  0.521370  0.712850  0.169390  1.0
  O  O954  1  0.403610  0.287150  0.830610  1.0
  O  O955  1  0.484220  0.669390  0.787150  1.0
  O  O956  1  0.940760  0.330610  0.212850  1.0
  O  O957  1  0.655240  0.303960  0.866300  1.0
  O  O958  1  0.209200  0.366300  0.196040  1.0
  O  O959  1  0.825500  0.696040  0.133700  1.0
  O  O960  1  0.771540  0.633700  0.803960  1.0
  O  O961  1  0.594760  0.633700  0.196040  1.0
  O  O962  1  0.424500  0.366300  0.803960  1.0
  O  O963  1  0.478460  0.696040  0.866300  1.0
  O  O964  1  0.040800  0.303960  0.133700  1.0
  O  O965  1  0.644030  0.328550  0.783010  1.0
  O  O966  1  0.222580  0.283010  0.171450  1.0
  O  O967  1  0.755590  0.671450  0.216990  1.0
  O  O968  1  0.677040  0.716990  0.828550  1.0
  O  O969  1  0.605970  0.716990  0.171450  1.0
  O  O970  1  0.494410  0.283010  0.828550  1.0
  O  O971  1  0.572960  0.671450  0.783010  1.0
  O  O972  1  0.027420  0.328550  0.216990  1.0
  O  O973  1  0.669760  0.240000  0.811140  1.0
  O  O974  1  0.159760  0.311140  0.260000  1.0
  O  O975  1  0.720900  0.760000  0.188860  1.0
  O  O976  1  0.730900  0.688860  0.740000  1.0
  O  O977  1  0.580240  0.688860  0.260000  1.0
  O  O978  1  0.529100  0.311140  0.740000  1.0
  O  O979  1  0.519100  0.760000  0.811140  1.0
  O  O980  1  0.090240  0.240000  0.188860  1.0
  O  O981  1  0.744730  0.268630  0.734810  1.0
  O  O982  1  0.263360  0.234810  0.231370  1.0
  O  O983  1  0.748170  0.731370  0.265190  1.0
  O  O984  1  0.729540  0.765190  0.768630  1.0
  O  O985  1  0.505270  0.765190  0.231370  1.0
  O  O986  1  0.501830  0.234810  0.768630  1.0
  O  O987  1  0.520460  0.731370  0.734810  1.0
  O  O988  1  0.986640  0.268630  0.265190  1.0
  O  O989  1  0.318360  0.683380  0.492440  1.0
  O  O990  1  0.251740  0.992440  0.816620  1.0
  O  O991  1  0.494180  0.316620  0.507560  1.0
  O  O992  1  0.060800  0.007560  0.183380  1.0
  O  O993  1  0.931640  0.007560  0.816620  1.0
  O  O994  1  0.755820  0.992440  0.183380  1.0
  O  O995  1  0.189200  0.316620  0.492440  1.0
  O  O996  1  0.998260  0.683380  0.507560  1.0
  O  O997  1  0.378480  0.664870  0.541130  1.0
  O  O998  1  0.293350  0.041130  0.835130  1.0
  O  O999  1  0.584480  0.335130  0.458870  1.0
  O  O1000  1  0.169610  0.958870  0.164870  1.0
  O  O1001  1  0.871520  0.958870  0.835130  1.0
  O  O1002  1  0.665520  0.041130  0.164870  1.0
  O  O1003  1  0.080390  0.335130  0.541130  1.0
  O  O1004  1  0.956650  0.664870  0.458870  1.0
  O  O1005  1  0.303170  0.754820  0.533520  1.0
  O  O1006  1  0.307990  0.033520  0.745180  1.0
  O  O1007  1  0.591510  0.245180  0.466480  1.0
  O  O1008  1  0.086690  0.966480  0.254820  1.0
  O  O1009  1  0.946830  0.966480  0.745180  1.0
  O  O1010  1  0.658490  0.033520  0.254820  1.0
  O  O1011  1  0.163310  0.245180  0.533520  1.0
  O  O1012  1  0.942010  0.754820  0.466480  1.0
  O  O1013  1  0.412320  0.728470  0.492250  1.0
  O  O1014  1  0.390790  0.992250  0.771530  1.0
  O  O1015  1  0.633040  0.271530  0.507750  1.0
  O  O1016  1  0.154570  0.007750  0.228470  1.0
  O  O1017  1  0.837680  0.007750  0.771530  1.0
  O  O1018  1  0.616960  0.992250  0.228470  1.0
  O  O1019  1  0.095430  0.271530  0.492250  1.0
  O  O1020  1  0.859210  0.728470  0.507750  1.0
  O  O1021  1  0.354060  0.750560  0.441400  1.0
  O  O1022  1  0.354620  0.941400  0.749440  1.0
  O  O1023  1  0.546020  0.249440  0.558600  1.0
  O  O1024  1  0.045460  0.058600  0.250560  1.0
  O  O1025  1  0.895940  0.058600  0.749440  1.0
  O  O1026  1  0.703980  0.941400  0.250560  1.0
  O  O1027  1  0.204540  0.249440  0.441400  1.0
  O  O1028  1  0.895380  0.750560  0.558600  1.0
  O  O1029  1  0.428410  0.661500  0.448580  1.0
  O  O1030  1  0.339910  0.948580  0.838500  1.0
  O  O1031  1  0.538490  0.338500  0.551420  1.0
  O  O1032  1  0.126990  0.051420  0.161500  1.0
  O  O1033  1  0.821590  0.051420  0.838500  1.0
  O  O1034  1  0.711510  0.948580  0.161500  1.0
  O  O1035  1  0.123010  0.338500  0.448580  1.0
  O  O1036  1  0.910090  0.661500  0.551420  1.0
  S  S1037  1  0.702660  0.594680  0.500000  1.0
  S  S1038  1  0.547340  0.000000  0.905320  1.0
  S  S1039  1  0.797340  0.405320  0.500000  1.0
  S  S1040  1  0.452660  0.000000  0.094680  1.0
  S  S1041  1  0.532440  0.935120  0.500000  1.0
  S  S1042  1  0.717560  0.000000  0.564880  1.0
  S  S1043  1  0.967560  0.064880  0.500000  1.0
  S  S1044  1  0.282440  0.000000  0.435120  1.0
  S  S1045  1  0.649350  0.500870  0.570410  1.0
  S  S1046  1  0.400220  0.070410  0.999130  1.0
  S  S1047  1  0.720630  0.499130  0.429590  1.0
  S  S1048  1  0.469760  0.929590  0.000870  1.0
  S  S1049  1  0.600650  0.929590  0.999130  1.0
  S  S1050  1  0.529370  0.070410  0.000870  1.0
  S  S1051  1  0.780240  0.499130  0.570410  1.0
  S  S1052  1  0.849780  0.500870  0.429590  1.0
  S  S1053  1  0.294780  0.534100  0.800160  1.0
  S  S1054  1  0.078880  0.300160  0.965900  1.0
  S  S1055  1  0.629040  0.465900  0.199840  1.0
  S  S1056  1  0.344940  0.699840  0.034100  1.0
  S  S1057  1  0.955220  0.699840  0.965900  1.0
  S  S1058  1  0.620960  0.300160  0.034100  1.0
  S  S1059  1  0.905060  0.465900  0.800160  1.0
  S  S1060  1  0.171120  0.534100  0.199840  1.0
