
#######################################################################
#
#                 Cambridge Crystallographic Data Centre
#                                CCDC 
#
#######################################################################
#
# If this CIF has been generated from an entry in the Cambridge 
# Structural Database, then it will include bibliographic, chemical, 
# crystal, experimental, refinement or atomic coordinate data resulting 
# from the CCDC's data processing and validation procedures.
#
#######################################################################

data_ULODUW
_chemical_formula_moiety         
'C264 H288 Ag12 N72 O48 12+,3(C1 H3 N1 O2),12(B1 F4 1-),26.5(H2 O1)'
_chemical_name_systematic        
'dodecakis(\m-N-((1-(pyridin-3-ylcarbonyl)azetidin-2-yl)carbonyl)glycyl-N-pyridin-3-yl-L-prolinamide)-dodeca-silver dodecakis(tetrafluoroborate) nitromethane solvate hydrate'
_symmetry_cell_setting           rhombohedral
_symmetry_space_group_name_H-M   'R 3'
_symmetry_Int_Tables_number      146
_space_group_name_Hall           'P 3*'
loop_
_symmetry_equiv_pos_site_id
_symmetry_equiv_pos_as_xyz
1 x,y,z
2 z,x,y
3 y,z,x
_cell_length_a                   23.263(3)
_cell_length_b                   23.263(3)
_cell_length_c                   23.263(3)
_cell_angle_alpha                59.72
_cell_angle_beta                 59.72
_cell_angle_gamma                59.72
_cell_volume                     8845.28
_exptl_crystal_colour            colorless
_exptl_crystal_description       block
_cell_formula_units_Z            1
_exptl_crystal_recrystallization_method nitromethane
loop_
_atom_site_label
_atom_site_type_symbol
_atom_site_fract_x
_atom_site_fract_y
_atom_site_fract_z
Ag1 Ag 0.78840(7) 0.51552(7) 0.63587(7)
Ag2 Ag 0.65766(8) 0.45014(7) 0.28060(8)
Ag3 Ag 0.80267(7) 0.28609(7) 0.48402(7)
Ag4 Ag 0.53405(8) 0.27645(7) 0.85421(9)
C1 C 0.6212(11) 0.3297(10) 0.3004(10)
H1 H 0.5753 0.3640 0.3038
C2 C 0.6355(11) 0.2615(11) 0.3033(11)
H2 H 0.5990 0.2508 0.3074
C3 C 0.7024(11) 0.2096(11) 0.3005(11)
H3 H 0.7112 0.1638 0.3032
C4 C 0.7534(10) 0.2261(9) 0.2937(10)
C5 C 0.7369(10) 0.2933(9) 0.2920(9)
H4 H 0.7726 0.3035 0.2902
C6 C 0.8233(11) 0.1707(10) 0.2978(10)
C7 C 0.8960(11) 0.2490(11) 0.1862(11)
H5 H 0.8804 0.2949 0.1915
H6 H 0.8795 0.2546 0.1514
C8 C 0.9762(11) 0.2065(12) 0.1743(11)
H7 H 1.0019 0.2299 0.1742
H8 H 1.0014 0.1905 0.1330
C9 C 0.9534(11) 0.1484(11) 0.2469(10)
H9 H 0.9649 0.1046 0.2393
C10 C 0.9840(12) 0.1306(10) 0.3017(10)
C11 C 0.9534(10) 0.1275(10) 0.4203(11)
H10 H 0.9605 0.1677 0.4171
H11 H 0.9973 0.0863 0.4219
C12 C 0.8908(11) 0.1097(10) 0.4876(10)
C13 C 0.9695(10) 0.0527(11) 0.5608(10)
H12 H 0.9915 0.0900 0.5305
H13 H 1.0042 0.0079 0.5518
C14 C 0.9430(10) 0.0436(12) 0.6386(11)
H14 H 0.9277 0.0890 0.6447
H15 H 0.9801 0.0081 0.6603
C15 C 0.8784(11) 0.0175(13) 0.6720(11)
H16 H 0.8946 -0.0339 0.6820
H17 H 0.8450 0.0281 0.7163
C16 C 0.8436(10) 0.0608(11) 0.6131(11)
H18 H 0.8219 0.0334 0.6127
C17 C 0.7888(10) 0.1329(10) 0.6223(9)
C18 C 0.6026(10) 0.2102(11) 0.6590(9)
H19 H 0.5994 0.1736 0.6546
C19 C 0.6658(9) 0.1996(9) 0.6618(8)
C20 C 0.6705(9) 0.2510(10) 0.6716(10)
H20 H 0.7109 0.2437 0.6785
C21 C 0.6129(11) 0.3141(12) 0.6709(10)
H21 H 0.6151 0.3525 0.6734
C22 C 0.5530(10) 0.3199(10) 0.6667(10)
H22 H 0.5141 0.3627 0.6670
N1 N 0.6735(8) 0.3448(7) 0.2926(7)
N2 N 0.8812(8) 0.1915(8) 0.2538(8)
N3 N 0.9363(10) 0.1460(9) 0.3592(10)
H23 H 0.8919 0.1685 0.3610
N4 N 0.9026(8) 0.0737(8) 0.5486(8)
N5 N 0.7225(7) 0.1368(8) 0.6546(8)
H24 H 0.7127 0.0978 0.6729
N6 N 0.5469(7) 0.2680(8) 0.6622(8)
O1 O 0.8291(7) 0.1109(7) 0.3383(7)
O2 O 1.0459(7) 0.0987(9) 0.2937(9)
O3 O 0.8316(7) 0.1315(9) 0.4829(7)
O4 O 0.8108(6) 0.1819(7) 0.6008(7)
C23 C 0.6558(11) 0.1359(11) 0.8455(11)
H25 H 0.6801 0.1594 0.8442
C24 C 0.6922(11) 0.0714(10) 0.8387(12)
H26 H 0.7407 0.0498 0.8344
C25 C 0.6574(11) 0.0357(10) 0.8383(10)
H27 H 0.6822 -0.0098 0.8337
C26 C 0.5875(10) 0.0689(8) 0.8446(10)
C27 C 0.5519(11) 0.1343(9) 0.8541(10)
H28 H 0.5028 0.1556 0.8609
C28 C 0.5510(11) 0.0314(10) 0.8421(10)
C29 C 0.4299(11) 0.0655(11) 0.9385(10)
H29 H 0.4013 0.1164 0.9272
H30 H 0.4501 0.0501 0.9746
C30 C 0.3918(11) 0.0189(12) 0.9558(10)
H31 H 0.3427 0.0448 0.9551
H32 H 0.3940 -0.0224 0.9996
C31 C 0.4463(12) 0.0018(12) 0.8873(11)
H33 H 0.4762 -0.0493 0.8981
C32 C 0.4164(14) 0.0269(15) 0.8278(12)
O5 O 0.411(2) -0.025(2) 0.829(2)
C33 C 0.4060(10) 0.1095(10) 0.7143(11)
H34 H 0.3619 0.1505 0.7129
H35 H 0.4014 0.0708 0.7118
C34 C 0.4686(11) 0.1296(10) 0.6538(11)
O6 O 0.5146(7) 0.1338(7) 0.6614(8)
N7 N 0.4695(9) 0.1425(8) 0.5904(9)
C35 C 0.4194(11) 0.1407(11) 0.5721(11)
H36 H 0.3825 0.1876 0.5624
H37 H 0.3964 0.1054 0.6106
C36 C 0.4649(13) 0.1195(15) 0.5050(13)
H38 H 0.4365 0.1351 0.4761
H39 H 0.4903 0.0680 0.5164
C37 C 0.5193(14) 0.1645(13) 0.4659(12)
H40 H 0.5642 0.1432 0.4328
H41 H 0.4976 0.2144 0.4397
C38 C 0.5317(11) 0.1587(11) 0.5288(11)
H42 H 0.5758 0.1182 0.5355
C39 C 0.5379(11) 0.2250(11) 0.5169(10)
C40 C 0.6833(9) 0.2645(9) 0.4808(9)
H43 H 0.7136 0.2166 0.4889
C41 C 0.6216(9) 0.2828(9) 0.4732(9)
C42 C 0.5753(9) 0.3531(10) 0.4600(9)
H44 H 0.5331 0.3670 0.4524
C43 C 0.5947(10) 0.4003(10) 0.4588(10)
H45 H 0.5646 0.4482 0.4505
C44 C 0.6571(10) 0.3807(10) 0.4692(10)
H46 H 0.6677 0.4143 0.4708
N8 N 0.5846(8) 0.1694(8) 0.8541(9)
N9 N 0.4823(8) 0.0451(8) 0.8757(8)
N10 N 0.4197(8) 0.0861(8) 0.7795(9)
H47 H 0.4305 0.1137 0.7851
N11 N 0.6046(8) 0.2261(8) 0.4825(8)
H48 H 0.6382 0.1920 0.4656
N12 N 0.7034(7) 0.3123(8) 0.4772(8)
O7 O 0.5871(8) -0.0075(8) 0.8063(8)
O8 O 0.4847(7) 0.2725(7) 0.5357(7)
C45 C 0.9258(11) 0.2452(10) 0.5314(11)
H49 H 0.8933 0.2306 0.5772
C46 C 0.9912(11) 0.2365(11) 0.5247(11)
H50 H 1.0042 0.2141 0.5657
C47 C 1.0385(10) 0.2595(10) 0.4598(9)
H51 H 1.0837 0.2548 0.4546
C48 C 1.0166(11) 0.2903(10) 0.4013(10)
C49 C 0.9492(9) 0.2967(10) 0.4103(10)
H52 H 0.9351 0.3173 0.3703
C50 C 1.0656(11) 0.3177(11) 0.3274(11)
C51 C 1.0427(11) 0.2613(12) 0.2703(11)
H53 H 1.0631 0.2108 0.2963
H54 H 0.9913 0.2750 0.2822
C52 C 1.0828(13) 0.2836(12) 0.1920(10)
H55 H 1.0521 0.3126 0.1625
H56 H 1.1214 0.2438 0.1756
C53 C 1.1087(11) 0.3267(10) 0.2005(10)
H57 H 1.1599 0.3038 0.1953
C54 C 1.0904(15) 0.4056(14) 0.1560(11)
C55 C 1.0557(15) 0.5265(11) 0.1473(12)
H58 H 1.0246 0.5432 0.1207
H59 H 1.0992 0.5386 0.1135
C56 C 1.0179(10) 0.5611(12) 0.2037(10)
N13 N 0.9992(9) 0.6317(9) 0.1793(8)
C57 C 1.0113(16) 0.6776(12) 0.1074(11)
H60 H 1.0029 0.6633 0.0795
H61 H 1.0597 0.6799 0.0843
C58 C 0.953(3) 0.751(2) 0.119(3)
H62 H 0.9660 0.7919 0.0786
H63 H 0.9058 0.7554 0.1237
C59 C 0.9521(13) 0.7464(12) 0.1816(11)
H64 H 0.9060 0.7770 0.2047
H65 H 0.9897 0.7623 0.1711
C60 C 0.9649(11) 0.6690(11) 0.2307(11)
H66 H 0.9969 0.6546 0.2559
C61 C 0.8951(10) 0.6565(10) 0.2825(9)
C62 C 0.8279(10) 0.5995(9) 0.4726(9)
H67 H 0.8718 0.5866 0.4767
C63 C 0.8231(9) 0.6346(9) 0.4075(9)
C64 C 0.7545(11) 0.6605(11) 0.4020(10)
H68 H 0.7470 0.6889 0.3578
C65 C 0.7021(11) 0.6431(9) 0.4608(11)
H69 H 0.6568 0.6585 0.4583
C66 C 0.7124(9) 0.6031(10) 0.5255(10)
H70 H 0.6742 0.5909 0.5661
N14 N 0.9059(8) 0.2743(8) 0.4739(8)
N15 N 1.0635(8) 0.3113(8) 0.2744(8)
N16 N 1.0734(12) 0.4508(9) 0.1833(9)
H71 H 1.0724 0.4344 0.2270
N17 N 0.8803(8) 0.6482(9) 0.3496(8)
H72 H 0.9115 0.6521 0.3572
N18 N 0.7756(7) 0.5808(8) 0.5330(7)
O9 O 1.1016(8) 0.3490(9) 0.3179(7)
O10 O 1.112(3) 0.421(3) 0.094(2)
O11 O 1.0015(8) 0.5281(8) 0.2675(8)
O12 O 0.8545(7) 0.6555(7) 0.2638(6)
C67 C 0.8126(10) 0.3881(10) 0.7717(9)
H73 H 0.8360 0.3625 0.7402
C68 C 0.8102(9) 0.3514(9) 0.8395(9)
H74 H 0.8298 0.3013 0.8555
C69 C 0.7794(10) 0.3878(9) 0.8841(10)
H75 H 0.7794 0.3633 0.9314
C70 C 0.7487(10) 0.4586(9) 0.8617(8)
C71 C 0.7527(10) 0.4939(10) 0.7904(9)
H76 H 0.7325 0.5439 0.7737
C72 C 0.7086(11) 0.5003(10) 0.9119(10)
C73 C 0.7746(12) 0.5944(11) 0.8299(11)
H77 H 0.7724 0.6152 0.7817
H78 H 0.8228 0.5621 0.8308
C74 C 0.7418(12) 0.6499(11) 0.8666(10)
H79 H 0.7756 0.6509 0.8798
H80 H 0.7166 0.6980 0.8403
C75 C 0.6925(10) 0.6079(10) 0.9288(11)
H81 H 0.7092 0.5795 0.9704
C76 C 0.6169(11) 0.6467(11) 0.9502(10)
C77 C 0.5016(10) 0.6770(10) 0.9417(11)
H82 H 0.4836 0.7220 0.9065
H83 H 0.4830 0.6855 0.9866
C78 C 0.4785(10) 0.6208(10) 0.9530(10)
C79 C 0.3549(11) 0.6821(13) 1.0252(13)
H84 H 0.3726 0.6918 1.0491
H85 H 0.3371 0.7266 0.9896
C80 C 0.3016(13) 0.6500(14) 1.0750(14)
H86 H 0.2546 0.6866 1.0851
H87 H 0.3116 0.6187 1.1198
C81 C 0.3032(12) 0.6067(12) 1.0408(11)
H88 H 0.2812 0.5700 1.0768
H89 H 0.2788 0.6376 1.0054
C82 C 0.3826(11) 0.5737(11) 1.0059(10)
H90 H 0.4023 0.5265 1.0387
C83 C 0.3978(10) 0.5682(10) 0.9369(10)
C84 C 0.4618(9) 0.4130(9) 0.8923(9)
H91 H 0.4715 0.3804 0.9349
C85 C 0.4291(9) 0.4834(9) 0.8847(9)
C86 C 0.4121(9) 0.5312(9) 0.8235(10)
H92 H 0.3877 0.5801 0.8172
C87 C 0.4326(12) 0.5041(10) 0.7724(10)
H93 H 0.4229 0.5348 0.7295
C88 C 0.4661(11) 0.4345(11) 0.7834(11)
H94 H 0.4799 0.4179 0.7470
N19 N 0.7838(8) 0.4588(8) 0.7461(7)
N20 N 0.7182(9) 0.5637(8) 0.8851(8)
N21 N 0.5779(8) 0.6516(8) 0.9167(8)
H95 H 0.6007 0.6388 0.8790
N22 N 0.4111(10) 0.6262(9) 0.9925(9)
N23 N 0.4152(8) 0.5020(8) 0.9406(8)
H96 H 0.4182 0.4678 0.9809
N24 N 0.4809(8) 0.3880(8) 0.8412(9)
O13 O 0.6704(8) 0.4809(7) 0.9716(7)
O14 O 0.5890(7) 0.6745(9) 0.9957(8)
O15 O 0.5189(7) 0.5740(7) 0.9269(7)
O16 O 0.3894(7) 0.6214(6) 0.8867(7)
Ag1A Ag 0.63587(7) 0.78840(7) 0.51552(7)
Ag2A Ag 0.28060(8) 0.65766(8) 0.45014(7)
Ag3A Ag 0.48402(7) 0.80267(7) 0.28609(7)
Ag4A Ag 0.85421(9) 0.53405(8) 0.27645(7)
C1A C 0.3004(10) 0.6212(11) 0.3297(10)
H1A H 0.3038 0.5753 0.3640
C2A C 0.3033(11) 0.6355(11) 0.2615(11)
H2A H 0.3074 0.5990 0.2508
C3A C 0.3005(11) 0.7024(11) 0.2096(11)
H3A H 0.3032 0.7112 0.1638
C4A C 0.2937(10) 0.7534(10) 0.2261(9)
C5A C 0.2920(9) 0.7369(10) 0.2933(9)
H4A H 0.2902 0.7726 0.3035
C6A C 0.2978(10) 0.8233(11) 0.1707(10)
C7A C 0.1862(11) 0.8960(11) 0.2490(11)
H5A H 0.1915 0.8804 0.2949
H6A H 0.1514 0.8795 0.2546
C8A C 0.1743(11) 0.9762(11) 0.2065(12)
H7A H 0.1742 1.0019 0.2299
H8A H 0.1330 1.0014 0.1905
C9A C 0.2469(10) 0.9534(11) 0.1484(11)
H9A H 0.2393 0.9649 0.1046
C10A C 0.3017(10) 0.9840(12) 0.1306(10)
C11A C 0.4203(11) 0.9534(10) 0.1275(10)
H10A H 0.4171 0.9605 0.1677
H11A H 0.4219 0.9973 0.0863
C12A C 0.4876(10) 0.8908(11) 0.1097(10)
C13A C 0.5608(10) 0.9695(10) 0.0527(11)
H12A H 0.5305 0.9915 0.0900
H13A H 0.5518 1.0042 0.0079
C14A C 0.6386(11) 0.9430(10) 0.0436(12)
H14A H 0.6447 0.9277 0.0890
H15A H 0.6603 0.9801 0.0081
C15A C 0.6720(11) 0.8784(11) 0.0175(13)
H16A H 0.6820 0.8946 -0.0339
H17A H 0.7163 0.8450 0.0281
C16A C 0.6131(11) 0.8436(10) 0.0608(11)
H18A H 0.6127 0.8219 0.0334
C17A C 0.6223(9) 0.7888(10) 0.1329(10)
C18A C 0.6590(9) 0.6026(10) 0.2102(11)
H19A H 0.6546 0.5994 0.1736
C19A C 0.6618(8) 0.6658(9) 0.1996(9)
C20A C 0.6716(10) 0.6705(9) 0.2510(10)
H20A H 0.6785 0.7109 0.2437
C21A C 0.6709(10) 0.6129(11) 0.3141(12)
H21A H 0.6734 0.6151 0.3525
C22A C 0.6667(10) 0.5530(10) 0.3199(10)
H22A H 0.6670 0.5141 0.3627
N1A N 0.2926(7) 0.6735(8) 0.3448(7)
N2A N 0.2538(8) 0.8812(8) 0.1915(8)
N3A N 0.3592(10) 0.9363(10) 0.1460(9)
H23A H 0.3610 0.8919 0.1685
N4A N 0.5486(8) 0.9026(8) 0.0737(8)
N5A N 0.6546(8) 0.7225(7) 0.1368(8)
H24A H 0.6729 0.7127 0.0978
N6A N 0.6622(8) 0.5469(7) 0.2680(8)
O1A O 0.3383(7) 0.8291(7) 0.1109(7)
O2A O 0.2937(9) 1.0459(7) 0.0987(9)
O3A O 0.4829(7) 0.8316(7) 0.1315(9)
O4A O 0.6008(7) 0.8108(6) 0.1819(7)
C23A C 0.8455(11) 0.6558(11) 0.1359(11)
H25A H 0.8442 0.6801 0.1594
C24A C 0.8387(12) 0.6922(11) 0.0714(10)
H26A H 0.8344 0.7407 0.0498
C25A C 0.8383(10) 0.6574(11) 0.0357(10)
H27A H 0.8337 0.6822 -0.0098
C26A C 0.8446(10) 0.5875(10) 0.0689(8)
C27A C 0.8541(10) 0.5519(11) 0.1343(9)
H28A H 0.8609 0.5028 0.1556
C28A C 0.8421(10) 0.5510(11) 0.0314(10)
C29A C 0.9385(10) 0.4299(11) 0.0655(11)
H29A H 0.9272 0.4013 0.1164
H30A H 0.9746 0.4501 0.0501
C30A C 0.9558(10) 0.3918(11) 0.0189(12)
H31A H 0.9551 0.3427 0.0448
H32A H 0.9996 0.3940 -0.0224
C31A C 0.8873(11) 0.4463(12) 0.0018(12)
H33A H 0.8981 0.4762 -0.0493
C32A C 0.8278(12) 0.4164(14) 0.0269(15)
O5A O 0.829(2) 0.411(2) -0.025(2)
C33A C 0.7143(11) 0.4060(10) 0.1095(10)
H34A H 0.7129 0.3619 0.1505
H35A H 0.7118 0.4014 0.0708
C34A C 0.6538(11) 0.4686(11) 0.1296(10)
O6A O 0.6614(8) 0.5146(7) 0.1338(7)
N7A N 0.5904(9) 0.4695(9) 0.1425(8)
C35A C 0.5721(11) 0.4194(11) 0.1407(11)
H36A H 0.5624 0.3825 0.1876
H37A H 0.6106 0.3964 0.1054
C36A C 0.5050(13) 0.4649(13) 0.1195(15)
H38A H 0.4761 0.4365 0.1351
H39A H 0.5164 0.4903 0.0680
C37A C 0.4659(12) 0.5193(14) 0.1645(13)
H40A H 0.4328 0.5642 0.1432
H41A H 0.4397 0.4976 0.2144
C38A C 0.5288(11) 0.5317(11) 0.1587(11)
H42A H 0.5355 0.5758 0.1182
C39A C 0.5169(10) 0.5379(11) 0.2250(11)
C40A C 0.4808(9) 0.6833(9) 0.2645(9)
H43A H 0.4889 0.7136 0.2166
C41A C 0.4732(9) 0.6216(9) 0.2828(9)
C42A C 0.4600(9) 0.5753(9) 0.3531(10)
H44A H 0.4524 0.5331 0.3670
C43A C 0.4588(10) 0.5947(10) 0.4003(10)
H45A H 0.4505 0.5646 0.4482
C44A C 0.4692(10) 0.6571(10) 0.3807(10)
H46A H 0.4708 0.6677 0.4143
N8A N 0.8541(9) 0.5846(8) 0.1694(8)
N9A N 0.8757(8) 0.4823(8) 0.0451(8)
N10A N 0.7795(9) 0.4197(8) 0.0861(8)
H47A H 0.7851 0.4305 0.1137
N11A N 0.4825(8) 0.6046(8) 0.2261(8)
H48A H 0.4656 0.6382 0.1920
N12A N 0.4772(8) 0.7034(7) 0.3123(8)
O7A O 0.8063(8) 0.5871(8) -0.0075(8)
O8A O 0.5357(7) 0.4847(7) 0.2725(7)
C45A C 0.5314(11) 0.9258(11) 0.2452(10)
H49A H 0.5772 0.8933 0.2306
C46A C 0.5247(11) 0.9912(11) 0.2365(11)
H50A H 0.5657 1.0042 0.2141
C47A C 0.4598(9) 1.0385(10) 0.2595(10)
H51A H 0.4546 1.0837 0.2548
C48A C 0.4013(10) 1.0166(11) 0.2903(10)
C49A C 0.4103(10) 0.9492(9) 0.2967(10)
H52A H 0.3703 0.9351 0.3173
C50A C 0.3274(11) 1.0656(11) 0.3177(11)
C51A C 0.2703(11) 1.0427(11) 0.2613(12)
H53A H 0.2963 1.0631 0.2108
H54A H 0.2822 0.9913 0.2750
C52A C 0.1920(10) 1.0828(13) 0.2836(12)
H55A H 0.1625 1.0521 0.3126
H56A H 0.1756 1.1214 0.2438
C53A C 0.2005(10) 1.1087(11) 0.3267(10)
H57A H 0.1953 1.1599 0.3038
C54A C 0.1560(11) 1.0904(15) 0.4056(14)
C55A C 0.1473(12) 1.0557(15) 0.5265(11)
H58A H 0.1207 1.0246 0.5432
H59A H 0.1135 1.0992 0.5386
C56A C 0.2037(10) 1.0179(10) 0.5611(12)
N13A N 0.1793(8) 0.9992(9) 0.6317(9)
C57A C 0.1074(11) 1.0113(16) 0.6776(12)
H60A H 0.0795 1.0029 0.6633
H61A H 0.0843 1.0597 0.6799
C58A C 0.119(3) 0.953(3) 0.751(2)
H62A H 0.0786 0.9660 0.7919
H63A H 0.1237 0.9058 0.7554
C59A C 0.1816(11) 0.9521(13) 0.7464(12)
H64A H 0.2047 0.9060 0.7770
H65A H 0.1711 0.9897 0.7623
C60A C 0.2307(11) 0.9649(11) 0.6690(11)
H66A H 0.2559 0.9969 0.6546
C61A C 0.2825(9) 0.8951(10) 0.6565(10)
C62A C 0.4726(9) 0.8279(10) 0.5995(9)
H67A H 0.4767 0.8718 0.5866
C63A C 0.4075(9) 0.8231(9) 0.6346(9)
C64A C 0.4020(10) 0.7545(11) 0.6605(11)
H68A H 0.3578 0.7470 0.6889
C65A C 0.4608(11) 0.7021(11) 0.6431(9)
H69A H 0.4583 0.6568 0.6585
C66A C 0.5255(10) 0.7124(9) 0.6031(10)
H70A H 0.5661 0.6742 0.5909
N14A N 0.4739(8) 0.9059(8) 0.2743(8)
N15A N 0.2744(8) 1.0635(8) 0.3113(8)
N16A N 0.1833(9) 1.0734(12) 0.4508(9)
H71A H 0.2270 1.0724 0.4344
N17A N 0.3496(8) 0.8803(8) 0.6482(9)
H72A H 0.3572 0.9115 0.6521
N18A N 0.5330(7) 0.7756(7) 0.5808(8)
O9A O 0.3179(7) 1.1016(8) 0.3490(9)
O10A O 0.094(2) 1.112(3) 0.421(3)
O11A O 0.2675(8) 1.0015(8) 0.5281(8)
O12A O 0.2638(6) 0.8545(7) 0.6555(7)
C67A C 0.7717(9) 0.8126(10) 0.3881(10)
H73A H 0.7402 0.8360 0.3625
C68A C 0.8395(9) 0.8102(9) 0.3514(9)
H74A H 0.8555 0.8298 0.3013
C69A C 0.8841(10) 0.7794(10) 0.3878(9)
H75A H 0.9314 0.7794 0.3633
C70A C 0.8617(8) 0.7487(10) 0.4586(9)
C71A C 0.7904(9) 0.7527(10) 0.4939(10)
H76A H 0.7737 0.7325 0.5439
C72A C 0.9119(10) 0.7086(11) 0.5003(10)
C73A C 0.8299(11) 0.7746(12) 0.5944(11)
H77A H 0.7817 0.7724 0.6152
H78A H 0.8308 0.8228 0.5621
C74A C 0.8666(10) 0.7418(12) 0.6499(11)
H79A H 0.8798 0.7756 0.6509
H80A H 0.8403 0.7166 0.6980
C75A C 0.9288(11) 0.6925(10) 0.6079(10)
H81A H 0.9704 0.7092 0.5795
C76A C 0.9502(10) 0.6169(11) 0.6467(11)
C77A C 0.9417(11) 0.5016(10) 0.6770(10)
H82A H 0.9065 0.4836 0.7220
H83A H 0.9866 0.4830 0.6855
C78A C 0.9530(10) 0.4785(10) 0.6208(10)
C79A C 1.0252(13) 0.3549(11) 0.6821(13)
H84A H 1.0491 0.3726 0.6918
H85A H 0.9896 0.3371 0.7266
C80A C 1.0750(14) 0.3016(13) 0.6500(14)
H86A H 1.0851 0.2546 0.6866
H87A H 1.1198 0.3116 0.6187
C81A C 1.0408(11) 0.3032(12) 0.6067(12)
H88A H 1.0768 0.2812 0.5700
H89A H 1.0054 0.2788 0.6376
C82A C 1.0059(10) 0.3826(11) 0.5737(11)
H90A H 1.0387 0.4023 0.5265
C83A C 0.9369(10) 0.3978(10) 0.5682(10)
C84A C 0.8923(9) 0.4618(9) 0.4130(9)
H91A H 0.9349 0.4715 0.3804
C85A C 0.8847(9) 0.4291(9) 0.4834(9)
C86A C 0.8235(10) 0.4121(9) 0.5312(9)
H92A H 0.8172 0.3877 0.5801
C87A C 0.7724(10) 0.4326(12) 0.5041(10)
H93A H 0.7295 0.4229 0.5348
C88A C 0.7834(11) 0.4661(11) 0.4345(11)
H94A H 0.7470 0.4799 0.4179
N19A N 0.7461(7) 0.7838(8) 0.4588(8)
N20A N 0.8851(8) 0.7182(9) 0.5637(8)
N21A N 0.9167(8) 0.5779(8) 0.6516(8)
H95A H 0.8790 0.6007 0.6388
N22A N 0.9925(9) 0.4111(10) 0.6262(9)
N23A N 0.9406(8) 0.4152(8) 0.5020(8)
H96A H 0.9809 0.4182 0.4678
N24A N 0.8412(9) 0.4809(8) 0.3880(8)
O13A O 0.9716(7) 0.6704(8) 0.4809(7)
O14A O 0.9957(8) 0.5890(7) 0.6745(9)
O15A O 0.9269(7) 0.5189(7) 0.5740(7)
O16A O 0.8867(7) 0.3894(7) 0.6214(6)
Ag1B Ag 0.51552(7) 0.63587(7) 0.78840(7)
Ag2B Ag 0.45014(7) 0.28060(8) 0.65766(8)
Ag3B Ag 0.28609(7) 0.48402(7) 0.80267(7)
Ag4B Ag 0.27645(7) 0.85421(9) 0.53405(8)
C1B C 0.3297(10) 0.3004(10) 0.6212(11)
H1B H 0.3640 0.3038 0.5753
C2B C 0.2615(11) 0.3033(11) 0.6355(11)
H2B H 0.2508 0.3074 0.5990
C3B C 0.2096(11) 0.3005(11) 0.7024(11)
H3B H 0.1638 0.3032 0.7112
C4B C 0.2261(9) 0.2937(10) 0.7534(10)
C5B C 0.2933(9) 0.2920(9) 0.7369(10)
H4B H 0.3035 0.2902 0.7726
C6B C 0.1707(10) 0.2978(10) 0.8233(11)
C7B C 0.2490(11) 0.1862(11) 0.8960(11)
H5B H 0.2949 0.1915 0.8804
H6B H 0.2546 0.1514 0.8795
C8B C 0.2065(12) 0.1743(11) 0.9762(11)
H7B H 0.2299 0.1742 1.0019
H8B H 0.1905 0.1330 1.0014
C9B C 0.1484(11) 0.2469(10) 0.9534(11)
H9B H 0.1046 0.2393 0.9649
C10B C 0.1306(10) 0.3017(10) 0.9840(12)
C11B C 0.1275(10) 0.4203(11) 0.9534(10)
H10B H 0.1677 0.4171 0.9605
H11B H 0.0863 0.4219 0.9973
C12B C 0.1097(10) 0.4876(10) 0.8908(11)
C13B C 0.0527(11) 0.5608(10) 0.9695(10)
H12B H 0.0900 0.5305 0.9915
H13B H 0.0079 0.5518 1.0042
C14B C 0.0436(12) 0.6386(11) 0.9430(10)
H14B H 0.0890 0.6447 0.9277
H15B H 0.0081 0.6603 0.9801
C15B C 0.0175(13) 0.6720(11) 0.8784(11)
H16B H -0.0339 0.6820 0.8946
H17B H 0.0281 0.7163 0.8450
C16B C 0.0608(11) 0.6131(11) 0.8436(10)
H18B H 0.0334 0.6127 0.8219
C17B C 0.1329(10) 0.6223(9) 0.7888(10)
C18B C 0.2102(11) 0.6590(9) 0.6026(10)
H19B H 0.1736 0.6546 0.5994
C19B C 0.1996(9) 0.6618(8) 0.6658(9)
C20B C 0.2510(10) 0.6716(10) 0.6705(9)
H20B H 0.2437 0.6785 0.7109
C21B C 0.3141(12) 0.6709(10) 0.6129(11)
H21B H 0.3525 0.6734 0.6151
C22B C 0.3199(10) 0.6667(10) 0.5530(10)
H22B H 0.3627 0.6670 0.5141
N1B N 0.3448(7) 0.2926(7) 0.6735(8)
N2B N 0.1915(8) 0.2538(8) 0.8812(8)
N3B N 0.1460(9) 0.3592(10) 0.9363(10)
H23B H 0.1685 0.3610 0.8919
N4B N 0.0737(8) 0.5486(8) 0.9026(8)
N5B N 0.1368(8) 0.6546(8) 0.7225(7)
H24B H 0.0978 0.6729 0.7127
N6B N 0.2680(8) 0.6622(8) 0.5469(7)
O1B O 0.1109(7) 0.3383(7) 0.8291(7)
O2B O 0.0987(9) 0.2937(9) 1.0459(7)
O3B O 0.1315(9) 0.4829(7) 0.8316(7)
O4B O 0.1819(7) 0.6008(7) 0.8108(6)
C23B C 0.1359(11) 0.8455(11) 0.6558(11)
H25B H 0.1594 0.8442 0.6801
C24B C 0.0714(10) 0.8387(12) 0.6922(11)
H26B H 0.0498 0.8344 0.7407
C25B C 0.0357(10) 0.8383(10) 0.6574(11)
H27B H -0.0098 0.8337 0.6822
C26B C 0.0689(8) 0.8446(10) 0.5875(10)
C27B C 0.1343(9) 0.8541(10) 0.5519(11)
H28B H 0.1556 0.8609 0.5028
C28B C 0.0314(10) 0.8421(10) 0.5510(11)
C29B C 0.0655(11) 0.9385(10) 0.4299(11)
H29B H 0.1164 0.9272 0.4013
H30B H 0.0501 0.9746 0.4501
C30B C 0.0189(12) 0.9558(10) 0.3918(11)
H31B H 0.0448 0.9551 0.3427
H32B H -0.0224 0.9996 0.3940
C31B C 0.0018(12) 0.8873(11) 0.4463(12)
H33B H -0.0493 0.8981 0.4762
C32B C 0.0269(15) 0.8278(12) 0.4164(14)
O5B O -0.025(2) 0.829(2) 0.411(2)
C33B C 0.1095(10) 0.7143(11) 0.4060(10)
H34B H 0.1505 0.7129 0.3619
H35B H 0.0708 0.7118 0.4014
C34B C 0.1296(10) 0.6538(11) 0.4686(11)
O6B O 0.1338(7) 0.6614(8) 0.5146(7)
N7B N 0.1425(8) 0.5904(9) 0.4695(9)
C35B C 0.1407(11) 0.5721(11) 0.4194(11)
H36B H 0.1876 0.5624 0.3825
H37B H 0.1054 0.6106 0.3964
C36B C 0.1195(15) 0.5050(13) 0.4649(13)
H38B H 0.1351 0.4761 0.4365
H39B H 0.0680 0.5164 0.4903
C37B C 0.1645(13) 0.4659(12) 0.5193(14)
H40B H 0.1432 0.4328 0.5642
H41B H 0.2144 0.4397 0.4976
C38B C 0.1587(11) 0.5288(11) 0.5317(11)
H42B H 0.1182 0.5355 0.5758
C39B C 0.2250(11) 0.5169(10) 0.5379(11)
C40B C 0.2645(9) 0.4808(9) 0.6833(9)
H43B H 0.2166 0.4889 0.7136
C41B C 0.2828(9) 0.4732(9) 0.6216(9)
C42B C 0.3531(10) 0.4600(9) 0.5753(9)
H44B H 0.3670 0.4524 0.5331
C43B C 0.4003(10) 0.4588(10) 0.5947(10)
H45B H 0.4482 0.4505 0.5646
C44B C 0.3807(10) 0.4692(10) 0.6571(10)
H46B H 0.4143 0.4708 0.6677
N8B N 0.1694(8) 0.8541(9) 0.5846(8)
N9B N 0.0451(8) 0.8757(8) 0.4823(8)
N10B N 0.0861(8) 0.7795(9) 0.4197(8)
H47B H 0.1137 0.7851 0.4305
N11B N 0.2261(8) 0.4825(8) 0.6046(8)
H48B H 0.1920 0.4656 0.6382
N12B N 0.3123(8) 0.4772(8) 0.7034(7)
O7B O -0.0075(8) 0.8063(8) 0.5871(8)
O8B O 0.2725(7) 0.5357(7) 0.4847(7)
C45B C 0.2452(10) 0.5314(11) 0.9258(11)
H49B H 0.2306 0.5772 0.8933
C46B C 0.2365(11) 0.5247(11) 0.9912(11)
H50B H 0.2141 0.5657 1.0042
C47B C 0.2595(10) 0.4598(9) 1.0385(10)
H51B H 0.2548 0.4546 1.0837
C48B C 0.2903(10) 0.4013(10) 1.0166(11)
C49B C 0.2967(10) 0.4103(10) 0.9492(9)
H52B H 0.3173 0.3703 0.9351
C50B C 0.3177(11) 0.3274(11) 1.0656(11)
C51B C 0.2613(12) 0.2703(11) 1.0427(11)
H53B H 0.2108 0.2963 1.0631
H54B H 0.2750 0.2822 0.9913
C52B C 0.2836(12) 0.1920(10) 1.0828(13)
H55B H 0.3126 0.1625 1.0521
H56B H 0.2438 0.1756 1.1214
C53B C 0.3267(10) 0.2005(10) 1.1087(11)
H57B H 0.3038 0.1953 1.1599
C54B C 0.4056(14) 0.1560(11) 1.0904(15)
C55B C 0.5265(11) 0.1473(12) 1.0557(15)
H58B H 0.5432 0.1207 1.0246
H59B H 0.5386 0.1135 1.0992
C56B C 0.5611(12) 0.2037(10) 1.0179(10)
N13B N 0.6317(9) 0.1793(8) 0.9992(9)
C57B C 0.6776(12) 0.1074(11) 1.0113(16)
H60B H 0.6633 0.0795 1.0029
H61B H 0.6799 0.0843 1.0597
C58B C 0.751(2) 0.119(3) 0.953(3)
H62B H 0.7919 0.0786 0.9660
H63B H 0.7554 0.1237 0.9058
C59B C 0.7464(12) 0.1816(11) 0.9521(13)
H64B H 0.7770 0.2047 0.9060
H65B H 0.7623 0.1711 0.9897
C60B C 0.6690(11) 0.2307(11) 0.9649(11)
H66B H 0.6546 0.2559 0.9969
C61B C 0.6565(10) 0.2825(9) 0.8951(10)
C62B C 0.5995(9) 0.4726(9) 0.8279(10)
H67B H 0.5866 0.4767 0.8718
C63B C 0.6346(9) 0.4075(9) 0.8231(9)
C64B C 0.6605(11) 0.4020(10) 0.7545(11)
H68B H 0.6889 0.3578 0.7470
C65B C 0.6431(9) 0.4608(11) 0.7021(11)
H69B H 0.6585 0.4583 0.6568
C66B C 0.6031(10) 0.5255(10) 0.7124(9)
H70B H 0.5909 0.5661 0.6742
N14B N 0.2743(8) 0.4739(8) 0.9059(8)
N15B N 0.3113(8) 0.2744(8) 1.0635(8)
N16B N 0.4508(9) 0.1833(9) 1.0734(12)
H71B H 0.4344 0.2270 1.0724
N17B N 0.6482(9) 0.3496(8) 0.8803(8)
H72B H 0.6521 0.3572 0.9115
N18B N 0.5808(8) 0.5330(7) 0.7756(7)
O9B O 0.3490(9) 0.3179(7) 1.1016(8)
O10B O 0.421(3) 0.094(2) 1.112(3)
O11B O 0.5281(8) 0.2675(8) 1.0015(8)
O12B O 0.6555(7) 0.2638(6) 0.8545(7)
C67B C 0.3881(10) 0.7717(9) 0.8126(10)
H73B H 0.3625 0.7402 0.8360
C68B C 0.3514(9) 0.8395(9) 0.8102(9)
H74B H 0.3013 0.8555 0.8298
C69B C 0.3878(9) 0.8841(10) 0.7794(10)
H75B H 0.3633 0.9314 0.7794
C70B C 0.4586(9) 0.8617(8) 0.7487(10)
C71B C 0.4939(10) 0.7904(9) 0.7527(10)
H76B H 0.5439 0.7737 0.7325
C72B C 0.5003(10) 0.9119(10) 0.7086(11)
C73B C 0.5944(11) 0.8299(11) 0.7746(12)
H77B H 0.6152 0.7817 0.7724
H78B H 0.5621 0.8308 0.8228
C74B C 0.6499(11) 0.8666(10) 0.7418(12)
H79B H 0.6509 0.8798 0.7756
H80B H 0.6980 0.8403 0.7166
C75B C 0.6079(10) 0.9288(11) 0.6925(10)
H81B H 0.5795 0.9704 0.7092
C76B C 0.6467(11) 0.9502(10) 0.6169(11)
C77B C 0.6770(10) 0.9417(11) 0.5016(10)
H82B H 0.7220 0.9065 0.4836
H83B H 0.6855 0.9866 0.4830
C78B C 0.6208(10) 0.9530(10) 0.4785(10)
C79B C 0.6821(13) 1.0252(13) 0.3549(11)
H84B H 0.6918 1.0491 0.3726
H85B H 0.7266 0.9896 0.3371
C80B C 0.6500(14) 1.0750(14) 0.3016(13)
H86B H 0.6866 1.0851 0.2546
H87B H 0.6187 1.1198 0.3116
C81B C 0.6067(12) 1.0408(11) 0.3032(12)
H88B H 0.5700 1.0768 0.2812
H89B H 0.6376 1.0054 0.2788
C82B C 0.5737(11) 1.0059(10) 0.3826(11)
H90B H 0.5265 1.0387 0.4023
C83B C 0.5682(10) 0.9369(10) 0.3978(10)
C84B C 0.4130(9) 0.8923(9) 0.4618(9)
H91B H 0.3804 0.9349 0.4715
C85B C 0.4834(9) 0.8847(9) 0.4291(9)
C86B C 0.5312(9) 0.8235(10) 0.4121(9)
H92B H 0.5801 0.8172 0.3877
C87B C 0.5041(10) 0.7724(10) 0.4326(12)
H93B H 0.5348 0.7295 0.4229
C88B C 0.4345(11) 0.7834(11) 0.4661(11)
H94B H 0.4179 0.7470 0.4799
N19B N 0.4588(8) 0.7461(7) 0.7838(8)
N20B N 0.5637(8) 0.8851(8) 0.7182(9)
N21B N 0.6516(8) 0.9167(8) 0.5779(8)
H95B H 0.6388 0.8790 0.6007
N22B N 0.6262(9) 0.9925(9) 0.4111(10)
N23B N 0.5020(8) 0.9406(8) 0.4152(8)
H96B H 0.4678 0.9809 0.4182
N24B N 0.3880(8) 0.8412(9) 0.4809(8)
O13B O 0.4809(7) 0.9716(7) 0.6704(8)
O14B O 0.6745(9) 0.9957(8) 0.5890(7)
O15B O 0.5740(7) 0.9269(7) 0.5189(7)
O16B O 0.6214(6) 0.8867(7) 0.3894(7)
B1 B 0.8410(11) 0.3805(11) 0.2860(12)
F1 F 0.8202(6) 0.4018(6) 0.2290(6)
F2 F 0.8597(6) 0.3086(6) 0.3183(6)
F3 F 0.9036(6) 0.4009(6) 0.2545(6)
F4 F 0.7920(6) 0.4148(6) 0.3318(6)
B2 B 0.5481(6) 0.5481(6) 0.5481(6)
F5 F 0.5720(3) 0.5720(3) 0.5720(3)
F6 F 0.5994(7) 0.5327(8) 0.4895(7)
F6A F 0.4895(7) 0.5994(7) 0.5327(8)
F6B F 0.5327(8) 0.4895(7) 0.5994(7)
B3 B 0.6818(6) 0.6818(6) 0.6818(6)
F7 F 0.6577(3) 0.6577(3) 0.6577(3)
F8 F 0.7554(5) 0.6488(5) 0.6651(6)
F8A F 0.6651(6) 0.7554(5) 0.6488(5)
F8B F 0.6488(5) 0.6651(6) 0.7554(5)
B4 B 0.8350(15) 0.2147(16) 0.7298(14)
F9 F 0.8063(8) 0.1613(9) 0.7671(9)
F10 F 0.8283(9) 0.2384(9) 0.7797(8)
F11 F 0.7976(7) 0.2695(8) 0.6871(8)
F12 F 0.9075(8) 0.1899(8) 0.6919(7)
B5 B 0.4012(9) 0.4012(9) 0.4012(9)
F13 F 0.3516(7) 0.3677(8) 0.4587(7)
F14 F 0.4252(4) 0.4252(4) 0.4252(4)
F13A F 0.4587(7) 0.3516(7) 0.3677(8)
F13B F 0.3677(8) 0.4587(7) 0.3516(7)
B6 B 0.2333(19) 0.161(2) 0.564(2)
F15 F 0.3010(13) 0.1127(14) 0.5470(16)
F16 F 0.2376(18) 0.2231(16) 0.5520(19)
F17 F 0.203(2) 0.176(2) 0.513(2)
F18 F 0.1799(18) 0.145(2) 0.6180(17)
C89 C 0.795(7) 0.146(3) 0.112(8)
H97 H 0.7653 0.1385 0.0997
H98 H 0.8440 0.1321 0.0818
H99 H 0.7913 0.1175 0.1618
N25 N 0.770(4) 0.222(3) 0.103(4)
O17 O 0.735(3) 0.265(3) 0.063(3)
O18 O 0.804(3) 0.235(4) 0.118(4)
C90 C 0.940(4) 0.103(4) 0.832(4)
H100 H 0.9224 0.0703 0.8794
H101 H 0.9024 0.1302 0.8107
H102 H 0.9812 0.0753 0.8026
N26 N 0.959(4) 0.150(3) 0.837(3)
O19 O 0.928(4) 0.164(4) 0.893(3)
O20 O 0.981(5) 0.194(4) 0.781(3)
O21 O 0.7076(7) 0.1001(7) 0.4559(7)
O22 O 0.0690(11) 0.4304(11) 0.3915(11)
O23 O 0.0227(7) 0.6808(7) 0.6924(7)
O24 O 0.6102(10) 0.3895(10) 0.9942(10)
O25 O 0.905(2) 0.660(2) 0.819(2)
O26 O 0.982(3) 0.508(3) 0.840(3)
O27 O 0.945(4) 0.405(4) 0.845(4)
O28 O 0.2478(9) 0.2478(9) 0.2478(9)
O29 O 0.172(5) 0.332(5) 0.440(5)
O30 O 0.2841(17) 0.2841(17) 0.2841(17)
O31 O 0.0761(14) 0.0761(14) 0.0761(14)
O32 O 0.915(4) 0.069(4) 0.190(4)
O33? O 0.370(3) 0.002(3) 0.836(3)
C91? C 1.005(4) 0.746(3) 0.107(3)
H103? H 0.9860 0.7869 0.0697
H104? H 1.0509 0.7450 0.0996
O34? O 1.064(4) 0.425(3) 0.111(4)
O35? O 0.334(4) 0.277(4) 0.419(4)
O36? O 0.896(3) -0.028(3) 0.301(3)
O37? O 0.892(4) 0.007(4) 0.252(4)
O38? O 0.267(7) 0.363(7) 0.214(7)
loop_
_geom_bond_atom_site_label_1
_geom_bond_atom_site_label_2
_geom_bond_site_symmetry_1
_geom_bond_site_symmetry_2
Ag1 N18 1_555 1_555
Ag2 N1 1_555 1_555
Ag3 O4 1_555 1_555
Ag4 N8 1_555 1_555
C1 H1 1_555 1_555
C2 C1 1_555 1_555
H2 C2 1_555 1_555
C3 C2 1_555 1_555
H3 C3 1_555 1_555
C4 C3 1_555 1_555
C5 C4 1_555 1_555
H4 C5 1_555 1_555
C6 C4 1_555 1_555
C7 H5 1_555 1_555
H6 C7 1_555 1_555
C8 C7 1_555 1_555
H7 C8 1_555 1_555
H8 C8 1_555 1_555
C9 C8 1_555 1_555
H9 C9 1_555 1_555
C10 C9 1_555 1_555
C11 H10 1_555 1_555
H11 C11 1_555 1_555
C12 C11 1_555 1_555
C13 H12 1_555 1_555
H13 C13 1_555 1_555
C14 C13 1_555 1_555
H14 C14 1_555 1_555
H15 C14 1_555 1_555
C15 C14 1_555 1_555
H16 C15 1_555 1_555
H17 C15 1_555 1_555
C16 C15 1_555 1_555
H18 C16 1_555 1_555
C17 C16 1_555 1_555
C18 H19 1_555 1_555
C19 C18 1_555 1_555
C20 C19 1_555 1_555
H20 C20 1_555 1_555
C21 C20 1_555 1_555
H21 C21 1_555 1_555
C22 C21 1_555 1_555
H22 C22 1_555 1_555
N1 C1 1_555 1_555
N2 C6 1_555 1_555
N3 C10 1_555 1_555
H23 N3 1_555 1_555
N4 C12 1_555 1_555
N5 C17 1_555 1_555
H24 N5 1_555 1_555
N6 C18 1_555 1_555
O1 C6 1_555 1_555
O2 C10 1_555 1_555
O3 C12 1_555 1_555
O4 C17 1_555 1_555
C23 H25 1_555 1_555
C24 C23 1_555 1_555
H26 C24 1_555 1_555
C25 C24 1_555 1_555
H27 C25 1_555 1_555
C26 C25 1_555 1_555
C27 C26 1_555 1_555
H28 C27 1_555 1_555
C28 C26 1_555 1_555
C29 H29 1_555 1_555
H30 C29 1_555 1_555
C30 C29 1_555 1_555
H31 C30 1_555 1_555
H32 C30 1_555 1_555
C31 C30 1_555 1_555
H33 C31 1_555 1_555
C32 C31 1_555 1_555
O5 C32 1_555 1_555
C33 H34 1_555 1_555
H35 C33 1_555 1_555
C34 C33 1_555 1_555
O6 C34 1_555 1_555
N7 C34 1_555 1_555
C35 N7 1_555 1_555
H36 C35 1_555 1_555
H37 C35 1_555 1_555
C36 C35 1_555 1_555
H38 C36 1_555 1_555
H39 C36 1_555 1_555
C37 C36 1_555 1_555
H40 C37 1_555 1_555
H41 C37 1_555 1_555
C38 N7 1_555 1_555
H42 C38 1_555 1_555
C39 C38 1_555 1_555
C40 H43 1_555 1_555
C41 C40 1_555 1_555
C42 C41 1_555 1_555
H44 C42 1_555 1_555
C43 C42 1_555 1_555
H45 C43 1_555 1_555
C44 C43 1_555 1_555
H46 C44 1_555 1_555
N8 C23 1_555 1_555
N9 C28 1_555 1_555
N10 C32 1_555 1_555
H47 N10 1_555 1_555
N11 C39 1_555 1_555
H48 N11 1_555 1_555
N12 Ag3 1_555 1_555
O7 C28 1_555 1_555
O8 C39 1_555 1_555
C45 H49 1_555 1_555
C46 C45 1_555 1_555
H50 C46 1_555 1_555
C47 C46 1_555 1_555
H51 C47 1_555 1_555
C48 C47 1_555 1_555
C49 C48 1_555 1_555
H52 C49 1_555 1_555
C50 C48 1_555 1_555
C51 H53 1_555 1_555
H54 C51 1_555 1_555
C52 C51 1_555 1_555
H55 C52 1_555 1_555
H56 C52 1_555 1_555
C53 C52 1_555 1_555
H57 C53 1_555 1_555
C54 C53 1_555 1_555
C55 H58 1_555 1_555
H59 C55 1_555 1_555
C56 C55 1_555 1_555
N13 C56 1_555 1_555
C57 N13 1_555 1_555
H60 C57 1_555 1_555
H61 C57 1_555 1_555
C58 C57 1_555 1_555
H62 C58 1_555 1_555
H63 C58 1_555 1_555
C59 C58 1_555 1_555
H64 C59 1_555 1_555
H65 C59 1_555 1_555
C60 N13 1_555 1_555
H66 C60 1_555 1_555
C61 C60 1_555 1_555
C62 H67 1_555 1_555
C63 C62 1_555 1_555
C64 C63 1_555 1_555
H68 C64 1_555 1_555
C65 C64 1_555 1_555
H69 C65 1_555 1_555
C66 C65 1_555 1_555
H70 C66 1_555 1_555
N14 Ag3 1_555 1_555
N15 C50 1_555 1_555
N16 C54 1_555 1_555
H71 N16 1_555 1_555
N17 C61 1_555 1_555
H72 N17 1_555 1_555
N18 C62 1_555 1_555
O9 C50 1_555 1_555
O10 C54 1_555 1_555
O11 C56 1_555 1_555
O12 C61 1_555 1_555
C67 H73 1_555 1_555
C68 C67 1_555 1_555
H74 C68 1_555 1_555
C69 C68 1_555 1_555
H75 C69 1_555 1_555
C70 C69 1_555 1_555
C71 C70 1_555 1_555
H76 C71 1_555 1_555
C72 C70 1_555 1_555
C73 H77 1_555 1_555
H78 C73 1_555 1_555
C74 C73 1_555 1_555
H79 C74 1_555 1_555
H80 C74 1_555 1_555
C75 C74 1_555 1_555
H81 C75 1_555 1_555
C76 C75 1_555 1_555
C77 H82 1_555 1_555
H83 C77 1_555 1_555
C78 C77 1_555 1_555
C79 H84 1_555 1_555
H85 C79 1_555 1_555
C80 C79 1_555 1_555
H86 C80 1_555 1_555
H87 C80 1_555 1_555
C81 C80 1_555 1_555
H88 C81 1_555 1_555
H89 C81 1_555 1_555
C82 C81 1_555 1_555
H90 C82 1_555 1_555
C83 C82 1_555 1_555
C84 H91 1_555 1_555
C85 C84 1_555 1_555
C86 C85 1_555 1_555
H92 C86 1_555 1_555
C87 C86 1_555 1_555
H93 C87 1_555 1_555
C88 C87 1_555 1_555
H94 C88 1_555 1_555
N19 Ag1 1_555 1_555
N20 C72 1_555 1_555
N21 C76 1_555 1_555
H95 N21 1_555 1_555
N22 C78 1_555 1_555
N23 C83 1_555 1_555
H96 N23 1_555 1_555
N24 Ag4 1_555 1_555
O13 C72 1_555 1_555
O14 C76 1_555 1_555
O15 C78 1_555 1_555
O16 C83 1_555 1_555
B1 F1 1_555 1_555
F2 B1 1_555 1_555
F3 B1 1_555 1_555
F4 B1 1_555 1_555
B2 F5 1_555 1_555
F6 B2 1_555 1_555
B3 F7 1_555 1_555
F8 B3 1_555 1_555
B4 F9 1_555 1_555
F10 B4 1_555 1_555
F11 B4 1_555 1_555
F12 B4 1_555 1_555
B5 F13 1_555 1_555
F14 B5 1_555 1_555
B6 F15 1_555 1_555
F16 B6 1_555 1_555
F17 B6 1_555 1_555
F18 B6 1_555 1_555
C89 H97 1_555 1_555
H98 C89 1_555 1_555
H99 C89 1_555 1_555
N25 C89 1_555 1_555
O17 N25 1_555 1_555
O18 N25 1_555 1_555
C90 H100 1_555 1_555
H101 C90 1_555 1_555
H102 C90 1_555 1_555
N26 C90 1_555 1_555
O19 N26 1_555 1_555
O20 N26 1_555 1_555
Ag1A N18A 1_555 1_555
Ag2A N1A 1_555 1_555
Ag3A O4A 1_555 1_555
Ag4A O12 1_555 1_555
C1A H1A 1_555 1_555
C2A C1A 1_555 1_555
H2A C2A 1_555 1_555
C3A C2A 1_555 1_555
H3A C3A 1_555 1_555
C4A C3A 1_555 1_555
C5A C4A 1_555 1_555
H4A C5A 1_555 1_555
C6A C4A 1_555 1_555
C7A H5A 1_555 1_555
H6A C7A 1_555 1_555
C8A C7A 1_555 1_555
H7A C8A 1_555 1_555
H8A C8A 1_555 1_555
C9A C8A 1_555 1_555
H9A C9A 1_555 1_555
C10A C9A 1_555 1_555
C11A H10A 1_555 1_555
H11A C11A 1_555 1_555
C12A C11A 1_555 1_555
C13A H12A 1_555 1_555
H13A C13A 1_555 1_555
C14A C13A 1_555 1_555
H14A C14A 1_555 1_555
H15A C14A 1_555 1_555
C15A C14A 1_555 1_555
H16A C15A 1_555 1_555
H17A C15A 1_555 1_555
C16A C15A 1_555 1_555
H18A C16A 1_555 1_555
C17A C16A 1_555 1_555
C18A H19A 1_555 1_555
C19A C18A 1_555 1_555
C20A C19A 1_555 1_555
H20A C20A 1_555 1_555
C21A C20A 1_555 1_555
H21A C21A 1_555 1_555
C22A C21A 1_555 1_555
H22A C22A 1_555 1_555
N1A C1A 1_555 1_555
N2A C6A 1_555 1_555
N3A C10A 1_555 1_555
H23A N3A 1_555 1_555
N4A C12A 1_555 1_555
N5A C17A 1_555 1_555
H24A N5A 1_555 1_555
N6A Ag2 1_555 1_555
O1A C6A 1_555 1_555
O2A C10A 1_555 1_555
O3A C12A 1_555 1_555
O4A C17A 1_555 1_555
C23A H25A 1_555 1_555
C24A C23A 1_555 1_555
H26A C24A 1_555 1_555
C25A C24A 1_555 1_555
H27A C25A 1_555 1_555
C26A C25A 1_555 1_555
C27A C26A 1_555 1_555
H28A C27A 1_555 1_555
C28A C26A 1_555 1_555
C29A H29A 1_555 1_555
H30A C29A 1_555 1_555
C30A C29A 1_555 1_555
H31A C30A 1_555 1_555
H32A C30A 1_555 1_555
C31A C30A 1_555 1_555
H33A C31A 1_555 1_555
C32A C31A 1_555 1_555
O5A C32A 1_555 1_555
C33A H34A 1_555 1_555
H35A C33A 1_555 1_555
C34A C33A 1_555 1_555
O6A C34A 1_555 1_555
N7A C34A 1_555 1_555
C35A N7A 1_555 1_555
H36A C35A 1_555 1_555
H37A C35A 1_555 1_555
C36A C35A 1_555 1_555
H38A C36A 1_555 1_555
H39A C36A 1_555 1_555
C37A C36A 1_555 1_555
H40A C37A 1_555 1_555
H41A C37A 1_555 1_555
C38A N7A 1_555 1_555
H42A C38A 1_555 1_555
C39A C38A 1_555 1_555
C40A H43A 1_555 1_555
C41A C40A 1_555 1_555
C42A C41A 1_555 1_555
H44A C42A 1_555 1_555
C43A C42A 1_555 1_555
H45A C43A 1_555 1_555
C44A C43A 1_555 1_555
H46A C44A 1_555 1_555
N8A Ag4A 1_555 1_555
N9A C28A 1_555 1_555
N10A C32A 1_555 1_555
H47A N10A 1_555 1_555
N11A C39A 1_555 1_555
H48A N11A 1_555 1_555
N12A Ag3A 1_555 1_555
O7A C28A 1_555 1_555
O8A Ag2 1_555 1_555
C45A H49A 1_555 1_555
C46A C45A 1_555 1_555
H50A C46A 1_555 1_555
C47A C46A 1_555 1_555
H51A C47A 1_555 1_555
C48A C47A 1_555 1_555
C49A C48A 1_555 1_555
H52A C49A 1_555 1_555
C50A C48A 1_555 1_555
C51A H53A 1_555 1_555
H54A C51A 1_555 1_555
C52A C51A 1_555 1_555
H55A C52A 1_555 1_555
H56A C52A 1_555 1_555
C53A C52A 1_555 1_555
H57A C53A 1_555 1_555
C54A C53A 1_555 1_555
C55A H58A 1_555 1_555
H59A C55A 1_555 1_555
C56A C55A 1_555 1_555
N13A C56A 1_555 1_555
C57A N13A 1_555 1_555
H60A C57A 1_555 1_555
H61A C57A 1_555 1_555
C58A C57A 1_555 1_555
H62A C58A 1_555 1_555
H63A C58A 1_555 1_555
C59A C58A 1_555 1_555
H64A C59A 1_555 1_555
H65A C59A 1_555 1_555
C60A N13A 1_555 1_555
H66A C60A 1_555 1_555
C61A C60A 1_555 1_555
C62A H67A 1_555 1_555
C63A C62A 1_555 1_555
C64A C63A 1_555 1_555
H68A C64A 1_555 1_555
C65A C64A 1_555 1_555
H69A C65A 1_555 1_555
C66A C65A 1_555 1_555
H70A C66A 1_555 1_555
N14A Ag3A 1_555 1_555
N15A C50A 1_555 1_555
N16A C54A 1_555 1_555
H71A N16A 1_555 1_555
N17A C61A 1_555 1_555
H72A N17A 1_555 1_555
N18A C62A 1_555 1_555
O9A C50A 1_555 1_555
O10A C54A 1_555 1_555
O11A C56A 1_555 1_555
O12A C61A 1_555 1_555
C67A H73A 1_555 1_555
C68A C67A 1_555 1_555
H74A C68A 1_555 1_555
C69A C68A 1_555 1_555
H75A C69A 1_555 1_555
C70A C69A 1_555 1_555
C71A C70A 1_555 1_555
H76A C71A 1_555 1_555
C72A C70A 1_555 1_555
C73A H77A 1_555 1_555
H78A C73A 1_555 1_555
C74A C73A 1_555 1_555
H79A C74A 1_555 1_555
H80A C74A 1_555 1_555
C75A C74A 1_555 1_555
H81A C75A 1_555 1_555
C76A C75A 1_555 1_555
C77A H82A 1_555 1_555
H83A C77A 1_555 1_555
C78A C77A 1_555 1_555
C79A H84A 1_555 1_555
H85A C79A 1_555 1_555
C80A C79A 1_555 1_555
H86A C80A 1_555 1_555
H87A C80A 1_555 1_555
C81A C80A 1_555 1_555
H88A C81A 1_555 1_555
H89A C81A 1_555 1_555
C82A C81A 1_555 1_555
H90A C82A 1_555 1_555
C83A C82A 1_555 1_555
C84A H91A 1_555 1_555
C85A C84A 1_555 1_555
C86A C85A 1_555 1_555
H92A C86A 1_555 1_555
C87A C86A 1_555 1_555
H93A C87A 1_555 1_555
C88A C87A 1_555 1_555
H94A C88A 1_555 1_555
N19A Ag1A 1_555 1_555
N20A C72A 1_555 1_555
N21A C76A 1_555 1_555
H95A N21A 1_555 1_555
N22A C78A 1_555 1_555
N23A C83A 1_555 1_555
H96A N23A 1_555 1_555
N24A Ag4A 1_555 1_555
O13A C72A 1_555 1_555
O14A C76A 1_555 1_555
O15A C78A 1_555 1_555
O16A C83A 1_555 1_555
Ag1B N18B 1_555 1_555
Ag2B N6 1_555 1_555
Ag3B O4B 1_555 1_555
Ag4B O12A 1_555 1_555
C1B H1B 1_555 1_555
C2B C1B 1_555 1_555
H2B C2B 1_555 1_555
C3B C2B 1_555 1_555
H3B C3B 1_555 1_555
C4B C3B 1_555 1_555
C5B C4B 1_555 1_555
H4B C5B 1_555 1_555
C6B C4B 1_555 1_555
C7B H5B 1_555 1_555
H6B C7B 1_555 1_555
C8B C7B 1_555 1_555
H7B C8B 1_555 1_555
H8B C8B 1_555 1_555
C9B C8B 1_555 1_555
H9B C9B 1_555 1_555
C10B C9B 1_555 1_555
C11B H10B 1_555 1_555
H11B C11B 1_555 1_555
C12B C11B 1_555 1_555
C13B H12B 1_555 1_555
H13B C13B 1_555 1_555
C14B C13B 1_555 1_555
H14B C14B 1_555 1_555
H15B C14B 1_555 1_555
C15B C14B 1_555 1_555
H16B C15B 1_555 1_555
H17B C15B 1_555 1_555
C16B C15B 1_555 1_555
H18B C16B 1_555 1_555
C17B C16B 1_555 1_555
C18B H19B 1_555 1_555
C19B C18B 1_555 1_555
C20B C19B 1_555 1_555
H20B C20B 1_555 1_555
C21B C20B 1_555 1_555
H21B C21B 1_555 1_555
C22B C21B 1_555 1_555
H22B C22B 1_555 1_555
N1B Ag2B 1_555 1_555
N2B C6B 1_555 1_555
N3B C10B 1_555 1_555
H23B N3B 1_555 1_555
N4B C12B 1_555 1_555
N5B C17B 1_555 1_555
H24B N5B 1_555 1_555
N6B Ag2A 1_555 1_555
O1B C6B 1_555 1_555
O2B C10B 1_555 1_555
O3B C12B 1_555 1_555
O4B C17B 1_555 1_555
C23B H25B 1_555 1_555
C24B C23B 1_555 1_555
H26B C24B 1_555 1_555
C25B C24B 1_555 1_555
H27B C25B 1_555 1_555
C26B C25B 1_555 1_555
C27B C26B 1_555 1_555
H28B C27B 1_555 1_555
C28B C26B 1_555 1_555
C29B H29B 1_555 1_555
H30B C29B 1_555 1_555
C30B C29B 1_555 1_555
H31B C30B 1_555 1_555
H32B C30B 1_555 1_555
C31B C30B 1_555 1_555
H33B C31B 1_555 1_555
C32B C31B 1_555 1_555
O5B C32B 1_555 1_555
C33B H34B 1_555 1_555
H35B C33B 1_555 1_555
C34B C33B 1_555 1_555
O6B C34B 1_555 1_555
N7B C34B 1_555 1_555
C35B N7B 1_555 1_555
H36B C35B 1_555 1_555
H37B C35B 1_555 1_555
C36B C35B 1_555 1_555
H38B C36B 1_555 1_555
H39B C36B 1_555 1_555
C37B C36B 1_555 1_555
H40B C37B 1_555 1_555
H41B C37B 1_555 1_555
C38B N7B 1_555 1_555
H42B C38B 1_555 1_555
C39B C38B 1_555 1_555
C40B H43B 1_555 1_555
C41B C40B 1_555 1_555
C42B C41B 1_555 1_555
H44B C42B 1_555 1_555
C43B C42B 1_555 1_555
H45B C43B 1_555 1_555
C44B C43B 1_555 1_555
H46B C44B 1_555 1_555
N8B Ag4B 1_555 1_555
N9B C28B 1_555 1_555
N10B C32B 1_555 1_555
H47B N10B 1_555 1_555
N11B C39B 1_555 1_555
H48B N11B 1_555 1_555
N12B Ag3B 1_555 1_555
O7B C28B 1_555 1_555
O8B Ag2A 1_555 1_555
C45B H49B 1_555 1_555
C46B C45B 1_555 1_555
H50B C46B 1_555 1_555
C47B C46B 1_555 1_555
H51B C47B 1_555 1_555
C48B C47B 1_555 1_555
C49B C48B 1_555 1_555
H52B C49B 1_555 1_555
C50B C48B 1_555 1_555
C51B H53B 1_555 1_555
H54B C51B 1_555 1_555
C52B C51B 1_555 1_555
H55B C52B 1_555 1_555
H56B C52B 1_555 1_555
C53B C52B 1_555 1_555
H57B C53B 1_555 1_555
C54B C53B 1_555 1_555
C55B H58B 1_555 1_555
H59B C55B 1_555 1_555
C56B C55B 1_555 1_555
N13B C56B 1_555 1_555
C57B N13B 1_555 1_555
H60B C57B 1_555 1_555
H61B C57B 1_555 1_555
C58B C57B 1_555 1_555
H62B C58B 1_555 1_555
H63B C58B 1_555 1_555
C59B C58B 1_555 1_555
H64B C59B 1_555 1_555
H65B C59B 1_555 1_555
C60B N13B 1_555 1_555
H66B C60B 1_555 1_555
C61B C60B 1_555 1_555
C62B H67B 1_555 1_555
C63B C62B 1_555 1_555
C64B C63B 1_555 1_555
H68B C64B 1_555 1_555
C65B C64B 1_555 1_555
H69B C65B 1_555 1_555
C66B C65B 1_555 1_555
H70B C66B 1_555 1_555
N14B Ag3B 1_555 1_555
N15B C50B 1_555 1_555
N16B C54B 1_555 1_555
H71B N16B 1_555 1_555
N17B C61B 1_555 1_555
H72B N17B 1_555 1_555
N18B C62B 1_555 1_555
O9B C50B 1_555 1_555
O10B C54B 1_555 1_555
O11B C56B 1_555 1_555
O12B Ag4 1_555 1_555
C67B H73B 1_555 1_555
C68B C67B 1_555 1_555
H74B C68B 1_555 1_555
C69B C68B 1_555 1_555
H75B C69B 1_555 1_555
C70B C69B 1_555 1_555
C71B C70B 1_555 1_555
H76B C71B 1_555 1_555
C72B C70B 1_555 1_555
C73B H77B 1_555 1_555
H78B C73B 1_555 1_555
C74B C73B 1_555 1_555
H79B C74B 1_555 1_555
H80B C74B 1_555 1_555
C75B C74B 1_555 1_555
H81B C75B 1_555 1_555
C76B C75B 1_555 1_555
C77B H82B 1_555 1_555
H83B C77B 1_555 1_555
C78B C77B 1_555 1_555
C79B H84B 1_555 1_555
H85B C79B 1_555 1_555
C80B C79B 1_555 1_555
H86B C80B 1_555 1_555
H87B C80B 1_555 1_555
C81B C80B 1_555 1_555
H88B C81B 1_555 1_555
H89B C81B 1_555 1_555
C82B C81B 1_555 1_555
H90B C82B 1_555 1_555
C83B C82B 1_555 1_555
C84B H91B 1_555 1_555
C85B C84B 1_555 1_555
C86B C85B 1_555 1_555
H92B C86B 1_555 1_555
C87B C86B 1_555 1_555
H93B C87B 1_555 1_555
C88B C87B 1_555 1_555
H94B C88B 1_555 1_555
N19B Ag1B 1_555 1_555
N20B C72B 1_555 1_555
N21B C76B 1_555 1_555
H95B N21B 1_555 1_555
N22B C78B 1_555 1_555
N23B C83B 1_555 1_555
H96B N23B 1_555 1_555
N24B Ag4B 1_555 1_555
O13B C72B 1_555 1_555
O14B C76B 1_555 1_555
O15B C78B 1_555 1_555
O16B C83B 1_555 1_555
F6A B2 1_555 1_555
F6B B2 1_555 1_555
F8A B3 1_555 1_555
F8B B3 1_555 1_555
F13A B5 1_555 1_555
F13B B5 1_555 1_555
C5 N1 1_555 1_555
C7 N2 1_555 1_555
C9 N2 1_555 1_555
C11 N3 1_555 1_555
C13 N4 1_555 1_555
C16 N4 1_555 1_555
C19 N5 1_555 1_555
C22 N6 1_555 1_555
C27 N8 1_555 1_555
C29 N9 1_555 1_555
C31 N9 1_555 1_555
C33 N10 1_555 1_555
C37 C38 1_555 1_555
C40 N12 1_555 1_555
C41 N11 1_555 1_555
C44 N12 1_555 1_555
O8 Ag2B 1_555 1_555
C45 N14 1_555 1_555
C49 N14 1_555 1_555
C51 N15 1_555 1_555
C53 N15 1_555 1_555
C55 N16 1_555 1_555
C59 C60 1_555 1_555
C63 N17 1_555 1_555
C66 N18 1_555 1_555
C67 N19 1_555 1_555
C71 N19 1_555 1_555
C73 N20 1_555 1_555
C75 N20 1_555 1_555
C77 N21 1_555 1_555
C79 N22 1_555 1_555
C82 N22 1_555 1_555
C84 N24 1_555 1_555
C85 N23 1_555 1_555
C88 N24 1_555 1_555
C5A N1A 1_555 1_555
C7A N2A 1_555 1_555
C9A N2A 1_555 1_555
C11A N3A 1_555 1_555
C13A N4A 1_555 1_555
C16A N4A 1_555 1_555
C18A N6A 1_555 1_555
C19A N5A 1_555 1_555
C22A N6A 1_555 1_555
C23A N8A 1_555 1_555
C27A N8A 1_555 1_555
C29A N9A 1_555 1_555
C31A N9A 1_555 1_555
C33A N10A 1_555 1_555
C37A C38A 1_555 1_555
C39A O8A 1_555 1_555
C40A N12A 1_555 1_555
C41A N11A 1_555 1_555
C44A N12A 1_555 1_555
C45A N14A 1_555 1_555
C49A N14A 1_555 1_555
C51A N15A 1_555 1_555
C53A N15A 1_555 1_555
C55A N16A 1_555 1_555
C59A C60A 1_555 1_555
C63A N17A 1_555 1_555
C66A N18A 1_555 1_555
C67A N19A 1_555 1_555
C71A N19A 1_555 1_555
C73A N20A 1_555 1_555
C75A N20A 1_555 1_555
C77A N21A 1_555 1_555
C79A N22A 1_555 1_555
C82A N22A 1_555 1_555
C84A N24A 1_555 1_555
C85A N23A 1_555 1_555
C88A N24A 1_555 1_555
C1B N1B 1_555 1_555
C5B N1B 1_555 1_555
C7B N2B 1_555 1_555
C9B N2B 1_555 1_555
C11B N3B 1_555 1_555
C13B N4B 1_555 1_555
C16B N4B 1_555 1_555
C18B N6B 1_555 1_555
C19B N5B 1_555 1_555
C22B N6B 1_555 1_555
C23B N8B 1_555 1_555
C27B N8B 1_555 1_555
C29B N9B 1_555 1_555
C31B N9B 1_555 1_555
C33B N10B 1_555 1_555
C37B C38B 1_555 1_555
C39B O8B 1_555 1_555
C40B N12B 1_555 1_555
C41B N11B 1_555 1_555
C44B N12B 1_555 1_555
C45B N14B 1_555 1_555
C49B N14B 1_555 1_555
C51B N15B 1_555 1_555
C53B N15B 1_555 1_555
C55B N16B 1_555 1_555
C59B C60B 1_555 1_555
C61B O12B 1_555 1_555
C63B N17B 1_555 1_555
C66B N18B 1_555 1_555
C67B N19B 1_555 1_555
C71B N19B 1_555 1_555
C73B N20B 1_555 1_555
C75B N20B 1_555 1_555
C77B N21B 1_555 1_555
C79B N22B 1_555 1_555
C82B N22B 1_555 1_555
C84B N24B 1_555 1_555
C85B N23B 1_555 1_555
C88B N24B 1_555 1_555

#END
