# generated using pymatgen
data_Ag4B4H104C91N26(O9F4)4
_symmetry_space_group_name_H-M   'P 1'
_cell_length_a   23.16447702
_cell_length_b   23.16447702
_cell_length_c   23.26300000
_cell_angle_alpha   60.14000000
_cell_angle_beta   60.14000000
_cell_angle_gamma   60.00000000
_symmetry_Int_Tables_number   1
_chemical_formula_structural   Ag4B4H104C91N26(O9F4)4
_chemical_formula_sum   'Ag12 B12 H312 C273 N78 O108 F48'
_cell_volume   8845.27823320
_cell_formula_units_Z   3
loop_
 _symmetry_equiv_pos_site_id
 _symmetry_equiv_pos_as_xyz
  1  'x, y, z'
loop_
 _atom_site_type_symbol
 _atom_site_label
 _atom_site_symmetry_multiplicity
 _atom_site_fract_x
 _atom_site_fract_y
 _atom_site_fract_z
 _atom_site_occupancy
  Ag  Ag1  1  0.635870  0.515520  0.060210  1.0
  Ag  Ag2  1  0.515520  0.788400  0.060210  1.0
  Ag  Ag3  1  0.788400  0.635870  0.060210  1.0
  Ag  Ag4  1  0.280600  0.450140  0.611600  1.0
  Ag  Ag5  1  0.450140  0.657660  0.611600  1.0
  Ag  Ag6  1  0.657660  0.280600  0.611600  1.0
  Ag  Ag7  1  0.484020  0.286090  0.427220  1.0
  Ag  Ag8  1  0.286090  0.802670  0.427220  1.0
  Ag  Ag9  1  0.802670  0.484020  0.427220  1.0
  Ag  Ag10  1  0.854210  0.276450  0.335290  1.0
  Ag  Ag11  1  0.276450  0.534050  0.335290  1.0
  Ag  Ag12  1  0.534050  0.854210  0.335290  1.0
  B  B13  1  0.286000  0.380500  0.492500  1
  B  B14  1  0.380500  0.841000  0.492500  1
  B  B15  1  0.841000  0.286000  0.492500  1
  B  B16  1  0.548100  0.548100  0.355700  1
  B  B17  1  0.681800  0.681800  0.954600  1
  B  B18  1  0.729800  0.214700  0.220500  1
  B  B19  1  0.214700  0.835000  0.220500  1
  B  B20  1  0.835000  0.729800  0.220500  1
  B  B21  1  0.401200  0.401200  0.796400  1
  B  B22  1  0.564000  0.161000  0.041700  1
  B  B23  1  0.161000  0.233300  0.041700  1
  B  B24  1  0.233300  0.564000  0.041700  1
  H  H25  1  0.099700  0.138500  0.996500  1
  H  H26  1  0.138500  0.765300  0.996500  1
  H  H27  1  0.765300  0.099700  0.996500  1
  H  H28  1  0.081800  0.132100  0.942100  1
  H  H29  1  0.132100  0.844000  0.942100  1
  H  H30  1  0.844000  0.081800  0.942100  1
  H  H31  1  0.161800  0.117500  0.929400  1
  H  H32  1  0.117500  0.791300  0.929400  1
  H  H33  1  0.791300  0.161800  0.929400  1
  H  H34  1  0.879400  0.070300  0.127900  1
  H  H35  1  0.070300  0.922400  0.127900  1
  H  H36  1  0.922400  0.879400  0.127900  1
  H  H37  1  0.810700  0.130200  0.156700  1
  H  H38  1  0.130200  0.902400  0.156700  1
  H  H39  1  0.902400  0.810700  0.156700  1
  H  H40  1  0.802600  0.075300  0.140900  1
  H  H41  1  0.075300  0.981200  0.140900  1
  H  H42  1  0.981200  0.802600  0.140900  1
  H  H43  1  0.069700  0.786900  0.157400  1
  H  H44  1  0.786900  0.986000  0.157400  1
  H  H45  1  0.986000  0.069700  0.157400  1
  H  H46  1  0.099600  0.745000  0.104500  1
  H  H47  1  0.745000  0.050900  0.104500  1
  H  H48  1  0.050900  0.099600  0.104500  1
  H  H49  1  0.303800  0.364000  0.756900  1.0
  H  H50  1  0.364000  0.575300  0.756900  1.0
  H  H51  1  0.575300  0.303800  0.756900  1.0
  H  H52  1  0.307400  0.250800  0.842800  1.0
  H  H53  1  0.250800  0.599000  0.842800  1.0
  H  H54  1  0.599000  0.307400  0.842800  1.0
  H  H55  1  0.303200  0.163800  0.821800  1.0
  H  H56  1  0.163800  0.711200  0.821800  1.0
  H  H57  1  0.711200  0.303200  0.821800  1.0
  H  H58  1  0.290200  0.303500  0.633700  1.0
  H  H59  1  0.303500  0.772600  0.633700  1.0
  H  H60  1  0.772600  0.290200  0.633700  1.0
  H  H61  1  0.191500  0.294900  0.633200  1.0
  H  H62  1  0.294900  0.880400  0.633200  1.0
  H  H63  1  0.880400  0.191500  0.633200  1.0
  H  H64  1  0.151400  0.254600  0.714500  1.0
  H  H65  1  0.254600  0.879500  0.714500  1.0
  H  H66  1  0.879500  0.151400  0.714500  1.0
  H  H67  1  0.174200  0.229900  0.594000  1.0
  H  H68  1  0.229900  0.001900  0.594000  1.0
  H  H69  1  0.001900  0.174200  0.594000  1.0
  H  H70  1  0.133000  0.190500  0.675100  1.0
  H  H71  1  0.190500  0.001400  0.675100  1.0
  H  H72  1  0.001400  0.133000  0.675100  1.0
  H  H73  1  0.239300  0.104600  0.691200  1.0
  H  H74  1  0.104600  0.964900  0.691200  1.0
  H  H75  1  0.964900  0.239300  0.691200  1.0
  H  H76  1  0.417100  0.167700  0.454700  1.0
  H  H77  1  0.167700  0.960500  0.454700  1.0
  H  H78  1  0.960500  0.417100  0.454700  1.0
  H  H79  1  0.421900  0.086300  0.494500  1.0
  H  H80  1  0.086300  0.997300  0.494500  1.0
  H  H81  1  0.997300  0.421900  0.494500  1.0
  H  H82  1  0.530500  0.090000  0.388000  1.0
  H  H83  1  0.090000  0.991500  0.388000  1.0
  H  H84  1  0.991500  0.530500  0.388000  1.0
  H  H85  1  0.551800  0.007900  0.436100  1.0
  H  H86  1  0.007900  0.004200  0.436100  1.0
  H  H87  1  0.004200  0.551800  0.436100  1.0
  H  H88  1  0.644700  0.089000  0.338600  1.0
  H  H89  1  0.089000  0.927700  0.338600  1.0
  H  H90  1  0.927700  0.644700  0.338600  1.0
  H  H91  1  0.660300  0.008100  0.351500  1.0
  H  H92  1  0.008100  0.980100  0.351500  1.0
  H  H93  1  0.980100  0.660300  0.351500  1.0
  H  H94  1  0.682000  0.966100  0.457300  1.0
  H  H95  1  0.966100  0.894600  0.457300  1.0
  H  H96  1  0.894600  0.682000  0.457300  1.0
  H  H97  1  0.716300  0.028100  0.410600  1.0
  H  H98  1  0.028100  0.845000  0.410600  1.0
  H  H99  1  0.845000  0.716300  0.410600  1.0
  H  H100  1  0.612700  0.033400  0.532000  1.0
  H  H101  1  0.033400  0.821900  0.532000  1.0
  H  H102  1  0.821900  0.612700  0.532000  1.0
  H  H103  1  0.654600  0.173600  0.572400  1.0
  H  H104  1  0.173600  0.599400  0.572400  1.0
  H  H105  1  0.599400  0.654600  0.572400  1.0
  H  H106  1  0.678500  0.243700  0.366900  1.0
  H  H107  1  0.243700  0.710900  0.366900  1.0
  H  H108  1  0.710900  0.678500  0.366900  1.0
  H  H109  1  0.673400  0.352500  0.359000  1.0
  H  H110  1  0.352500  0.615100  0.359000  1.0
  H  H111  1  0.615100  0.673400  0.359000  1.0
  H  H112  1  0.667000  0.362700  0.456200  1.0
  H  H113  1  0.362700  0.514100  0.456200  1.0
  H  H114  1  0.514100  0.667000  0.456200  1.0
  H  H115  1  0.361000  0.168500  0.578600  1.0
  H  H116  1  0.168500  0.891900  0.578600  1.0
  H  H117  1  0.891900  0.361000  0.578600  1.0
  H  H118  1  0.672900  0.097800  0.516600  1.0
  H  H119  1  0.097800  0.712700  0.516600  1.0
  H  H120  1  0.712700  0.672900  0.516600  1.0
  H  H121  1  0.844200  0.159400  0.316300  1.0
  H  H122  1  0.159400  0.680100  0.316300  1.0
  H  H123  1  0.680100  0.844200  0.316300  1.0
  H  H124  1  0.834400  0.049800  0.375100  1.0
  H  H125  1  0.049800  0.740700  0.375100  1.0
  H  H126  1  0.740700  0.834400  0.375100  1.0
  H  H127  1  0.833700  0.990200  0.493900  1.0
  H  H128  1  0.990200  0.682200  0.493900  1.0
  H  H129  1  0.682200  0.833700  0.493900  1.0
  H  H130  1  0.860900  0.155600  0.480700  1.0
  H  H131  1  0.155600  0.502800  0.480700  1.0
  H  H132  1  0.502800  0.860900  0.480700  1.0
  H  H133  1  0.927200  0.116400  0.555100  1.0
  H  H134  1  0.116400  0.401300  0.555100  1.0
  H  H135  1  0.401300  0.927200  0.555100  1.0
  H  H136  1  0.974600  0.050100  0.525200  1.0
  H  H137  1  0.050100  0.450100  0.525200  1.0
  H  H138  1  0.450100  0.974600  0.525200  1.0
  H  H139  1  0.955100  0.044800  0.657400  1.0
  H  H140  1  0.044800  0.342700  0.657400  1.0
  H  H141  1  0.342700  0.955100  0.657400  1.0
  H  H142  1  0.999600  0.977600  0.628800  1.0
  H  H143  1  0.977600  0.394000  0.628800  1.0
  H  H144  1  0.394000  0.999600  0.628800  1.0
  H  H145  1  0.898100  0.950700  0.675000  1.0
  H  H146  1  0.950700  0.476200  0.675000  1.0
  H  H147  1  0.476200  0.898100  0.675000  1.0
  H  H148  1  0.712900  0.150500  0.774700  1.0
  H  H149  1  0.150500  0.361900  0.774700  1.0
  H  H150  1  0.361900  0.712900  0.774700  1.0
  H  H151  1  0.711800  0.070800  0.816000  1.0
  H  H152  1  0.070800  0.401400  0.816000  1.0
  H  H153  1  0.401400  0.711800  0.816000  1.0
  H  H154  1  0.562400  0.187600  0.867500  1.0
  H  H155  1  0.187600  0.382500  0.867500  1.0
  H  H156  1  0.382500  0.562400  0.867500  1.0
  H  H157  1  0.610600  0.105400  0.887600  1.0
  H  H158  1  0.105400  0.396400  0.887600  1.0
  H  H159  1  0.396400  0.610600  0.887600  1.0
  H  H160  1  0.476100  0.135100  0.952300  1.0
  H  H161  1  0.135100  0.436500  0.952300  1.0
  H  H162  1  0.436500  0.476100  0.952300  1.0
  H  H163  1  0.516400  0.068000  0.925300  1.0
  H  H164  1  0.068000  0.490300  0.925300  1.0
  H  H165  1  0.490300  0.516400  0.925300  1.0
  H  H166  1  0.432800  0.143200  0.859800  1.0
  H  H167  1  0.143200  0.564200  0.859800  1.0
  H  H168  1  0.564200  0.432800  0.859800  1.0
  H  H169  1  0.439700  0.214400  0.848300  1.0
  H  H170  1  0.214400  0.497600  0.848300  1.0
  H  H171  1  0.497600  0.439700  0.848300  1.0
  H  H172  1  0.535500  0.118200  0.770500  1.0
  H  H173  1  0.118200  0.575800  0.770500  1.0
  H  H174  1  0.575800  0.535500  0.770500  1.0
  H  H175  1  0.488900  0.216600  0.580900  1.0
  H  H176  1  0.216600  0.713600  0.580900  1.0
  H  H177  1  0.713600  0.488900  0.580900  1.0
  H  H178  1  0.452400  0.367000  0.647500  1.0
  H  H179  1  0.367000  0.533100  0.647500  1.0
  H  H180  1  0.533100  0.452400  0.647500  1.0
  H  H181  1  0.450500  0.448200  0.536700  1.0
  H  H182  1  0.448200  0.564600  0.536700  1.0
  H  H183  1  0.564600  0.450500  0.536700  1.0
  H  H184  1  0.470800  0.414300  0.447200  1.0
  H  H185  1  0.414300  0.667700  0.447200  1.0
  H  H186  1  0.667700  0.470800  0.447200  1.0
  H  H187  1  0.785100  0.113700  0.670700  1.0
  H  H188  1  0.113700  0.430500  0.670700  1.0
  H  H189  1  0.430500  0.785100  0.670700  1.0
  H  H190  1  0.465600  0.192000  0.704200  1.0
  H  H191  1  0.192000  0.638200  0.704200  1.0
  H  H192  1  0.638200  0.465600  0.704200  1.0
  H  H193  1  0.577200  0.230600  0.298900  1.0
  H  H194  1  0.230600  0.893300  0.298900  1.0
  H  H195  1  0.893300  0.577200  0.298900  1.0
  H  H196  1  0.565700  0.214100  0.216000  1.0
  H  H197  1  0.214100  0.004200  0.216000  1.0
  H  H198  1  0.004200  0.565700  0.216000  1.0
  H  H199  1  0.454600  0.254800  0.206900  1.0
  H  H200  1  0.254800  0.083700  0.206900  1.0
  H  H201  1  0.083700  0.454600  0.206900  1.0
  H  H202  1  0.370300  0.317300  0.377300  1.0
  H  H203  1  0.317300  0.935100  0.377300  1.0
  H  H204  1  0.935100  0.370300  0.377300  1.0
  H  H205  1  0.296300  0.210800  0.429800  1.0
  H  H206  1  0.210800  0.063100  0.429800  1.0
  H  H207  1  0.063100  0.296300  0.429800  1.0
  H  H208  1  0.282200  0.275000  0.451500  1.0
  H  H209  1  0.275000  0.991300  0.451500  1.0
  H  H210  1  0.991300  0.282200  0.451500  1.0
  H  H211  1  0.162500  0.312600  0.472800  1.0
  H  H212  1  0.312600  0.052100  0.472800  1.0
  H  H213  1  0.052100  0.162500  0.472800  1.0
  H  H214  1  0.175600  0.243800  0.459200  1.0
  H  H215  1  0.243800  0.121400  0.459200  1.0
  H  H216  1  0.121400  0.175600  0.459200  1.0
  H  H217  1  0.195300  0.303800  0.341000  1.0
  H  H218  1  0.303800  0.159900  0.341000  1.0
  H  H219  1  0.159900  0.195300  0.341000  1.0
  H  H220  1  0.120700  0.543200  0.311500  1.0
  H  H221  1  0.543200  0.024600  0.311500  1.0
  H  H222  1  0.024600  0.120700  0.311500  1.0
  H  H223  1  0.113500  0.538600  0.248700  1.0
  H  H224  1  0.538600  0.099200  0.248700  1.0
  H  H225  1  0.099200  0.113500  0.248700  1.0
  H  H226  1  0.079500  0.663300  0.254300  1.0
  H  H227  1  0.663300  0.002900  0.254300  1.0
  H  H228  1  0.002900  0.079500  0.254300  1.0
  H  H229  1  0.084300  0.679900  0.176100  1.0
  H  H230  1  0.679900  0.059700  0.176100  1.0
  H  H231  1  0.059700  0.084300  0.176100  1.0
  H  H232  1  0.078600  0.791900  0.163500  1.0
  H  H233  1  0.791900  0.966000  0.163500  1.0
  H  H234  1  0.966000  0.078600  0.163500  1.0
  H  H235  1  0.123700  0.755400  0.215100  1.0
  H  H236  1  0.755400  0.905800  0.215100  1.0
  H  H237  1  0.905800  0.123700  0.215100  1.0
  H  H238  1  0.204700  0.777000  0.112300  1.0
  H  H239  1  0.777000  0.906000  0.112300  1.0
  H  H240  1  0.906000  0.204700  0.112300  1.0
  H  H241  1  0.171100  0.762300  0.076900  1.0
  H  H242  1  0.762300  0.989700  0.076900  1.0
  H  H243  1  0.989700  0.171100  0.076900  1.0
  H  H244  1  0.255900  0.654600  0.092600  1.0
  H  H245  1  0.654600  0.996900  0.092600  1.0
  H  H246  1  0.996900  0.255900  0.092600  1.0
  H  H247  1  0.476700  0.586600  0.064900  1.0
  H  H248  1  0.586600  0.871800  0.064900  1.0
  H  H249  1  0.871800  0.476700  0.064900  1.0
  H  H250  1  0.357800  0.688900  0.206300  1.0
  H  H251  1  0.688900  0.747000  0.206300  1.0
  H  H252  1  0.747000  0.357800  0.206300  1.0
  H  H253  1  0.458300  0.658500  0.226400  1.0
  H  H254  1  0.658500  0.656800  0.226400  1.0
  H  H255  1  0.656800  0.458300  0.226400  1.0
  H  H256  1  0.566100  0.590900  0.168800  1.0
  H  H257  1  0.590900  0.674200  0.168800  1.0
  H  H258  1  0.674200  0.566100  0.168800  1.0
  H  H259  1  0.227000  0.434400  0.266200  1.0
  H  H260  1  0.434400  0.072400  0.266200  1.0
  H  H261  1  0.072400  0.227000  0.266200  1.0
  H  H262  1  0.357200  0.652100  0.079200  1.0
  H  H263  1  0.652100  0.911500  0.079200  1.0
  H  H264  1  0.911500  0.357200  0.079200  1.0
  H  H265  1  0.740200  0.362500  0.061300  1.0
  H  H266  1  0.362500  0.836000  0.061300  1.0
  H  H267  1  0.836000  0.740200  0.061300  1.0
  H  H268  1  0.855500  0.301300  0.013400  1.0
  H  H269  1  0.301300  0.829800  0.013400  1.0
  H  H270  1  0.829800  0.855500  0.013400  1.0
  H  H271  1  0.931400  0.363300  0.925900  1.0
  H  H272  1  0.363300  0.779400  0.925900  1.0
  H  H273  1  0.779400  0.931400  0.925900  1.0
  H  H274  1  0.773700  0.543900  0.949900  1.0
  H  H275  1  0.543900  0.732500  0.949900  1.0
  H  H276  1  0.732500  0.773700  0.949900  1.0
  H  H277  1  0.781700  0.615200  0.830700  1.0
  H  H278  1  0.615200  0.772400  0.830700  1.0
  H  H279  1  0.772400  0.781700  0.830700  1.0
  H  H280  1  0.830800  0.562100  0.784300  1.0
  H  H281  1  0.562100  0.822800  0.784300  1.0
  H  H282  1  0.822800  0.830800  0.784300  1.0
  H  H283  1  0.879800  0.650900  0.693700  1.0
  H  H284  1  0.650900  0.775600  0.693700  1.0
  H  H285  1  0.775600  0.879800  0.693700  1.0
  H  H286  1  0.840300  0.698000  0.745100  1.0
  H  H287  1  0.698000  0.716600  0.745100  1.0
  H  H288  1  0.716600  0.840300  0.745100  1.0
  H  H289  1  0.970400  0.579500  0.740900  1.0
  H  H290  1  0.579500  0.709200  0.740900  1.0
  H  H291  1  0.709200  0.970400  0.740900  1.0
  H  H292  1  0.906500  0.722000  0.887900  1.0
  H  H293  1  0.722000  0.483600  0.887900  1.0
  H  H294  1  0.483600  0.906500  0.887900  1.0
  H  H295  1  0.986600  0.685500  0.844900  1.0
  H  H296  1  0.685500  0.483000  0.844900  1.0
  H  H297  1  0.483000  0.986600  0.844900  1.0
  H  H298  1  0.049100  0.691800  0.886500  1.0
  H  H299  1  0.691800  0.372600  0.886500  1.0
  H  H300  1  0.372600  0.049100  0.886500  1.0
  H  H301  1  0.989600  0.726600  0.946700  1.0
  H  H302  1  0.726600  0.337100  0.946700  1.0
  H  H303  1  0.337100  0.989600  0.946700  1.0
  H  H304  1  0.085100  0.686600  0.973700  1.0
  H  H305  1  0.686600  0.254600  0.973700  1.0
  H  H306  1  0.254600  0.085100  0.973700  1.0
  H  H307  1  0.119800  0.618700  0.949900  1.0
  H  H308  1  0.618700  0.311600  0.949900  1.0
  H  H309  1  0.311600  0.119800  0.949900  1.0
  H  H310  1  0.076800  0.570000  0.072000  1.0
  H  H311  1  0.570000  0.281200  0.072000  1.0
  H  H312  1  0.281200  0.076800  0.072000  1.0
  H  H313  1  0.005400  0.637600  0.078200  1.0
  H  H314  1  0.637600  0.278800  0.078200  1.0
  H  H315  1  0.278800  0.005400  0.078200  1.0
  H  H316  1  0.038700  0.526500  0.032500  1.0
  H  H317  1  0.526500  0.402300  0.032500  1.0
  H  H318  1  0.402300  0.038700  0.032500  1.0
  H  H319  1  0.934900  0.380400  0.213200  1.0
  H  H320  1  0.380400  0.471500  0.213200  1.0
  H  H321  1  0.471500  0.934900  0.213200  1.0
  H  H322  1  0.817200  0.580100  0.215000  1.0
  H  H323  1  0.580100  0.387700  0.215000  1.0
  H  H324  1  0.387700  0.817200  0.215000  1.0
  H  H325  1  0.729500  0.534800  0.312800  1.0
  H  H326  1  0.534800  0.422900  0.312800  1.0
  H  H327  1  0.422900  0.729500  0.312800  1.0
  H  H328  1  0.747000  0.417900  0.355200  1.0
  H  H329  1  0.417900  0.479900  0.355200  1.0
  H  H330  1  0.479900  0.747000  0.355200  1.0
  H  H331  1  0.879000  0.638800  0.881500  1.0
  H  H332  1  0.638800  0.600700  0.881500  1.0
  H  H333  1  0.600700  0.879000  0.881500  1.0
  H  H334  1  0.980900  0.467800  0.133100  1.0
  H  H335  1  0.467800  0.418200  0.133100  1.0
  H  H336  1  0.418200  0.980900  0.133100  1.0
  C  C337  1  0.112000  0.146000  0.947000  1
  C  C338  1  0.146000  0.795000  0.947000  1
  C  C339  1  0.795000  0.112000  0.947000  1
  C  C340  1  0.832000  0.103000  0.125000  1
  C  C341  1  0.103000  0.940000  0.125000  1
  C  C342  1  0.940000  0.832000  0.125000  1
  C  C343  1  0.107000  0.746000  0.142000  1
  C  C344  1  0.746000  0.005000  0.142000  1
  C  C345  1  0.005000  0.107000  0.142000  1
  C  C346  1  0.300400  0.329700  0.748700  1.0
  C  C347  1  0.329700  0.621200  0.748700  1.0
  C  C348  1  0.621200  0.300400  0.748700  1.0
  C  C349  1  0.303300  0.261500  0.799700  1.0
  C  C350  1  0.261500  0.635500  0.799700  1.0
  C  C351  1  0.635500  0.303300  0.799700  1.0
  C  C352  1  0.300500  0.209600  0.787500  1.0
  C  C353  1  0.209600  0.702400  0.787500  1.0
  C  C354  1  0.702400  0.300500  0.787500  1.0
  C  C355  1  0.293700  0.226100  0.726800  1.0
  C  C356  1  0.226100  0.753400  0.726800  1.0
  C  C357  1  0.753400  0.293700  0.726800  1.0
  C  C358  1  0.292000  0.293300  0.677800  1.0
  C  C359  1  0.293300  0.736900  0.677800  1.0
  C  C360  1  0.736900  0.292000  0.677800  1.0
  C  C361  1  0.297800  0.170700  0.708200  1.0
  C  C362  1  0.170700  0.823300  0.708200  1.0
  C  C363  1  0.823300  0.297800  0.708200  1.0
  C  C364  1  0.186200  0.249000  0.668800  1.0
  C  C365  1  0.249000  0.896000  0.668800  1.0
  C  C366  1  0.896000  0.186200  0.668800  1.0
  C  C367  1  0.174300  0.206500  0.643000  1.0
  C  C368  1  0.206500  0.976200  0.643000  1.0
  C  C369  1  0.976200  0.174300  0.643000  1.0
  C  C370  1  0.246900  0.148400  0.651300  1.0
  C  C371  1  0.148400  0.953400  0.651300  1.0
  C  C372  1  0.953400  0.246900  0.651300  1.0
  C  C373  1  0.301700  0.130600  0.583700  1.0
  C  C374  1  0.130600  0.984000  0.583700  1.0
  C  C375  1  0.984000  0.301700  0.583700  1.0
  C  C376  1  0.420300  0.127500  0.498800  1.0
  C  C377  1  0.127500  0.953400  0.498800  1.0
  C  C378  1  0.953400  0.420300  0.498800  1.0
  C  C379  1  0.487600  0.109700  0.511900  1.0
  C  C380  1  0.109700  0.890800  0.511900  1.0
  C  C381  1  0.890800  0.487600  0.511900  1.0
  C  C382  1  0.560800  0.052700  0.417000  1.0
  C  C383  1  0.052700  0.969500  0.417000  1.0
  C  C384  1  0.969500  0.560800  0.417000  1.0
  C  C385  1  0.638600  0.043600  0.374800  1.0
  C  C386  1  0.043600  0.943000  0.374800  1.0
  C  C387  1  0.943000  0.638600  0.374800  1.0
  C  C388  1  0.672000  0.017500  0.432100  1.0
  C  C389  1  0.017500  0.878400  0.432100  1.0
  C  C390  1  0.878400  0.672000  0.432100  1.0
  C  C391  1  0.613100  0.060800  0.482500  1.0
  C  C392  1  0.060800  0.843600  0.482500  1.0
  C  C393  1  0.843600  0.613100  0.482500  1.0
  C  C394  1  0.622300  0.132900  0.456000  1.0
  C  C395  1  0.132900  0.788800  0.456000  1.0
  C  C396  1  0.788800  0.622300  0.456000  1.0
  C  C397  1  0.659000  0.210200  0.528200  1.0
  C  C398  1  0.210200  0.602600  0.528200  1.0
  C  C399  1  0.602600  0.659000  0.528200  1.0
  C  C400  1  0.661800  0.199600  0.472800  1.0
  C  C401  1  0.199600  0.665800  0.472800  1.0
  C  C402  1  0.665800  0.661800  0.472800  1.0
  C  C403  1  0.671600  0.251000  0.406900  1.0
  C  C404  1  0.251000  0.670500  0.406900  1.0
  C  C405  1  0.670500  0.671600  0.406900  1.0
  C  C406  1  0.670900  0.314100  0.402100  1.0
  C  C407  1  0.314100  0.612900  0.402100  1.0
  C  C408  1  0.612900  0.670900  0.402100  1.0
  C  C409  1  0.666667  0.319900  0.460433  1.0
  C  C410  1  0.319900  0.553000  0.460433  1.0
  C  C411  1  0.553000  0.666667  0.460433  1.0
  C  C412  1  0.845500  0.135900  0.362800  1.0
  C  C413  1  0.135900  0.655800  0.362800  1.0
  C  C414  1  0.655800  0.845500  0.362800  1.0
  C  C415  1  0.838700  0.071400  0.397700  1.0
  C  C416  1  0.071400  0.692200  0.397700  1.0
  C  C417  1  0.692200  0.838700  0.397700  1.0
  C  C418  1  0.838300  0.035700  0.468600  1.0
  C  C419  1  0.035700  0.657400  0.468600  1.0
  C  C420  1  0.657400  0.838300  0.468600  1.0
  C  C421  1  0.844600  0.068900  0.499000  1.0
  C  C422  1  0.068900  0.587500  0.499000  1.0
  C  C423  1  0.587500  0.844600  0.499000  1.0
  C  C424  1  0.854100  0.134300  0.459700  1.0
  C  C425  1  0.134300  0.551900  0.459700  1.0
  C  C426  1  0.551900  0.854100  0.459700  1.0
  C  C427  1  0.842100  0.031400  0.575500  1.0
  C  C428  1  0.031400  0.551000  0.575500  1.0
  C  C429  1  0.551000  0.842100  0.575500  1.0
  C  C430  1  0.938500  0.065500  0.566100  1.0
  C  C431  1  0.065500  0.429900  0.566100  1.0
  C  C432  1  0.429900  0.938500  0.566100  1.0
  C  C433  1  0.955800  0.018900  0.633500  1.0
  C  C434  1  0.018900  0.391800  0.633500  1.0
  C  C435  1  0.391800  0.955800  0.633500  1.0
  C  C436  1  0.887300  0.001800  0.664600  1.0
  C  C437  1  0.001800  0.446300  0.664600  1.0
  C  C438  1  0.446300  0.887300  0.664600  1.0
  C  C439  1  0.827800  0.026900  0.728900  1.0
  C  C440  1  0.026900  0.416400  0.728900  1.0
  C  C441  1  0.416400  0.827800  0.728900  1.0
  C  C442  1  0.714300  0.109500  0.770200  1.0
  C  C443  1  0.109500  0.406000  0.770200  1.0
  C  C444  1  0.406000  0.714300  0.770200  1.0
  C  C445  1  0.653800  0.129600  0.748000  1.0
  C  C446  1  0.129600  0.468600  0.748000  1.0
  C  C447  1  0.468600  0.653800  0.748000  1.0
  C  C448  1  0.572100  0.140700  0.867800  1.0
  C  C449  1  0.140700  0.419400  0.867800  1.0
  C  C450  1  0.419400  0.572100  0.867800  1.0
  C  C451  1  0.505000  0.119500  0.910600  1.0
  C  C452  1  0.119500  0.464900  0.910600  1.0
  C  C453  1  0.464900  0.505000  0.910600  1.0
  C  C454  1  0.465900  0.164500  0.850300  1.0
  C  C455  1  0.164500  0.519300  0.850300  1.0
  C  C456  1  0.519300  0.465900  0.850300  1.0
  C  C457  1  0.528800  0.158700  0.780800  1.0
  C  C458  1  0.158700  0.531700  0.780800  1.0
  C  C459  1  0.531700  0.528800  0.780800  1.0
  C  C460  1  0.516900  0.225000  0.720200  1.0
  C  C461  1  0.225000  0.537900  0.720200  1.0
  C  C462  1  0.537900  0.516900  0.720200  1.0
  C  C463  1  0.480800  0.264500  0.571400  1.0
  C  C464  1  0.264500  0.683300  0.571400  1.0
  C  C465  1  0.683300  0.480800  0.571400  1.0
  C  C466  1  0.473200  0.282800  0.622400  1.0
  C  C467  1  0.282800  0.621600  0.622400  1.0
  C  C468  1  0.621600  0.473200  0.622400  1.0
  C  C469  1  0.460000  0.353100  0.611600  1.0
  C  C470  1  0.353100  0.575300  0.611600  1.0
  C  C471  1  0.575300  0.460000  0.611600  1.0
  C  C472  1  0.458800  0.400300  0.546200  1.0
  C  C473  1  0.400300  0.594700  0.546200  1.0
  C  C474  1  0.594700  0.458800  0.546200  1.0
  C  C475  1  0.469200  0.380700  0.493000  1.0
  C  C476  1  0.380700  0.657100  0.493000  1.0
  C  C477  1  0.657100  0.469200  0.493000  1.0
  C  C478  1  0.531400  0.245200  0.297600  1.0
  C  C479  1  0.245200  0.925800  0.297600  1.0
  C  C480  1  0.925800  0.531400  0.297600  1.0
  C  C481  1  0.524700  0.236500  0.247600  1.0
  C  C482  1  0.236500  0.991200  0.247600  1.0
  C  C483  1  0.991200  0.524700  0.247600  1.0
  C  C484  1  0.459800  0.259500  0.242200  1.0
  C  C485  1  0.259500  0.038500  0.242200  1.0
  C  C486  1  0.038500  0.459800  0.242200  1.0
  C  C487  1  0.401300  0.290300  0.291800  1.0
  C  C488  1  0.290300  0.016600  0.291800  1.0
  C  C489  1  0.016600  0.401300  0.291800  1.0
  C  C490  1  0.410300  0.296700  0.343800  1.0
  C  C491  1  0.296700  0.949200  0.343800  1.0
  C  C492  1  0.949200  0.410300  0.343800  1.0
  C  C493  1  0.327400  0.317700  0.289300  1.0
  C  C494  1  0.317700  0.065600  0.289300  1.0
  C  C495  1  0.065600  0.327400  0.289300  1.0
  C  C496  1  0.270300  0.261300  0.425700  1.0
  C  C497  1  0.261300  0.042700  0.425700  1.0
  C  C498  1  0.042700  0.270300  0.425700  1.0
  C  C499  1  0.192000  0.283600  0.441600  1.0
  C  C500  1  0.283600  0.082800  0.441600  1.0
  C  C501  1  0.082800  0.192000  0.441600  1.0
  C  C502  1  0.200500  0.326700  0.364100  1.0
  C  C503  1  0.326700  0.108700  0.364100  1.0
  C  C504  1  0.108700  0.200500  0.364100  1.0
  C  C505  1  0.156000  0.405600  0.348000  1.0
  C  C506  1  0.405600  0.090400  0.348000  1.0
  C  C507  1  0.090400  0.156000  0.348000  1.0
  C  C508  1  0.147300  0.526500  0.270500  1.0
  C  C509  1  0.526500  0.055700  0.270500  1.0
  C  C510  1  0.055700  0.147300  0.270500  1.0
  C  C511  1  0.203700  0.561100  0.217300  1.0
  C  C512  1  0.561100  0.017900  0.217300  1.0
  C  C513  1  0.017900  0.203700  0.217300  1.0
  C  C514  1  0.107400  0.677600  0.203700  1.0
  C  C515  1  0.677600  0.011300  0.203700  1.0
  C  C516  1  0.011300  0.107400  0.203700  1.0
  C  C517  1  0.119000  0.751000  0.177000  1.0
  C  C518  1  0.751000  0.953000  0.177000  1.0
  C  C519  1  0.953000  0.119000  0.177000  1.0
  C  C520  1  0.181600  0.746400  0.119900  1.0
  C  C521  1  0.746400  0.952100  0.119900  1.0
  C  C522  1  0.952100  0.181600  0.119900  1.0
  C  C523  1  0.230700  0.669000  0.135400  1.0
  C  C524  1  0.669000  0.964900  0.135400  1.0
  C  C525  1  0.964900  0.230700  0.135400  1.0
  C  C526  1  0.282500  0.656500  0.165900  1.0
  C  C527  1  0.656500  0.895100  0.165900  1.0
  C  C528  1  0.895100  0.282500  0.165900  1.0
  C  C529  1  0.472600  0.599500  0.100000  1.0
  C  C530  1  0.599500  0.827900  0.100000  1.0
  C  C531  1  0.827900  0.472600  0.100000  1.0
  C  C532  1  0.407500  0.634600  0.134800  1.0
  C  C533  1  0.634600  0.823100  0.134800  1.0
  C  C534  1  0.823100  0.407500  0.134800  1.0
  C  C535  1  0.402000  0.660500  0.183000  1.0
  C  C536  1  0.660500  0.754500  0.183000  1.0
  C  C537  1  0.754500  0.402000  0.183000  1.0
  C  C538  1  0.460800  0.643100  0.194000  1.0
  C  C539  1  0.643100  0.702100  0.194000  1.0
  C  C540  1  0.702100  0.460800  0.194000  1.0
  C  C541  1  0.525500  0.603100  0.159000  1.0
  C  C542  1  0.603100  0.712400  0.159000  1.0
  C  C543  1  0.712400  0.525500  0.159000  1.0
  C  C544  1  0.771700  0.388100  0.027600  1.0
  C  C545  1  0.388100  0.812600  0.027600  1.0
  C  C546  1  0.812600  0.771700  0.027600  1.0
  C  C547  1  0.839500  0.351400  0.998900  1.0
  C  C548  1  0.351400  0.810200  0.998900  1.0
  C  C549  1  0.810200  0.839500  0.998900  1.0
  C  C550  1  0.884100  0.387800  0.948700  1.0
  C  C551  1  0.387800  0.779400  0.948700  1.0
  C  C552  1  0.779400  0.884100  0.948700  1.0
  C  C553  1  0.861700  0.458600  0.931000  1.0
  C  C554  1  0.458600  0.748700  0.931000  1.0
  C  C555  1  0.748700  0.861700  0.931000  1.0
  C  C556  1  0.790400  0.493900  0.963000  1.0
  C  C557  1  0.493900  0.752700  0.963000  1.0
  C  C558  1  0.752700  0.790400  0.963000  1.0
  C  C559  1  0.911900  0.500300  0.879200  1.0
  C  C560  1  0.500300  0.708600  0.879200  1.0
  C  C561  1  0.708600  0.911900  0.879200  1.0
  C  C562  1  0.829900  0.594400  0.801100  1.0
  C  C563  1  0.594400  0.774600  0.801100  1.0
  C  C564  1  0.774600  0.829900  0.801100  1.0
  C  C565  1  0.866600  0.649900  0.741700  1.0
  C  C566  1  0.649900  0.741800  0.741700  1.0
  C  C567  1  0.741800  0.866600  0.741700  1.0
  C  C568  1  0.928800  0.607900  0.770800  1.0
  C  C569  1  0.607900  0.692500  0.770800  1.0
  C  C570  1  0.692500  0.928800  0.770800  1.0
  C  C571  1  0.950200  0.646700  0.786200  1.0
  C  C572  1  0.646700  0.616900  0.786200  1.0
  C  C573  1  0.616900  0.950200  0.786200  1.0
  C  C574  1  0.941700  0.677000  0.879700  1.0
  C  C575  1  0.677000  0.501600  0.879700  1.0
  C  C576  1  0.501600  0.941700  0.879700  1.0
  C  C577  1  0.953000  0.620800  0.947700  1.0
  C  C578  1  0.620800  0.478500  0.947700  1.0
  C  C579  1  0.478500  0.953000  0.947700  1.0
  C  C580  1  0.025200  0.682100  0.937800  1.0
  C  C581  1  0.682100  0.354900  0.937800  1.0
  C  C582  1  0.354900  0.025200  0.937800  1.0
  C  C583  1  0.075000  0.650000  0.973400  1.0
  C  C584  1  0.650000  0.301600  0.973400  1.0
  C  C585  1  0.301600  0.075000  0.973400  1.0
  C  C586  1  0.040800  0.606700  0.049300  1.0
  C  C587  1  0.606700  0.303200  0.049300  1.0
  C  C588  1  0.303200  0.040800  0.049300  1.0
  C  C589  1  0.005900  0.573700  0.037800  1.0
  C  C590  1  0.573700  0.382600  0.037800  1.0
  C  C591  1  0.382600  0.005900  0.037800  1.0
  C  C592  1  0.936900  0.568200  0.097100  1.0
  C  C593  1  0.568200  0.397800  0.097100  1.0
  C  C594  1  0.397800  0.936900  0.097100  1.0
  C  C595  1  0.892300  0.413000  0.232900  1.0
  C  C596  1  0.413000  0.461800  0.232900  1.0
  C  C597  1  0.461800  0.892300  0.232900  1.0
  C  C598  1  0.884700  0.483400  0.202800  1.0
  C  C599  1  0.483400  0.429100  0.202800  1.0
  C  C600  1  0.429100  0.884700  0.202800  1.0
  C  C601  1  0.823500  0.531200  0.233200  1.0
  C  C602  1  0.531200  0.412100  0.233200  1.0
  C  C603  1  0.412100  0.823500  0.233200  1.0
  C  C604  1  0.772400  0.504100  0.290900  1.0
  C  C605  1  0.504100  0.432600  0.290900  1.0
  C  C606  1  0.432600  0.772400  0.290900  1.0
  C  C607  1  0.783400  0.434500  0.316000  1.0
  C  C608  1  0.434500  0.466100  0.316000  1.0
  C  C609  1  0.466100  0.783400  0.316000  1.0
  N  N610  1  0.103000  0.222000  0.905000  1
  N  N611  1  0.222000  0.770000  0.905000  1
  N  N612  1  0.770000  0.103000  0.905000  1
  N  N613  1  0.837000  0.150000  0.054000  1
  N  N614  1  0.150000  0.959000  0.054000  1
  N  N615  1  0.959000  0.837000  0.054000  1
  N  N616  1  0.292600  0.344800  0.689100  1.0
  N  N617  1  0.344800  0.673500  0.689100  1.0
  N  N618  1  0.673500  0.292600  0.689100  1.0
  N  N619  1  0.253800  0.191500  0.673500  1.0
  N  N620  1  0.191500  0.881200  0.673500  1.0
  N  N621  1  0.881200  0.253800  0.673500  1.0
  N  N622  1  0.359200  0.146000  0.558500  1.0
  N  N623  1  0.146000  0.936300  0.558500  1.0
  N  N624  1  0.936300  0.359200  0.558500  1.0
  N  N625  1  0.548600  0.073700  0.475100  1.0
  N  N626  1  0.073700  0.902600  0.475100  1.0
  N  N627  1  0.902600  0.548600  0.475100  1.0
  N  N628  1  0.654600  0.136800  0.486100  1.0
  N  N629  1  0.136800  0.722500  0.486100  1.0
  N  N630  1  0.722500  0.654600  0.486100  1.0
  N  N631  1  0.662200  0.268000  0.522900  1.0
  N  N632  1  0.268000  0.546900  0.522900  1.0
  N  N633  1  0.546900  0.662200  0.522900  1.0
  N  N634  1  0.590400  0.142500  0.797600  1.0
  N  N635  1  0.142500  0.469500  0.797600  1.0
  N  N636  1  0.469500  0.590400  0.797600  1.0
  N  N637  1  0.854100  0.169400  0.391900  1.0
  N  N638  1  0.169400  0.584600  0.391900  1.0
  N  N639  1  0.584600  0.854100  0.391900  1.0
  N  N640  1  0.875700  0.045100  0.596900  1.0
  N  N641  1  0.045100  0.482300  0.596900  1.0
  N  N642  1  0.482300  0.875700  0.596900  1.0
  N  N643  1  0.779500  0.086100  0.714700  1.0
  N  N644  1  0.086100  0.419700  0.714700  1.0
  N  N645  1  0.419700  0.779500  0.714700  1.0
  N  N646  1  0.482500  0.226100  0.686800  1.0
  N  N647  1  0.226100  0.604600  0.686800  1.0
  N  N648  1  0.604600  0.482500  0.686800  1.0
  N  N649  1  0.477200  0.312300  0.507100  1.0
  N  N650  1  0.312300  0.703400  0.507100  1.0
  N  N651  1  0.703400  0.477200  0.507100  1.0
  N  N652  1  0.179300  0.631700  0.189800  1.0
  N  N653  1  0.631700  0.999200  0.189800  1.0
  N  N654  1  0.999200  0.179300  0.189800  1.0
  N  N655  1  0.473900  0.274300  0.345900  1.0
  N  N656  1  0.274300  0.905900  0.345900  1.0
  N  N657  1  0.905900  0.473900  0.345900  1.0
  N  N658  1  0.274400  0.311300  0.350800  1.0
  N  N659  1  0.311300  0.063500  0.350800  1.0
  N  N660  1  0.063500  0.274400  0.350800  1.0
  N  N661  1  0.183300  0.450800  0.292500  1.0
  N  N662  1  0.450800  0.073400  0.292500  1.0
  N  N663  1  0.073400  0.183300  0.292500  1.0
  N  N664  1  0.349600  0.648200  0.121900  1.0
  N  N665  1  0.648200  0.880300  0.121900  1.0
  N  N666  1  0.880300  0.349600  0.121900  1.0
  N  N667  1  0.533000  0.580800  0.110600  1.0
  N  N668  1  0.580800  0.775600  0.110600  1.0
  N  N669  1  0.775600  0.533000  0.110600  1.0
  N  N670  1  0.746100  0.458800  0.011300  1.0
  N  N671  1  0.458800  0.783800  0.011300  1.0
  N  N672  1  0.783800  0.746100  0.011300  1.0
  N  N673  1  0.885100  0.563700  0.833000  1.0
  N  N674  1  0.563700  0.718200  0.833000  1.0
  N  N675  1  0.718200  0.885100  0.833000  1.0
  N  N676  1  0.916700  0.651600  0.853800  1.0
  N  N677  1  0.651600  0.577900  0.853800  1.0
  N  N678  1  0.577900  0.916700  0.853800  1.0
  N  N679  1  0.992500  0.626200  0.970200  1.0
  N  N680  1  0.626200  0.411100  0.970200  1.0
  N  N681  1  0.411100  0.992500  0.970200  1.0
  N  N682  1  0.940600  0.502000  0.142200  1.0
  N  N683  1  0.502000  0.415200  0.142200  1.0
  N  N684  1  0.415200  0.940600  0.142200  1.0
  N  N685  1  0.841200  0.388000  0.289900  1.0
  N  N686  1  0.388000  0.480900  0.289900  1.0
  N  N687  1  0.480900  0.841200  0.289900  1.0
  O  O688  1  0.063000  0.265000  0.937000  1
  O  O689  1  0.265000  0.735000  0.937000  1
  O  O690  1  0.735000  0.063000  0.937000  1
  O  O691  1  0.118000  0.235000  0.843000  1
  O  O692  1  0.235000  0.804000  0.843000  1
  O  O693  1  0.804000  0.118000  0.843000  1
  O  O694  1  0.893000  0.164000  0.015000  1
  O  O695  1  0.164000  0.928000  0.015000  1
  O  O696  1  0.928000  0.893000  0.015000  1
  O  O697  1  0.781000  0.194000  0.044000  1
  O  O698  1  0.194000  0.981000  0.044000  1
  O  O699  1  0.981000  0.781000  0.044000  1
  O  O700  1  0.455900  0.100100  0.736400  1
  O  O701  1  0.100100  0.707600  0.736400  1
  O  O702  1  0.707600  0.455900  0.736400  1
  O  O703  1  0.391500  0.430400  0.109100  1
  O  O704  1  0.430400  0.069000  0.109100  1
  O  O705  1  0.069000  0.391500  0.109100  1
  O  O706  1  0.692400  0.680800  0.604100  1
  O  O707  1  0.680800  0.022700  0.604100  1
  O  O708  1  0.022700  0.692400  0.604100  1
  O  O709  1  0.994200  0.389500  0.006100  1
  O  O710  1  0.389500  0.610200  0.006100  1
  O  O711  1  0.610200  0.994200  0.006100  1
  O  O712  1  0.819000  0.660000  0.616000  1
  O  O713  1  0.660000  0.905000  0.616000  1
  O  O714  1  0.905000  0.819000  0.616000  1
  O  O715  1  0.840000  0.508000  0.670000  1
  O  O716  1  0.508000  0.982000  0.670000  1
  O  O717  1  0.982000  0.840000  0.670000  1
  O  O718  1  0.845000  0.405000  0.805000  1
  O  O719  1  0.405000  0.945000  0.805000  1
  O  O720  1  0.945000  0.845000  0.805000  1
  O  O721  1  0.247800  0.247800  0.256600  1
  O  O722  1  0.440000  0.332000  0.056000  1
  O  O723  1  0.332000  0.172000  0.056000  1
  O  O724  1  0.172000  0.440000  0.056000  1
  O  O725  1  0.284100  0.284100  0.147700  1
  O  O726  1  0.076100  0.076100  0.771700  1
  O  O727  1  0.190000  0.069000  0.826000  1
  O  O728  1  0.069000  0.915000  0.826000  1
  O  O729  1  0.915000  0.190000  0.826000  1
  O  O730  1  0.836000  0.002000  0.792000  1
  O  O731  1  0.002000  0.370000  0.792000  1
  O  O732  1  0.370000  0.836000  0.792000  1
  O  O733  1  0.111000  0.425000  0.400000  1
  O  O734  1  0.425000  0.064000  0.400000  1
  O  O735  1  0.064000  0.111000  0.400000  1
  O  O736  1  0.419000  0.277000  0.970000  1
  O  O737  1  0.277000  0.334000  0.970000  1
  O  O738  1  0.334000  0.419000  0.970000  1
  O  O739  1  0.301000  0.972000  0.831000  1
  O  O740  1  0.972000  0.896000  0.831000  1
  O  O741  1  0.896000  0.301000  0.831000  1
  O  O742  1  0.252000  0.007000  0.849000  1
  O  O743  1  0.007000  0.892000  0.849000  1
  O  O744  1  0.892000  0.252000  0.849000  1
  O  O745  1  0.214000  0.363000  0.156000  1
  O  O746  1  0.363000  0.267000  0.156000  1
  O  O747  1  0.267000  0.214000  0.156000  1
  O  O748  1  0.338300  0.110900  0.721700  1.0
  O  O749  1  0.110900  0.829100  0.721700  1.0
  O  O750  1  0.829100  0.338300  0.721700  1.0
  O  O751  1  0.293700  0.098700  0.561700  1.0
  O  O752  1  0.098700  0.045900  0.561700  1.0
  O  O753  1  0.045900  0.293700  0.561700  1.0
  O  O754  1  0.482900  0.131500  0.554000  1.0
  O  O755  1  0.131500  0.831600  0.554000  1.0
  O  O756  1  0.831600  0.482900  0.554000  1.0
  O  O757  1  0.600800  0.181900  0.406500  1.0
  O  O758  1  0.181900  0.810800  0.406500  1.0
  O  O759  1  0.810800  0.600800  0.406500  1.0
  O  O760  1  0.829000  0.975000  0.785000  1.0
  O  O761  1  0.975000  0.411000  0.785000  1.0
  O  O762  1  0.411000  0.829000  0.785000  1.0
  O  O763  1  0.661400  0.133800  0.690200  1.0
  O  O764  1  0.133800  0.514600  0.690200  1.0
  O  O765  1  0.514600  0.661400  0.690200  1.0
  O  O766  1  0.806300  0.992500  0.614100  1.0
  O  O767  1  0.992500  0.587100  0.614100  1.0
  O  O768  1  0.587100  0.806300  0.614100  1.0
  O  O769  1  0.535700  0.272500  0.707100  1.0
  O  O770  1  0.272500  0.484700  0.707100  1.0
  O  O771  1  0.484700  0.535700  0.707100  1.0
  O  O772  1  0.317900  0.349000  0.231500  1.0
  O  O773  1  0.349000  0.101600  0.231500  1.0
  O  O774  1  0.101600  0.317900  0.231500  1.0
  O  O775  1  0.094000  0.421000  0.373000  1.0
  O  O776  1  0.421000  0.112000  0.373000  1.0
  O  O777  1  0.112000  0.094000  0.373000  1.0
  O  O778  1  0.267500  0.528100  0.202900  1.0
  O  O779  1  0.528100  0.001500  0.202900  1.0
  O  O780  1  0.001500  0.267500  0.202900  1.0
  O  O781  1  0.263800  0.655500  0.226200  1.0
  O  O782  1  0.655500  0.854500  0.226200  1.0
  O  O783  1  0.854500  0.263800  0.226200  1.0
  O  O784  1  0.971600  0.480900  0.877100  1.0
  O  O785  1  0.480900  0.670400  0.877100  1.0
  O  O786  1  0.670400  0.971600  0.877100  1.0
  O  O787  1  0.995700  0.674500  0.740800  1.0
  O  O788  1  0.674500  0.589000  0.740800  1.0
  O  O789  1  0.589000  0.995700  0.740800  1.0
  O  O790  1  0.926900  0.574000  0.980200  1.0
  O  O791  1  0.574000  0.518900  0.980200  1.0
  O  O792  1  0.518900  0.926900  0.980200  1.0
  O  O793  1  0.886700  0.621400  0.102500  1.0
  O  O794  1  0.621400  0.389400  0.102500  1.0
  O  O795  1  0.389400  0.886700  0.102500  1.0
  F  F796  1  0.229000  0.401800  0.549000  1
  F  F797  1  0.401800  0.820200  0.549000  1
  F  F798  1  0.820200  0.229000  0.549000  1
  F  F799  1  0.318300  0.308600  0.513400  1
  F  F800  1  0.308600  0.859700  0.513400  1
  F  F801  1  0.859700  0.318300  0.513400  1
  F  F802  1  0.254500  0.400900  0.441000  1
  F  F803  1  0.400900  0.903600  0.441000  1
  F  F804  1  0.903600  0.254500  0.441000  1
  F  F805  1  0.331800  0.414800  0.461400  1
  F  F806  1  0.414800  0.792000  0.461400  1
  F  F807  1  0.792000  0.331800  0.461400  1
  F  F808  1  0.572000  0.572000  0.284000  1
  F  F809  1  0.657700  0.657700  0.026900  1
  F  F810  1  0.767100  0.161300  0.265300  1
  F  F811  1  0.161300  0.806300  0.265300  1
  F  F812  1  0.806300  0.767100  0.265300  1
  F  F813  1  0.779700  0.238400  0.153600  1
  F  F814  1  0.238400  0.828300  0.153600  1
  F  F815  1  0.828300  0.779700  0.153600  1
  F  F816  1  0.687100  0.269500  0.245800  1
  F  F817  1  0.269500  0.797600  0.245800  1
  F  F818  1  0.797600  0.687100  0.245800  1
  F  F819  1  0.691900  0.189900  0.210700  1
  F  F820  1  0.189900  0.907500  0.210700  1
  F  F821  1  0.907500  0.691900  0.210700  1
  F  F822  1  0.425200  0.425200  0.724400  1
  F  F823  1  0.547000  0.112700  0.039300  1
  F  F824  1  0.112700  0.301000  0.039300  1
  F  F825  1  0.301000  0.547000  0.039300  1
  F  F826  1  0.552000  0.223100  0.987300  1
  F  F827  1  0.223100  0.237600  0.987300  1
  F  F828  1  0.237600  0.552000  0.987300  1
  F  F829  1  0.513000  0.176000  0.108000  1
  F  F830  1  0.176000  0.203000  0.108000  1
  F  F831  1  0.203000  0.513000  0.108000  1
  F  F832  1  0.618000  0.145000  0.057100  1
  F  F833  1  0.145000  0.179900  0.057100  1
  F  F834  1  0.179900  0.618000  0.057100  1
  F  F835  1  0.489500  0.532700  0.378400  1.0
  F  F836  1  0.532700  0.599400  0.378400  1.0
  F  F837  1  0.599400  0.489500  0.378400  1.0
  F  F838  1  0.665100  0.648800  0.930700  1.0
  F  F839  1  0.648800  0.755400  0.930700  1.0
  F  F840  1  0.755400  0.665100  0.930700  1.0
  F  F841  1  0.458700  0.367700  0.822000  1.0
  F  F842  1  0.367700  0.351600  0.822000  1.0
  F  F843  1  0.351600  0.458700  0.822000  1.0
