# generated using pymatgen
data_Fe4H123C160S6N31(O7F9)2
_symmetry_space_group_name_H-M   'P 1'
_cell_length_a   22.39100000
_cell_length_b   26.87600000
_cell_length_c   38.44300000
_cell_angle_alpha   90.00000000
_cell_angle_beta   90.00000000
_cell_angle_gamma   94.44000000
_symmetry_Int_Tables_number   1
_chemical_formula_structural   Fe4H123C160S6N31(O7F9)2
_chemical_formula_sum   'Fe16 H492 C640 S24 N124 O56 F72'
_cell_volume   23064.82132361
_cell_formula_units_Z   4
loop_
 _symmetry_equiv_pos_site_id
 _symmetry_equiv_pos_as_xyz
  1  'x, y, z'
loop_
 _atom_site_type_symbol
 _atom_site_label
 _atom_site_symmetry_multiplicity
 _atom_site_fract_x
 _atom_site_fract_y
 _atom_site_fract_z
 _atom_site_occupancy
  Fe  Fe1  1  0.519696  0.672348  0.359422  1.0
  Fe  Fe2  1  0.480304  0.327652  0.359422  1.0
  Fe  Fe3  1  0.519696  0.172348  0.859422  1.0
  Fe  Fe4  1  0.480304  0.827652  0.859422  1.0
  Fe  Fe5  1  0.288525  0.504633  0.182955  1.0
  Fe  Fe6  1  0.711475  0.495367  0.182955  1.0
  Fe  Fe7  1  0.288525  0.004633  0.682955  1.0
  Fe  Fe8  1  0.711475  0.995367  0.682955  1.0
  Fe  Fe9  1  0.020035  0.172912  0.078908  1.0
  Fe  Fe10  1  0.979965  0.827088  0.078908  1.0
  Fe  Fe11  1  0.020035  0.672912  0.578908  1.0
  Fe  Fe12  1  0.979965  0.327088  0.578908  1.0
  Fe  Fe13  1  0.788271  0.004886  0.255245  1.0
  Fe  Fe14  1  0.211729  0.995114  0.255245  1.0
  Fe  Fe15  1  0.788271  0.504886  0.755245  1.0
  Fe  Fe16  1  0.211729  0.495114  0.755245  1.0
  H  H17  1  0.090000  0.671900  0.268800  1
  H  H18  1  0.910000  0.328100  0.268800  1
  H  H19  1  0.090000  0.171900  0.768800  1
  H  H20  1  0.910000  0.828100  0.768800  1
  H  H21  1  0.112000  0.641500  0.236100  1
  H  H22  1  0.888000  0.358500  0.236100  1
  H  H23  1  0.112000  0.141500  0.736100  1
  H  H24  1  0.888000  0.858500  0.736100  1
  H  H25  1  0.049300  0.624900  0.254300  1
  H  H26  1  0.950700  0.375100  0.254300  1
  H  H27  1  0.049300  0.124900  0.754300  1
  H  H28  1  0.950700  0.875100  0.754300  1
  H  H29  1  0.446600  0.865700  0.178700  1
  H  H30  1  0.553400  0.134300  0.178700  1
  H  H31  1  0.446600  0.365700  0.678700  1
  H  H32  1  0.553400  0.634300  0.678700  1
  H  H33  1  0.408100  0.875700  0.212700  1
  H  H34  1  0.591900  0.124300  0.212700  1
  H  H35  1  0.408100  0.375700  0.712700  1
  H  H36  1  0.591900  0.624300  0.712700  1
  H  H37  1  0.383900  0.834300  0.185100  1
  H  H38  1  0.616100  0.165700  0.185100  1
  H  H39  1  0.383900  0.334300  0.685100  1
  H  H40  1  0.616100  0.665700  0.685100  1
  H  H41  1  0.240000  0.492600  0.345200  1
  H  H42  1  0.760000  0.507400  0.345200  1
  H  H43  1  0.240000  0.992600  0.845200  1
  H  H44  1  0.760000  0.007400  0.845200  1
  H  H45  1  0.255500  0.521900  0.380700  1
  H  H46  1  0.744500  0.478100  0.380700  1
  H  H47  1  0.255500  0.021900  0.880700  1
  H  H48  1  0.744500  0.978100  0.880700  1
  H  H49  1  0.259300  0.462800  0.378900  1
  H  H50  1  0.740700  0.537200  0.378900  1
  H  H51  1  0.259300  0.962800  0.878900  1
  H  H52  1  0.740700  0.037200  0.878900  1
  H  H53  1  0.216600  0.241800  0.354400  1
  H  H54  1  0.783400  0.758200  0.354400  1
  H  H55  1  0.216600  0.741800  0.854400  1
  H  H56  1  0.783400  0.258200  0.854400  1
  H  H57  1  0.163300  0.270500  0.370800  1
  H  H58  1  0.836700  0.729500  0.370800  1
  H  H59  1  0.163300  0.770500  0.870800  1
  H  H60  1  0.836700  0.229500  0.870800  1
  H  H61  1  0.214200  0.251000  0.395400  1
  H  H62  1  0.785800  0.749000  0.395400  1
  H  H63  1  0.214200  0.751000  0.895400  1
  H  H64  1  0.785800  0.249000  0.895400  1
  H  H65  1  0.077400  0.598000  0.340800  1
  H  H66  1  0.922600  0.402000  0.340800  1
  H  H67  1  0.077400  0.098000  0.840800  1
  H  H68  1  0.922600  0.902000  0.840800  1
  H  H69  1  0.112800  0.651700  0.336900  1
  H  H70  1  0.887200  0.348300  0.336900  1
  H  H71  1  0.112800  0.151700  0.836900  1
  H  H72  1  0.887200  0.848300  0.836900  1
  H  H73  1  0.133800  0.613000  0.365200  1
  H  H74  1  0.866200  0.387000  0.365200  1
  H  H75  1  0.133800  0.113000  0.865200  1
  H  H76  1  0.866200  0.887000  0.865200  1
  H  H77  1  0.449400  0.768400  0.431500  1.0
  H  H78  1  0.550600  0.231600  0.431500  1.0
  H  H79  1  0.449400  0.268400  0.931500  1.0
  H  H80  1  0.550600  0.731600  0.931500  1.0
  H  H81  1  0.480800  0.789000  0.488100  1.0
  H  H82  1  0.519200  0.211000  0.488100  1.0
  H  H83  1  0.480800  0.289000  0.988100  1.0
  H  H84  1  0.519200  0.711000  0.988100  1.0
  H  H85  1  0.528100  0.731100  0.521800  1.0
  H  H86  1  0.471900  0.268900  0.521800  1.0
  H  H87  1  0.528100  0.231100  0.021800  1.0
  H  H88  1  0.471900  0.768900  0.021800  1.0
  H  H89  1  0.544100  0.652600  0.498800  1.0
  H  H90  1  0.455900  0.347400  0.498800  1.0
  H  H91  1  0.544100  0.152600  0.998800  1.0
  H  H92  1  0.455900  0.847400  0.998800  1.0
  H  H93  1  0.512700  0.631900  0.442200  1.0
  H  H94  1  0.487300  0.368100  0.442200  1.0
  H  H95  1  0.512700  0.131900  0.942200  1.0
  H  H96  1  0.487300  0.868100  0.942200  1.0
  H  H97  1  0.384000  0.656100  0.412200  1.0
  H  H98  1  0.616000  0.343900  0.412200  1.0
  H  H99  1  0.384000  0.156100  0.912200  1.0
  H  H100  1  0.616000  0.843900  0.912200  1.0
  H  H101  1  0.470300  0.638200  0.287200  1.0
  H  H102  1  0.529700  0.361800  0.287200  1.0
  H  H103  1  0.470300  0.138200  0.787200  1.0
  H  H104  1  0.529700  0.861800  0.787200  1.0
  H  H105  1  0.292900  0.608000  0.300400  1.0
  H  H106  1  0.707100  0.392000  0.300400  1.0
  H  H107  1  0.292900  0.108000  0.800400  1.0
  H  H108  1  0.707100  0.892000  0.800400  1.0
  H  H109  1  0.305400  0.633400  0.362100  1.0
  H  H110  1  0.694600  0.366600  0.362100  1.0
  H  H111  1  0.305400  0.133400  0.862100  1.0
  H  H112  1  0.694600  0.866600  0.862100  1.0
  H  H113  1  0.328100  0.546500  0.254800  1.0
  H  H114  1  0.671900  0.453500  0.254800  1.0
  H  H115  1  0.328100  0.046500  0.754800  1.0
  H  H116  1  0.671900  0.953500  0.754800  1.0
  H  H117  1  0.393300  0.671200  0.175500  1.0
  H  H118  1  0.606700  0.328800  0.175500  1.0
  H  H119  1  0.393300  0.171200  0.675500  1.0
  H  H120  1  0.606700  0.828800  0.675500  1.0
  H  H121  1  0.419400  0.677000  0.233000  1.0
  H  H122  1  0.580600  0.323000  0.233000  1.0
  H  H123  1  0.419400  0.177000  0.733000  1.0
  H  H124  1  0.580600  0.823000  0.733000  1.0
  H  H125  1  0.334400  0.610300  0.126100  1.0
  H  H126  1  0.665600  0.389700  0.126100  1.0
  H  H127  1  0.334400  0.110300  0.626100  1.0
  H  H128  1  0.665600  0.889700  0.626100  1.0
  H  H129  1  0.334400  0.494100  0.095400  1.0
  H  H130  1  0.665600  0.505900  0.095400  1.0
  H  H131  1  0.334400  0.994100  0.595400  1.0
  H  H132  1  0.665600  0.005900  0.595400  1.0
  H  H133  1  0.297400  0.471500  0.040200  1.0
  H  H134  1  0.702600  0.528500  0.040200  1.0
  H  H135  1  0.297400  0.971500  0.540200  1.0
  H  H136  1  0.702600  0.028500  0.540200  1.0
  H  H137  1  0.208900  0.502500  0.020100  1.0
  H  H138  1  0.791100  0.497500  0.020100  1.0
  H  H139  1  0.208900  0.002500  0.520100  1.0
  H  H140  1  0.791100  0.997500  0.520100  1.0
  H  H141  1  0.157400  0.556100  0.055100  1.0
  H  H142  1  0.842600  0.443900  0.055100  1.0
  H  H143  1  0.157400  0.056100  0.555100  1.0
  H  H144  1  0.842600  0.943900  0.555100  1.0
  H  H145  1  0.194400  0.578700  0.110300  1.0
  H  H146  1  0.805600  0.421300  0.110300  1.0
  H  H147  1  0.194400  0.078700  0.610300  1.0
  H  H148  1  0.805600  0.921300  0.610300  1.0
  H  H149  1  0.528800  0.816900  0.377600  1.0
  H  H150  1  0.471200  0.183100  0.377600  1.0
  H  H151  1  0.528800  0.316900  0.877600  1.0
  H  H152  1  0.471200  0.683100  0.877600  1.0
  H  H153  1  0.461300  0.871100  0.399800  1.0
  H  H154  1  0.538700  0.128900  0.399800  1.0
  H  H155  1  0.461300  0.371100  0.899800  1.0
  H  H156  1  0.538700  0.628900  0.899800  1.0
  H  H157  1  0.360000  0.860700  0.384500  1.0
  H  H158  1  0.640000  0.139300  0.384500  1.0
  H  H159  1  0.360000  0.360700  0.884500  1.0
  H  H160  1  0.640000  0.639300  0.884500  1.0
  H  H161  1  0.326200  0.796000  0.346900  1.0
  H  H162  1  0.673800  0.204000  0.346900  1.0
  H  H163  1  0.326200  0.296000  0.846900  1.0
  H  H164  1  0.673800  0.704000  0.846900  1.0
  H  H165  1  0.393700  0.741800  0.324700  1.0
  H  H166  1  0.606300  0.258200  0.324700  1.0
  H  H167  1  0.393700  0.241800  0.824700  1.0
  H  H168  1  0.606300  0.758200  0.824700  1.0
  H  H169  1  0.507200  0.764400  0.291900  1.0
  H  H170  1  0.492800  0.235600  0.291900  1.0
  H  H171  1  0.507200  0.264400  0.791900  1.0
  H  H172  1  0.492800  0.735600  0.791900  1.0
  H  H173  1  0.618300  0.611900  0.327700  1.0
  H  H174  1  0.381700  0.388100  0.327700  1.0
  H  H175  1  0.618300  0.111900  0.827700  1.0
  H  H176  1  0.381700  0.888100  0.827700  1.0
  H  H177  1  0.637500  0.658700  0.230300  1.0
  H  H178  1  0.362500  0.341300  0.230300  1.0
  H  H179  1  0.637500  0.158700  0.730300  1.0
  H  H180  1  0.362500  0.841300  0.730300  1.0
  H  H181  1  0.564000  0.720600  0.235800  1.0
  H  H182  1  0.436000  0.279400  0.235800  1.0
  H  H183  1  0.564000  0.220600  0.735800  1.0
  H  H184  1  0.436000  0.779400  0.735800  1.0
  H  H185  1  0.635300  0.568200  0.221800  1.0
  H  H186  1  0.364700  0.431800  0.221800  1.0
  H  H187  1  0.635300  0.068200  0.721800  1.0
  H  H188  1  0.364700  0.931800  0.721800  1.0
  H  H189  1  0.794900  0.543300  0.293700  1.0
  H  H190  1  0.205100  0.456700  0.293700  1.0
  H  H191  1  0.794900  0.043300  0.793700  1.0
  H  H192  1  0.205100  0.956700  0.793700  1.0
  H  H193  1  0.729600  0.600700  0.308800  1.0
  H  H194  1  0.270400  0.399300  0.308800  1.0
  H  H195  1  0.729600  0.100700  0.808800  1.0
  H  H196  1  0.270400  0.899300  0.808800  1.0
  H  H197  1  0.835800  0.483700  0.245400  1.0
  H  H198  1  0.164200  0.516300  0.245400  1.0
  H  H199  1  0.835800  0.983700  0.745400  1.0
  H  H200  1  0.164200  0.016300  0.745400  1.0
  H  H201  1  0.780700  0.382200  0.188800  1.0
  H  H202  1  0.219300  0.617800  0.188800  1.0
  H  H203  1  0.780700  0.882200  0.688800  1.0
  H  H204  1  0.219300  0.117800  0.688800  1.0
  H  H205  1  0.846100  0.337000  0.158100  1.0
  H  H206  1  0.153900  0.663000  0.158100  1.0
  H  H207  1  0.846100  0.837000  0.658100  1.0
  H  H208  1  0.153900  0.163000  0.658100  1.0
  H  H209  1  0.935700  0.374600  0.137600  1.0
  H  H210  1  0.064300  0.625400  0.137600  1.0
  H  H211  1  0.935700  0.874600  0.637600  1.0
  H  H212  1  0.064300  0.125400  0.637600  1.0
  H  H213  1  0.963500  0.459300  0.150400  1.0
  H  H214  1  0.036500  0.540700  0.150400  1.0
  H  H215  1  0.963500  0.959300  0.650400  1.0
  H  H216  1  0.036500  0.040700  0.650400  1.0
  H  H217  1  0.898700  0.505100  0.181600  1.0
  H  H218  1  0.101300  0.494900  0.181600  1.0
  H  H219  1  0.898700  0.005100  0.681600  1.0
  H  H220  1  0.101300  0.994900  0.681600  1.0
  H  H221  1  0.640300  0.748000  0.330900  1.0
  H  H222  1  0.359700  0.252000  0.330900  1.0
  H  H223  1  0.640300  0.248000  0.830900  1.0
  H  H224  1  0.359700  0.752000  0.830900  1.0
  H  H225  1  0.695800  0.831600  0.334800  1.0
  H  H226  1  0.304200  0.168400  0.334800  1.0
  H  H227  1  0.695800  0.331600  0.834800  1.0
  H  H228  1  0.304200  0.668400  0.834800  1.0
  H  H229  1  0.703600  0.868600  0.381400  1.0
  H  H230  1  0.296400  0.131400  0.381400  1.0
  H  H231  1  0.703600  0.368600  0.881400  1.0
  H  H232  1  0.296400  0.631400  0.881400  1.0
  H  H233  1  0.646500  0.842600  0.434900  1.0
  H  H234  1  0.353500  0.157400  0.434900  1.0
  H  H235  1  0.646500  0.342600  0.934900  1.0
  H  H236  1  0.353500  0.657400  0.934900  1.0
  H  H237  1  0.619200  0.758400  0.438000  1.0
  H  H238  1  0.380800  0.241600  0.438000  1.0
  H  H239  1  0.619200  0.258400  0.938000  1.0
  H  H240  1  0.380800  0.741600  0.938000  1.0
  H  H241  1  0.656700  0.672200  0.409500  1.0
  H  H242  1  0.343300  0.327800  0.409500  1.0
  H  H243  1  0.656700  0.172200  0.909500  1.0
  H  H244  1  0.343300  0.827800  0.909500  1.0
  H  H245  1  0.469500  0.564800  0.368600  1.0
  H  H246  1  0.530500  0.435200  0.368600  1.0
  H  H247  1  0.469500  0.064800  0.868600  1.0
  H  H248  1  0.530500  0.935200  0.868600  1.0
  H  H249  1  0.587200  0.497500  0.426300  1.0
  H  H250  1  0.412800  0.502500  0.426300  1.0
  H  H251  1  0.587200  0.997500  0.926300  1.0
  H  H252  1  0.412800  0.002500  0.926300  1.0
  H  H253  1  0.637800  0.575500  0.434600  1.0
  H  H254  1  0.362200  0.424500  0.434600  1.0
  H  H255  1  0.637800  0.075500  0.934600  1.0
  H  H256  1  0.362200  0.924500  0.934600  1.0
  H  H257  1  0.193500  0.385100  0.203200  1.0
  H  H258  1  0.806500  0.614900  0.203200  1.0
  H  H259  1  0.193500  0.885100  0.703200  1.0
  H  H260  1  0.806500  0.114900  0.703200  1.0
  H  H261  1  0.093500  0.353300  0.198600  1.0
  H  H262  1  0.906500  0.646700  0.198600  1.0
  H  H263  1  0.093500  0.853300  0.698600  1.0
  H  H264  1  0.906500  0.146700  0.698600  1.0
  H  H265  1  0.037100  0.372000  0.149700  1.0
  H  H266  1  0.962900  0.628000  0.149700  1.0
  H  H267  1  0.037100  0.872000  0.649700  1.0
  H  H268  1  0.962900  0.128000  0.649700  1.0
  H  H269  1  0.080600  0.422400  0.105400  1.0
  H  H270  1  0.919400  0.577600  0.105400  1.0
  H  H271  1  0.080600  0.922400  0.605400  1.0
  H  H272  1  0.919400  0.077600  0.605400  1.0
  H  H273  1  0.180600  0.454100  0.110000  1.0
  H  H274  1  0.819400  0.545900  0.110000  1.0
  H  H275  1  0.180600  0.954100  0.610000  1.0
  H  H276  1  0.819400  0.045900  0.610000  1.0
  H  H277  1  0.288800  0.382500  0.139300  1.0
  H  H278  1  0.711200  0.617500  0.139300  1.0
  H  H279  1  0.288800  0.882500  0.639300  1.0
  H  H280  1  0.711200  0.117500  0.639300  1.0
  H  H281  1  0.422100  0.537200  0.176000  1.0
  H  H282  1  0.577900  0.462800  0.176000  1.0
  H  H283  1  0.422100  0.037200  0.676000  1.0
  H  H284  1  0.577900  0.962800  0.676000  1.0
  H  H285  1  0.498800  0.420400  0.132400  1.0
  H  H286  1  0.501200  0.579600  0.132400  1.0
  H  H287  1  0.498800  0.920400  0.632400  1.0
  H  H288  1  0.501200  0.079600  0.632400  1.0
  H  H289  1  0.405800  0.374400  0.136500  1.0
  H  H290  1  0.594200  0.625600  0.136500  1.0
  H  H291  1  0.405800  0.874400  0.636500  1.0
  H  H292  1  0.594200  0.125600  0.636500  1.0
  H  H293  1  0.950400  0.263900  0.017100  1.0
  H  H294  1  0.049600  0.736100  0.017100  1.0
  H  H295  1  0.950400  0.763900  0.517100  1.0
  H  H296  1  0.049600  0.236100  0.517100  1.0
  H  H297  1  0.975200  0.301000  0.963400  1.0
  H  H298  1  0.024800  0.699000  0.963400  1.0
  H  H299  1  0.975200  0.801000  0.463400  1.0
  H  H300  1  0.024800  0.199000  0.463400  1.0
  H  H301  1  0.018100  0.254700  0.919700  1.0
  H  H302  1  0.981900  0.745300  0.919700  1.0
  H  H303  1  0.018100  0.754700  0.419700  1.0
  H  H304  1  0.981900  0.245300  0.419700  1.0
  H  H305  1  0.036400  0.171300  0.929700  1.0
  H  H306  1  0.963600  0.828700  0.929700  1.0
  H  H307  1  0.036400  0.671300  0.429700  1.0
  H  H308  1  0.963600  0.328700  0.429700  1.0
  H  H309  1  0.011600  0.134200  0.983400  1.0
  H  H310  1  0.988400  0.865800  0.983400  1.0
  H  H311  1  0.011600  0.634200  0.483400  1.0
  H  H312  1  0.988400  0.365800  0.483400  1.0
  H  H313  1  0.877900  0.168100  0.030200  1.0
  H  H314  1  0.122100  0.831900  0.030200  1.0
  H  H315  1  0.877900  0.668100  0.530200  1.0
  H  H316  1  0.122100  0.331900  0.530200  1.0
  H  H317  1  0.969600  0.130700  0.149700  1.0
  H  H318  1  0.030400  0.869300  0.149700  1.0
  H  H319  1  0.969600  0.630700  0.649700  1.0
  H  H320  1  0.030400  0.369300  0.649700  1.0
  H  H321  1  0.791200  0.118600  0.135800  1.0
  H  H322  1  0.208800  0.881400  0.135800  1.0
  H  H323  1  0.791200  0.618600  0.635800  1.0
  H  H324  1  0.208800  0.381400  0.635800  1.0
  H  H325  1  0.804200  0.128900  0.078800  1.0
  H  H326  1  0.195800  0.871100  0.078800  1.0
  H  H327  1  0.804200  0.628900  0.578800  1.0
  H  H328  1  0.195800  0.371100  0.578800  1.0
  H  H329  1  0.821400  0.050200  0.185800  1.0
  H  H330  1  0.178600  0.949800  0.185800  1.0
  H  H331  1  0.821400  0.550200  0.685800  1.0
  H  H332  1  0.178600  0.449800  0.685800  1.0
  H  H333  1  0.895600  0.165200  0.263000  1.0
  H  H334  1  0.104400  0.834800  0.263000  1.0
  H  H335  1  0.895600  0.665200  0.763000  1.0
  H  H336  1  0.104400  0.334800  0.763000  1.0
  H  H337  1  0.915100  0.181800  0.203900  1.0
  H  H338  1  0.084900  0.818200  0.203900  1.0
  H  H339  1  0.915100  0.681800  0.703900  1.0
  H  H340  1  0.084900  0.318200  0.703900  1.0
  H  H341  1  0.827700  0.116700  0.308600  1.0
  H  H342  1  0.172300  0.883300  0.308600  1.0
  H  H343  1  0.827700  0.616700  0.808600  1.0
  H  H344  1  0.172300  0.383300  0.808600  1.0
  H  H345  1  0.834100  0.992000  0.344100  1.0
  H  H346  1  0.165900  0.008000  0.344100  1.0
  H  H347  1  0.834100  0.492000  0.844100  1.0
  H  H348  1  0.165900  0.508000  0.844100  1.0
  H  H349  1  0.793500  0.973100  0.400900  1.0
  H  H350  1  0.206500  0.026900  0.400900  1.0
  H  H351  1  0.793500  0.473100  0.900900  1.0
  H  H352  1  0.206500  0.526900  0.900900  1.0
  H  H353  1  0.694400  0.989200  0.408300  1.0
  H  H354  1  0.305600  0.010800  0.408300  1.0
  H  H355  1  0.694400  0.489200  0.908300  1.0
  H  H356  1  0.305600  0.510800  0.908300  1.0
  H  H357  1  0.651000  0.043500  0.378800  1.0
  H  H358  1  0.349000  0.956500  0.378800  1.0
  H  H359  1  0.651000  0.543500  0.878800  1.0
  H  H360  1  0.349000  0.456500  0.878800  1.0
  H  H361  1  0.688800  0.070300  0.325700  1.0
  H  H362  1  0.311200  0.929700  0.325700  1.0
  H  H363  1  0.688800  0.570300  0.825700  1.0
  H  H364  1  0.311200  0.429700  0.825700  1.0
  H  H365  1  0.887100  0.242800  0.098200  1.0
  H  H366  1  0.112900  0.757200  0.098200  1.0
  H  H367  1  0.887100  0.742800  0.598200  1.0
  H  H368  1  0.112900  0.257200  0.598200  1.0
  H  H369  1  0.835700  0.308100  0.075500  1.0
  H  H370  1  0.164300  0.691900  0.075500  1.0
  H  H371  1  0.835700  0.808100  0.575500  1.0
  H  H372  1  0.164300  0.191900  0.575500  1.0
  H  H373  1  0.889000  0.378600  0.052100  1.0
  H  H374  1  0.111000  0.621400  0.052100  1.0
  H  H375  1  0.889000  0.878600  0.552100  1.0
  H  H376  1  0.111000  0.121400  0.552100  1.0
  H  H377  1  0.993800  0.383700  0.051300  1.0
  H  H378  1  0.006200  0.616300  0.051300  1.0
  H  H379  1  0.993800  0.883700  0.551300  1.0
  H  H380  1  0.006200  0.116300  0.551300  1.0
  H  H381  1  0.045300  0.318500  0.074000  1.0
  H  H382  1  0.954700  0.681500  0.074000  1.0
  H  H383  1  0.045300  0.818500  0.574000  1.0
  H  H384  1  0.954700  0.181500  0.574000  1.0
  H  H385  1  0.021000  0.270500  0.148200  1.0
  H  H386  1  0.979000  0.729500  0.148200  1.0
  H  H387  1  0.021000  0.770500  0.648200  1.0
  H  H388  1  0.979000  0.229500  0.648200  1.0
  H  H389  1  0.110600  0.102800  0.115200  1.0
  H  H390  1  0.889400  0.897200  0.115200  1.0
  H  H391  1  0.110600  0.602800  0.615200  1.0
  H  H392  1  0.889400  0.397200  0.615200  1.0
  H  H393  1  0.125400  0.158700  0.213100  1.0
  H  H394  1  0.874600  0.841300  0.213100  1.0
  H  H395  1  0.125400  0.658700  0.713100  1.0
  H  H396  1  0.874600  0.341300  0.713100  1.0
  H  H397  1  0.080300  0.228600  0.189100  1.0
  H  H398  1  0.919700  0.771400  0.189100  1.0
  H  H399  1  0.080300  0.728600  0.689100  1.0
  H  H400  1  0.919700  0.271400  0.689100  1.0
  H  H401  1  0.138600  0.067000  0.216000  1.0
  H  H402  1  0.861400  0.933000  0.216000  1.0
  H  H403  1  0.138600  0.567000  0.716000  1.0
  H  H404  1  0.861400  0.433000  0.716000  1.0
  H  H405  1  0.299600  0.049200  0.143300  1.0
  H  H406  1  0.700400  0.950800  0.143300  1.0
  H  H407  1  0.299600  0.549200  0.643300  1.0
  H  H408  1  0.700400  0.450800  0.643300  1.0
  H  H409  1  0.217400  0.100500  0.124100  1.0
  H  H410  1  0.782600  0.899500  0.124100  1.0
  H  H411  1  0.217400  0.600500  0.624100  1.0
  H  H412  1  0.782600  0.399500  0.624100  1.0
  H  H413  1  0.339200  0.999900  0.196500  1.0
  H  H414  1  0.660800  0.000100  0.196500  1.0
  H  H415  1  0.339200  0.499900  0.696500  1.0
  H  H416  1  0.660800  0.500100  0.696500  1.0
  H  H417  1  0.279500  0.883400  0.246200  1.0
  H  H418  1  0.720500  0.116600  0.246200  1.0
  H  H419  1  0.279500  0.383400  0.746200  1.0
  H  H420  1  0.720500  0.616600  0.746200  1.0
  H  H421  1  0.346200  0.831600  0.272100  1.0
  H  H422  1  0.653800  0.168400  0.272100  1.0
  H  H423  1  0.346200  0.331600  0.772100  1.0
  H  H424  1  0.653800  0.668400  0.772100  1.0
  H  H425  1  0.437600  0.865900  0.294300  1.0
  H  H426  1  0.562400  0.134100  0.294300  1.0
  H  H427  1  0.437600  0.365900  0.794300  1.0
  H  H428  1  0.562400  0.634100  0.794300  1.0
  H  H429  1  0.462400  0.951900  0.290600  1.0
  H  H430  1  0.537600  0.048100  0.290600  1.0
  H  H431  1  0.462400  0.451900  0.790600  1.0
  H  H432  1  0.537600  0.548100  0.790600  1.0
  H  H433  1  0.395800  0.003700  0.264700  1.0
  H  H434  1  0.604200  0.996300  0.264700  1.0
  H  H435  1  0.395800  0.503700  0.764700  1.0
  H  H436  1  0.604200  0.496300  0.764700  1.0
  H  H437  1  0.151200  0.247100  0.100100  1.0
  H  H438  1  0.848800  0.752900  0.100100  1.0
  H  H439  1  0.151200  0.747100  0.600100  1.0
  H  H440  1  0.848800  0.252900  0.600100  1.0
  H  H441  1  0.189600  0.326600  0.100700  1.0
  H  H442  1  0.810400  0.673400  0.100700  1.0
  H  H443  1  0.189600  0.826600  0.600700  1.0
  H  H444  1  0.810400  0.173400  0.600700  1.0
  H  H445  1  0.191900  0.375200  0.046800  1.0
  H  H446  1  0.808100  0.624800  0.046800  1.0
  H  H447  1  0.191900  0.875200  0.546800  1.0
  H  H448  1  0.808100  0.124800  0.546800  1.0
  H  H449  1  0.145300  0.339400  0.999800  1.0
  H  H450  1  0.854700  0.660600  0.999800  1.0
  H  H451  1  0.145300  0.839400  0.499800  1.0
  H  H452  1  0.854700  0.160600  0.499800  1.0
  H  H453  1  0.102800  0.257000  0.001100  1.0
  H  H454  1  0.897200  0.743000  0.001100  1.0
  H  H455  1  0.102800  0.757000  0.501100  1.0
  H  H456  1  0.897200  0.243000  0.501100  1.0
  H  H457  1  0.153500  0.166900  0.020300  1.0
  H  H458  1  0.846500  0.833100  0.020300  1.0
  H  H459  1  0.153500  0.666900  0.520300  1.0
  H  H460  1  0.846500  0.333100  0.520300  1.0
  H  H461  1  0.966100  0.060200  0.070400  1.0
  H  H462  1  0.033900  0.939800  0.070400  1.0
  H  H463  1  0.966100  0.560200  0.570400  1.0
  H  H464  1  0.033900  0.439800  0.570400  1.0
  H  H465  1  0.087200  0.997300  0.009400  1.0
  H  H466  1  0.912800  0.002700  0.009400  1.0
  H  H467  1  0.087200  0.497300  0.509400  1.0
  H  H468  1  0.912800  0.502700  0.509400  1.0
  H  H469  1  0.146700  0.072700  0.008700  1.0
  H  H470  1  0.853300  0.927300  0.008700  1.0
  H  H471  1  0.146700  0.572700  0.508700  1.0
  H  H472  1  0.853300  0.427300  0.508700  1.0
  H  H473  1  0.926500  0.039600  0.261000  1.0
  H  H474  1  0.073500  0.960400  0.261000  1.0
  H  H475  1  0.926500  0.539600  0.761000  1.0
  H  H476  1  0.073500  0.460400  0.761000  1.0
  H  H477  1  0.901100  0.888000  0.317900  1.0
  H  H478  1  0.098900  0.112000  0.317900  1.0
  H  H479  1  0.901100  0.388000  0.817900  1.0
  H  H480  1  0.098900  0.612000  0.817900  1.0
  H  H481  1  0.000800  0.922200  0.304900  1.0
  H  H482  1  0.999200  0.077800  0.304900  1.0
  H  H483  1  0.000800  0.422200  0.804900  1.0
  H  H484  1  0.999200  0.577800  0.804900  1.0
  H  H485  1  0.786800  0.883600  0.297900  1.0
  H  H486  1  0.213200  0.116400  0.297900  1.0
  H  H487  1  0.786800  0.383600  0.797900  1.0
  H  H488  1  0.213200  0.616400  0.797900  1.0
  H  H489  1  0.676900  0.947800  0.327200  1.0
  H  H490  1  0.323100  0.052200  0.327200  1.0
  H  H491  1  0.676900  0.447800  0.827200  1.0
  H  H492  1  0.323100  0.552200  0.827200  1.0
  H  H493  1  0.580200  0.906400  0.329900  1.0
  H  H494  1  0.419800  0.093600  0.329900  1.0
  H  H495  1  0.580200  0.406400  0.829900  1.0
  H  H496  1  0.419800  0.593600  0.829900  1.0
  H  H497  1  0.541100  0.866600  0.279400  1.0
  H  H498  1  0.458900  0.133400  0.279400  1.0
  H  H499  1  0.541100  0.366600  0.779400  1.0
  H  H500  1  0.458900  0.633400  0.779400  1.0
  H  H501  1  0.596600  0.859300  0.233100  1.0
  H  H502  1  0.403400  0.140700  0.233100  1.0
  H  H503  1  0.596600  0.359300  0.733100  1.0
  H  H504  1  0.403400  0.640700  0.733100  1.0
  H  H505  1  0.697300  0.890700  0.234800  1.0
  H  H506  1  0.302700  0.109300  0.234800  1.0
  H  H507  1  0.697300  0.390700  0.734800  1.0
  H  H508  1  0.302700  0.609300  0.734800  1.0
  C  C509  1  0.226180  0.748750  0.283640  1
  C  C510  1  0.773820  0.251250  0.283640  1
  C  C511  1  0.226180  0.248750  0.783640  1
  C  C512  1  0.773820  0.751250  0.783640  1
  C  C513  1  0.272180  0.754160  0.156820  1
  C  C514  1  0.727820  0.245840  0.156820  1
  C  C515  1  0.272180  0.254160  0.656820  1
  C  C516  1  0.727820  0.745840  0.656820  1
  C  C517  1  0.502030  0.721020  0.118620  1
  C  C518  1  0.497970  0.278980  0.118620  1
  C  C519  1  0.502030  0.221020  0.618620  1
  C  C520  1  0.497970  0.778980  0.618620  1
  C  C521  1  0.372940  0.626170  0.035680  1
  C  C522  1  0.627060  0.373830  0.035680  1
  C  C523  1  0.372940  0.126170  0.535680  1
  C  C524  1  0.627060  0.873830  0.535680  1
  C  C525  1  0.045693  0.687497  0.223581  1
  C  C526  1  0.954307  0.312503  0.223581  1
  C  C527  1  0.045693  0.187497  0.723581  1
  C  C528  1  0.954307  0.812503  0.723581  1
  C  C529  1  0.077040  0.653440  0.247860  1
  C  C530  1  0.922960  0.346560  0.247860  1
  C  C531  1  0.077040  0.153440  0.747860  1
  C  C532  1  0.922960  0.846560  0.747860  1
  C  C533  1  0.449640  0.813651  0.214676  1
  C  C534  1  0.550360  0.186349  0.214676  1
  C  C535  1  0.449640  0.313651  0.714676  1
  C  C536  1  0.550360  0.686349  0.714676  1
  C  C537  1  0.419798  0.850109  0.196404  1
  C  C538  1  0.580202  0.149891  0.196404  1
  C  C539  1  0.419798  0.350109  0.696404  1
  C  C540  1  0.580202  0.649891  0.696404  1
  C  C541  1  0.323890  0.501010  0.356072  1
  C  C542  1  0.676110  0.498990  0.356072  1
  C  C543  1  0.323890  0.001010  0.856072  1
  C  C544  1  0.676110  0.998990  0.856072  1
  C  C545  1  0.265620  0.494100  0.365927  1
  C  C546  1  0.734380  0.505900  0.365927  1
  C  C547  1  0.265620  0.994100  0.865927  1
  C  C548  1  0.734380  0.005900  0.865927  1
  C  C549  1  0.241750  0.312853  0.368164  1
  C  C550  1  0.758250  0.687147  0.368164  1
  C  C551  1  0.241750  0.812853  0.868164  1
  C  C552  1  0.758250  0.187147  0.868164  1
  C  C553  1  0.205980  0.265030  0.372570  1
  C  C554  1  0.794020  0.734970  0.372570  1
  C  C555  1  0.205980  0.765030  0.872570  1
  C  C556  1  0.794020  0.234970  0.872570  1
  C  C557  1  0.157327  0.595758  0.315609  1
  C  C558  1  0.842673  0.404242  0.315609  1
  C  C559  1  0.157327  0.095758  0.815609  1
  C  C560  1  0.842673  0.904242  0.815609  1
  C  C561  1  0.116833  0.616370  0.341866  1
  C  C562  1  0.883167  0.383630  0.341866  1
  C  C563  1  0.116833  0.116370  0.841866  1
  C  C564  1  0.883167  0.883630  0.841866  1
  C  C565  1  0.478084  0.698214  0.431562  1.0
  C  C566  1  0.521916  0.301786  0.431562  1.0
  C  C567  1  0.478084  0.198214  0.931562  1.0
  C  C568  1  0.521916  0.801786  0.931562  1.0
  C  C569  1  0.468594  0.744849  0.445199  1.0
  C  C570  1  0.531406  0.255151  0.445199  1.0
  C  C571  1  0.468594  0.244849  0.945199  1.0
  C  C572  1  0.531406  0.755151  0.945199  1.0
  C  C573  1  0.487249  0.757089  0.478821  1.0
  C  C574  1  0.512751  0.242911  0.478821  1.0
  C  C575  1  0.487249  0.257089  0.978821  1.0
  C  C576  1  0.512751  0.742911  0.978821  1.0
  C  C577  1  0.515394  0.722694  0.498807  1.0
  C  C578  1  0.484606  0.277306  0.498807  1.0
  C  C579  1  0.515394  0.222694  0.998807  1.0
  C  C580  1  0.484606  0.777306  0.998807  1.0
  C  C581  1  0.524884  0.676059  0.485171  1.0
  C  C582  1  0.475116  0.323941  0.485171  1.0
  C  C583  1  0.524884  0.176059  0.985171  1.0
  C  C584  1  0.475116  0.823941  0.985171  1.0
  C  C585  1  0.506230  0.663818  0.451548  1.0
  C  C586  1  0.493770  0.336182  0.451548  1.0
  C  C587  1  0.506230  0.163818  0.951548  1.0
  C  C588  1  0.493770  0.836182  0.951548  1.0
  C  C589  1  0.411887  0.660647  0.393652  1.0
  C  C590  1  0.588113  0.339353  0.393652  1.0
  C  C591  1  0.411887  0.160647  0.893652  1.0
  C  C592  1  0.588113  0.839353  0.893652  1.0
  C  C593  1  0.396092  0.647193  0.358239  1.0
  C  C594  1  0.603908  0.352807  0.358239  1.0
  C  C595  1  0.396092  0.147193  0.858239  1.0
  C  C596  1  0.603908  0.852807  0.858239  1.0
  C  C597  1  0.436531  0.637606  0.302244  1.0
  C  C598  1  0.563469  0.362394  0.302244  1.0
  C  C599  1  0.436531  0.137606  0.802244  1.0
  C  C600  1  0.563469  0.862394  0.802244  1.0
  C  C601  1  0.379990  0.626332  0.288142  1.0
  C  C602  1  0.620010  0.373668  0.288142  1.0
  C  C603  1  0.379990  0.126332  0.788142  1.0
  C  C604  1  0.620010  0.873668  0.788142  1.0
  C  C605  1  0.330818  0.620354  0.309260  1.0
  C  C606  1  0.669182  0.379646  0.309260  1.0
  C  C607  1  0.330818  0.120354  0.809260  1.0
  C  C608  1  0.669182  0.879646  0.809260  1.0
  C  C609  1  0.338717  0.633901  0.346766  1.0
  C  C610  1  0.661283  0.366099  0.346766  1.0
  C  C611  1  0.338717  0.133901  0.846766  1.0
  C  C612  1  0.661283  0.866099  0.846766  1.0
  C  C613  1  0.370330  0.617624  0.249227  1.0
  C  C614  1  0.629670  0.382376  0.249227  1.0
  C  C615  1  0.370330  0.117624  0.749227  1.0
  C  C616  1  0.629670  0.882376  0.749227  1.0
  C  C617  1  0.339472  0.571706  0.238217  1.0
  C  C618  1  0.660528  0.428294  0.238217  1.0
  C  C619  1  0.339472  0.071706  0.738217  1.0
  C  C620  1  0.660528  0.928294  0.738217  1.0
  C  C621  1  0.343749  0.604467  0.181026  1.0
  C  C622  1  0.656251  0.395533  0.181026  1.0
  C  C623  1  0.343749  0.104467  0.681026  1.0
  C  C624  1  0.656251  0.895533  0.681026  1.0
  C  C625  1  0.379140  0.646244  0.191569  1.0
  C  C626  1  0.620860  0.353756  0.191569  1.0
  C  C627  1  0.379140  0.146244  0.691569  1.0
  C  C628  1  0.620860  0.853756  0.691569  1.0
  C  C629  1  0.392628  0.649930  0.225540  1.0
  C  C630  1  0.607372  0.350070  0.225540  1.0
  C  C631  1  0.392628  0.149930  0.725540  1.0
  C  C632  1  0.607372  0.850070  0.725540  1.0
  C  C633  1  0.323138  0.589943  0.145563  1.0
  C  C634  1  0.676862  0.410057  0.145563  1.0
  C  C635  1  0.323138  0.089943  0.645563  1.0
  C  C636  1  0.676862  0.910057  0.645563  1.0
  C  C637  1  0.267890  0.538530  0.108025  1.0
  C  C638  1  0.732110  0.461470  0.108025  1.0
  C  C639  1  0.267890  0.038530  0.608025  1.0
  C  C640  1  0.732110  0.961470  0.608025  1.0
  C  C641  1  0.298482  0.506697  0.087211  1.0
  C  C642  1  0.701518  0.493303  0.087211  1.0
  C  C643  1  0.298482  0.006697  0.587211  1.0
  C  C644  1  0.701518  0.993303  0.587211  1.0
  C  C645  1  0.276508  0.493285  0.054436  1.0
  C  C646  1  0.723492  0.506715  0.054436  1.0
  C  C647  1  0.276508  0.993285  0.554436  1.0
  C  C648  1  0.723492  0.006715  0.554436  1.0
  C  C649  1  0.223941  0.511706  0.042475  1.0
  C  C650  1  0.776059  0.488294  0.042475  1.0
  C  C651  1  0.223941  0.011706  0.542475  1.0
  C  C652  1  0.776059  0.988294  0.542475  1.0
  C  C653  1  0.193348  0.543540  0.063289  1.0
  C  C654  1  0.806652  0.456460  0.063289  1.0
  C  C655  1  0.193348  0.043540  0.563289  1.0
  C  C656  1  0.806652  0.956460  0.563289  1.0
  C  C657  1  0.215322  0.556952  0.096064  1.0
  C  C658  1  0.784678  0.443048  0.096064  1.0
  C  C659  1  0.215322  0.056952  0.596064  1.0
  C  C660  1  0.784678  0.943048  0.596064  1.0
  C  C661  1  0.467578  0.774262  0.349078  1.0
  C  C662  1  0.532422  0.225738  0.349078  1.0
  C  C663  1  0.467578  0.274262  0.849078  1.0
  C  C664  1  0.532422  0.725738  0.849078  1.0
  C  C665  1  0.487678  0.812672  0.371392  1.0
  C  C666  1  0.512322  0.187328  0.371392  1.0
  C  C667  1  0.487678  0.312672  0.871392  1.0
  C  C668  1  0.512322  0.687328  0.871392  1.0
  C  C669  1  0.447591  0.844877  0.384582  1.0
  C  C670  1  0.552409  0.155123  0.384582  1.0
  C  C671  1  0.447591  0.344877  0.884582  1.0
  C  C672  1  0.552409  0.655123  0.884582  1.0
  C  C673  1  0.387405  0.838671  0.375459  1.0
  C  C674  1  0.612595  0.161329  0.375459  1.0
  C  C675  1  0.387405  0.338671  0.875459  1.0
  C  C676  1  0.612595  0.661329  0.875459  1.0
  C  C677  1  0.367305  0.800261  0.353145  1.0
  C  C678  1  0.632695  0.199739  0.353145  1.0
  C  C679  1  0.367305  0.300261  0.853145  1.0
  C  C680  1  0.632695  0.699739  0.853145  1.0
  C  C681  1  0.407391  0.768057  0.339955  1.0
  C  C682  1  0.592609  0.231943  0.339955  1.0
  C  C683  1  0.407391  0.268057  0.839955  1.0
  C  C684  1  0.592609  0.731943  0.839955  1.0
  C  C685  1  0.519272  0.738198  0.306246  1.0
  C  C686  1  0.480728  0.261802  0.306246  1.0
  C  C687  1  0.519272  0.238198  0.806246  1.0
  C  C688  1  0.480728  0.761802  0.806246  1.0
  C  C689  1  0.555240  0.701478  0.291796  1.0
  C  C690  1  0.444760  0.298522  0.291796  1.0
  C  C691  1  0.555240  0.201478  0.791796  1.0
  C  C692  1  0.444760  0.798522  0.791796  1.0
  C  C693  1  0.605537  0.633169  0.309892  1.0
  C  C694  1  0.394463  0.366831  0.309892  1.0
  C  C695  1  0.605537  0.133169  0.809892  1.0
  C  C696  1  0.394463  0.866831  0.809892  1.0
  C  C697  1  0.629644  0.628302  0.275622  1.0
  C  C698  1  0.370356  0.371698  0.275622  1.0
  C  C699  1  0.629644  0.128302  0.775622  1.0
  C  C700  1  0.370356  0.871698  0.775622  1.0
  C  C701  1  0.617077  0.660890  0.251866  1.0
  C  C702  1  0.382923  0.339110  0.251866  1.0
  C  C703  1  0.617077  0.160890  0.751866  1.0
  C  C704  1  0.382923  0.839110  0.751866  1.0
  C  C705  1  0.575840  0.699956  0.254248  1.0
  C  C706  1  0.424160  0.300044  0.254248  1.0
  C  C707  1  0.575840  0.199956  0.754248  1.0
  C  C708  1  0.424160  0.800044  0.754248  1.0
  C  C709  1  0.676286  0.588967  0.266212  1.0
  C  C710  1  0.323714  0.411033  0.266212  1.0
  C  C711  1  0.676286  0.088967  0.766212  1.0
  C  C712  1  0.323714  0.911033  0.766212  1.0
  C  C713  1  0.669586  0.564700  0.235849  1.0
  C  C714  1  0.330414  0.435300  0.235849  1.0
  C  C715  1  0.669586  0.064700  0.735849  1.0
  C  C716  1  0.330414  0.935300  0.735849  1.0
  C  C717  1  0.758580  0.528711  0.248031  1.0
  C  C718  1  0.241420  0.471289  0.248031  1.0
  C  C719  1  0.758580  0.028711  0.748031  1.0
  C  C720  1  0.241420  0.971289  0.748031  1.0
  C  C721  1  0.763421  0.550441  0.278323  1.0
  C  C722  1  0.236579  0.449559  0.278323  1.0
  C  C723  1  0.763421  0.050441  0.778323  1.0
  C  C724  1  0.236579  0.949559  0.778323  1.0
  C  C725  1  0.724499  0.582464  0.287653  1.0
  C  C726  1  0.275501  0.417536  0.287653  1.0
  C  C727  1  0.724499  0.082464  0.787653  1.0
  C  C728  1  0.275501  0.917536  0.787653  1.0
  C  C729  1  0.802130  0.493860  0.232893  1.0
  C  C730  1  0.197870  0.506140  0.232893  1.0
  C  C731  1  0.802130  0.993860  0.732893  1.0
  C  C732  1  0.197870  0.006140  0.732893  1.0
  C  C733  1  0.830357  0.447575  0.187208  1.0
  C  C734  1  0.169643  0.552425  0.187208  1.0
  C  C735  1  0.830357  0.947575  0.687208  1.0
  C  C736  1  0.169643  0.052425  0.687208  1.0
  C  C737  1  0.817349  0.398213  0.180664  1.0
  C  C738  1  0.182651  0.601787  0.180664  1.0
  C  C739  1  0.817349  0.898213  0.680664  1.0
  C  C740  1  0.182651  0.101787  0.680664  1.0
  C  C741  1  0.856165  0.371380  0.162587  1.0
  C  C742  1  0.143835  0.628620  0.162587  1.0
  C  C743  1  0.856165  0.871380  0.662587  1.0
  C  C744  1  0.143835  0.128620  0.662587  1.0
  C  C745  1  0.909522  0.393533  0.150824  1.0
  C  C746  1  0.090478  0.606467  0.150824  1.0
  C  C747  1  0.909522  0.893533  0.650824  1.0
  C  C748  1  0.090478  0.106467  0.650824  1.0
  C  C749  1  0.925972  0.444212  0.158131  1.0
  C  C750  1  0.074028  0.555788  0.158131  1.0
  C  C751  1  0.925972  0.944212  0.658131  1.0
  C  C752  1  0.074028  0.055788  0.658131  1.0
  C  C753  1  0.887923  0.471113  0.176148  1.0
  C  C754  1  0.112077  0.528887  0.176148  1.0
  C  C755  1  0.887923  0.971113  0.676148  1.0
  C  C756  1  0.112077  0.028887  0.676148  1.0
  C  C757  1  0.621669  0.743699  0.385125  1.0
  C  C758  1  0.378331  0.256301  0.385125  1.0
  C  C759  1  0.621669  0.243699  0.885125  1.0
  C  C760  1  0.378331  0.756301  0.885125  1.0
  C  C761  1  0.645185  0.765256  0.352386  1.0
  C  C762  1  0.354815  0.234744  0.352386  1.0
  C  C763  1  0.645185  0.265256  0.852386  1.0
  C  C764  1  0.354815  0.734744  0.852386  1.0
  C  C765  1  0.677547  0.816532  0.354899  1.0
  C  C766  1  0.322453  0.183468  0.354899  1.0
  C  C767  1  0.677547  0.316532  0.854899  1.0
  C  C768  1  0.322453  0.683468  0.854899  1.0
  C  C769  1  0.680237  0.837542  0.381123  1.0
  C  C770  1  0.319763  0.162458  0.381123  1.0
  C  C771  1  0.680237  0.337542  0.881123  1.0
  C  C772  1  0.319763  0.662458  0.881123  1.0
  C  C773  1  0.649990  0.820743  0.415696  1.0
  C  C774  1  0.350010  0.179257  0.415696  1.0
  C  C775  1  0.649990  0.320743  0.915696  1.0
  C  C776  1  0.350010  0.679257  0.915696  1.0
  C  C777  1  0.629400  0.773463  0.416267  1.0
  C  C778  1  0.370600  0.226537  0.416267  1.0
  C  C779  1  0.629400  0.273463  0.916267  1.0
  C  C780  1  0.370600  0.726537  0.916267  1.0
  C  C781  1  0.618356  0.664826  0.399335  1.0
  C  C782  1  0.381644  0.335174  0.399335  1.0
  C  C783  1  0.618356  0.164826  0.899335  1.0
  C  C784  1  0.381644  0.835174  0.899335  1.0
  C  C785  1  0.586537  0.613126  0.399769  1.0
  C  C786  1  0.413463  0.386874  0.399769  1.0
  C  C787  1  0.586537  0.113126  0.899769  1.0
  C  C788  1  0.413463  0.886874  0.899769  1.0
  C  C789  1  0.505710  0.567090  0.381577  1.0
  C  C790  1  0.494290  0.432910  0.381577  1.0
  C  C791  1  0.505710  0.067090  0.881577  1.0
  C  C792  1  0.494290  0.932910  0.881577  1.0
  C  C793  1  0.519905  0.526151  0.400158  1.0
  C  C794  1  0.480095  0.473849  0.400158  1.0
  C  C795  1  0.519905  0.026151  0.900158  1.0
  C  C796  1  0.480095  0.973849  0.900158  1.0
  C  C797  1  0.572754  0.526962  0.416868  1.0
  C  C798  1  0.427246  0.473038  0.416868  1.0
  C  C799  1  0.572754  0.026962  0.916868  1.0
  C  C800  1  0.427246  0.973038  0.916868  1.0
  C  C801  1  0.604084  0.571602  0.419569  1.0
  C  C802  1  0.395916  0.428398  0.419569  1.0
  C  C803  1  0.604084  0.071602  0.919569  1.0
  C  C804  1  0.395916  0.928398  0.919569  1.0
  C  C805  1  0.196439  0.422604  0.157027  1.0
  C  C806  1  0.803561  0.577396  0.157027  1.0
  C  C807  1  0.196439  0.922604  0.657027  1.0
  C  C808  1  0.803561  0.077396  0.657027  1.0
  C  C809  1  0.170589  0.392671  0.183323  1.0
  C  C810  1  0.829411  0.607329  0.183323  1.0
  C  C811  1  0.170589  0.892671  0.683323  1.0
  C  C812  1  0.829411  0.107329  0.683323  1.0
  C  C813  1  0.111201  0.373800  0.180593  1.0
  C  C814  1  0.888799  0.626200  0.180593  1.0
  C  C815  1  0.111201  0.873800  0.680593  1.0
  C  C816  1  0.888799  0.126200  0.680593  1.0
  C  C817  1  0.077662  0.384863  0.151566  1.0
  C  C818  1  0.922338  0.615137  0.151566  1.0
  C  C819  1  0.077662  0.884863  0.651566  1.0
  C  C820  1  0.922338  0.115137  0.651566  1.0
  C  C821  1  0.103511  0.414797  0.125269  1.0
  C  C822  1  0.896489  0.585203  0.125269  1.0
  C  C823  1  0.103511  0.914797  0.625269  1.0
  C  C824  1  0.896489  0.085203  0.625269  1.0
  C  C825  1  0.162900  0.433667  0.127999  1.0
  C  C826  1  0.837100  0.566333  0.127999  1.0
  C  C827  1  0.162900  0.933667  0.627999  1.0
  C  C828  1  0.837100  0.066333  0.627999  1.0
  C  C829  1  0.298298  0.415309  0.147942  1.0
  C  C830  1  0.701702  0.584691  0.147942  1.0
  C  C831  1  0.298298  0.915309  0.647942  1.0
  C  C832  1  0.701702  0.084691  0.647942  1.0
  C  C833  1  0.359364  0.434922  0.150556  1.0
  C  C834  1  0.640636  0.565078  0.150556  1.0
  C  C835  1  0.359364  0.934922  0.650556  1.0
  C  C836  1  0.640636  0.065078  0.650556  1.0
  C  C837  1  0.417920  0.504594  0.166253  1.0
  C  C838  1  0.582080  0.495406  0.166253  1.0
  C  C839  1  0.417920  0.004594  0.666253  1.0
  C  C840  1  0.582080  0.995406  0.666253  1.0
  C  C841  1  0.470183  0.484133  0.153515  1.0
  C  C842  1  0.529817  0.515867  0.153515  1.0
  C  C843  1  0.470183  0.984133  0.653515  1.0
  C  C844  1  0.529817  0.015867  0.653515  1.0
  C  C845  1  0.464760  0.435346  0.141183  1.0
  C  C846  1  0.535240  0.564654  0.141183  1.0
  C  C847  1  0.464760  0.935346  0.641183  1.0
  C  C848  1  0.535240  0.064654  0.641183  1.0
  C  C849  1  0.409800  0.409020  0.141806  1.0
  C  C850  1  0.590200  0.590980  0.141806  1.0
  C  C851  1  0.409800  0.909020  0.641806  1.0
  C  C852  1  0.590200  0.090980  0.641806  1.0
  C  C853  1  0.971270  0.999223  0.149157  1.0
  C  C854  1  0.028730  0.000777  0.149157  1.0
  C  C855  1  0.971270  0.499223  0.649157  1.0
  C  C856  1  0.028730  0.500777  0.649157  1.0
  C  C857  1  0.473429  0.502168  0.287747  1.0
  C  C858  1  0.526571  0.497832  0.287747  1.0
  C  C859  1  0.473429  0.002168  0.787747  1.0
  C  C860  1  0.526571  0.997832  0.787747  1.0
  C  C861  1  0.978690  0.195572  0.005299  1.0
  C  C862  1  0.021310  0.804428  0.005299  1.0
  C  C863  1  0.978690  0.695572  0.505299  1.0
  C  C864  1  0.021310  0.304428  0.505299  1.0
  C  C865  1  0.967860  0.245087  0.999341  1.0
  C  C866  1  0.032140  0.754913  0.999341  1.0
  C  C867  1  0.967860  0.745087  0.499341  1.0
  C  C868  1  0.032140  0.254913  0.499341  1.0
  C  C869  1  0.982561  0.267115  0.967446  1.0
  C  C870  1  0.017439  0.732885  0.967446  1.0
  C  C871  1  0.982561  0.767115  0.467446  1.0
  C  C872  1  0.017439  0.232885  0.467446  1.0
  C  C873  1  0.008092  0.239628  0.941509  1.0
  C  C874  1  0.991908  0.760372  0.941509  1.0
  C  C875  1  0.008092  0.739628  0.441509  1.0
  C  C876  1  0.991908  0.260372  0.441509  1.0
  C  C877  1  0.018923  0.190113  0.947466  1.0
  C  C878  1  0.981077  0.809887  0.947466  1.0
  C  C879  1  0.018923  0.690113  0.447466  1.0
  C  C880  1  0.981077  0.309887  0.447466  1.0
  C  C881  1  0.004222  0.168085  0.979361  1.0
  C  C882  1  0.995778  0.831915  0.979361  1.0
  C  C883  1  0.004222  0.668085  0.479361  1.0
  C  C884  1  0.995778  0.331915  0.479361  1.0
  C  C885  1  0.908501  0.165505  0.047137  1.0
  C  C886  1  0.091499  0.834495  0.047137  1.0
  C  C887  1  0.908501  0.665505  0.547137  1.0
  C  C888  1  0.091499  0.334495  0.547137  1.0
  C  C889  1  0.895049  0.144155  0.082069  1.0
  C  C890  1  0.104951  0.855845  0.082069  1.0
  C  C891  1  0.895049  0.644155  0.582069  1.0
  C  C892  1  0.104951  0.355845  0.582069  1.0
  C  C893  1  0.935163  0.131313  0.135313  1.0
  C  C894  1  0.064837  0.868687  0.135313  1.0
  C  C895  1  0.935163  0.631313  0.635313  1.0
  C  C896  1  0.064837  0.368687  0.635313  1.0
  C  C897  1  0.879276  0.120614  0.149977  1.0
  C  C898  1  0.120724  0.879386  0.149977  1.0
  C  C899  1  0.879276  0.620614  0.649977  1.0
  C  C900  1  0.120724  0.379386  0.649977  1.0
  C  C901  1  0.830752  0.123178  0.126799  1.0
  C  C902  1  0.169248  0.876822  0.126799  1.0
  C  C903  1  0.830752  0.623178  0.626799  1.0
  C  C904  1  0.169248  0.376822  0.626799  1.0
  C  C905  1  0.837448  0.131433  0.094163  1.0
  C  C906  1  0.162552  0.868567  0.094163  1.0
  C  C907  1  0.837448  0.631433  0.594163  1.0
  C  C908  1  0.162552  0.368567  0.594163  1.0
  C  C909  1  0.873128  0.115002  0.187120  1.0
  C  C910  1  0.126872  0.884998  0.187120  1.0
  C  C911  1  0.873128  0.615002  0.687120  1.0
  C  C912  1  0.126872  0.384998  0.687120  1.0
  C  C913  1  0.838466  0.074443  0.201636  1.0
  C  C914  1  0.161534  0.925557  0.201636  1.0
  C  C915  1  0.838466  0.574443  0.701636  1.0
  C  C916  1  0.161534  0.425557  0.701636  1.0
  C  C917  1  0.845681  0.098918  0.256038  1.0
  C  C918  1  0.154319  0.901082  0.256038  1.0
  C  C919  1  0.845681  0.598918  0.756038  1.0
  C  C920  1  0.154319  0.401082  0.756038  1.0
  C  C921  1  0.880582  0.142126  0.245759  1.0
  C  C922  1  0.119418  0.857874  0.245759  1.0
  C  C923  1  0.880582  0.642126  0.745759  1.0
  C  C924  1  0.119418  0.357874  0.745759  1.0
  C  C925  1  0.893480  0.151713  0.211093  1.0
  C  C926  1  0.106520  0.848287  0.211093  1.0
  C  C927  1  0.893480  0.651713  0.711093  1.0
  C  C928  1  0.106520  0.348287  0.711093  1.0
  C  C929  1  0.821723  0.092228  0.290840  1.0
  C  C930  1  0.178277  0.907772  0.290840  1.0
  C  C931  1  0.821723  0.592228  0.790840  1.0
  C  C932  1  0.178277  0.407772  0.790840  1.0
  C  C933  1  0.770309  0.035314  0.328349  1.0
  C  C934  1  0.229691  0.964686  0.328349  1.0
  C  C935  1  0.770309  0.535314  0.828349  1.0
  C  C936  1  0.229691  0.464686  0.828349  1.0
  C  C937  1  0.797245  0.004503  0.350783  1.0
  C  C938  1  0.202755  0.995497  0.350783  1.0
  C  C939  1  0.797245  0.504503  0.850783  1.0
  C  C940  1  0.202755  0.495497  0.850783  1.0
  C  C941  1  0.772310  0.990332  0.383888  1.0
  C  C942  1  0.227690  0.009668  0.383888  1.0
  C  C943  1  0.772310  0.490332  0.883888  1.0
  C  C944  1  0.227690  0.509668  0.883888  1.0
  C  C945  1  0.715446  0.003748  0.388870  1.0
  C  C946  1  0.284554  0.996252  0.388870  1.0
  C  C947  1  0.715446  0.503748  0.888870  1.0
  C  C948  1  0.284554  0.496252  0.888870  1.0
  C  C949  1  0.688171  0.032791  0.370848  1.0
  C  C950  1  0.311829  0.967209  0.370848  1.0
  C  C951  1  0.688171  0.532791  0.870848  1.0
  C  C952  1  0.311829  0.467209  0.870848  1.0
  C  C953  1  0.710964  0.049452  0.339933  1.0
  C  C954  1  0.289036  0.950548  0.339933  1.0
  C  C955  1  0.710964  0.549452  0.839933  1.0
  C  C956  1  0.289036  0.450548  0.839933  1.0
  C  C957  1  0.971028  0.274518  0.088220  1.0
  C  C958  1  0.028972  0.725482  0.088220  1.0
  C  C959  1  0.971028  0.774518  0.588220  1.0
  C  C960  1  0.028972  0.225482  0.588220  1.0
  C  C961  1  0.908778  0.271443  0.088685  1.0
  C  C962  1  0.091222  0.728557  0.088685  1.0
  C  C963  1  0.908778  0.771443  0.588685  1.0
  C  C964  1  0.091222  0.228557  0.588685  1.0
  C  C965  1  0.878228  0.310212  0.075213  1.0
  C  C966  1  0.121772  0.689788  0.075213  1.0
  C  C967  1  0.878228  0.810212  0.575213  1.0
  C  C968  1  0.121772  0.189788  0.575213  1.0
  C  C969  1  0.909928  0.352057  0.061275  1.0
  C  C970  1  0.090072  0.647943  0.061275  1.0
  C  C971  1  0.909928  0.852057  0.561275  1.0
  C  C972  1  0.090072  0.147943  0.561275  1.0
  C  C973  1  0.972178  0.355132  0.060809  1.0
  C  C974  1  0.027822  0.644868  0.060809  1.0
  C  C975  1  0.972178  0.855132  0.560809  1.0
  C  C976  1  0.027822  0.144868  0.560809  1.0
  C  C977  1  0.002729  0.316364  0.074281  1.0
  C  C978  1  0.997271  0.683636  0.074281  1.0
  C  C979  1  0.002729  0.816364  0.574281  1.0
  C  C980  1  0.997271  0.183636  0.574281  1.0
  C  C981  1  0.027472  0.242441  0.133953  1.0
  C  C982  1  0.972528  0.757559  0.133953  1.0
  C  C983  1  0.027472  0.742441  0.633953  1.0
  C  C984  1  0.972528  0.257559  0.633953  1.0
  C  C985  1  0.060539  0.202018  0.145366  1.0
  C  C986  1  0.939461  0.797982  0.145366  1.0
  C  C987  1  0.060539  0.702018  0.645366  1.0
  C  C988  1  0.939461  0.297982  0.645366  1.0
  C  C989  1  0.104662  0.128525  0.131517  1.0
  C  C990  1  0.895338  0.871475  0.131517  1.0
  C  C991  1  0.104662  0.628525  0.631517  1.0
  C  C992  1  0.895338  0.371475  0.631517  1.0
  C  C993  1  0.131917  0.128296  0.163702  1.0
  C  C994  1  0.868083  0.871704  0.163702  1.0
  C  C995  1  0.131917  0.628296  0.663702  1.0
  C  C996  1  0.868083  0.371704  0.663702  1.0
  C  C997  1  0.116098  0.161541  0.189141  1.0
  C  C998  1  0.883902  0.838459  0.189141  1.0
  C  C999  1  0.116098  0.661541  0.689141  1.0
  C  C1000  1  0.883902  0.338459  0.689141  1.0
  C  C1001  1  0.084140  0.200352  0.174619  1.0
  C  C1002  1  0.915860  0.799648  0.174619  1.0
  C  C1003  1  0.084140  0.700352  0.674619  1.0
  C  C1004  1  0.915860  0.299648  0.674619  1.0
  C  C1005  1  0.175111  0.093357  0.169197  1.0
  C  C1006  1  0.824889  0.906643  0.169197  1.0
  C  C1007  1  0.175111  0.593357  0.669197  1.0
  C  C1008  1  0.824889  0.406643  0.669197  1.0
  C  C1009  1  0.172334  0.063725  0.201407  1.0
  C  C1010  1  0.827666  0.936275  0.201407  1.0
  C  C1011  1  0.172334  0.563725  0.701407  1.0
  C  C1012  1  0.827666  0.436275  0.701407  1.0
  C  C1013  1  0.258303  0.027455  0.192043  1.0
  C  C1014  1  0.741697  0.972545  0.192043  1.0
  C  C1015  1  0.258303  0.527455  0.692043  1.0
  C  C1016  1  0.741697  0.472545  0.692043  1.0
  C  C1017  1  0.265700  0.053258  0.157624  1.0
  C  C1018  1  0.734300  0.946742  0.157624  1.0
  C  C1019  1  0.265700  0.553258  0.657624  1.0
  C  C1020  1  0.734300  0.446742  0.657624  1.0
  C  C1021  1  0.217329  0.085868  0.146575  1.0
  C  C1022  1  0.782671  0.914132  0.146575  1.0
  C  C1023  1  0.217329  0.585868  0.646575  1.0
  C  C1024  1  0.782671  0.414132  0.646575  1.0
  C  C1025  1  0.300992  0.001105  0.207142  1.0
  C  C1026  1  0.699008  0.998895  0.207142  1.0
  C  C1027  1  0.300992  0.501105  0.707142  1.0
  C  C1028  1  0.699008  0.498895  0.707142  1.0
  C  C1029  1  0.331369  0.948431  0.253029  1.0
  C  C1030  1  0.668631  0.051569  0.253029  1.0
  C  C1031  1  0.331369  0.448431  0.753029  1.0
  C  C1032  1  0.668631  0.551569  0.753029  1.0
  C  C1033  1  0.316632  0.897330  0.255234  1.0
  C  C1034  1  0.683368  0.102670  0.255234  1.0
  C  C1035  1  0.316632  0.397330  0.755234  1.0
  C  C1036  1  0.683368  0.602670  0.755234  1.0
  C  C1037  1  0.356232  0.866568  0.270600  1.0
  C  C1038  1  0.643768  0.133432  0.270600  1.0
  C  C1039  1  0.356232  0.366568  0.770600  1.0
  C  C1040  1  0.643768  0.633432  0.770600  1.0
  C  C1041  1  0.410569  0.886907  0.283761  1.0
  C  C1042  1  0.589431  0.113093  0.283761  1.0
  C  C1043  1  0.410569  0.386907  0.783761  1.0
  C  C1044  1  0.589431  0.613093  0.783761  1.0
  C  C1045  1  0.425307  0.938008  0.281556  1.0
  C  C1046  1  0.574693  0.061992  0.281556  1.0
  C  C1047  1  0.425307  0.438008  0.781556  1.0
  C  C1048  1  0.574693  0.561992  0.781556  1.0
  C  C1049  1  0.385708  0.968771  0.266190  1.0
  C  C1050  1  0.614292  0.031229  0.266190  1.0
  C  C1051  1  0.385708  0.468771  0.766190  1.0
  C  C1052  1  0.614292  0.531229  0.766190  1.0
  C  C1053  1  0.121552  0.245276  0.051927  1.0
  C  C1054  1  0.878448  0.754724  0.051927  1.0
  C  C1055  1  0.121552  0.745276  0.551927  1.0
  C  C1056  1  0.878448  0.254724  0.551927  1.0
  C  C1057  1  0.148864  0.266454  0.079488  1.0
  C  C1058  1  0.851136  0.733546  0.079488  1.0
  C  C1059  1  0.148864  0.766454  0.579488  1.0
  C  C1060  1  0.851136  0.233546  0.579488  1.0
  C  C1061  1  0.172761  0.312556  0.079863  1.0
  C  C1062  1  0.827239  0.687444  0.079863  1.0
  C  C1063  1  0.172761  0.812556  0.579863  1.0
  C  C1064  1  0.827239  0.187444  0.579863  1.0
  C  C1065  1  0.173311  0.342215  0.047870  1.0
  C  C1066  1  0.826689  0.657785  0.047870  1.0
  C  C1067  1  0.173311  0.842215  0.547870  1.0
  C  C1068  1  0.826689  0.157785  0.547870  1.0
  C  C1069  1  0.146887  0.320866  0.020810  1.0
  C  C1070  1  0.853113  0.679134  0.020810  1.0
  C  C1071  1  0.146887  0.820866  0.520810  1.0
  C  C1072  1  0.853113  0.179134  0.520810  1.0
  C  C1073  1  0.120737  0.271701  0.021389  1.0
  C  C1074  1  0.879263  0.728299  0.021389  1.0
  C  C1075  1  0.120737  0.771701  0.521389  1.0
  C  C1076  1  0.879263  0.228299  0.521389  1.0
  C  C1077  1  0.119608  0.159741  0.034853  1.0
  C  C1078  1  0.880392  0.840259  0.034853  1.0
  C  C1079  1  0.119608  0.659741  0.534853  1.0
  C  C1080  1  0.880392  0.340259  0.534853  1.0
  C  C1081  1  0.091798  0.111325  0.039123  1.0
  C  C1082  1  0.908202  0.888675  0.039123  1.0
  C  C1083  1  0.091798  0.611325  0.539123  1.0
  C  C1084  1  0.908202  0.388675  0.539123  1.0
  C  C1085  1  0.002748  0.062781  0.057901  1.0
  C  C1086  1  0.997252  0.937219  0.057901  1.0
  C  C1087  1  0.002748  0.562781  0.557901  1.0
  C  C1088  1  0.997252  0.437219  0.557901  1.0
  C  C1089  1  0.021018  0.021664  0.039999  1.0
  C  C1090  1  0.978982  0.978336  0.039999  1.0
  C  C1091  1  0.021018  0.521664  0.539999  1.0
  C  C1092  1  0.978982  0.478336  0.539999  1.0
  C  C1093  1  0.074678  0.025377  0.021659  1.0
  C  C1094  1  0.925322  0.974623  0.021659  1.0
  C  C1095  1  0.074678  0.525377  0.521659  1.0
  C  C1096  1  0.925322  0.474623  0.521659  1.0
  C  C1097  1  0.110069  0.070207  0.021221  1.0
  C  C1098  1  0.889931  0.929793  0.021221  1.0
  C  C1099  1  0.110069  0.570207  0.521221  1.0
  C  C1100  1  0.889931  0.429793  0.521221  1.0
  C  C1101  1  0.971229  0.985131  0.283859  1.0
  C  C1102  1  0.028771  0.014869  0.283859  1.0
  C  C1103  1  0.971229  0.485131  0.783859  1.0
  C  C1104  1  0.028771  0.514869  0.783859  1.0
  C  C1105  1  0.922066  0.006909  0.270487  1.0
  C  C1106  1  0.077934  0.993091  0.270487  1.0
  C  C1107  1  0.922066  0.506909  0.770487  1.0
  C  C1108  1  0.077934  0.493091  0.770487  1.0
  C  C1109  1  0.858559  0.937377  0.286692  1.0
  C  C1110  1  0.141441  0.062623  0.286692  1.0
  C  C1111  1  0.858559  0.437377  0.786692  1.0
  C  C1112  1  0.141441  0.562623  0.786692  1.0
  C  C1113  1  0.907785  0.916580  0.303429  1.0
  C  C1114  1  0.092215  0.083420  0.303429  1.0
  C  C1115  1  0.907785  0.416580  0.803429  1.0
  C  C1116  1  0.092215  0.583420  0.803429  1.0
  C  C1117  1  0.966455  0.938742  0.298422  1.0
  C  C1118  1  0.033545  0.061258  0.298422  1.0
  C  C1119  1  0.966455  0.438742  0.798422  1.0
  C  C1120  1  0.033545  0.561258  0.798422  1.0
  C  C1121  1  0.796908  0.915909  0.288594  1.0
  C  C1122  1  0.203092  0.084091  0.288594  1.0
  C  C1123  1  0.796908  0.415909  0.788594  1.0
  C  C1124  1  0.203092  0.584091  0.788594  1.0
  C  C1125  1  0.695367  0.922616  0.280403  1.0
  C  C1126  1  0.304633  0.077384  0.280403  1.0
  C  C1127  1  0.695367  0.422616  0.780403  1.0
  C  C1128  1  0.304633  0.577384  0.780403  1.0
  C  C1129  1  0.661640  0.928161  0.308177  1.0
  C  C1130  1  0.338360  0.071839  0.308177  1.0
  C  C1131  1  0.661640  0.428161  0.808177  1.0
  C  C1132  1  0.338360  0.571839  0.808177  1.0
  C  C1133  1  0.603803  0.905267  0.309471  1.0
  C  C1134  1  0.396197  0.094733  0.309471  1.0
  C  C1135  1  0.603803  0.405267  0.809471  1.0
  C  C1136  1  0.396197  0.594733  0.809471  1.0
  C  C1137  1  0.581491  0.880428  0.279517  1.0
  C  C1138  1  0.418509  0.119572  0.279517  1.0
  C  C1139  1  0.581491  0.380428  0.779517  1.0
  C  C1140  1  0.418509  0.619572  0.779517  1.0
  C  C1141  1  0.612618  0.875934  0.253230  1.0
  C  C1142  1  0.387382  0.124066  0.253230  1.0
  C  C1143  1  0.612618  0.375934  0.753230  1.0
  C  C1144  1  0.387382  0.624066  0.753230  1.0
  C  C1145  1  0.672310  0.896285  0.254158  1.0
  C  C1146  1  0.327690  0.103715  0.254158  1.0
  C  C1147  1  0.672310  0.396285  0.754158  1.0
  C  C1148  1  0.327690  0.603715  0.754158  1.0
  S  S1149  1  0.270085  0.724636  0.248038  1
  S  S1150  1  0.729915  0.275364  0.248038  1
  S  S1151  1  0.270085  0.224636  0.748038  1
  S  S1152  1  0.729915  0.775364  0.748038  1
  S  S1153  1  0.234962  0.777315  0.189833  1
  S  S1154  1  0.765038  0.222685  0.189833  1
  S  S1155  1  0.234962  0.277315  0.689833  1
  S  S1156  1  0.765038  0.722685  0.689833  1
  S  S1157  1  0.437036  0.719324  0.093617  1
  S  S1158  1  0.562964  0.280676  0.093617  1
  S  S1159  1  0.437036  0.219324  0.593617  1
  S  S1160  1  0.562964  0.780676  0.593617  1
  S  S1161  1  0.443681  0.630559  0.057930  1
  S  S1162  1  0.556319  0.369441  0.057930  1
  S  S1163  1  0.443681  0.130559  0.557930  1
  S  S1164  1  0.556319  0.869441  0.557930  1
  S  S1165  1  0.009062  0.000721  0.190898  1.0
  S  S1166  1  0.990938  0.999279  0.190898  1.0
  S  S1167  1  0.009062  0.500721  0.690898  1.0
  S  S1168  1  0.990938  0.499279  0.690898  1.0
  S  S1169  1  0.510847  0.497450  0.246827  1.0
  S  S1170  1  0.489153  0.502550  0.246827  1.0
  S  S1171  1  0.510847  0.997450  0.746827  1.0
  S  S1172  1  0.489153  0.002550  0.746827  1.0
  N  N1173  1  0.282644  0.775212  0.225174  1
  N  N1174  1  0.717356  0.224788  0.225174  1
  N  N1175  1  0.282644  0.275212  0.725174  1
  N  N1176  1  0.717356  0.724788  0.725174  1
  N  N1177  1  0.457736  0.687178  0.059159  1
  N  N1178  1  0.542264  0.312822  0.059159  1
  N  N1179  1  0.457736  0.187178  0.559159  1
  N  N1180  1  0.542264  0.812822  0.559159  1
  N  N1181  1  0.021502  0.715890  0.206935  1
  N  N1182  1  0.978498  0.284110  0.206935  1
  N  N1183  1  0.021502  0.215890  0.706935  1
  N  N1184  1  0.978498  0.784110  0.706935  1
  N  N1185  1  0.476615  0.790004  0.231029  1
  N  N1186  1  0.523385  0.209996  0.231029  1
  N  N1187  1  0.476615  0.290004  0.731029  1
  N  N1188  1  0.523385  0.709996  0.731029  1
  N  N1189  1  0.384697  0.504557  0.337717  1
  N  N1190  1  0.615303  0.495443  0.337717  1
  N  N1191  1  0.384697  0.004557  0.837717  1
  N  N1192  1  0.615303  0.995443  0.837717  1
  N  N1193  1  0.262530  0.345039  0.362733  1
  N  N1194  1  0.737470  0.654961  0.362733  1
  N  N1195  1  0.262530  0.845039  0.862733  1
  N  N1196  1  0.737470  0.154961  0.862733  1
  N  N1197  1  0.182915  0.574867  0.302504  1
  N  N1198  1  0.817085  0.425133  0.302504  1
  N  N1199  1  0.182915  0.074867  0.802504  1
  N  N1200  1  0.817085  0.925133  0.802504  1
  N  N1201  1  0.465893  0.679107  0.398543  1.0
  N  N1202  1  0.534107  0.320893  0.398543  1.0
  N  N1203  1  0.465893  0.179107  0.898543  1.0
  N  N1204  1  0.534107  0.820893  0.898543  1.0
  N  N1205  1  0.445584  0.647565  0.335681  1.0
  N  N1206  1  0.554416  0.352435  0.335681  1.0
  N  N1207  1  0.445584  0.147565  0.835681  1.0
  N  N1208  1  0.554416  0.852435  0.835681  1.0
  N  N1209  1  0.326454  0.564350  0.203736  1.0
  N  N1210  1  0.673546  0.435650  0.203736  1.0
  N  N1211  1  0.326454  0.064350  0.703736  1.0
  N  N1212  1  0.673546  0.935650  0.703736  1.0
  N  N1213  1  0.289596  0.549017  0.141741  1.0
  N  N1214  1  0.710404  0.450983  0.141741  1.0
  N  N1215  1  0.289596  0.049017  0.641741  1.0
  N  N1216  1  0.710404  0.950983  0.641741  1.0
  N  N1217  1  0.503811  0.736264  0.336916  1.0
  N  N1218  1  0.496189  0.263736  0.336916  1.0
  N  N1219  1  0.503811  0.236264  0.836916  1.0
  N  N1220  1  0.496189  0.763736  0.836916  1.0
  N  N1221  1  0.566961  0.665327  0.317788  1.0
  N  N1222  1  0.433039  0.334673  0.317788  1.0
  N  N1223  1  0.566961  0.165327  0.817788  1.0
  N  N1224  1  0.433039  0.834673  0.817788  1.0
  N  N1225  1  0.711009  0.536213  0.225913  1.0
  N  N1226  1  0.288991  0.463787  0.225913  1.0
  N  N1227  1  0.711009  0.036213  0.725913  1.0
  N  N1228  1  0.288991  0.963787  0.725913  1.0
  N  N1229  1  0.789483  0.479295  0.201733  1.0
  N  N1230  1  0.210517  0.520705  0.201733  1.0
  N  N1231  1  0.789483  0.979295  0.701733  1.0
  N  N1232  1  0.210517  0.020705  0.701733  1.0
  N  N1233  1  0.591110  0.695926  0.384972  1.0
  N  N1234  1  0.408890  0.304074  0.384972  1.0
  N  N1235  1  0.591110  0.195926  0.884972  1.0
  N  N1236  1  0.408890  0.804074  0.884972  1.0
  N  N1237  1  0.539534  0.609603  0.380727  1.0
  N  N1238  1  0.460466  0.390397  0.380727  1.0
  N  N1239  1  0.539534  0.109603  0.880727  1.0
  N  N1240  1  0.460466  0.890397  0.880727  1.0
  N  N1241  1  0.364669  0.481517  0.165482  1.0
  N  N1242  1  0.635331  0.518483  0.165482  1.0
  N  N1243  1  0.364669  0.981517  0.665482  1.0
  N  N1244  1  0.635331  0.018483  0.665482  1.0
  N  N1245  1  0.256483  0.442619  0.157387  1.0
  N  N1246  1  0.743517  0.557381  0.157387  1.0
  N  N1247  1  0.256483  0.942619  0.657387  1.0
  N  N1248  1  0.743517  0.057381  0.657387  1.0
  N  N1249  1  0.038138  0.107612  0.057463  1.0
  N  N1250  1  0.961862  0.892388  0.057463  1.0
  N  N1251  1  0.038138  0.607612  0.557463  1.0
  N  N1252  1  0.961862  0.392388  0.557463  1.0
  N  N1253  1  0.959332  0.179307  0.041144  1.0
  N  N1254  1  0.040668  0.820693  0.041144  1.0
  N  N1255  1  0.959332  0.679307  0.541144  1.0
  N  N1256  1  0.040668  0.320693  0.541144  1.0
  N  N1257  1  0.942602  0.142769  0.100886  1.0
  N  N1258  1  0.057398  0.857231  0.100886  1.0
  N  N1259  1  0.942602  0.642769  0.600886  1.0
  N  N1260  1  0.057398  0.357231  0.600886  1.0
  N  N1261  1  0.827599  0.066843  0.233482  1.0
  N  N1262  1  0.172401  0.933157  0.233482  1.0
  N  N1263  1  0.827599  0.566843  0.733482  1.0
  N  N1264  1  0.172401  0.433157  0.733482  1.0
  N  N1265  1  0.791815  0.050266  0.295525  1.0
  N  N1266  1  0.208185  0.949734  0.295525  1.0
  N  N1267  1  0.791815  0.550266  0.795525  1.0
  N  N1268  1  0.208185  0.449734  0.795525  1.0
  N  N1269  1  0.006646  0.237299  0.101814  1.0
  N  N1270  1  0.993354  0.762701  0.101814  1.0
  N  N1271  1  0.006646  0.737299  0.601814  1.0
  N  N1272  1  0.993354  0.262701  0.601814  1.0
  N  N1273  1  0.068556  0.166378  0.123001  1.0
  N  N1274  1  0.931444  0.833622  0.123001  1.0
  N  N1275  1  0.068556  0.666378  0.623001  1.0
  N  N1276  1  0.931444  0.333622  0.623001  1.0
  N  N1277  1  0.211960  0.032797  0.212248  1.0
  N  N1278  1  0.788040  0.967203  0.212248  1.0
  N  N1279  1  0.211960  0.532797  0.712248  1.0
  N  N1280  1  0.788040  0.467203  0.712248  1.0
  N  N1281  1  0.289006  0.977736  0.236154  1.0
  N  N1282  1  0.710994  0.022264  0.236154  1.0
  N  N1283  1  0.289006  0.477736  0.736154  1.0
  N  N1284  1  0.710994  0.522264  0.736154  1.0
  N  N1285  1  0.093363  0.195720  0.053568  1.0
  N  N1286  1  0.906637  0.804280  0.053568  1.0
  N  N1287  1  0.093363  0.695720  0.553568  1.0
  N  N1288  1  0.906637  0.304280  0.553568  1.0
  N  N1289  1  0.865885  0.980360  0.271008  1.0
  N  N1290  1  0.134115  0.019640  0.271008  1.0
  N  N1291  1  0.865885  0.480360  0.771008  1.0
  N  N1292  1  0.134115  0.519640  0.771008  1.0
  N  N1293  1  0.759399  0.941747  0.277521  1.0
  N  N1294  1  0.240601  0.058253  0.277521  1.0
  N  N1295  1  0.759399  0.441747  0.777521  1.0
  N  N1296  1  0.240601  0.558253  0.777521  1.0
  O  O1297  1  0.252197  0.683013  0.239846  1
  O  O1298  1  0.747803  0.316987  0.239846  1
  O  O1299  1  0.252197  0.183013  0.739846  1
  O  O1300  1  0.747803  0.816987  0.739846  1
  O  O1301  1  0.333739  0.728309  0.272549  1
  O  O1302  1  0.666261  0.271691  0.272549  1
  O  O1303  1  0.333739  0.228309  0.772549  1
  O  O1304  1  0.666261  0.771691  0.772549  1
  O  O1305  1  0.246599  0.832928  0.187059  1
  O  O1306  1  0.753401  0.167072  0.187059  1
  O  O1307  1  0.246599  0.332928  0.687059  1
  O  O1308  1  0.753401  0.667072  0.687059  1
  O  O1309  1  0.183491  0.753174  0.194673  1
  O  O1310  1  0.816509  0.246826  0.194673  1
  O  O1311  1  0.183491  0.253174  0.694673  1
  O  O1312  1  0.816509  0.746826  0.694673  1
  O  O1313  1  0.427691  0.770137  0.082019  1
  O  O1314  1  0.572309  0.229863  0.082019  1
  O  O1315  1  0.427691  0.270137  0.582019  1
  O  O1316  1  0.572309  0.729863  0.582019  1
  O  O1317  1  0.387984  0.694809  0.112461  1
  O  O1318  1  0.612016  0.305191  0.112461  1
  O  O1319  1  0.387984  0.194809  0.612461  1
  O  O1320  1  0.612016  0.805191  0.612461  1
  O  O1321  1  0.427671  0.605688  0.086746  1
  O  O1322  1  0.572329  0.394312  0.086746  1
  O  O1323  1  0.427671  0.105688  0.586746  1
  O  O1324  1  0.572329  0.894312  0.586746  1
  O  O1325  1  0.484664  0.613246  0.033592  1
  O  O1326  1  0.515336  0.386754  0.033592  1
  O  O1327  1  0.484664  0.113246  0.533592  1
  O  O1328  1  0.515336  0.886754  0.533592  1
  O  O1329  1  0.002531  0.047402  0.204247  1.0
  O  O1330  1  0.997469  0.952598  0.204247  1.0
  O  O1331  1  0.002531  0.547402  0.704247  1.0
  O  O1332  1  0.997469  0.452598  0.704247  1.0
  O  O1333  1  0.068500  0.988773  0.182069  1.0
  O  O1334  1  0.931500  0.011227  0.182069  1.0
  O  O1335  1  0.068500  0.488773  0.682069  1.0
  O  O1336  1  0.931500  0.511227  0.682069  1.0
  O  O1337  1  0.975010  0.958954  0.208906  1.0
  O  O1338  1  0.024990  0.041046  0.208906  1.0
  O  O1339  1  0.975010  0.458954  0.708906  1.0
  O  O1340  1  0.024990  0.541046  0.708906  1.0
  O  O1341  1  0.487832  0.454706  0.231231  1.0
  O  O1342  1  0.512168  0.545294  0.231231  1.0
  O  O1343  1  0.487832  0.954706  0.731231  1.0
  O  O1344  1  0.512168  0.045294  0.731231  1.0
  O  O1345  1  0.574701  0.495838  0.258270  1.0
  O  O1346  1  0.425299  0.504162  0.258270  1.0
  O  O1347  1  0.574701  0.995838  0.758270  1.0
  O  O1348  1  0.425299  0.004162  0.758270  1.0
  O  O1349  1  0.502309  0.544710  0.230401  1.0
  O  O1350  1  0.497691  0.455290  0.230401  1.0
  O  O1351  1  0.502309  0.044710  0.730401  1.0
  O  O1352  1  0.497691  0.955290  0.730401  1.0
  F  F1353  1  0.237502  0.795217  0.294505  1
  F  F1354  1  0.762498  0.204783  0.294505  1
  F  F1355  1  0.237502  0.295217  0.794505  1
  F  F1356  1  0.762498  0.704783  0.794505  1
  F  F1357  1  0.164077  0.739704  0.273273  1
  F  F1358  1  0.835923  0.260296  0.273273  1
  F  F1359  1  0.164077  0.239704  0.773273  1
  F  F1360  1  0.835923  0.760296  0.773273  1
  F  F1361  1  0.221821  0.716615  0.312281  1
  F  F1362  1  0.778179  0.283385  0.312281  1
  F  F1363  1  0.221821  0.216615  0.812281  1
  F  F1364  1  0.778179  0.783385  0.812281  1
  F  F1365  1  0.276936  0.702630  0.160495  1
  F  F1366  1  0.723064  0.297370  0.160495  1
  F  F1367  1  0.276936  0.202630  0.660495  1
  F  F1368  1  0.723064  0.797370  0.660495  1
  F  F1369  1  0.331833  0.763840  0.159151  1
  F  F1370  1  0.668167  0.236160  0.159151  1
  F  F1371  1  0.331833  0.263840  0.659151  1
  F  F1372  1  0.668167  0.736160  0.659151  1
  F  F1373  1  0.258866  0.769415  0.129112  1
  F  F1374  1  0.741134  0.230585  0.129112  1
  F  F1375  1  0.258866  0.269415  0.629112  1
  F  F1376  1  0.741134  0.730585  0.629112  1
  F  F1377  1  0.546946  0.746020  0.101539  1
  F  F1378  1  0.453054  0.253980  0.101539  1
  F  F1379  1  0.546946  0.246020  0.601539  1
  F  F1380  1  0.453054  0.753980  0.601539  1
  F  F1381  1  0.514277  0.678954  0.136000  1
  F  F1382  1  0.485723  0.321046  0.136000  1
  F  F1383  1  0.514277  0.178954  0.636000  1
  F  F1384  1  0.485723  0.821046  0.636000  1
  F  F1385  1  0.486903  0.753300  0.145773  1
  F  F1386  1  0.513097  0.246700  0.145773  1
  F  F1387  1  0.486903  0.253300  0.645773  1
  F  F1388  1  0.513097  0.746700  0.645773  1
  F  F1389  1  0.385912  0.648333  0.002379  1
  F  F1390  1  0.614088  0.351667  0.002379  1
  F  F1391  1  0.385912  0.148333  0.502379  1
  F  F1392  1  0.614088  0.851667  0.502379  1
  F  F1393  1  0.362711  0.583764  0.021787  1
  F  F1394  1  0.637289  0.416236  0.021787  1
  F  F1395  1  0.362711  0.083764  0.521787  1
  F  F1396  1  0.637289  0.916236  0.521787  1
  F  F1397  1  0.334354  0.645389  0.051343  1
  F  F1398  1  0.665646  0.354611  0.051343  1
  F  F1399  1  0.334354  0.145389  0.551343  1
  F  F1400  1  0.665646  0.854611  0.551343  1
  F  F1401  1  0.973018  0.956043  0.132389  1.0
  F  F1402  1  0.026982  0.043957  0.132389  1.0
  F  F1403  1  0.973018  0.456043  0.632389  1.0
  F  F1404  1  0.026982  0.543957  0.632389  1.0
  F  F1405  1  0.914100  0.007250  0.152330  1.0
  F  F1406  1  0.085900  0.992750  0.152330  1.0
  F  F1407  1  0.914100  0.507250  0.652330  1.0
  F  F1408  1  0.085900  0.492750  0.652330  1.0
  F  F1409  1  0.996613  0.034365  0.128706  1.0
  F  F1410  1  0.003387  0.965635  0.128706  1.0
  F  F1411  1  0.996613  0.534365  0.628706  1.0
  F  F1412  1  0.003387  0.465635  0.628706  1.0
  F  F1413  1  0.492714  0.541576  0.306747  1.0
  F  F1414  1  0.507286  0.458424  0.306747  1.0
  F  F1415  1  0.492714  0.041576  0.806747  1.0
  F  F1416  1  0.507286  0.958424  0.806747  1.0
  F  F1417  1  0.415679  0.505948  0.282529  1.0
  F  F1418  1  0.584321  0.494052  0.282529  1.0
  F  F1419  1  0.415679  0.005948  0.782529  1.0
  F  F1420  1  0.584321  0.994052  0.782529  1.0
  F  F1421  1  0.520790  0.537936  0.307018  1.0
  F  F1422  1  0.479210  0.462064  0.307018  1.0
  F  F1423  1  0.520790  0.037936  0.807018  1.0
  F  F1424  1  0.479210  0.962064  0.807018  1.0
