
#######################################################################
#
#                 Cambridge Crystallographic Data Centre
#                                CCDC 
#
#######################################################################
#
# If this CIF has been generated from an entry in the Cambridge 
# Structural Database, then it will include bibliographic, chemical, 
# crystal, experimental, refinement or atomic coordinate data resulting 
# from the CCDC's data processing and validation procedures.
#
#######################################################################

data_UNAQIK
_chemical_formula_moiety         
'C144 H108 Fe4 N24 8+,7(C2 F6 N1 O4 S2 1-),C1 F3 O3 S1 1-,5(C2 H3 N1)'
_chemical_name_systematic        
"hexakis(\m~2~-6,6'-bis(Phenyliminomethyl)-3,3'-bipyridine)-tetra-iron(ii) heptakis(bis(trifluoromethanesulfonyl)imide) trifluoromethanesulfonate acetonitrile solvate"
_symmetry_cell_setting           monoclinic
_symmetry_space_group_name_H-M   'C 2'
_symmetry_Int_Tables_number      5
_space_group_name_Hall           'C 2y'
loop_
_symmetry_equiv_pos_site_id
_symmetry_equiv_pos_as_xyz
1 x,y,z
2 -x,y,-z
3 1/2+x,1/2+y,z
4 1/2-x,1/2+y,-z
_cell_length_a                   26.876(5)
_cell_length_b                   38.443(8)
_cell_length_c                   22.391(5)
_cell_angle_alpha                90
_cell_angle_beta                 94.44(3)
_cell_angle_gamma                90
_cell_volume                     23064.8
_exptl_crystal_colour            purple
_exptl_crystal_description       plate
_cell_formula_units_Z            4
loop_
_atom_site_label
_atom_site_type_symbol
_atom_site_fract_x
_atom_site_fract_y
_atom_site_fract_z
C73 C 0.698214(7) 0.431562(5) 0.478084(10)
C74 C 0.744849(8) 0.445199(6) 0.468594(14)
H55 H 0.7684 0.4315 0.4494
C75 C 0.757089(11) 0.478821(7) 0.487249(18)
H56 H 0.7890 0.4881 0.4808
C76 C 0.722694(14) 0.498807(6) 0.515394(17)
H57 H 0.7311 0.5218 0.5281
C77 C 0.676059(13) 0.485171(6) 0.524884(15)
H58 H 0.6526 0.4988 0.5441
C78 C 0.663818(9) 0.451548(6) 0.506230(13)
H59 H 0.6319 0.4422 0.5127
C79 C 0.660647(9) 0.393652(8) 0.411887(14)
H60 H 0.6561 0.4122 0.3840
C80 C 0.647193(9) 0.358239(8) 0.396092(12)
C81 C 0.637606(8) 0.302244(7) 0.436531(12)
H61 H 0.6382 0.2872 0.4703
C82 C 0.626332(8) 0.288142(8) 0.379990(10)
C83 C 0.620354(12) 0.309260(9) 0.330818(17)
H62 H 0.6080 0.3004 0.2929
C84 C 0.633901(16) 0.346766(10) 0.338717(17)
H63 H 0.6334 0.3621 0.3054
C85 C 0.617624(10) 0.249227(8) 0.370330(11)
C86 C 0.571706(10) 0.238217(8) 0.339472(11)
H64 H 0.5465 0.2548 0.3281
C87 C 0.604467(10) 0.181026(8) 0.343749(11)
C88 C 0.646244(10) 0.191569(8) 0.379140(11)
H65 H 0.6712 0.1755 0.3933
C89 C 0.649930(10) 0.225540(8) 0.392628(11)
H66 H 0.6770 0.2330 0.4194
C90 C 0.589943(12) 0.145563(10) 0.323138(14)
H67 H 0.6103 0.1261 0.3344
C91 C 0.538530(5) 0.108025(4) 0.267890(6)
C92 C 0.506697(6) 0.087211(5) 0.298482(8)
H68 H 0.4941 0.0954 0.3344
C93 C 0.493285(8) 0.054436(5) 0.276508(11)
H69 H 0.4715 0.0402 0.2974
C94 C 0.511706(9) 0.042475(5) 0.223941(11)
H70 H 0.5025 0.0201 0.2089
C95 C 0.543540(10) 0.063289(5) 0.193348(9)
H71 H 0.5561 0.0551 0.1574
C96 C 0.556952(7) 0.096064(5) 0.215322(7)
H72 H 0.5787 0.1103 0.1944
C97 C 0.774262(6) 0.349078(5) 0.467578(8)
C98 C 0.812672(7) 0.371392(6) 0.487678(11)
H73 H 0.8169 0.3776 0.5288
C99 C 0.844877(9) 0.384582(8) 0.447591(14)
H74 H 0.8711 0.3998 0.4613
C100 C 0.838671(10) 0.375459(10) 0.387405(13)
H75 H 0.8607 0.3845 0.3600
C101 C 0.800261(10) 0.353145(9) 0.367305(9)
H76 H 0.7960 0.3469 0.3262
C102 C 0.768057(8) 0.339955(7) 0.407391(9)
H77 H 0.7418 0.3247 0.3937
C103 C 0.738198(9) 0.306246(8) 0.519272(12)
H78 H 0.7644 0.2919 0.5072
C104 C 0.701478(9) 0.291796(8) 0.555240(12)
C105 C 0.633169(9) 0.309892(8) 0.605537(12)
H79 H 0.6119 0.3277 0.6183
C106 C 0.628302(9) 0.275622(8) 0.629644(12)
C107 C 0.660890(9) 0.251866(8) 0.617077(12)
H80 H 0.6587 0.2303 0.6375
C108 C 0.699956(9) 0.254248(8) 0.575840(12)
H81 H 0.7206 0.2358 0.5640
C109 C 0.588967(10) 0.266212(8) 0.676286(11)
C110 C 0.564700(9) 0.235849(8) 0.669586(11)
H82 H 0.5682 0.2218 0.6353
C111 C 0.528711(10) 0.248031(8) 0.758580(11)
C112 C 0.550441(9) 0.278323(8) 0.763421(11)
H83 H 0.5433 0.2937 0.7949
C113 C 0.582464(10) 0.287653(9) 0.724499(10)
H84 H 0.6007 0.3088 0.7296
C114 C 0.493860(9) 0.232893(7) 0.802130(10)
H85 H 0.4837 0.2454 0.8358
C115 C 0.447575(10) 0.187208(10) 0.830357(11)
C116 C 0.398213(10) 0.180664(10) 0.817349(11)
H86 H 0.3822 0.1888 0.7807
C117 C 0.371380(10) 0.162587(10) 0.856165(11)
H87 H 0.3370 0.1581 0.8461
C118 C 0.393533(10) 0.150824(10) 0.909522(11)
H88 H 0.3746 0.1376 0.9357
C119 C 0.444212(10) 0.158131(10) 0.925972(12)
H89 H 0.4593 0.1504 0.9635
C120 C 0.471113(10) 0.176148(10) 0.887923(11)
H90 H 0.5051 0.1816 0.8987
C121 C 0.743699(11) 0.385125(12) 0.621669(16)
C122 C 0.765256(12) 0.352386(12) 0.645185(16)
H91 H 0.7480 0.3309 0.6403
C123 C 0.816532(12) 0.354899(12) 0.677547(16)
H92 H 0.8316 0.3348 0.6958
C124 C 0.837542(12) 0.381123(12) 0.680237(16)
H93 H 0.8686 0.3814 0.7036
C125 C 0.820743(14) 0.415696(13) 0.64999(3)
H94 H 0.8426 0.4349 0.6465
C126 C 0.773463(14) 0.416267(11) 0.62940(2)
H95 H 0.7584 0.4380 0.6192
C127 C 0.664826(11) 0.399335(8) 0.618356(15)
H96 H 0.6722 0.4095 0.6567
C128 C 0.613126(11) 0.399769(9) 0.586537(15)
C129 C 0.567090(11) 0.381577(9) 0.505710(16)
H97 H 0.5648 0.3686 0.4695
C130 C 0.526151(11) 0.400158(9) 0.519905(15)
C131 C 0.526962(11) 0.416868(9) 0.572754(15)
H98 H 0.4975 0.4263 0.5872
C132 C 0.571602(11) 0.419569(9) 0.604084(16)
H99 H 0.5755 0.4346 0.6378
C133 C 0.422604(5) 0.157027(5) 0.196439(6)
C134 C 0.392671(7) 0.183323(6) 0.170589(8)
H100 H 0.3851 0.2032 0.1935
C135 C 0.373800(9) 0.180593(8) 0.111201(8)
H101 H 0.3533 0.1986 0.0935
C136 C 0.384863(10) 0.151566(9) 0.077662(7)
H102 H 0.3720 0.1497 0.0371
C137 C 0.414797(10) 0.125269(7) 0.103511(8)
H103 H 0.4224 0.1054 0.0806
C138 C 0.433667(8) 0.127999(6) 0.162900(8)
H104 H 0.4541 0.1100 0.1806
C139 C 0.415309(11) 0.147942(9) 0.298298(11)
H105 H 0.3825 0.1393 0.2888
C140 C 0.434922(11) 0.150556(9) 0.359364(12)
C141 C 0.504594(11) 0.166253(9) 0.417920(12)
H106 H 0.5372 0.1760 0.4221
C142 C 0.484133(11) 0.153515(9) 0.470183(11)
C143 C 0.435346(10) 0.141183(9) 0.464760(12)
H107 H 0.4204 0.1324 0.4988
C144 C 0.409020(11) 0.141806(9) 0.409800(11)
H108 H 0.3744 0.1365 0.4058
N13 N 0.679107(7) 0.398543(6) 0.465893(9)
N14 N 0.647565(7) 0.335681(6) 0.445584(9)
N15 N 0.564350(8) 0.203736(6) 0.326454(9)
N16 N 0.549017(9) 0.141741(8) 0.289596(12)
N17 N 0.736264(8) 0.336916(6) 0.503811(9)
N18 N 0.665327(7) 0.317788(7) 0.566961(10)
N19 N 0.536213(8) 0.225913(7) 0.711009(9)
N20 N 0.479295(7) 0.201733(6) 0.789483(8)
N21 N 0.695926(7) 0.384972(6) 0.591110(11)
N22 N 0.609603(7) 0.380727(6) 0.539534(10)
N23 N 0.481517(7) 0.165482(6) 0.364669(8)
N24 N 0.442619(7) 0.157387(6) 0.256483(9)
Fe3 Fe 0.672348(1) 0.359422(1) 0.519696(2)
Fe4 Fe 0.504633(1) 0.182955(1) 0.288525(1)
C73A C 0.301786(7) 0.431562(5) 0.521916(10)
C74A C 0.255151(8) 0.445199(6) 0.531406(14)
H55A H 0.2316 0.4315 0.5506
C75A C 0.242911(11) 0.478821(7) 0.512751(18)
H56A H 0.2110 0.4881 0.5192
C76A C 0.277306(14) 0.498807(6) 0.484606(17)
H57A H 0.2689 0.5218 0.4719
C77A C 0.323941(13) 0.485171(6) 0.475116(15)
H58A H 0.3474 0.4988 0.4559
C78A C 0.336182(9) 0.451548(6) 0.493770(13)
H59A H 0.3681 0.4422 0.4873
C79A C 0.339353(9) 0.393652(8) 0.588113(14)
H60A H 0.3439 0.4122 0.6160
C80A C 0.352807(9) 0.358239(8) 0.603908(12)
C81A C 0.362394(8) 0.302244(7) 0.563469(12)
H61A H 0.3618 0.2872 0.5297
C82A C 0.373668(8) 0.288142(8) 0.620010(10)
C83A C 0.379646(12) 0.309260(9) 0.669182(17)
H62A H 0.3920 0.3004 0.7071
C84A C 0.366099(16) 0.346766(10) 0.661283(17)
H63A H 0.3666 0.3621 0.6946
C85A C 0.382376(10) 0.249227(8) 0.629670(11)
C86A C 0.428294(10) 0.238217(8) 0.660528(11)
H64A H 0.4535 0.2548 0.6719
C87A C 0.395533(10) 0.181026(8) 0.656251(11)
C88A C 0.353756(10) 0.191569(8) 0.620860(11)
H65A H 0.3288 0.1755 0.6067
C89A C 0.350070(10) 0.225540(8) 0.607372(11)
H66A H 0.3230 0.2330 0.5806
C90A C 0.410057(12) 0.145563(10) 0.676862(14)
H67A H 0.3897 0.1261 0.6656
C91A C 0.461470(5) 0.108025(4) 0.732110(6)
C92A C 0.493303(6) 0.087211(5) 0.701518(8)
H68A H 0.5059 0.0954 0.6656
C93A C 0.506715(8) 0.054436(5) 0.723492(11)
H69A H 0.5285 0.0402 0.7026
C94A C 0.488294(9) 0.042475(5) 0.776059(11)
H70A H 0.4975 0.0201 0.7911
C95A C 0.456460(10) 0.063289(5) 0.806652(9)
H71A H 0.4439 0.0551 0.8426
C96A C 0.443048(7) 0.096064(5) 0.784678(7)
H72A H 0.4213 0.1103 0.8056
C97A C 0.225738(6) 0.349078(5) 0.532422(8)
C98A C 0.187328(7) 0.371392(6) 0.512322(11)
H73A H 0.1831 0.3776 0.4712
C99A C 0.155123(9) 0.384582(8) 0.552409(14)
H74A H 0.1289 0.3998 0.5387
C100A C 0.161329(10) 0.375459(10) 0.612595(13)
H75A H 0.1393 0.3845 0.6400
C101A C 0.199739(10) 0.353145(9) 0.632695(9)
H76A H 0.2040 0.3469 0.6738
C102A C 0.231943(8) 0.339955(7) 0.592609(9)
H77A H 0.2582 0.3247 0.6063
C103A C 0.261802(9) 0.306246(8) 0.480728(12)
H78A H 0.2356 0.2919 0.4928
C104A C 0.298522(9) 0.291796(8) 0.444760(12)
C105A C 0.366831(9) 0.309892(8) 0.394463(12)
H79A H 0.3881 0.3277 0.3817
C106A C 0.371698(9) 0.275622(8) 0.370356(12)
C107A C 0.339110(9) 0.251866(8) 0.382923(12)
H80A H 0.3413 0.2303 0.3625
C108A C 0.300044(9) 0.254248(8) 0.424160(12)
H81A H 0.2794 0.2358 0.4360
C109A C 0.411033(10) 0.266212(8) 0.323714(11)
C110A C 0.435300(9) 0.235849(8) 0.330414(11)
H82A H 0.4318 0.2218 0.3647
C111A C 0.471289(10) 0.248031(8) 0.241420(11)
C112A C 0.449559(9) 0.278323(8) 0.236579(11)
H83A H 0.4567 0.2937 0.2051
C113A C 0.417536(10) 0.287653(9) 0.275501(10)
H84A H 0.3993 0.3088 0.2704
C114A C 0.506140(9) 0.232893(7) 0.197870(10)
H85A H 0.5163 0.2454 0.1642
C115A C 0.552425(10) 0.187208(10) 0.169643(11)
C116A C 0.601787(10) 0.180664(10) 0.182651(11)
H86A H 0.6178 0.1888 0.2193
C117A C 0.628620(10) 0.162587(10) 0.143835(11)
H87A H 0.6630 0.1581 0.1539
C118A C 0.606467(10) 0.150824(10) 0.090478(11)
H88A H 0.6254 0.1376 0.0643
C119A C 0.555788(10) 0.158131(10) 0.074028(12)
H89A H 0.5407 0.1504 0.0365
C120A C 0.528887(10) 0.176148(10) 0.112077(11)
H90A H 0.4949 0.1816 0.1013
C121A C 0.256301(11) 0.385125(12) 0.378331(16)
C122A C 0.234744(12) 0.352386(12) 0.354815(16)
H91A H 0.2520 0.3309 0.3597
C123A C 0.183468(12) 0.354899(12) 0.322453(16)
H92A H 0.1684 0.3348 0.3042
C124A C 0.162458(12) 0.381123(12) 0.319763(16)
H93A H 0.1314 0.3814 0.2964
C125A C 0.179257(14) 0.415696(13) 0.35001(3)
H94A H 0.1574 0.4349 0.3535
C126A C 0.226537(14) 0.416267(11) 0.37060(2)
H95A H 0.2416 0.4380 0.3808
C127A C 0.335174(11) 0.399335(8) 0.381644(15)
H96A H 0.3278 0.4095 0.3433
C128A C 0.386874(11) 0.399769(9) 0.413463(15)
C129A C 0.432910(11) 0.381577(9) 0.494290(16)
H97A H 0.4352 0.3686 0.5305
C130A C 0.473849(11) 0.400158(9) 0.480095(15)
C131A C 0.473038(11) 0.416868(9) 0.427246(15)
H98A H 0.5025 0.4263 0.4128
C132A C 0.428398(11) 0.419569(9) 0.395916(16)
H99A H 0.4245 0.4346 0.3622
C133A C 0.577396(5) 0.157027(5) 0.803561(6)
C134A C 0.607329(7) 0.183323(6) 0.829411(8)
H100A H 0.6149 0.2032 0.8065
C135A C 0.626200(9) 0.180593(8) 0.888799(8)
H101A H 0.6467 0.1986 0.9065
C136A C 0.615137(10) 0.151566(9) 0.922338(7)
H102A H 0.6280 0.1497 0.9629
C137A C 0.585203(10) 0.125269(7) 0.896489(8)
H103A H 0.5776 0.1054 0.9194
C138A C 0.566333(8) 0.127999(6) 0.837100(8)
H104A H 0.5459 0.1100 0.8194
C139A C 0.584691(11) 0.147942(9) 0.701702(11)
H105A H 0.6175 0.1393 0.7112
C140A C 0.565078(11) 0.150556(9) 0.640636(12)
C141A C 0.495406(11) 0.166253(9) 0.582080(12)
H106A H 0.4628 0.1760 0.5779
C142A C 0.515867(11) 0.153515(9) 0.529817(11)
C143A C 0.564654(10) 0.141183(9) 0.535240(12)
H107A H 0.5796 0.1324 0.5012
C144A C 0.590980(11) 0.141806(9) 0.590200(11)
H108A H 0.6256 0.1365 0.5942
N13A N 0.320893(7) 0.398543(6) 0.534107(9)
N14A N 0.352435(7) 0.335681(6) 0.554416(9)
N15A N 0.435650(8) 0.203736(6) 0.673546(9)
N16A N 0.450983(9) 0.141741(8) 0.710404(12)
N17A N 0.263736(8) 0.336916(6) 0.496189(9)
N18A N 0.334673(7) 0.317788(7) 0.433039(10)
N19A N 0.463787(8) 0.225913(7) 0.288991(9)
N20A N 0.520705(7) 0.201733(6) 0.210517(8)
N21A N 0.304074(7) 0.384972(6) 0.408890(11)
N22A N 0.390397(7) 0.380727(6) 0.460466(10)
N23A N 0.518483(7) 0.165482(6) 0.635331(8)
N24A N 0.557381(7) 0.157387(6) 0.743517(9)
Fe3A Fe 0.327652(1) 0.359422(1) 0.480304(2)
Fe4A Fe 0.495367(1) 0.182955(1) 0.711475(1)
C145 C 0.74875(2) 0.28364(2) 0.22618(3)
C146 C 0.75416(2) 0.15682(2) 0.27218(3)
N26 N 0.775212(11) 0.225174(8) 0.282644(14)
O1 O 0.683013(10) 0.239846(9) 0.252197(13)
O2 O 0.728309(9) 0.272549(7) 0.333739(12)
O3 O 0.832928(10) 0.187059(10) 0.246599(13)
O4 O 0.753174(10) 0.194673(9) 0.183491(13)
F1 F 0.795217(13) 0.294505(11) 0.237502(15)
F2 F 0.739704(13) 0.273273(11) 0.164077(15)
F3 F 0.716615(12) 0.312281(11) 0.221821(15)
F4 F 0.702630(13) 0.160495(11) 0.276936(15)
F5 F 0.763840(13) 0.159151(11) 0.331833(15)
F6 F 0.769415(13) 0.129112(11) 0.258866(15)
S3 S 0.724636(4) 0.248038(4) 0.270085(6)
S4 S 0.777315(4) 0.189833(4) 0.234962(6)
C147 C 0.72102(2) 0.11862(2) 0.50203(3)
C148 C 0.62617(2) 0.03568(2) 0.37294(3)
N25 N 0.687178(14) 0.059159(11) 0.457736(17)
O5 O 0.770137(11) 0.082019(9) 0.427691(13)
O6 O 0.694809(11) 0.112461(9) 0.387984(13)
O7 O 0.605688(11) 0.086746(9) 0.427671(13)
O8 O 0.613246(12) 0.033592(9) 0.484664(14)
F7 F 0.746020(13) 0.101539(11) 0.546946(15)
F8 F 0.678954(13) 0.136000(11) 0.514277(14)
F9 F 0.753300(13) 0.145773(11) 0.486903(15)
F10 F 0.648333(13) 0.002379(11) 0.385912(15)
F11 F 0.583764(13) 0.021787(11) 0.362711(15)
F12 F 0.645389(13) 0.051343(11) 0.334354(15)
S5 S 0.719324(5) 0.093617(4) 0.437036(6)
S6 S 0.630559(5) 0.057930(4) 0.443681(6)
C149 C 0.687497(15) 0.223581(9) 0.045693(14)
C150 C 0.65344(2) 0.24786(2) 0.07704(2)
H109 H 0.6719 0.2688 0.0900
H110 H 0.6415 0.2361 0.1120
H111 H 0.6249 0.2543 0.0493
N27 N 0.715890(16) 0.206935(10) 0.021502(16)
C151 C 0.813651(14) 0.214676(15) 0.44964(2)
C152 C 0.850109(19) 0.196404(10) 0.419798(19)
H112 H 0.8657 0.1787 0.4466
H113 H 0.8757 0.2127 0.4081
H114 H 0.8343 0.1851 0.3839
N28 N 0.790004(13) 0.231029(12) 0.476615(18)
C153 C 0.50101(2) 0.356072(16) 0.32389(2)
N29 N 0.504557(17) 0.337717(13) 0.384697(17)
C154 C 0.49410(2) 0.365927(16) 0.26562(2)
H115 H 0.4926 0.3452 0.2400
H116 H 0.5219 0.3807 0.2555
H117 H 0.4628 0.3789 0.2593
C155 C 0.312853(15) 0.368164(10) 0.24175(2)
C156 C 0.26503(2) 0.37257(3) 0.20598(3)
H118 H 0.2418 0.3544 0.2166
H119 H 0.2705 0.3708 0.1633
H120 H 0.2510 0.3954 0.2142
N30 N 0.345039(18) 0.362733(12) 0.26253(3)
C157 C 0.595758(16) 0.315609(10) 0.157327(13)
C158 C 0.616370(16) 0.341866(10) 0.116833(13)
H121 H 0.5980 0.3408 0.0774
H122 H 0.6517 0.3369 0.1128
H123 H 0.6130 0.3652 0.1338
N31 N 0.574867(15) 0.302504(15) 0.182915(13)
S1 S 1.000721(6) 0.190898(3) 0.009062(6)
O9 O 1.047402(6) 0.204247(5) 0.002531(9)
C159 C 0.999223(9) 0.149157(4) -0.028730(9)
F13 F 0.956043(11) 0.132389(5) -0.026982(12)
F14 F 1.007250(12) 0.152330(6) -0.085900(8)
F15 F 1.034365(11) 0.128706(4) -0.003387(12)
O10 O 0.988773(8) 0.182069(5) 0.068500(7)
O11 O 0.958954(7) 0.208906(5) -0.024990(9)
S1A S 0.999279(6) 0.190898(3) -0.009062(6)
O9A O 0.952598(6) 0.204247(5) -0.002531(9)
C159A C 1.000777(9) 0.149157(4) 0.028730(9)
F13A F 1.043957(11) 0.132389(5) 0.026982(12)
F14A F 0.992750(12) 0.152330(6) 0.085900(8)
F15A F 0.965635(11) 0.128706(4) 0.003387(12)
O10A O 1.011227(8) 0.182069(5) -0.068500(7)
O11A O 1.041046(7) 0.208906(5) 0.024990(9)
S2 S 0.497450(6) 0.246827(3) 0.510847(6)
C160 C 0.502168(9) 0.287747(4) 0.473429(8)
O12 O 0.454706(6) 0.231231(5) 0.487832(8)
F16 F 0.541576(11) 0.306747(5) 0.492714(11)
F17 F 0.505948(11) 0.282529(5) 0.415679(8)
F18 F 0.537936(11) 0.307018(4) 0.520790(10)
O13 O 0.495838(8) 0.258270(4) 0.574701(6)
O14 O 0.544710(6) 0.230401(5) 0.502309(8)
S2A S 0.502550(6) 0.246827(3) 0.489153(6)
C160A C 0.497832(9) 0.287747(4) 0.526571(8)
O12A O 0.545294(6) 0.231231(5) 0.512168(8)
F16A F 0.458424(11) 0.306747(5) 0.507286(11)
F17A F 0.494052(11) 0.282529(5) 0.584321(8)
F18A F 0.462064(11) 0.307018(4) 0.479210(10)
O13A O 0.504162(8) 0.258270(4) 0.425299(6)
O14A O 0.455290(6) 0.230401(5) 0.497691(8)
C1 C 1.195572(9) 0.005299(5) -0.021310(9)
C2 C 1.245087(9) -0.000659(7) -0.032140(13)
H1 H 1.2639 0.0171 -0.0496
C3 C 1.267115(11) -0.032554(8) -0.017439(18)
H2 H 1.3010 -0.0366 -0.0248
C4 C 1.239628(15) -0.058491(7) 0.008092(18)
H3 H 1.2547 -0.0803 0.0181
C5 C 1.190113(15) -0.052534(6) 0.018923(15)
H4 H 1.1713 -0.0703 0.0364
C6 C 1.168085(11) -0.020639(6) 0.004222(12)
H5 H 1.1342 -0.0166 0.0116
C7 C 1.165505(10) 0.047137(8) -0.091499(11)
H6 H 1.1681 0.0302 -0.1221
C8 C 1.144155(9) 0.082069(8) -0.104951(10)
C9 C 1.131313(9) 0.135313(8) -0.064837(11)
H7 H 1.1307 0.1497 -0.0304
C10 C 1.120614(9) 0.149977(8) -0.120724(11)
C11 C 1.123178(9) 0.126799(8) -0.169248(11)
H8 H 1.1186 0.1358 -0.2088
C12 C 1.131433(9) 0.094163(8) -0.162552(11)
H9 H 1.1289 0.0788 -0.1958
C13 C 1.115002(9) 0.187120(8) -0.126872(11)
C14 C 1.074443(9) 0.201636(8) -0.161534(10)
H10 H 1.0502 0.1858 -0.1786
C15 C 1.098918(9) 0.256038(8) -0.154319(11)
C16 C 1.142126(9) 0.245759(8) -0.119418(11)
H11 H 1.1652 0.2630 -0.1044
C17 C 1.151713(9) 0.211093(8) -0.106520(11)
H12 H 1.1818 0.2039 -0.0849
C18 C 1.092228(9) 0.290840(8) -0.178277(10)
H13 H 1.1167 0.3086 -0.1723
C19 C 1.035314(11) 0.328349(8) -0.229691(14)
C20 C 1.004503(14) 0.350783(10) -0.202755(16)
H14 H 0.9920 0.3441 -0.1659
C21 C 0.990332(14) 0.383888(11) -0.22769(2)
H15 H 0.9731 0.4009 -0.2065
C22 C 1.003748(12) 0.388870(13) -0.284554(18)
H16 H 0.9892 0.4083 -0.3056
C23 C 1.032791(13) 0.370848(11) -0.311829(17)
H17 H 1.0435 0.3788 -0.3490
C24 C 1.049452(11) 0.339933(11) -0.289036(15)
H18 H 1.0703 0.3257 -0.3112
C25 C 1.274518(5) 0.088220(4) -0.028972(7)
C26 C 1.271443(7) 0.088685(6) -0.091222(7)
H19 H 1.2428 0.0982 -0.1129
C27 C 1.310212(9) 0.075213(9) -0.121772(9)
H20 H 1.3081 0.0755 -0.1643
C28 C 1.352057(9) 0.061275(9) -0.090072(13)
H21 H 1.3786 0.0521 -0.1110
C29 C 1.355132(7) 0.060809(8) -0.027822(13)
H22 H 1.3837 0.0513 -0.0062
C30 C 1.316364(6) 0.074281(6) 0.002729(9)
H23 H 1.3185 0.0740 0.0453
C31 C 1.242441(10) 0.133953(8) 0.027472(12)
H24 H 1.2705 0.1482 0.0210
C32 C 1.202018(10) 0.145366(9) 0.060539(12)
C33 C 1.128525(10) 0.131517(8) 0.104662(12)
H25 H 1.1028 0.1152 0.1106
C34 C 1.128296(10) 0.163702(9) 0.131917(12)
C35 C 1.161541(10) 0.189141(9) 0.116098(12)
H26 H 1.1587 0.2131 0.1254
C36 C 1.200352(10) 0.174619(8) 0.084140(12)
H27 H 1.2286 0.1891 0.0803
C37 C 1.093357(10) 0.169197(8) 0.175111(11)
C38 C 1.063725(10) 0.201407(8) 0.172334(11)
H28 H 1.0670 0.2160 0.1386
C39 C 1.027455(11) 0.192043(9) 0.258303(12)
C40 C 1.053258(14) 0.157624(12) 0.265700(15)
H29 H 1.0492 0.1433 0.2996
C41 C 1.085868(13) 0.146575(10) 0.217329(15)
H30 H 1.1005 0.1241 0.2174
C42 C 1.001105(11) 0.207142(9) 0.300992(13)
H31 H 0.9999 0.1965 0.3392
C43 C 0.948431(5) 0.253029(4) 0.331369(5)
C44 C 0.897330(5) 0.255234(5) 0.316632(7)
H32 H 0.8834 0.2462 0.2795
C45 C 0.866568(6) 0.270600(7) 0.356232(9)
H33 H 0.8316 0.2721 0.3462
C46 C 0.886907(8) 0.283761(7) 0.410569(9)
H34 H 0.8659 0.2943 0.4376
C47 C 0.938008(8) 0.281556(7) 0.425307(7)
H35 H 0.9519 0.2906 0.4624
C48 C 0.968771(6) 0.266190(5) 0.385708(6)
H36 H 1.0037 0.2647 0.3958
C49 C 1.245276(11) 0.051927(9) 0.121552(13)
C50 C 1.266454(11) 0.079488(9) 0.148864(12)
H37 H 1.2471 0.1001 0.1512
C51 C 1.312556(11) 0.079863(10) 0.172761(12)
H38 H 1.3266 0.1007 0.1896
C52 C 1.342215(11) 0.047870(9) 0.173311(13)
H39 H 1.3752 0.0468 0.1919
C53 C 1.320866(11) 0.020810(9) 0.146887(12)
H40 H 1.3394 -0.0002 0.1453
C54 C 1.271701(11) 0.021389(10) 0.120737(13)
H41 H 1.2570 0.0011 0.1028
C55 C 1.159741(11) 0.034853(9) 0.119608(13)
H42 H 1.1669 0.0203 0.1535
C56 C 1.111325(4) 0.039123(4) 0.091798(5)
N1 N 1.107612(6) 0.057463(4) 0.038138(6)
C57 C 1.062781(7) 0.057901(6) 0.002748(7)
H43 H 1.0602 0.0704 -0.0339
C58 C 1.021664(5) 0.039999(8) 0.021018(8)
C59 C 1.025377(5) 0.021659(7) 0.074678(9)
H44 H 0.9973 0.0094 0.0872
C60 C 1.070207(5) 0.021221(5) 0.110069(7)
H45 H 1.0727 0.0087 0.1467
C61 C 0.985131(11) 0.283859(10) -0.028771(13)
C62 C 1.006909(11) 0.270487(9) -0.077934(13)
H46 H 1.0396 0.2610 -0.0735
C63 C 0.937377(11) 0.286692(10) -0.141441(13)
C64 C 0.916580(11) 0.303429(9) -0.092215(13)
H47 H 0.8880 0.3179 -0.0989
C65 C 0.938742(10) 0.298422(9) -0.033545(13)
H48 H 0.9222 0.3049 0.0008
C66 C 0.915909(12) 0.288594(11) -0.203092(13)
H49 H 0.8836 0.2979 -0.2132
C67 C 0.922616(11) 0.280403(11) -0.304633(13)
C68 C 0.928161(11) 0.308177(11) -0.338360(13)
H50 H 0.9478 0.3272 -0.3231
C69 C 0.905267(11) 0.309471(11) -0.396197(13)
H51 H 0.9064 0.3299 -0.4198
C70 C 0.880428(11) 0.279517(10) -0.418509(14)
H52 H 0.8666 0.2794 -0.4589
C71 C 0.875934(11) 0.253230(11) -0.387382(13)
H53 H 0.8593 0.2331 -0.4034
C72 C 0.896285(11) 0.254158(11) -0.327690(13)
H54 H 0.8907 0.2348 -0.3027
N2 N 1.179307(9) 0.041144(8) -0.040668(12)
N3 N 1.142769(8) 0.100886(7) -0.057398(9)
N4 N 1.066843(7) 0.233482(7) -0.172401(9)
N5 N 1.050266(7) 0.295525(7) -0.208185(9)
N6 N 1.237299(8) 0.101814(8) 0.006646(11)
N7 N 1.166378(7) 0.123001(6) 0.068556(9)
N8 N 1.032797(7) 0.212248(7) 0.211960(9)
N9 N 0.977736(9) 0.236154(8) 0.289006(10)
N10 N 1.195720(8) 0.053568(7) 0.093363(9)
N11 N 0.980360(9) 0.271008(8) -0.134115(10)
N12 N 0.941747(8) 0.277521(7) -0.240601(9)
Fe1 Fe 1.172912(1) 0.078908(1) 0.020035(2)
Fe2 Fe 1.004886(1) 0.255245(1) -0.211729(2)
C1A C 0.804428(9) 0.005299(5) 0.021310(9)
C2A C 0.754913(9) -0.000659(7) 0.032140(13)
H1A H 0.7361 0.0171 0.0496
C3A C 0.732885(11) -0.032554(8) 0.017439(18)
H2A H 0.6990 -0.0366 0.0248
C4A C 0.760372(15) -0.058491(7) -0.008092(18)
H3A H 0.7453 -0.0803 -0.0181
C5A C 0.809887(15) -0.052534(6) -0.018923(15)
H4A H 0.8287 -0.0703 -0.0364
C6A C 0.831915(11) -0.020639(6) -0.004222(12)
H5A H 0.8658 -0.0166 -0.0116
C7A C 0.834495(10) 0.047137(8) 0.091499(11)
H6A H 0.8319 0.0302 0.1221
C8A C 0.855845(9) 0.082069(8) 0.104951(10)
C9A C 0.868687(9) 0.135313(8) 0.064837(11)
H7A H 0.8693 0.1497 0.0304
C10A C 0.879386(9) 0.149977(8) 0.120724(11)
C11A C 0.876822(9) 0.126799(8) 0.169248(11)
H8A H 0.8814 0.1358 0.2088
C12A C 0.868567(9) 0.094163(8) 0.162552(11)
H9A H 0.8711 0.0788 0.1958
C13A C 0.884998(9) 0.187120(8) 0.126872(11)
C14A C 0.925557(9) 0.201636(8) 0.161534(10)
H10A H 0.9498 0.1858 0.1786
C15A C 0.901082(9) 0.256038(8) 0.154319(11)
C16A C 0.857874(9) 0.245759(8) 0.119418(11)
H11A H 0.8348 0.2630 0.1044
C17A C 0.848287(9) 0.211093(8) 0.106520(11)
H12A H 0.8182 0.2039 0.0849
C18A C 0.907772(9) 0.290840(8) 0.178277(10)
H13A H 0.8833 0.3086 0.1723
C19A C 0.964686(11) 0.328349(8) 0.229691(14)
C20A C 0.995497(14) 0.350783(10) 0.202755(16)
H14A H 1.0080 0.3441 0.1659
C21A C 1.009668(14) 0.383888(11) 0.22769(2)
H15A H 1.0269 0.4009 0.2065
C22A C 0.996252(12) 0.388870(13) 0.284554(18)
H16A H 1.0108 0.4083 0.3056
C23A C 0.967209(13) 0.370848(11) 0.311829(17)
H17A H 0.9565 0.3788 0.3490
C24A C 0.950548(11) 0.339933(11) 0.289036(15)
H18A H 0.9297 0.3257 0.3112
C25A C 0.725482(5) 0.088220(4) 0.028972(7)
C26A C 0.728557(7) 0.088685(6) 0.091222(7)
H19A H 0.7572 0.0982 0.1129
C27A C 0.689788(9) 0.075213(9) 0.121772(9)
H20A H 0.6919 0.0755 0.1643
C28A C 0.647943(9) 0.061275(9) 0.090072(13)
H21A H 0.6214 0.0521 0.1110
C29A C 0.644868(7) 0.060809(8) 0.027822(13)
H22A H 0.6163 0.0513 0.0062
C30A C 0.683636(6) 0.074281(6) -0.002729(9)
H23A H 0.6815 0.0740 -0.0453
C31A C 0.757559(10) 0.133953(8) -0.027472(12)
H24A H 0.7295 0.1482 -0.0210
C32A C 0.797982(10) 0.145366(9) -0.060539(12)
C33A C 0.871475(10) 0.131517(8) -0.104662(12)
H25A H 0.8972 0.1152 -0.1106
C34A C 0.871704(10) 0.163702(9) -0.131917(12)
C35A C 0.838459(10) 0.189141(9) -0.116098(12)
H26A H 0.8413 0.2131 -0.1254
C36A C 0.799648(10) 0.174619(8) -0.084140(12)
H27A H 0.7714 0.1891 -0.0803
C37A C 0.906643(10) 0.169197(8) -0.175111(11)
C38A C 0.936275(10) 0.201407(8) -0.172334(11)
H28A H 0.9330 0.2160 -0.1386
C39A C 0.972545(11) 0.192043(9) -0.258303(12)
C40A C 0.946742(14) 0.157624(12) -0.265700(15)
H29A H 0.9508 0.1433 -0.2996
C41A C 0.914132(13) 0.146575(10) -0.217329(15)
H30A H 0.8995 0.1241 -0.2174
C42A C 0.998895(11) 0.207142(9) -0.300992(13)
H31A H 1.0001 0.1965 -0.3392
C43A C 1.051569(5) 0.253029(4) -0.331369(5)
C44A C 1.102670(5) 0.255234(5) -0.316632(7)
H32A H 1.1166 0.2462 -0.2795
C45A C 1.133432(6) 0.270600(7) -0.356232(9)
H33A H 1.1684 0.2721 -0.3462
C46A C 1.113093(8) 0.283761(7) -0.410569(9)
H34A H 1.1341 0.2943 -0.4376
C47A C 1.061992(8) 0.281556(7) -0.425307(7)
H35A H 1.0481 0.2906 -0.4624
C48A C 1.031229(6) 0.266190(5) -0.385708(6)
H36A H 0.9963 0.2647 -0.3958
C49A C 0.754724(11) 0.051927(9) -0.121552(13)
C50A C 0.733546(11) 0.079488(9) -0.148864(12)
H37A H 0.7529 0.1001 -0.1512
C51A C 0.687444(11) 0.079863(10) -0.172761(12)
H38A H 0.6734 0.1007 -0.1896
C52A C 0.657785(11) 0.047870(9) -0.173311(13)
H39A H 0.6248 0.0468 -0.1919
C53A C 0.679134(11) 0.020810(9) -0.146887(12)
H40A H 0.6606 -0.0002 -0.1453
C54A C 0.728299(11) 0.021389(10) -0.120737(13)
H41A H 0.7430 0.0011 -0.1028
C55A C 0.840259(11) 0.034853(9) -0.119608(13)
H42A H 0.8331 0.0203 -0.1535
C56A C 0.888675(4) 0.039123(4) -0.091798(5)
N1A N 0.892388(6) 0.057463(4) -0.038138(6)
C57A C 0.937219(7) 0.057901(6) -0.002748(7)
H43A H 0.9398 0.0704 0.0339
C58A C 0.978336(5) 0.039999(8) -0.021018(8)
C59A C 0.974623(5) 0.021659(7) -0.074678(9)
H44A H 1.0027 0.0094 -0.0872
C60A C 0.929793(5) 0.021221(5) -0.110069(7)
H45A H 0.9273 0.0087 -0.1467
C61A C 1.014869(11) 0.283859(10) 0.028771(13)
C62A C 0.993091(11) 0.270487(9) 0.077934(13)
H46A H 0.9604 0.2610 0.0735
C63A C 1.062623(11) 0.286692(10) 0.141441(13)
C64A C 1.083420(11) 0.303429(9) 0.092215(13)
H47A H 1.1120 0.3179 0.0989
C65A C 1.061258(10) 0.298422(9) 0.033545(13)
H48A H 1.0778 0.3049 -0.0008
C66A C 1.084091(12) 0.288594(11) 0.203092(13)
H49A H 1.1164 0.2979 0.2132
C67A C 1.077384(11) 0.280403(11) 0.304633(13)
C68A C 1.071839(11) 0.308177(11) 0.338360(13)
H50A H 1.0522 0.3272 0.3231
C69A C 1.094733(11) 0.309471(11) 0.396197(13)
H51A H 1.0936 0.3299 0.4198
C70A C 1.119572(11) 0.279517(10) 0.418509(14)
H52A H 1.1334 0.2794 0.4589
C71A C 1.124066(11) 0.253230(11) 0.387382(13)
H53A H 1.1407 0.2331 0.4034
C72A C 1.103715(11) 0.254158(11) 0.327690(13)
H54A H 1.1093 0.2348 0.3027
N2A N 0.820693(9) 0.041144(8) 0.040668(12)
N3A N 0.857231(8) 0.100886(7) 0.057398(9)
N4A N 0.933157(7) 0.233482(7) 0.172401(9)
N5A N 0.949734(7) 0.295525(7) 0.208185(9)
N6A N 0.762701(8) 0.101814(8) -0.006646(11)
N7A N 0.833622(7) 0.123001(6) -0.068556(9)
N8A N 0.967203(7) 0.212248(7) -0.211960(9)
N9A N 1.022264(9) 0.236154(8) -0.289006(10)
N10A N 0.804280(8) 0.053568(7) -0.093363(9)
N11A N 1.019640(9) 0.271008(8) 0.134115(10)
N12A N 1.058253(8) 0.277521(7) 0.240601(9)
Fe1A Fe 0.827088(1) 0.078908(1) -0.020035(2)
Fe2A Fe 0.995114(1) 0.255245(1) 0.211729(2)
loop_
_geom_bond_atom_site_label_1
_geom_bond_atom_site_label_2
_geom_bond_site_symmetry_1
_geom_bond_site_symmetry_2
C1 C2 1_555 1_555
C2 H1 1_555 1_555
C3 C2 1_555 1_555
H2 C3 1_555 1_555
C4 C3 1_555 1_555
H3 C4 1_555 1_555
C5 C4 1_555 1_555
H4 C5 1_555 1_555
C6 C1 1_555 1_555
H5 C6 1_555 1_555
C7 H6 1_555 1_555
C8 C7 1_555 1_555
C9 H7 1_555 1_555
C10 C9 1_555 1_555
C11 C10 1_555 1_555
H8 C11 1_555 1_555
C12 C8 1_555 1_555
H9 C12 1_555 1_555
C13 C10 1_555 1_555
C14 C13 1_555 1_555
H10 C14 1_555 1_555
C15 C16 1_555 1_555
C16 H11 1_555 1_555
C17 C13 1_555 1_555
H12 C17 1_555 1_555
C18 C15 1_555 1_555
H13 C18 1_555 1_555
C19 C20 1_555 1_555
C20 H14 1_555 1_555
C21 C20 1_555 1_555
H15 C21 1_555 1_555
C22 C21 1_555 1_555
H16 C22 1_555 1_555
C23 C22 1_555 1_555
H17 C23 1_555 1_555
C24 C19 1_555 1_555
H18 C24 1_555 1_555
C25 C26 1_555 1_555
C26 H19 1_555 1_555
C27 C26 1_555 1_555
H20 C27 1_555 1_555
C28 C27 1_555 1_555
H21 C28 1_555 1_555
C29 C28 1_555 1_555
H22 C29 1_555 1_555
C30 C25 1_555 1_555
H23 C30 1_555 1_555
C31 H24 1_555 1_555
C32 C31 1_555 1_555
C33 H25 1_555 1_555
C34 C33 1_555 1_555
C35 C34 1_555 1_555
H26 C35 1_555 1_555
C36 C32 1_555 1_555
H27 C36 1_555 1_555
C37 C34 1_555 1_555
C38 C37 1_555 1_555
H28 C38 1_555 1_555
C39 C40 1_555 1_555
C40 H29 1_555 1_555
C41 C37 1_555 1_555
H30 C41 1_555 1_555
C42 C39 1_555 1_555
H31 C42 1_555 1_555
C43 C44 1_555 1_555
C44 H32 1_555 1_555
C45 C44 1_555 1_555
H33 C45 1_555 1_555
C46 C45 1_555 1_555
H34 C46 1_555 1_555
C47 C46 1_555 1_555
H35 C47 1_555 1_555
C48 C43 1_555 1_555
H36 C48 1_555 1_555
C49 C50 1_555 1_555
C50 H37 1_555 1_555
C51 C50 1_555 1_555
H38 C51 1_555 1_555
C52 C51 1_555 1_555
H39 C52 1_555 1_555
C53 C52 1_555 1_555
H40 C53 1_555 1_555
C54 C49 1_555 1_555
H41 C54 1_555 1_555
C55 H42 1_555 1_555
C56 C55 1_555 1_555
N1 C56 1_555 1_555
C57 N1 1_555 1_555
H43 C57 1_555 1_555
C58 C57 1_555 1_555
C59 C58 1_555 1_555
H44 C59 1_555 1_555
C60 C56 1_555 1_555
H45 C60 1_555 1_555
C61 C62 1_555 1_555
C62 H46 1_555 1_555
C63 C64 1_555 1_555
C64 H47 1_555 1_555
C65 C61 1_555 1_555
H48 C65 1_555 1_555
C66 C63 1_555 1_555
H49 C66 1_555 1_555
C67 C68 1_555 1_555
C68 H50 1_555 1_555
C69 C68 1_555 1_555
H51 C69 1_555 1_555
C70 C69 1_555 1_555
H52 C70 1_555 1_555
C71 C70 1_555 1_555
H53 C71 1_555 1_555
C72 C67 1_555 1_555
H54 C72 1_555 1_555
C73 C74 1_555 1_555
C74 H55 1_555 1_555
C75 C74 1_555 1_555
H56 C75 1_555 1_555
C76 C75 1_555 1_555
H57 C76 1_555 1_555
C77 C76 1_555 1_555
H58 C77 1_555 1_555
C78 C73 1_555 1_555
H59 C78 1_555 1_555
C79 H60 1_555 1_555
C80 C79 1_555 1_555
C81 H61 1_555 1_555
C82 C81 1_555 1_555
C83 C82 1_555 1_555
H62 C83 1_555 1_555
C84 C80 1_555 1_555
H63 C84 1_555 1_555
C85 C82 1_555 1_555
C86 C85 1_555 1_555
H64 C86 1_555 1_555
C87 C88 1_555 1_555
C88 H65 1_555 1_555
C89 C85 1_555 1_555
H66 C89 1_555 1_555
C90 C87 1_555 1_555
H67 C90 1_555 1_555
C91 C92 1_555 1_555
C92 H68 1_555 1_555
C93 C92 1_555 1_555
H69 C93 1_555 1_555
C94 C93 1_555 1_555
H70 C94 1_555 1_555
C95 C94 1_555 1_555
H71 C95 1_555 1_555
C96 C91 1_555 1_555
H72 C96 1_555 1_555
C97 C98 1_555 1_555
C98 H73 1_555 1_555
C99 C98 1_555 1_555
H74 C99 1_555 1_555
C100 C99 1_555 1_555
H75 C100 1_555 1_555
C101 C100 1_555 1_555
H76 C101 1_555 1_555
C102 C97 1_555 1_555
H77 C102 1_555 1_555
C103 H78 1_555 1_555
C104 C103 1_555 1_555
C105 H79 1_555 1_555
C106 C105 1_555 1_555
C107 C106 1_555 1_555
H80 C107 1_555 1_555
C108 C104 1_555 1_555
H81 C108 1_555 1_555
C109 C106 1_555 1_555
C110 C109 1_555 1_555
H82 C110 1_555 1_555
C111 C112 1_555 1_555
C112 H83 1_555 1_555
C113 C109 1_555 1_555
H84 C113 1_555 1_555
C114 C111 1_555 1_555
H85 C114 1_555 1_555
C115 C116 1_555 1_555
C116 H86 1_555 1_555
C117 C116 1_555 1_555
H87 C117 1_555 1_555
C118 C117 1_555 1_555
H88 C118 1_555 1_555
C119 C118 1_555 1_555
H89 C119 1_555 1_555
C120 C115 1_555 1_555
H90 C120 1_555 1_555
C121 C122 1_555 1_555
C122 H91 1_555 1_555
C123 C122 1_555 1_555
H92 C123 1_555 1_555
C124 C123 1_555 1_555
H93 C124 1_555 1_555
C125 C124 1_555 1_555
H94 C125 1_555 1_555
C126 C121 1_555 1_555
H95 C126 1_555 1_555
C127 H96 1_555 1_555
C128 C127 1_555 1_555
C129 H97 1_555 1_555
C130 C129 1_555 1_555
C131 C130 1_555 1_555
H98 C131 1_555 1_555
C132 C128 1_555 1_555
H99 C132 1_555 1_555
C133 C134 1_555 1_555
C134 H100 1_555 1_555
C135 C134 1_555 1_555
H101 C135 1_555 1_555
C136 C135 1_555 1_555
H102 C136 1_555 1_555
C137 C136 1_555 1_555
H103 C137 1_555 1_555
C138 C133 1_555 1_555
H104 C138 1_555 1_555
C139 H105 1_555 1_555
C140 C139 1_555 1_555
C141 H106 1_555 1_555
C142 C141 1_555 1_555
C143 C142 1_555 1_555
H107 C143 1_555 1_555
C144 C140 1_555 1_555
H108 C144 1_555 1_555
C145 F1 1_555 1_555
C146 F4 1_555 1_555
C147 F7 1_555 1_555
C148 F10 1_555 1_555
N2 C1 1_555 1_555
N3 C8 1_555 1_555
N4 C14 1_555 1_555
N5 C18 1_555 1_555
N6 C25 1_555 1_555
N7 C32 1_555 1_555
N8 C38 1_555 1_555
N9 C42 1_555 1_555
N10 C49 1_555 1_555
N11 C62 1_555 1_555
N12 C66 1_555 1_555
N13 C73 1_555 1_555
N14 C80 1_555 1_555
N15 C86 1_555 1_555
N16 C90 1_555 1_555
N17 C97 1_555 1_555
N18 C104 1_555 1_555
N19 C110 1_555 1_555
N20 C114 1_555 1_555
N21 C121 1_555 1_555
N22 C128 1_555 1_555
N23 C140 1_555 1_555
N24 C133 1_555 1_555
N25 S5 1_555 1_555
N26 S3 1_555 1_555
C149 C150 1_555 1_555
C150 H109 1_555 1_555
H110 C150 1_555 1_555
H111 C150 1_555 1_555
C151 C152 1_555 1_555
C152 H112 1_555 1_555
H113 C152 1_555 1_555
H114 C152 1_555 1_555
N27 C149 1_555 1_555
N28 C151 1_555 1_555
C153 N29 1_555 1_555
C154 C153 1_555 1_555
H115 C154 1_555 1_555
H116 C154 1_555 1_555
H117 C154 1_555 1_555
C155 C156 1_555 1_555
C156 H118 1_555 1_555
H119 C156 1_555 1_555
H120 C156 1_555 1_555
N30 C155 1_555 1_555
C157 C158 1_555 1_555
C158 H121 1_555 1_555
H122 C158 1_555 1_555
H123 C158 1_555 1_555
N31 C157 1_555 1_555
O1 S3 1_555 1_555
O2 S3 1_555 1_555
O3 S4 1_555 1_555
O4 S4 1_555 1_555
O5 S5 1_555 1_555
O6 S5 1_555 1_555
O7 S6 1_555 1_555
O8 S6 1_555 1_555
F2 C145 1_555 1_555
F3 C145 1_555 1_555
F5 C146 1_555 1_555
F6 C146 1_555 1_555
F8 C147 1_555 1_555
F9 C147 1_555 1_555
F11 C148 1_555 1_555
F12 C148 1_555 1_555
S1 O9 1_555 1_555
O9 S1A 1_555 1_555
C159 S1 1_555 1_555
F13 C159 1_555 1_555
F14 C159 1_555 1_555
F15 C159 1_555 1_555
O10 S1 1_555 1_555
O11 S1 1_555 1_555
S2 C160 1_555 1_555
C160 F16 1_555 1_555
O12 S2 1_555 1_555
F16 F18 1_555 1_555
F17 C160 1_555 1_555
F18 C160 1_555 1_555
O13 S2 1_555 1_555
O14 S2 1_555 1_555
S3 C145 1_555 1_555
S4 C146 1_555 1_555
S5 C147 1_555 1_555
S6 C148 1_555 1_555
Fe1 N1 1_555 1_555
Fe2 N4 1_555 1_555
Fe3 N13 1_555 1_555
Fe4 N15 1_555 1_555
C1A C2A 1_555 1_555
C2A H1A 1_555 1_555
C3A C2A 1_555 1_555
H2A C3A 1_555 1_555
C4A C3A 1_555 1_555
H3A C4A 1_555 1_555
C5A C4A 1_555 1_555
H4A C5A 1_555 1_555
C6A C1A 1_555 1_555
H5A C6A 1_555 1_555
C7A H6A 1_555 1_555
C8A C7A 1_555 1_555
C9A H7A 1_555 1_555
C10A C9A 1_555 1_555
C11A C10A 1_555 1_555
H8A C11A 1_555 1_555
C12A C8A 1_555 1_555
H9A C12A 1_555 1_555
C13A C10A 1_555 1_555
C14A C13A 1_555 1_555
H10A C14A 1_555 1_555
C15A C16A 1_555 1_555
C16A H11A 1_555 1_555
C17A C13A 1_555 1_555
H12A C17A 1_555 1_555
C18A C15A 1_555 1_555
H13A C18A 1_555 1_555
C19A C20A 1_555 1_555
C20A H14A 1_555 1_555
C21A C20A 1_555 1_555
H15A C21A 1_555 1_555
C22A C21A 1_555 1_555
H16A C22A 1_555 1_555
C23A C22A 1_555 1_555
H17A C23A 1_555 1_555
C24A C19A 1_555 1_555
H18A C24A 1_555 1_555
C25A C26A 1_555 1_555
C26A H19A 1_555 1_555
C27A C26A 1_555 1_555
H20A C27A 1_555 1_555
C28A C27A 1_555 1_555
H21A C28A 1_555 1_555
C29A C28A 1_555 1_555
H22A C29A 1_555 1_555
C30A C25A 1_555 1_555
H23A C30A 1_555 1_555
C31A H24A 1_555 1_555
C32A C31A 1_555 1_555
C33A H25A 1_555 1_555
C34A C33A 1_555 1_555
C35A C34A 1_555 1_555
H26A C35A 1_555 1_555
C36A C32A 1_555 1_555
H27A C36A 1_555 1_555
C37A C34A 1_555 1_555
C38A C37A 1_555 1_555
H28A C38A 1_555 1_555
C39A C40A 1_555 1_555
C40A H29A 1_555 1_555
C41A C37A 1_555 1_555
H30A C41A 1_555 1_555
C42A C39A 1_555 1_555
H31A C42A 1_555 1_555
C43A C44A 1_555 1_555
C44A H32A 1_555 1_555
C45A C44A 1_555 1_555
H33A C45A 1_555 1_555
C46A C45A 1_555 1_555
H34A C46A 1_555 1_555
C47A C46A 1_555 1_555
H35A C47A 1_555 1_555
C48A C43A 1_555 1_555
H36A C48A 1_555 1_555
C49A C50A 1_555 1_555
C50A H37A 1_555 1_555
C51A C50A 1_555 1_555
H38A C51A 1_555 1_555
C52A C51A 1_555 1_555
H39A C52A 1_555 1_555
C53A C52A 1_555 1_555
H40A C53A 1_555 1_555
C54A C49A 1_555 1_555
H41A C54A 1_555 1_555
C55A H42A 1_555 1_555
C56A C55A 1_555 1_555
N1A C56A 1_555 1_555
C57A N1A 1_555 1_555
H43A C57A 1_555 1_555
C58A C58 1_555 1_555
C59A C58A 1_555 1_555
H44A C59A 1_555 1_555
C60A C56A 1_555 1_555
H45A C60A 1_555 1_555
C61A C61 1_555 1_555
C62A C61A 1_555 1_555
H46A C62A 1_555 1_555
C63A C64A 1_555 1_555
C64A H47A 1_555 1_555
C65A C61A 1_555 1_555
H48A C65A 1_555 1_555
C66A C63A 1_555 1_555
H49A C66A 1_555 1_555
C67A C68A 1_555 1_555
C68A H50A 1_555 1_555
C69A C68A 1_555 1_555
H51A C69A 1_555 1_555
C70A C69A 1_555 1_555
H52A C70A 1_555 1_555
C71A C70A 1_555 1_555
H53A C71A 1_555 1_555
C72A C67A 1_555 1_555
H54A C72A 1_555 1_555
C73A C74A 1_555 1_555
C74A H55A 1_555 1_555
C75A C74A 1_555 1_555
H56A C75A 1_555 1_555
C76A C75A 1_555 1_555
H57A C76A 1_555 1_555
C77A C76A 1_555 1_555
H58A C77A 1_555 1_555
C78A C73A 1_555 1_555
H59A C78A 1_555 1_555
C79A H60A 1_555 1_555
C80A C79A 1_555 1_555
C81A H61A 1_555 1_555
C82A C81A 1_555 1_555
C83A C82A 1_555 1_555
H62A C83A 1_555 1_555
C84A C80A 1_555 1_555
H63A C84A 1_555 1_555
C85A C82A 1_555 1_555
C86A C85A 1_555 1_555
H64A C86A 1_555 1_555
C87A C88A 1_555 1_555
C88A H65A 1_555 1_555
C89A C85A 1_555 1_555
H66A C89A 1_555 1_555
C90A C87A 1_555 1_555
H67A C90A 1_555 1_555
C91A C92A 1_555 1_555
C92A H68A 1_555 1_555
C93A C92A 1_555 1_555
H69A C93A 1_555 1_555
C94A C93A 1_555 1_555
H70A C94A 1_555 1_555
C95A C94A 1_555 1_555
H71A C95A 1_555 1_555
C96A C91A 1_555 1_555
H72A C96A 1_555 1_555
C97A C98A 1_555 1_555
C98A H73A 1_555 1_555
C99A C98A 1_555 1_555
H74A C99A 1_555 1_555
C100A C99A 1_555 1_555
H75A C100A 1_555 1_555
C101A C100A 1_555 1_555
H76A C101A 1_555 1_555
C102A C97A 1_555 1_555
H77A C102A 1_555 1_555
C103A H78A 1_555 1_555
C104A C103A 1_555 1_555
C105A H79A 1_555 1_555
C106A C105A 1_555 1_555
C107A C106A 1_555 1_555
H80A C107A 1_555 1_555
C108A C104A 1_555 1_555
H81A C108A 1_555 1_555
C109A C106A 1_555 1_555
C110A C109A 1_555 1_555
H82A C110A 1_555 1_555
C111A C112A 1_555 1_555
C112A H83A 1_555 1_555
C113A C109A 1_555 1_555
H84A C113A 1_555 1_555
C114A C111A 1_555 1_555
H85A C114A 1_555 1_555
C115A C116A 1_555 1_555
C116A H86A 1_555 1_555
C117A C116A 1_555 1_555
H87A C117A 1_555 1_555
C118A C117A 1_555 1_555
H88A C118A 1_555 1_555
C119A C118A 1_555 1_555
H89A C119A 1_555 1_555
C120A C115A 1_555 1_555
H90A C120A 1_555 1_555
C121A C122A 1_555 1_555
C122A H91A 1_555 1_555
C123A C122A 1_555 1_555
H92A C123A 1_555 1_555
C124A C123A 1_555 1_555
H93A C124A 1_555 1_555
C125A C124A 1_555 1_555
H94A C125A 1_555 1_555
C126A C121A 1_555 1_555
H95A C126A 1_555 1_555
C127A H96A 1_555 1_555
C128A C127A 1_555 1_555
C129A H97A 1_555 1_555
C130A C130 1_555 1_555
C131A C130A 1_555 1_555
H98A C131A 1_555 1_555
C132A C128A 1_555 1_555
H99A C132A 1_555 1_555
C133A C134A 1_555 1_555
C134A H100A 1_555 1_555
C135A C134A 1_555 1_555
H101A C135A 1_555 1_555
C136A C135A 1_555 1_555
H102A C136A 1_555 1_555
C137A C136A 1_555 1_555
H103A C137A 1_555 1_555
C138A C133A 1_555 1_555
H104A C138A 1_555 1_555
C139A H105A 1_555 1_555
C140A C139A 1_555 1_555
C141A H106A 1_555 1_555
C142A C142 1_555 1_555
C143A C142A 1_555 1_555
H107A C143A 1_555 1_555
C144A C140A 1_555 1_555
H108A C144A 1_555 1_555
N2A C1A 1_555 1_555
N3A C8A 1_555 1_555
N4A C14A 1_555 1_555
N5A C18A 1_555 1_555
N6A C25A 1_555 1_555
N7A C32A 1_555 1_555
N8A Fe2 1_555 1_555
N9A Fe2 1_555 1_555
N10A C49A 1_555 1_555
N11A C62A 1_555 1_555
N12A C66A 1_555 1_555
N13A C73A 1_555 1_555
N14A C80A 1_555 1_555
N15A C86A 1_555 1_555
N16A C90A 1_555 1_555
N17A C97A 1_555 1_555
N18A C104A 1_555 1_555
N19A Fe4 1_555 1_555
N20A Fe4 1_555 1_555
N21A C121A 1_555 1_555
N22A C128A 1_555 1_555
N23A C140A 1_555 1_555
N24A C133A 1_555 1_555
S1A S1 1_555 1_555
O9A S1 1_555 1_555
C159A S1 1_555 1_555
F13A F15 1_555 1_555
F14A O10 1_555 1_555
F15A C159 1_555 1_555
O10A S1 1_555 1_555
O11A S1 1_555 1_555
S2A S2 1_555 1_555
C160A S2 1_555 1_555
O12A S2 1_555 1_555
F16A C160 1_555 1_555
F17A O13 1_555 1_555
F18A C160 1_555 1_555
O13A S2 1_555 1_555
O14A S2 1_555 1_555
Fe1A N1A 1_555 1_555
Fe2A N8 1_555 1_555
Fe3A N13A 1_555 1_555
Fe4A N19 1_555 1_555
C5 C6 1_555 1_555
C7 N2 1_555 1_555
C9 N3 1_555 1_555
C11 C12 1_555 1_555
C15 N4 1_555 1_555
C16 C17 1_555 1_555
C19 N5 1_555 1_555
C23 C24 1_555 1_555
C29 C30 1_555 1_555
C31 N6 1_555 1_555
C33 N7 1_555 1_555
C35 C36 1_555 1_555
C39 N8 1_555 1_555
C40 C41 1_555 1_555
C43 N9 1_555 1_555
C47 C48 1_555 1_555
C53 C54 1_555 1_555
C55 N10 1_555 1_555
C59 C60 1_555 1_555
C63 N11 1_555 1_555
C64 C65 1_555 1_555
C67 N12 1_555 1_555
C71 C72 1_555 1_555
C77 C78 1_555 1_555
C79 N13 1_555 1_555
C81 N14 1_555 1_555
C83 C84 1_555 1_555
C87 N15 1_555 1_555
C88 C89 1_555 1_555
C91 N16 1_555 1_555
C95 C96 1_555 1_555
C101 C102 1_555 1_555
C103 N17 1_555 1_555
C105 N18 1_555 1_555
C107 C108 1_555 1_555
C111 N19 1_555 1_555
C112 C113 1_555 1_555
C115 N20 1_555 1_555
C119 C120 1_555 1_555
C125 C126 1_555 1_555
C127 N21 1_555 1_555
C129 N22 1_555 1_555
C131 C132 1_555 1_555
C137 C138 1_555 1_555
C139 N24 1_555 1_555
C141 N23 1_555 1_555
C143 C144 1_555 1_555
N2 Fe1 1_555 1_555
N3 Fe1 1_555 1_555
N5 Fe2 1_555 1_555
N6 Fe1 1_555 1_555
N7 Fe1 1_555 1_555
N9 Fe2A 1_555 1_555
N10 Fe1 1_555 1_555
N11 Fe2 1_555 1_555
N12 Fe2 1_555 1_555
N14 Fe3 1_555 1_555
N16 Fe4 1_555 1_555
N17 Fe3 1_555 1_555
N18 Fe3 1_555 1_555
N20 Fe4A 1_555 1_555
N21 Fe3 1_555 1_555
N22 Fe3 1_555 1_555
N23 Fe4 1_555 1_555
N24 Fe4 1_555 1_555
N25 S6 1_555 1_555
N26 S4 1_555 1_555
O9 O11A 1_555 1_555
C159 S1A 1_555 1_555
C159 C159A 1_555 1_555
C159 O10A 1_555 1_555
F13 F15A 1_555 1_555
F14 O10A 1_555 1_555
F15 C159A 1_555 1_555
O10 S1A 1_555 1_555
O10 C159A 1_555 1_555
O11 S1A 1_555 1_555
O11 O9A 1_555 1_555
C160 S2A 1_555 1_555
C160 C160A 1_555 1_555
C160 O13A 1_555 1_555
O12 S2A 1_555 1_555
O12 O14A 1_555 1_555
F16 C160A 1_555 1_555
F17 O13A 1_555 1_555
F18 C160A 1_555 1_555
O13 S2A 1_555 1_555
O13 C160A 1_555 1_555
O14 S2A 1_555 1_555
O14 O12A 1_555 1_555
C5A C6A 1_555 1_555
C7A N2A 1_555 1_555
C9A N3A 1_555 1_555
C11A C12A 1_555 1_555
C15A N4A 1_555 1_555
C16A C17A 1_555 1_555
C19A N5A 1_555 1_555
C23A C24A 1_555 1_555
C29A C30A 1_555 1_555
C31A N6A 1_555 1_555
C33A N7A 1_555 1_555
C35A C36A 1_555 1_555
C38A N8A 1_555 1_555
C39A N8A 1_555 1_555
C40A C41A 1_555 1_555
C42A N9A 1_555 1_555
C43A N9A 1_555 1_555
C47A C48A 1_555 1_555
C53A C54A 1_555 1_555
C55A N10A 1_555 1_555
C57A C58A 1_555 1_555
C59A C60A 1_555 1_555
C63A N11A 1_555 1_555
C64A C65A 1_555 1_555
C67A N12A 1_555 1_555
C71A C72A 1_555 1_555
C77A C78A 1_555 1_555
C79A N13A 1_555 1_555
C81A N14A 1_555 1_555
C83A C84A 1_555 1_555
C87A N15A 1_555 1_555
C88A C89A 1_555 1_555
C91A N16A 1_555 1_555
C95A C96A 1_555 1_555
C101A C102A 1_555 1_555
C103A N17A 1_555 1_555
C105A N18A 1_555 1_555
C107A C108A 1_555 1_555
C110A N19A 1_555 1_555
C111A N19A 1_555 1_555
C112A C113A 1_555 1_555
C114A N20A 1_555 1_555
C115A N20A 1_555 1_555
C119A C120A 1_555 1_555
C125A C126A 1_555 1_555
C127A N21A 1_555 1_555
C129A C130A 1_555 1_555
C129A N22A 1_555 1_555
C131A C132A 1_555 1_555
C137A C138A 1_555 1_555
C139A N24A 1_555 1_555
C141A C142A 1_555 1_555
C141A N23A 1_555 1_555
C143A C144A 1_555 1_555
N2A Fe1A 1_555 1_555
N3A Fe1A 1_555 1_555
N4A Fe2A 1_555 1_555
N5A Fe2A 1_555 1_555
N6A Fe1A 1_555 1_555
N7A Fe1A 1_555 1_555
N10A Fe1A 1_555 1_555
N11A Fe2A 1_555 1_555
N12A Fe2A 1_555 1_555
N14A Fe3A 1_555 1_555
N15A Fe4A 1_555 1_555
N16A Fe4A 1_555 1_555
N17A Fe3A 1_555 1_555
N18A Fe3A 1_555 1_555
N21A Fe3A 1_555 1_555
N22A Fe3A 1_555 1_555
N23A Fe4A 1_555 1_555
N24A Fe4A 1_555 1_555
S1A O9A 1_555 1_555
S1A C159A 1_555 1_555
S1A O10A 1_555 1_555
S1A O11A 1_555 1_555
C159A F13A 1_555 1_555
C159A F14A 1_555 1_555
C159A F15A 1_555 1_555
S2A C160A 1_555 1_555
S2A O12A 1_555 1_555
S2A O13A 1_555 1_555
S2A O14A 1_555 1_555
C160A F16A 1_555 1_555
C160A F17A 1_555 1_555
C160A F18A 1_555 1_555
F16A F18A 1_555 1_555

#END
