# generated using pymatgen
data_Fe2H57C74N13
_symmetry_space_group_name_H-M   'P 1'
_cell_length_a   20.70570000
_cell_length_b   34.20070000
_cell_length_c   35.22920000
_cell_angle_alpha   104.74000000
_cell_angle_beta   90.00000000
_cell_angle_gamma   90.00000000
_symmetry_Int_Tables_number   1
_chemical_formula_structural   Fe2H57C74N13
_chemical_formula_sum   'Fe16 H456 C592 N104'
_cell_volume   24126.52355930
_cell_formula_units_Z   8
loop_
 _symmetry_equiv_pos_site_id
 _symmetry_equiv_pos_as_xyz
  1  'x, y, z'
loop_
 _atom_site_type_symbol
 _atom_site_label
 _atom_site_symmetry_multiplicity
 _atom_site_fract_x
 _atom_site_fract_y
 _atom_site_fract_z
 _atom_site_occupancy
  Fe  Fe1  1  0.722850  0.563900  0.380950  1
  Fe  Fe2  1  0.222850  0.936100  0.619050  1
  Fe  Fe3  1  0.277150  0.436100  0.619050  1
  Fe  Fe4  1  0.777150  0.063900  0.380950  1
  Fe  Fe5  1  0.395720  0.364380  0.306730  1
  Fe  Fe6  1  0.895720  0.135620  0.693270  1
  Fe  Fe7  1  0.604280  0.635620  0.693270  1
  Fe  Fe8  1  0.104280  0.864380  0.306730  1
  Fe  Fe9  1  0.399960  0.589150  0.195620  1
  Fe  Fe10  1  0.899960  0.910850  0.804380  1
  Fe  Fe11  1  0.600040  0.410850  0.804380  1
  Fe  Fe12  1  0.100040  0.089150  0.195620  1
  Fe  Fe13  1  0.727230  0.389510  0.126190  1
  Fe  Fe14  1  0.227230  0.110490  0.873810  1
  Fe  Fe15  1  0.272770  0.610490  0.873810  1
  Fe  Fe16  1  0.772770  0.889510  0.126190  1
  H  H17  1  0.603000  0.491900  0.233300  1
  H  H18  1  0.103000  0.008100  0.766700  1
  H  H19  1  0.397000  0.508100  0.766700  1
  H  H20  1  0.897000  0.991900  0.233300  1
  H  H21  1  0.554700  0.454700  0.218000  1
  H  H22  1  0.054700  0.045300  0.782000  1
  H  H23  1  0.445300  0.545300  0.782000  1
  H  H24  1  0.945300  0.954700  0.218000  1
  H  H25  1  0.608000  0.452900  0.250400  1
  H  H26  1  0.108000  0.047100  0.749600  1
  H  H27  1  0.392000  0.547100  0.749600  1
  H  H28  1  0.892000  0.952900  0.250400  1
  H  H29  1  0.974700  0.464900  0.391200  1
  H  H30  1  0.474700  0.035100  0.608800  1
  H  H31  1  0.025300  0.535100  0.608800  1
  H  H32  1  0.525300  0.964900  0.391200  1
  H  H33  1  0.005600  0.433100  0.354300  1
  H  H34  1  0.505600  0.066900  0.645700  1
  H  H35  1  0.994400  0.566900  0.645700  1
  H  H36  1  0.494400  0.933100  0.354300  1
  H  H37  1  0.974100  0.417600  0.389400  1
  H  H38  1  0.474100  0.082400  0.610600  1
  H  H39  1  0.025900  0.582400  0.610600  1
  H  H40  1  0.525900  0.917600  0.389400  1
  H  H41  1  0.277500  0.336400  0.381500  1
  H  H42  1  0.777500  0.163600  0.618500  1
  H  H43  1  0.722500  0.663600  0.618500  1
  H  H44  1  0.222500  0.836400  0.381500  1
  H  H45  1  0.174800  0.307500  0.380500  1
  H  H46  1  0.674800  0.192500  0.619500  1
  H  H47  1  0.825200  0.692500  0.619500  1
  H  H48  1  0.325200  0.807500  0.380500  1
  H  H49  1  0.093800  0.323100  0.340500  1
  H  H50  1  0.593800  0.176900  0.659500  1
  H  H51  1  0.906200  0.676900  0.659500  1
  H  H52  1  0.406200  0.823100  0.340500  1
  H  H53  1  0.115400  0.367500  0.301300  1
  H  H54  1  0.615400  0.132500  0.698700  1
  H  H55  1  0.884600  0.632500  0.698700  1
  H  H56  1  0.384600  0.867500  0.301300  1
  H  H57  1  0.218000  0.396400  0.302300  1
  H  H58  1  0.718000  0.103600  0.697700  1
  H  H59  1  0.782000  0.603600  0.697700  1
  H  H60  1  0.282000  0.896400  0.302300  1
  H  H61  1  0.297700  0.437000  0.377800  1
  H  H62  1  0.797700  0.063000  0.622200  1
  H  H63  1  0.702300  0.563000  0.622200  1
  H  H64  1  0.202300  0.937000  0.377800  1
  H  H65  1  0.380900  0.492900  0.402300  1
  H  H66  1  0.880900  0.007100  0.597700  1
  H  H67  1  0.619100  0.507100  0.597700  1
  H  H68  1  0.119100  0.992900  0.402300  1
  H  H69  1  0.488400  0.515300  0.395700  1
  H  H70  1  0.988400  0.984700  0.604300  1
  H  H71  1  0.511600  0.484700  0.604300  1
  H  H72  1  0.011600  0.015300  0.395700  1
  H  H73  1  0.527600  0.399900  0.330600  1
  H  H74  1  0.027600  0.100100  0.669400  1
  H  H75  1  0.472400  0.600100  0.669400  1
  H  H76  1  0.972400  0.899900  0.330600  1
  H  H77  1  0.589500  0.519700  0.364300  1
  H  H78  1  0.089500  0.980300  0.635700  1
  H  H79  1  0.410500  0.480300  0.635700  1
  H  H80  1  0.910500  0.019700  0.364300  1
  H  H81  1  0.616500  0.410400  0.385500  1
  H  H82  1  0.116500  0.089600  0.614500  1
  H  H83  1  0.383500  0.589600  0.614500  1
  H  H84  1  0.883500  0.910400  0.385500  1
  H  H85  1  0.720400  0.429700  0.402200  1
  H  H86  1  0.220400  0.070300  0.597800  1
  H  H87  1  0.279600  0.570300  0.597800  1
  H  H88  1  0.779600  0.929700  0.402200  1
  H  H89  1  0.817900  0.488200  0.416200  1
  H  H90  1  0.317900  0.011800  0.583800  1
  H  H91  1  0.182100  0.511800  0.583800  1
  H  H92  1  0.682100  0.988200  0.416200  1
  H  H93  1  0.889700  0.535000  0.351400  1
  H  H94  1  0.389700  0.965000  0.648600  1
  H  H95  1  0.110300  0.465000  0.648600  1
  H  H96  1  0.610300  0.035000  0.351400  1
  H  H97  1  0.995600  0.558600  0.364200  1
  H  H98  1  0.495600  0.941400  0.635800  1
  H  H99  1  0.004400  0.441400  0.635800  1
  H  H100  1  0.504400  0.058600  0.364200  1
  H  H101  1  0.029000  0.586400  0.428900  1
  H  H102  1  0.529000  0.913600  0.571100  1
  H  H103  1  0.971000  0.413600  0.571100  1
  H  H104  1  0.471000  0.086400  0.428900  1
  H  H105  1  0.956500  0.590700  0.480700  1
  H  H106  1  0.456500  0.909300  0.519300  1
  H  H107  1  0.043500  0.409300  0.519300  1
  H  H108  1  0.543500  0.090700  0.480700  1
  H  H109  1  0.850600  0.567200  0.467900  1
  H  H110  1  0.350600  0.932800  0.532100  1
  H  H111  1  0.149400  0.432800  0.532100  1
  H  H112  1  0.649400  0.067200  0.467900  1
  H  H113  1  0.420600  0.379300  0.405600  1
  H  H114  1  0.920600  0.120700  0.594400  1
  H  H115  1  0.579400  0.620700  0.594400  1
  H  H116  1  0.079400  0.879300  0.405600  1
  H  H117  1  0.383300  0.367500  0.464400  1
  H  H118  1  0.883300  0.132500  0.535600  1
  H  H119  1  0.616700  0.632500  0.535600  1
  H  H120  1  0.116700  0.867500  0.464400  1
  H  H121  1  0.346900  0.303200  0.465800  1
  H  H122  1  0.846900  0.196800  0.534200  1
  H  H123  1  0.653100  0.696800  0.534200  1
  H  H124  1  0.153100  0.803200  0.465800  1
  H  H125  1  0.347700  0.250600  0.408400  1
  H  H126  1  0.847700  0.249400  0.591600  1
  H  H127  1  0.652300  0.749400  0.591600  1
  H  H128  1  0.152300  0.750600  0.408400  1
  H  H129  1  0.384900  0.262300  0.349600  1
  H  H130  1  0.884900  0.237700  0.650400  1
  H  H131  1  0.615100  0.737700  0.650400  1
  H  H132  1  0.115100  0.762300  0.349600  1
  H  H133  1  0.510600  0.295100  0.341100  1
  H  H134  1  0.010600  0.204900  0.658900  1
  H  H135  1  0.489400  0.704900  0.658900  1
  H  H136  1  0.989400  0.795100  0.341100  1
  H  H137  1  0.595200  0.286000  0.281500  1
  H  H138  1  0.095200  0.214000  0.718500  1
  H  H139  1  0.404800  0.714000  0.718500  1
  H  H140  1  0.904800  0.786000  0.281500  1
  H  H141  1  0.629300  0.304200  0.225000  1
  H  H142  1  0.129300  0.195800  0.775000  1
  H  H143  1  0.370700  0.695800  0.775000  1
  H  H144  1  0.870700  0.804200  0.225000  1
  H  H145  1  0.468800  0.373100  0.229100  1
  H  H146  1  0.968800  0.126900  0.770900  1
  H  H147  1  0.531200  0.626900  0.770900  1
  H  H148  1  0.031200  0.873100  0.229100  1
  H  H149  1  0.652500  0.372700  0.201100  1
  H  H150  1  0.152500  0.127300  0.798900  1
  H  H151  1  0.347500  0.627300  0.798900  1
  H  H152  1  0.847500  0.872700  0.201100  1
  H  H153  1  0.486000  0.319100  0.154300  1
  H  H154  1  0.986000  0.180900  0.845700  1
  H  H155  1  0.514000  0.680900  0.845700  1
  H  H156  1  0.014000  0.819100  0.154300  1
  H  H157  1  0.518800  0.324000  0.092200  1
  H  H158  1  0.018800  0.176000  0.907800  1
  H  H159  1  0.481200  0.676000  0.907800  1
  H  H160  1  0.981200  0.824000  0.092200  1
  H  H161  1  0.620700  0.335600  0.049200  1
  H  H162  1  0.120700  0.164400  0.950800  1
  H  H163  1  0.379300  0.664400  0.950800  1
  H  H164  1  0.879300  0.835600  0.049200  1
  H  H165  1  0.739200  0.306800  0.021900  1
  H  H166  1  0.239200  0.193200  0.978100  1
  H  H167  1  0.260800  0.693200  0.978100  1
  H  H168  1  0.760800  0.806800  0.021900  1
  H  H169  1  0.794200  0.306700  0.963800  1
  H  H170  1  0.294200  0.193300  0.036200  1
  H  H171  1  0.205800  0.693300  0.036200  1
  H  H172  1  0.705800  0.806700  0.963800  1
  H  H173  1  0.810300  0.367300  0.945900  1
  H  H174  1  0.310300  0.132700  0.054100  1
  H  H175  1  0.189700  0.632700  0.054100  1
  H  H176  1  0.689700  0.867300  0.945900  1
  H  H177  1  0.771400  0.428100  0.986000  1
  H  H178  1  0.271400  0.071900  0.014000  1
  H  H179  1  0.228600  0.571900  0.014000  1
  H  H180  1  0.728600  0.928100  0.986000  1
  H  H181  1  0.716400  0.428300  0.044100  1
  H  H182  1  0.216400  0.071700  0.955900  1
  H  H183  1  0.283600  0.571700  0.955900  1
  H  H184  1  0.783600  0.928300  0.044100  1
  H  H185  1  0.689500  0.284300  0.103000  1
  H  H186  1  0.189500  0.215700  0.897000  1
  H  H187  1  0.310500  0.715700  0.897000  1
  H  H188  1  0.810500  0.784300  0.103000  1
  H  H189  1  0.699700  0.223100  0.055000  1
  H  H190  1  0.199700  0.276900  0.945000  1
  H  H191  1  0.300300  0.776900  0.945000  1
  H  H192  1  0.800300  0.723100  0.055000  1
  H  H193  1  0.798300  0.205700  0.022700  1
  H  H194  1  0.298300  0.294300  0.977300  1
  H  H195  1  0.201700  0.794300  0.977300  1
  H  H196  1  0.701700  0.705700  0.022700  1
  H  H197  1  0.886800  0.249500  0.038400  1
  H  H198  1  0.386800  0.250500  0.961600  1
  H  H199  1  0.113200  0.750500  0.961600  1
  H  H200  1  0.613200  0.749500  0.038400  1
  H  H201  1  0.876600  0.310600  0.086400  1
  H  H202  1  0.376600  0.189400  0.913600  1
  H  H203  1  0.123400  0.689400  0.913600  1
  H  H204  1  0.623400  0.810600  0.086400  1
  H  H205  1  0.825300  0.320000  0.170900  1
  H  H206  1  0.325300  0.180000  0.829100  1
  H  H207  1  0.174700  0.680000  0.829100  1
  H  H208  1  0.674700  0.820000  0.170900  1
  H  H209  1  0.859600  0.369100  0.232700  1
  H  H210  1  0.359600  0.130900  0.767300  1
  H  H211  1  0.140400  0.630900  0.767300  1
  H  H212  1  0.640400  0.869100  0.232700  1
  H  H213  1  0.851500  0.434000  0.274700  1
  H  H214  1  0.351500  0.066000  0.725300  1
  H  H215  1  0.148500  0.566000  0.725300  1
  H  H216  1  0.648500  0.934000  0.274700  1
  H  H217  1  0.728400  0.466200  0.198600  1
  H  H218  1  0.228400  0.033800  0.801400  1
  H  H219  1  0.271600  0.533800  0.801400  1
  H  H220  1  0.771600  0.966200  0.198600  1
  H  H221  1  0.735300  0.488600  0.309600  1
  H  H222  1  0.235300  0.011400  0.690400  1
  H  H223  1  0.264700  0.511400  0.690400  1
  H  H224  1  0.764700  0.988600  0.309600  1
  H  H225  1  0.855300  0.517800  0.236000  1
  H  H226  1  0.355300  0.982200  0.764000  1
  H  H227  1  0.144700  0.482200  0.764000  1
  H  H228  1  0.644700  0.017800  0.236000  1
  H  H229  1  0.853500  0.588300  0.273900  1
  H  H230  1  0.353500  0.911700  0.726100  1
  H  H231  1  0.146500  0.411700  0.726100  1
  H  H232  1  0.646500  0.088300  0.273900  1
  H  H233  1  0.834100  0.630300  0.344900  1
  H  H234  1  0.334100  0.869700  0.655100  1
  H  H235  1  0.165900  0.369700  0.655100  1
  H  H236  1  0.665900  0.130300  0.344900  1
  H  H237  1  0.872800  0.642200  0.421100  1
  H  H238  1  0.372800  0.857800  0.578900  1
  H  H239  1  0.127200  0.357800  0.578900  1
  H  H240  1  0.627200  0.142200  0.421100  1
  H  H241  1  0.883300  0.703900  0.468300  1
  H  H242  1  0.383300  0.796100  0.531700  1
  H  H243  1  0.116700  0.296100  0.531700  1
  H  H244  1  0.616700  0.203900  0.468300  1
  H  H245  1  0.794000  0.746700  0.485200  1
  H  H246  1  0.294000  0.753300  0.514800  1
  H  H247  1  0.206000  0.253300  0.514800  1
  H  H248  1  0.706000  0.246700  0.485200  1
  H  H249  1  0.694200  0.727900  0.454800  1
  H  H250  1  0.194200  0.772100  0.545200  1
  H  H251  1  0.305800  0.272100  0.545200  1
  H  H252  1  0.805800  0.227900  0.454800  1
  H  H253  1  0.683700  0.666300  0.407600  1
  H  H254  1  0.183700  0.833700  0.592400  1
  H  H255  1  0.316300  0.333700  0.592400  1
  H  H256  1  0.816300  0.166300  0.407600  1
  H  H257  1  0.254200  0.290200  0.300000  1
  H  H258  1  0.754200  0.209800  0.700000  1
  H  H259  1  0.745800  0.709800  0.700000  1
  H  H260  1  0.245800  0.790200  0.300000  1
  H  H261  1  0.240000  0.225700  0.310200  1
  H  H262  1  0.740000  0.274300  0.689800  1
  H  H263  1  0.760000  0.774300  0.689800  1
  H  H264  1  0.260000  0.725700  0.310200  1
  H  H265  1  0.316100  0.174900  0.285900  1
  H  H266  1  0.816100  0.325100  0.714100  1
  H  H267  1  0.683900  0.825100  0.714100  1
  H  H268  1  0.183900  0.674900  0.285900  1
  H  H269  1  0.406300  0.188500  0.251400  1
  H  H270  1  0.906300  0.311500  0.748600  1
  H  H271  1  0.593700  0.811500  0.748600  1
  H  H272  1  0.093700  0.688500  0.251400  1
  H  H273  1  0.420500  0.253000  0.241200  1
  H  H274  1  0.920500  0.247000  0.758800  1
  H  H275  1  0.579500  0.747000  0.758800  1
  H  H276  1  0.079500  0.753000  0.241200  1
  H  H277  1  0.296200  0.314800  0.223600  1
  H  H278  1  0.796200  0.185200  0.776400  1
  H  H279  1  0.703800  0.685200  0.776400  1
  H  H280  1  0.203800  0.814800  0.223600  1
  H  H281  1  0.261400  0.381200  0.198600  1
  H  H282  1  0.761400  0.118800  0.801400  1
  H  H283  1  0.738600  0.618800  0.801400  1
  H  H284  1  0.238600  0.881200  0.198600  1
  H  H285  1  0.271900  0.449100  0.207100  1
  H  H286  1  0.771900  0.050900  0.792900  1
  H  H287  1  0.728100  0.550900  0.792900  1
  H  H288  1  0.228100  0.949100  0.207100  1
  H  H289  1  0.395400  0.453700  0.295700  1
  H  H290  1  0.895400  0.046300  0.704300  1
  H  H291  1  0.604600  0.546300  0.704300  1
  H  H292  1  0.104600  0.953700  0.295700  1
  H  H293  1  0.380600  0.499800  0.203100  1
  H  H294  1  0.880600  0.000200  0.796900  1
  H  H295  1  0.619400  0.500200  0.796900  1
  H  H296  1  0.119400  0.999800  0.203100  1
  H  H297  1  0.309500  0.516300  0.313200  1
  H  H298  1  0.809500  0.983700  0.686800  1
  H  H299  1  0.690500  0.483700  0.686800  1
  H  H300  1  0.190500  0.016300  0.313200  1
  H  H301  1  0.310200  0.586300  0.321100  1
  H  H302  1  0.810200  0.913700  0.678900  1
  H  H303  1  0.689800  0.413700  0.678900  1
  H  H304  1  0.189800  0.086300  0.321100  1
  H  H305  1  0.319100  0.642400  0.286800  1
  H  H306  1  0.819100  0.857600  0.713200  1
  H  H307  1  0.680900  0.357600  0.713200  1
  H  H308  1  0.180900  0.142400  0.286800  1
  H  H309  1  0.277900  0.665300  0.192800  1
  H  H310  1  0.777900  0.834700  0.807200  1
  H  H311  1  0.722100  0.334700  0.807200  1
  H  H312  1  0.222100  0.165300  0.192800  1
  H  H313  1  0.271600  0.732600  0.189200  1
  H  H314  1  0.771600  0.767400  0.810800  1
  H  H315  1  0.728400  0.267400  0.810800  1
  H  H316  1  0.228400  0.232600  0.189200  1
  H  H317  1  0.343600  0.780600  0.225300  1
  H  H318  1  0.843600  0.719400  0.774700  1
  H  H319  1  0.656400  0.219400  0.774700  1
  H  H320  1  0.156400  0.280600  0.225300  1
  H  H321  1  0.421900  0.761400  0.264900  1
  H  H322  1  0.921900  0.738600  0.735100  1
  H  H323  1  0.578100  0.238600  0.735100  1
  H  H324  1  0.078100  0.261400  0.264900  1
  H  H325  1  0.428200  0.694100  0.268500  1
  H  H326  1  0.928200  0.805900  0.731500  1
  H  H327  1  0.571800  0.305900  0.731500  1
  H  H328  1  0.071800  0.194100  0.268500  1
  H  H329  1  0.753400  0.639900  0.483400  1
  H  H330  1  0.253400  0.860100  0.516600  1
  H  H331  1  0.246600  0.360100  0.516600  1
  H  H332  1  0.746600  0.139900  0.483400  1
  H  H333  1  0.799000  0.636700  0.543300  1
  H  H334  1  0.299000  0.863300  0.456700  1
  H  H335  1  0.201000  0.363300  0.456700  1
  H  H336  1  0.701000  0.136700  0.543300  1
  H  H337  1  0.784300  0.579100  0.566600  1
  H  H338  1  0.284300  0.920900  0.433400  1
  H  H339  1  0.215700  0.420900  0.433400  1
  H  H340  1  0.715700  0.079100  0.566600  1
  H  H341  1  0.724100  0.524500  0.530000  1
  H  H342  1  0.224100  0.975500  0.470000  1
  H  H343  1  0.275900  0.475500  0.470000  1
  H  H344  1  0.775900  0.024500  0.530000  1
  H  H345  1  0.678500  0.527700  0.470000  1
  H  H346  1  0.178500  0.972300  0.530000  1
  H  H347  1  0.321500  0.472300  0.530000  1
  H  H348  1  0.821500  0.027700  0.470000  1
  H  H349  1  0.600900  0.604300  0.455000  1
  H  H350  1  0.100900  0.895700  0.545000  1
  H  H351  1  0.399100  0.395700  0.545000  1
  H  H352  1  0.899100  0.104300  0.455000  1
  H  H353  1  0.508500  0.617200  0.411400  1
  H  H354  1  0.008500  0.882800  0.588600  1
  H  H355  1  0.491500  0.382800  0.588600  1
  H  H356  1  0.991500  0.117200  0.411400  1
  H  H357  1  0.470800  0.609500  0.345800  1
  H  H358  1  0.970800  0.890500  0.654200  1
  H  H359  1  0.529200  0.390500  0.654200  1
  H  H360  1  0.029200  0.109500  0.345800  1
  H  H361  1  0.657700  0.585900  0.310400  1
  H  H362  1  0.157700  0.914100  0.689600  1
  H  H363  1  0.342300  0.414100  0.689600  1
  H  H364  1  0.842300  0.085900  0.310400  1
  H  H365  1  0.472700  0.580400  0.269400  1
  H  H366  1  0.972700  0.919600  0.730600  1
  H  H367  1  0.527300  0.419600  0.730600  1
  H  H368  1  0.027300  0.080400  0.269400  1
  H  H369  1  0.622700  0.653900  0.282500  1
  H  H370  1  0.122700  0.846100  0.717500  1
  H  H371  1  0.377300  0.346100  0.717500  1
  H  H372  1  0.877300  0.153900  0.282500  1
  H  H373  1  0.594000  0.667400  0.224100  1
  H  H374  1  0.094000  0.832600  0.775900  1
  H  H375  1  0.406000  0.332600  0.775900  1
  H  H376  1  0.906000  0.167400  0.224100  1
  H  H377  1  0.514300  0.660000  0.171400  1
  H  H378  1  0.014300  0.840000  0.828600  1
  H  H379  1  0.485700  0.340000  0.828600  1
  H  H380  1  0.985700  0.160000  0.171400  1
  H  H381  1  0.389600  0.686200  0.148300  1
  H  H382  1  0.889600  0.813800  0.851700  1
  H  H383  1  0.610400  0.313800  0.851700  1
  H  H384  1  0.110400  0.186200  0.148300  1
  H  H385  1  0.353100  0.694700  0.088100  1
  H  H386  1  0.853100  0.805300  0.911900  1
  H  H387  1  0.646900  0.305300  0.911900  1
  H  H388  1  0.146900  0.194700  0.088100  1
  H  H389  1  0.364100  0.642100  0.031100  1
  H  H390  1  0.864100  0.857900  0.968900  1
  H  H391  1  0.635900  0.357900  0.968900  1
  H  H392  1  0.135900  0.142100  0.031100  1
  H  H393  1  0.411800  0.581000  0.034400  1
  H  H394  1  0.911800  0.919000  0.965600  1
  H  H395  1  0.588200  0.419000  0.965600  1
  H  H396  1  0.088200  0.081000  0.034400  1
  H  H397  1  0.448400  0.572500  0.094700  1
  H  H398  1  0.948400  0.927500  0.905300  1
  H  H399  1  0.551600  0.427500  0.905300  1
  H  H400  1  0.051600  0.072500  0.094700  1
  H  H401  1  0.855100  0.370600  0.045900  1
  H  H402  1  0.355100  0.129400  0.954100  1
  H  H403  1  0.144900  0.629400  0.954100  1
  H  H404  1  0.644900  0.870600  0.045900  1
  H  H405  1  0.963600  0.352500  0.033600  1
  H  H406  1  0.463600  0.147500  0.966400  1
  H  H407  1  0.036400  0.647500  0.966400  1
  H  H408  1  0.536400  0.852500  0.033600  1
  H  H409  1  0.040600  0.373800  0.083200  1
  H  H410  1  0.540600  0.126200  0.916800  1
  H  H411  1  0.959400  0.626200  0.916800  1
  H  H412  1  0.459400  0.873800  0.083200  1
  H  H413  1  0.009200  0.413200  0.144900  1
  H  H414  1  0.509200  0.086800  0.855100  1
  H  H415  1  0.990800  0.586800  0.855100  1
  H  H416  1  0.490800  0.913200  0.144900  1
  H  H417  1  0.900800  0.431200  0.157100  1
  H  H418  1  0.400800  0.068800  0.842900  1
  H  H419  1  0.099200  0.568800  0.842900  1
  H  H420  1  0.599200  0.931200  0.157100  1
  H  H421  1  0.824500  0.477300  0.113900  1
  H  H422  1  0.324500  0.022700  0.886100  1
  H  H423  1  0.175500  0.522700  0.886100  1
  H  H424  1  0.675500  0.977300  0.113900  1
  H  H425  1  0.741100  0.530100  0.123800  1
  H  H426  1  0.241100  0.969900  0.876200  1
  H  H427  1  0.258900  0.469900  0.876200  1
  H  H428  1  0.758900  0.030100  0.123800  1
  H  H429  1  0.629300  0.547000  0.131600  1
  H  H430  1  0.129300  0.953000  0.868400  1
  H  H431  1  0.370700  0.453000  0.868400  1
  H  H432  1  0.870700  0.047000  0.131600  1
  H  H433  1  0.596500  0.432200  0.136100  1
  H  H434  1  0.096500  0.067800  0.863900  1
  H  H435  1  0.403500  0.567800  0.863900  1
  H  H436  1  0.903500  0.932200  0.136100  1
  H  H437  1  0.531000  0.544900  0.180200  1
  H  H438  1  0.031000  0.955100  0.819800  1
  H  H439  1  0.469000  0.455100  0.819800  1
  H  H440  1  0.969000  0.044900  0.180200  1
  H  H441  1  0.503800  0.452900  0.085800  1
  H  H442  1  0.003800  0.047100  0.914200  1
  H  H443  1  0.496200  0.547100  0.914200  1
  H  H444  1  0.996200  0.952900  0.085800  1
  H  H445  1  0.396300  0.474600  0.083500  1
  H  H446  1  0.896300  0.025400  0.916500  1
  H  H447  1  0.603700  0.525400  0.916500  1
  H  H448  1  0.103700  0.974600  0.083500  1
  H  H449  1  0.312600  0.530700  0.112800  1
  H  H450  1  0.812600  0.969300  0.887200  1
  H  H451  1  0.687400  0.469300  0.887200  1
  H  H452  1  0.187400  0.030700  0.112800  1
  H  H453  1  0.239400  0.576000  0.211900  1
  H  H454  1  0.739400  0.924000  0.788100  1
  H  H455  1  0.760600  0.424000  0.788100  1
  H  H456  1  0.260600  0.076000  0.211900  1
  H  H457  1  0.136000  0.604200  0.215200  1
  H  H458  1  0.636000  0.895800  0.784800  1
  H  H459  1  0.864000  0.395800  0.784800  1
  H  H460  1  0.364000  0.104200  0.215200  1
  H  H461  1  0.100200  0.633100  0.165500  1
  H  H462  1  0.600200  0.866900  0.834500  1
  H  H463  1  0.899800  0.366900  0.834500  1
  H  H464  1  0.399800  0.133100  0.165500  1
  H  H465  1  0.168000  0.633900  0.112500  1
  H  H466  1  0.668000  0.866100  0.887500  1
  H  H467  1  0.832000  0.366100  0.887500  1
  H  H468  1  0.332000  0.133900  0.112500  1
  H  H469  1  0.271400  0.605700  0.109200  1
  H  H470  1  0.771400  0.894300  0.890800  1
  H  H471  1  0.728600  0.394300  0.890800  1
  H  H472  1  0.228600  0.105700  0.109200  1
  C  C473  1  0.578300  0.470600  0.240800  1
  C  C474  1  0.078300  0.029400  0.759200  1
  C  C475  1  0.421700  0.529400  0.759200  1
  C  C476  1  0.921700  0.970600  0.240800  1
  C  C477  1  0.536300  0.487500  0.269300  1
  C  C478  1  0.036300  0.012500  0.730700  1
  C  C479  1  0.463700  0.512500  0.730700  1
  C  C480  1  0.963700  0.987500  0.269300  1
  C  C481  1  0.900600  0.432900  0.351400  1
  C  C482  1  0.400600  0.067100  0.648600  1
  C  C483  1  0.099400  0.567100  0.648600  1
  C  C484  1  0.599400  0.932900  0.351400  1
  C  C485  1  0.970800  0.437600  0.373800  1
  C  C486  1  0.470800  0.062400  0.626200  1
  C  C487  1  0.029200  0.562400  0.626200  1
  C  C488  1  0.529200  0.937600  0.373800  1
  C  C489  1  0.257400  0.369100  0.341900  1
  C  C490  1  0.757400  0.130900  0.658100  1
  C  C491  1  0.742600  0.630900  0.658100  1
  C  C492  1  0.242600  0.869100  0.341900  1
  C  C493  1  0.244600  0.342700  0.365200  1
  C  C494  1  0.744600  0.157300  0.634800  1
  C  C495  1  0.755400  0.657300  0.634800  1
  C  C496  1  0.255400  0.842700  0.365200  1
  C  C497  1  0.183600  0.325500  0.364600  1
  C  C498  1  0.683600  0.174500  0.635400  1
  C  C499  1  0.816400  0.674500  0.635400  1
  C  C500  1  0.316400  0.825500  0.364600  1
  C  C501  1  0.135400  0.334800  0.340800  1
  C  C502  1  0.635400  0.165200  0.659200  1
  C  C503  1  0.864600  0.665200  0.659200  1
  C  C504  1  0.364600  0.834800  0.340800  1
  C  C505  1  0.148300  0.361200  0.317600  1
  C  C506  1  0.648300  0.138800  0.682400  1
  C  C507  1  0.851700  0.638800  0.682400  1
  C  C508  1  0.351700  0.861200  0.317600  1
  C  C509  1  0.209200  0.378300  0.318100  1
  C  C510  1  0.709200  0.121700  0.681900  1
  C  C511  1  0.790800  0.621700  0.681900  1
  C  C512  1  0.290800  0.878300  0.318100  1
  C  C513  1  0.331400  0.422000  0.362500  1
  C  C514  1  0.831400  0.078000  0.637500  1
  C  C515  1  0.668600  0.578000  0.637500  1
  C  C516  1  0.168600  0.922000  0.362500  1
  C  C517  1  0.397800  0.439200  0.362800  1
  C  C518  1  0.897800  0.060800  0.637200  1
  C  C519  1  0.602200  0.560800  0.637200  1
  C  C520  1  0.102200  0.939200  0.362800  1
  C  C521  1  0.412400  0.476200  0.386400  1
  C  C522  1  0.912400  0.023800  0.613600  1
  C  C523  1  0.587600  0.523800  0.613600  1
  C  C524  1  0.087600  0.976200  0.386400  1
  C  C525  1  0.476200  0.487800  0.385700  1
  C  C526  1  0.976200  0.012200  0.614300  1
  C  C527  1  0.523800  0.512200  0.614300  1
  C  C528  1  0.023800  0.987800  0.385700  1
  C  C529  1  0.523600  0.457600  0.369500  1
  C  C530  1  0.023600  0.042400  0.630500  1
  C  C531  1  0.476400  0.542400  0.630500  1
  C  C532  1  0.976400  0.957600  0.369500  1
  C  C533  1  0.498000  0.419300  0.345000  1
  C  C534  1  0.998000  0.080700  0.655000  1
  C  C535  1  0.502000  0.580700  0.655000  1
  C  C536  1  0.002000  0.919300  0.345000  1
  C  C537  1  0.617000  0.500800  0.372000  1
  C  C538  1  0.117000  0.999200  0.628000  1
  C  C539  1  0.383000  0.499200  0.628000  1
  C  C540  1  0.883000  0.000800  0.372000  1
  C  C541  1  0.592100  0.464900  0.374500  1
  C  C542  1  0.092100  0.035100  0.625500  1
  C  C543  1  0.407900  0.535100  0.625500  1
  C  C544  1  0.907900  0.964900  0.374500  1
  C  C545  1  0.631700  0.436600  0.385100  1
  C  C546  1  0.131700  0.063400  0.614900  1
  C  C547  1  0.368300  0.563400  0.614900  1
  C  C548  1  0.868300  0.936600  0.385100  1
  C  C549  1  0.692200  0.448400  0.394900  1
  C  C550  1  0.192200  0.051600  0.605100  1
  C  C551  1  0.307800  0.551600  0.605100  1
  C  C552  1  0.807800  0.948400  0.394900  1
  C  C553  1  0.716400  0.485900  0.395100  1
  C  C554  1  0.216400  0.014100  0.604900  1
  C  C555  1  0.283600  0.514100  0.604900  1
  C  C556  1  0.783600  0.985900  0.395100  1
  C  C557  1  0.785600  0.502800  0.406400  1
  C  C558  1  0.285600  0.997200  0.593600  1
  C  C559  1  0.214400  0.497200  0.593600  1
  C  C560  1  0.714400  0.002800  0.406400  1
  C  C561  1  0.860200  0.548900  0.408400  1
  C  C562  1  0.360200  0.951100  0.591600  1
  C  C563  1  0.139800  0.451100  0.591600  1
  C  C564  1  0.639800  0.048900  0.408400  1
  C  C565  1  0.903300  0.546300  0.377600  1
  C  C566  1  0.403300  0.953700  0.622400  1
  C  C567  1  0.096700  0.453700  0.622400  1
  C  C568  1  0.596700  0.046300  0.377600  1
  C  C569  1  0.966200  0.560300  0.385200  1
  C  C570  1  0.466200  0.939700  0.614800  1
  C  C571  1  0.033800  0.439700  0.614800  1
  C  C572  1  0.533800  0.060300  0.385200  1
  C  C573  1  0.986000  0.576900  0.423700  1
  C  C574  1  0.486000  0.923100  0.576300  1
  C  C575  1  0.014000  0.423100  0.576300  1
  C  C576  1  0.514000  0.076900  0.423700  1
  C  C577  1  0.942900  0.579400  0.454500  1
  C  C578  1  0.442900  0.920600  0.545500  1
  C  C579  1  0.057100  0.420600  0.545500  1
  C  C580  1  0.557100  0.079400  0.454500  1
  C  C581  1  0.880000  0.565400  0.446900  1
  C  C582  1  0.380000  0.934600  0.553100  1
  C  C583  1  0.120000  0.434600  0.553100  1
  C  C584  1  0.620000  0.065400  0.446900  1
  C  C585  1  0.406200  0.321900  0.372000  1
  C  C586  1  0.906200  0.178100  0.628000  1
  C  C587  1  0.593800  0.678100  0.628000  1
  C  C588  1  0.093800  0.821900  0.372000  1
  C  C589  1  0.405800  0.353200  0.406100  1
  C  C590  1  0.905800  0.146800  0.593900  1
  C  C591  1  0.594200  0.646800  0.593900  1
  C  C592  1  0.094200  0.853200  0.406100  1
  C  C593  1  0.383600  0.346200  0.441100  1
  C  C594  1  0.883600  0.153800  0.558900  1
  C  C595  1  0.616400  0.653800  0.558900  1
  C  C596  1  0.116400  0.846200  0.441100  1
  C  C597  1  0.362000  0.307900  0.442000  1
  C  C598  1  0.862000  0.192100  0.558000  1
  C  C599  1  0.638000  0.692100  0.558000  1
  C  C600  1  0.138000  0.807900  0.442000  1
  C  C601  1  0.362500  0.276700  0.407900  1
  C  C602  1  0.862500  0.223300  0.592100  1
  C  C603  1  0.637500  0.723300  0.592100  1
  C  C604  1  0.137500  0.776700  0.407900  1
  C  C605  1  0.384600  0.283700  0.372900  1
  C  C606  1  0.884600  0.216300  0.627100  1
  C  C607  1  0.615400  0.716300  0.627100  1
  C  C608  1  0.115400  0.783700  0.372900  1
  C  C609  1  0.488200  0.310800  0.326700  1
  C  C610  1  0.988200  0.189200  0.673300  1
  C  C611  1  0.511800  0.689200  0.673300  1
  C  C612  1  0.011800  0.810800  0.326700  1
  C  C613  1  0.511700  0.318700  0.288900  1
  C  C614  1  0.011700  0.181300  0.711100  1
  C  C615  1  0.488300  0.681300  0.711100  1
  C  C616  1  0.988300  0.818700  0.288900  1
  C  C617  1  0.569500  0.303700  0.270900  1
  C  C618  1  0.069500  0.196300  0.729100  1
  C  C619  1  0.430500  0.696300  0.729100  1
  C  C620  1  0.930500  0.803700  0.270900  1
  C  C621  1  0.589800  0.314500  0.237300  1
  C  C622  1  0.089800  0.185500  0.762700  1
  C  C623  1  0.410200  0.685500  0.762700  1
  C  C624  1  0.910200  0.814500  0.237300  1
  C  C625  1  0.552300  0.340400  0.221800  1
  C  C626  1  0.052300  0.159600  0.778200  1
  C  C627  1  0.447700  0.659600  0.778200  1
  C  C628  1  0.947700  0.840400  0.221800  1
  C  C629  1  0.494500  0.355400  0.239800  1
  C  C630  1  0.994500  0.144600  0.760200  1
  C  C631  1  0.505500  0.644600  0.760200  1
  C  C632  1  0.005500  0.855400  0.239800  1
  C  C633  1  0.625400  0.362800  0.179000  1
  C  C634  1  0.125400  0.137200  0.821000  1
  C  C635  1  0.374600  0.637200  0.821000  1
  C  C636  1  0.874600  0.862800  0.179000  1
  C  C637  1  0.566200  0.345500  0.183500  1
  C  C638  1  0.066200  0.154500  0.816500  1
  C  C639  1  0.433800  0.654500  0.816500  1
  C  C640  1  0.933800  0.845500  0.183500  1
  C  C641  1  0.526500  0.331000  0.151200  1
  C  C642  1  0.026500  0.169000  0.848800  1
  C  C643  1  0.473500  0.669000  0.848800  1
  C  C644  1  0.973500  0.831000  0.151200  1
  C  C645  1  0.546000  0.333900  0.114300  1
  C  C646  1  0.046000  0.166100  0.885700  1
  C  C647  1  0.454000  0.666100  0.885700  1
  C  C648  1  0.954000  0.833900  0.114300  1
  C  C649  1  0.605200  0.351300  0.109690  1
  C  C650  1  0.105200  0.148700  0.890310  1
  C  C651  1  0.394800  0.648700  0.890310  1
  C  C652  1  0.894800  0.851300  0.109690  1
  C  C653  1  0.638500  0.349700  0.073700  1
  C  C654  1  0.138500  0.150300  0.926300  1
  C  C655  1  0.361500  0.650300  0.926300  1
  C  C656  1  0.861500  0.849700  0.073700  1
  C  C657  1  0.722600  0.367600  0.038400  1
  C  C658  1  0.222600  0.132400  0.961600  1
  C  C659  1  0.277400  0.632400  0.961600  1
  C  C660  1  0.777400  0.867600  0.038400  1
  C  C661  1  0.745700  0.331500  0.014600  1
  C  C662  1  0.245700  0.168500  0.985400  1
  C  C663  1  0.254300  0.668500  0.985400  1
  C  C664  1  0.754300  0.831500  0.014600  1
  C  C665  1  0.778400  0.331400  0.980100  1
  C  C666  1  0.278400  0.168600  0.019900  1
  C  C667  1  0.221600  0.668600  0.019900  1
  C  C668  1  0.721600  0.831400  0.980100  1
  C  C669  1  0.788000  0.367400  0.969500  1
  C  C670  1  0.288000  0.132600  0.030500  1
  C  C671  1  0.212000  0.632600  0.030500  1
  C  C672  1  0.712000  0.867400  0.969500  1
  C  C673  1  0.764900  0.403500  0.993300  1
  C  C674  1  0.264900  0.096500  0.006700  1
  C  C675  1  0.235100  0.596500  0.006700  1
  C  C676  1  0.735100  0.903500  0.993300  1
  C  C677  1  0.732200  0.403600  0.027800  1
  C  C678  1  0.232200  0.096400  0.972200  1
  C  C679  1  0.267800  0.596400  0.972200  1
  C  C680  1  0.767800  0.903600  0.027800  1
  C  C681  1  0.782100  0.303200  0.099200  1
  C  C682  1  0.282100  0.196800  0.900800  1
  C  C683  1  0.217900  0.696800  0.900800  1
  C  C684  1  0.717900  0.803200  0.099200  1
  C  C685  1  0.729500  0.277200  0.089900  1
  C  C686  1  0.229500  0.222800  0.910100  1
  C  C687  1  0.270500  0.722800  0.910100  1
  C  C688  1  0.770500  0.777200  0.089900  1
  C  C689  1  0.735600  0.240900  0.061400  1
  C  C690  1  0.235600  0.259100  0.938600  1
  C  C691  1  0.264400  0.759100  0.938600  1
  C  C692  1  0.764400  0.740900  0.061400  1
  C  C693  1  0.794200  0.230500  0.042200  1
  C  C694  1  0.294200  0.269500  0.957800  1
  C  C695  1  0.205800  0.769500  0.957800  1
  C  C696  1  0.705800  0.730500  0.042200  1
  C  C697  1  0.846700  0.256500  0.051500  1
  C  C698  1  0.346700  0.243500  0.948500  1
  C  C699  1  0.153300  0.743500  0.948500  1
  C  C700  1  0.653300  0.756500  0.051500  1
  C  C701  1  0.840700  0.292800  0.080000  1
  C  C702  1  0.340700  0.207200  0.920000  1
  C  C703  1  0.159300  0.707200  0.920000  1
  C  C704  1  0.659300  0.792800  0.080000  1
  C  C705  1  0.803900  0.341900  0.164400  1
  C  C706  1  0.303900  0.158100  0.835600  1
  C  C707  1  0.196100  0.658100  0.835600  1
  C  C708  1  0.696100  0.841900  0.164400  1
  C  C709  1  0.798800  0.379100  0.190600  1
  C  C710  1  0.298800  0.120900  0.809400  1
  C  C711  1  0.201200  0.620900  0.809400  1
  C  C712  1  0.701200  0.879100  0.190600  1
  C  C713  1  0.833000  0.388800  0.225800  1
  C  C714  1  0.333000  0.111200  0.774200  1
  C  C715  1  0.167000  0.611200  0.774200  1
  C  C716  1  0.667000  0.888800  0.225800  1
  C  C717  1  0.828200  0.427300  0.250700  1
  C  C718  1  0.328200  0.072700  0.749300  1
  C  C719  1  0.171800  0.572700  0.749300  1
  C  C720  1  0.671800  0.927300  0.250700  1
  C  C721  1  0.789200  0.456200  0.240600  1
  C  C722  1  0.289200  0.043800  0.759400  1
  C  C723  1  0.210800  0.543800  0.759400  1
  C  C724  1  0.710800  0.956200  0.240600  1
  C  C725  1  0.755000  0.446500  0.205500  1
  C  C726  1  0.255000  0.053500  0.794500  1
  C  C727  1  0.245000  0.553500  0.794500  1
  C  C728  1  0.745000  0.946500  0.205500  1
  C  C729  1  0.758800  0.509700  0.302800  1
  C  C730  1  0.258800  0.990300  0.697200  1
  C  C731  1  0.241200  0.490300  0.697200  1
  C  C732  1  0.741200  0.009700  0.302800  1
  C  C733  1  0.788700  0.498800  0.266700  1
  C  C734  1  0.288700  0.001200  0.733300  1
  C  C735  1  0.211300  0.501200  0.733300  1
  C  C736  1  0.711300  0.998800  0.266700  1
  C  C737  1  0.827900  0.525900  0.258200  1
  C  C738  1  0.327900  0.974100  0.741800  1
  C  C739  1  0.172100  0.474100  0.741800  1
  C  C740  1  0.672100  0.025900  0.258200  1
  C  C741  1  0.830800  0.567300  0.281400  1
  C  C742  1  0.330800  0.932700  0.718600  1
  C  C743  1  0.169200  0.432700  0.718600  1
  C  C744  1  0.669200  0.067300  0.281400  1
  C  C745  1  0.795800  0.572400  0.316300  1
  C  C746  1  0.295800  0.927600  0.683700  1
  C  C747  1  0.204200  0.427600  0.683700  1
  C  C748  1  0.704200  0.072400  0.316300  1
  C  C749  1  0.804700  0.609900  0.347700  1
  C  C750  1  0.304700  0.890100  0.652300  1
  C  C751  1  0.195300  0.390100  0.652300  1
  C  C752  1  0.695300  0.109900  0.347700  1
  C  C753  1  0.777300  0.648500  0.409900  1
  C  C754  1  0.277300  0.851500  0.590100  1
  C  C755  1  0.222700  0.351500  0.590100  1
  C  C756  1  0.722700  0.148500  0.409900  1
  C  C757  1  0.836500  0.659600  0.427900  1
  C  C758  1  0.336500  0.840400  0.572100  1
  C  C759  1  0.163500  0.340400  0.572100  1
  C  C760  1  0.663500  0.159600  0.427900  1
  C  C761  1  0.842800  0.696300  0.456000  1
  C  C762  1  0.342800  0.803700  0.544000  1
  C  C763  1  0.157200  0.303700  0.544000  1
  C  C764  1  0.657200  0.196300  0.456000  1
  C  C765  1  0.789700  0.721700  0.466000  1
  C  C766  1  0.289700  0.778300  0.534000  1
  C  C767  1  0.210300  0.278300  0.534000  1
  C  C768  1  0.710300  0.221700  0.466000  1
  C  C769  1  0.730500  0.710500  0.448000  1
  C  C770  1  0.230500  0.789500  0.552000  1
  C  C771  1  0.269500  0.289500  0.552000  1
  C  C772  1  0.769500  0.210500  0.448000  1
  C  C773  1  0.724200  0.673900  0.419900  1
  C  C774  1  0.224200  0.826100  0.580100  1
  C  C775  1  0.275800  0.326100  0.580100  1
  C  C776  1  0.775800  0.173900  0.419900  1
  C  C777  1  0.338700  0.277600  0.269600  1
  C  C778  1  0.838700  0.222400  0.730400  1
  C  C779  1  0.661300  0.722400  0.730400  1
  C  C780  1  0.161300  0.777600  0.269600  1
  C  C781  1  0.285100  0.269500  0.290100  1
  C  C782  1  0.785100  0.230500  0.709900  1
  C  C783  1  0.714900  0.730500  0.709900  1
  C  C784  1  0.214900  0.769500  0.290100  1
  C  C785  1  0.276700  0.231200  0.296200  1
  C  C786  1  0.776700  0.268800  0.703800  1
  C  C787  1  0.723300  0.768800  0.703800  1
  C  C788  1  0.223300  0.731200  0.296200  1
  C  C789  1  0.321800  0.201100  0.281700  1
  C  C790  1  0.821800  0.298900  0.718300  1
  C  C791  1  0.678200  0.798900  0.718300  1
  C  C792  1  0.178200  0.701100  0.281700  1
  C  C793  1  0.375400  0.209200  0.261200  1
  C  C794  1  0.875400  0.290800  0.738800  1
  C  C795  1  0.624600  0.790800  0.738800  1
  C  C796  1  0.124600  0.709200  0.261200  1
  C  C797  1  0.383900  0.247400  0.255200  1
  C  C798  1  0.883900  0.252600  0.744800  1
  C  C799  1  0.616100  0.752600  0.744800  1
  C  C800  1  0.116100  0.747400  0.255200  1
  C  C801  1  0.318300  0.333800  0.243700  1
  C  C802  1  0.818300  0.166200  0.756300  1
  C  C803  1  0.681700  0.666200  0.756300  1
  C  C804  1  0.181700  0.833800  0.243700  1
  C  C805  1  0.319700  0.377100  0.243000  1
  C  C806  1  0.819700  0.122900  0.757000  1
  C  C807  1  0.680300  0.622900  0.757000  1
  C  C808  1  0.180300  0.877100  0.243000  1
  C  C809  1  0.288400  0.396300  0.218900  1
  C  C810  1  0.788400  0.103700  0.781100  1
  C  C811  1  0.711600  0.603700  0.781100  1
  C  C812  1  0.211600  0.896300  0.218900  1
  C  C813  1  0.294900  0.435600  0.223400  1
  C  C814  1  0.794900  0.064400  0.776600  1
  C  C815  1  0.705100  0.564400  0.776600  1
  C  C816  1  0.205100  0.935600  0.223400  1
  C  C817  1  0.335400  0.456200  0.251800  1
  C  C818  1  0.835400  0.043800  0.748200  1
  C  C819  1  0.664600  0.543800  0.748200  1
  C  C820  1  0.164600  0.956200  0.251800  1
  C  C821  1  0.368000  0.438300  0.275800  1
  C  C822  1  0.868000  0.061700  0.724200  1
  C  C823  1  0.632000  0.561700  0.724200  1
  C  C824  1  0.132000  0.938300  0.275800  1
  C  C825  1  0.366300  0.517400  0.227000  1
  C  C826  1  0.866300  0.982600  0.773000  1
  C  C827  1  0.633700  0.482600  0.773000  1
  C  C828  1  0.133700  0.017400  0.227000  1
  C  C829  1  0.345000  0.501460  0.257400  1
  C  C830  1  0.845000  0.998540  0.742600  1
  C  C831  1  0.655000  0.498540  0.742600  1
  C  C832  1  0.155000  0.001460  0.257400  1
  C  C833  1  0.324100  0.527100  0.292400  1
  C  C834  1  0.824100  0.972900  0.707600  1
  C  C835  1  0.675900  0.472900  0.707600  1
  C  C836  1  0.175900  0.027100  0.292400  1
  C  C837  1  0.324500  0.568700  0.297140  1
  C  C838  1  0.824500  0.931300  0.702860  1
  C  C839  1  0.675500  0.431300  0.702860  1
  C  C840  1  0.175500  0.068700  0.297140  1
  C  C841  1  0.345800  0.584660  0.266800  1
  C  C842  1  0.845800  0.915340  0.733200  1
  C  C843  1  0.654200  0.415340  0.733200  1
  C  C844  1  0.154200  0.084660  0.266800  1
  C  C845  1  0.337700  0.623000  0.265400  1
  C  C846  1  0.837700  0.877000  0.734600  1
  C  C847  1  0.662300  0.377000  0.734600  1
  C  C848  1  0.162300  0.123000  0.265400  1
  C  C849  1  0.353600  0.673400  0.231000  1
  C  C850  1  0.853600  0.826600  0.769000  1
  C  C851  1  0.646400  0.326600  0.769000  1
  C  C852  1  0.146400  0.173400  0.231000  1
  C  C853  1  0.307100  0.684800  0.207400  1
  C  C854  1  0.807100  0.815200  0.792600  1
  C  C855  1  0.692900  0.315200  0.792600  1
  C  C856  1  0.192900  0.184800  0.207400  1
  C  C857  1  0.303400  0.724800  0.205300  1
  C  C858  1  0.803400  0.775200  0.794700  1
  C  C859  1  0.696600  0.275200  0.794700  1
  C  C860  1  0.196600  0.224800  0.205300  1
  C  C861  1  0.346200  0.753300  0.226700  1
  C  C862  1  0.846200  0.746700  0.773300  1
  C  C863  1  0.653800  0.246700  0.773300  1
  C  C864  1  0.153800  0.253300  0.226700  1
  C  C865  1  0.392700  0.741900  0.250300  1
  C  C866  1  0.892700  0.758100  0.749700  1
  C  C867  1  0.607300  0.258100  0.749700  1
  C  C868  1  0.107300  0.241900  0.250300  1
  C  C869  1  0.396400  0.701900  0.252400  1
  C  C870  1  0.896400  0.798100  0.747600  1
  C  C871  1  0.603600  0.298100  0.747600  1
  C  C872  1  0.103600  0.201900  0.252400  1
  C  C873  1  0.711600  0.584100  0.471100  1
  C  C874  1  0.211600  0.915900  0.528900  1
  C  C875  1  0.288400  0.415900  0.528900  1
  C  C876  1  0.788400  0.084100  0.471100  1
  C  C877  1  0.747400  0.616500  0.492900  1
  C  C878  1  0.247400  0.883500  0.507100  1
  C  C879  1  0.252600  0.383500  0.507100  1
  C  C880  1  0.752600  0.116500  0.492900  1
  C  C881  1  0.774500  0.614600  0.528500  1
  C  C882  1  0.274500  0.885400  0.471500  1
  C  C883  1  0.225500  0.385400  0.471500  1
  C  C884  1  0.725500  0.114600  0.528500  1
  C  C885  1  0.765800  0.580300  0.542300  1
  C  C886  1  0.265800  0.919700  0.457700  1
  C  C887  1  0.234200  0.419700  0.457700  1
  C  C888  1  0.734200  0.080300  0.542300  1
  C  C889  1  0.730000  0.548000  0.520500  1
  C  C890  1  0.230000  0.952000  0.479500  1
  C  C891  1  0.270000  0.452000  0.479500  1
  C  C892  1  0.770000  0.048000  0.520500  1
  C  C893  1  0.702900  0.549800  0.484900  1
  C  C894  1  0.202900  0.950200  0.515100  1
  C  C895  1  0.297100  0.450200  0.515100  1
  C  C896  1  0.797100  0.049800  0.484900  1
  C  C897  1  0.626200  0.595500  0.432000  1
  C  C898  1  0.126200  0.904500  0.568000  1
  C  C899  1  0.373800  0.404500  0.568000  1
  C  C900  1  0.873800  0.095500  0.432000  1
  C  C901  1  0.598600  0.595900  0.395100  1
  C  C902  1  0.098600  0.904100  0.604900  1
  C  C903  1  0.401400  0.404100  0.604900  1
  C  C904  1  0.901400  0.095900  0.395100  1
  C  C905  1  0.536600  0.608200  0.389600  1
  C  C906  1  0.036600  0.891800  0.610400  1
  C  C907  1  0.463400  0.391800  0.610400  1
  C  C908  1  0.963400  0.108200  0.389600  1
  C  C909  1  0.515200  0.607400  0.351800  1
  C  C910  1  0.015200  0.892600  0.648200  1
  C  C911  1  0.484800  0.392600  0.648200  1
  C  C912  1  0.984800  0.107400  0.351800  1
  C  C913  1  0.565300  0.603200  0.322800  1
  C  C914  1  0.065300  0.896800  0.677200  1
  C  C915  1  0.434700  0.396800  0.677200  1
  C  C916  1  0.934700  0.103200  0.322800  1
  C  C917  1  0.625900  0.591500  0.330500  1
  C  C918  1  0.125900  0.908500  0.669500  1
  C  C919  1  0.374100  0.408500  0.669500  1
  C  C920  1  0.874100  0.091500  0.330500  1
  C  C921  1  0.497900  0.599500  0.260400  1
  C  C922  1  0.997900  0.900500  0.739600  1
  C  C923  1  0.502100  0.400500  0.739600  1
  C  C924  1  0.002100  0.099500  0.260400  1
  C  C925  1  0.549600  0.615200  0.283900  1
  C  C926  1  0.049600  0.884800  0.716100  1
  C  C927  1  0.450400  0.384800  0.716100  1
  C  C928  1  0.950400  0.115200  0.283900  1
  C  C929  1  0.585500  0.641500  0.268800  1
  C  C930  1  0.085500  0.858500  0.731200  1
  C  C931  1  0.414500  0.358500  0.731200  1
  C  C932  1  0.914500  0.141500  0.268800  1
  C  C933  1  0.568000  0.649800  0.234600  1
  C  C934  1  0.068000  0.850200  0.765400  1
  C  C935  1  0.432000  0.350200  0.765400  1
  C  C936  1  0.932000  0.149800  0.234600  1
  C  C937  1  0.517700  0.634500  0.216500  1
  C  C938  1  0.017700  0.865500  0.783500  1
  C  C939  1  0.482300  0.365500  0.783500  1
  C  C940  1  0.982300  0.134500  0.216500  1
  C  C941  1  0.492800  0.641300  0.182900  1
  C  C942  1  0.992800  0.858700  0.817100  1
  C  C943  1  0.507200  0.358700  0.817100  1
  C  C944  1  0.007200  0.141300  0.182900  1
  C  C945  1  0.422400  0.628500  0.127200  1
  C  C946  1  0.922400  0.871500  0.872800  1
  C  C947  1  0.577600  0.371500  0.872800  1
  C  C948  1  0.077600  0.128500  0.127200  1
  C  C949  1  0.394100  0.664800  0.125200  1
  C  C950  1  0.894100  0.835200  0.874800  1
  C  C951  1  0.605900  0.335200  0.874800  1
  C  C952  1  0.105900  0.164800  0.125200  1
  C  C953  1  0.372400  0.669900  0.089400  1
  C  C954  1  0.872400  0.830100  0.910600  1
  C  C955  1  0.627600  0.330100  0.910600  1
  C  C956  1  0.127600  0.169900  0.089400  1
  C  C957  1  0.379000  0.638600  0.055600  1
  C  C958  1  0.879000  0.861400  0.944400  1
  C  C959  1  0.621000  0.361400  0.944400  1
  C  C960  1  0.121000  0.138600  0.055600  1
  C  C961  1  0.407300  0.602300  0.057500  1
  C  C962  1  0.907300  0.897700  0.942500  1
  C  C963  1  0.592700  0.397700  0.942500  1
  C  C964  1  0.092700  0.102300  0.057500  1
  C  C965  1  0.429000  0.597300  0.093300  1
  C  C966  1  0.929000  0.902700  0.906700  1
  C  C967  1  0.571000  0.402700  0.906700  1
  C  C968  1  0.071000  0.097300  0.093300  1
  C  C969  1  0.867700  0.402600  0.102600  1
  C  C970  1  0.367700  0.097400  0.897400  1
  C  C971  1  0.132300  0.597400  0.897400  1
  C  C972  1  0.632300  0.902600  0.102600  1
  C  C973  1  0.886400  0.379200  0.066000  1
  C  C974  1  0.386400  0.120800  0.934000  1
  C  C975  1  0.113600  0.620800  0.934000  1
  C  C976  1  0.613600  0.879200  0.066000  1
  C  C977  1  0.950800  0.368500  0.058700  1
  C  C978  1  0.450800  0.131500  0.941300  1
  C  C979  1  0.049200  0.631500  0.941300  1
  C  C980  1  0.549200  0.868500  0.058700  1
  C  C981  1  0.996600  0.381100  0.088100  1
  C  C982  1  0.496600  0.118900  0.911900  1
  C  C983  1  0.003400  0.618900  0.911900  1
  C  C984  1  0.503400  0.881100  0.088100  1
  C  C985  1  0.978000  0.404500  0.124800  1
  C  C986  1  0.478000  0.095500  0.875200  1
  C  C987  1  0.022000  0.595500  0.875200  1
  C  C988  1  0.522000  0.904500  0.124800  1
  C  C989  1  0.913500  0.415300  0.132000  1
  C  C990  1  0.413500  0.084700  0.868000  1
  C  C991  1  0.086500  0.584700  0.868000  1
  C  C992  1  0.586500  0.915300  0.132000  1
  C  C993  1  0.790700  0.459100  0.115700  1
  C  C994  1  0.290700  0.040900  0.884300  1
  C  C995  1  0.209300  0.540900  0.884300  1
  C  C996  1  0.709300  0.959100  0.115700  1
  C  C997  1  0.730100  0.472700  0.123800  1
  C  C998  1  0.230100  0.027300  0.876200  1
  C  C999  1  0.269900  0.527300  0.876200  1
  C  C1000  1  0.769900  0.972700  0.123800  1
  C  C1001  1  0.710400  0.509900  0.125500  1
  C  C1002  1  0.210400  0.990100  0.874500  1
  C  C1003  1  0.289600  0.490100  0.874500  1
  C  C1004  1  0.789600  0.009900  0.125500  1
  C  C1005  1  0.643500  0.520200  0.129800  1
  C  C1006  1  0.143500  0.979800  0.870200  1
  C  C1007  1  0.356500  0.479800  0.870200  1
  C  C1008  1  0.856500  0.020200  0.129800  1
  C  C1009  1  0.600800  0.490700  0.131400  1
  C  C1010  1  0.100800  0.009300  0.868600  1
  C  C1011  1  0.399200  0.509300  0.868600  1
  C  C1012  1  0.899200  0.990700  0.131400  1
  C  C1013  1  0.626300  0.451600  0.131500  1
  C  C1014  1  0.126300  0.048400  0.868500  1
  C  C1015  1  0.373700  0.548400  0.868500  1
  C  C1016  1  0.873700  0.951600  0.131500  1
  C  C1017  1  0.504200  0.530400  0.159500  1
  C  C1018  1  0.004200  0.969600  0.840500  1
  C  C1019  1  0.495800  0.469600  0.840500  1
  C  C1020  1  0.995800  0.030400  0.159500  1
  C  C1021  1  0.531700  0.499200  0.131700  1
  C  C1022  1  0.031700  0.000800  0.868300  1
  C  C1023  1  0.468300  0.500800  0.868300  1
  C  C1024  1  0.968300  0.999200  0.131700  1
  C  C1025  1  0.489000  0.476600  0.104200  1
  C  C1026  1  0.989000  0.023400  0.895800  1
  C  C1027  1  0.511000  0.523400  0.895800  1
  C  C1028  1  0.011000  0.976600  0.104200  1
  C  C1029  1  0.425200  0.488200  0.103500  1
  C  C1030  1  0.925200  0.011800  0.896500  1
  C  C1031  1  0.574800  0.511800  0.896500  1
  C  C1032  1  0.074800  0.988200  0.103500  1
  C  C1033  1  0.406300  0.519600  0.132300  1
  C  C1034  1  0.906300  0.980400  0.867700  1
  C  C1035  1  0.593700  0.480400  0.867700  1
  C  C1036  1  0.093700  0.019600  0.132300  1
  C  C1037  1  0.342600  0.541200  0.133300  1
  C  C1038  1  0.842600  0.958800  0.866700  1
  C  C1039  1  0.657400  0.458800  0.866700  1
  C  C1040  1  0.157400  0.041200  0.133300  1
  C  C1041  1  0.265100  0.588200  0.160300  1
  C  C1042  1  0.765100  0.911800  0.839700  1
  C  C1043  1  0.734900  0.411800  0.839700  1
  C  C1044  1  0.234900  0.088200  0.160300  1
  C  C1045  1  0.224900  0.587700  0.191700  1
  C  C1046  1  0.724900  0.912300  0.808300  1
  C  C1047  1  0.775100  0.412300  0.808300  1
  C  C1048  1  0.275100  0.087700  0.191700  1
  C  C1049  1  0.163500  0.604500  0.193700  1
  C  C1050  1  0.663500  0.895500  0.806300  1
  C  C1051  1  0.836500  0.395500  0.806300  1
  C  C1052  1  0.336500  0.104500  0.193700  1
  C  C1053  1  0.142200  0.621700  0.164200  1
  C  C1054  1  0.642200  0.878300  0.835800  1
  C  C1055  1  0.857800  0.378300  0.835800  1
  C  C1056  1  0.357800  0.121700  0.164200  1
  C  C1057  1  0.182500  0.622100  0.132700  1
  C  C1058  1  0.682500  0.877900  0.867300  1
  C  C1059  1  0.817500  0.377900  0.867300  1
  C  C1060  1  0.317500  0.122100  0.132700  1
  C  C1061  1  0.243900  0.605400  0.130800  1
  C  C1062  1  0.743900  0.894600  0.869200  1
  C  C1063  1  0.756100  0.394600  0.869200  1
  C  C1064  1  0.256100  0.105400  0.130800  1
  N  N1065  1  0.502700  0.502500  0.294500  1
  N  N1066  1  0.002700  0.997500  0.705500  1
  N  N1067  1  0.497300  0.497500  0.705500  1
  N  N1068  1  0.997300  0.002500  0.294500  1
  N  N1069  1  0.853500  0.429600  0.339000  1
  N  N1070  1  0.353500  0.070400  0.661000  1
  N  N1071  1  0.146500  0.570400  0.661000  1
  N  N1072  1  0.646500  0.929600  0.339000  1
  N  N1073  1  0.321000  0.385300  0.340300  1
  N  N1074  1  0.821000  0.114700  0.659700  1
  N  N1075  1  0.679000  0.614700  0.659700  1
  N  N1076  1  0.179000  0.885300  0.340300  1
  N  N1077  1  0.438800  0.411200  0.342300  1
  N  N1078  1  0.938800  0.088800  0.657700  1
  N  N1079  1  0.561200  0.588800  0.657700  1
  N  N1080  1  0.061200  0.911200  0.342300  1
  N  N1081  1  0.682200  0.511200  0.380400  1
  N  N1082  1  0.182200  0.988800  0.619600  1
  N  N1083  1  0.317800  0.488800  0.619600  1
  N  N1084  1  0.817800  0.011200  0.380400  1
  N  N1085  1  0.794600  0.536100  0.401500  1
  N  N1086  1  0.294600  0.963900  0.598500  1
  N  N1087  1  0.205400  0.463900  0.598500  1
  N  N1088  1  0.705400  0.036100  0.401500  1
  N  N1089  1  0.437200  0.327100  0.336100  1
  N  N1090  1  0.937200  0.172900  0.663900  1
  N  N1091  1  0.562800  0.672900  0.663900  1
  N  N1092  1  0.062800  0.827100  0.336100  1
  N  N1093  1  0.693500  0.368100  0.075500  1
  N  N1094  1  0.193500  0.131900  0.924500  1
  N  N1095  1  0.306500  0.631900  0.924500  1
  N  N1096  1  0.806500  0.868100  0.075500  1
  N  N1097  1  0.474200  0.344600  0.273300  1
  N  N1098  1  0.974200  0.155400  0.726700  1
  N  N1099  1  0.525800  0.655400  0.726700  1
  N  N1100  1  0.025800  0.844600  0.273300  1
  N  N1101  1  0.644900  0.365800  0.142000  1
  N  N1102  1  0.144900  0.134200  0.858000  1
  N  N1103  1  0.355100  0.634200  0.858000  1
  N  N1104  1  0.855100  0.865800  0.142000  1
  N  N1105  1  0.777400  0.338300  0.129700  1
  N  N1106  1  0.277400  0.161700  0.870300  1
  N  N1107  1  0.222600  0.661700  0.870300  1
  N  N1108  1  0.722600  0.838300  0.129700  1
  N  N1109  1  0.757500  0.542400  0.328000  1
  N  N1110  1  0.257500  0.957600  0.672000  1
  N  N1111  1  0.242500  0.457600  0.672000  1
  N  N1112  1  0.742500  0.042400  0.328000  1
  N  N1113  1  0.769900  0.613900  0.379800  1
  N  N1114  1  0.269900  0.886100  0.620200  1
  N  N1115  1  0.230100  0.386100  0.620200  1
  N  N1116  1  0.730100  0.113900  0.379800  1
  N  N1117  1  0.759800  0.408000  0.180500  1
  N  N1118  1  0.259800  0.092000  0.819500  1
  N  N1119  1  0.240200  0.592000  0.819500  1
  N  N1120  1  0.740200  0.908000  0.180500  1
  N  N1121  1  0.345300  0.322600  0.269800  1
  N  N1122  1  0.845300  0.177400  0.730200  1
  N  N1123  1  0.654700  0.677400  0.730200  1
  N  N1124  1  0.154700  0.822600  0.269800  1
  N  N1125  1  0.360600  0.395800  0.271100  1
  N  N1126  1  0.860600  0.104200  0.728900  1
  N  N1127  1  0.639400  0.604200  0.728900  1
  N  N1128  1  0.139400  0.895800  0.271100  1
  N  N1129  1  0.356900  0.633500  0.232500  1
  N  N1130  1  0.856900  0.866500  0.767500  1
  N  N1131  1  0.643100  0.366500  0.767500  1
  N  N1132  1  0.143100  0.133500  0.232500  1
  N  N1133  1  0.366800  0.559000  0.231700  1
  N  N1134  1  0.866800  0.941000  0.768300  1
  N  N1135  1  0.633200  0.441000  0.768300  1
  N  N1136  1  0.133200  0.059000  0.231700  1
  N  N1137  1  0.681500  0.584300  0.434800  1
  N  N1138  1  0.181500  0.915700  0.565200  1
  N  N1139  1  0.318500  0.415700  0.565200  1
  N  N1140  1  0.818500  0.084300  0.434800  1
  N  N1141  1  0.640300  0.588000  0.366400  1
  N  N1142  1  0.140300  0.912000  0.633600  1
  N  N1143  1  0.359700  0.412000  0.633600  1
  N  N1144  1  0.859700  0.088000  0.366400  1
  N  N1145  1  0.478600  0.606400  0.228700  1
  N  N1146  1  0.978600  0.893600  0.771300  1
  N  N1147  1  0.521400  0.393600  0.771300  1
  N  N1148  1  0.021400  0.106400  0.228700  1
  N  N1149  1  0.438200  0.622600  0.164900  1
  N  N1150  1  0.938200  0.877400  0.835100  1
  N  N1151  1  0.561800  0.377400  0.835100  1
  N  N1152  1  0.061800  0.122600  0.164900  1
  N  N1153  1  0.804200  0.415100  0.109800  1
  N  N1154  1  0.304200  0.084900  0.890200  1
  N  N1155  1  0.195800  0.584900  0.890200  1
  N  N1156  1  0.695800  0.915100  0.109800  1
  N  N1157  1  0.683600  0.440800  0.126100  1
  N  N1158  1  0.183600  0.059200  0.873900  1
  N  N1159  1  0.316400  0.559200  0.873900  1
  N  N1160  1  0.816400  0.940800  0.126100  1
  N  N1161  1  0.442400  0.541800  0.159500  1
  N  N1162  1  0.942400  0.958200  0.840500  1
  N  N1163  1  0.557600  0.458200  0.840500  1
  N  N1164  1  0.057600  0.041800  0.159500  1
  N  N1165  1  0.327500  0.570300  0.157700  1
  N  N1166  1  0.827500  0.929700  0.842300  1
  N  N1167  1  0.672500  0.429700  0.842300  1
  N  N1168  1  0.172500  0.070300  0.157700  1
