
#######################################################################
#
#                 Cambridge Crystallographic Data Centre
#                                CCDC 
#
#######################################################################
#
# If this CIF has been generated from an entry in the Cambridge 
# Structural Database, then it will include bibliographic, chemical, 
# crystal, experimental, refinement or atomic coordinate data resulting 
# from the CCDC's data processing and validation procedures.
#
#######################################################################

data_UNAQEG
_chemical_formula_moiety         
'C144 H108 Fe4 N24 8+,2(C2 H3 N1),8(C2 F6 N1 O4 S2 1-)'
_chemical_name_systematic        
"hexakis(\m~2~-6,6'-bis(Phenyliminomethyl)-3,3'-bipyridine)-tetra-iron(ii) octakis(bis(trifluoromethanesulfonyl)imide) acetonitrile solvate"
_symmetry_cell_setting           monoclinic
_symmetry_space_group_name_H-M   'P 21/c'
_symmetry_Int_Tables_number      14
_space_group_name_Hall           '-P 2ybc'
loop_
_symmetry_equiv_pos_site_id
_symmetry_equiv_pos_as_xyz
1 x,y,z
2 -x,1/2+y,1/2-z
3 -x,-y,-z
4 x,1/2-y,1/2+z
_cell_length_a                   35.2292(14)
_cell_length_b                   20.7057(7)
_cell_length_c                   34.2007(10)
_cell_angle_alpha                90
_cell_angle_beta                 104.740(2)
_cell_angle_gamma                90
_cell_volume                     24126.5
_exptl_crystal_colour            purple
_exptl_crystal_description       plate
_cell_formula_units_Z            4
loop_
_atom_site_label
_atom_site_type_symbol
_atom_site_fract_x
_atom_site_fract_y
_atom_site_fract_z
C145 C 0.2408(3) 0.5783(5) 0.4706(4)
H109 H 0.2333 0.6030 0.4919
H110 H 0.2180 0.5547 0.4547
H111 H 0.2504 0.6080 0.4529
C146 C 0.2693(3) 0.5363(4) 0.4875(2)
N25 N 0.2945(3) 0.5027(4) 0.5025(3)
N26 N 0.3390(3) 0.8535(4) 0.4296(3)
C147 C 0.3514(3) 0.9006(4) 0.4329(3)
C148 C 0.3738(4) 0.9708(4) 0.4376(4)
H112 H 0.3912 0.9747 0.4649
H113 H 0.3543 1.0056 0.4331
H114 H 0.3894 0.9741 0.4176
Fe1 Fe 0.38095(5) 0.72285(8) 0.56390(6)
Fe2 Fe 0.30673(6) 0.39572(9) 0.36438(6)
Fe3 Fe 0.19562(6) 0.39996(9) 0.58915(6)
Fe4 Fe 0.12619(6) 0.72723(9) 0.38951(6)
N1 N 0.3403(3) 0.3210(4) 0.3853(3)
N2 N 0.3423(3) 0.4388(5) 0.4112(3)
N3 N 0.3804(3) 0.6822(5) 0.5112(3)
N4 N 0.4015(3) 0.7946(5) 0.5361(3)
C1 C 0.3419(3) 0.2574(4) 0.3691(3)
C2 C 0.3652(3) 0.2446(4) 0.3427(3)
H1 H 0.3815 0.2775 0.3364
C3 C 0.3646(3) 0.1836(5) 0.3255(3)
H2 H 0.3805 0.1748 0.3075
C4 C 0.3408(3) 0.1354(4) 0.3348(3)
H3 H 0.3405 0.0938 0.3231
C5 C 0.3176(3) 0.1483(4) 0.3612(3)
H4 H 0.3013 0.1154 0.3675
C6 C 0.3181(3) 0.2092(5) 0.3783(3)
H5 H 0.3023 0.2180 0.3964
C7 C 0.3625(4) 0.3314(6) 0.4220(4)
H6 H 0.3778 0.2977 0.4370
C8 C 0.3628(4) 0.3978(6) 0.4392(4)
C9 C 0.3864(5) 0.4124(7) 0.4762(4)
H7 H 0.4023 0.3809 0.4929
C10 C 0.3857(5) 0.4762(7) 0.4878(5)
H8 H 0.3957 0.4884 0.5153
C11 C 0.3695(4) 0.5236(7) 0.4576(4)
C12 C 0.3450(4) 0.4980(6) 0.4193(4)
H9 H 0.3306 0.5276 0.3999
C13 C 0.3720(4) 0.6170(6) 0.5008(4)
H10 H 0.3643 0.5895 0.5197
C14 C 0.3745(4) 0.5921(6) 0.4649(4)
C15 C 0.3851(4) 0.6317(6) 0.4366(4)
H11 H 0.3855 0.6165 0.4104
C16 C 0.3949(4) 0.6922(7) 0.4484(5)
H12 H 0.4022 0.7204 0.4297
C17 C 0.3951(4) 0.7164(6) 0.4859(4)
C18 C 0.4064(4) 0.7856(6) 0.5028(4)
H13 H 0.4162 0.8179 0.4882
C19 C 0.4084(3) 0.8602(4) 0.5489(3)
C20 C 0.3776(2) 0.9033(5) 0.5463(3)
H14 H 0.3514 0.8897 0.5350
C21 C 0.3852(3) 0.9662(5) 0.5603(3)
H15 H 0.3642 0.9956 0.5586
C22 C 0.4237(4) 0.9860(4) 0.5769(3)
H16 H 0.4289 1.0290 0.5864
C23 C 0.4545(3) 0.9429(5) 0.5794(3)
H17 H 0.4807 0.9565 0.5907
C24 C 0.4469(3) 0.8800(4) 0.5654(3)
H18 H 0.4679 0.8506 0.5672
N5 N 0.3361(4) 0.4372(5) 0.3271(3)
N6 N 0.0755(3) 0.6935(4) 0.3681(3)
C25 C 0.3720(3) 0.4062(4) 0.3219(3)
C26 C 0.4061(3) 0.4058(4) 0.3532(2)
H19 H 0.4056 0.4206 0.3793
C27 C 0.4411(3) 0.3836(5) 0.3462(3)
H20 H 0.4644 0.3833 0.3675
C28 C 0.4420(3) 0.3620(5) 0.3079(4)
H21 H 0.4658 0.3469 0.3032
C29 C 0.4079(4) 0.3625(5) 0.2767(3)
H22 H 0.4084 0.3477 0.2506
C30 C 0.3729(3) 0.3846(4) 0.2837(2)
H23 H 0.3496 0.3849 0.2623
C31 C 0.3267(4) 0.4882(7) 0.3108(4)
H24 H 0.3411 0.5106 0.2951
N7 N 0.2733(2) 0.4742(3) 0.3446(2)
C32 C 0.2889(2) 0.5117(4) 0.3187(3)
C33 C 0.2709(3) 0.5695(4) 0.3037(2)
H25 H 0.2815 0.5952 0.2860
C34 C 0.2373(2) 0.5898(3) 0.3145(2)
H26 H 0.2250 0.6293 0.3042
C35 C 0.2218(2) 0.5523(4) 0.3404(2)
C36 C 0.2398(2) 0.4945(4) 0.3554(2)
H27 H 0.2291 0.4688 0.3731
N8 N 0.1420(2) 0.6449(3) 0.3658(2)
C37 C 0.1790(2) 0.6254(4) 0.3628(3)
H28 H 0.2011 0.6525 0.3727
C38 C 0.1835(2) 0.5662(4) 0.3455(3)
C39 C 0.1512(3) 0.5265(3) 0.3310(2)
H29 H 0.1543 0.4860 0.3191
C40 C 0.1143(2) 0.5460(4) 0.3339(3)
H30 H 0.0922 0.5188 0.3240
C41 C 0.10969(19) 0.6052(4) 0.3513(2)
C42 C 0.0737(4) 0.6385(6) 0.3497(4)
H31 H 0.0492 0.6207 0.3356
C43 C 0.0384(3) 0.7226(4) 0.3676(3)
C44 C 0.0146(3) 0.7457(5) 0.3315(2)
H32 H 0.0219 0.7392 0.3068
C45 C -0.0199(3) 0.7784(5) 0.3314(3)
H33 H -0.0362 0.7942 0.3067
C46 C -0.0305(3) 0.7880(5) 0.3674(4)
H34 H -0.0541 0.8103 0.3673
C47 C -0.0067(3) 0.7649(5) 0.4035(3)
H35 H -0.0140 0.7714 0.4281
C48 C 0.0278(3) 0.7322(4) 0.4036(2)
H36 H 0.0441 0.7164 0.4283
N9 N 0.1297(3) 0.7774(5) 0.3383(3)
N10 N 0.3280(3) 0.7575(4) 0.5424(3)
N11 N 0.3798(3) 0.7699(4) 0.6139(3)
C49 C 0.0992(3) 0.7821(5) 0.3032(2)
C50 C 0.0899(3) 0.7295(4) 0.2772(3)
H37 H 0.1030 0.6895 0.2843
C51 C 0.0614(3) 0.7356(4) 0.2409(3)
H38 H 0.0550 0.6997 0.2231
C52 C 0.0422(3) 0.7942(5) 0.2305(3)
H39 H 0.0227 0.7983 0.2057
C53 C 0.0515(3) 0.8467(4) 0.2565(3)
H40 H 0.0384 0.8868 0.2495
C54 C 0.0800(3) 0.8407(4) 0.2928(3)
H41 H 0.0864 0.8766 0.3106
C55 C 0.1644(4) 0.8039(5) 0.3419(4)
H42 H 0.1709 0.8253 0.3200
C56 C 0.1906(3) 0.7988(4) 0.3791(2)
C57 C 0.2258(3) 0.8330(4) 0.3888(3)
H43 H 0.2327 0.8596 0.3691
C58 C 0.2507(2) 0.8282(4) 0.4273(3)
H44 H 0.2747 0.8515 0.4340
C59 C 0.2406(2) 0.7892(5) 0.4562(2)
C60 C 0.2055(2) 0.7550(3) 0.4465(2)
H45 H 0.1986 0.7284 0.4662
N12 N 0.18050(19) 0.7598(3) 0.4080(2)
C61 C 0.3028(5) 0.7588(7) 0.5097(5)
H46 H 0.3096 0.7353 0.4886
C62 C 0.2667(4) 0.7887(6) 0.4988(4)
C63 C 0.2582(4) 0.8279(6) 0.5259(4)
H47 H 0.2360 0.8553 0.5178
C64 C 0.2814(4) 0.8308(6) 0.5673(4)
H48 H 0.2739 0.8535 0.5883
C65 C 0.3163(4) 0.7958(6) 0.5724(4)
C66 C 0.3477(5) 0.8047(7) 0.6099(4)
H49 H 0.3449 0.8341 0.6303
C67 C 0.4099(3) 0.7773(5) 0.6485(2)
C68 C 0.4279(3) 0.8365(4) 0.6596(3)
H50 H 0.4211 0.8728 0.6422
C69 C 0.4560(3) 0.8428(3) 0.6963(3)
H51 H 0.4683 0.8833 0.7039
C70 C 0.4660(3) 0.7897(5) 0.7217(2)
H52 H 0.4852 0.7940 0.7467
C71 C 0.4480(3) 0.7305(4) 0.7105(3)
H53 H 0.4548 0.6942 0.7279
C72 C 0.4199(3) 0.7242(4) 0.6739(3)
H54 H 0.4076 0.6837 0.6663
N13 N 0.2698(3) 0.3453(5) 0.3226(3)
N14 N 0.2711(3) 0.3606(4) 0.3958(3)
N15 N 0.2325(3) 0.3569(5) 0.6335(3)
C73 C 0.2696(3) 0.3387(6) 0.2776(3)
C74 C 0.2901(3) 0.2851(5) 0.2695(4)
H55 H 0.3000 0.2542 0.2902
C75 C 0.2962(4) 0.2767(6) 0.2312(4)
H56 H 0.3102 0.2400 0.2257
C76 C 0.2817(4) 0.3218(7) 0.2011(3)
H57 H 0.2859 0.3161 0.1749
C77 C 0.2612(4) 0.3754(6) 0.2092(3)
H58 H 0.2514 0.4063 0.1885
C78 C 0.2552(4) 0.3839(5) 0.2474(4)
H59 H 0.2412 0.4205 0.2530
C79 C 0.2437(5) 0.3183(6) 0.3338(4)
H60 H 0.2236 0.2962 0.3148
C80 C 0.2430(4) 0.3197(6) 0.3771(4)
C81 C 0.2189(5) 0.2884(7) 0.3963(5)
H61 H 0.1986 0.2614 0.3812
C82 C 0.2234(4) 0.2949(6) 0.4356(5)
H62 H 0.2071 0.2719 0.4491
C83 C 0.2518(4) 0.3354(6) 0.4562(4)
C84 C 0.2758(4) 0.3680(6) 0.4383(4)
H63 H 0.2957 0.3954 0.4537
N16 N 0.2317(2) 0.3668(3) 0.5590(2)
C85 C 0.2270(2) 0.3663(4) 0.5174(2)
H64 H 0.2031 0.3806 0.4998
C86 C 0.2574(3) 0.3450(4) 0.50146(18)
C87 C 0.2924(2) 0.3241(4) 0.5271(3)
H65 H 0.3132 0.3095 0.5163
C88 C 0.29714(19) 0.3245(4) 0.5687(3)
H66 H 0.3211 0.3102 0.5863
C89 C 0.2668(2) 0.3458(4) 0.58466(17)
C90 C 0.2654(4) 0.3377(6) 0.6230(4)
H67 H 0.2868 0.3191 0.6424
C91 C 0.2310(3) 0.3536(5) 0.6734(3)
C92 C 0.2074(3) 0.3071(4) 0.6848(3)
H68 H 0.1928 0.2779 0.6653
C93 C 0.2053(3) 0.3034(5) 0.7248(4)
H69 H 0.1892 0.2716 0.7326
C94 C 0.2267(4) 0.3462(6) 0.7533(3)
H70 H 0.2253 0.3436 0.7806
C95 C 0.2503(3) 0.3927(5) 0.7419(3)
H71 H 0.2649 0.4219 0.7614
C96 C 0.2524(3) 0.3964(5) 0.7019(4)
H72 H 0.2685 0.4282 0.6941
N17 N 0.4348(4) 0.6815(5) 0.5843(3)
N18 N 0.3664(3) 0.6403(4) 0.5880(3)
N19 N 0.2287(3) 0.4786(5) 0.6064(3)
N20 N 0.1649(3) 0.4382(5) 0.6226(3)
C97 C 0.4711(2) 0.7116(4) 0.5841(3)
C98 C 0.4929(3) 0.7474(4) 0.6165(2)
H73 H 0.4834 0.7534 0.6399
C99 C 0.5285(3) 0.7745(4) 0.6146(3)
H74 H 0.5433 0.7990 0.6367
C100 C 0.5423(2) 0.7658(4) 0.5803(3)
H75 H 0.5666 0.7843 0.5791
C101 C 0.5205(3) 0.7300(5) 0.5480(3)
H76 H 0.5300 0.7241 0.5245
C102 C 0.4849(3) 0.7029(4) 0.5498(2)
H77 H 0.4700 0.6785 0.5277
C103 C 0.4320(4) 0.6262(6) 0.5955(4)
H78 H 0.4550 0.6009 0.6043
C104 C 0.3951(3) 0.5986(5) 0.5959(3)
C105 C 0.3896(4) 0.5366(6) 0.6082(4)
H79 H 0.4114 0.5085 0.6172
C106 C 0.3518(4) 0.5152(7) 0.6074(4)
H80 H 0.3458 0.4708 0.6095
C107 C 0.3228(4) 0.5653(5) 0.6032(4)
C108 C 0.3305(4) 0.6259(6) 0.5915(4)
H81 H 0.3104 0.6577 0.5859
C109 C 0.2604(5) 0.4979(7) 0.5995(4)
H82 H 0.2694 0.4727 0.5804
C110 C 0.2839(4) 0.5496(6) 0.6152(4)
C111 C 0.2688(5) 0.5855(7) 0.6415(4)
H83 H 0.2825 0.6227 0.6539
C112 C 0.2346(4) 0.5680(6) 0.6498(4)
H84 H 0.2241 0.5940 0.6674
C113 C 0.2165(4) 0.5177(6) 0.6345(4)
C114 C 0.1829(4) 0.4928(6) 0.6413(4)
H85 H 0.1714 0.5143 0.6600
C115 C 0.1272(3) 0.4224(4) 0.6285(3)
C116 C 0.1252(3) 0.3941(5) 0.6648(3)
H86 H 0.1483 0.3896 0.6862
C117 C 0.0894(4) 0.3724(4) 0.6699(3)
H87 H 0.0881 0.3531 0.6947
C118 C 0.0556(3) 0.3790(5) 0.6386(4)
H88 H 0.0311 0.3641 0.6421
C119 C 0.0575(3) 0.4073(5) 0.6023(3)
H89 H 0.0344 0.4118 0.5810
C120 C 0.0933(4) 0.4290(4) 0.5973(2)
H90 H 0.0947 0.4484 0.5725
N21 N 0.1098(3) 0.8042(5) 0.4151(3)
N22 N 0.1261(3) 0.6836(5) 0.4408(3)
N23 N 0.1595(3) 0.4424(5) 0.5418(3)
N24 N 0.1577(3) 0.3275(5) 0.5703(3)
C121 C 0.1026(3) 0.8677(3) 0.4026(3)
C122 C 0.0660(3) 0.8864(5) 0.3792(3)
H91 H 0.0459 0.8551 0.3706
C123 C 0.0587(3) 0.9508(5) 0.3685(3)
H92 H 0.0336 0.9636 0.3525
C124 C 0.0881(4) 0.9966(4) 0.3811(3)
H93 H 0.0832 1.0406 0.3738
C125 C 0.1248(3) 0.9780(4) 0.4045(3)
H94 H 0.1449 1.0092 0.4132
C126 C 0.1320(2) 0.9135(5) 0.4153(3)
H95 H 0.1571 0.9008 0.4312
C127 C 0.1157(4) 0.7907(6) 0.4591(4)
H96 H 0.1139 0.8245 0.4773
C128 C 0.1238(4) 0.7301(6) 0.4727(4)
C129 C 0.1255(4) 0.7104(7) 0.5099(5)
H97 H 0.1238 0.7411 0.5301
C130 C 0.1298(4) 0.6435(6) 0.5202(4)
H98 H 0.1316 0.6293 0.5470
C131 C 0.1314(3) 0.6008(5) 0.4907(3)
C132 C 0.1315(3) 0.6263(6) 0.4516(4)
H99 H 0.1361 0.5965 0.4322
C133 C 0.1595(4) 0.5042(6) 0.5304(4)
H100 H 0.1802 0.5310 0.5449
C134 C 0.1317(4) 0.5317(6) 0.4992(4)
C135 C 0.1042(5) 0.4890(6) 0.4766(4)
H101 H 0.0858 0.5038 0.4529
C136 C 0.1035(4) 0.4252(6) 0.4882(4)
H102 H 0.0835 0.3963 0.4746
C137 C 0.1323(4) 0.4063(6) 0.5196(4)
C138 C 0.1333(4) 0.3426(6) 0.5412(4)
H103 H 0.1128 0.3126 0.5307
C139 C 0.1603(3) 0.2651(3) 0.5882(2)
C140 C 0.1917(2) 0.2249(4) 0.5877(2)
H104 H 0.2119 0.2394 0.5760
C141 C 0.1937(2) 0.1635(3) 0.6045(3)
H105 H 0.2152 0.1360 0.6042
C142 C 0.1642(3) 0.1422(3) 0.6217(3)
H106 H 0.1655 0.1002 0.6331
C143 C 0.1327(3) 0.1825(5) 0.6221(3)
H107 H 0.1125 0.1680 0.6339
C144 C 0.1308(2) 0.2439(4) 0.6054(3)
H108 H 0.1092 0.2714 0.6057
loop_
_geom_bond_atom_site_label_1
_geom_bond_atom_site_label_2
_geom_bond_site_symmetry_1
_geom_bond_site_symmetry_2
Fe1 N3 1_555 1_555
Fe2 N1 1_555 1_555
Fe3 N15 1_555 1_555
Fe4 N6 1_555 1_555
N1 C1 1_555 1_555
N2 Fe2 1_555 1_555
N3 C13 1_555 1_555
N4 Fe1 1_555 1_555
C1 C2 1_555 1_555
C2 H1 1_555 1_555
C3 C2 1_555 1_555
H2 C3 1_555 1_555
C4 C3 1_555 1_555
H3 C4 1_555 1_555
C5 C4 1_555 1_555
H4 C5 1_555 1_555
C6 C1 1_555 1_555
H5 C6 1_555 1_555
C7 N1 1_555 1_555
H6 C7 1_555 1_555
C8 N2 1_555 1_555
C9 C8 1_555 1_555
H7 C9 1_555 1_555
C10 C9 1_555 1_555
H8 C10 1_555 1_555
C11 C10 1_555 1_555
C12 N2 1_555 1_555
H9 C12 1_555 1_555
C13 H10 1_555 1_555
C14 C11 1_555 1_555
C15 C14 1_555 1_555
H11 C15 1_555 1_555
C16 C15 1_555 1_555
H12 C16 1_555 1_555
C17 N3 1_555 1_555
C18 N4 1_555 1_555
H13 C18 1_555 1_555
C19 N4 1_555 1_555
C20 C19 1_555 1_555
H14 C20 1_555 1_555
C21 C20 1_555 1_555
H15 C21 1_555 1_555
C22 C21 1_555 1_555
H16 C22 1_555 1_555
C23 C22 1_555 1_555
H17 C23 1_555 1_555
C24 C19 1_555 1_555
H18 C24 1_555 1_555
N5 Fe2 1_555 1_555
N6 C42 1_555 1_555
C25 N5 1_555 1_555
C26 C25 1_555 1_555
H19 C26 1_555 1_555
C27 C26 1_555 1_555
H20 C27 1_555 1_555
C28 C27 1_555 1_555
H21 C28 1_555 1_555
C29 C28 1_555 1_555
H22 C29 1_555 1_555
C30 C25 1_555 1_555
H23 C30 1_555 1_555
C31 N5 1_555 1_555
H24 C31 1_555 1_555
N7 Fe2 1_555 1_555
C32 C31 1_555 1_555
C33 C32 1_555 1_555
H25 C33 1_555 1_555
C34 C33 1_555 1_555
H26 C34 1_555 1_555
C35 C34 1_555 1_555
C36 N7 1_555 1_555
H27 C36 1_555 1_555
N8 Fe4 1_555 1_555
C37 N8 1_555 1_555
H28 C37 1_555 1_555
C38 C35 1_555 1_555
C39 C38 1_555 1_555
H29 C39 1_555 1_555
C40 C39 1_555 1_555
H30 C40 1_555 1_555
C41 N8 1_555 1_555
C42 C41 1_555 1_555
H31 C42 1_555 1_555
C43 N6 1_555 1_555
C44 C43 1_555 1_555
H32 C44 1_555 1_555
C45 C44 1_555 1_555
H33 C45 1_555 1_555
C46 C45 1_555 1_555
H34 C46 1_555 1_555
C47 C46 1_555 1_555
H35 C47 1_555 1_555
C48 C43 1_555 1_555
H36 C48 1_555 1_555
N9 Fe4 1_555 1_555
N10 Fe1 1_555 1_555
N11 Fe1 1_555 1_555
C49 N9 1_555 1_555
C50 C49 1_555 1_555
H37 C50 1_555 1_555
C51 C50 1_555 1_555
H38 C51 1_555 1_555
C52 C51 1_555 1_555
H39 C52 1_555 1_555
C53 C52 1_555 1_555
H40 C53 1_555 1_555
C54 C49 1_555 1_555
H41 C54 1_555 1_555
C55 N9 1_555 1_555
H42 C55 1_555 1_555
C56 C55 1_555 1_555
C57 C56 1_555 1_555
H43 C57 1_555 1_555
C58 C57 1_555 1_555
H44 C58 1_555 1_555
C59 C58 1_555 1_555
C60 C59 1_555 1_555
H45 C60 1_555 1_555
N12 Fe4 1_555 1_555
C61 N10 1_555 1_555
H46 C61 1_555 1_555
C62 C59 1_555 1_555
C63 C62 1_555 1_555
H47 C63 1_555 1_555
C64 C63 1_555 1_555
H48 C64 1_555 1_555
C65 N10 1_555 1_555
C66 N11 1_555 1_555
H49 C66 1_555 1_555
C67 N11 1_555 1_555
C68 C67 1_555 1_555
H50 C68 1_555 1_555
C69 C68 1_555 1_555
H51 C69 1_555 1_555
C70 C69 1_555 1_555
H52 C70 1_555 1_555
C71 C70 1_555 1_555
H53 C71 1_555 1_555
C72 C67 1_555 1_555
H54 C72 1_555 1_555
N13 Fe2 1_555 1_555
N14 Fe2 1_555 1_555
N15 C90 1_555 1_555
C73 N13 1_555 1_555
C74 C73 1_555 1_555
H55 C74 1_555 1_555
C75 C74 1_555 1_555
H56 C75 1_555 1_555
C76 C75 1_555 1_555
H57 C76 1_555 1_555
C77 C76 1_555 1_555
H58 C77 1_555 1_555
C78 C73 1_555 1_555
H59 C78 1_555 1_555
C79 N13 1_555 1_555
H60 C79 1_555 1_555
C80 N14 1_555 1_555
C81 C80 1_555 1_555
H61 C81 1_555 1_555
C82 C81 1_555 1_555
H62 C82 1_555 1_555
C83 C82 1_555 1_555
C84 N14 1_555 1_555
H63 C84 1_555 1_555
N16 Fe3 1_555 1_555
C85 N16 1_555 1_555
H64 C85 1_555 1_555
C86 C83 1_555 1_555
C87 C86 1_555 1_555
H65 C87 1_555 1_555
C88 C87 1_555 1_555
H66 C88 1_555 1_555
C89 N16 1_555 1_555
C90 C89 1_555 1_555
H67 C90 1_555 1_555
C91 N15 1_555 1_555
C92 C91 1_555 1_555
H68 C92 1_555 1_555
C93 C92 1_555 1_555
H69 C93 1_555 1_555
C94 C93 1_555 1_555
H70 C94 1_555 1_555
C95 C94 1_555 1_555
H71 C95 1_555 1_555
C96 C91 1_555 1_555
H72 C96 1_555 1_555
N17 Fe1 1_555 1_555
N18 Fe1 1_555 1_555
N19 Fe3 1_555 1_555
N20 Fe3 1_555 1_555
C97 N17 1_555 1_555
C98 C97 1_555 1_555
H73 C98 1_555 1_555
C99 C98 1_555 1_555
H74 C99 1_555 1_555
C100 C99 1_555 1_555
H75 C100 1_555 1_555
C101 C100 1_555 1_555
H76 C101 1_555 1_555
C102 C97 1_555 1_555
H77 C102 1_555 1_555
C103 N17 1_555 1_555
H78 C103 1_555 1_555
C104 N18 1_555 1_555
C105 C104 1_555 1_555
H79 C105 1_555 1_555
C106 C105 1_555 1_555
H80 C106 1_555 1_555
C107 C106 1_555 1_555
C108 N18 1_555 1_555
H81 C108 1_555 1_555
C109 N19 1_555 1_555
H82 C109 1_555 1_555
C110 C107 1_555 1_555
C111 C110 1_555 1_555
H83 C111 1_555 1_555
C112 C111 1_555 1_555
H84 C112 1_555 1_555
C113 N19 1_555 1_555
C114 N20 1_555 1_555
H85 C114 1_555 1_555
C115 N20 1_555 1_555
C116 C115 1_555 1_555
H86 C116 1_555 1_555
C117 C116 1_555 1_555
H87 C117 1_555 1_555
C118 C117 1_555 1_555
H88 C118 1_555 1_555
C119 C118 1_555 1_555
H89 C119 1_555 1_555
C120 C115 1_555 1_555
H90 C120 1_555 1_555
N21 Fe4 1_555 1_555
N22 Fe4 1_555 1_555
N23 Fe3 1_555 1_555
N24 Fe3 1_555 1_555
C121 N21 1_555 1_555
C122 C121 1_555 1_555
H91 C122 1_555 1_555
C123 C122 1_555 1_555
H92 C123 1_555 1_555
C124 C123 1_555 1_555
H93 C124 1_555 1_555
C125 C124 1_555 1_555
H94 C125 1_555 1_555
C126 C121 1_555 1_555
H95 C126 1_555 1_555
C127 N21 1_555 1_555
H96 C127 1_555 1_555
C128 N22 1_555 1_555
C129 C128 1_555 1_555
H97 C129 1_555 1_555
C130 C129 1_555 1_555
H98 C130 1_555 1_555
C131 C130 1_555 1_555
C132 N22 1_555 1_555
H99 C132 1_555 1_555
C133 N23 1_555 1_555
H100 C133 1_555 1_555
C134 C131 1_555 1_555
C135 C134 1_555 1_555
H101 C135 1_555 1_555
C136 C135 1_555 1_555
H102 C136 1_555 1_555
C137 N23 1_555 1_555
C138 N24 1_555 1_555
H103 C138 1_555 1_555
C139 N24 1_555 1_555
C140 C139 1_555 1_555
H104 C140 1_555 1_555
C141 C140 1_555 1_555
H105 C141 1_555 1_555
C142 C141 1_555 1_555
H106 C142 1_555 1_555
C143 C142 1_555 1_555
H107 C143 1_555 1_555
C144 C139 1_555 1_555
H108 C144 1_555 1_555
C145 H109 1_555 1_555
H110 C145 1_555 1_555
H111 C145 1_555 1_555
C146 C145 1_555 1_555
N25 C146 1_555 1_555
N26 C147 1_555 1_555
C147 C148 1_555 1_555
C148 H112 1_555 1_555
H113 C148 1_555 1_555
H114 C148 1_555 1_555
C5 C6 1_555 1_555
C7 C8 1_555 1_555
C11 C12 1_555 1_555
C13 C14 1_555 1_555
C16 C17 1_555 1_555
C17 C18 1_555 1_555
C23 C24 1_555 1_555
C29 C30 1_555 1_555
N7 C32 1_555 1_555
C35 C36 1_555 1_555
C37 C38 1_555 1_555
C40 C41 1_555 1_555
C47 C48 1_555 1_555
C53 C54 1_555 1_555
C56 N12 1_555 1_555
C60 N12 1_555 1_555
C61 C62 1_555 1_555
C64 C65 1_555 1_555
C65 C66 1_555 1_555
C71 C72 1_555 1_555
C77 C78 1_555 1_555
C79 C80 1_555 1_555
C83 C84 1_555 1_555
C85 C86 1_555 1_555
C88 C89 1_555 1_555
C95 C96 1_555 1_555
C101 C102 1_555 1_555
C103 C104 1_555 1_555
C107 C108 1_555 1_555
C109 C110 1_555 1_555
C112 C113 1_555 1_555
C113 C114 1_555 1_555
C119 C120 1_555 1_555
C125 C126 1_555 1_555
C127 C128 1_555 1_555
C131 C132 1_555 1_555
C133 C134 1_555 1_555
C136 C137 1_555 1_555
C137 C138 1_555 1_555
C143 C144 1_555 1_555

#END
