# generated using pymatgen
data_Dy3Mn4H272C191(NO3)10
_symmetry_space_group_name_H-M   'P 1'
_cell_length_a   23.38690000
_cell_length_b   36.41000000
_cell_length_c   47.48030000
_cell_angle_alpha   103.04000000
_cell_angle_beta   90.00000000
_cell_angle_gamma   90.00000000
_symmetry_Int_Tables_number   1
_chemical_formula_structural   Dy3Mn4H272C191(NO3)10
_chemical_formula_sum   'Dy24 Mn32 H2176 C1528 N80 O240'
_cell_volume   39387.69944039
_cell_formula_units_Z   8
loop_
 _symmetry_equiv_pos_site_id
 _symmetry_equiv_pos_as_xyz
  1  'x, y, z'
loop_
 _atom_site_type_symbol
 _atom_site_label
 _atom_site_symmetry_multiplicity
 _atom_site_fract_x
 _atom_site_fract_y
 _atom_site_fract_z
 _atom_site_occupancy
  Dy  Dy1  1  0.669220  0.604150  0.907071  1.0
  Dy  Dy2  1  0.669220  0.395850  0.592929  1.0
  Dy  Dy3  1  0.169220  0.104150  0.907071  1.0
  Dy  Dy4  1  0.169220  0.895850  0.592929  1.0
  Dy  Dy5  1  0.330780  0.395850  0.092929  1.0
  Dy  Dy6  1  0.330780  0.604150  0.407071  1.0
  Dy  Dy7  1  0.830780  0.895850  0.092929  1.0
  Dy  Dy8  1  0.830780  0.104150  0.407071  1.0
  Dy  Dy9  1  0.616120  0.671110  0.860330  1.0
  Dy  Dy10  1  0.616120  0.328890  0.639670  1.0
  Dy  Dy11  1  0.116120  0.171110  0.860330  1.0
  Dy  Dy12  1  0.116120  0.828890  0.639670  1.0
  Dy  Dy13  1  0.383880  0.328890  0.139670  1.0
  Dy  Dy14  1  0.383880  0.671110  0.360330  1.0
  Dy  Dy15  1  0.883880  0.828890  0.139670  1.0
  Dy  Dy16  1  0.883880  0.171110  0.360330  1.0
  Dy  Dy17  1  0.775910  0.659350  0.870602  1.0
  Dy  Dy18  1  0.775910  0.340650  0.629398  1.0
  Dy  Dy19  1  0.275910  0.159350  0.870602  1.0
  Dy  Dy20  1  0.275910  0.840650  0.629398  1.0
  Dy  Dy21  1  0.224090  0.340650  0.129398  1.0
  Dy  Dy22  1  0.224090  0.659350  0.370602  1.0
  Dy  Dy23  1  0.724090  0.840650  0.129398  1.0
  Dy  Dy24  1  0.724090  0.159350  0.370602  1.0
  Mn  Mn25  1  0.630500  0.652940  0.854710  1
  Mn  Mn26  1  0.630500  0.347060  0.645290  1
  Mn  Mn27  1  0.130500  0.152940  0.854710  1
  Mn  Mn28  1  0.130500  0.847060  0.645290  1
  Mn  Mn29  1  0.369500  0.347060  0.145290  1
  Mn  Mn30  1  0.369500  0.652940  0.354710  1
  Mn  Mn31  1  0.869500  0.847060  0.145290  1
  Mn  Mn32  1  0.869500  0.152940  0.354710  1
  Mn  Mn33  1  0.533460  0.599770  0.873630  1.0
  Mn  Mn34  1  0.533460  0.400230  0.626370  1.0
  Mn  Mn35  1  0.033460  0.099770  0.873630  1.0
  Mn  Mn36  1  0.033460  0.900230  0.626370  1.0
  Mn  Mn37  1  0.466540  0.400230  0.126370  1.0
  Mn  Mn38  1  0.466540  0.599770  0.373630  1.0
  Mn  Mn39  1  0.966540  0.900230  0.126370  1.0
  Mn  Mn40  1  0.966540  0.099770  0.373630  1.0
  Mn  Mn41  1  0.711720  0.691550  0.812700  1.0
  Mn  Mn42  1  0.711720  0.308450  0.687300  1.0
  Mn  Mn43  1  0.211720  0.191550  0.812700  1.0
  Mn  Mn44  1  0.211720  0.808450  0.687300  1.0
  Mn  Mn45  1  0.288280  0.308450  0.187300  1.0
  Mn  Mn46  1  0.288280  0.691550  0.312700  1.0
  Mn  Mn47  1  0.788280  0.808450  0.187300  1.0
  Mn  Mn48  1  0.788280  0.191550  0.312700  1.0
  Mn  Mn49  1  0.814180  0.578110  0.893970  1.0
  Mn  Mn50  1  0.814180  0.421890  0.606030  1.0
  Mn  Mn51  1  0.314180  0.078110  0.893970  1.0
  Mn  Mn52  1  0.314180  0.921890  0.606030  1.0
  Mn  Mn53  1  0.185820  0.421890  0.106030  1.0
  Mn  Mn54  1  0.185820  0.578110  0.393970  1.0
  Mn  Mn55  1  0.685820  0.921890  0.106030  1.0
  Mn  Mn56  1  0.685820  0.078110  0.393970  1.0
  H  H57  1  0.264000  0.606200  0.775800  1
  H  H58  1  0.264000  0.393800  0.724200  1
  H  H59  1  0.764000  0.106200  0.775800  1
  H  H60  1  0.764000  0.893800  0.724200  1
  H  H61  1  0.736000  0.393800  0.224200  1
  H  H62  1  0.736000  0.606200  0.275800  1
  H  H63  1  0.236000  0.893800  0.224200  1
  H  H64  1  0.236000  0.106200  0.275800  1
  H  H65  1  0.261500  0.646900  0.797300  1
  H  H66  1  0.261500  0.353100  0.702700  1
  H  H67  1  0.761500  0.146900  0.797300  1
  H  H68  1  0.761500  0.853100  0.702700  1
  H  H69  1  0.738500  0.353100  0.202700  1
  H  H70  1  0.738500  0.646900  0.297300  1
  H  H71  1  0.238500  0.853100  0.202700  1
  H  H72  1  0.238500  0.146900  0.297300  1
  H  H73  1  0.204400  0.622300  0.790000  1
  H  H74  1  0.204400  0.377700  0.710000  1
  H  H75  1  0.704400  0.122300  0.790000  1
  H  H76  1  0.704400  0.877700  0.710000  1
  H  H77  1  0.795600  0.377700  0.210000  1
  H  H78  1  0.795600  0.622300  0.290000  1
  H  H79  1  0.295600  0.877700  0.210000  1
  H  H80  1  0.295600  0.122300  0.290000  1
  H  H81  1  0.251500  0.546800  0.795400  1
  H  H82  1  0.251500  0.453200  0.704600  1
  H  H83  1  0.751500  0.046800  0.795400  1
  H  H84  1  0.751500  0.953200  0.704600  1
  H  H85  1  0.748500  0.453200  0.204600  1
  H  H86  1  0.748500  0.546800  0.295400  1
  H  H87  1  0.248500  0.953200  0.204600  1
  H  H88  1  0.248500  0.046800  0.295400  1
  H  H89  1  0.190500  0.563900  0.806900  1
  H  H90  1  0.190500  0.436100  0.693100  1
  H  H91  1  0.690500  0.063900  0.806900  1
  H  H92  1  0.690500  0.936100  0.693100  1
  H  H93  1  0.809500  0.436100  0.193100  1
  H  H94  1  0.809500  0.563900  0.306900  1
  H  H95  1  0.309500  0.936100  0.193100  1
  H  H96  1  0.309500  0.063900  0.306900  1
  H  H97  1  0.234700  0.551300  0.828700  1
  H  H98  1  0.234700  0.448700  0.671300  1
  H  H99  1  0.734700  0.051300  0.828700  1
  H  H100  1  0.734700  0.948700  0.671300  1
  H  H101  1  0.765300  0.448700  0.171300  1
  H  H102  1  0.765300  0.551300  0.328700  1
  H  H103  1  0.265300  0.948700  0.171300  1
  H  H104  1  0.265300  0.051300  0.328700  1
  H  H105  1  0.347900  0.765900  0.883600  1
  H  H106  1  0.347900  0.234100  0.616400  1
  H  H107  1  0.847900  0.265900  0.883600  1
  H  H108  1  0.847900  0.734100  0.616400  1
  H  H109  1  0.652100  0.234100  0.116400  1
  H  H110  1  0.652100  0.765900  0.383600  1
  H  H111  1  0.152100  0.734100  0.116400  1
  H  H112  1  0.152100  0.265900  0.383600  1
  H  H113  1  0.386100  0.793500  0.907300  1
  H  H114  1  0.386100  0.206500  0.592700  1
  H  H115  1  0.886100  0.293500  0.907300  1
  H  H116  1  0.886100  0.706500  0.592700  1
  H  H117  1  0.613900  0.206500  0.092700  1
  H  H118  1  0.613900  0.793500  0.407300  1
  H  H119  1  0.113900  0.706500  0.092700  1
  H  H120  1  0.113900  0.293500  0.407300  1
  H  H121  1  0.317800  0.796100  0.909100  1
  H  H122  1  0.317800  0.203900  0.590900  1
  H  H123  1  0.817800  0.296100  0.909100  1
  H  H124  1  0.817800  0.703900  0.590900  1
  H  H125  1  0.682200  0.203900  0.090900  1
  H  H126  1  0.682200  0.796100  0.409100  1
  H  H127  1  0.182200  0.703900  0.090900  1
  H  H128  1  0.182200  0.296100  0.409100  1
  H  H129  1  0.290200  0.713900  0.897400  1
  H  H130  1  0.290200  0.286100  0.602600  1
  H  H131  1  0.790200  0.213900  0.897400  1
  H  H132  1  0.790200  0.786100  0.602600  1
  H  H133  1  0.709800  0.286100  0.102600  1
  H  H134  1  0.709800  0.713900  0.397400  1
  H  H135  1  0.209800  0.786100  0.102600  1
  H  H136  1  0.209800  0.213900  0.397400  1
  H  H137  1  0.260400  0.744800  0.922400  1
  H  H138  1  0.260400  0.255200  0.577600  1
  H  H139  1  0.760400  0.244800  0.922400  1
  H  H140  1  0.760400  0.755200  0.577600  1
  H  H141  1  0.739600  0.255200  0.077600  1
  H  H142  1  0.739600  0.744800  0.422400  1
  H  H143  1  0.239600  0.755200  0.077600  1
  H  H144  1  0.239600  0.244800  0.422400  1
  H  H145  1  0.290300  0.708700  0.930000  1
  H  H146  1  0.290300  0.291300  0.570000  1
  H  H147  1  0.790300  0.208700  0.930000  1
  H  H148  1  0.790300  0.791300  0.570000  1
  H  H149  1  0.709700  0.291300  0.070000  1
  H  H150  1  0.709700  0.708700  0.430000  1
  H  H151  1  0.209700  0.791300  0.070000  1
  H  H152  1  0.209700  0.208700  0.430000  1
  H  H153  1  0.850600  0.811500  0.705800  1
  H  H154  1  0.850600  0.188500  0.794200  1
  H  H155  1  0.350600  0.311500  0.705800  1
  H  H156  1  0.350600  0.688500  0.794200  1
  H  H157  1  0.149400  0.188500  0.294200  1
  H  H158  1  0.149400  0.811500  0.205800  1
  H  H159  1  0.649400  0.688500  0.294200  1
  H  H160  1  0.649400  0.311500  0.205800  1
  H  H161  1  0.816000  0.807700  0.734100  1
  H  H162  1  0.816000  0.192300  0.765900  1
  H  H163  1  0.316000  0.307700  0.734100  1
  H  H164  1  0.316000  0.692300  0.765900  1
  H  H165  1  0.184000  0.192300  0.265900  1
  H  H166  1  0.184000  0.807700  0.234100  1
  H  H167  1  0.684000  0.692300  0.265900  1
  H  H168  1  0.684000  0.307700  0.234100  1
  H  H169  1  0.802300  0.779800  0.703600  1
  H  H170  1  0.802300  0.220200  0.796400  1
  H  H171  1  0.302300  0.279800  0.703600  1
  H  H172  1  0.302300  0.720200  0.796400  1
  H  H173  1  0.197700  0.220200  0.296400  1
  H  H174  1  0.197700  0.779800  0.203600  1
  H  H175  1  0.697700  0.720200  0.296400  1
  H  H176  1  0.697700  0.279800  0.203600  1
  H  H177  1  0.919500  0.758500  0.682100  1
  H  H178  1  0.919500  0.241500  0.817900  1
  H  H179  1  0.419500  0.258500  0.682100  1
  H  H180  1  0.419500  0.741500  0.817900  1
  H  H181  1  0.080500  0.241500  0.317900  1
  H  H182  1  0.080500  0.758500  0.182100  1
  H  H183  1  0.580500  0.741500  0.317900  1
  H  H184  1  0.580500  0.258500  0.182100  1
  H  H185  1  0.867100  0.730000  0.681200  1
  H  H186  1  0.867100  0.270000  0.818800  1
  H  H187  1  0.367100  0.230000  0.681200  1
  H  H188  1  0.367100  0.770000  0.818800  1
  H  H189  1  0.132900  0.270000  0.318800  1
  H  H190  1  0.132900  0.730000  0.181200  1
  H  H191  1  0.632900  0.770000  0.318800  1
  H  H192  1  0.632900  0.230000  0.181200  1
  H  H193  1  0.926200  0.722500  0.695900  1
  H  H194  1  0.926200  0.277500  0.804100  1
  H  H195  1  0.426200  0.222500  0.695900  1
  H  H196  1  0.426200  0.777500  0.804100  1
  H  H197  1  0.073800  0.277500  0.304100  1
  H  H198  1  0.073800  0.722500  0.195900  1
  H  H199  1  0.573800  0.777500  0.304100  1
  H  H200  1  0.573800  0.222500  0.195900  1
  H  H201  1  0.945500  0.804600  0.726800  1
  H  H202  1  0.945500  0.195400  0.773200  1
  H  H203  1  0.445500  0.304600  0.726800  1
  H  H204  1  0.445500  0.695400  0.773200  1
  H  H205  1  0.054500  0.195400  0.273200  1
  H  H206  1  0.054500  0.804600  0.226800  1
  H  H207  1  0.554500  0.695400  0.273200  1
  H  H208  1  0.554500  0.304600  0.226800  1
  H  H209  1  0.958300  0.770900  0.742400  1
  H  H210  1  0.958300  0.229100  0.757600  1
  H  H211  1  0.458300  0.270900  0.742400  1
  H  H212  1  0.458300  0.729100  0.757600  1
  H  H213  1  0.041700  0.229100  0.257600  1
  H  H214  1  0.041700  0.770900  0.242400  1
  H  H215  1  0.541700  0.729100  0.257600  1
  H  H216  1  0.541700  0.270900  0.242400  1
  H  H217  1  0.915400  0.804000  0.756900  1
  H  H218  1  0.915400  0.196000  0.743100  1
  H  H219  1  0.415400  0.304000  0.756900  1
  H  H220  1  0.415400  0.696000  0.743100  1
  H  H221  1  0.084600  0.196000  0.243100  1
  H  H222  1  0.084600  0.804000  0.256900  1
  H  H223  1  0.584600  0.696000  0.243100  1
  H  H224  1  0.584600  0.304000  0.256900  1
  H  H225  1  0.953400  0.871600  0.852000  1
  H  H226  1  0.953400  0.128400  0.648000  1
  H  H227  1  0.453400  0.371600  0.852000  1
  H  H228  1  0.453400  0.628400  0.648000  1
  H  H229  1  0.046600  0.128400  0.148000  1
  H  H230  1  0.046600  0.871600  0.352000  1
  H  H231  1  0.546600  0.628400  0.148000  1
  H  H232  1  0.546600  0.371600  0.352000  1
  H  H233  1  0.923800  0.837600  0.829500  1
  H  H234  1  0.923800  0.162400  0.670500  1
  H  H235  1  0.423800  0.337600  0.829500  1
  H  H236  1  0.423800  0.662400  0.670500  1
  H  H237  1  0.076200  0.162400  0.170500  1
  H  H238  1  0.076200  0.837600  0.329500  1
  H  H239  1  0.576200  0.662400  0.170500  1
  H  H240  1  0.576200  0.337600  0.329500  1
  H  H241  1  0.963400  0.829100  0.854700  1
  H  H242  1  0.963400  0.170900  0.645300  1
  H  H243  1  0.463400  0.329100  0.854700  1
  H  H244  1  0.463400  0.670900  0.645300  1
  H  H245  1  0.036600  0.170900  0.145300  1
  H  H246  1  0.036600  0.829100  0.354700  1
  H  H247  1  0.536600  0.670900  0.145300  1
  H  H248  1  0.536600  0.329100  0.354700  1
  H  H249  1  0.917400  0.884300  0.906700  1
  H  H250  1  0.917400  0.115700  0.593300  1
  H  H251  1  0.417400  0.384300  0.906700  1
  H  H252  1  0.417400  0.615700  0.593300  1
  H  H253  1  0.082600  0.115700  0.093300  1
  H  H254  1  0.082600  0.884300  0.406700  1
  H  H255  1  0.582600  0.615700  0.093300  1
  H  H256  1  0.582600  0.384300  0.406700  1
  H  H257  1  0.930500  0.840700  0.904600  1
  H  H258  1  0.930500  0.159300  0.595400  1
  H  H259  1  0.430500  0.340700  0.904600  1
  H  H260  1  0.430500  0.659300  0.595400  1
  H  H261  1  0.069500  0.159300  0.095400  1
  H  H262  1  0.069500  0.840700  0.404600  1
  H  H263  1  0.569500  0.659300  0.095400  1
  H  H264  1  0.569500  0.340700  0.404600  1
  H  H265  1  0.868100  0.857200  0.913800  1
  H  H266  1  0.868100  0.142800  0.586200  1
  H  H267  1  0.368100  0.357200  0.913800  1
  H  H268  1  0.368100  0.642800  0.586200  1
  H  H269  1  0.131900  0.142800  0.086200  1
  H  H270  1  0.131900  0.857200  0.413800  1
  H  H271  1  0.631900  0.642800  0.086200  1
  H  H272  1  0.631900  0.357200  0.413800  1
  H  H273  1  0.859700  0.904200  0.867600  1
  H  H274  1  0.859700  0.095800  0.632400  1
  H  H275  1  0.359700  0.404200  0.867600  1
  H  H276  1  0.359700  0.595800  0.632400  1
  H  H277  1  0.140300  0.095800  0.132400  1
  H  H278  1  0.140300  0.904200  0.367600  1
  H  H279  1  0.640300  0.595800  0.132400  1
  H  H280  1  0.640300  0.404200  0.367600  1
  H  H281  1  0.807400  0.880500  0.876100  1
  H  H282  1  0.807400  0.119500  0.623900  1
  H  H283  1  0.307400  0.380500  0.876100  1
  H  H284  1  0.307400  0.619500  0.623900  1
  H  H285  1  0.192600  0.119500  0.123900  1
  H  H286  1  0.192600  0.880500  0.376100  1
  H  H287  1  0.692600  0.619500  0.123900  1
  H  H288  1  0.692600  0.380500  0.376100  1
  H  H289  1  0.828900  0.872900  0.843300  1
  H  H290  1  0.828900  0.127100  0.656700  1
  H  H291  1  0.328900  0.372900  0.843300  1
  H  H292  1  0.328900  0.627100  0.656700  1
  H  H293  1  0.171100  0.127100  0.156700  1
  H  H294  1  0.171100  0.872900  0.343300  1
  H  H295  1  0.671100  0.627100  0.156700  1
  H  H296  1  0.671100  0.372900  0.343300  1
  H  H297  1  0.560300  0.875300  0.887000  1
  H  H298  1  0.560300  0.124700  0.613000  1
  H  H299  1  0.060300  0.375300  0.887000  1
  H  H300  1  0.060300  0.624700  0.613000  1
  H  H301  1  0.439700  0.124700  0.113000  1
  H  H302  1  0.439700  0.875300  0.387000  1
  H  H303  1  0.939700  0.624700  0.113000  1
  H  H304  1  0.939700  0.375300  0.387000  1
  H  H305  1  0.511900  0.856500  0.864500  1
  H  H306  1  0.511900  0.143500  0.635500  1
  H  H307  1  0.011900  0.356500  0.864500  1
  H  H308  1  0.011900  0.643500  0.635500  1
  H  H309  1  0.488100  0.143500  0.135500  1
  H  H310  1  0.488100  0.856500  0.364500  1
  H  H311  1  0.988100  0.643500  0.135500  1
  H  H312  1  0.988100  0.356500  0.364500  1
  H  H313  1  0.527500  0.900200  0.868300  1
  H  H314  1  0.527500  0.099800  0.631700  1
  H  H315  1  0.027500  0.400200  0.868300  1
  H  H316  1  0.027500  0.599800  0.631700  1
  H  H317  1  0.472500  0.099800  0.131700  1
  H  H318  1  0.472500  0.900200  0.368300  1
  H  H319  1  0.972500  0.599800  0.131700  1
  H  H320  1  0.972500  0.400200  0.368300  1
  H  H321  1  0.533600  0.845100  0.810000  1
  H  H322  1  0.533600  0.154900  0.690000  1
  H  H323  1  0.033600  0.345100  0.810000  1
  H  H324  1  0.033600  0.654900  0.690000  1
  H  H325  1  0.466400  0.154900  0.190000  1
  H  H326  1  0.466400  0.845100  0.310000  1
  H  H327  1  0.966400  0.654900  0.190000  1
  H  H328  1  0.966400  0.345100  0.310000  1
  H  H329  1  0.594600  0.857500  0.800000  1
  H  H330  1  0.594600  0.142500  0.700000  1
  H  H331  1  0.094600  0.357500  0.800000  1
  H  H332  1  0.094600  0.642500  0.700000  1
  H  H333  1  0.405400  0.142500  0.200000  1
  H  H334  1  0.405400  0.857500  0.300000  1
  H  H335  1  0.905400  0.642500  0.200000  1
  H  H336  1  0.905400  0.357500  0.300000  1
  H  H337  1  0.548600  0.888900  0.814100  1
  H  H338  1  0.548600  0.111100  0.685900  1
  H  H339  1  0.048600  0.388900  0.814100  1
  H  H340  1  0.048600  0.611100  0.685900  1
  H  H341  1  0.451400  0.111100  0.185900  1
  H  H342  1  0.451400  0.888900  0.314100  1
  H  H343  1  0.951400  0.611100  0.185900  1
  H  H344  1  0.951400  0.388900  0.314100  1
  H  H345  1  0.587100  0.833200  0.717400  1
  H  H346  1  0.587100  0.166800  0.782600  1
  H  H347  1  0.087100  0.333200  0.717400  1
  H  H348  1  0.087100  0.666800  0.782600  1
  H  H349  1  0.412900  0.166800  0.282600  1
  H  H350  1  0.412900  0.833200  0.217400  1
  H  H351  1  0.912900  0.666800  0.282600  1
  H  H352  1  0.912900  0.333200  0.217400  1
  H  H353  1  0.637400  0.820000  0.735700  1
  H  H354  1  0.637400  0.180000  0.764300  1
  H  H355  1  0.137400  0.320000  0.735700  1
  H  H356  1  0.137400  0.680000  0.764300  1
  H  H357  1  0.362600  0.180000  0.264300  1
  H  H358  1  0.362600  0.820000  0.235700  1
  H  H359  1  0.862600  0.680000  0.264300  1
  H  H360  1  0.862600  0.320000  0.235700  1
  H  H361  1  0.572600  0.820100  0.746500  1
  H  H362  1  0.572600  0.179900  0.753500  1
  H  H363  1  0.072600  0.320100  0.746500  1
  H  H364  1  0.072600  0.679900  0.753500  1
  H  H365  1  0.427400  0.179900  0.253500  1
  H  H366  1  0.427400  0.820100  0.246500  1
  H  H367  1  0.927400  0.679900  0.253500  1
  H  H368  1  0.927400  0.320100  0.246500  1
  H  H369  1  0.514100  0.787500  0.692800  1
  H  H370  1  0.514100  0.212500  0.807200  1
  H  H371  1  0.014100  0.287500  0.692800  1
  H  H372  1  0.014100  0.712500  0.807200  1
  H  H373  1  0.485900  0.212500  0.307200  1
  H  H374  1  0.485900  0.787500  0.192800  1
  H  H375  1  0.985900  0.712500  0.307200  1
  H  H376  1  0.985900  0.287500  0.192800  1
  H  H377  1  0.502800  0.769300  0.720000  1
  H  H378  1  0.502800  0.230700  0.780000  1
  H  H379  1  0.002800  0.269300  0.720000  1
  H  H380  1  0.002800  0.730700  0.780000  1
  H  H381  1  0.497200  0.230700  0.280000  1
  H  H382  1  0.497200  0.769300  0.220000  1
  H  H383  1  0.997200  0.730700  0.280000  1
  H  H384  1  0.997200  0.269300  0.220000  1
  H  H385  1  0.522200  0.743100  0.689800  1
  H  H386  1  0.522200  0.256900  0.810200  1
  H  H387  1  0.022200  0.243100  0.689800  1
  H  H388  1  0.022200  0.756900  0.810200  1
  H  H389  1  0.477800  0.256900  0.310200  1
  H  H390  1  0.477800  0.743100  0.189800  1
  H  H391  1  0.977800  0.756900  0.310200  1
  H  H392  1  0.977800  0.243100  0.189800  1
  H  H393  1  0.620900  0.788300  0.674100  1
  H  H394  1  0.620900  0.211700  0.825900  1
  H  H395  1  0.120900  0.288300  0.674100  1
  H  H396  1  0.120900  0.711700  0.825900  1
  H  H397  1  0.379100  0.211700  0.325900  1
  H  H398  1  0.379100  0.788300  0.174100  1
  H  H399  1  0.879100  0.711700  0.325900  1
  H  H400  1  0.879100  0.288300  0.174100  1
  H  H401  1  0.620400  0.743800  0.671900  1
  H  H402  1  0.620400  0.256200  0.828100  1
  H  H403  1  0.120400  0.243800  0.671900  1
  H  H404  1  0.120400  0.756200  0.828100  1
  H  H405  1  0.379600  0.256200  0.328100  1
  H  H406  1  0.379600  0.743800  0.171900  1
  H  H407  1  0.879600  0.756200  0.328100  1
  H  H408  1  0.879600  0.243800  0.171900  1
  H  H409  1  0.669000  0.769500  0.690300  1
  H  H410  1  0.669000  0.230500  0.809700  1
  H  H411  1  0.169000  0.269500  0.690300  1
  H  H412  1  0.169000  0.730500  0.809700  1
  H  H413  1  0.331000  0.230500  0.309700  1
  H  H414  1  0.331000  0.769500  0.190300  1
  H  H415  1  0.831000  0.730500  0.309700  1
  H  H416  1  0.831000  0.269500  0.190300  1
  H  H417  1  0.077000  0.653900  0.959200  1
  H  H418  1  0.077000  0.346100  0.540800  1
  H  H419  1  0.577000  0.153900  0.959200  1
  H  H420  1  0.577000  0.846100  0.540800  1
  H  H421  1  0.923000  0.346100  0.040800  1
  H  H422  1  0.923000  0.653900  0.459200  1
  H  H423  1  0.423000  0.846100  0.040800  1
  H  H424  1  0.423000  0.153900  0.459200  1
  H  H425  1  0.102700  0.691700  0.979100  1
  H  H426  1  0.102700  0.308300  0.520900  1
  H  H427  1  0.602700  0.191700  0.979100  1
  H  H428  1  0.602700  0.808300  0.520900  1
  H  H429  1  0.897300  0.308300  0.020900  1
  H  H430  1  0.897300  0.691700  0.479100  1
  H  H431  1  0.397300  0.808300  0.020900  1
  H  H432  1  0.397300  0.191700  0.479100  1
  H  H433  1  0.073100  0.692700  0.948900  1
  H  H434  1  0.073100  0.307300  0.551100  1
  H  H435  1  0.573100  0.192700  0.948900  1
  H  H436  1  0.573100  0.807300  0.551100  1
  H  H437  1  0.926900  0.307300  0.051100  1
  H  H438  1  0.926900  0.692700  0.448900  1
  H  H439  1  0.426900  0.807300  0.051100  1
  H  H440  1  0.426900  0.192700  0.448900  1
  H  H441  1  0.655000  0.889700  0.870700  1
  H  H442  1  0.655000  0.110300  0.629300  1
  H  H443  1  0.155000  0.389700  0.870700  1
  H  H444  1  0.155000  0.610300  0.629300  1
  H  H445  1  0.345000  0.110300  0.129300  1
  H  H446  1  0.345000  0.889700  0.370700  1
  H  H447  1  0.845000  0.610300  0.129300  1
  H  H448  1  0.845000  0.389700  0.370700  1
  H  H449  1  0.631500  0.915600  0.850100  1
  H  H450  1  0.631500  0.084400  0.649900  1
  H  H451  1  0.131500  0.415600  0.850100  1
  H  H452  1  0.131500  0.584400  0.649900  1
  H  H453  1  0.368500  0.084400  0.149900  1
  H  H454  1  0.368500  0.915600  0.350100  1
  H  H455  1  0.868500  0.584400  0.149900  1
  H  H456  1  0.868500  0.415600  0.350100  1
  H  H457  1  0.671500  0.880200  0.837100  1
  H  H458  1  0.671500  0.119800  0.662900  1
  H  H459  1  0.171500  0.380200  0.837100  1
  H  H460  1  0.171500  0.619800  0.662900  1
  H  H461  1  0.328500  0.119800  0.162900  1
  H  H462  1  0.328500  0.880200  0.337100  1
  H  H463  1  0.828500  0.619800  0.162900  1
  H  H464  1  0.828500  0.380200  0.337100  1
  H  H465  1  0.189400  0.629800  0.843500  1
  H  H466  1  0.189400  0.370200  0.656500  1
  H  H467  1  0.689400  0.129800  0.843500  1
  H  H468  1  0.689400  0.870200  0.656500  1
  H  H469  1  0.810600  0.370200  0.156500  1
  H  H470  1  0.810600  0.629800  0.343500  1
  H  H471  1  0.310600  0.870200  0.156500  1
  H  H472  1  0.310600  0.129800  0.343500  1
  H  H473  1  0.249000  0.650900  0.852100  1
  H  H474  1  0.249000  0.349100  0.647900  1
  H  H475  1  0.749000  0.150900  0.852100  1
  H  H476  1  0.749000  0.849100  0.647900  1
  H  H477  1  0.751000  0.349100  0.147900  1
  H  H478  1  0.751000  0.650900  0.352100  1
  H  H479  1  0.251000  0.849100  0.147900  1
  H  H480  1  0.251000  0.150900  0.352100  1
  H  H481  1  0.234900  0.612900  0.862400  1
  H  H482  1  0.234900  0.387100  0.637600  1
  H  H483  1  0.734900  0.112900  0.862400  1
  H  H484  1  0.734900  0.887100  0.637600  1
  H  H485  1  0.765100  0.387100  0.137600  1
  H  H486  1  0.765100  0.612900  0.362400  1
  H  H487  1  0.265100  0.887100  0.137600  1
  H  H488  1  0.265100  0.112900  0.362400  1
  H  H489  1  0.010900  0.641100  0.997600  1
  H  H490  1  0.010900  0.358900  0.502400  1
  H  H491  1  0.510900  0.141100  0.997600  1
  H  H492  1  0.510900  0.858900  0.502400  1
  H  H493  1  0.989100  0.358900  0.002400  1
  H  H494  1  0.989100  0.641100  0.497600  1
  H  H495  1  0.489100  0.858900  0.002400  1
  H  H496  1  0.489100  0.141100  0.497600  1
  H  H497  1  0.974300  0.674700  0.016900  1
  H  H498  1  0.974300  0.325300  0.483100  1
  H  H499  1  0.474300  0.174700  0.016900  1
  H  H500  1  0.474300  0.825300  0.483100  1
  H  H501  1  0.025700  0.325300  0.983100  1
  H  H502  1  0.025700  0.674700  0.516900  1
  H  H503  1  0.525700  0.825300  0.983100  1
  H  H504  1  0.525700  0.174700  0.516900  1
  H  H505  1  0.042600  0.675500  0.018900  1
  H  H506  1  0.042600  0.324500  0.481100  1
  H  H507  1  0.542600  0.175500  0.018900  1
  H  H508  1  0.542600  0.824500  0.481100  1
  H  H509  1  0.957400  0.324500  0.981100  1
  H  H510  1  0.957400  0.675500  0.518900  1
  H  H511  1  0.457400  0.824500  0.981100  1
  H  H512  1  0.457400  0.175500  0.518900  1
  H  H513  1  0.010500  0.745000  0.976900  1
  H  H514  1  0.010500  0.255000  0.523100  1
  H  H515  1  0.510500  0.245000  0.976900  1
  H  H516  1  0.510500  0.755000  0.523100  1
  H  H517  1  0.989500  0.255000  0.023100  1
  H  H518  1  0.989500  0.745000  0.476900  1
  H  H519  1  0.489500  0.755000  0.023100  1
  H  H520  1  0.489500  0.245000  0.476900  1
  H  H521  1  0.036900  0.741000  0.007200  1
  H  H522  1  0.036900  0.259000  0.492800  1
  H  H523  1  0.536900  0.241000  0.007200  1
  H  H524  1  0.536900  0.759000  0.492800  1
  H  H525  1  0.963100  0.259000  0.992800  1
  H  H526  1  0.963100  0.741000  0.507200  1
  H  H527  1  0.463100  0.759000  0.992800  1
  H  H528  1  0.463100  0.241000  0.507200  1
  H  H529  1  0.969200  0.737900  0.002100  1
  H  H530  1  0.969200  0.262100  0.497900  1
  H  H531  1  0.469200  0.237900  0.002100  1
  H  H532  1  0.469200  0.762100  0.497900  1
  H  H533  1  0.030800  0.262100  0.997900  1
  H  H534  1  0.030800  0.737900  0.502100  1
  H  H535  1  0.530800  0.762100  0.997900  1
  H  H536  1  0.530800  0.237900  0.502100  1
  H  H537  1  0.686900  0.724100  0.977300  1
  H  H538  1  0.686900  0.275900  0.522700  1
  H  H539  1  0.186900  0.224100  0.977300  1
  H  H540  1  0.186900  0.775900  0.522700  1
  H  H541  1  0.313100  0.275900  0.022700  1
  H  H542  1  0.313100  0.724100  0.477300  1
  H  H543  1  0.813100  0.775900  0.022700  1
  H  H544  1  0.813100  0.224100  0.477300  1
  H  H545  1  0.666100  0.741500  0.009700  1
  H  H546  1  0.666100  0.258500  0.490300  1
  H  H547  1  0.166100  0.241500  0.009700  1
  H  H548  1  0.166100  0.758500  0.490300  1
  H  H549  1  0.333900  0.258500  0.990300  1
  H  H550  1  0.333900  0.741500  0.509700  1
  H  H551  1  0.833900  0.758500  0.990300  1
  H  H552  1  0.833900  0.241500  0.509700  1
  H  H553  1  0.620300  0.724800  0.985100  1
  H  H554  1  0.620300  0.275200  0.514900  1
  H  H555  1  0.120300  0.224800  0.985100  1
  H  H556  1  0.120300  0.775200  0.514900  1
  H  H557  1  0.379700  0.275200  0.014900  1
  H  H558  1  0.379700  0.724800  0.485100  1
  H  H559  1  0.879700  0.775200  0.014900  1
  H  H560  1  0.879700  0.224800  0.485100  1
  H  H561  1  0.830900  0.404900  0.951900  1
  H  H562  1  0.830900  0.595100  0.548100  1
  H  H563  1  0.330900  0.904900  0.951900  1
  H  H564  1  0.330900  0.095100  0.548100  1
  H  H565  1  0.169100  0.595100  0.048100  1
  H  H566  1  0.169100  0.404900  0.451900  1
  H  H567  1  0.669100  0.095100  0.048100  1
  H  H568  1  0.669100  0.904900  0.451900  1
  H  H569  1  0.879600  0.374200  0.952500  1
  H  H570  1  0.879600  0.625800  0.547500  1
  H  H571  1  0.379600  0.874200  0.952500  1
  H  H572  1  0.379600  0.125800  0.547500  1
  H  H573  1  0.120400  0.625800  0.047500  1
  H  H574  1  0.120400  0.374200  0.452500  1
  H  H575  1  0.620400  0.125800  0.047500  1
  H  H576  1  0.620400  0.874200  0.452500  1
  H  H577  1  0.854600  0.379300  0.922200  1
  H  H578  1  0.854600  0.620700  0.577800  1
  H  H579  1  0.354600  0.879300  0.922200  1
  H  H580  1  0.354600  0.120700  0.577800  1
  H  H581  1  0.145400  0.620700  0.077800  1
  H  H582  1  0.145400  0.379300  0.422200  1
  H  H583  1  0.645400  0.120700  0.077800  1
  H  H584  1  0.645400  0.879300  0.422200  1
  H  H585  1  0.995300  0.422000  0.925900  1
  H  H586  1  0.995300  0.578000  0.574100  1
  H  H587  1  0.495300  0.922000  0.925900  1
  H  H588  1  0.495300  0.078000  0.574100  1
  H  H589  1  0.004700  0.578000  0.074100  1
  H  H590  1  0.004700  0.422000  0.425900  1
  H  H591  1  0.504700  0.078000  0.074100  1
  H  H592  1  0.504700  0.922000  0.425900  1
  H  H593  1  0.955200  0.392700  0.904600  1
  H  H594  1  0.955200  0.607300  0.595400  1
  H  H595  1  0.455200  0.892700  0.904600  1
  H  H596  1  0.455200  0.107300  0.595400  1
  H  H597  1  0.044800  0.607300  0.095400  1
  H  H598  1  0.044800  0.392700  0.404600  1
  H  H599  1  0.544800  0.107300  0.095400  1
  H  H600  1  0.544800  0.892700  0.404600  1
  H  H601  1  0.977700  0.383100  0.934000  1
  H  H602  1  0.977700  0.616900  0.566000  1
  H  H603  1  0.477700  0.883100  0.934000  1
  H  H604  1  0.477700  0.116900  0.566000  1
  H  H605  1  0.022300  0.616900  0.066000  1
  H  H606  1  0.022300  0.383100  0.434000  1
  H  H607  1  0.522300  0.116900  0.066000  1
  H  H608  1  0.522300  0.883100  0.434000  1
  H  H609  1  0.893600  0.450500  0.983800  1
  H  H610  1  0.893600  0.549500  0.516200  1
  H  H611  1  0.393600  0.950500  0.983800  1
  H  H612  1  0.393600  0.049500  0.516200  1
  H  H613  1  0.106400  0.549500  0.016200  1
  H  H614  1  0.106400  0.450500  0.483800  1
  H  H615  1  0.606400  0.049500  0.016200  1
  H  H616  1  0.606400  0.950500  0.483800  1
  H  H617  1  0.953600  0.463100  0.972700  1
  H  H618  1  0.953600  0.536900  0.527300  1
  H  H619  1  0.453600  0.963100  0.972700  1
  H  H620  1  0.453600  0.036900  0.527300  1
  H  H621  1  0.046400  0.536900  0.027300  1
  H  H622  1  0.046400  0.463100  0.472700  1
  H  H623  1  0.546400  0.036900  0.027300  1
  H  H624  1  0.546400  0.963100  0.472700  1
  H  H625  1  0.948000  0.423400  0.981600  1
  H  H626  1  0.948000  0.576600  0.518400  1
  H  H627  1  0.448000  0.923400  0.981600  1
  H  H628  1  0.448000  0.076600  0.518400  1
  H  H629  1  0.052000  0.576600  0.018400  1
  H  H630  1  0.052000  0.423400  0.481600  1
  H  H631  1  0.552000  0.076600  0.018400  1
  H  H632  1  0.552000  0.923400  0.481600  1
  H  H633  1  0.320000  0.784700  0.961000  1
  H  H634  1  0.320000  0.215300  0.539000  1
  H  H635  1  0.820000  0.284700  0.961000  1
  H  H636  1  0.820000  0.715300  0.539000  1
  H  H637  1  0.680000  0.215300  0.039000  1
  H  H638  1  0.680000  0.784700  0.461000  1
  H  H639  1  0.180000  0.715300  0.039000  1
  H  H640  1  0.180000  0.284700  0.461000  1
  H  H641  1  0.388100  0.786300  0.957900  1
  H  H642  1  0.388100  0.213700  0.542100  1
  H  H643  1  0.888100  0.286300  0.957900  1
  H  H644  1  0.888100  0.713700  0.542100  1
  H  H645  1  0.611900  0.213700  0.042100  1
  H  H646  1  0.611900  0.786300  0.457900  1
  H  H647  1  0.111900  0.713700  0.042100  1
  H  H648  1  0.111900  0.286300  0.457900  1
  H  H649  1  0.358800  0.751200  0.967200  1
  H  H650  1  0.358800  0.248800  0.532800  1
  H  H651  1  0.858800  0.251200  0.967200  1
  H  H652  1  0.858800  0.748800  0.532800  1
  H  H653  1  0.641200  0.248800  0.032800  1
  H  H654  1  0.641200  0.751200  0.467200  1
  H  H655  1  0.141200  0.748800  0.032800  1
  H  H656  1  0.141200  0.251200  0.467200  1
  H  H657  1  0.326100  0.543900  0.822500  1.0
  H  H658  1  0.326100  0.456100  0.677500  1.0
  H  H659  1  0.826100  0.043900  0.822500  1.0
  H  H660  1  0.826100  0.956100  0.677500  1.0
  H  H661  1  0.673900  0.456100  0.177500  1.0
  H  H662  1  0.673900  0.543900  0.322500  1.0
  H  H663  1  0.173900  0.956100  0.177500  1.0
  H  H664  1  0.173900  0.043900  0.322500  1.0
  H  H665  1  0.336800  0.654400  0.828200  1.0
  H  H666  1  0.336800  0.345600  0.671800  1.0
  H  H667  1  0.836800  0.154400  0.828200  1.0
  H  H668  1  0.836800  0.845600  0.671800  1.0
  H  H669  1  0.663200  0.345600  0.171800  1.0
  H  H670  1  0.663200  0.654400  0.328200  1.0
  H  H671  1  0.163200  0.845600  0.171800  1.0
  H  H672  1  0.163200  0.154400  0.328200  1.0
  H  H673  1  0.491100  0.661300  0.830400  1.0
  H  H674  1  0.491100  0.338700  0.669600  1.0
  H  H675  1  0.991100  0.161300  0.830400  1.0
  H  H676  1  0.991100  0.838700  0.669600  1.0
  H  H677  1  0.508900  0.338700  0.169600  1.0
  H  H678  1  0.508900  0.661300  0.330400  1.0
  H  H679  1  0.008900  0.838700  0.169600  1.0
  H  H680  1  0.008900  0.161300  0.330400  1.0
  H  H681  1  0.434400  0.684700  0.826500  1.0
  H  H682  1  0.434400  0.315300  0.673500  1.0
  H  H683  1  0.934400  0.184700  0.826500  1.0
  H  H684  1  0.934400  0.815300  0.673500  1.0
  H  H685  1  0.565600  0.315300  0.173500  1.0
  H  H686  1  0.565600  0.684700  0.326500  1.0
  H  H687  1  0.065600  0.815300  0.173500  1.0
  H  H688  1  0.065600  0.184700  0.326500  1.0
  H  H689  1  0.375500  0.707700  0.867600  1.0
  H  H690  1  0.375500  0.292300  0.632400  1.0
  H  H691  1  0.875500  0.207700  0.867600  1.0
  H  H692  1  0.875500  0.792300  0.632400  1.0
  H  H693  1  0.624500  0.292300  0.132400  1.0
  H  H694  1  0.624500  0.707700  0.367600  1.0
  H  H695  1  0.124500  0.792300  0.132400  1.0
  H  H696  1  0.124500  0.207700  0.367600  1.0
  H  H697  1  0.446400  0.722800  0.948900  1.0
  H  H698  1  0.446400  0.277200  0.551100  1.0
  H  H699  1  0.946400  0.222800  0.948900  1.0
  H  H700  1  0.946400  0.777200  0.551100  1.0
  H  H701  1  0.553600  0.277200  0.051100  1.0
  H  H702  1  0.553600  0.722800  0.448900  1.0
  H  H703  1  0.053600  0.777200  0.051100  1.0
  H  H704  1  0.053600  0.222800  0.448900  1.0
  H  H705  1  0.575500  0.676600  0.926000  1.0
  H  H706  1  0.575500  0.323400  0.574000  1.0
  H  H707  1  0.075500  0.176600  0.926000  1.0
  H  H708  1  0.075500  0.823400  0.574000  1.0
  H  H709  1  0.424500  0.323400  0.074000  1.0
  H  H710  1  0.424500  0.676600  0.426000  1.0
  H  H711  1  0.924500  0.823400  0.074000  1.0
  H  H712  1  0.924500  0.176600  0.426000  1.0
  H  H713  1  0.549300  0.706400  0.953100  1.0
  H  H714  1  0.549300  0.293600  0.546900  1.0
  H  H715  1  0.049300  0.206400  0.953100  1.0
  H  H716  1  0.049300  0.793600  0.546900  1.0
  H  H717  1  0.450700  0.293600  0.046900  1.0
  H  H718  1  0.450700  0.706400  0.453100  1.0
  H  H719  1  0.950700  0.793600  0.046900  1.0
  H  H720  1  0.950700  0.206400  0.453100  1.0
  H  H721  1  0.483300  0.683500  0.987200  1.0
  H  H722  1  0.483300  0.316500  0.512800  1.0
  H  H723  1  0.983300  0.183500  0.987200  1.0
  H  H724  1  0.983300  0.816500  0.512800  1.0
  H  H725  1  0.516700  0.316500  0.012800  1.0
  H  H726  1  0.516700  0.683500  0.487200  1.0
  H  H727  1  0.016700  0.816500  0.012800  1.0
  H  H728  1  0.016700  0.183500  0.487200  1.0
  H  H729  1  0.467700  0.572600  0.980200  1.0
  H  H730  1  0.467700  0.427400  0.519800  1.0
  H  H731  1  0.967700  0.072600  0.980200  1.0
  H  H732  1  0.967700  0.927400  0.519800  1.0
  H  H733  1  0.532300  0.427400  0.019800  1.0
  H  H734  1  0.532300  0.572600  0.480200  1.0
  H  H735  1  0.032300  0.927400  0.019800  1.0
  H  H736  1  0.032300  0.072600  0.480200  1.0
  H  H737  1  0.554300  0.542800  0.919900  1.0
  H  H738  1  0.554300  0.457200  0.580100  1.0
  H  H739  1  0.054300  0.042800  0.919900  1.0
  H  H740  1  0.054300  0.957200  0.580100  1.0
  H  H741  1  0.445700  0.457200  0.080100  1.0
  H  H742  1  0.445700  0.542800  0.419900  1.0
  H  H743  1  0.945700  0.957200  0.080100  1.0
  H  H744  1  0.945700  0.042800  0.419900  1.0
  H  H745  1  0.520400  0.529000  0.944800  1.0
  H  H746  1  0.520400  0.471000  0.555200  1.0
  H  H747  1  0.020400  0.029000  0.944800  1.0
  H  H748  1  0.020400  0.971000  0.555200  1.0
  H  H749  1  0.479600  0.471000  0.055200  1.0
  H  H750  1  0.479600  0.529000  0.444800  1.0
  H  H751  1  0.979600  0.971000  0.055200  1.0
  H  H752  1  0.979600  0.029000  0.444800  1.0
  H  H753  1  0.422800  0.513800  0.938500  1.0
  H  H754  1  0.422800  0.486200  0.561500  1.0
  H  H755  1  0.922800  0.013800  0.938500  1.0
  H  H756  1  0.922800  0.986200  0.561500  1.0
  H  H757  1  0.577200  0.486200  0.061500  1.0
  H  H758  1  0.577200  0.513800  0.438500  1.0
  H  H759  1  0.077200  0.986200  0.061500  1.0
  H  H760  1  0.077200  0.013800  0.438500  1.0
  H  H761  1  0.350200  0.499900  0.860500  1.0
  H  H762  1  0.350200  0.500100  0.639500  1.0
  H  H763  1  0.850200  0.999900  0.860500  1.0
  H  H764  1  0.850200  0.000100  0.639500  1.0
  H  H765  1  0.649800  0.500100  0.139500  1.0
  H  H766  1  0.649800  0.499900  0.360500  1.0
  H  H767  1  0.149800  0.000100  0.139500  1.0
  H  H768  1  0.149800  0.999900  0.360500  1.0
  H  H769  1  0.475100  0.527600  0.826800  1.0
  H  H770  1  0.475100  0.472400  0.673200  1.0
  H  H771  1  0.975100  0.027600  0.826800  1.0
  H  H772  1  0.975100  0.972400  0.673200  1.0
  H  H773  1  0.524900  0.472400  0.173200  1.0
  H  H774  1  0.524900  0.527600  0.326800  1.0
  H  H775  1  0.024900  0.972400  0.173200  1.0
  H  H776  1  0.024900  0.027600  0.326800  1.0
  H  H777  1  0.429700  0.469600  0.811500  1.0
  H  H778  1  0.429700  0.530400  0.688500  1.0
  H  H779  1  0.929700  0.969600  0.811500  1.0
  H  H780  1  0.929700  0.030400  0.688500  1.0
  H  H781  1  0.570300  0.530400  0.188500  1.0
  H  H782  1  0.570300  0.469600  0.311500  1.0
  H  H783  1  0.070300  0.030400  0.188500  1.0
  H  H784  1  0.070300  0.969600  0.311500  1.0
  H  H785  1  0.368200  0.489200  0.815800  1.0
  H  H786  1  0.368200  0.510800  0.684200  1.0
  H  H787  1  0.868200  0.989200  0.815800  1.0
  H  H788  1  0.868200  0.010800  0.684200  1.0
  H  H789  1  0.631800  0.510800  0.184200  1.0
  H  H790  1  0.631800  0.489200  0.315800  1.0
  H  H791  1  0.131800  0.010800  0.184200  1.0
  H  H792  1  0.131800  0.989200  0.315800  1.0
  H  H793  1  0.324100  0.495400  0.774200  1.0
  H  H794  1  0.324100  0.504600  0.725800  1.0
  H  H795  1  0.824100  0.995400  0.774200  1.0
  H  H796  1  0.824100  0.004600  0.725800  1.0
  H  H797  1  0.675900  0.504600  0.225800  1.0
  H  H798  1  0.675900  0.495400  0.274200  1.0
  H  H799  1  0.175900  0.004600  0.225800  1.0
  H  H800  1  0.175900  0.995400  0.274200  1.0
  H  H801  1  0.497900  0.498400  0.773800  1.0
  H  H802  1  0.497900  0.501600  0.726200  1.0
  H  H803  1  0.997900  0.998400  0.773800  1.0
  H  H804  1  0.997900  0.001600  0.726200  1.0
  H  H805  1  0.502100  0.501600  0.226200  1.0
  H  H806  1  0.502100  0.498400  0.273800  1.0
  H  H807  1  0.002100  0.001600  0.226200  1.0
  H  H808  1  0.002100  0.998400  0.273800  1.0
  H  H809  1  0.256200  0.658700  0.813900  1.0
  H  H810  1  0.256200  0.341300  0.686100  1.0
  H  H811  1  0.756200  0.158700  0.813900  1.0
  H  H812  1  0.756200  0.841300  0.686100  1.0
  H  H813  1  0.743800  0.341300  0.186100  1.0
  H  H814  1  0.743800  0.658700  0.313900  1.0
  H  H815  1  0.243800  0.841300  0.186100  1.0
  H  H816  1  0.243800  0.158700  0.313900  1.0
  H  H817  1  0.248200  0.656300  0.846900  1.0
  H  H818  1  0.248200  0.343700  0.653100  1.0
  H  H819  1  0.748200  0.156300  0.846900  1.0
  H  H820  1  0.748200  0.843700  0.653100  1.0
  H  H821  1  0.751800  0.343700  0.153100  1.0
  H  H822  1  0.751800  0.656300  0.346900  1.0
  H  H823  1  0.251800  0.843700  0.153100  1.0
  H  H824  1  0.251800  0.156300  0.346900  1.0
  H  H825  1  0.196000  0.646100  0.824700  1.0
  H  H826  1  0.196000  0.353900  0.675300  1.0
  H  H827  1  0.696000  0.146100  0.824700  1.0
  H  H828  1  0.696000  0.853900  0.675300  1.0
  H  H829  1  0.804000  0.353900  0.175300  1.0
  H  H830  1  0.804000  0.646100  0.324700  1.0
  H  H831  1  0.304000  0.853900  0.175300  1.0
  H  H832  1  0.304000  0.146100  0.324700  1.0
  H  H833  1  0.235800  0.592700  0.859000  1.0
  H  H834  1  0.235800  0.407300  0.641000  1.0
  H  H835  1  0.735800  0.092700  0.859000  1.0
  H  H836  1  0.735800  0.907300  0.641000  1.0
  H  H837  1  0.764200  0.407300  0.141000  1.0
  H  H838  1  0.764200  0.592700  0.359000  1.0
  H  H839  1  0.264200  0.907300  0.141000  1.0
  H  H840  1  0.264200  0.092700  0.359000  1.0
  H  H841  1  0.241900  0.554800  0.834400  1.0
  H  H842  1  0.241900  0.445200  0.665600  1.0
  H  H843  1  0.741900  0.054800  0.834400  1.0
  H  H844  1  0.741900  0.945200  0.665600  1.0
  H  H845  1  0.758100  0.445200  0.165600  1.0
  H  H846  1  0.758100  0.554800  0.334400  1.0
  H  H847  1  0.258100  0.945200  0.165600  1.0
  H  H848  1  0.258100  0.054800  0.334400  1.0
  H  H849  1  0.186300  0.580600  0.835500  1.0
  H  H850  1  0.186300  0.419400  0.664500  1.0
  H  H851  1  0.686300  0.080600  0.835500  1.0
  H  H852  1  0.686300  0.919400  0.664500  1.0
  H  H853  1  0.813700  0.419400  0.164500  1.0
  H  H854  1  0.813700  0.580600  0.335500  1.0
  H  H855  1  0.313700  0.919400  0.164500  1.0
  H  H856  1  0.313700  0.080600  0.335500  1.0
  H  H857  1  0.263700  0.600700  0.774800  1.0
  H  H858  1  0.263700  0.399300  0.725200  1.0
  H  H859  1  0.763700  0.100700  0.774800  1.0
  H  H860  1  0.763700  0.899300  0.725200  1.0
  H  H861  1  0.736300  0.399300  0.225200  1.0
  H  H862  1  0.736300  0.600700  0.274800  1.0
  H  H863  1  0.236300  0.899300  0.225200  1.0
  H  H864  1  0.236300  0.100700  0.274800  1.0
  H  H865  1  0.202600  0.586900  0.783600  1.0
  H  H866  1  0.202600  0.413100  0.716400  1.0
  H  H867  1  0.702600  0.086900  0.783600  1.0
  H  H868  1  0.702600  0.913100  0.716400  1.0
  H  H869  1  0.797400  0.413100  0.216400  1.0
  H  H870  1  0.797400  0.586900  0.283600  1.0
  H  H871  1  0.297400  0.913100  0.216400  1.0
  H  H872  1  0.297400  0.086900  0.283600  1.0
  H  H873  1  0.257100  0.559900  0.781700  1.0
  H  H874  1  0.257100  0.440100  0.718300  1.0
  H  H875  1  0.757100  0.059900  0.781700  1.0
  H  H876  1  0.757100  0.940100  0.718300  1.0
  H  H877  1  0.742900  0.440100  0.218300  1.0
  H  H878  1  0.742900  0.559900  0.281700  1.0
  H  H879  1  0.242900  0.940100  0.218300  1.0
  H  H880  1  0.242900  0.059900  0.281700  1.0
  H  H881  1  0.307500  0.763200  0.963600  1.0
  H  H882  1  0.307500  0.236800  0.536400  1.0
  H  H883  1  0.807500  0.263200  0.963600  1.0
  H  H884  1  0.807500  0.736800  0.536400  1.0
  H  H885  1  0.692500  0.236800  0.036400  1.0
  H  H886  1  0.692500  0.763200  0.463600  1.0
  H  H887  1  0.192500  0.736800  0.036400  1.0
  H  H888  1  0.192500  0.263200  0.463600  1.0
  H  H889  1  0.374600  0.756900  0.967100  1.0
  H  H890  1  0.374600  0.243100  0.532900  1.0
  H  H891  1  0.874600  0.256900  0.967100  1.0
  H  H892  1  0.874600  0.743100  0.532900  1.0
  H  H893  1  0.625400  0.243100  0.032900  1.0
  H  H894  1  0.625400  0.756900  0.467100  1.0
  H  H895  1  0.125400  0.743100  0.032900  1.0
  H  H896  1  0.125400  0.256900  0.467100  1.0
  H  H897  1  0.333200  0.721400  0.957000  1.0
  H  H898  1  0.333200  0.278600  0.543000  1.0
  H  H899  1  0.833200  0.221400  0.957000  1.0
  H  H900  1  0.833200  0.778600  0.543000  1.0
  H  H901  1  0.666800  0.278600  0.043000  1.0
  H  H902  1  0.666800  0.721400  0.457000  1.0
  H  H903  1  0.166800  0.778600  0.043000  1.0
  H  H904  1  0.166800  0.221400  0.457000  1.0
  H  H905  1  0.456000  0.665300  0.059300  1.0
  H  H906  1  0.456000  0.334700  0.440700  1.0
  H  H907  1  0.956000  0.165300  0.059300  1.0
  H  H908  1  0.956000  0.834700  0.440700  1.0
  H  H909  1  0.544000  0.334700  0.940700  1.0
  H  H910  1  0.544000  0.665300  0.559300  1.0
  H  H911  1  0.044000  0.834700  0.940700  1.0
  H  H912  1  0.044000  0.165300  0.559300  1.0
  H  H913  1  0.488600  0.684500  0.036600  1.0
  H  H914  1  0.488600  0.315500  0.463400  1.0
  H  H915  1  0.988600  0.184500  0.036600  1.0
  H  H916  1  0.988600  0.815500  0.463400  1.0
  H  H917  1  0.511400  0.315500  0.963400  1.0
  H  H918  1  0.511400  0.684500  0.536600  1.0
  H  H919  1  0.011400  0.815500  0.963400  1.0
  H  H920  1  0.011400  0.184500  0.536600  1.0
  H  H921  1  0.511900  0.645800  0.043000  1.0
  H  H922  1  0.511900  0.354200  0.457000  1.0
  H  H923  1  0.011900  0.145800  0.043000  1.0
  H  H924  1  0.011900  0.854200  0.457000  1.0
  H  H925  1  0.488100  0.354200  0.957000  1.0
  H  H926  1  0.488100  0.645800  0.543000  1.0
  H  H927  1  0.988100  0.854200  0.957000  1.0
  H  H928  1  0.988100  0.145800  0.543000  1.0
  H  H929  1  0.384200  0.614300  0.040700  1.0
  H  H930  1  0.384200  0.385700  0.459300  1.0
  H  H931  1  0.884200  0.114300  0.040700  1.0
  H  H932  1  0.884200  0.885700  0.459300  1.0
  H  H933  1  0.615800  0.385700  0.959300  1.0
  H  H934  1  0.615800  0.614300  0.540700  1.0
  H  H935  1  0.115800  0.885700  0.959300  1.0
  H  H936  1  0.115800  0.114300  0.540700  1.0
  H  H937  1  0.426300  0.584200  0.021300  1.0
  H  H938  1  0.426300  0.415800  0.478700  1.0
  H  H939  1  0.926300  0.084200  0.021300  1.0
  H  H940  1  0.926300  0.915800  0.478700  1.0
  H  H941  1  0.573700  0.415800  0.978700  1.0
  H  H942  1  0.573700  0.584200  0.521300  1.0
  H  H943  1  0.073700  0.915800  0.978700  1.0
  H  H944  1  0.073700  0.084200  0.521300  1.0
  H  H945  1  0.373600  0.600800  0.006600  1.0
  H  H946  1  0.373600  0.399200  0.493400  1.0
  H  H947  1  0.873600  0.100800  0.006600  1.0
  H  H948  1  0.873600  0.899200  0.493400  1.0
  H  H949  1  0.626400  0.399200  0.993400  1.0
  H  H950  1  0.626400  0.600800  0.506600  1.0
  H  H951  1  0.126400  0.899200  0.993400  1.0
  H  H952  1  0.126400  0.100800  0.506600  1.0
  H  H953  1  0.258500  0.517700  0.943500  1.0
  H  H954  1  0.258500  0.482300  0.556500  1.0
  H  H955  1  0.758500  0.017700  0.943500  1.0
  H  H956  1  0.758500  0.982300  0.556500  1.0
  H  H957  1  0.741500  0.482300  0.056500  1.0
  H  H958  1  0.741500  0.517700  0.443500  1.0
  H  H959  1  0.241500  0.982300  0.056500  1.0
  H  H960  1  0.241500  0.017700  0.443500  1.0
  H  H961  1  0.282100  0.546800  0.925500  1.0
  H  H962  1  0.282100  0.453200  0.574500  1.0
  H  H963  1  0.782100  0.046800  0.925500  1.0
  H  H964  1  0.782100  0.953200  0.574500  1.0
  H  H965  1  0.717900  0.453200  0.074500  1.0
  H  H966  1  0.717900  0.546800  0.425500  1.0
  H  H967  1  0.217900  0.953200  0.074500  1.0
  H  H968  1  0.217900  0.046800  0.425500  1.0
  H  H969  1  0.319700  0.537100  0.951000  1.0
  H  H970  1  0.319700  0.462900  0.549000  1.0
  H  H971  1  0.819700  0.037100  0.951000  1.0
  H  H972  1  0.819700  0.962900  0.549000  1.0
  H  H973  1  0.680300  0.462900  0.049000  1.0
  H  H974  1  0.680300  0.537100  0.451000  1.0
  H  H975  1  0.180300  0.962900  0.049000  1.0
  H  H976  1  0.180300  0.037100  0.451000  1.0
  H  H977  1  0.296800  0.459600  0.940300  1.0
  H  H978  1  0.296800  0.540400  0.559700  1.0
  H  H979  1  0.796800  0.959600  0.940300  1.0
  H  H980  1  0.796800  0.040400  0.559700  1.0
  H  H981  1  0.703200  0.540400  0.059700  1.0
  H  H982  1  0.703200  0.459600  0.440300  1.0
  H  H983  1  0.203200  0.040400  0.059700  1.0
  H  H984  1  0.203200  0.959600  0.440300  1.0
  H  H985  1  0.358300  0.478400  0.948300  1.0
  H  H986  1  0.358300  0.521600  0.551700  1.0
  H  H987  1  0.858300  0.978400  0.948300  1.0
  H  H988  1  0.858300  0.021600  0.551700  1.0
  H  H989  1  0.641700  0.521600  0.051700  1.0
  H  H990  1  0.641700  0.478400  0.448300  1.0
  H  H991  1  0.141700  0.021600  0.051700  1.0
  H  H992  1  0.141700  0.978400  0.448300  1.0
  H  H993  1  0.351000  0.444600  0.920400  1.0
  H  H994  1  0.351000  0.555400  0.579600  1.0
  H  H995  1  0.851000  0.944600  0.920400  1.0
  H  H996  1  0.851000  0.055400  0.579600  1.0
  H  H997  1  0.649000  0.555400  0.079600  1.0
  H  H998  1  0.649000  0.444600  0.420400  1.0
  H  H999  1  0.149000  0.055400  0.079600  1.0
  H  H1000  1  0.149000  0.944600  0.420400  1.0
  H  H1001  1  0.244200  0.469400  0.900500  1.0
  H  H1002  1  0.244200  0.530600  0.599500  1.0
  H  H1003  1  0.744200  0.969400  0.900500  1.0
  H  H1004  1  0.744200  0.030600  0.599500  1.0
  H  H1005  1  0.755800  0.530600  0.099500  1.0
  H  H1006  1  0.755800  0.469400  0.400500  1.0
  H  H1007  1  0.255800  0.030600  0.099500  1.0
  H  H1008  1  0.255800  0.969400  0.400500  1.0
  H  H1009  1  0.295600  0.455400  0.878500  1.0
  H  H1010  1  0.295600  0.544600  0.621500  1.0
  H  H1011  1  0.795600  0.955400  0.878500  1.0
  H  H1012  1  0.795600  0.044600  0.621500  1.0
  H  H1013  1  0.704400  0.544600  0.121500  1.0
  H  H1014  1  0.704400  0.455400  0.378500  1.0
  H  H1015  1  0.204400  0.044600  0.121500  1.0
  H  H1016  1  0.204400  0.955400  0.378500  1.0
  H  H1017  1  0.266900  0.495700  0.880100  1.0
  H  H1018  1  0.266900  0.504300  0.619900  1.0
  H  H1019  1  0.766900  0.995700  0.880100  1.0
  H  H1020  1  0.766900  0.004300  0.619900  1.0
  H  H1021  1  0.733100  0.504300  0.119900  1.0
  H  H1022  1  0.733100  0.495700  0.380100  1.0
  H  H1023  1  0.233100  0.004300  0.119900  1.0
  H  H1024  1  0.233100  0.995700  0.380100  1.0
  H  H1025  1  0.787900  0.283000  0.791200  1.0
  H  H1026  1  0.787900  0.717000  0.708800  1.0
  H  H1027  1  0.287900  0.783000  0.791200  1.0
  H  H1028  1  0.287900  0.217000  0.708800  1.0
  H  H1029  1  0.212100  0.717000  0.208800  1.0
  H  H1030  1  0.212100  0.283000  0.291200  1.0
  H  H1031  1  0.712100  0.217000  0.208800  1.0
  H  H1032  1  0.712100  0.783000  0.291200  1.0
  H  H1033  1  0.904000  0.250800  0.729200  1.0
  H  H1034  1  0.904000  0.749200  0.770800  1.0
  H  H1035  1  0.404000  0.750800  0.729200  1.0
  H  H1036  1  0.404000  0.249200  0.770800  1.0
  H  H1037  1  0.096000  0.749200  0.270800  1.0
  H  H1038  1  0.096000  0.250800  0.229200  1.0
  H  H1039  1  0.596000  0.249200  0.270800  1.0
  H  H1040  1  0.596000  0.750800  0.229200  1.0
  H  H1041  1  0.910800  0.284000  0.690300  1.0
  H  H1042  1  0.910800  0.716000  0.809700  1.0
  H  H1043  1  0.410800  0.784000  0.690300  1.0
  H  H1044  1  0.410800  0.216000  0.809700  1.0
  H  H1045  1  0.089200  0.716000  0.309700  1.0
  H  H1046  1  0.089200  0.284000  0.190300  1.0
  H  H1047  1  0.589200  0.216000  0.309700  1.0
  H  H1048  1  0.589200  0.784000  0.190300  1.0
  H  H1049  1  0.859500  0.310900  0.685400  1.0
  H  H1050  1  0.859500  0.689100  0.814600  1.0
  H  H1051  1  0.359500  0.810900  0.685400  1.0
  H  H1052  1  0.359500  0.189100  0.814600  1.0
  H  H1053  1  0.140500  0.689100  0.314600  1.0
  H  H1054  1  0.140500  0.310900  0.185400  1.0
  H  H1055  1  0.640500  0.189100  0.314600  1.0
  H  H1056  1  0.640500  0.810900  0.185400  1.0
  H  H1057  1  0.912200  0.219200  0.667200  1.0
  H  H1058  1  0.912200  0.780800  0.832800  1.0
  H  H1059  1  0.412200  0.719200  0.667200  1.0
  H  H1060  1  0.412200  0.280800  0.832800  1.0
  H  H1061  1  0.087800  0.780800  0.332800  1.0
  H  H1062  1  0.087800  0.219200  0.167200  1.0
  H  H1063  1  0.587800  0.280800  0.332800  1.0
  H  H1064  1  0.587800  0.719200  0.167200  1.0
  H  H1065  1  0.786200  0.174700  0.611400  1.0
  H  H1066  1  0.786200  0.825300  0.888600  1.0
  H  H1067  1  0.286200  0.674700  0.611400  1.0
  H  H1068  1  0.286200  0.325300  0.888600  1.0
  H  H1069  1  0.213800  0.825300  0.388600  1.0
  H  H1070  1  0.213800  0.174700  0.111400  1.0
  H  H1071  1  0.713800  0.325300  0.388600  1.0
  H  H1072  1  0.713800  0.674700  0.111400  1.0
  H  H1073  1  0.705600  0.256500  0.615800  1.0
  H  H1074  1  0.705600  0.743500  0.884200  1.0
  H  H1075  1  0.205600  0.756500  0.615800  1.0
  H  H1076  1  0.205600  0.243500  0.884200  1.0
  H  H1077  1  0.294400  0.743500  0.384200  1.0
  H  H1078  1  0.294400  0.256500  0.115800  1.0
  H  H1079  1  0.794400  0.243500  0.384200  1.0
  H  H1080  1  0.794400  0.756500  0.115800  1.0
  H  H1081  1  0.709900  0.212900  0.600000  1.0
  H  H1082  1  0.709900  0.787100  0.900000  1.0
  H  H1083  1  0.209900  0.712900  0.600000  1.0
  H  H1084  1  0.209900  0.287100  0.900000  1.0
  H  H1085  1  0.290100  0.787100  0.400000  1.0
  H  H1086  1  0.290100  0.212900  0.100000  1.0
  H  H1087  1  0.790100  0.287100  0.400000  1.0
  H  H1088  1  0.790100  0.712900  0.100000  1.0
  H  H1089  1  0.669600  0.167100  0.624100  1.0
  H  H1090  1  0.669600  0.832900  0.875900  1.0
  H  H1091  1  0.169600  0.667100  0.624100  1.0
  H  H1092  1  0.169600  0.332900  0.875900  1.0
  H  H1093  1  0.330400  0.832900  0.375900  1.0
  H  H1094  1  0.330400  0.167100  0.124100  1.0
  H  H1095  1  0.830400  0.332900  0.375900  1.0
  H  H1096  1  0.830400  0.667100  0.124100  1.0
  H  H1097  1  0.550600  0.197700  0.685600  1.0
  H  H1098  1  0.550600  0.802300  0.814400  1.0
  H  H1099  1  0.050600  0.697700  0.685600  1.0
  H  H1100  1  0.050600  0.302300  0.814400  1.0
  H  H1101  1  0.449400  0.802300  0.314400  1.0
  H  H1102  1  0.449400  0.197700  0.185600  1.0
  H  H1103  1  0.949400  0.302300  0.314400  1.0
  H  H1104  1  0.949400  0.697700  0.185600  1.0
  H  H1105  1  0.522900  0.265500  0.698800  1.0
  H  H1106  1  0.522900  0.734500  0.801200  1.0
  H  H1107  1  0.022900  0.765500  0.698800  1.0
  H  H1108  1  0.022900  0.234500  0.801200  1.0
  H  H1109  1  0.477100  0.734500  0.301200  1.0
  H  H1110  1  0.477100  0.265500  0.198800  1.0
  H  H1111  1  0.977100  0.234500  0.301200  1.0
  H  H1112  1  0.977100  0.765500  0.198800  1.0
  H  H1113  1  0.564200  0.296600  0.690600  1.0
  H  H1114  1  0.564200  0.703400  0.809400  1.0
  H  H1115  1  0.064200  0.796600  0.690600  1.0
  H  H1116  1  0.064200  0.203400  0.809400  1.0
  H  H1117  1  0.435800  0.703400  0.309400  1.0
  H  H1118  1  0.435800  0.296600  0.190600  1.0
  H  H1119  1  0.935800  0.203400  0.309400  1.0
  H  H1120  1  0.935800  0.796600  0.190600  1.0
  H  H1121  1  0.547900  0.236800  0.739100  1.0
  H  H1122  1  0.547900  0.763200  0.760900  1.0
  H  H1123  1  0.047900  0.736800  0.739100  1.0
  H  H1124  1  0.047900  0.263200  0.760900  1.0
  H  H1125  1  0.452100  0.763200  0.260900  1.0
  H  H1126  1  0.452100  0.236800  0.239100  1.0
  H  H1127  1  0.952100  0.263200  0.260900  1.0
  H  H1128  1  0.952100  0.736800  0.239100  1.0
  H  H1129  1  0.668000  0.281700  0.796500  1.0
  H  H1130  1  0.668000  0.718300  0.703500  1.0
  H  H1131  1  0.168000  0.781700  0.796500  1.0
  H  H1132  1  0.168000  0.218300  0.703500  1.0
  H  H1133  1  0.332000  0.718300  0.203500  1.0
  H  H1134  1  0.332000  0.281700  0.296500  1.0
  H  H1135  1  0.832000  0.218300  0.203500  1.0
  H  H1136  1  0.832000  0.781700  0.296500  1.0
  H  H1137  1  0.712800  0.350000  0.757400  1.0
  H  H1138  1  0.712800  0.650000  0.742600  1.0
  H  H1139  1  0.212800  0.850000  0.757400  1.0
  H  H1140  1  0.212800  0.150000  0.742600  1.0
  H  H1141  1  0.287200  0.650000  0.242600  1.0
  H  H1142  1  0.287200  0.350000  0.257400  1.0
  H  H1143  1  0.787200  0.150000  0.242600  1.0
  H  H1144  1  0.787200  0.850000  0.257400  1.0
  H  H1145  1  0.723200  0.328300  0.810800  1.0
  H  H1146  1  0.723200  0.671700  0.689200  1.0
  H  H1147  1  0.223200  0.828300  0.810800  1.0
  H  H1148  1  0.223200  0.171700  0.689200  1.0
  H  H1149  1  0.276800  0.671700  0.189200  1.0
  H  H1150  1  0.276800  0.328300  0.310800  1.0
  H  H1151  1  0.776800  0.171700  0.189200  1.0
  H  H1152  1  0.776800  0.828300  0.310800  1.0
  H  H1153  1  0.685800  0.362600  0.805400  1.0
  H  H1154  1  0.685800  0.637400  0.694600  1.0
  H  H1155  1  0.185800  0.862600  0.805400  1.0
  H  H1156  1  0.185800  0.137400  0.694600  1.0
  H  H1157  1  0.314200  0.637400  0.194600  1.0
  H  H1158  1  0.314200  0.362600  0.305400  1.0
  H  H1159  1  0.814200  0.137400  0.194600  1.0
  H  H1160  1  0.814200  0.862600  0.305400  1.0
  H  H1161  1  0.632600  0.107400  0.613900  1.0
  H  H1162  1  0.632600  0.892600  0.886100  1.0
  H  H1163  1  0.132600  0.607400  0.613900  1.0
  H  H1164  1  0.132600  0.392600  0.886100  1.0
  H  H1165  1  0.367400  0.892600  0.386100  1.0
  H  H1166  1  0.367400  0.107400  0.113900  1.0
  H  H1167  1  0.867400  0.392600  0.386100  1.0
  H  H1168  1  0.867400  0.607400  0.113900  1.0
  H  H1169  1  0.629800  0.078200  0.634600  1.0
  H  H1170  1  0.629800  0.921800  0.865400  1.0
  H  H1171  1  0.129800  0.578200  0.634600  1.0
  H  H1172  1  0.129800  0.421800  0.865400  1.0
  H  H1173  1  0.370200  0.921800  0.365400  1.0
  H  H1174  1  0.370200  0.078200  0.134600  1.0
  H  H1175  1  0.870200  0.421800  0.365400  1.0
  H  H1176  1  0.870200  0.578200  0.134600  1.0
  H  H1177  1  0.679800  0.109000  0.638600  1.0
  H  H1178  1  0.679800  0.891000  0.861400  1.0
  H  H1179  1  0.179800  0.609000  0.638600  1.0
  H  H1180  1  0.179800  0.391000  0.861400  1.0
  H  H1181  1  0.320200  0.891000  0.361400  1.0
  H  H1182  1  0.320200  0.109000  0.138600  1.0
  H  H1183  1  0.820200  0.391000  0.361400  1.0
  H  H1184  1  0.820200  0.609000  0.138600  1.0
  H  H1185  1  0.518800  0.191700  0.791800  1.0
  H  H1186  1  0.518800  0.808300  0.708200  1.0
  H  H1187  1  0.018800  0.691700  0.791800  1.0
  H  H1188  1  0.018800  0.308300  0.708200  1.0
  H  H1189  1  0.481200  0.808300  0.208200  1.0
  H  H1190  1  0.481200  0.191700  0.291800  1.0
  H  H1191  1  0.981200  0.308300  0.208200  1.0
  H  H1192  1  0.981200  0.691700  0.291800  1.0
  H  H1193  1  0.559100  0.184700  0.763900  1.0
  H  H1194  1  0.559100  0.815300  0.736100  1.0
  H  H1195  1  0.059100  0.684700  0.763900  1.0
  H  H1196  1  0.059100  0.315300  0.736100  1.0
  H  H1197  1  0.440900  0.815300  0.236100  1.0
  H  H1198  1  0.440900  0.184700  0.263900  1.0
  H  H1199  1  0.940900  0.315300  0.236100  1.0
  H  H1200  1  0.940900  0.684700  0.263900  1.0
  H  H1201  1  0.507000  0.213800  0.766800  1.0
  H  H1202  1  0.507000  0.786200  0.733200  1.0
  H  H1203  1  0.007000  0.713800  0.766800  1.0
  H  H1204  1  0.007000  0.286200  0.733200  1.0
  H  H1205  1  0.493000  0.786200  0.233200  1.0
  H  H1206  1  0.493000  0.213800  0.266800  1.0
  H  H1207  1  0.993000  0.286200  0.233200  1.0
  H  H1208  1  0.993000  0.713800  0.266800  1.0
  H  H1209  1  0.526000  0.251700  0.829900  1.0
  H  H1210  1  0.526000  0.748300  0.670100  1.0
  H  H1211  1  0.026000  0.751700  0.829900  1.0
  H  H1212  1  0.026000  0.248300  0.670100  1.0
  H  H1213  1  0.474000  0.748300  0.170100  1.0
  H  H1214  1  0.474000  0.251700  0.329900  1.0
  H  H1215  1  0.974000  0.248300  0.170100  1.0
  H  H1216  1  0.974000  0.751700  0.329900  1.0
  H  H1217  1  0.511200  0.275100  0.806000  1.0
  H  H1218  1  0.511200  0.724900  0.694000  1.0
  H  H1219  1  0.011200  0.775100  0.806000  1.0
  H  H1220  1  0.011200  0.224900  0.694000  1.0
  H  H1221  1  0.488800  0.724900  0.194000  1.0
  H  H1222  1  0.488800  0.275100  0.306000  1.0
  H  H1223  1  0.988800  0.224900  0.194000  1.0
  H  H1224  1  0.988800  0.775100  0.306000  1.0
  H  H1225  1  0.567500  0.284800  0.825400  1.0
  H  H1226  1  0.567500  0.715200  0.674600  1.0
  H  H1227  1  0.067500  0.784800  0.825400  1.0
  H  H1228  1  0.067500  0.215200  0.674600  1.0
  H  H1229  1  0.432500  0.715200  0.174600  1.0
  H  H1230  1  0.432500  0.284800  0.325400  1.0
  H  H1231  1  0.932500  0.215200  0.174600  1.0
  H  H1232  1  0.932500  0.784800  0.325400  1.0
  H  H1233  1  0.929800  0.444400  0.892000  1.0
  H  H1234  1  0.929800  0.555600  0.608000  1.0
  H  H1235  1  0.429800  0.944400  0.892000  1.0
  H  H1236  1  0.429800  0.055600  0.608000  1.0
  H  H1237  1  0.070200  0.555600  0.108000  1.0
  H  H1238  1  0.070200  0.444400  0.392000  1.0
  H  H1239  1  0.570200  0.055600  0.108000  1.0
  H  H1240  1  0.570200  0.944400  0.392000  1.0
  H  H1241  1  0.824400  0.469600  0.958900  1.0
  H  H1242  1  0.824400  0.530400  0.541100  1.0
  H  H1243  1  0.324400  0.969600  0.958900  1.0
  H  H1244  1  0.324400  0.030400  0.541100  1.0
  H  H1245  1  0.175600  0.530400  0.041100  1.0
  H  H1246  1  0.175600  0.469600  0.458900  1.0
  H  H1247  1  0.675600  0.030400  0.041100  1.0
  H  H1248  1  0.675600  0.969600  0.458900  1.0
  H  H1249  1  0.730700  0.524000  0.930000  1.0
  H  H1250  1  0.730700  0.476000  0.570000  1.0
  H  H1251  1  0.230700  0.024000  0.930000  1.0
  H  H1252  1  0.230700  0.976000  0.570000  1.0
  H  H1253  1  0.269300  0.476000  0.070000  1.0
  H  H1254  1  0.269300  0.524000  0.430000  1.0
  H  H1255  1  0.769300  0.976000  0.070000  1.0
  H  H1256  1  0.769300  0.024000  0.430000  1.0
  H  H1257  1  0.740900  0.503800  0.956100  1.0
  H  H1258  1  0.740900  0.496200  0.543900  1.0
  H  H1259  1  0.240900  0.003800  0.956100  1.0
  H  H1260  1  0.240900  0.996200  0.543900  1.0
  H  H1261  1  0.259100  0.496200  0.043900  1.0
  H  H1262  1  0.259100  0.503800  0.456100  1.0
  H  H1263  1  0.759100  0.996200  0.043900  1.0
  H  H1264  1  0.759100  0.003800  0.456100  1.0
  H  H1265  1  0.793500  0.536600  0.999200  1.0
  H  H1266  1  0.793500  0.463400  0.500800  1.0
  H  H1267  1  0.293500  0.036600  0.999200  1.0
  H  H1268  1  0.293500  0.963400  0.500800  1.0
  H  H1269  1  0.206500  0.463400  0.000800  1.0
  H  H1270  1  0.206500  0.536600  0.499200  1.0
  H  H1271  1  0.706500  0.963400  0.000800  1.0
  H  H1272  1  0.706500  0.036600  0.499200  1.0
  H  H1273  1  0.820200  0.647900  0.012200  1.0
  H  H1274  1  0.820200  0.352100  0.487800  1.0
  H  H1275  1  0.320200  0.147900  0.012200  1.0
  H  H1276  1  0.320200  0.852100  0.487800  1.0
  H  H1277  1  0.179800  0.352100  0.987800  1.0
  H  H1278  1  0.179800  0.647900  0.512200  1.0
  H  H1279  1  0.679800  0.852100  0.987800  1.0
  H  H1280  1  0.679800  0.147900  0.512200  1.0
  H  H1281  1  0.778800  0.660400  0.944000  1.0
  H  H1282  1  0.778800  0.339600  0.556000  1.0
  H  H1283  1  0.278800  0.160400  0.944000  1.0
  H  H1284  1  0.278800  0.839600  0.556000  1.0
  H  H1285  1  0.221200  0.339600  0.056000  1.0
  H  H1286  1  0.221200  0.660400  0.444000  1.0
  H  H1287  1  0.721200  0.839600  0.056000  1.0
  H  H1288  1  0.721200  0.160400  0.444000  1.0
  H  H1289  1  0.799500  0.682100  0.975500  1.0
  H  H1290  1  0.799500  0.317900  0.524500  1.0
  H  H1291  1  0.299500  0.182100  0.975500  1.0
  H  H1292  1  0.299500  0.817900  0.524500  1.0
  H  H1293  1  0.200500  0.317900  0.024500  1.0
  H  H1294  1  0.200500  0.682100  0.475500  1.0
  H  H1295  1  0.700500  0.817900  0.024500  1.0
  H  H1296  1  0.700500  0.182100  0.475500  1.0
  H  H1297  1  0.899500  0.685500  0.987300  1.0
  H  H1298  1  0.899500  0.314500  0.512700  1.0
  H  H1299  1  0.399500  0.185500  0.987300  1.0
  H  H1300  1  0.399500  0.814500  0.512700  1.0
  H  H1301  1  0.100500  0.314500  0.012700  1.0
  H  H1302  1  0.100500  0.685500  0.487300  1.0
  H  H1303  1  0.600500  0.814500  0.012700  1.0
  H  H1304  1  0.600500  0.185500  0.487300  1.0
  H  H1305  1  0.014000  0.660200  0.924100  1.0
  H  H1306  1  0.014000  0.339800  0.575900  1.0
  H  H1307  1  0.514000  0.160200  0.924100  1.0
  H  H1308  1  0.514000  0.839800  0.575900  1.0
  H  H1309  1  0.986000  0.339800  0.075900  1.0
  H  H1310  1  0.986000  0.660200  0.424100  1.0
  H  H1311  1  0.486000  0.839800  0.075900  1.0
  H  H1312  1  0.486000  0.160200  0.424100  1.0
  H  H1313  1  0.919200  0.629700  0.867000  1.0
  H  H1314  1  0.919200  0.370300  0.633000  1.0
  H  H1315  1  0.419200  0.129700  0.867000  1.0
  H  H1316  1  0.419200  0.870300  0.633000  1.0
  H  H1317  1  0.080800  0.370300  0.133000  1.0
  H  H1318  1  0.080800  0.629700  0.367000  1.0
  H  H1319  1  0.580800  0.870300  0.133000  1.0
  H  H1320  1  0.580800  0.129700  0.367000  1.0
  H  H1321  1  0.985200  0.638500  0.874600  1.0
  H  H1322  1  0.985200  0.361500  0.625400  1.0
  H  H1323  1  0.485200  0.138500  0.874600  1.0
  H  H1324  1  0.485200  0.861500  0.625400  1.0
  H  H1325  1  0.014800  0.361500  0.125400  1.0
  H  H1326  1  0.014800  0.638500  0.374600  1.0
  H  H1327  1  0.514800  0.861500  0.125400  1.0
  H  H1328  1  0.514800  0.138500  0.374600  1.0
  H  H1329  1  0.050400  0.594300  0.885600  1.0
  H  H1330  1  0.050400  0.405700  0.614400  1.0
  H  H1331  1  0.550400  0.094300  0.885600  1.0
  H  H1332  1  0.550400  0.905700  0.614400  1.0
  H  H1333  1  0.949600  0.405700  0.114400  1.0
  H  H1334  1  0.949600  0.594300  0.385600  1.0
  H  H1335  1  0.449600  0.905700  0.114400  1.0
  H  H1336  1  0.449600  0.094300  0.385600  1.0
  H  H1337  1  0.003100  0.484200  0.867900  1.0
  H  H1338  1  0.003100  0.515800  0.632100  1.0
  H  H1339  1  0.503100  0.984200  0.867900  1.0
  H  H1340  1  0.503100  0.015800  0.632100  1.0
  H  H1341  1  0.996900  0.515800  0.132100  1.0
  H  H1342  1  0.996900  0.484200  0.367900  1.0
  H  H1343  1  0.496900  0.015800  0.132100  1.0
  H  H1344  1  0.496900  0.984200  0.367900  1.0
  H  H1345  1  0.856700  0.500500  0.848800  1.0
  H  H1346  1  0.856700  0.499500  0.651200  1.0
  H  H1347  1  0.356700  0.000500  0.848800  1.0
  H  H1348  1  0.356700  0.999500  0.651200  1.0
  H  H1349  1  0.143300  0.499500  0.151200  1.0
  H  H1350  1  0.143300  0.500500  0.348800  1.0
  H  H1351  1  0.643300  0.999500  0.151200  1.0
  H  H1352  1  0.643300  0.000500  0.348800  1.0
  H  H1353  1  0.926200  0.460600  0.818500  1.0
  H  H1354  1  0.926200  0.539400  0.681500  1.0
  H  H1355  1  0.426200  0.960600  0.818500  1.0
  H  H1356  1  0.426200  0.039400  0.681500  1.0
  H  H1357  1  0.073800  0.539400  0.181500  1.0
  H  H1358  1  0.073800  0.460600  0.318500  1.0
  H  H1359  1  0.573800  0.039400  0.181500  1.0
  H  H1360  1  0.573800  0.960600  0.318500  1.0
  H  H1361  1  0.941200  0.441600  0.844900  1.0
  H  H1362  1  0.941200  0.558400  0.655100  1.0
  H  H1363  1  0.441200  0.941600  0.844900  1.0
  H  H1364  1  0.441200  0.058400  0.655100  1.0
  H  H1365  1  0.058800  0.558400  0.155100  1.0
  H  H1366  1  0.058800  0.441600  0.344900  1.0
  H  H1367  1  0.558800  0.058400  0.155100  1.0
  H  H1368  1  0.558800  0.941600  0.344900  1.0
  H  H1369  1  0.891600  0.384700  0.844900  1.0
  H  H1370  1  0.891600  0.615300  0.655100  1.0
  H  H1371  1  0.391600  0.884700  0.844900  1.0
  H  H1372  1  0.391600  0.115300  0.655100  1.0
  H  H1373  1  0.108400  0.615300  0.155100  1.0
  H  H1374  1  0.108400  0.384700  0.344900  1.0
  H  H1375  1  0.608400  0.115300  0.155100  1.0
  H  H1376  1  0.608400  0.884700  0.344900  1.0
  H  H1377  1  0.816200  0.344200  0.833000  1.0
  H  H1378  1  0.816200  0.655800  0.667000  1.0
  H  H1379  1  0.316200  0.844200  0.833000  1.0
  H  H1380  1  0.316200  0.155800  0.667000  1.0
  H  H1381  1  0.183800  0.655800  0.167000  1.0
  H  H1382  1  0.183800  0.344200  0.333000  1.0
  H  H1383  1  0.683800  0.155800  0.167000  1.0
  H  H1384  1  0.683800  0.844200  0.333000  1.0
  H  H1385  1  0.745200  0.412800  0.787700  1.0
  H  H1386  1  0.745200  0.587200  0.712300  1.0
  H  H1387  1  0.245200  0.912800  0.787700  1.0
  H  H1388  1  0.245200  0.087200  0.712300  1.0
  H  H1389  1  0.254800  0.587200  0.212300  1.0
  H  H1390  1  0.254800  0.412800  0.287700  1.0
  H  H1391  1  0.754800  0.087200  0.212300  1.0
  H  H1392  1  0.754800  0.912800  0.287700  1.0
  H  H1393  1  0.820700  0.456200  0.802500  1.0
  H  H1394  1  0.820700  0.543800  0.697500  1.0
  H  H1395  1  0.320700  0.956200  0.802500  1.0
  H  H1396  1  0.320700  0.043800  0.697500  1.0
  H  H1397  1  0.179300  0.543800  0.197500  1.0
  H  H1398  1  0.179300  0.456200  0.302500  1.0
  H  H1399  1  0.679300  0.043800  0.197500  1.0
  H  H1400  1  0.679300  0.956200  0.302500  1.0
  H  H1401  1  0.988900  0.437400  0.924000  1.0
  H  H1402  1  0.988900  0.562600  0.576000  1.0
  H  H1403  1  0.488900  0.937400  0.924000  1.0
  H  H1404  1  0.488900  0.062600  0.576000  1.0
  H  H1405  1  0.011100  0.562600  0.076000  1.0
  H  H1406  1  0.011100  0.437400  0.424000  1.0
  H  H1407  1  0.511100  0.062600  0.076000  1.0
  H  H1408  1  0.511100  0.937400  0.424000  1.0
  H  H1409  1  0.998600  0.413900  0.948300  1.0
  H  H1410  1  0.998600  0.586100  0.551700  1.0
  H  H1411  1  0.498600  0.913900  0.948300  1.0
  H  H1412  1  0.498600  0.086100  0.551700  1.0
  H  H1413  1  0.001400  0.586100  0.051700  1.0
  H  H1414  1  0.001400  0.413900  0.448300  1.0
  H  H1415  1  0.501400  0.086100  0.051700  1.0
  H  H1416  1  0.501400  0.913900  0.448300  1.0
  H  H1417  1  0.980800  0.457400  0.957400  1.0
  H  H1418  1  0.980800  0.542600  0.542600  1.0
  H  H1419  1  0.480800  0.957400  0.957400  1.0
  H  H1420  1  0.480800  0.042600  0.542600  1.0
  H  H1421  1  0.019200  0.542600  0.042600  1.0
  H  H1422  1  0.019200  0.457400  0.457400  1.0
  H  H1423  1  0.519200  0.042600  0.042600  1.0
  H  H1424  1  0.519200  0.957400  0.457400  1.0
  H  H1425  1  0.920200  0.386100  0.900100  1.0
  H  H1426  1  0.920200  0.613900  0.599900  1.0
  H  H1427  1  0.420200  0.886100  0.900100  1.0
  H  H1428  1  0.420200  0.113900  0.599900  1.0
  H  H1429  1  0.079800  0.613900  0.099900  1.0
  H  H1430  1  0.079800  0.386100  0.400100  1.0
  H  H1431  1  0.579800  0.113900  0.099900  1.0
  H  H1432  1  0.579800  0.886100  0.400100  1.0
  H  H1433  1  0.864600  0.376900  0.917000  1.0
  H  H1434  1  0.864600  0.623100  0.583000  1.0
  H  H1435  1  0.364600  0.876900  0.917000  1.0
  H  H1436  1  0.364600  0.123100  0.583000  1.0
  H  H1437  1  0.135400  0.623100  0.083000  1.0
  H  H1438  1  0.135400  0.376900  0.417000  1.0
  H  H1439  1  0.635400  0.123100  0.083000  1.0
  H  H1440  1  0.635400  0.876900  0.417000  1.0
  H  H1441  1  0.926500  0.364600  0.925900  1.0
  H  H1442  1  0.926500  0.635400  0.574100  1.0
  H  H1443  1  0.426500  0.864600  0.925900  1.0
  H  H1444  1  0.426500  0.135400  0.574100  1.0
  H  H1445  1  0.073500  0.635400  0.074100  1.0
  H  H1446  1  0.073500  0.364600  0.425900  1.0
  H  H1447  1  0.573500  0.135400  0.074100  1.0
  H  H1448  1  0.573500  0.864600  0.425900  1.0
  H  H1449  1  0.914500  0.402300  0.978500  1.0
  H  H1450  1  0.914500  0.597700  0.521500  1.0
  H  H1451  1  0.414500  0.902300  0.978500  1.0
  H  H1452  1  0.414500  0.097700  0.521500  1.0
  H  H1453  1  0.085500  0.597700  0.021500  1.0
  H  H1454  1  0.085500  0.402300  0.478500  1.0
  H  H1455  1  0.585500  0.097700  0.021500  1.0
  H  H1456  1  0.585500  0.902300  0.478500  1.0
  H  H1457  1  0.850500  0.409500  0.969000  1.0
  H  H1458  1  0.850500  0.590500  0.531000  1.0
  H  H1459  1  0.350500  0.909500  0.969000  1.0
  H  H1460  1  0.350500  0.090500  0.531000  1.0
  H  H1461  1  0.149500  0.590500  0.031000  1.0
  H  H1462  1  0.149500  0.409500  0.469000  1.0
  H  H1463  1  0.649500  0.090500  0.031000  1.0
  H  H1464  1  0.649500  0.909500  0.469000  1.0
  H  H1465  1  0.890100  0.444400  0.983800  1.0
  H  H1466  1  0.890100  0.555600  0.516200  1.0
  H  H1467  1  0.390100  0.944400  0.983800  1.0
  H  H1468  1  0.390100  0.055600  0.516200  1.0
  H  H1469  1  0.109900  0.555600  0.016200  1.0
  H  H1470  1  0.109900  0.444400  0.483800  1.0
  H  H1471  1  0.609900  0.055600  0.016200  1.0
  H  H1472  1  0.609900  0.944400  0.483800  1.0
  H  H1473  1  0.847100  0.557400  0.067500  1.0
  H  H1474  1  0.847100  0.442600  0.432500  1.0
  H  H1475  1  0.347100  0.057400  0.067500  1.0
  H  H1476  1  0.347100  0.942600  0.432500  1.0
  H  H1477  1  0.152900  0.442600  0.932500  1.0
  H  H1478  1  0.152900  0.557400  0.567500  1.0
  H  H1479  1  0.652900  0.942600  0.932500  1.0
  H  H1480  1  0.652900  0.057400  0.567500  1.0
  H  H1481  1  0.870500  0.543700  0.035100  1.0
  H  H1482  1  0.870500  0.456300  0.464900  1.0
  H  H1483  1  0.370500  0.043700  0.035100  1.0
  H  H1484  1  0.370500  0.956300  0.464900  1.0
  H  H1485  1  0.129500  0.456300  0.964900  1.0
  H  H1486  1  0.129500  0.543700  0.535100  1.0
  H  H1487  1  0.629500  0.956300  0.964900  1.0
  H  H1488  1  0.629500  0.043700  0.535100  1.0
  H  H1489  1  0.804100  0.539500  0.041800  1.0
  H  H1490  1  0.804100  0.460500  0.458200  1.0
  H  H1491  1  0.304100  0.039500  0.041800  1.0
  H  H1492  1  0.304100  0.960500  0.458200  1.0
  H  H1493  1  0.195900  0.460500  0.958200  1.0
  H  H1494  1  0.195900  0.539500  0.541800  1.0
  H  H1495  1  0.695900  0.960500  0.958200  1.0
  H  H1496  1  0.695900  0.039500  0.541800  1.0
  H  H1497  1  0.783600  0.612500  0.081600  1.0
  H  H1498  1  0.783600  0.387500  0.418400  1.0
  H  H1499  1  0.283600  0.112500  0.081600  1.0
  H  H1500  1  0.283600  0.887500  0.418400  1.0
  H  H1501  1  0.216400  0.387500  0.918400  1.0
  H  H1502  1  0.216400  0.612500  0.581600  1.0
  H  H1503  1  0.716400  0.887500  0.918400  1.0
  H  H1504  1  0.716400  0.112500  0.581600  1.0
  H  H1505  1  0.740400  0.598000  0.055200  1.0
  H  H1506  1  0.740400  0.402000  0.444800  1.0
  H  H1507  1  0.240400  0.098000  0.055200  1.0
  H  H1508  1  0.240400  0.902000  0.444800  1.0
  H  H1509  1  0.259600  0.402000  0.944800  1.0
  H  H1510  1  0.259600  0.598000  0.555200  1.0
  H  H1511  1  0.759600  0.902000  0.944800  1.0
  H  H1512  1  0.759600  0.098000  0.555200  1.0
  H  H1513  1  0.770700  0.638300  0.059100  1.0
  H  H1514  1  0.770700  0.361700  0.440900  1.0
  H  H1515  1  0.270700  0.138300  0.059100  1.0
  H  H1516  1  0.270700  0.861700  0.440900  1.0
  H  H1517  1  0.229300  0.361700  0.940900  1.0
  H  H1518  1  0.229300  0.638300  0.559100  1.0
  H  H1519  1  0.729300  0.861700  0.940900  1.0
  H  H1520  1  0.729300  0.138300  0.559100  1.0
  H  H1521  1  0.892300  0.621500  0.071300  1.0
  H  H1522  1  0.892300  0.378500  0.428700  1.0
  H  H1523  1  0.392300  0.121500  0.071300  1.0
  H  H1524  1  0.392300  0.878500  0.428700  1.0
  H  H1525  1  0.107700  0.378500  0.928700  1.0
  H  H1526  1  0.107700  0.621500  0.571300  1.0
  H  H1527  1  0.607700  0.878500  0.928700  1.0
  H  H1528  1  0.607700  0.121500  0.571300  1.0
  H  H1529  1  0.871900  0.646600  0.049500  1.0
  H  H1530  1  0.871900  0.353400  0.450500  1.0
  H  H1531  1  0.371900  0.146600  0.049500  1.0
  H  H1532  1  0.371900  0.853400  0.450500  1.0
  H  H1533  1  0.128100  0.353400  0.950500  1.0
  H  H1534  1  0.128100  0.646600  0.549500  1.0
  H  H1535  1  0.628100  0.853400  0.950500  1.0
  H  H1536  1  0.628100  0.146600  0.549500  1.0
  H  H1537  1  0.914400  0.611900  0.038500  1.0
  H  H1538  1  0.914400  0.388100  0.461500  1.0
  H  H1539  1  0.414400  0.111900  0.038500  1.0
  H  H1540  1  0.414400  0.888100  0.461500  1.0
  H  H1541  1  0.085600  0.388100  0.961500  1.0
  H  H1542  1  0.085600  0.611900  0.538500  1.0
  H  H1543  1  0.585600  0.888100  0.961500  1.0
  H  H1544  1  0.585600  0.111900  0.538500  1.0
  H  H1545  1  0.957800  0.717700  0.014700  1.0
  H  H1546  1  0.957800  0.282300  0.485300  1.0
  H  H1547  1  0.457800  0.217700  0.014700  1.0
  H  H1548  1  0.457800  0.782300  0.485300  1.0
  H  H1549  1  0.042200  0.282300  0.985300  1.0
  H  H1550  1  0.042200  0.717700  0.514700  1.0
  H  H1551  1  0.542200  0.782300  0.985300  1.0
  H  H1552  1  0.542200  0.217700  0.514700  1.0
  H  H1553  1  0.018900  0.708500  0.026600  1.0
  H  H1554  1  0.018900  0.291500  0.473400  1.0
  H  H1555  1  0.518900  0.208500  0.026600  1.0
  H  H1556  1  0.518900  0.791500  0.473400  1.0
  H  H1557  1  0.981100  0.291500  0.973400  1.0
  H  H1558  1  0.981100  0.708500  0.526600  1.0
  H  H1559  1  0.481100  0.791500  0.973400  1.0
  H  H1560  1  0.481100  0.208500  0.526600  1.0
  H  H1561  1  0.972700  0.675700  0.017300  1.0
  H  H1562  1  0.972700  0.324300  0.482700  1.0
  H  H1563  1  0.472700  0.175700  0.017300  1.0
  H  H1564  1  0.472700  0.824300  0.482700  1.0
  H  H1565  1  0.027300  0.324300  0.982700  1.0
  H  H1566  1  0.027300  0.675700  0.517300  1.0
  H  H1567  1  0.527300  0.824300  0.982700  1.0
  H  H1568  1  0.527300  0.175700  0.517300  1.0
  H  H1569  1  0.004800  0.745300  0.976400  1.0
  H  H1570  1  0.004800  0.254700  0.523600  1.0
  H  H1571  1  0.504800  0.245300  0.976400  1.0
  H  H1572  1  0.504800  0.754700  0.523600  1.0
  H  H1573  1  0.995200  0.254700  0.023600  1.0
  H  H1574  1  0.995200  0.745300  0.476400  1.0
  H  H1575  1  0.495200  0.754700  0.023600  1.0
  H  H1576  1  0.495200  0.245300  0.476400  1.0
  H  H1577  1  0.053000  0.722000  0.955900  1.0
  H  H1578  1  0.053000  0.278000  0.544100  1.0
  H  H1579  1  0.553000  0.222000  0.955900  1.0
  H  H1580  1  0.553000  0.778000  0.544100  1.0
  H  H1581  1  0.947000  0.278000  0.044100  1.0
  H  H1582  1  0.947000  0.722000  0.455900  1.0
  H  H1583  1  0.447000  0.778000  0.044100  1.0
  H  H1584  1  0.447000  0.222000  0.455900  1.0
  H  H1585  1  0.065300  0.737400  0.989700  1.0
  H  H1586  1  0.065300  0.262600  0.510300  1.0
  H  H1587  1  0.565300  0.237400  0.989700  1.0
  H  H1588  1  0.565300  0.762600  0.510300  1.0
  H  H1589  1  0.934700  0.262600  0.010300  1.0
  H  H1590  1  0.934700  0.737400  0.489700  1.0
  H  H1591  1  0.434700  0.762600  0.010300  1.0
  H  H1592  1  0.434700  0.237400  0.489700  1.0
  H  H1593  1  0.133700  0.574800  0.877900  1.0
  H  H1594  1  0.133700  0.425200  0.622100  1.0
  H  H1595  1  0.633700  0.074800  0.877900  1.0
  H  H1596  1  0.633700  0.925200  0.622100  1.0
  H  H1597  1  0.866300  0.425200  0.122100  1.0
  H  H1598  1  0.866300  0.574800  0.377900  1.0
  H  H1599  1  0.366300  0.925200  0.122100  1.0
  H  H1600  1  0.366300  0.074800  0.377900  1.0
  H  H1601  1  0.176100  0.551800  0.894000  1.0
  H  H1602  1  0.176100  0.448200  0.606000  1.0
  H  H1603  1  0.676100  0.051800  0.894000  1.0
  H  H1604  1  0.676100  0.948200  0.606000  1.0
  H  H1605  1  0.823900  0.448200  0.106000  1.0
  H  H1606  1  0.823900  0.551800  0.394000  1.0
  H  H1607  1  0.323900  0.948200  0.106000  1.0
  H  H1608  1  0.323900  0.051800  0.394000  1.0
  H  H1609  1  0.122500  0.573700  0.911000  1.0
  H  H1610  1  0.122500  0.426300  0.589000  1.0
  H  H1611  1  0.622500  0.073700  0.911000  1.0
  H  H1612  1  0.622500  0.926300  0.589000  1.0
  H  H1613  1  0.877500  0.426300  0.089000  1.0
  H  H1614  1  0.877500  0.573700  0.411000  1.0
  H  H1615  1  0.377500  0.926300  0.089000  1.0
  H  H1616  1  0.377500  0.073700  0.411000  1.0
  H  H1617  1  0.121800  0.520300  0.840500  1.0
  H  H1618  1  0.121800  0.479700  0.659500  1.0
  H  H1619  1  0.621800  0.020300  0.840500  1.0
  H  H1620  1  0.621800  0.979700  0.659500  1.0
  H  H1621  1  0.878200  0.479700  0.159500  1.0
  H  H1622  1  0.878200  0.520300  0.340500  1.0
  H  H1623  1  0.378200  0.979700  0.159500  1.0
  H  H1624  1  0.378200  0.020300  0.340500  1.0
  H  H1625  1  0.098500  0.481300  0.846100  1.0
  H  H1626  1  0.098500  0.518700  0.653900  1.0
  H  H1627  1  0.598500  0.981300  0.846100  1.0
  H  H1628  1  0.598500  0.018700  0.653900  1.0
  H  H1629  1  0.901500  0.518700  0.153900  1.0
  H  H1630  1  0.901500  0.481300  0.346100  1.0
  H  H1631  1  0.401500  0.018700  0.153900  1.0
  H  H1632  1  0.401500  0.981300  0.346100  1.0
  H  H1633  1  0.161400  0.495400  0.856400  1.0
  H  H1634  1  0.161400  0.504600  0.643600  1.0
  H  H1635  1  0.661400  0.995400  0.856400  1.0
  H  H1636  1  0.661400  0.004600  0.643600  1.0
  H  H1637  1  0.838600  0.504600  0.143600  1.0
  H  H1638  1  0.838600  0.495400  0.356400  1.0
  H  H1639  1  0.338600  0.004600  0.143600  1.0
  H  H1640  1  0.338600  0.995400  0.356400  1.0
  H  H1641  1  0.085000  0.514100  0.921300  1.0
  H  H1642  1  0.085000  0.485900  0.578700  1.0
  H  H1643  1  0.585000  0.014100  0.921300  1.0
  H  H1644  1  0.585000  0.985900  0.578700  1.0
  H  H1645  1  0.915000  0.485900  0.078700  1.0
  H  H1646  1  0.915000  0.514100  0.421300  1.0
  H  H1647  1  0.415000  0.985900  0.078700  1.0
  H  H1648  1  0.415000  0.014100  0.421300  1.0
  H  H1649  1  0.138900  0.491800  0.905000  1.0
  H  H1650  1  0.138900  0.508200  0.595000  1.0
  H  H1651  1  0.638900  0.991800  0.905000  1.0
  H  H1652  1  0.638900  0.008200  0.595000  1.0
  H  H1653  1  0.861100  0.508200  0.095000  1.0
  H  H1654  1  0.861100  0.491800  0.405000  1.0
  H  H1655  1  0.361100  0.008200  0.095000  1.0
  H  H1656  1  0.361100  0.991800  0.405000  1.0
  H  H1657  1  0.075500  0.477800  0.895500  1.0
  H  H1658  1  0.075500  0.522200  0.604500  1.0
  H  H1659  1  0.575500  0.977800  0.895500  1.0
  H  H1660  1  0.575500  0.022200  0.604500  1.0
  H  H1661  1  0.924500  0.522200  0.104500  1.0
  H  H1662  1  0.924500  0.477800  0.395500  1.0
  H  H1663  1  0.424500  0.022200  0.104500  1.0
  H  H1664  1  0.424500  0.977800  0.395500  1.0
  H  H1665  1  0.935800  0.774500  0.916900  1.0
  H  H1666  1  0.935800  0.225500  0.583100  1.0
  H  H1667  1  0.435800  0.274500  0.916900  1.0
  H  H1668  1  0.435800  0.725500  0.583100  1.0
  H  H1669  1  0.064200  0.225500  0.083100  1.0
  H  H1670  1  0.064200  0.774500  0.416900  1.0
  H  H1671  1  0.564200  0.725500  0.083100  1.0
  H  H1672  1  0.564200  0.274500  0.416900  1.0
  H  H1673  1  0.949800  0.738700  0.930100  1.0
  H  H1674  1  0.949800  0.261300  0.569900  1.0
  H  H1675  1  0.449800  0.238700  0.930100  1.0
  H  H1676  1  0.449800  0.761300  0.569900  1.0
  H  H1677  1  0.050200  0.261300  0.069900  1.0
  H  H1678  1  0.050200  0.738700  0.430100  1.0
  H  H1679  1  0.550200  0.761300  0.069900  1.0
  H  H1680  1  0.550200  0.238700  0.430100  1.0
  H  H1681  1  0.889400  0.741700  0.914900  1.0
  H  H1682  1  0.889400  0.258300  0.585100  1.0
  H  H1683  1  0.389400  0.241700  0.914900  1.0
  H  H1684  1  0.389400  0.758300  0.585100  1.0
  H  H1685  1  0.110600  0.258300  0.085100  1.0
  H  H1686  1  0.110600  0.741700  0.414900  1.0
  H  H1687  1  0.610600  0.758300  0.085100  1.0
  H  H1688  1  0.610600  0.241700  0.414900  1.0
  H  H1689  1  0.632400  0.530100  0.938200  1.0
  H  H1690  1  0.632400  0.469900  0.561800  1.0
  H  H1691  1  0.132400  0.030100  0.938200  1.0
  H  H1692  1  0.132400  0.969900  0.561800  1.0
  H  H1693  1  0.367600  0.469900  0.061800  1.0
  H  H1694  1  0.367600  0.530100  0.438200  1.0
  H  H1695  1  0.867600  0.969900  0.061800  1.0
  H  H1696  1  0.867600  0.030100  0.438200  1.0
  H  H1697  1  0.645500  0.596700  0.004400  1.0
  H  H1698  1  0.645500  0.403300  0.495600  1.0
  H  H1699  1  0.145500  0.096700  0.004400  1.0
  H  H1700  1  0.145500  0.903300  0.495600  1.0
  H  H1701  1  0.354500  0.403300  0.995600  1.0
  H  H1702  1  0.354500  0.596700  0.504400  1.0
  H  H1703  1  0.854500  0.903300  0.995600  1.0
  H  H1704  1  0.854500  0.096700  0.504400  1.0
  H  H1705  1  0.627400  0.569100  0.024700  1.0
  H  H1706  1  0.627400  0.430900  0.475300  1.0
  H  H1707  1  0.127400  0.069100  0.024700  1.0
  H  H1708  1  0.127400  0.930900  0.475300  1.0
  H  H1709  1  0.372600  0.430900  0.975300  1.0
  H  H1710  1  0.372600  0.569100  0.524700  1.0
  H  H1711  1  0.872600  0.930900  0.975300  1.0
  H  H1712  1  0.872600  0.069100  0.524700  1.0
  H  H1713  1  0.579800  0.585500  0.006700  1.0
  H  H1714  1  0.579800  0.414500  0.493300  1.0
  H  H1715  1  0.079800  0.085500  0.006700  1.0
  H  H1716  1  0.079800  0.914500  0.493300  1.0
  H  H1717  1  0.420200  0.414500  0.993300  1.0
  H  H1718  1  0.420200  0.585500  0.506700  1.0
  H  H1719  1  0.920200  0.914500  0.993300  1.0
  H  H1720  1  0.920200  0.085500  0.506700  1.0
  H  H1721  1  0.621000  0.488400  0.968900  1.0
  H  H1722  1  0.621000  0.511600  0.531100  1.0
  H  H1723  1  0.121000  0.988400  0.968900  1.0
  H  H1724  1  0.121000  0.011600  0.531100  1.0
  H  H1725  1  0.379000  0.511600  0.031100  1.0
  H  H1726  1  0.379000  0.488400  0.468900  1.0
  H  H1727  1  0.879000  0.011600  0.031100  1.0
  H  H1728  1  0.879000  0.988400  0.468900  1.0
  H  H1729  1  0.577700  0.506800  0.994300  1.0
  H  H1730  1  0.577700  0.493200  0.505700  1.0
  H  H1731  1  0.077700  0.006800  0.994300  1.0
  H  H1732  1  0.077700  0.993200  0.505700  1.0
  H  H1733  1  0.422300  0.493200  0.005700  1.0
  H  H1734  1  0.422300  0.506800  0.494300  1.0
  H  H1735  1  0.922300  0.993200  0.005700  1.0
  H  H1736  1  0.922300  0.006800  0.494300  1.0
  H  H1737  1  0.644000  0.502700  0.001300  1.0
  H  H1738  1  0.644000  0.497300  0.498700  1.0
  H  H1739  1  0.144000  0.002700  0.001300  1.0
  H  H1740  1  0.144000  0.997300  0.498700  1.0
  H  H1741  1  0.356000  0.497300  0.998700  1.0
  H  H1742  1  0.356000  0.502700  0.501300  1.0
  H  H1743  1  0.856000  0.997300  0.998700  1.0
  H  H1744  1  0.856000  0.002700  0.501300  1.0
  H  H1745  1  0.665600  0.628700  0.980200  1.0
  H  H1746  1  0.665600  0.371300  0.519800  1.0
  H  H1747  1  0.165600  0.128700  0.980200  1.0
  H  H1748  1  0.165600  0.871300  0.519800  1.0
  H  H1749  1  0.334400  0.371300  0.019800  1.0
  H  H1750  1  0.334400  0.628700  0.480200  1.0
  H  H1751  1  0.834400  0.871300  0.019800  1.0
  H  H1752  1  0.834400  0.128700  0.480200  1.0
  H  H1753  1  0.509100  0.821100  0.938300  1.0
  H  H1754  1  0.509100  0.178900  0.561700  1.0
  H  H1755  1  0.009100  0.321100  0.938300  1.0
  H  H1756  1  0.009100  0.678900  0.561700  1.0
  H  H1757  1  0.490900  0.178900  0.061700  1.0
  H  H1758  1  0.490900  0.821100  0.438300  1.0
  H  H1759  1  0.990900  0.678900  0.061700  1.0
  H  H1760  1  0.990900  0.321100  0.438300  1.0
  H  H1761  1  0.508200  0.837300  0.909600  1.0
  H  H1762  1  0.508200  0.162700  0.590400  1.0
  H  H1763  1  0.008200  0.337300  0.909600  1.0
  H  H1764  1  0.008200  0.662700  0.590400  1.0
  H  H1765  1  0.491800  0.162700  0.090400  1.0
  H  H1766  1  0.491800  0.837300  0.409600  1.0
  H  H1767  1  0.991800  0.662700  0.090400  1.0
  H  H1768  1  0.991800  0.337300  0.409600  1.0
  H  H1769  1  0.567700  0.832000  0.924800  1.0
  H  H1770  1  0.567700  0.168000  0.575200  1.0
  H  H1771  1  0.067700  0.332000  0.924800  1.0
  H  H1772  1  0.067700  0.668000  0.575200  1.0
  H  H1773  1  0.432300  0.168000  0.075200  1.0
  H  H1774  1  0.432300  0.832000  0.424800  1.0
  H  H1775  1  0.932300  0.668000  0.075200  1.0
  H  H1776  1  0.932300  0.332000  0.424800  1.0
  H  H1777  1  0.520300  0.755000  0.862900  1.0
  H  H1778  1  0.520300  0.245000  0.637100  1.0
  H  H1779  1  0.020300  0.255000  0.862900  1.0
  H  H1780  1  0.020300  0.745000  0.637100  1.0
  H  H1781  1  0.479700  0.245000  0.137100  1.0
  H  H1782  1  0.479700  0.755000  0.362900  1.0
  H  H1783  1  0.979700  0.745000  0.137100  1.0
  H  H1784  1  0.979700  0.255000  0.362900  1.0
  H  H1785  1  0.491400  0.795900  0.869900  1.0
  H  H1786  1  0.491400  0.204100  0.630100  1.0
  H  H1787  1  0.991400  0.295900  0.869900  1.0
  H  H1788  1  0.991400  0.704100  0.630100  1.0
  H  H1789  1  0.508600  0.204100  0.130100  1.0
  H  H1790  1  0.508600  0.795900  0.369900  1.0
  H  H1791  1  0.008600  0.704100  0.130100  1.0
  H  H1792  1  0.008600  0.295900  0.369900  1.0
  H  H1793  1  0.463600  0.762500  0.882200  1.0
  H  H1794  1  0.463600  0.237500  0.617800  1.0
  H  H1795  1  0.963600  0.262500  0.882200  1.0
  H  H1796  1  0.963600  0.737500  0.617800  1.0
  H  H1797  1  0.536400  0.237500  0.117800  1.0
  H  H1798  1  0.536400  0.762500  0.382200  1.0
  H  H1799  1  0.036400  0.737500  0.117800  1.0
  H  H1800  1  0.036400  0.262500  0.382200  1.0
  H  H1801  1  0.696900  0.760400  0.770200  1.0
  H  H1802  1  0.696900  0.239600  0.729800  1.0
  H  H1803  1  0.196900  0.260400  0.770200  1.0
  H  H1804  1  0.196900  0.739600  0.729800  1.0
  H  H1805  1  0.303100  0.239600  0.229800  1.0
  H  H1806  1  0.303100  0.760400  0.270200  1.0
  H  H1807  1  0.803100  0.739600  0.229800  1.0
  H  H1808  1  0.803100  0.260400  0.270200  1.0
  H  H1809  1  0.793900  0.849400  0.802600  1.0
  H  H1810  1  0.793900  0.150600  0.697400  1.0
  H  H1811  1  0.293900  0.349400  0.802600  1.0
  H  H1812  1  0.293900  0.650600  0.697400  1.0
  H  H1813  1  0.206100  0.150600  0.197400  1.0
  H  H1814  1  0.206100  0.849400  0.302600  1.0
  H  H1815  1  0.706100  0.650600  0.197400  1.0
  H  H1816  1  0.706100  0.349400  0.302600  1.0
  H  H1817  1  0.818400  0.808500  0.802900  1.0
  H  H1818  1  0.818400  0.191500  0.697100  1.0
  H  H1819  1  0.318400  0.308500  0.802900  1.0
  H  H1820  1  0.318400  0.691500  0.697100  1.0
  H  H1821  1  0.181600  0.191500  0.197100  1.0
  H  H1822  1  0.181600  0.808500  0.302900  1.0
  H  H1823  1  0.681600  0.691500  0.197100  1.0
  H  H1824  1  0.681600  0.308500  0.302900  1.0
  H  H1825  1  0.770500  0.827200  0.825700  1.0
  H  H1826  1  0.770500  0.172800  0.674300  1.0
  H  H1827  1  0.270500  0.327200  0.825700  1.0
  H  H1828  1  0.270500  0.672800  0.674300  1.0
  H  H1829  1  0.229500  0.172800  0.174300  1.0
  H  H1830  1  0.229500  0.827200  0.325700  1.0
  H  H1831  1  0.729500  0.672800  0.174300  1.0
  H  H1832  1  0.729500  0.327200  0.325700  1.0
  H  H1833  1  0.923000  0.689500  0.850300  1.0
  H  H1834  1  0.923000  0.310500  0.649700  1.0
  H  H1835  1  0.423000  0.189500  0.850300  1.0
  H  H1836  1  0.423000  0.810500  0.649700  1.0
  H  H1837  1  0.077000  0.310500  0.149700  1.0
  H  H1838  1  0.077000  0.689500  0.350300  1.0
  H  H1839  1  0.577000  0.810500  0.149700  1.0
  H  H1840  1  0.577000  0.189500  0.350300  1.0
  H  H1841  1  0.599800  0.766800  0.925800  1.0
  H  H1842  1  0.599800  0.233200  0.574200  1.0
  H  H1843  1  0.099800  0.266800  0.925800  1.0
  H  H1844  1  0.099800  0.733200  0.574200  1.0
  H  H1845  1  0.400200  0.233200  0.074200  1.0
  H  H1846  1  0.400200  0.766800  0.425800  1.0
  H  H1847  1  0.900200  0.733200  0.074200  1.0
  H  H1848  1  0.900200  0.266800  0.425800  1.0
  H  H1849  1  0.009100  0.730900  0.854800  1.0
  H  H1850  1  0.009100  0.269100  0.645200  1.0
  H  H1851  1  0.509100  0.230900  0.854800  1.0
  H  H1852  1  0.509100  0.769100  0.645200  1.0
  H  H1853  1  0.990900  0.269100  0.145200  1.0
  H  H1854  1  0.990900  0.730900  0.354800  1.0
  H  H1855  1  0.490900  0.769100  0.145200  1.0
  H  H1856  1  0.490900  0.230900  0.354800  1.0
  H  H1857  1  0.026300  0.699700  0.872300  1.0
  H  H1858  1  0.026300  0.300300  0.627700  1.0
  H  H1859  1  0.526300  0.199700  0.872300  1.0
  H  H1860  1  0.526300  0.800300  0.627700  1.0
  H  H1861  1  0.973700  0.300300  0.127700  1.0
  H  H1862  1  0.973700  0.699700  0.372300  1.0
  H  H1863  1  0.473700  0.800300  0.127700  1.0
  H  H1864  1  0.473700  0.199700  0.372300  1.0
  H  H1865  1  0.036400  0.743400  0.886500  1.0
  H  H1866  1  0.036400  0.256600  0.613500  1.0
  H  H1867  1  0.536400  0.243400  0.886500  1.0
  H  H1868  1  0.536400  0.756600  0.613500  1.0
  H  H1869  1  0.963600  0.256600  0.113500  1.0
  H  H1870  1  0.963600  0.743400  0.386500  1.0
  H  H1871  1  0.463600  0.756600  0.113500  1.0
  H  H1872  1  0.463600  0.243400  0.386500  1.0
  H  H1873  1  0.748300  0.848200  0.764200  1.0
  H  H1874  1  0.748300  0.151800  0.735800  1.0
  H  H1875  1  0.248300  0.348200  0.764200  1.0
  H  H1876  1  0.248300  0.651800  0.735800  1.0
  H  H1877  1  0.251700  0.151800  0.235800  1.0
  H  H1878  1  0.251700  0.848200  0.264200  1.0
  H  H1879  1  0.751700  0.651800  0.235800  1.0
  H  H1880  1  0.751700  0.348200  0.264200  1.0
  H  H1881  1  0.688700  0.826000  0.759000  1.0
  H  H1882  1  0.688700  0.174000  0.741000  1.0
  H  H1883  1  0.188700  0.326000  0.759000  1.0
  H  H1884  1  0.188700  0.674000  0.741000  1.0
  H  H1885  1  0.311300  0.174000  0.241000  1.0
  H  H1886  1  0.311300  0.826000  0.259000  1.0
  H  H1887  1  0.811300  0.674000  0.241000  1.0
  H  H1888  1  0.811300  0.326000  0.259000  1.0
  H  H1889  1  0.745700  0.806600  0.744000  1.0
  H  H1890  1  0.745700  0.193400  0.756000  1.0
  H  H1891  1  0.245700  0.306600  0.744000  1.0
  H  H1892  1  0.245700  0.693400  0.756000  1.0
  H  H1893  1  0.254300  0.193400  0.256000  1.0
  H  H1894  1  0.254300  0.806600  0.244000  1.0
  H  H1895  1  0.754300  0.693400  0.256000  1.0
  H  H1896  1  0.754300  0.306600  0.244000  1.0
  H  H1897  1  0.607800  0.101100  0.687000  1.0
  H  H1898  1  0.607800  0.898900  0.813000  1.0
  H  H1899  1  0.107800  0.601100  0.687000  1.0
  H  H1900  1  0.107800  0.398900  0.813000  1.0
  H  H1901  1  0.392200  0.898900  0.313000  1.0
  H  H1902  1  0.392200  0.101100  0.187000  1.0
  H  H1903  1  0.892200  0.398900  0.313000  1.0
  H  H1904  1  0.892200  0.601100  0.187000  1.0
  H  H1905  1  0.585600  0.143100  0.699700  1.0
  H  H1906  1  0.585600  0.856900  0.800300  1.0
  H  H1907  1  0.085600  0.643100  0.699700  1.0
  H  H1908  1  0.085600  0.356900  0.800300  1.0
  H  H1909  1  0.414400  0.856900  0.300300  1.0
  H  H1910  1  0.414400  0.143100  0.199700  1.0
  H  H1911  1  0.914400  0.356900  0.300300  1.0
  H  H1912  1  0.914400  0.643100  0.199700  1.0
  H  H1913  1  0.651800  0.135600  0.692000  1.0
  H  H1914  1  0.651800  0.864400  0.808000  1.0
  H  H1915  1  0.151800  0.635600  0.692000  1.0
  H  H1916  1  0.151800  0.364400  0.808000  1.0
  H  H1917  1  0.348200  0.864400  0.308000  1.0
  H  H1918  1  0.348200  0.135600  0.192000  1.0
  H  H1919  1  0.848200  0.364400  0.308000  1.0
  H  H1920  1  0.848200  0.635600  0.192000  1.0
  H  H1921  1  0.530900  0.125800  0.627400  1.0
  H  H1922  1  0.530900  0.874200  0.872600  1.0
  H  H1923  1  0.030900  0.625800  0.627400  1.0
  H  H1924  1  0.030900  0.374200  0.872600  1.0
  H  H1925  1  0.469100  0.874200  0.372600  1.0
  H  H1926  1  0.469100  0.125800  0.127400  1.0
  H  H1927  1  0.969100  0.374200  0.372600  1.0
  H  H1928  1  0.969100  0.625800  0.127400  1.0
  H  H1929  1  0.513000  0.140900  0.660500  1.0
  H  H1930  1  0.513000  0.859100  0.839500  1.0
  H  H1931  1  0.013000  0.640900  0.660500  1.0
  H  H1932  1  0.013000  0.359100  0.839500  1.0
  H  H1933  1  0.487000  0.859100  0.339500  1.0
  H  H1934  1  0.487000  0.140900  0.160500  1.0
  H  H1935  1  0.987000  0.359100  0.339500  1.0
  H  H1936  1  0.987000  0.640900  0.160500  1.0
  H  H1937  1  0.529200  0.097400  0.648700  1.0
  H  H1938  1  0.529200  0.902600  0.851300  1.0
  H  H1939  1  0.029200  0.597400  0.648700  1.0
  H  H1940  1  0.029200  0.402600  0.851300  1.0
  H  H1941  1  0.470800  0.902600  0.351300  1.0
  H  H1942  1  0.470800  0.097400  0.148700  1.0
  H  H1943  1  0.970800  0.402600  0.351300  1.0
  H  H1944  1  0.970800  0.597400  0.148700  1.0
  H  H1945  1  0.612200  0.207700  0.822500  1.0
  H  H1946  1  0.612200  0.792300  0.677500  1.0
  H  H1947  1  0.112200  0.707700  0.822500  1.0
  H  H1948  1  0.112200  0.292300  0.677500  1.0
  H  H1949  1  0.387800  0.792300  0.177500  1.0
  H  H1950  1  0.387800  0.207700  0.322500  1.0
  H  H1951  1  0.887800  0.292300  0.177500  1.0
  H  H1952  1  0.887800  0.707700  0.322500  1.0
  H  H1953  1  0.653600  0.239600  0.815800  1.0
  H  H1954  1  0.653600  0.760400  0.684200  1.0
  H  H1955  1  0.153600  0.739600  0.815800  1.0
  H  H1956  1  0.153600  0.260400  0.684200  1.0
  H  H1957  1  0.346400  0.760400  0.184200  1.0
  H  H1958  1  0.346400  0.239600  0.315800  1.0
  H  H1959  1  0.846400  0.260400  0.184200  1.0
  H  H1960  1  0.846400  0.739600  0.315800  1.0
  H  H1961  1  0.647000  0.200400  0.792700  1.0
  H  H1962  1  0.647000  0.799600  0.707300  1.0
  H  H1963  1  0.147000  0.700400  0.792700  1.0
  H  H1964  1  0.147000  0.299600  0.707300  1.0
  H  H1965  1  0.353000  0.799600  0.207300  1.0
  H  H1966  1  0.353000  0.200400  0.292700  1.0
  H  H1967  1  0.853000  0.299600  0.207300  1.0
  H  H1968  1  0.853000  0.700400  0.292700  1.0
  H  H1969  1  0.045600  0.637300  0.983100  1.0
  H  H1970  1  0.045600  0.362700  0.516900  1.0
  H  H1971  1  0.545600  0.137300  0.983100  1.0
  H  H1972  1  0.545600  0.862700  0.516900  1.0
  H  H1973  1  0.954400  0.362700  0.016900  1.0
  H  H1974  1  0.954400  0.637300  0.483100  1.0
  H  H1975  1  0.454400  0.862700  0.016900  1.0
  H  H1976  1  0.454400  0.137300  0.483100  1.0
  H  H1977  1  0.090700  0.670700  0.993400  1.0
  H  H1978  1  0.090700  0.329300  0.506600  1.0
  H  H1979  1  0.590700  0.170700  0.993400  1.0
  H  H1980  1  0.590700  0.829300  0.506600  1.0
  H  H1981  1  0.909300  0.329300  0.006600  1.0
  H  H1982  1  0.909300  0.670700  0.493400  1.0
  H  H1983  1  0.409300  0.829300  0.006600  1.0
  H  H1984  1  0.409300  0.170700  0.493400  1.0
  H  H1985  1  0.077300  0.655600  0.959700  1.0
  H  H1986  1  0.077300  0.344400  0.540300  1.0
  H  H1987  1  0.577300  0.155600  0.959700  1.0
  H  H1988  1  0.577300  0.844400  0.540300  1.0
  H  H1989  1  0.922700  0.344400  0.040300  1.0
  H  H1990  1  0.922700  0.655600  0.459700  1.0
  H  H1991  1  0.422700  0.844400  0.040300  1.0
  H  H1992  1  0.422700  0.155600  0.459700  1.0
  H  H1993  1  0.844400  0.218600  0.817700  1.0
  H  H1994  1  0.844400  0.781400  0.682300  1.0
  H  H1995  1  0.344400  0.718600  0.817700  1.0
  H  H1996  1  0.344400  0.281400  0.682300  1.0
  H  H1997  1  0.155600  0.781400  0.182300  1.0
  H  H1998  1  0.155600  0.218600  0.317700  1.0
  H  H1999  1  0.655600  0.281400  0.182300  1.0
  H  H2000  1  0.655600  0.718600  0.317700  1.0
  H  H2001  1  0.801400  0.212700  0.790800  1.0
  H  H2002  1  0.801400  0.787300  0.709200  1.0
  H  H2003  1  0.301400  0.712700  0.790800  1.0
  H  H2004  1  0.301400  0.287300  0.709200  1.0
  H  H2005  1  0.198600  0.787300  0.209200  1.0
  H  H2006  1  0.198600  0.212700  0.290800  1.0
  H  H2007  1  0.698600  0.287300  0.209200  1.0
  H  H2008  1  0.698600  0.712700  0.290800  1.0
  H  H2009  1  0.805000  0.252700  0.813200  1.0
  H  H2010  1  0.805000  0.747300  0.686800  1.0
  H  H2011  1  0.305000  0.752700  0.813200  1.0
  H  H2012  1  0.305000  0.247300  0.686800  1.0
  H  H2013  1  0.195000  0.747300  0.186800  1.0
  H  H2014  1  0.195000  0.252700  0.313200  1.0
  H  H2015  1  0.695000  0.247300  0.186800  1.0
  H  H2016  1  0.695000  0.752700  0.313200  1.0
  H  H2017  1  0.932400  0.260200  0.818300  1.0
  H  H2018  1  0.932400  0.739800  0.681700  1.0
  H  H2019  1  0.432400  0.760200  0.818300  1.0
  H  H2020  1  0.432400  0.239800  0.681700  1.0
  H  H2021  1  0.067600  0.739800  0.181700  1.0
  H  H2022  1  0.067600  0.260200  0.318300  1.0
  H  H2023  1  0.567600  0.239800  0.181700  1.0
  H  H2024  1  0.567600  0.760200  0.318300  1.0
  H  H2025  1  0.891900  0.293800  0.813700  1.0
  H  H2026  1  0.891900  0.706200  0.686300  1.0
  H  H2027  1  0.391900  0.793800  0.813700  1.0
  H  H2028  1  0.391900  0.206200  0.686300  1.0
  H  H2029  1  0.108100  0.706200  0.186300  1.0
  H  H2030  1  0.108100  0.293800  0.313700  1.0
  H  H2031  1  0.608100  0.206200  0.186300  1.0
  H  H2032  1  0.608100  0.793800  0.313700  1.0
  H  H2033  1  0.943500  0.279800  0.791800  1.0
  H  H2034  1  0.943500  0.720200  0.708200  1.0
  H  H2035  1  0.443500  0.779800  0.791800  1.0
  H  H2036  1  0.443500  0.220200  0.708200  1.0
  H  H2037  1  0.056500  0.720200  0.208200  1.0
  H  H2038  1  0.056500  0.279800  0.291800  1.0
  H  H2039  1  0.556500  0.220200  0.208200  1.0
  H  H2040  1  0.556500  0.779800  0.291800  1.0
  H  H2041  1  0.926400  0.196100  0.779900  1.0
  H  H2042  1  0.926400  0.803900  0.720100  1.0
  H  H2043  1  0.426400  0.696100  0.779900  1.0
  H  H2044  1  0.426400  0.303900  0.720100  1.0
  H  H2045  1  0.073600  0.803900  0.220100  1.0
  H  H2046  1  0.073600  0.196100  0.279900  1.0
  H  H2047  1  0.573600  0.303900  0.220100  1.0
  H  H2048  1  0.573600  0.696100  0.279900  1.0
  H  H2049  1  0.935500  0.218500  0.754900  1.0
  H  H2050  1  0.935500  0.781500  0.745100  1.0
  H  H2051  1  0.435500  0.718500  0.754900  1.0
  H  H2052  1  0.435500  0.281500  0.745100  1.0
  H  H2053  1  0.064500  0.781500  0.245100  1.0
  H  H2054  1  0.064500  0.218500  0.254900  1.0
  H  H2055  1  0.564500  0.281500  0.245100  1.0
  H  H2056  1  0.564500  0.718500  0.254900  1.0
  H  H2057  1  0.880300  0.192400  0.754500  1.0
  H  H2058  1  0.880300  0.807600  0.745500  1.0
  H  H2059  1  0.380300  0.692400  0.754500  1.0
  H  H2060  1  0.380300  0.307600  0.745500  1.0
  H  H2061  1  0.119700  0.807600  0.245500  1.0
  H  H2062  1  0.119700  0.192400  0.254500  1.0
  H  H2063  1  0.619700  0.307600  0.245500  1.0
  H  H2064  1  0.619700  0.692400  0.254500  1.0
  H  H2065  1  0.895700  0.105800  0.640300  1.0
  H  H2066  1  0.895700  0.894200  0.859700  1.0
  H  H2067  1  0.395700  0.605800  0.640300  1.0
  H  H2068  1  0.395700  0.394200  0.859700  1.0
  H  H2069  1  0.104300  0.894200  0.359700  1.0
  H  H2070  1  0.104300  0.105800  0.140300  1.0
  H  H2071  1  0.604300  0.394200  0.359700  1.0
  H  H2072  1  0.604300  0.605800  0.140300  1.0
  H  H2073  1  0.834000  0.125200  0.643100  1.0
  H  H2074  1  0.834000  0.874800  0.856900  1.0
  H  H2075  1  0.334000  0.625200  0.643100  1.0
  H  H2076  1  0.334000  0.374800  0.856900  1.0
  H  H2077  1  0.166000  0.874800  0.356900  1.0
  H  H2078  1  0.166000  0.125200  0.143100  1.0
  H  H2079  1  0.666000  0.374800  0.356900  1.0
  H  H2080  1  0.666000  0.625200  0.143100  1.0
  H  H2081  1  0.883300  0.141900  0.665800  1.0
  H  H2082  1  0.883300  0.858100  0.834200  1.0
  H  H2083  1  0.383300  0.641900  0.665800  1.0
  H  H2084  1  0.383300  0.358100  0.834200  1.0
  H  H2085  1  0.116700  0.858100  0.334200  1.0
  H  H2086  1  0.116700  0.141900  0.165800  1.0
  H  H2087  1  0.616700  0.358100  0.334200  1.0
  H  H2088  1  0.616700  0.641900  0.165800  1.0
  H  H2089  1  0.980500  0.139800  0.621100  1.0
  H  H2090  1  0.980500  0.860200  0.878900  1.0
  H  H2091  1  0.480500  0.639800  0.621100  1.0
  H  H2092  1  0.480500  0.360200  0.878900  1.0
  H  H2093  1  0.019500  0.860200  0.378900  1.0
  H  H2094  1  0.019500  0.139800  0.121100  1.0
  H  H2095  1  0.519500  0.360200  0.378900  1.0
  H  H2096  1  0.519500  0.639800  0.121100  1.0
  H  H2097  1  0.969400  0.172400  0.649400  1.0
  H  H2098  1  0.969400  0.827600  0.850600  1.0
  H  H2099  1  0.469400  0.672400  0.649400  1.0
  H  H2100  1  0.469400  0.327600  0.850600  1.0
  H  H2101  1  0.030600  0.827600  0.350600  1.0
  H  H2102  1  0.030600  0.172400  0.149400  1.0
  H  H2103  1  0.530600  0.327600  0.350600  1.0
  H  H2104  1  0.530600  0.672400  0.149400  1.0
  H  H2105  1  0.970200  0.182200  0.618200  1.0
  H  H2106  1  0.970200  0.817800  0.881800  1.0
  H  H2107  1  0.470200  0.682200  0.618200  1.0
  H  H2108  1  0.470200  0.317800  0.881800  1.0
  H  H2109  1  0.029800  0.817800  0.381800  1.0
  H  H2110  1  0.029800  0.182200  0.118200  1.0
  H  H2111  1  0.529800  0.317800  0.381800  1.0
  H  H2112  1  0.529800  0.682200  0.118200  1.0
  H  H2113  1  0.902300  0.116900  0.586500  1.0
  H  H2114  1  0.902300  0.883100  0.913500  1.0
  H  H2115  1  0.402300  0.616900  0.586500  1.0
  H  H2116  1  0.402300  0.383100  0.913500  1.0
  H  H2117  1  0.097700  0.883100  0.413500  1.0
  H  H2118  1  0.097700  0.116900  0.086500  1.0
  H  H2119  1  0.597700  0.383100  0.413500  1.0
  H  H2120  1  0.597700  0.616900  0.086500  1.0
  H  H2121  1  0.885100  0.158100  0.582800  1.0
  H  H2122  1  0.885100  0.841900  0.917200  1.0
  H  H2123  1  0.385100  0.658100  0.582800  1.0
  H  H2124  1  0.385100  0.341900  0.917200  1.0
  H  H2125  1  0.114900  0.841900  0.417200  1.0
  H  H2126  1  0.114900  0.158100  0.082800  1.0
  H  H2127  1  0.614900  0.341900  0.417200  1.0
  H  H2128  1  0.614900  0.658100  0.082800  1.0
  H  H2129  1  0.838200  0.131800  0.593000  1.0
  H  H2130  1  0.838200  0.868200  0.907000  1.0
  H  H2131  1  0.338200  0.631800  0.593000  1.0
  H  H2132  1  0.338200  0.368200  0.907000  1.0
  H  H2133  1  0.161800  0.868200  0.407000  1.0
  H  H2134  1  0.161800  0.131800  0.093000  1.0
  H  H2135  1  0.661800  0.368200  0.407000  1.0
  H  H2136  1  0.661800  0.631800  0.093000  1.0
  H  H2137  1  0.649300  0.697200  0.041400  1.0
  H  H2138  1  0.649300  0.302800  0.458600  1.0
  H  H2139  1  0.149300  0.197200  0.041400  1.0
  H  H2140  1  0.149300  0.802800  0.458600  1.0
  H  H2141  1  0.350700  0.302800  0.958600  1.0
  H  H2142  1  0.350700  0.697200  0.541400  1.0
  H  H2143  1  0.850700  0.802800  0.958600  1.0
  H  H2144  1  0.850700  0.197200  0.541400  1.0
  H  H2145  1  0.715800  0.695000  0.033300  1.0
  H  H2146  1  0.715800  0.305000  0.466700  1.0
  H  H2147  1  0.215800  0.195000  0.033300  1.0
  H  H2148  1  0.215800  0.805000  0.466700  1.0
  H  H2149  1  0.284200  0.305000  0.966700  1.0
  H  H2150  1  0.284200  0.695000  0.533300  1.0
  H  H2151  1  0.784200  0.805000  0.966700  1.0
  H  H2152  1  0.784200  0.195000  0.533300  1.0
  H  H2153  1  0.679100  0.657100  0.029700  1.0
  H  H2154  1  0.679100  0.342900  0.470300  1.0
  H  H2155  1  0.179100  0.157100  0.029700  1.0
  H  H2156  1  0.179100  0.842900  0.470300  1.0
  H  H2157  1  0.320900  0.342900  0.970300  1.0
  H  H2158  1  0.320900  0.657100  0.529700  1.0
  H  H2159  1  0.820900  0.842900  0.970300  1.0
  H  H2160  1  0.820900  0.157100  0.529700  1.0
  H  H2161  1  0.375600  0.673700  0.037100  1.0
  H  H2162  1  0.375600  0.326300  0.462900  1.0
  H  H2163  1  0.875600  0.173700  0.037100  1.0
  H  H2164  1  0.875600  0.826300  0.462900  1.0
  H  H2165  1  0.624400  0.326300  0.962900  1.0
  H  H2166  1  0.624400  0.673700  0.537100  1.0
  H  H2167  1  0.124400  0.826300  0.962900  1.0
  H  H2168  1  0.124400  0.173700  0.537100  1.0
  H  H2169  1  0.366700  0.661100  0.002900  1.0
  H  H2170  1  0.366700  0.338900  0.497100  1.0
  H  H2171  1  0.866700  0.161100  0.002900  1.0
  H  H2172  1  0.866700  0.838900  0.497100  1.0
  H  H2173  1  0.633300  0.338900  0.997100  1.0
  H  H2174  1  0.633300  0.661100  0.502900  1.0
  H  H2175  1  0.133300  0.838900  0.997100  1.0
  H  H2176  1  0.133300  0.161100  0.502900  1.0
  H  H2177  1  0.413300  0.692400  0.016000  1.0
  H  H2178  1  0.413300  0.307600  0.484000  1.0
  H  H2179  1  0.913300  0.192400  0.016000  1.0
  H  H2180  1  0.913300  0.807600  0.484000  1.0
  H  H2181  1  0.586700  0.307600  0.984000  1.0
  H  H2182  1  0.586700  0.692400  0.516000  1.0
  H  H2183  1  0.086700  0.807600  0.984000  1.0
  H  H2184  1  0.086700  0.192400  0.516000  1.0
  H  H2185  1  0.262900  0.749100  0.913500  1.0
  H  H2186  1  0.262900  0.250900  0.586500  1.0
  H  H2187  1  0.762900  0.249100  0.913500  1.0
  H  H2188  1  0.762900  0.750900  0.586500  1.0
  H  H2189  1  0.737100  0.250900  0.086500  1.0
  H  H2190  1  0.737100  0.749100  0.413500  1.0
  H  H2191  1  0.237100  0.750900  0.086500  1.0
  H  H2192  1  0.237100  0.249100  0.413500  1.0
  H  H2193  1  0.289100  0.707500  0.907800  1.0
  H  H2194  1  0.289100  0.292500  0.592200  1.0
  H  H2195  1  0.789100  0.207500  0.907800  1.0
  H  H2196  1  0.789100  0.792500  0.592200  1.0
  H  H2197  1  0.710900  0.292500  0.092200  1.0
  H  H2198  1  0.710900  0.707500  0.407800  1.0
  H  H2199  1  0.210900  0.792500  0.092200  1.0
  H  H2200  1  0.210900  0.207500  0.407800  1.0
  H  H2201  1  0.301700  0.733700  0.885600  1.0
  H  H2202  1  0.301700  0.266300  0.614400  1.0
  H  H2203  1  0.801700  0.233700  0.885600  1.0
  H  H2204  1  0.801700  0.766300  0.614400  1.0
  H  H2205  1  0.698300  0.266300  0.114400  1.0
  H  H2206  1  0.698300  0.733700  0.385600  1.0
  H  H2207  1  0.198300  0.766300  0.114400  1.0
  H  H2208  1  0.198300  0.233700  0.385600  1.0
  H  H2209  1  0.327500  0.805800  0.929500  1.0
  H  H2210  1  0.327500  0.194200  0.570500  1.0
  H  H2211  1  0.827500  0.305800  0.929500  1.0
  H  H2212  1  0.827500  0.694200  0.570500  1.0
  H  H2213  1  0.672500  0.194200  0.070500  1.0
  H  H2214  1  0.672500  0.805800  0.429500  1.0
  H  H2215  1  0.172500  0.694200  0.070500  1.0
  H  H2216  1  0.172500  0.305800  0.429500  1.0
  H  H2217  1  0.367600  0.791700  0.901900  1.0
  H  H2218  1  0.367600  0.208300  0.598100  1.0
  H  H2219  1  0.867600  0.291700  0.901900  1.0
  H  H2220  1  0.867600  0.708300  0.598100  1.0
  H  H2221  1  0.632400  0.208300  0.098100  1.0
  H  H2222  1  0.632400  0.791700  0.401900  1.0
  H  H2223  1  0.132400  0.708300  0.098100  1.0
  H  H2224  1  0.132400  0.291700  0.401900  1.0
  H  H2225  1  0.394600  0.800000  0.933700  1.0
  H  H2226  1  0.394600  0.200000  0.566300  1.0
  H  H2227  1  0.894600  0.300000  0.933700  1.0
  H  H2228  1  0.894600  0.700000  0.566300  1.0
  H  H2229  1  0.605400  0.200000  0.066300  1.0
  H  H2230  1  0.605400  0.800000  0.433700  1.0
  H  H2231  1  0.105400  0.700000  0.066300  1.0
  H  H2232  1  0.105400  0.300000  0.433700  1.0
  C  C2233  1  0.245700  0.621300  0.793200  1
  C  C2234  1  0.245700  0.378700  0.706800  1
  C  C2235  1  0.745700  0.121300  0.793200  1
  C  C2236  1  0.745700  0.878700  0.706800  1
  C  C2237  1  0.754300  0.378700  0.206800  1
  C  C2238  1  0.754300  0.621300  0.293200  1
  C  C2239  1  0.254300  0.878700  0.206800  1
  C  C2240  1  0.254300  0.121300  0.293200  1
  C  C2241  1  0.231100  0.562400  0.811900  1
  C  C2242  1  0.231100  0.437600  0.688100  1
  C  C2243  1  0.731100  0.062400  0.811900  1
  C  C2244  1  0.731100  0.937600  0.688100  1
  C  C2245  1  0.768900  0.437600  0.188100  1
  C  C2246  1  0.768900  0.562400  0.311900  1
  C  C2247  1  0.268900  0.937600  0.188100  1
  C  C2248  1  0.268900  0.062400  0.311900  1
  C  C2249  1  0.350000  0.779000  0.904000  1
  C  C2250  1  0.350000  0.221000  0.596000  1
  C  C2251  1  0.850000  0.279000  0.904000  1
  C  C2252  1  0.850000  0.721000  0.596000  1
  C  C2253  1  0.650000  0.221000  0.096000  1
  C  C2254  1  0.650000  0.779000  0.404000  1
  C  C2255  1  0.150000  0.721000  0.096000  1
  C  C2256  1  0.150000  0.279000  0.404000  1
  C  C2257  1  0.292300  0.727100  0.917800  1
  C  C2258  1  0.292300  0.272900  0.582200  1
  C  C2259  1  0.792300  0.227100  0.917800  1
  C  C2260  1  0.792300  0.772900  0.582200  1
  C  C2261  1  0.707700  0.272900  0.082200  1
  C  C2262  1  0.707700  0.727100  0.417800  1
  C  C2263  1  0.207700  0.772900  0.082200  1
  C  C2264  1  0.207700  0.227100  0.417800  1
  C  C2265  1  0.878100  0.765600  0.722100  1
  C  C2266  1  0.878100  0.234400  0.777900  1
  C  C2267  1  0.378100  0.265600  0.722100  1
  C  C2268  1  0.378100  0.734400  0.777900  1
  C  C2269  1  0.121900  0.234400  0.277900  1
  C  C2270  1  0.121900  0.765600  0.222100  1
  C  C2271  1  0.621900  0.734400  0.277900  1
  C  C2272  1  0.621900  0.265600  0.222100  1
  C  C2273  1  0.832500  0.793700  0.715800  1
  C  C2274  1  0.832500  0.206300  0.784200  1
  C  C2275  1  0.332500  0.293700  0.715800  1
  C  C2276  1  0.332500  0.706300  0.784200  1
  C  C2277  1  0.167500  0.206300  0.284200  1
  C  C2278  1  0.167500  0.793700  0.215800  1
  C  C2279  1  0.667500  0.706300  0.284200  1
  C  C2280  1  0.667500  0.293700  0.215800  1
  C  C2281  1  0.899700  0.742000  0.692600  1
  C  C2282  1  0.899700  0.258000  0.807400  1
  C  C2283  1  0.399700  0.242000  0.692600  1
  C  C2284  1  0.399700  0.758000  0.807400  1
  C  C2285  1  0.100300  0.258000  0.307400  1
  C  C2286  1  0.100300  0.742000  0.192600  1
  C  C2287  1  0.600300  0.758000  0.307400  1
  C  C2288  1  0.600300  0.242000  0.192600  1
  C  C2289  1  0.929100  0.788400  0.738600  1
  C  C2290  1  0.929100  0.211600  0.761400  1
  C  C2291  1  0.429100  0.288400  0.738600  1
  C  C2292  1  0.429100  0.711600  0.761400  1
  C  C2293  1  0.070900  0.211600  0.261400  1
  C  C2294  1  0.070900  0.788400  0.238600  1
  C  C2295  1  0.570900  0.711600  0.261400  1
  C  C2296  1  0.570900  0.288400  0.238600  1
  C  C2297  1  0.883200  0.849600  0.869500  1
  C  C2298  1  0.883200  0.150400  0.630500  1
  C  C2299  1  0.383200  0.349600  0.869500  1
  C  C2300  1  0.383200  0.650400  0.630500  1
  C  C2301  1  0.116800  0.150400  0.130500  1
  C  C2302  1  0.116800  0.849600  0.369500  1
  C  C2303  1  0.616800  0.650400  0.130500  1
  C  C2304  1  0.616800  0.349600  0.369500  1
  C  C2305  1  0.935700  0.846700  0.849600  1
  C  C2306  1  0.935700  0.153300  0.650400  1
  C  C2307  1  0.435700  0.346700  0.849600  1
  C  C2308  1  0.435700  0.653300  0.650400  1
  C  C2309  1  0.064300  0.153300  0.150400  1
  C  C2310  1  0.064300  0.846700  0.349600  1
  C  C2311  1  0.564300  0.653300  0.150400  1
  C  C2312  1  0.564300  0.346700  0.349600  1
  C  C2313  1  0.901000  0.858800  0.901600  1
  C  C2314  1  0.901000  0.141200  0.598400  1
  C  C2315  1  0.401000  0.358800  0.901600  1
  C  C2316  1  0.401000  0.641200  0.598400  1
  C  C2317  1  0.099000  0.141200  0.098400  1
  C  C2318  1  0.099000  0.858800  0.401600  1
  C  C2319  1  0.599000  0.641200  0.098400  1
  C  C2320  1  0.599000  0.358800  0.401600  1
  C  C2321  1  0.841000  0.879500  0.863600  1
  C  C2322  1  0.841000  0.120500  0.636400  1
  C  C2323  1  0.341000  0.379500  0.863600  1
  C  C2324  1  0.341000  0.620500  0.636400  1
  C  C2325  1  0.159000  0.120500  0.136400  1
  C  C2326  1  0.159000  0.879500  0.363600  1
  C  C2327  1  0.659000  0.620500  0.136400  1
  C  C2328  1  0.659000  0.379500  0.363600  1
  C  C2329  1  0.542900  0.875100  0.868200  1
  C  C2330  1  0.542900  0.124900  0.631800  1
  C  C2331  1  0.042900  0.375100  0.868200  1
  C  C2332  1  0.042900  0.624900  0.631800  1
  C  C2333  1  0.457100  0.124900  0.131800  1
  C  C2334  1  0.457100  0.875100  0.368200  1
  C  C2335  1  0.957100  0.624900  0.131800  1
  C  C2336  1  0.957100  0.375100  0.368200  1
  C  C2337  1  0.564000  0.864000  0.814500  1
  C  C2338  1  0.564000  0.136000  0.685500  1
  C  C2339  1  0.064000  0.364000  0.814500  1
  C  C2340  1  0.064000  0.636000  0.685500  1
  C  C2341  1  0.436000  0.136000  0.185500  1
  C  C2342  1  0.436000  0.864000  0.314500  1
  C  C2343  1  0.936000  0.636000  0.185500  1
  C  C2344  1  0.936000  0.364000  0.314500  1
  C  C2345  1  0.590200  0.774500  0.711900  1
  C  C2346  1  0.590200  0.225500  0.788100  1
  C  C2347  1  0.090200  0.274500  0.711900  1
  C  C2348  1  0.090200  0.725500  0.788100  1
  C  C2349  1  0.409800  0.225500  0.288100  1
  C  C2350  1  0.409800  0.774500  0.211900  1
  C  C2351  1  0.909800  0.725500  0.288100  1
  C  C2352  1  0.909800  0.274500  0.211900  1
  C  C2353  1  0.597500  0.815800  0.729500  1
  C  C2354  1  0.597500  0.184200  0.770500  1
  C  C2355  1  0.097500  0.315800  0.729500  1
  C  C2356  1  0.097500  0.684200  0.770500  1
  C  C2357  1  0.402500  0.184200  0.270500  1
  C  C2358  1  0.402500  0.815800  0.229500  1
  C  C2359  1  0.902500  0.684200  0.270500  1
  C  C2360  1  0.902500  0.315800  0.229500  1
  C  C2361  1  0.526500  0.768000  0.702800  1
  C  C2362  1  0.526500  0.232000  0.797200  1
  C  C2363  1  0.026500  0.268000  0.702800  1
  C  C2364  1  0.026500  0.732000  0.797200  1
  C  C2365  1  0.473500  0.232000  0.297200  1
  C  C2366  1  0.473500  0.768000  0.202800  1
  C  C2367  1  0.973500  0.732000  0.297200  1
  C  C2368  1  0.973500  0.268000  0.202800  1
  C  C2369  1  0.628700  0.768500  0.684500  1
  C  C2370  1  0.628700  0.231500  0.815500  1
  C  C2371  1  0.128700  0.268500  0.684500  1
  C  C2372  1  0.128700  0.731500  0.815500  1
  C  C2373  1  0.371300  0.231500  0.315500  1
  C  C2374  1  0.371300  0.768500  0.184500  1
  C  C2375  1  0.871300  0.731500  0.315500  1
  C  C2376  1  0.871300  0.268500  0.184500  1
  C  C2377  1  0.071900  0.681200  0.965600  1
  C  C2378  1  0.071900  0.318800  0.534400  1
  C  C2379  1  0.571900  0.181200  0.965600  1
  C  C2380  1  0.571900  0.818800  0.534400  1
  C  C2381  1  0.928100  0.318800  0.034400  1
  C  C2382  1  0.928100  0.681200  0.465600  1
  C  C2383  1  0.428100  0.818800  0.034400  1
  C  C2384  1  0.428100  0.181200  0.465600  1
  C  C2385  1  0.641400  0.889800  0.851200  1
  C  C2386  1  0.641400  0.110200  0.648800  1
  C  C2387  1  0.141400  0.389800  0.851200  1
  C  C2388  1  0.141400  0.610200  0.648800  1
  C  C2389  1  0.358600  0.110200  0.148800  1
  C  C2390  1  0.358600  0.889800  0.351200  1
  C  C2391  1  0.858600  0.610200  0.148800  1
  C  C2392  1  0.858600  0.389800  0.351200  1
  C  C2393  1  0.588300  0.864600  0.844400  1
  C  C2394  1  0.588300  0.135400  0.655600  1
  C  C2395  1  0.088300  0.364600  0.844400  1
  C  C2396  1  0.088300  0.635400  0.655600  1
  C  C2397  1  0.411700  0.135400  0.155600  1
  C  C2398  1  0.411700  0.864600  0.344400  1
  C  C2399  1  0.911700  0.635400  0.155600  1
  C  C2400  1  0.911700  0.364600  0.344400  1
  C  C2401  1  0.230200  0.626200  0.846800  1
  C  C2402  1  0.230200  0.373800  0.653200  1
  C  C2403  1  0.730200  0.126200  0.846800  1
  C  C2404  1  0.730200  0.873800  0.653200  1
  C  C2405  1  0.769800  0.373800  0.153200  1
  C  C2406  1  0.769800  0.626200  0.346800  1
  C  C2407  1  0.269800  0.873800  0.153200  1
  C  C2408  1  0.269800  0.126200  0.346800  1
  C  C2409  1  0.009800  0.668300  0.005900  1
  C  C2410  1  0.009800  0.331700  0.494100  1
  C  C2411  1  0.509800  0.168300  0.005900  1
  C  C2412  1  0.509800  0.831700  0.494100  1
  C  C2413  1  0.990200  0.331700  0.994100  1
  C  C2414  1  0.990200  0.668300  0.505900  1
  C  C2415  1  0.490200  0.831700  0.994100  1
  C  C2416  1  0.490200  0.168300  0.505900  1
  C  C2417  1  0.006800  0.732200  0.992900  1
  C  C2418  1  0.006800  0.267800  0.507100  1
  C  C2419  1  0.506800  0.232200  0.992900  1
  C  C2420  1  0.506800  0.767800  0.507100  1
  C  C2421  1  0.993200  0.267800  0.007100  1
  C  C2422  1  0.993200  0.732200  0.492900  1
  C  C2423  1  0.493200  0.767800  0.007100  1
  C  C2424  1  0.493200  0.232200  0.492900  1
  C  C2425  1  0.864800  0.392400  0.942000  1
  C  C2426  1  0.864800  0.607600  0.558000  1
  C  C2427  1  0.364800  0.892400  0.942000  1
  C  C2428  1  0.364800  0.107600  0.558000  1
  C  C2429  1  0.135200  0.607600  0.058000  1
  C  C2430  1  0.135200  0.392400  0.442000  1
  C  C2431  1  0.635200  0.107600  0.058000  1
  C  C2432  1  0.635200  0.892400  0.442000  1
  C  C2433  1  0.964800  0.403300  0.924900  1
  C  C2434  1  0.964800  0.596700  0.575100  1
  C  C2435  1  0.464800  0.903300  0.924900  1
  C  C2436  1  0.464800  0.096700  0.575100  1
  C  C2437  1  0.035200  0.596700  0.075100  1
  C  C2438  1  0.035200  0.403300  0.424900  1
  C  C2439  1  0.535200  0.096700  0.075100  1
  C  C2440  1  0.535200  0.903300  0.424900  1
  C  C2441  1  0.928000  0.441700  0.972700  1
  C  C2442  1  0.928000  0.558300  0.527300  1
  C  C2443  1  0.428000  0.941700  0.972700  1
  C  C2444  1  0.428000  0.058300  0.527300  1
  C  C2445  1  0.072000  0.558300  0.027300  1
  C  C2446  1  0.072000  0.441700  0.472700  1
  C  C2447  1  0.572000  0.058300  0.027300  1
  C  C2448  1  0.572000  0.941700  0.472700  1
  C  C2449  1  0.355000  0.769700  0.955200  1
  C  C2450  1  0.355000  0.230300  0.544800  1
  C  C2451  1  0.855000  0.269700  0.955200  1
  C  C2452  1  0.855000  0.730300  0.544800  1
  C  C2453  1  0.645000  0.230300  0.044800  1
  C  C2454  1  0.645000  0.769700  0.455200  1
  C  C2455  1  0.145000  0.730300  0.044800  1
  C  C2456  1  0.145000  0.269700  0.455200  1
  C  C2457  1  0.406500  0.563500  0.830200  1.0
  C  C2458  1  0.406500  0.436500  0.669800  1.0
  C  C2459  1  0.906500  0.063500  0.830200  1.0
  C  C2460  1  0.906500  0.936500  0.669800  1.0
  C  C2461  1  0.593500  0.436500  0.169800  1.0
  C  C2462  1  0.593500  0.563500  0.330200  1.0
  C  C2463  1  0.093500  0.936500  0.169800  1.0
  C  C2464  1  0.093500  0.063500  0.330200  1.0
  C  C2465  1  0.348300  0.566300  0.825700  1.0
  C  C2466  1  0.348300  0.433700  0.674300  1.0
  C  C2467  1  0.848300  0.066300  0.825700  1.0
  C  C2468  1  0.848300  0.933700  0.674300  1.0
  C  C2469  1  0.651700  0.433700  0.174300  1.0
  C  C2470  1  0.651700  0.566300  0.325700  1.0
  C  C2471  1  0.151700  0.933700  0.174300  1.0
  C  C2472  1  0.151700  0.066300  0.325700  1.0
  C  C2473  1  0.321700  0.598700  0.825400  1.0
  C  C2474  1  0.321700  0.401300  0.674600  1.0
  C  C2475  1  0.821700  0.098700  0.825400  1.0
  C  C2476  1  0.821700  0.901300  0.674600  1.0
  C  C2477  1  0.678300  0.401300  0.174600  1.0
  C  C2478  1  0.678300  0.598700  0.325400  1.0
  C  C2479  1  0.178300  0.901300  0.174600  1.0
  C  C2480  1  0.178300  0.098700  0.325400  1.0
  C  C2481  1  0.354700  0.631100  0.828600  1.0
  C  C2482  1  0.354700  0.368900  0.671400  1.0
  C  C2483  1  0.854700  0.131100  0.828600  1.0
  C  C2484  1  0.854700  0.868900  0.671400  1.0
  C  C2485  1  0.645300  0.368900  0.171400  1.0
  C  C2486  1  0.645300  0.631100  0.328600  1.0
  C  C2487  1  0.145300  0.868900  0.171400  1.0
  C  C2488  1  0.145300  0.131100  0.328600  1.0
  C  C2489  1  0.415200  0.629800  0.832500  1.0
  C  C2490  1  0.415200  0.370200  0.667500  1.0
  C  C2491  1  0.915200  0.129800  0.832500  1.0
  C  C2492  1  0.915200  0.870200  0.667500  1.0
  C  C2493  1  0.584800  0.370200  0.167500  1.0
  C  C2494  1  0.584800  0.629800  0.332500  1.0
  C  C2495  1  0.084800  0.870200  0.167500  1.0
  C  C2496  1  0.084800  0.129800  0.332500  1.0
  C  C2497  1  0.438100  0.595500  0.833100  1.0
  C  C2498  1  0.438100  0.404500  0.666900  1.0
  C  C2499  1  0.938100  0.095500  0.833100  1.0
  C  C2500  1  0.938100  0.904500  0.666900  1.0
  C  C2501  1  0.561900  0.404500  0.166900  1.0
  C  C2502  1  0.561900  0.595500  0.333100  1.0
  C  C2503  1  0.061900  0.904500  0.166900  1.0
  C  C2504  1  0.061900  0.095500  0.333100  1.0
  C  C2505  1  0.451500  0.667000  0.837300  1.0
  C  C2506  1  0.451500  0.333000  0.662700  1.0
  C  C2507  1  0.951500  0.167000  0.837300  1.0
  C  C2508  1  0.951500  0.833000  0.662700  1.0
  C  C2509  1  0.548500  0.333000  0.162700  1.0
  C  C2510  1  0.548500  0.667000  0.337300  1.0
  C  C2511  1  0.048500  0.833000  0.162700  1.0
  C  C2512  1  0.048500  0.167000  0.337300  1.0
  C  C2513  1  0.451500  0.685100  0.870200  1.0
  C  C2514  1  0.451500  0.314900  0.629800  1.0
  C  C2515  1  0.951500  0.185100  0.870200  1.0
  C  C2516  1  0.951500  0.814900  0.629800  1.0
  C  C2517  1  0.548500  0.314900  0.129800  1.0
  C  C2518  1  0.548500  0.685100  0.370200  1.0
  C  C2519  1  0.048500  0.814900  0.129800  1.0
  C  C2520  1  0.048500  0.185100  0.370200  1.0
  C  C2521  1  0.405600  0.705000  0.880500  1.0
  C  C2522  1  0.405600  0.295000  0.619500  1.0
  C  C2523  1  0.905600  0.205000  0.880500  1.0
  C  C2524  1  0.905600  0.795000  0.619500  1.0
  C  C2525  1  0.594400  0.295000  0.119500  1.0
  C  C2526  1  0.594400  0.705000  0.380500  1.0
  C  C2527  1  0.094400  0.795000  0.119500  1.0
  C  C2528  1  0.094400  0.205000  0.380500  1.0
  C  C2529  1  0.400300  0.722700  0.910500  1.0
  C  C2530  1  0.400300  0.277300  0.589500  1.0
  C  C2531  1  0.900300  0.222700  0.910500  1.0
  C  C2532  1  0.900300  0.777300  0.589500  1.0
  C  C2533  1  0.599700  0.277300  0.089500  1.0
  C  C2534  1  0.599700  0.722700  0.410500  1.0
  C  C2535  1  0.099700  0.777300  0.089500  1.0
  C  C2536  1  0.099700  0.222700  0.410500  1.0
  C  C2537  1  0.448400  0.713400  0.928500  1.0
  C  C2538  1  0.448400  0.286600  0.571500  1.0
  C  C2539  1  0.948400  0.213400  0.928500  1.0
  C  C2540  1  0.948400  0.786600  0.571500  1.0
  C  C2541  1  0.551600  0.286600  0.071500  1.0
  C  C2542  1  0.551600  0.713400  0.428500  1.0
  C  C2543  1  0.051600  0.786600  0.071500  1.0
  C  C2544  1  0.051600  0.213400  0.428500  1.0
  C  C2545  1  0.492400  0.693200  0.918200  1.0
  C  C2546  1  0.492400  0.306800  0.581800  1.0
  C  C2547  1  0.992400  0.193200  0.918200  1.0
  C  C2548  1  0.992400  0.806800  0.581800  1.0
  C  C2549  1  0.507600  0.306800  0.081800  1.0
  C  C2550  1  0.507600  0.693200  0.418200  1.0
  C  C2551  1  0.007600  0.806800  0.081800  1.0
  C  C2552  1  0.007600  0.193200  0.418200  1.0
  C  C2553  1  0.495200  0.677200  0.888700  1.0
  C  C2554  1  0.495200  0.322800  0.611300  1.0
  C  C2555  1  0.995200  0.177200  0.888700  1.0
  C  C2556  1  0.995200  0.822800  0.611300  1.0
  C  C2557  1  0.504800  0.322800  0.111300  1.0
  C  C2558  1  0.504800  0.677200  0.388700  1.0
  C  C2559  1  0.004800  0.822800  0.111300  1.0
  C  C2560  1  0.004800  0.177200  0.388700  1.0
  C  C2561  1  0.540500  0.684000  0.937600  1.0
  C  C2562  1  0.540500  0.316000  0.562400  1.0
  C  C2563  1  0.040500  0.184000  0.937600  1.0
  C  C2564  1  0.040500  0.816000  0.562400  1.0
  C  C2565  1  0.459500  0.316000  0.062400  1.0
  C  C2566  1  0.459500  0.684000  0.437600  1.0
  C  C2567  1  0.959500  0.816000  0.062400  1.0
  C  C2568  1  0.959500  0.184000  0.437600  1.0
  C  C2569  1  0.521000  0.652200  0.950600  1.0
  C  C2570  1  0.521000  0.347800  0.549400  1.0
  C  C2571  1  0.021000  0.152200  0.950600  1.0
  C  C2572  1  0.021000  0.847800  0.549400  1.0
  C  C2573  1  0.479000  0.347800  0.049400  1.0
  C  C2574  1  0.479000  0.652200  0.450600  1.0
  C  C2575  1  0.979000  0.847800  0.049400  1.0
  C  C2576  1  0.979000  0.152200  0.450600  1.0
  C  C2577  1  0.491200  0.658400  0.977100  1.0
  C  C2578  1  0.491200  0.341600  0.522900  1.0
  C  C2579  1  0.991200  0.158400  0.977100  1.0
  C  C2580  1  0.991200  0.841600  0.522900  1.0
  C  C2581  1  0.508800  0.341600  0.022900  1.0
  C  C2582  1  0.508800  0.658400  0.477100  1.0
  C  C2583  1  0.008800  0.841600  0.022900  1.0
  C  C2584  1  0.008800  0.158400  0.477100  1.0
  C  C2585  1  0.473300  0.628700  0.988600  1.0
  C  C2586  1  0.473300  0.371300  0.511400  1.0
  C  C2587  1  0.973300  0.128700  0.988600  1.0
  C  C2588  1  0.973300  0.871300  0.511400  1.0
  C  C2589  1  0.526700  0.371300  0.011400  1.0
  C  C2590  1  0.526700  0.628700  0.488600  1.0
  C  C2591  1  0.026700  0.871300  0.011400  1.0
  C  C2592  1  0.026700  0.128700  0.488600  1.0
  C  C2593  1  0.482900  0.592900  0.973100  1.0
  C  C2594  1  0.482900  0.407100  0.526900  1.0
  C  C2595  1  0.982900  0.092900  0.973100  1.0
  C  C2596  1  0.982900  0.907100  0.526900  1.0
  C  C2597  1  0.517100  0.407100  0.026900  1.0
  C  C2598  1  0.517100  0.592900  0.473100  1.0
  C  C2599  1  0.017100  0.907100  0.026900  1.0
  C  C2600  1  0.017100  0.092900  0.473100  1.0
  C  C2601  1  0.514000  0.584200  0.947200  1.0
  C  C2602  1  0.514000  0.415800  0.552800  1.0
  C  C2603  1  0.014000  0.084200  0.947200  1.0
  C  C2604  1  0.014000  0.915800  0.552800  1.0
  C  C2605  1  0.486000  0.415800  0.052800  1.0
  C  C2606  1  0.486000  0.584200  0.447200  1.0
  C  C2607  1  0.986000  0.915800  0.052800  1.0
  C  C2608  1  0.986000  0.084200  0.447200  1.0
  C  C2609  1  0.536300  0.614900  0.936000  1.0
  C  C2610  1  0.536300  0.385100  0.564000  1.0
  C  C2611  1  0.036300  0.114900  0.936000  1.0
  C  C2612  1  0.036300  0.885100  0.564000  1.0
  C  C2613  1  0.463700  0.385100  0.064000  1.0
  C  C2614  1  0.463700  0.614900  0.436000  1.0
  C  C2615  1  0.963700  0.885100  0.064000  1.0
  C  C2616  1  0.963700  0.114900  0.436000  1.0
  C  C2617  1  0.518000  0.545600  0.930900  1.0
  C  C2618  1  0.518000  0.454400  0.569100  1.0
  C  C2619  1  0.018000  0.045600  0.930900  1.0
  C  C2620  1  0.018000  0.954400  0.569100  1.0
  C  C2621  1  0.482000  0.454400  0.069100  1.0
  C  C2622  1  0.482000  0.545600  0.430900  1.0
  C  C2623  1  0.982000  0.954400  0.069100  1.0
  C  C2624  1  0.982000  0.045600  0.430900  1.0
  C  C2625  1  0.472800  0.532000  0.911100  1.0
  C  C2626  1  0.472800  0.468000  0.588900  1.0
  C  C2627  1  0.972800  0.032000  0.911100  1.0
  C  C2628  1  0.972800  0.968000  0.588900  1.0
  C  C2629  1  0.527200  0.468000  0.088900  1.0
  C  C2630  1  0.527200  0.532000  0.411100  1.0
  C  C2631  1  0.027200  0.968000  0.088900  1.0
  C  C2632  1  0.027200  0.032000  0.411100  1.0
  C  C2633  1  0.424300  0.517600  0.919300  1.0
  C  C2634  1  0.424300  0.482400  0.580700  1.0
  C  C2635  1  0.924300  0.017600  0.919300  1.0
  C  C2636  1  0.924300  0.982400  0.580700  1.0
  C  C2637  1  0.575700  0.482400  0.080700  1.0
  C  C2638  1  0.575700  0.517600  0.419300  1.0
  C  C2639  1  0.075700  0.982400  0.080700  1.0
  C  C2640  1  0.075700  0.017600  0.419300  1.0
  C  C2641  1  0.374300  0.507400  0.901400  1.0
  C  C2642  1  0.374300  0.492600  0.598600  1.0
  C  C2643  1  0.874300  0.007400  0.901400  1.0
  C  C2644  1  0.874300  0.992600  0.598600  1.0
  C  C2645  1  0.625700  0.492600  0.098600  1.0
  C  C2646  1  0.625700  0.507400  0.401400  1.0
  C  C2647  1  0.125700  0.992600  0.098600  1.0
  C  C2648  1  0.125700  0.007400  0.401400  1.0
  C  C2649  1  0.380700  0.508800  0.873500  1.0
  C  C2650  1  0.380700  0.491200  0.626500  1.0
  C  C2651  1  0.880700  0.008800  0.873500  1.0
  C  C2652  1  0.880700  0.991200  0.626500  1.0
  C  C2653  1  0.619300  0.491200  0.126500  1.0
  C  C2654  1  0.619300  0.508800  0.373500  1.0
  C  C2655  1  0.119300  0.991200  0.126500  1.0
  C  C2656  1  0.119300  0.008800  0.373500  1.0
  C  C2657  1  0.430100  0.522900  0.862500  1.0
  C  C2658  1  0.430100  0.477100  0.637500  1.0
  C  C2659  1  0.930100  0.022900  0.862500  1.0
  C  C2660  1  0.930100  0.977100  0.637500  1.0
  C  C2661  1  0.569900  0.477100  0.137500  1.0
  C  C2662  1  0.569900  0.522900  0.362500  1.0
  C  C2663  1  0.069900  0.977100  0.137500  1.0
  C  C2664  1  0.069900  0.022900  0.362500  1.0
  C  C2665  1  0.478700  0.534900  0.881300  1.0
  C  C2666  1  0.478700  0.465100  0.618700  1.0
  C  C2667  1  0.978700  0.034900  0.881300  1.0
  C  C2668  1  0.978700  0.965100  0.618700  1.0
  C  C2669  1  0.521300  0.465100  0.118700  1.0
  C  C2670  1  0.521300  0.534900  0.381300  1.0
  C  C2671  1  0.021300  0.965100  0.118700  1.0
  C  C2672  1  0.021300  0.034900  0.381300  1.0
  C  C2673  1  0.433700  0.526100  0.831700  1.0
  C  C2674  1  0.433700  0.473900  0.668300  1.0
  C  C2675  1  0.933700  0.026100  0.831700  1.0
  C  C2676  1  0.933700  0.973900  0.668300  1.0
  C  C2677  1  0.566300  0.473900  0.168300  1.0
  C  C2678  1  0.566300  0.526100  0.331700  1.0
  C  C2679  1  0.066300  0.973900  0.168300  1.0
  C  C2680  1  0.066300  0.026100  0.331700  1.0
  C  C2681  1  0.408200  0.492600  0.810200  1.0
  C  C2682  1  0.408200  0.507400  0.689800  1.0
  C  C2683  1  0.908200  0.992600  0.810200  1.0
  C  C2684  1  0.908200  0.007400  0.689800  1.0
  C  C2685  1  0.591800  0.507400  0.189800  1.0
  C  C2686  1  0.591800  0.492600  0.310200  1.0
  C  C2687  1  0.091800  0.007400  0.189800  1.0
  C  C2688  1  0.091800  0.992600  0.310200  1.0
  C  C2689  1  0.408900  0.496100  0.778900  1.0
  C  C2690  1  0.408900  0.503900  0.721100  1.0
  C  C2691  1  0.908900  0.996100  0.778900  1.0
  C  C2692  1  0.908900  0.003900  0.721100  1.0
  C  C2693  1  0.591100  0.503900  0.221100  1.0
  C  C2694  1  0.591100  0.496100  0.278900  1.0
  C  C2695  1  0.091100  0.003900  0.221100  1.0
  C  C2696  1  0.091100  0.996100  0.278900  1.0
  C  C2697  1  0.359300  0.497600  0.764800  1.0
  C  C2698  1  0.359300  0.502400  0.735200  1.0
  C  C2699  1  0.859300  0.997600  0.764800  1.0
  C  C2700  1  0.859300  0.002400  0.735200  1.0
  C  C2701  1  0.640700  0.502400  0.235200  1.0
  C  C2702  1  0.640700  0.497600  0.264800  1.0
  C  C2703  1  0.140700  0.002400  0.235200  1.0
  C  C2704  1  0.140700  0.997600  0.264800  1.0
  C  C2705  1  0.462700  0.498700  0.763900  1.0
  C  C2706  1  0.462700  0.501300  0.736100  1.0
  C  C2707  1  0.962700  0.998700  0.763900  1.0
  C  C2708  1  0.962700  0.001300  0.736100  1.0
  C  C2709  1  0.537300  0.501300  0.236100  1.0
  C  C2710  1  0.537300  0.498700  0.263900  1.0
  C  C2711  1  0.037300  0.001300  0.236100  1.0
  C  C2712  1  0.037300  0.998700  0.263900  1.0
  C  C2713  1  0.257300  0.603000  0.819000  1.0
  C  C2714  1  0.257300  0.397000  0.681000  1.0
  C  C2715  1  0.757300  0.103000  0.819000  1.0
  C  C2716  1  0.757300  0.897000  0.681000  1.0
  C  C2717  1  0.742700  0.397000  0.181000  1.0
  C  C2718  1  0.742700  0.603000  0.319000  1.0
  C  C2719  1  0.242700  0.897000  0.181000  1.0
  C  C2720  1  0.242700  0.103000  0.319000  1.0
  C  C2721  1  0.237600  0.644900  0.826900  1.0
  C  C2722  1  0.237600  0.355100  0.673100  1.0
  C  C2723  1  0.737600  0.144900  0.826900  1.0
  C  C2724  1  0.737600  0.855100  0.673100  1.0
  C  C2725  1  0.762400  0.355100  0.173100  1.0
  C  C2726  1  0.762400  0.644900  0.326900  1.0
  C  C2727  1  0.262400  0.855100  0.173100  1.0
  C  C2728  1  0.262400  0.144900  0.326900  1.0
  C  C2729  1  0.227600  0.580800  0.838800  1.0
  C  C2730  1  0.227600  0.419200  0.661200  1.0
  C  C2731  1  0.727600  0.080800  0.838800  1.0
  C  C2732  1  0.727600  0.919200  0.661200  1.0
  C  C2733  1  0.772400  0.419200  0.161200  1.0
  C  C2734  1  0.772400  0.580800  0.338800  1.0
  C  C2735  1  0.272400  0.919200  0.161200  1.0
  C  C2736  1  0.272400  0.080800  0.338800  1.0
  C  C2737  1  0.244000  0.586100  0.786800  1.0
  C  C2738  1  0.244000  0.413900  0.713200  1.0
  C  C2739  1  0.744000  0.086100  0.786800  1.0
  C  C2740  1  0.744000  0.913900  0.713200  1.0
  C  C2741  1  0.756000  0.413900  0.213200  1.0
  C  C2742  1  0.756000  0.586100  0.286800  1.0
  C  C2743  1  0.256000  0.913900  0.213200  1.0
  C  C2744  1  0.256000  0.086100  0.286800  1.0
  C  C2745  1  0.350000  0.749100  0.923500  1.0
  C  C2746  1  0.350000  0.250900  0.576500  1.0
  C  C2747  1  0.850000  0.249100  0.923500  1.0
  C  C2748  1  0.850000  0.750900  0.576500  1.0
  C  C2749  1  0.650000  0.250900  0.076500  1.0
  C  C2750  1  0.650000  0.749100  0.423500  1.0
  C  C2751  1  0.150000  0.750900  0.076500  1.0
  C  C2752  1  0.150000  0.249100  0.423500  1.0
  C  C2753  1  0.340000  0.747500  0.955800  1.0
  C  C2754  1  0.340000  0.252500  0.544200  1.0
  C  C2755  1  0.840000  0.247500  0.955800  1.0
  C  C2756  1  0.840000  0.752500  0.544200  1.0
  C  C2757  1  0.660000  0.252500  0.044200  1.0
  C  C2758  1  0.660000  0.747500  0.455800  1.0
  C  C2759  1  0.160000  0.752500  0.044200  1.0
  C  C2760  1  0.160000  0.247500  0.455800  1.0
  C  C2761  1  0.440200  0.638200  0.016700  1.0
  C  C2762  1  0.440200  0.361800  0.483300  1.0
  C  C2763  1  0.940200  0.138200  0.016700  1.0
  C  C2764  1  0.940200  0.861800  0.483300  1.0
  C  C2765  1  0.559800  0.361800  0.983300  1.0
  C  C2766  1  0.559800  0.638200  0.516700  1.0
  C  C2767  1  0.059800  0.861800  0.983300  1.0
  C  C2768  1  0.059800  0.138200  0.516700  1.0
  C  C2769  1  0.477500  0.660500  0.041100  1.0
  C  C2770  1  0.477500  0.339500  0.458900  1.0
  C  C2771  1  0.977500  0.160500  0.041100  1.0
  C  C2772  1  0.977500  0.839500  0.458900  1.0
  C  C2773  1  0.522500  0.339500  0.958900  1.0
  C  C2774  1  0.522500  0.660500  0.541100  1.0
  C  C2775  1  0.022500  0.839500  0.958900  1.0
  C  C2776  1  0.022500  0.160500  0.541100  1.0
  C  C2777  1  0.402800  0.606600  0.021800  1.0
  C  C2778  1  0.402800  0.393400  0.478200  1.0
  C  C2779  1  0.902800  0.106600  0.021800  1.0
  C  C2780  1  0.902800  0.893400  0.478200  1.0
  C  C2781  1  0.597200  0.393400  0.978200  1.0
  C  C2782  1  0.597200  0.606600  0.521800  1.0
  C  C2783  1  0.097200  0.893400  0.978200  1.0
  C  C2784  1  0.097200  0.106600  0.521800  1.0
  C  C2785  1  0.320300  0.495100  0.914200  1.0
  C  C2786  1  0.320300  0.504900  0.585800  1.0
  C  C2787  1  0.820300  0.995100  0.914200  1.0
  C  C2788  1  0.820300  0.004900  0.585800  1.0
  C  C2789  1  0.679700  0.504900  0.085800  1.0
  C  C2790  1  0.679700  0.495100  0.414200  1.0
  C  C2791  1  0.179700  0.004900  0.085800  1.0
  C  C2792  1  0.179700  0.995100  0.414200  1.0
  C  C2793  1  0.292800  0.526900  0.935400  1.0
  C  C2794  1  0.292800  0.473100  0.564600  1.0
  C  C2795  1  0.792800  0.026900  0.935400  1.0
  C  C2796  1  0.792800  0.973100  0.564600  1.0
  C  C2797  1  0.707200  0.473100  0.064600  1.0
  C  C2798  1  0.707200  0.526900  0.435400  1.0
  C  C2799  1  0.207200  0.973100  0.064600  1.0
  C  C2800  1  0.207200  0.026900  0.435400  1.0
  C  C2801  1  0.332700  0.467000  0.932400  1.0
  C  C2802  1  0.332700  0.533000  0.567600  1.0
  C  C2803  1  0.832700  0.967000  0.932400  1.0
  C  C2804  1  0.832700  0.033000  0.567600  1.0
  C  C2805  1  0.667300  0.533000  0.067600  1.0
  C  C2806  1  0.667300  0.467000  0.432400  1.0
  C  C2807  1  0.167300  0.033000  0.067600  1.0
  C  C2808  1  0.167300  0.967000  0.432400  1.0
  C  C2809  1  0.278100  0.477400  0.891400  1.0
  C  C2810  1  0.278100  0.522600  0.608600  1.0
  C  C2811  1  0.778100  0.977400  0.891400  1.0
  C  C2812  1  0.778100  0.022600  0.608600  1.0
  C  C2813  1  0.721900  0.522600  0.108600  1.0
  C  C2814  1  0.721900  0.477400  0.391400  1.0
  C  C2815  1  0.221900  0.022600  0.108600  1.0
  C  C2816  1  0.221900  0.977400  0.391400  1.0
  C  C2817  1  0.772800  0.307400  0.756800  1.0
  C  C2818  1  0.772800  0.692600  0.743200  1.0
  C  C2819  1  0.272800  0.807400  0.756800  1.0
  C  C2820  1  0.272800  0.192600  0.743200  1.0
  C  C2821  1  0.227200  0.692600  0.243200  1.0
  C  C2822  1  0.227200  0.307400  0.256800  1.0
  C  C2823  1  0.727200  0.192600  0.243200  1.0
  C  C2824  1  0.727200  0.807400  0.256800  1.0
  C  C2825  1  0.801700  0.283600  0.772500  1.0
  C  C2826  1  0.801700  0.716400  0.727500  1.0
  C  C2827  1  0.301700  0.783600  0.772500  1.0
  C  C2828  1  0.301700  0.216400  0.727500  1.0
  C  C2829  1  0.198300  0.716400  0.227500  1.0
  C  C2830  1  0.198300  0.283600  0.272500  1.0
  C  C2831  1  0.698300  0.216400  0.227500  1.0
  C  C2832  1  0.698300  0.783600  0.272500  1.0
  C  C2833  1  0.847800  0.261700  0.762100  1.0
  C  C2834  1  0.847800  0.738300  0.737900  1.0
  C  C2835  1  0.347800  0.761700  0.762100  1.0
  C  C2836  1  0.347800  0.238300  0.737900  1.0
  C  C2837  1  0.152200  0.738300  0.237900  1.0
  C  C2838  1  0.152200  0.261700  0.262100  1.0
  C  C2839  1  0.652200  0.238300  0.237900  1.0
  C  C2840  1  0.652200  0.761700  0.262100  1.0
  C  C2841  1  0.870100  0.264300  0.735900  1.0
  C  C2842  1  0.870100  0.735700  0.764100  1.0
  C  C2843  1  0.370100  0.764300  0.735900  1.0
  C  C2844  1  0.370100  0.235700  0.764100  1.0
  C  C2845  1  0.129900  0.735700  0.264100  1.0
  C  C2846  1  0.129900  0.264300  0.235900  1.0
  C  C2847  1  0.629900  0.235700  0.264100  1.0
  C  C2848  1  0.629900  0.764300  0.235900  1.0
  C  C2849  1  0.845400  0.285600  0.719000  1.0
  C  C2850  1  0.845400  0.714400  0.781000  1.0
  C  C2851  1  0.345400  0.785600  0.719000  1.0
  C  C2852  1  0.345400  0.214400  0.781000  1.0
  C  C2853  1  0.154600  0.714400  0.281000  1.0
  C  C2854  1  0.154600  0.285600  0.219000  1.0
  C  C2855  1  0.654600  0.214400  0.281000  1.0
  C  C2856  1  0.654600  0.785600  0.219000  1.0
  C  C2857  1  0.796000  0.306900  0.729400  1.0
  C  C2858  1  0.796000  0.693100  0.770600  1.0
  C  C2859  1  0.296000  0.806900  0.729400  1.0
  C  C2860  1  0.296000  0.193100  0.770600  1.0
  C  C2861  1  0.204000  0.693100  0.270600  1.0
  C  C2862  1  0.204000  0.306900  0.229400  1.0
  C  C2863  1  0.704000  0.193100  0.270600  1.0
  C  C2864  1  0.704000  0.806900  0.229400  1.0
  C  C2865  1  0.868700  0.286300  0.689800  1.0
  C  C2866  1  0.868700  0.713700  0.810200  1.0
  C  C2867  1  0.368700  0.786300  0.689800  1.0
  C  C2868  1  0.368700  0.213700  0.810200  1.0
  C  C2869  1  0.131300  0.713700  0.310200  1.0
  C  C2870  1  0.131300  0.286300  0.189800  1.0
  C  C2871  1  0.631300  0.213700  0.310200  1.0
  C  C2872  1  0.631300  0.786300  0.189800  1.0
  C  C2873  1  0.845400  0.255200  0.665900  1.0
  C  C2874  1  0.845400  0.744800  0.834100  1.0
  C  C2875  1  0.345400  0.755200  0.665900  1.0
  C  C2876  1  0.345400  0.244800  0.834100  1.0
  C  C2877  1  0.154600  0.744800  0.334100  1.0
  C  C2878  1  0.154600  0.255200  0.165900  1.0
  C  C2879  1  0.654600  0.244800  0.334100  1.0
  C  C2880  1  0.654600  0.755200  0.165900  1.0
  C  C2881  1  0.876500  0.221200  0.658200  1.0
  C  C2882  1  0.876500  0.778800  0.841800  1.0
  C  C2883  1  0.376500  0.721200  0.658200  1.0
  C  C2884  1  0.376500  0.278800  0.841800  1.0
  C  C2885  1  0.123500  0.778800  0.341800  1.0
  C  C2886  1  0.123500  0.221200  0.158200  1.0
  C  C2887  1  0.623500  0.278800  0.341800  1.0
  C  C2888  1  0.623500  0.721200  0.158200  1.0
  C  C2889  1  0.855800  0.189900  0.637300  1.0
  C  C2890  1  0.855800  0.810100  0.862700  1.0
  C  C2891  1  0.355800  0.689900  0.637300  1.0
  C  C2892  1  0.355800  0.310100  0.862700  1.0
  C  C2893  1  0.144200  0.810100  0.362700  1.0
  C  C2894  1  0.144200  0.189900  0.137300  1.0
  C  C2895  1  0.644200  0.310100  0.362700  1.0
  C  C2896  1  0.644200  0.689900  0.137300  1.0
  C  C2897  1  0.802600  0.195300  0.624900  1.0
  C  C2898  1  0.802600  0.804700  0.875100  1.0
  C  C2899  1  0.302600  0.695300  0.624900  1.0
  C  C2900  1  0.302600  0.304700  0.875100  1.0
  C  C2901  1  0.197400  0.804700  0.375100  1.0
  C  C2902  1  0.197400  0.195300  0.124900  1.0
  C  C2903  1  0.697400  0.304700  0.375100  1.0
  C  C2904  1  0.697400  0.695300  0.124900  1.0
  C  C2905  1  0.772900  0.229200  0.631400  1.0
  C  C2906  1  0.772900  0.770800  0.868600  1.0
  C  C2907  1  0.272900  0.729200  0.631400  1.0
  C  C2908  1  0.272900  0.270800  0.868600  1.0
  C  C2909  1  0.227100  0.770800  0.368600  1.0
  C  C2910  1  0.227100  0.229200  0.131400  1.0
  C  C2911  1  0.727100  0.270800  0.368600  1.0
  C  C2912  1  0.727100  0.729200  0.131400  1.0
  C  C2913  1  0.795700  0.260600  0.651600  1.0
  C  C2914  1  0.795700  0.739400  0.848400  1.0
  C  C2915  1  0.295700  0.760600  0.651600  1.0
  C  C2916  1  0.295700  0.239400  0.848400  1.0
  C  C2917  1  0.204300  0.739400  0.348400  1.0
  C  C2918  1  0.204300  0.260600  0.151600  1.0
  C  C2919  1  0.704300  0.239400  0.348400  1.0
  C  C2920  1  0.704300  0.760600  0.151600  1.0
  C  C2921  1  0.712200  0.230800  0.619000  1.0
  C  C2922  1  0.712200  0.769200  0.881000  1.0
  C  C2923  1  0.212200  0.730800  0.619000  1.0
  C  C2924  1  0.212200  0.269200  0.881000  1.0
  C  C2925  1  0.287800  0.769200  0.381000  1.0
  C  C2926  1  0.287800  0.230800  0.119000  1.0
  C  C2927  1  0.787800  0.269200  0.381000  1.0
  C  C2928  1  0.787800  0.730800  0.119000  1.0
  C  C2929  1  0.666400  0.222100  0.637500  1.0
  C  C2930  1  0.666400  0.777900  0.862500  1.0
  C  C2931  1  0.166400  0.722100  0.637500  1.0
  C  C2932  1  0.166400  0.277900  0.862500  1.0
  C  C2933  1  0.333600  0.777900  0.362500  1.0
  C  C2934  1  0.333600  0.222100  0.137500  1.0
  C  C2935  1  0.833600  0.277900  0.362500  1.0
  C  C2936  1  0.833600  0.722100  0.137500  1.0
  C  C2937  1  0.650800  0.186500  0.637700  1.0
  C  C2938  1  0.650800  0.813500  0.862300  1.0
  C  C2939  1  0.150800  0.686500  0.637700  1.0
  C  C2940  1  0.150800  0.313500  0.862300  1.0
  C  C2941  1  0.349200  0.813500  0.362300  1.0
  C  C2942  1  0.349200  0.186500  0.137700  1.0
  C  C2943  1  0.849200  0.313500  0.362300  1.0
  C  C2944  1  0.849200  0.686500  0.137700  1.0
  C  C2945  1  0.610800  0.174700  0.655200  1.0
  C  C2946  1  0.610800  0.825300  0.844800  1.0
  C  C2947  1  0.110800  0.674700  0.655200  1.0
  C  C2948  1  0.110800  0.325300  0.844800  1.0
  C  C2949  1  0.389200  0.825300  0.344800  1.0
  C  C2950  1  0.389200  0.174700  0.155200  1.0
  C  C2951  1  0.889200  0.325300  0.344800  1.0
  C  C2952  1  0.889200  0.674700  0.155200  1.0
  C  C2953  1  0.580200  0.204100  0.673900  1.0
  C  C2954  1  0.580200  0.795900  0.826100  1.0
  C  C2955  1  0.080200  0.704100  0.673900  1.0
  C  C2956  1  0.080200  0.295900  0.826100  1.0
  C  C2957  1  0.419800  0.795900  0.326100  1.0
  C  C2958  1  0.419800  0.204100  0.173900  1.0
  C  C2959  1  0.919800  0.295900  0.326100  1.0
  C  C2960  1  0.919800  0.704100  0.173900  1.0
  C  C2961  1  0.592600  0.242800  0.675400  1.0
  C  C2962  1  0.592600  0.757200  0.824600  1.0
  C  C2963  1  0.092600  0.742800  0.675400  1.0
  C  C2964  1  0.092600  0.257200  0.824600  1.0
  C  C2965  1  0.407400  0.757200  0.324600  1.0
  C  C2966  1  0.407400  0.242800  0.175400  1.0
  C  C2967  1  0.907400  0.257200  0.324600  1.0
  C  C2968  1  0.907400  0.742800  0.175400  1.0
  C  C2969  1  0.636400  0.248600  0.657500  1.0
  C  C2970  1  0.636400  0.751400  0.842500  1.0
  C  C2971  1  0.136400  0.748600  0.657500  1.0
  C  C2972  1  0.136400  0.251400  0.842500  1.0
  C  C2973  1  0.363600  0.751400  0.342500  1.0
  C  C2974  1  0.363600  0.248600  0.157500  1.0
  C  C2975  1  0.863600  0.251400  0.342500  1.0
  C  C2976  1  0.863600  0.748600  0.157500  1.0
  C  C2977  1  0.563400  0.272600  0.697100  1.0
  C  C2978  1  0.563400  0.727400  0.802900  1.0
  C  C2979  1  0.063400  0.772600  0.697100  1.0
  C  C2980  1  0.063400  0.227400  0.802900  1.0
  C  C2981  1  0.436600  0.727400  0.302900  1.0
  C  C2982  1  0.436600  0.272600  0.197100  1.0
  C  C2983  1  0.936600  0.227400  0.302900  1.0
  C  C2984  1  0.936600  0.772600  0.197100  1.0
  C  C2985  1  0.593300  0.278300  0.727400  1.0
  C  C2986  1  0.593300  0.721700  0.772600  1.0
  C  C2987  1  0.093300  0.778300  0.727400  1.0
  C  C2988  1  0.093300  0.221700  0.772600  1.0
  C  C2989  1  0.406700  0.721700  0.272600  1.0
  C  C2990  1  0.406700  0.278300  0.227400  1.0
  C  C2991  1  0.906700  0.221700  0.272600  1.0
  C  C2992  1  0.906700  0.778300  0.227400  1.0
  C  C2993  1  0.578000  0.254400  0.745200  1.0
  C  C2994  1  0.578000  0.745600  0.754800  1.0
  C  C2995  1  0.078000  0.754400  0.745200  1.0
  C  C2996  1  0.078000  0.245600  0.754800  1.0
  C  C2997  1  0.422000  0.745600  0.254800  1.0
  C  C2998  1  0.422000  0.254400  0.245200  1.0
  C  C2999  1  0.922000  0.245600  0.254800  1.0
  C  C3000  1  0.922000  0.754400  0.245200  1.0
  C  C3001  1  0.604000  0.255000  0.770500  1.0
  C  C3002  1  0.604000  0.745000  0.729500  1.0
  C  C3003  1  0.104000  0.755000  0.770500  1.0
  C  C3004  1  0.104000  0.245000  0.729500  1.0
  C  C3005  1  0.396000  0.745000  0.229500  1.0
  C  C3006  1  0.396000  0.255000  0.270500  1.0
  C  C3007  1  0.896000  0.245000  0.229500  1.0
  C  C3008  1  0.896000  0.755000  0.270500  1.0
  C  C3009  1  0.649600  0.280700  0.778500  1.0
  C  C3010  1  0.649600  0.719300  0.721500  1.0
  C  C3011  1  0.149600  0.780700  0.778500  1.0
  C  C3012  1  0.149600  0.219300  0.721500  1.0
  C  C3013  1  0.350400  0.719300  0.221500  1.0
  C  C3014  1  0.350400  0.280700  0.278500  1.0
  C  C3015  1  0.850400  0.219300  0.221500  1.0
  C  C3016  1  0.850400  0.780700  0.278500  1.0
  C  C3017  1  0.668900  0.304400  0.761500  1.0
  C  C3018  1  0.668900  0.695600  0.738500  1.0
  C  C3019  1  0.168900  0.804400  0.761500  1.0
  C  C3020  1  0.168900  0.195600  0.738500  1.0
  C  C3021  1  0.331100  0.695600  0.238500  1.0
  C  C3022  1  0.331100  0.304400  0.261500  1.0
  C  C3023  1  0.831100  0.195600  0.238500  1.0
  C  C3024  1  0.831100  0.804400  0.261500  1.0
  C  C3025  1  0.637000  0.302000  0.734500  1.0
  C  C3026  1  0.637000  0.698000  0.765500  1.0
  C  C3027  1  0.137000  0.802000  0.734500  1.0
  C  C3028  1  0.137000  0.198000  0.765500  1.0
  C  C3029  1  0.363000  0.698000  0.265500  1.0
  C  C3030  1  0.363000  0.302000  0.234500  1.0
  C  C3031  1  0.863000  0.198000  0.265500  1.0
  C  C3032  1  0.863000  0.802000  0.234500  1.0
  C  C3033  1  0.717600  0.329600  0.768300  1.0
  C  C3034  1  0.717600  0.670400  0.731700  1.0
  C  C3035  1  0.217600  0.829600  0.768300  1.0
  C  C3036  1  0.217600  0.170400  0.731700  1.0
  C  C3037  1  0.282400  0.670400  0.231700  1.0
  C  C3038  1  0.282400  0.329600  0.268300  1.0
  C  C3039  1  0.782400  0.170400  0.231700  1.0
  C  C3040  1  0.782400  0.829600  0.268300  1.0
  C  C3041  1  0.721600  0.348300  0.799800  1.0
  C  C3042  1  0.721600  0.651700  0.700200  1.0
  C  C3043  1  0.221600  0.848300  0.799800  1.0
  C  C3044  1  0.221600  0.151700  0.700200  1.0
  C  C3045  1  0.278400  0.651700  0.200200  1.0
  C  C3046  1  0.278400  0.348300  0.299800  1.0
  C  C3047  1  0.778400  0.151700  0.200200  1.0
  C  C3048  1  0.778400  0.848300  0.299800  1.0
  C  C3049  1  0.601200  0.132400  0.655400  1.0
  C  C3050  1  0.601200  0.867600  0.844600  1.0
  C  C3051  1  0.101200  0.632400  0.655400  1.0
  C  C3052  1  0.101200  0.367600  0.844600  1.0
  C  C3053  1  0.398800  0.867600  0.344600  1.0
  C  C3054  1  0.398800  0.132400  0.155400  1.0
  C  C3055  1  0.898800  0.367600  0.344600  1.0
  C  C3056  1  0.898800  0.632400  0.155400  1.0
  C  C3057  1  0.639500  0.104100  0.633600  1.0
  C  C3058  1  0.639500  0.895900  0.866400  1.0
  C  C3059  1  0.139500  0.604100  0.633600  1.0
  C  C3060  1  0.139500  0.395900  0.866400  1.0
  C  C3061  1  0.360500  0.895900  0.366400  1.0
  C  C3062  1  0.360500  0.104100  0.133600  1.0
  C  C3063  1  0.860500  0.395900  0.366400  1.0
  C  C3064  1  0.860500  0.604100  0.133600  1.0
  C  C3065  1  0.536700  0.203600  0.777400  1.0
  C  C3066  1  0.536700  0.796400  0.722600  1.0
  C  C3067  1  0.036700  0.703600  0.777400  1.0
  C  C3068  1  0.036700  0.296400  0.722600  1.0
  C  C3069  1  0.463300  0.796400  0.222600  1.0
  C  C3070  1  0.463300  0.203600  0.277400  1.0
  C  C3071  1  0.963300  0.296400  0.222600  1.0
  C  C3072  1  0.963300  0.703600  0.277400  1.0
  C  C3073  1  0.542200  0.264500  0.815600  1.0
  C  C3074  1  0.542200  0.735500  0.684400  1.0
  C  C3075  1  0.042200  0.764500  0.815600  1.0
  C  C3076  1  0.042200  0.235500  0.684400  1.0
  C  C3077  1  0.457800  0.735500  0.184400  1.0
  C  C3078  1  0.457800  0.264500  0.315600  1.0
  C  C3079  1  0.957800  0.235500  0.184400  1.0
  C  C3080  1  0.957800  0.764500  0.315600  1.0
  C  C3081  1  0.870500  0.481100  0.886900  1.0
  C  C3082  1  0.870500  0.518900  0.613100  1.0
  C  C3083  1  0.370500  0.981100  0.886900  1.0
  C  C3084  1  0.370500  0.018900  0.613100  1.0
  C  C3085  1  0.129500  0.518900  0.113100  1.0
  C  C3086  1  0.129500  0.481100  0.386900  1.0
  C  C3087  1  0.629500  0.018900  0.113100  1.0
  C  C3088  1  0.629500  0.981100  0.386900  1.0
  C  C3089  1  0.897000  0.457500  0.900900  1.0
  C  C3090  1  0.897000  0.542500  0.599100  1.0
  C  C3091  1  0.397000  0.957500  0.900900  1.0
  C  C3092  1  0.397000  0.042500  0.599100  1.0
  C  C3093  1  0.103000  0.542500  0.099100  1.0
  C  C3094  1  0.103000  0.457500  0.400900  1.0
  C  C3095  1  0.603000  0.042500  0.099100  1.0
  C  C3096  1  0.603000  0.957500  0.400900  1.0
  C  C3097  1  0.880700  0.451100  0.926200  1.0
  C  C3098  1  0.880700  0.548900  0.573800  1.0
  C  C3099  1  0.380700  0.951100  0.926200  1.0
  C  C3100  1  0.380700  0.048900  0.573800  1.0
  C  C3101  1  0.119300  0.548900  0.073800  1.0
  C  C3102  1  0.119300  0.451100  0.426200  1.0
  C  C3103  1  0.619300  0.048900  0.073800  1.0
  C  C3104  1  0.619300  0.951100  0.426200  1.0
  C  C3105  1  0.835400  0.472600  0.940300  1.0
  C  C3106  1  0.835400  0.527400  0.559700  1.0
  C  C3107  1  0.335400  0.972600  0.940300  1.0
  C  C3108  1  0.335400  0.027400  0.559700  1.0
  C  C3109  1  0.164600  0.527400  0.059700  1.0
  C  C3110  1  0.164600  0.472600  0.440300  1.0
  C  C3111  1  0.664600  0.027400  0.059700  1.0
  C  C3112  1  0.664600  0.972600  0.440300  1.0
  C  C3113  1  0.806400  0.497600  0.928100  1.0
  C  C3114  1  0.806400  0.502400  0.571900  1.0
  C  C3115  1  0.306400  0.997600  0.928100  1.0
  C  C3116  1  0.306400  0.002400  0.571900  1.0
  C  C3117  1  0.193600  0.502400  0.071900  1.0
  C  C3118  1  0.193600  0.497600  0.428100  1.0
  C  C3119  1  0.693600  0.002400  0.071900  1.0
  C  C3120  1  0.693600  0.997600  0.428100  1.0
  C  C3121  1  0.821200  0.501600  0.900100  1.0
  C  C3122  1  0.821200  0.498400  0.599900  1.0
  C  C3123  1  0.321200  0.001600  0.900100  1.0
  C  C3124  1  0.321200  0.998400  0.599900  1.0
  C  C3125  1  0.178800  0.498400  0.099900  1.0
  C  C3126  1  0.178800  0.501600  0.400100  1.0
  C  C3127  1  0.678800  0.998400  0.099900  1.0
  C  C3128  1  0.678800  0.001600  0.400100  1.0
  C  C3129  1  0.759500  0.519400  0.944100  1.0
  C  C3130  1  0.759500  0.480600  0.555900  1.0
  C  C3131  1  0.259500  0.019400  0.944100  1.0
  C  C3132  1  0.259500  0.980600  0.555900  1.0
  C  C3133  1  0.240500  0.480600  0.055900  1.0
  C  C3134  1  0.240500  0.519400  0.444100  1.0
  C  C3135  1  0.740500  0.980600  0.055900  1.0
  C  C3136  1  0.740500  0.019400  0.444100  1.0
  C  C3137  1  0.775000  0.555500  0.962800  1.0
  C  C3138  1  0.775000  0.444500  0.537200  1.0
  C  C3139  1  0.275000  0.055500  0.962800  1.0
  C  C3140  1  0.275000  0.944500  0.537200  1.0
  C  C3141  1  0.225000  0.444500  0.037200  1.0
  C  C3142  1  0.225000  0.555500  0.462800  1.0
  C  C3143  1  0.725000  0.944500  0.037200  1.0
  C  C3144  1  0.725000  0.055500  0.462800  1.0
  C  C3145  1  0.793900  0.558900  0.991900  1.0
  C  C3146  1  0.793900  0.441100  0.508100  1.0
  C  C3147  1  0.293900  0.058900  0.991900  1.0
  C  C3148  1  0.293900  0.941100  0.508100  1.0
  C  C3149  1  0.206100  0.441100  0.008100  1.0
  C  C3150  1  0.206100  0.558900  0.491900  1.0
  C  C3151  1  0.706100  0.941100  0.008100  1.0
  C  C3152  1  0.706100  0.058900  0.491900  1.0
  C  C3153  1  0.812700  0.591700  0.010400  1.0
  C  C3154  1  0.812700  0.408300  0.489600  1.0
  C  C3155  1  0.312700  0.091700  0.010400  1.0
  C  C3156  1  0.312700  0.908300  0.489600  1.0
  C  C3157  1  0.187300  0.408300  0.989600  1.0
  C  C3158  1  0.187300  0.591700  0.510400  1.0
  C  C3159  1  0.687300  0.908300  0.989600  1.0
  C  C3160  1  0.687300  0.091700  0.510400  1.0
  C  C3161  1  0.811000  0.624400  0.999700  1.0
  C  C3162  1  0.811000  0.375600  0.500300  1.0
  C  C3163  1  0.311000  0.124400  0.999700  1.0
  C  C3164  1  0.311000  0.875600  0.500300  1.0
  C  C3165  1  0.189000  0.375600  0.000300  1.0
  C  C3166  1  0.189000  0.624400  0.499700  1.0
  C  C3167  1  0.689000  0.875600  0.000300  1.0
  C  C3168  1  0.689000  0.124400  0.499700  1.0
  C  C3169  1  0.796000  0.623600  0.971100  1.0
  C  C3170  1  0.796000  0.376400  0.528900  1.0
  C  C3171  1  0.296000  0.123600  0.971100  1.0
  C  C3172  1  0.296000  0.876400  0.528900  1.0
  C  C3173  1  0.204000  0.376400  0.028900  1.0
  C  C3174  1  0.204000  0.623600  0.471100  1.0
  C  C3175  1  0.704000  0.876400  0.028900  1.0
  C  C3176  1  0.704000  0.123600  0.471100  1.0
  C  C3177  1  0.774300  0.590700  0.953000  1.0
  C  C3178  1  0.774300  0.409300  0.547000  1.0
  C  C3179  1  0.274300  0.090700  0.953000  1.0
  C  C3180  1  0.274300  0.909300  0.547000  1.0
  C  C3181  1  0.225700  0.409300  0.047000  1.0
  C  C3182  1  0.225700  0.590700  0.453000  1.0
  C  C3183  1  0.725700  0.909300  0.047000  1.0
  C  C3184  1  0.725700  0.090700  0.453000  1.0
  C  C3185  1  0.806500  0.659700  0.959600  1.0
  C  C3186  1  0.806500  0.340300  0.540400  1.0
  C  C3187  1  0.306500  0.159700  0.959600  1.0
  C  C3188  1  0.306500  0.840300  0.540400  1.0
  C  C3189  1  0.193500  0.340300  0.040400  1.0
  C  C3190  1  0.193500  0.659700  0.459600  1.0
  C  C3191  1  0.693500  0.840300  0.040400  1.0
  C  C3192  1  0.693500  0.159700  0.459600  1.0
  C  C3193  1  0.864700  0.661700  0.948600  1.0
  C  C3194  1  0.864700  0.338300  0.551400  1.0
  C  C3195  1  0.364700  0.161700  0.948600  1.0
  C  C3196  1  0.364700  0.838300  0.551400  1.0
  C  C3197  1  0.135300  0.338300  0.051400  1.0
  C  C3198  1  0.135300  0.661700  0.448600  1.0
  C  C3199  1  0.635300  0.838300  0.051400  1.0
  C  C3200  1  0.635300  0.161700  0.448600  1.0
  C  C3201  1  0.908700  0.675000  0.967700  1.0
  C  C3202  1  0.908700  0.325000  0.532300  1.0
  C  C3203  1  0.408700  0.175000  0.967700  1.0
  C  C3204  1  0.408700  0.825000  0.532300  1.0
  C  C3205  1  0.091300  0.325000  0.032300  1.0
  C  C3206  1  0.091300  0.675000  0.467700  1.0
  C  C3207  1  0.591300  0.825000  0.032300  1.0
  C  C3208  1  0.591300  0.175000  0.467700  1.0
  C  C3209  1  0.964700  0.673900  0.959500  1.0
  C  C3210  1  0.964700  0.326100  0.540500  1.0
  C  C3211  1  0.464700  0.173900  0.959500  1.0
  C  C3212  1  0.464700  0.826100  0.540500  1.0
  C  C3213  1  0.035300  0.326100  0.040500  1.0
  C  C3214  1  0.035300  0.673900  0.459500  1.0
  C  C3215  1  0.535300  0.826100  0.040500  1.0
  C  C3216  1  0.535300  0.173900  0.459500  1.0
  C  C3217  1  0.975700  0.659300  0.930700  1.0
  C  C3218  1  0.975700  0.340700  0.569300  1.0
  C  C3219  1  0.475700  0.159300  0.930700  1.0
  C  C3220  1  0.475700  0.840700  0.569300  1.0
  C  C3221  1  0.024300  0.340700  0.069300  1.0
  C  C3222  1  0.024300  0.659300  0.430700  1.0
  C  C3223  1  0.524300  0.840700  0.069300  1.0
  C  C3224  1  0.524300  0.159300  0.430700  1.0
  C  C3225  1  0.934800  0.643400  0.910700  1.0
  C  C3226  1  0.934800  0.356600  0.589300  1.0
  C  C3227  1  0.434800  0.143400  0.910700  1.0
  C  C3228  1  0.434800  0.856600  0.589300  1.0
  C  C3229  1  0.065200  0.356600  0.089300  1.0
  C  C3230  1  0.065200  0.643400  0.410700  1.0
  C  C3231  1  0.565200  0.856600  0.089300  1.0
  C  C3232  1  0.565200  0.143400  0.410700  1.0
  C  C3233  1  0.875800  0.645500  0.920000  1.0
  C  C3234  1  0.875800  0.354500  0.580000  1.0
  C  C3235  1  0.375800  0.145500  0.920000  1.0
  C  C3236  1  0.375800  0.854500  0.580000  1.0
  C  C3237  1  0.124200  0.354500  0.080000  1.0
  C  C3238  1  0.124200  0.645500  0.420000  1.0
  C  C3239  1  0.624200  0.854500  0.080000  1.0
  C  C3240  1  0.624200  0.145500  0.420000  1.0
  C  C3241  1  0.950800  0.625700  0.879900  1.0
  C  C3242  1  0.950800  0.374300  0.620100  1.0
  C  C3243  1  0.450800  0.125700  0.879900  1.0
  C  C3244  1  0.450800  0.874300  0.620100  1.0
  C  C3245  1  0.049200  0.374300  0.120100  1.0
  C  C3246  1  0.049200  0.625700  0.379900  1.0
  C  C3247  1  0.549200  0.874300  0.120100  1.0
  C  C3248  1  0.549200  0.125700  0.379900  1.0
  C  C3249  1  0.962200  0.585600  0.875200  1.0
  C  C3250  1  0.962200  0.414400  0.624800  1.0
  C  C3251  1  0.462200  0.085600  0.875200  1.0
  C  C3252  1  0.462200  0.914400  0.624800  1.0
  C  C3253  1  0.037800  0.414400  0.124800  1.0
  C  C3254  1  0.037800  0.585600  0.375200  1.0
  C  C3255  1  0.537800  0.914400  0.124800  1.0
  C  C3256  1  0.537800  0.085600  0.375200  1.0
  C  C3257  1  0.021900  0.575400  0.880400  1.0
  C  C3258  1  0.021900  0.424600  0.619600  1.0
  C  C3259  1  0.521900  0.075400  0.880400  1.0
  C  C3260  1  0.521900  0.924600  0.619600  1.0
  C  C3261  1  0.978100  0.424600  0.119600  1.0
  C  C3262  1  0.978100  0.575400  0.380400  1.0
  C  C3263  1  0.478100  0.924600  0.119600  1.0
  C  C3264  1  0.478100  0.075400  0.380400  1.0
  C  C3265  1  0.035800  0.536100  0.877400  1.0
  C  C3266  1  0.035800  0.463900  0.622600  1.0
  C  C3267  1  0.535800  0.036100  0.877400  1.0
  C  C3268  1  0.535800  0.963900  0.622600  1.0
  C  C3269  1  0.964200  0.463900  0.122600  1.0
  C  C3270  1  0.964200  0.536100  0.377400  1.0
  C  C3271  1  0.464200  0.963900  0.122600  1.0
  C  C3272  1  0.464200  0.036100  0.377400  1.0
  C  C3273  1  0.993700  0.510000  0.869900  1.0
  C  C3274  1  0.993700  0.490000  0.630100  1.0
  C  C3275  1  0.493700  0.010000  0.869900  1.0
  C  C3276  1  0.493700  0.990000  0.630100  1.0
  C  C3277  1  0.006300  0.490000  0.130100  1.0
  C  C3278  1  0.006300  0.510000  0.369900  1.0
  C  C3279  1  0.506300  0.990000  0.130100  1.0
  C  C3280  1  0.506300  0.010000  0.369900  1.0
  C  C3281  1  0.937600  0.519500  0.865100  1.0
  C  C3282  1  0.937600  0.480500  0.634900  1.0
  C  C3283  1  0.437600  0.019500  0.865100  1.0
  C  C3284  1  0.437600  0.980500  0.634900  1.0
  C  C3285  1  0.062400  0.480500  0.134900  1.0
  C  C3286  1  0.062400  0.519500  0.365100  1.0
  C  C3287  1  0.562400  0.980500  0.134900  1.0
  C  C3288  1  0.562400  0.019500  0.365100  1.0
  C  C3289  1  0.920300  0.558400  0.867300  1.0
  C  C3290  1  0.920300  0.441600  0.632700  1.0
  C  C3291  1  0.420300  0.058400  0.867300  1.0
  C  C3292  1  0.420300  0.941600  0.632700  1.0
  C  C3293  1  0.079700  0.441600  0.132700  1.0
  C  C3294  1  0.079700  0.558400  0.367300  1.0
  C  C3295  1  0.579700  0.941600  0.132700  1.0
  C  C3296  1  0.579700  0.058400  0.367300  1.0
  C  C3297  1  0.889600  0.489500  0.857500  1.0
  C  C3298  1  0.889600  0.510500  0.642500  1.0
  C  C3299  1  0.389600  0.989500  0.857500  1.0
  C  C3300  1  0.389600  0.010500  0.642500  1.0
  C  C3301  1  0.110400  0.510500  0.142500  1.0
  C  C3302  1  0.110400  0.489500  0.357500  1.0
  C  C3303  1  0.610400  0.010500  0.142500  1.0
  C  C3304  1  0.610400  0.989500  0.357500  1.0
  C  C3305  1  0.910200  0.453400  0.835800  1.0
  C  C3306  1  0.910200  0.546600  0.664200  1.0
  C  C3307  1  0.410200  0.953400  0.835800  1.0
  C  C3308  1  0.410200  0.046600  0.664200  1.0
  C  C3309  1  0.089800  0.546600  0.164200  1.0
  C  C3310  1  0.089800  0.453400  0.335800  1.0
  C  C3311  1  0.589800  0.046600  0.164200  1.0
  C  C3312  1  0.589800  0.953400  0.335800  1.0
  C  C3313  1  0.864200  0.425600  0.826700  1.0
  C  C3314  1  0.864200  0.574400  0.673300  1.0
  C  C3315  1  0.364200  0.925600  0.826700  1.0
  C  C3316  1  0.364200  0.074400  0.673300  1.0
  C  C3317  1  0.135800  0.574400  0.173300  1.0
  C  C3318  1  0.135800  0.425600  0.326700  1.0
  C  C3319  1  0.635800  0.074400  0.173300  1.0
  C  C3320  1  0.635800  0.925600  0.326700  1.0
  C  C3321  1  0.861100  0.391700  0.834000  1.0
  C  C3322  1  0.861100  0.608300  0.666000  1.0
  C  C3323  1  0.361100  0.891700  0.834000  1.0
  C  C3324  1  0.361100  0.108300  0.666000  1.0
  C  C3325  1  0.138900  0.608300  0.166000  1.0
  C  C3326  1  0.138900  0.391700  0.334000  1.0
  C  C3327  1  0.638900  0.108300  0.166000  1.0
  C  C3328  1  0.638900  0.891700  0.334000  1.0
  C  C3329  1  0.816500  0.367000  0.826500  1.0
  C  C3330  1  0.816500  0.633000  0.673500  1.0
  C  C3331  1  0.316500  0.867000  0.826500  1.0
  C  C3332  1  0.316500  0.133000  0.673500  1.0
  C  C3333  1  0.183500  0.633000  0.173500  1.0
  C  C3334  1  0.183500  0.367000  0.326500  1.0
  C  C3335  1  0.683500  0.133000  0.173500  1.0
  C  C3336  1  0.683500  0.867000  0.326500  1.0
  C  C3337  1  0.771400  0.374800  0.809400  1.0
  C  C3338  1  0.771400  0.625200  0.690600  1.0
  C  C3339  1  0.271400  0.874800  0.809400  1.0
  C  C3340  1  0.271400  0.125200  0.690600  1.0
  C  C3341  1  0.228600  0.625200  0.190600  1.0
  C  C3342  1  0.228600  0.374800  0.309400  1.0
  C  C3343  1  0.728600  0.125200  0.190600  1.0
  C  C3344  1  0.728600  0.874800  0.309400  1.0
  C  C3345  1  0.774100  0.407200  0.800200  1.0
  C  C3346  1  0.774100  0.592800  0.699800  1.0
  C  C3347  1  0.274100  0.907200  0.800200  1.0
  C  C3348  1  0.274100  0.092800  0.699800  1.0
  C  C3349  1  0.225900  0.592800  0.199800  1.0
  C  C3350  1  0.225900  0.407200  0.300200  1.0
  C  C3351  1  0.725900  0.092800  0.199800  1.0
  C  C3352  1  0.725900  0.907200  0.300200  1.0
  C  C3353  1  0.820100  0.433300  0.808900  1.0
  C  C3354  1  0.820100  0.566700  0.691100  1.0
  C  C3355  1  0.320100  0.933300  0.808900  1.0
  C  C3356  1  0.320100  0.066700  0.691100  1.0
  C  C3357  1  0.179900  0.566700  0.191100  1.0
  C  C3358  1  0.179900  0.433300  0.308900  1.0
  C  C3359  1  0.679900  0.066700  0.191100  1.0
  C  C3360  1  0.679900  0.933300  0.308900  1.0
  C  C3361  1  0.911500  0.422400  0.940800  1.0
  C  C3362  1  0.911500  0.577600  0.559200  1.0
  C  C3363  1  0.411500  0.922400  0.940800  1.0
  C  C3364  1  0.411500  0.077600  0.559200  1.0
  C  C3365  1  0.088500  0.577600  0.059200  1.0
  C  C3366  1  0.088500  0.422400  0.440800  1.0
  C  C3367  1  0.588500  0.077600  0.059200  1.0
  C  C3368  1  0.588500  0.922400  0.440800  1.0
  C  C3369  1  0.975900  0.433900  0.942800  1.0
  C  C3370  1  0.975900  0.566100  0.557200  1.0
  C  C3371  1  0.475900  0.933900  0.942800  1.0
  C  C3372  1  0.475900  0.066100  0.557200  1.0
  C  C3373  1  0.024100  0.566100  0.057200  1.0
  C  C3374  1  0.024100  0.433900  0.442800  1.0
  C  C3375  1  0.524100  0.066100  0.057200  1.0
  C  C3376  1  0.524100  0.933900  0.442800  1.0
  C  C3377  1  0.905000  0.384000  0.918900  1.0
  C  C3378  1  0.905000  0.616000  0.581100  1.0
  C  C3379  1  0.405000  0.884000  0.918900  1.0
  C  C3380  1  0.405000  0.116000  0.581100  1.0
  C  C3381  1  0.095000  0.616000  0.081100  1.0
  C  C3382  1  0.095000  0.384000  0.418900  1.0
  C  C3383  1  0.595000  0.116000  0.081100  1.0
  C  C3384  1  0.595000  0.884000  0.418900  1.0
  C  C3385  1  0.889700  0.419400  0.970700  1.0
  C  C3386  1  0.889700  0.580600  0.529300  1.0
  C  C3387  1  0.389700  0.919400  0.970700  1.0
  C  C3388  1  0.389700  0.080600  0.529300  1.0
  C  C3389  1  0.110300  0.580600  0.029300  1.0
  C  C3390  1  0.110300  0.419400  0.470700  1.0
  C  C3391  1  0.610300  0.080600  0.029300  1.0
  C  C3392  1  0.610300  0.919400  0.470700  1.0
  C  C3393  1  0.827300  0.593200  0.041800  1.0
  C  C3394  1  0.827300  0.406800  0.458200  1.0
  C  C3395  1  0.327300  0.093200  0.041800  1.0
  C  C3396  1  0.327300  0.906800  0.458200  1.0
  C  C3397  1  0.172700  0.406800  0.958200  1.0
  C  C3398  1  0.172700  0.593200  0.541800  1.0
  C  C3399  1  0.672700  0.906800  0.958200  1.0
  C  C3400  1  0.672700  0.093200  0.541800  1.0
  C  C3401  1  0.838200  0.555200  0.047000  1.0
  C  C3402  1  0.838200  0.444800  0.453000  1.0
  C  C3403  1  0.338200  0.055200  0.047000  1.0
  C  C3404  1  0.338200  0.944800  0.453000  1.0
  C  C3405  1  0.161800  0.444800  0.953000  1.0
  C  C3406  1  0.161800  0.555200  0.547000  1.0
  C  C3407  1  0.661800  0.944800  0.953000  1.0
  C  C3408  1  0.661800  0.055200  0.547000  1.0
  C  C3409  1  0.775500  0.612300  0.061300  1.0
  C  C3410  1  0.775500  0.387700  0.438700  1.0
  C  C3411  1  0.275500  0.112300  0.061300  1.0
  C  C3412  1  0.275500  0.887700  0.438700  1.0
  C  C3413  1  0.224500  0.387700  0.938700  1.0
  C  C3414  1  0.224500  0.612300  0.561300  1.0
  C  C3415  1  0.724500  0.887700  0.938700  1.0
  C  C3416  1  0.724500  0.112300  0.561300  1.0
  C  C3417  1  0.881900  0.621100  0.051200  1.0
  C  C3418  1  0.881900  0.378900  0.448800  1.0
  C  C3419  1  0.381900  0.121100  0.051200  1.0
  C  C3420  1  0.381900  0.878900  0.448800  1.0
  C  C3421  1  0.118100  0.378900  0.948800  1.0
  C  C3422  1  0.118100  0.621100  0.551200  1.0
  C  C3423  1  0.618100  0.878900  0.948800  1.0
  C  C3424  1  0.618100  0.121100  0.551200  1.0
  C  C3425  1  0.012400  0.689800  0.981400  1.0
  C  C3426  1  0.012400  0.310200  0.518600  1.0
  C  C3427  1  0.512400  0.189800  0.981400  1.0
  C  C3428  1  0.512400  0.810200  0.518600  1.0
  C  C3429  1  0.987600  0.310200  0.018600  1.0
  C  C3430  1  0.987600  0.689800  0.481400  1.0
  C  C3431  1  0.487600  0.810200  0.018600  1.0
  C  C3432  1  0.487600  0.189800  0.481400  1.0
  C  C3433  1  0.988200  0.698800  0.013000  1.0
  C  C3434  1  0.988200  0.301200  0.487000  1.0
  C  C3435  1  0.488200  0.198800  0.013000  1.0
  C  C3436  1  0.488200  0.801200  0.487000  1.0
  C  C3437  1  0.011800  0.301200  0.987000  1.0
  C  C3438  1  0.011800  0.698800  0.513000  1.0
  C  C3439  1  0.511800  0.801200  0.987000  1.0
  C  C3440  1  0.511800  0.198800  0.513000  1.0
  C  C3441  1  0.036100  0.727100  0.975300  1.0
  C  C3442  1  0.036100  0.272900  0.524700  1.0
  C  C3443  1  0.536100  0.227100  0.975300  1.0
  C  C3444  1  0.536100  0.772900  0.524700  1.0
  C  C3445  1  0.963900  0.272900  0.024700  1.0
  C  C3446  1  0.963900  0.727100  0.475300  1.0
  C  C3447  1  0.463900  0.772900  0.024700  1.0
  C  C3448  1  0.463900  0.227100  0.475300  1.0
  C  C3449  1  0.098900  0.523500  0.882300  1.0
  C  C3450  1  0.098900  0.476500  0.617700  1.0
  C  C3451  1  0.598900  0.023500  0.882300  1.0
  C  C3452  1  0.598900  0.976500  0.617700  1.0
  C  C3453  1  0.901100  0.476500  0.117700  1.0
  C  C3454  1  0.901100  0.523500  0.382300  1.0
  C  C3455  1  0.401100  0.976500  0.117700  1.0
  C  C3456  1  0.401100  0.023500  0.382300  1.0
  C  C3457  1  0.136200  0.559200  0.892200  1.0
  C  C3458  1  0.136200  0.440800  0.607800  1.0
  C  C3459  1  0.636200  0.059200  0.892200  1.0
  C  C3460  1  0.636200  0.940800  0.607800  1.0
  C  C3461  1  0.863800  0.440800  0.107800  1.0
  C  C3462  1  0.863800  0.559200  0.392200  1.0
  C  C3463  1  0.363800  0.940800  0.107800  1.0
  C  C3464  1  0.363800  0.059200  0.392200  1.0
  C  C3465  1  0.122100  0.503400  0.853900  1.0
  C  C3466  1  0.122100  0.496600  0.646100  1.0
  C  C3467  1  0.622100  0.003400  0.853900  1.0
  C  C3468  1  0.622100  0.996600  0.646100  1.0
  C  C3469  1  0.877900  0.496600  0.146100  1.0
  C  C3470  1  0.877900  0.503400  0.353900  1.0
  C  C3471  1  0.377900  0.996600  0.146100  1.0
  C  C3472  1  0.377900  0.003400  0.353900  1.0
  C  C3473  1  0.099600  0.499900  0.902600  1.0
  C  C3474  1  0.099600  0.500100  0.597400  1.0
  C  C3475  1  0.599600  0.999900  0.902600  1.0
  C  C3476  1  0.599600  0.000100  0.597400  1.0
  C  C3477  1  0.900400  0.500100  0.097400  1.0
  C  C3478  1  0.900400  0.499900  0.402600  1.0
  C  C3479  1  0.400400  0.000100  0.097400  1.0
  C  C3480  1  0.400400  0.999900  0.402600  1.0
  C  C3481  1  0.930300  0.747200  0.914500  1.0
  C  C3482  1  0.930300  0.252800  0.585500  1.0
  C  C3483  1  0.430300  0.247200  0.914500  1.0
  C  C3484  1  0.430300  0.752800  0.585500  1.0
  C  C3485  1  0.069700  0.252800  0.085500  1.0
  C  C3486  1  0.069700  0.747200  0.414500  1.0
  C  C3487  1  0.569700  0.752800  0.085500  1.0
  C  C3488  1  0.569700  0.247200  0.414500  1.0
  C  C3489  1  0.635800  0.550400  0.954600  1.0
  C  C3490  1  0.635800  0.449600  0.545400  1.0
  C  C3491  1  0.135800  0.050400  0.954600  1.0
  C  C3492  1  0.135800  0.949600  0.545400  1.0
  C  C3493  1  0.364200  0.449600  0.045400  1.0
  C  C3494  1  0.364200  0.550400  0.454600  1.0
  C  C3495  1  0.864200  0.949600  0.045400  1.0
  C  C3496  1  0.864200  0.050400  0.454600  1.0
  C  C3497  1  0.619300  0.576500  0.006500  1.0
  C  C3498  1  0.619300  0.423500  0.493500  1.0
  C  C3499  1  0.119300  0.076500  0.006500  1.0
  C  C3500  1  0.119300  0.923500  0.493500  1.0
  C  C3501  1  0.380700  0.423500  0.993500  1.0
  C  C3502  1  0.380700  0.576500  0.506500  1.0
  C  C3503  1  0.880700  0.923500  0.993500  1.0
  C  C3504  1  0.880700  0.076500  0.506500  1.0
  C  C3505  1  0.616700  0.507600  0.986900  1.0
  C  C3506  1  0.616700  0.492400  0.513100  1.0
  C  C3507  1  0.116700  0.007600  0.986900  1.0
  C  C3508  1  0.116700  0.992400  0.513100  1.0
  C  C3509  1  0.383300  0.492400  0.013100  1.0
  C  C3510  1  0.383300  0.507600  0.486900  1.0
  C  C3511  1  0.883300  0.992400  0.013100  1.0
  C  C3512  1  0.883300  0.007600  0.486900  1.0
  C  C3513  1  0.665200  0.652600  0.975300  1.0
  C  C3514  1  0.665200  0.347400  0.524700  1.0
  C  C3515  1  0.165200  0.152600  0.975300  1.0
  C  C3516  1  0.165200  0.847400  0.524700  1.0
  C  C3517  1  0.334800  0.347400  0.024700  1.0
  C  C3518  1  0.334800  0.652600  0.475300  1.0
  C  C3519  1  0.834800  0.847400  0.024700  1.0
  C  C3520  1  0.834800  0.152600  0.475300  1.0
  C  C3521  1  0.529300  0.821500  0.920300  1.0
  C  C3522  1  0.529300  0.178500  0.579700  1.0
  C  C3523  1  0.029300  0.321500  0.920300  1.0
  C  C3524  1  0.029300  0.678500  0.579700  1.0
  C  C3525  1  0.470700  0.178500  0.079700  1.0
  C  C3526  1  0.470700  0.821500  0.420300  1.0
  C  C3527  1  0.970700  0.678500  0.079700  1.0
  C  C3528  1  0.970700  0.321500  0.420300  1.0
  C  C3529  1  0.499600  0.773600  0.877500  1.0
  C  C3530  1  0.499600  0.226400  0.622500  1.0
  C  C3531  1  0.999600  0.273600  0.877500  1.0
  C  C3532  1  0.999600  0.726400  0.622500  1.0
  C  C3533  1  0.500400  0.226400  0.122500  1.0
  C  C3534  1  0.500400  0.773600  0.377500  1.0
  C  C3535  1  0.000400  0.726400  0.122500  1.0
  C  C3536  1  0.000400  0.273600  0.377500  1.0
  C  C3537  1  0.720400  0.771100  0.786300  1.0
  C  C3538  1  0.720400  0.228900  0.713700  1.0
  C  C3539  1  0.220400  0.271100  0.786300  1.0
  C  C3540  1  0.220400  0.728900  0.713700  1.0
  C  C3541  1  0.279600  0.228900  0.213700  1.0
  C  C3542  1  0.279600  0.771100  0.286300  1.0
  C  C3543  1  0.779600  0.728900  0.213700  1.0
  C  C3544  1  0.779600  0.271100  0.286300  1.0
  C  C3545  1  0.784300  0.824500  0.805800  1.0
  C  C3546  1  0.784300  0.175500  0.694200  1.0
  C  C3547  1  0.284300  0.324500  0.805800  1.0
  C  C3548  1  0.284300  0.675500  0.694200  1.0
  C  C3549  1  0.215700  0.175500  0.194200  1.0
  C  C3550  1  0.215700  0.824500  0.305800  1.0
  C  C3551  1  0.715700  0.675500  0.194200  1.0
  C  C3552  1  0.715700  0.324500  0.305800  1.0
  C  C3553  1  0.912900  0.563900  0.939600  1.0
  C  C3554  1  0.912900  0.436100  0.560400  1.0
  C  C3555  1  0.412900  0.063900  0.939600  1.0
  C  C3556  1  0.412900  0.936100  0.560400  1.0
  C  C3557  1  0.087100  0.436100  0.060400  1.0
  C  C3558  1  0.087100  0.563900  0.439600  1.0
  C  C3559  1  0.587100  0.936100  0.060400  1.0
  C  C3560  1  0.587100  0.063900  0.439600  1.0
  C  C3561  1  0.956300  0.555600  0.961500  1.0
  C  C3562  1  0.956300  0.444400  0.538500  1.0
  C  C3563  1  0.456300  0.055600  0.961500  1.0
  C  C3564  1  0.456300  0.944400  0.538500  1.0
  C  C3565  1  0.043700  0.444400  0.038500  1.0
  C  C3566  1  0.043700  0.555600  0.461500  1.0
  C  C3567  1  0.543700  0.944400  0.038500  1.0
  C  C3568  1  0.543700  0.055600  0.461500  1.0
  C  C3569  1  0.912600  0.702000  0.869400  1.0
  C  C3570  1  0.912600  0.298000  0.630600  1.0
  C  C3571  1  0.412600  0.202000  0.869400  1.0
  C  C3572  1  0.412600  0.798000  0.630600  1.0
  C  C3573  1  0.087400  0.298000  0.130600  1.0
  C  C3574  1  0.087400  0.702000  0.369400  1.0
  C  C3575  1  0.587400  0.798000  0.130600  1.0
  C  C3576  1  0.587400  0.202000  0.369400  1.0
  C  C3577  1  0.577400  0.759600  0.908800  1.0
  C  C3578  1  0.577400  0.240400  0.591200  1.0
  C  C3579  1  0.077400  0.259600  0.908800  1.0
  C  C3580  1  0.077400  0.740400  0.591200  1.0
  C  C3581  1  0.422600  0.240400  0.091200  1.0
  C  C3582  1  0.422600  0.759600  0.408800  1.0
  C  C3583  1  0.922600  0.740400  0.091200  1.0
  C  C3584  1  0.922600  0.259600  0.408800  1.0
  C  C3585  1  0.011200  0.725200  0.874000  1.0
  C  C3586  1  0.011200  0.274800  0.626000  1.0
  C  C3587  1  0.511200  0.225200  0.874000  1.0
  C  C3588  1  0.511200  0.774800  0.626000  1.0
  C  C3589  1  0.988800  0.274800  0.126000  1.0
  C  C3590  1  0.988800  0.725200  0.374000  1.0
  C  C3591  1  0.488800  0.774800  0.126000  1.0
  C  C3592  1  0.488800  0.225200  0.374000  1.0
  C  C3593  1  0.730100  0.823400  0.761400  1.0
  C  C3594  1  0.730100  0.176600  0.738600  1.0
  C  C3595  1  0.230100  0.323400  0.761400  1.0
  C  C3596  1  0.230100  0.676600  0.738600  1.0
  C  C3597  1  0.269900  0.176600  0.238600  1.0
  C  C3598  1  0.269900  0.823400  0.261400  1.0
  C  C3599  1  0.769900  0.676600  0.238600  1.0
  C  C3600  1  0.769900  0.323400  0.261400  1.0
  C  C3601  1  0.613000  0.127600  0.686400  1.0
  C  C3602  1  0.613000  0.872400  0.813600  1.0
  C  C3603  1  0.113000  0.627600  0.686400  1.0
  C  C3604  1  0.113000  0.372400  0.813600  1.0
  C  C3605  1  0.387000  0.872400  0.313600  1.0
  C  C3606  1  0.387000  0.127600  0.186400  1.0
  C  C3607  1  0.887000  0.372400  0.313600  1.0
  C  C3608  1  0.887000  0.627600  0.186400  1.0
  C  C3609  1  0.537700  0.123300  0.647300  1.0
  C  C3610  1  0.537700  0.876700  0.852700  1.0
  C  C3611  1  0.037700  0.623300  0.647300  1.0
  C  C3612  1  0.037700  0.376700  0.852700  1.0
  C  C3613  1  0.462300  0.876700  0.352700  1.0
  C  C3614  1  0.462300  0.123300  0.147300  1.0
  C  C3615  1  0.962300  0.376700  0.352700  1.0
  C  C3616  1  0.962300  0.623300  0.147300  1.0
  C  C3617  1  0.627000  0.219400  0.807300  1.0
  C  C3618  1  0.627000  0.780600  0.692700  1.0
  C  C3619  1  0.127000  0.719400  0.807300  1.0
  C  C3620  1  0.127000  0.280600  0.692700  1.0
  C  C3621  1  0.373000  0.780600  0.192700  1.0
  C  C3622  1  0.373000  0.219400  0.307300  1.0
  C  C3623  1  0.873000  0.280600  0.192700  1.0
  C  C3624  1  0.873000  0.719400  0.307300  1.0
  C  C3625  1  0.576600  0.235900  0.792900  1.0
  C  C3626  1  0.576600  0.764100  0.707100  1.0
  C  C3627  1  0.076600  0.735900  0.792900  1.0
  C  C3628  1  0.076600  0.264100  0.707100  1.0
  C  C3629  1  0.423400  0.764100  0.207100  1.0
  C  C3630  1  0.423400  0.235900  0.292900  1.0
  C  C3631  1  0.923400  0.264100  0.207100  1.0
  C  C3632  1  0.923400  0.735900  0.292900  1.0
  C  C3633  1  0.060900  0.660700  0.979200  1.0
  C  C3634  1  0.060900  0.339300  0.520800  1.0
  C  C3635  1  0.560900  0.160700  0.979200  1.0
  C  C3636  1  0.560900  0.839300  0.520800  1.0
  C  C3637  1  0.939100  0.339300  0.020800  1.0
  C  C3638  1  0.939100  0.660700  0.479200  1.0
  C  C3639  1  0.439100  0.839300  0.020800  1.0
  C  C3640  1  0.439100  0.160700  0.479200  1.0
  C  C3641  1  0.827000  0.230600  0.803300  1.0
  C  C3642  1  0.827000  0.769400  0.696700  1.0
  C  C3643  1  0.327000  0.730600  0.803300  1.0
  C  C3644  1  0.327000  0.269400  0.696700  1.0
  C  C3645  1  0.173000  0.769400  0.196700  1.0
  C  C3646  1  0.173000  0.230600  0.303300  1.0
  C  C3647  1  0.673000  0.269400  0.196700  1.0
  C  C3648  1  0.673000  0.730600  0.303300  1.0
  C  C3649  1  0.914100  0.271800  0.803900  1.0
  C  C3650  1  0.914100  0.728200  0.696100  1.0
  C  C3651  1  0.414100  0.771800  0.803900  1.0
  C  C3652  1  0.414100  0.228200  0.696100  1.0
  C  C3653  1  0.085900  0.728200  0.196100  1.0
  C  C3654  1  0.085900  0.271800  0.303900  1.0
  C  C3655  1  0.585900  0.228200  0.196100  1.0
  C  C3656  1  0.585900  0.771800  0.303900  1.0
  C  C3657  1  0.907100  0.209500  0.766900  1.0
  C  C3658  1  0.907100  0.790500  0.733100  1.0
  C  C3659  1  0.407100  0.709500  0.766900  1.0
  C  C3660  1  0.407100  0.290500  0.733100  1.0
  C  C3661  1  0.092900  0.790500  0.233100  1.0
  C  C3662  1  0.092900  0.209500  0.266900  1.0
  C  C3663  1  0.592900  0.290500  0.233100  1.0
  C  C3664  1  0.592900  0.709500  0.266900  1.0
  C  C3665  1  0.874200  0.243100  0.784800  1.0
  C  C3666  1  0.874200  0.756900  0.715200  1.0
  C  C3667  1  0.374200  0.743100  0.784800  1.0
  C  C3668  1  0.374200  0.256900  0.715200  1.0
  C  C3669  1  0.125800  0.756900  0.215200  1.0
  C  C3670  1  0.125800  0.243100  0.284800  1.0
  C  C3671  1  0.625800  0.256900  0.215200  1.0
  C  C3672  1  0.625800  0.743100  0.284800  1.0
  C  C3673  1  0.875000  0.129800  0.645600  1.0
  C  C3674  1  0.875000  0.870200  0.854400  1.0
  C  C3675  1  0.375000  0.629800  0.645600  1.0
  C  C3676  1  0.375000  0.370200  0.854400  1.0
  C  C3677  1  0.125000  0.870200  0.354400  1.0
  C  C3678  1  0.125000  0.129800  0.145600  1.0
  C  C3679  1  0.625000  0.370200  0.354400  1.0
  C  C3680  1  0.625000  0.629800  0.145600  1.0
  C  C3681  1  0.959600  0.163200  0.628900  1.0
  C  C3682  1  0.959600  0.836800  0.871100  1.0
  C  C3683  1  0.459600  0.663200  0.628900  1.0
  C  C3684  1  0.459600  0.336800  0.871100  1.0
  C  C3685  1  0.040400  0.836800  0.371100  1.0
  C  C3686  1  0.040400  0.163200  0.128900  1.0
  C  C3687  1  0.540400  0.336800  0.371100  1.0
  C  C3688  1  0.540400  0.663200  0.128900  1.0
  C  C3689  1  0.894900  0.155700  0.626000  1.0
  C  C3690  1  0.894900  0.844300  0.874000  1.0
  C  C3691  1  0.394900  0.655700  0.626000  1.0
  C  C3692  1  0.394900  0.344300  0.874000  1.0
  C  C3693  1  0.105100  0.844300  0.374000  1.0
  C  C3694  1  0.105100  0.155700  0.126000  1.0
  C  C3695  1  0.605100  0.344300  0.374000  1.0
  C  C3696  1  0.605100  0.655700  0.126000  1.0
  C  C3697  1  0.879000  0.139100  0.594200  1.0
  C  C3698  1  0.879000  0.860900  0.905800  1.0
  C  C3699  1  0.379000  0.639100  0.594200  1.0
  C  C3700  1  0.379000  0.360900  0.905800  1.0
  C  C3701  1  0.121000  0.860900  0.405800  1.0
  C  C3702  1  0.121000  0.139100  0.094200  1.0
  C  C3703  1  0.621000  0.360900  0.405800  1.0
  C  C3704  1  0.621000  0.639100  0.094200  1.0
  C  C3705  1  0.658900  0.721800  0.992200  1.0
  C  C3706  1  0.658900  0.278200  0.507800  1.0
  C  C3707  1  0.158900  0.221800  0.992200  1.0
  C  C3708  1  0.158900  0.778200  0.507800  1.0
  C  C3709  1  0.341100  0.278200  0.007800  1.0
  C  C3710  1  0.341100  0.721800  0.492200  1.0
  C  C3711  1  0.841100  0.778200  0.007800  1.0
  C  C3712  1  0.841100  0.221800  0.492200  1.0
  C  C3713  1  0.678300  0.683500  0.028200  1.0
  C  C3714  1  0.678300  0.316500  0.471800  1.0
  C  C3715  1  0.178300  0.183500  0.028200  1.0
  C  C3716  1  0.178300  0.816500  0.471800  1.0
  C  C3717  1  0.321700  0.316500  0.971800  1.0
  C  C3718  1  0.321700  0.683500  0.528200  1.0
  C  C3719  1  0.821700  0.816500  0.971800  1.0
  C  C3720  1  0.821700  0.183500  0.528200  1.0
  C  C3721  1  0.394800  0.669200  0.018300  1.0
  C  C3722  1  0.394800  0.330800  0.481700  1.0
  C  C3723  1  0.894800  0.169200  0.018300  1.0
  C  C3724  1  0.894800  0.830800  0.481700  1.0
  C  C3725  1  0.605200  0.330800  0.981700  1.0
  C  C3726  1  0.605200  0.669200  0.518300  1.0
  C  C3727  1  0.105200  0.830800  0.981700  1.0
  C  C3728  1  0.105200  0.169200  0.518300  1.0
  C  C3729  1  0.295900  0.733400  0.906000  1.0
  C  C3730  1  0.295900  0.266600  0.594000  1.0
  C  C3731  1  0.795900  0.233400  0.906000  1.0
  C  C3732  1  0.795900  0.766600  0.594000  1.0
  C  C3733  1  0.704100  0.266600  0.094000  1.0
  C  C3734  1  0.704100  0.733400  0.406000  1.0
  C  C3735  1  0.204100  0.766600  0.094000  1.0
  C  C3736  1  0.204100  0.233400  0.406000  1.0
  C  C3737  1  0.361000  0.790400  0.922000  1.0
  C  C3738  1  0.361000  0.209600  0.578000  1.0
  C  C3739  1  0.861000  0.290400  0.922000  1.0
  C  C3740  1  0.861000  0.709600  0.578000  1.0
  C  C3741  1  0.639000  0.209600  0.078000  1.0
  C  C3742  1  0.639000  0.790400  0.422000  1.0
  C  C3743  1  0.139000  0.709600  0.078000  1.0
  C  C3744  1  0.139000  0.290400  0.422000  1.0
  C  C3745  1  0.390000  0.617700  0.907700  1.0
  C  C3746  1  0.390000  0.382300  0.592300  1.0
  C  C3747  1  0.890000  0.117700  0.907700  1.0
  C  C3748  1  0.890000  0.882300  0.592300  1.0
  C  C3749  1  0.610000  0.382300  0.092300  1.0
  C  C3750  1  0.610000  0.617700  0.407700  1.0
  C  C3751  1  0.110000  0.882300  0.092300  1.0
  C  C3752  1  0.110000  0.117700  0.407700  1.0
  C  C3753  1  0.330800  0.624400  0.921200  1.0
  C  C3754  1  0.330800  0.375600  0.578800  1.0
  C  C3755  1  0.830800  0.124400  0.921200  1.0
  C  C3756  1  0.830800  0.875600  0.578800  1.0
  C  C3757  1  0.669200  0.375600  0.078800  1.0
  C  C3758  1  0.669200  0.624400  0.421200  1.0
  C  C3759  1  0.169200  0.875600  0.078800  1.0
  C  C3760  1  0.169200  0.124400  0.421200  1.0
  N  N3761  1  0.288000  0.637000  0.931000  1
  N  N3762  1  0.288000  0.363000  0.569000  1
  N  N3763  1  0.788000  0.137000  0.931000  1
  N  N3764  1  0.788000  0.863000  0.569000  1
  N  N3765  1  0.712000  0.363000  0.069000  1
  N  N3766  1  0.712000  0.637000  0.431000  1
  N  N3767  1  0.212000  0.863000  0.069000  1
  N  N3768  1  0.212000  0.137000  0.431000  1
  N  N3769  1  0.978300  0.530000  0.967500  1
  N  N3770  1  0.978300  0.470000  0.532500  1
  N  N3771  1  0.478300  0.030000  0.967500  1
  N  N3772  1  0.478300  0.970000  0.532500  1
  N  N3773  1  0.021700  0.470000  0.032500  1
  N  N3774  1  0.021700  0.530000  0.467500  1
  N  N3775  1  0.521700  0.970000  0.032500  1
  N  N3776  1  0.521700  0.030000  0.467500  1
  N  N3777  1  0.312000  0.636000  0.944000  1
  N  N3778  1  0.312000  0.364000  0.556000  1
  N  N3779  1  0.812000  0.136000  0.944000  1
  N  N3780  1  0.812000  0.864000  0.556000  1
  N  N3781  1  0.688000  0.364000  0.056000  1
  N  N3782  1  0.688000  0.636000  0.444000  1
  N  N3783  1  0.188000  0.864000  0.056000  1
  N  N3784  1  0.188000  0.136000  0.444000  1
  N  N3785  1  0.881000  0.573500  0.924600  1.0
  N  N3786  1  0.881000  0.426500  0.575400  1.0
  N  N3787  1  0.381000  0.073500  0.924600  1.0
  N  N3788  1  0.381000  0.926500  0.575400  1.0
  N  N3789  1  0.119000  0.426500  0.075400  1.0
  N  N3790  1  0.119000  0.573500  0.424600  1.0
  N  N3791  1  0.619000  0.926500  0.075400  1.0
  N  N3792  1  0.619000  0.073500  0.424600  1.0
  N  N3793  1  0.954200  0.727600  0.886700  1.0
  N  N3794  1  0.954200  0.272400  0.613300  1.0
  N  N3795  1  0.454200  0.227600  0.886700  1.0
  N  N3796  1  0.454200  0.772400  0.613300  1.0
  N  N3797  1  0.045800  0.272400  0.113300  1.0
  N  N3798  1  0.045800  0.727600  0.386700  1.0
  N  N3799  1  0.545800  0.772400  0.113300  1.0
  N  N3800  1  0.545800  0.227600  0.386700  1.0
  N  N3801  1  0.627300  0.543200  0.981700  1.0
  N  N3802  1  0.627300  0.456800  0.518300  1.0
  N  N3803  1  0.127300  0.043200  0.981700  1.0
  N  N3804  1  0.127300  0.956800  0.518300  1.0
  N  N3805  1  0.372700  0.456800  0.018300  1.0
  N  N3806  1  0.372700  0.543200  0.481700  1.0
  N  N3807  1  0.872700  0.956800  0.018300  1.0
  N  N3808  1  0.872700  0.043200  0.481700  1.0
  N  N3809  1  0.664200  0.685200  0.998900  1.0
  N  N3810  1  0.664200  0.314800  0.501100  1.0
  N  N3811  1  0.164200  0.185200  0.998900  1.0
  N  N3812  1  0.164200  0.814800  0.501100  1.0
  N  N3813  1  0.335800  0.314800  0.001100  1.0
  N  N3814  1  0.335800  0.685200  0.498900  1.0
  N  N3815  1  0.835800  0.814800  0.001100  1.0
  N  N3816  1  0.835800  0.185200  0.498900  1.0
  N  N3817  1  0.533700  0.784100  0.903000  1.0
  N  N3818  1  0.533700  0.215900  0.597000  1.0
  N  N3819  1  0.033700  0.284100  0.903000  1.0
  N  N3820  1  0.033700  0.715900  0.597000  1.0
  N  N3821  1  0.466300  0.215900  0.097000  1.0
  N  N3822  1  0.466300  0.784100  0.403000  1.0
  N  N3823  1  0.966300  0.715900  0.097000  1.0
  N  N3824  1  0.966300  0.284100  0.403000  1.0
  N  N3825  1  0.740900  0.807700  0.786000  1.0
  N  N3826  1  0.740900  0.192300  0.714000  1.0
  N  N3827  1  0.240900  0.307700  0.786000  1.0
  N  N3828  1  0.240900  0.692300  0.714000  1.0
  N  N3829  1  0.259100  0.192300  0.214000  1.0
  N  N3830  1  0.259100  0.807700  0.286000  1.0
  N  N3831  1  0.759100  0.692300  0.214000  1.0
  N  N3832  1  0.759100  0.307700  0.286000  1.0
  N  N3833  1  0.435600  0.612100  0.897900  1.0
  N  N3834  1  0.435600  0.387900  0.602100  1.0
  N  N3835  1  0.935600  0.112100  0.897900  1.0
  N  N3836  1  0.935600  0.887900  0.602100  1.0
  N  N3837  1  0.564400  0.387900  0.102100  1.0
  N  N3838  1  0.564400  0.612100  0.397900  1.0
  N  N3839  1  0.064400  0.887900  0.102100  1.0
  N  N3840  1  0.064400  0.112100  0.397900  1.0
  O  O3841  1  0.798000  0.598600  0.780400  1
  O  O3842  1  0.798000  0.401400  0.719600  1
  O  O3843  1  0.298000  0.098600  0.780400  1
  O  O3844  1  0.298000  0.901400  0.719600  1
  O  O3845  1  0.202000  0.401400  0.219600  1
  O  O3846  1  0.202000  0.598600  0.280400  1
  O  O3847  1  0.702000  0.901400  0.219600  1
  O  O3848  1  0.702000  0.098600  0.280400  1
  O  O3849  1  0.690700  0.559100  0.810800  1
  O  O3850  1  0.690700  0.440900  0.689200  1
  O  O3851  1  0.190700  0.059100  0.810800  1
  O  O3852  1  0.190700  0.940900  0.689200  1
  O  O3853  1  0.309300  0.440900  0.189200  1
  O  O3854  1  0.309300  0.559100  0.310800  1
  O  O3855  1  0.809300  0.940900  0.189200  1
  O  O3856  1  0.809300  0.059100  0.310800  1
  O  O3857  1  0.553900  0.576000  0.789700  1
  O  O3858  1  0.553900  0.424000  0.710300  1
  O  O3859  1  0.053900  0.076000  0.789700  1
  O  O3860  1  0.053900  0.924000  0.710300  1
  O  O3861  1  0.446100  0.424000  0.210300  1
  O  O3862  1  0.446100  0.576000  0.289700  1
  O  O3863  1  0.946100  0.924000  0.210300  1
  O  O3864  1  0.946100  0.076000  0.289700  1
  O  O3865  1  0.693000  0.731100  0.954300  1
  O  O3866  1  0.693000  0.268900  0.545700  1
  O  O3867  1  0.193000  0.231100  0.954300  1
  O  O3868  1  0.193000  0.768900  0.545700  1
  O  O3869  1  0.307000  0.268900  0.045700  1
  O  O3870  1  0.307000  0.731100  0.454300  1
  O  O3871  1  0.807000  0.768900  0.045700  1
  O  O3872  1  0.807000  0.231100  0.454300  1
  O  O3873  1  0.592200  0.623400  0.812300  1
  O  O3874  1  0.592200  0.376600  0.687700  1
  O  O3875  1  0.092200  0.123400  0.812300  1
  O  O3876  1  0.092200  0.876600  0.687700  1
  O  O3877  1  0.407800  0.376600  0.187700  1
  O  O3878  1  0.407800  0.623400  0.312300  1
  O  O3879  1  0.907800  0.876600  0.187700  1
  O  O3880  1  0.907800  0.123400  0.312300  1
  O  O3881  1  0.498500  0.595000  0.837300  1.0
  O  O3882  1  0.498500  0.405000  0.662700  1.0
  O  O3883  1  0.998500  0.095000  0.837300  1.0
  O  O3884  1  0.998500  0.905000  0.662700  1.0
  O  O3885  1  0.501500  0.405000  0.162700  1.0
  O  O3886  1  0.501500  0.595000  0.337300  1.0
  O  O3887  1  0.001500  0.905000  0.162700  1.0
  O  O3888  1  0.001500  0.095000  0.337300  1.0
  O  O3889  1  0.541300  0.655200  0.876100  1.0
  O  O3890  1  0.541300  0.344800  0.623900  1.0
  O  O3891  1  0.041300  0.155200  0.876100  1.0
  O  O3892  1  0.041300  0.844800  0.623900  1.0
  O  O3893  1  0.458700  0.344800  0.123900  1.0
  O  O3894  1  0.458700  0.655200  0.376100  1.0
  O  O3895  1  0.958700  0.844800  0.123900  1.0
  O  O3896  1  0.958700  0.155200  0.376100  1.0
  O  O3897  1  0.565500  0.607800  0.911700  1.0
  O  O3898  1  0.565500  0.392200  0.588300  1.0
  O  O3899  1  0.065500  0.107800  0.911700  1.0
  O  O3900  1  0.065500  0.892200  0.588300  1.0
  O  O3901  1  0.434500  0.392200  0.088300  1.0
  O  O3902  1  0.434500  0.607800  0.411700  1.0
  O  O3903  1  0.934500  0.892200  0.088300  1.0
  O  O3904  1  0.934500  0.107800  0.411700  1.0
  O  O3905  1  0.525300  0.547300  0.871600  1.0
  O  O3906  1  0.525300  0.452700  0.628400  1.0
  O  O3907  1  0.025300  0.047300  0.871600  1.0
  O  O3908  1  0.025300  0.952700  0.628400  1.0
  O  O3909  1  0.474700  0.452700  0.128400  1.0
  O  O3910  1  0.474700  0.547300  0.371600  1.0
  O  O3911  1  0.974700  0.952700  0.128400  1.0
  O  O3912  1  0.974700  0.047300  0.371600  1.0
  O  O3913  1  0.770200  0.330100  0.713800  1.0
  O  O3914  1  0.770200  0.669900  0.786200  1.0
  O  O3915  1  0.270200  0.830100  0.713800  1.0
  O  O3916  1  0.270200  0.169900  0.786200  1.0
  O  O3917  1  0.229800  0.669900  0.286200  1.0
  O  O3918  1  0.229800  0.330100  0.213800  1.0
  O  O3919  1  0.729800  0.169900  0.286200  1.0
  O  O3920  1  0.729800  0.830100  0.213800  1.0
  O  O3921  1  0.767900  0.293400  0.655550  1.0
  O  O3922  1  0.767900  0.706600  0.844450  1.0
  O  O3923  1  0.267900  0.793400  0.655550  1.0
  O  O3924  1  0.267900  0.206600  0.844450  1.0
  O  O3925  1  0.232100  0.706600  0.344450  1.0
  O  O3926  1  0.232100  0.293400  0.155550  1.0
  O  O3927  1  0.732100  0.206600  0.344450  1.0
  O  O3928  1  0.732100  0.793400  0.155550  1.0
  O  O3929  1  0.652400  0.288000  0.659700  1.0
  O  O3930  1  0.652400  0.712000  0.840300  1.0
  O  O3931  1  0.152400  0.788000  0.659700  1.0
  O  O3932  1  0.152400  0.212000  0.840300  1.0
  O  O3933  1  0.347600  0.712000  0.340300  1.0
  O  O3934  1  0.347600  0.288000  0.159700  1.0
  O  O3935  1  0.847600  0.212000  0.340300  1.0
  O  O3936  1  0.847600  0.788000  0.159700  1.0
  O  O3937  1  0.655200  0.325000  0.717100  1.0
  O  O3938  1  0.655200  0.675000  0.782900  1.0
  O  O3939  1  0.155200  0.825000  0.717100  1.0
  O  O3940  1  0.155200  0.175000  0.782900  1.0
  O  O3941  1  0.344800  0.675000  0.282900  1.0
  O  O3942  1  0.344800  0.325000  0.217100  1.0
  O  O3943  1  0.844800  0.175000  0.282900  1.0
  O  O3944  1  0.844800  0.825000  0.217100  1.0
  O  O3945  1  0.793400  0.526200  0.887700  1.0
  O  O3946  1  0.793400  0.473800  0.612300  1.0
  O  O3947  1  0.293400  0.026200  0.887700  1.0
  O  O3948  1  0.293400  0.973800  0.612300  1.0
  O  O3949  1  0.206600  0.473800  0.112300  1.0
  O  O3950  1  0.206600  0.526200  0.387700  1.0
  O  O3951  1  0.706600  0.973800  0.112300  1.0
  O  O3952  1  0.706600  0.026200  0.387700  1.0
  O  O3953  1  0.758000  0.590100  0.926100  1.0
  O  O3954  1  0.758000  0.409900  0.573900  1.0
  O  O3955  1  0.258000  0.090100  0.926100  1.0
  O  O3956  1  0.258000  0.909900  0.573900  1.0
  O  O3957  1  0.242000  0.409900  0.073900  1.0
  O  O3958  1  0.242000  0.590100  0.426100  1.0
  O  O3959  1  0.742000  0.909900  0.073900  1.0
  O  O3960  1  0.742000  0.090100  0.426100  1.0
  O  O3961  1  0.834500  0.631400  0.899900  1.0
  O  O3962  1  0.834500  0.368600  0.600100  1.0
  O  O3963  1  0.334500  0.131400  0.899900  1.0
  O  O3964  1  0.334500  0.868600  0.600100  1.0
  O  O3965  1  0.165500  0.368600  0.100100  1.0
  O  O3966  1  0.165500  0.631400  0.399900  1.0
  O  O3967  1  0.665500  0.868600  0.100100  1.0
  O  O3968  1  0.665500  0.131400  0.399900  1.0
  O  O3969  1  0.869300  0.567800  0.863300  1.0
  O  O3970  1  0.869300  0.432200  0.636700  1.0
  O  O3971  1  0.369300  0.067800  0.863300  1.0
  O  O3972  1  0.369300  0.932200  0.636700  1.0
  O  O3973  1  0.130700  0.432200  0.136700  1.0
  O  O3974  1  0.130700  0.567800  0.363300  1.0
  O  O3975  1  0.630700  0.932200  0.136700  1.0
  O  O3976  1  0.630700  0.067800  0.363300  1.0
  O  O3977  1  0.619300  0.602000  0.863200  1.0
  O  O3978  1  0.619300  0.398000  0.636800  1.0
  O  O3979  1  0.119300  0.102000  0.863200  1.0
  O  O3980  1  0.119300  0.898000  0.636800  1.0
  O  O3981  1  0.380700  0.398000  0.136800  1.0
  O  O3982  1  0.380700  0.602000  0.363200  1.0
  O  O3983  1  0.880700  0.898000  0.136800  1.0
  O  O3984  1  0.880700  0.102000  0.363200  1.0
  O  O3985  1  0.705400  0.645600  0.833600  1.0
  O  O3986  1  0.705400  0.354400  0.666400  1.0
  O  O3987  1  0.205400  0.145600  0.833600  1.0
  O  O3988  1  0.205400  0.854400  0.666400  1.0
  O  O3989  1  0.294600  0.354400  0.166400  1.0
  O  O3990  1  0.294600  0.645600  0.333600  1.0
  O  O3991  1  0.794600  0.854400  0.166400  1.0
  O  O3992  1  0.794600  0.145600  0.333600  1.0
  O  O3993  1  0.746400  0.597600  0.872800  1.0
  O  O3994  1  0.746400  0.402400  0.627200  1.0
  O  O3995  1  0.246400  0.097600  0.872800  1.0
  O  O3996  1  0.246400  0.902400  0.627200  1.0
  O  O3997  1  0.253600  0.402400  0.127200  1.0
  O  O3998  1  0.253600  0.597600  0.372800  1.0
  O  O3999  1  0.753600  0.902400  0.127200  1.0
  O  O4000  1  0.753600  0.097600  0.372800  1.0
  O  O4001  1  0.685500  0.663400  0.894400  1.0
  O  O4002  1  0.685500  0.336600  0.605600  1.0
  O  O4003  1  0.185500  0.163400  0.894400  1.0
  O  O4004  1  0.185500  0.836600  0.605600  1.0
  O  O4005  1  0.314500  0.336600  0.105600  1.0
  O  O4006  1  0.314500  0.663400  0.394400  1.0
  O  O4007  1  0.814500  0.836600  0.105600  1.0
  O  O4008  1  0.814500  0.163400  0.394400  1.0
  O  O4009  1  0.586700  0.727700  0.891100  1.0
  O  O4010  1  0.586700  0.272300  0.608900  1.0
  O  O4011  1  0.086700  0.227700  0.891100  1.0
  O  O4012  1  0.086700  0.772300  0.608900  1.0
  O  O4013  1  0.413300  0.272300  0.108900  1.0
  O  O4014  1  0.413300  0.727700  0.391100  1.0
  O  O4015  1  0.913300  0.772300  0.108900  1.0
  O  O4016  1  0.913300  0.227700  0.391100  1.0
  O  O4017  1  0.779900  0.712400  0.912600  1.0
  O  O4018  1  0.779900  0.287600  0.587400  1.0
  O  O4019  1  0.279900  0.212400  0.912600  1.0
  O  O4020  1  0.279900  0.787600  0.587400  1.0
  O  O4021  1  0.220100  0.287600  0.087400  1.0
  O  O4022  1  0.220100  0.712400  0.412600  1.0
  O  O4023  1  0.720100  0.787600  0.087400  1.0
  O  O4024  1  0.720100  0.212400  0.412600  1.0
  O  O4025  1  0.865500  0.695800  0.878100  1.0
  O  O4026  1  0.865500  0.304200  0.621900  1.0
  O  O4027  1  0.365500  0.195800  0.878100  1.0
  O  O4028  1  0.365500  0.804200  0.621900  1.0
  O  O4029  1  0.134500  0.304200  0.121900  1.0
  O  O4030  1  0.134500  0.695800  0.378100  1.0
  O  O4031  1  0.634500  0.804200  0.121900  1.0
  O  O4032  1  0.634500  0.195800  0.378100  1.0
  O  O4033  1  0.831300  0.621900  0.834400  1.0
  O  O4034  1  0.831300  0.378100  0.665600  1.0
  O  O4035  1  0.331300  0.121900  0.834400  1.0
  O  O4036  1  0.331300  0.878100  0.665600  1.0
  O  O4037  1  0.168700  0.378100  0.165600  1.0
  O  O4038  1  0.168700  0.621900  0.334400  1.0
  O  O4039  1  0.668700  0.878100  0.165600  1.0
  O  O4040  1  0.668700  0.121900  0.334400  1.0
  O  O4041  1  0.665600  0.652800  0.950500  1.0
  O  O4042  1  0.665600  0.347200  0.549500  1.0
  O  O4043  1  0.165600  0.152800  0.950500  1.0
  O  O4044  1  0.165600  0.847200  0.549500  1.0
  O  O4045  1  0.334400  0.347200  0.049500  1.0
  O  O4046  1  0.334400  0.652800  0.450500  1.0
  O  O4047  1  0.834400  0.847200  0.049500  1.0
  O  O4048  1  0.834400  0.152800  0.450500  1.0
  O  O4049  1  0.648100  0.583600  0.950400  1.0
  O  O4050  1  0.648100  0.416400  0.549600  1.0
  O  O4051  1  0.148100  0.083600  0.950400  1.0
  O  O4052  1  0.148100  0.916400  0.549600  1.0
  O  O4053  1  0.351900  0.416400  0.049600  1.0
  O  O4054  1  0.351900  0.583600  0.450400  1.0
  O  O4055  1  0.851900  0.916400  0.049600  1.0
  O  O4056  1  0.851900  0.083600  0.450400  1.0
  O  O4057  1  0.667400  0.538500  0.888000  1.0
  O  O4058  1  0.667400  0.461500  0.612000  1.0
  O  O4059  1  0.167400  0.038500  0.888000  1.0
  O  O4060  1  0.167400  0.961500  0.612000  1.0
  O  O4061  1  0.332600  0.461500  0.112000  1.0
  O  O4062  1  0.332600  0.538500  0.388000  1.0
  O  O4063  1  0.832600  0.961500  0.112000  1.0
  O  O4064  1  0.832600  0.038500  0.388000  1.0
  O  O4065  1  0.726700  0.751600  0.802500  1.0
  O  O4066  1  0.726700  0.248400  0.697500  1.0
  O  O4067  1  0.226700  0.251600  0.802500  1.0
  O  O4068  1  0.226700  0.748400  0.697500  1.0
  O  O4069  1  0.273300  0.248400  0.197500  1.0
  O  O4070  1  0.273300  0.751600  0.302500  1.0
  O  O4071  1  0.773300  0.748400  0.197500  1.0
  O  O4072  1  0.773300  0.251600  0.302500  1.0
  O  O4073  1  0.581100  0.646000  0.814800  1.0
  O  O4074  1  0.581100  0.354000  0.685200  1.0
  O  O4075  1  0.081100  0.146000  0.814800  1.0
  O  O4076  1  0.081100  0.854000  0.685200  1.0
  O  O4077  1  0.418900  0.354000  0.185200  1.0
  O  O4078  1  0.418900  0.646000  0.314800  1.0
  O  O4079  1  0.918900  0.854000  0.185200  1.0
  O  O4080  1  0.918900  0.146000  0.314800  1.0
