
#######################################################################
#
#                 Cambridge Crystallographic Data Centre
#                                CCDC 
#
#######################################################################
#
# If this CIF has been generated from an entry in the Cambridge 
# Structural Database, then it will include bibliographic, chemical, 
# crystal, experimental, refinement or atomic coordinate data resulting 
# from the CCDC's data processing and validation procedures.
#
#######################################################################

data_UPALEE
_chemical_formula_moiety         
'H3 O1 1+,C320 H424 Dy5 Mn7 N12 O49 1-,16(C3 H7 N1 O1),1.5(H2 O1)'
_chemical_name_systematic        
'Oxonium octakis(\m-hydroxo)-tris(\m-1,4-bis((5,11,17,23-tetra-t-butyl-25,26,27,28-tetraoxidocalix(4)arene-2-yl)methyl)benzene)-tetrakis(acetonitrile)-nona-aqua-octakis(N,N-dimethylformamide)-penta-dysprosium-manganese(ii)-hexa-manganese(iii) N,N-dimethylformamide unknown solvate sesquihydrate'
_symmetry_cell_setting           monoclinic
_symmetry_space_group_name_H-M   'C 2/c'
_symmetry_Int_Tables_number      15
_space_group_name_Hall           '-C 2yn'
loop_
_symmetry_equiv_pos_site_id
_symmetry_equiv_pos_as_xyz
1 x,y,z
2 -x,y,1/2-z
3 1/2+x,1/2+y,z
4 1/2-x,1/2+y,1/2-z
5 -x,-y,-z
6 x,-y,1/2+z
7 1/2-x,1/2-y,-z
8 1/2+x,1/2-y,1/2+z
_cell_length_a                   36.4100(14)
_cell_length_b                   23.3869(9)
_cell_length_c                   47.4803(18)
_cell_angle_alpha                90
_cell_angle_beta                 103.040(3)
_cell_angle_gamma                90
_cell_volume                     39387.7
_exptl_crystal_colour            purple
_exptl_crystal_description       Block
_cell_formula_units_Z            4
loop_
_atom_site_label
_atom_site_type_symbol
_atom_site_fract_x
_atom_site_fract_y
_atom_site_fract_z
O26 O 0.4014(5) 0.2020(10) 0.2196(3)
O27 O 0.4409(3) 0.3093(5) 0.1892(2)
O28 O 0.4240(12) 0.4461(19) 0.2103(9)
O29 O 0.2689(8) 0.3070(11) 0.0457(5)
Dy1 Dy 0.39585(2) 0.33078(3) 0.092929(16)
Mn1 Mn 0.40023(7) 0.46654(11) 0.12637(5)
O1 O 0.4050(3) 0.5015(5) 0.1627(2)
C1 C 0.4365(5) 0.5935(8) 0.1698(4)
Dy2 Dy 0.32889(5) 0.38388(9) 0.13967(5)
Mn2 Mn 0.30845(7) 0.28828(9) 0.18730(5)
O2 O 0.3448(3) 0.4587(6) 0.1239(2)
C2 C 0.4337(5) 0.6517(8) 0.1743(4)
H1 H 0.4561 0.6739 0.1775
Dy3 Dy 0.34065(2) 0.22409(3) 0.129398(16)
Mn3 Mn 0.42189(7) 0.18582(10) 0.10603(5)
O3 O 0.3922(2) 0.4345(3) 0.08830(19)
C3 C 0.4013(5) 0.6783(7) 0.1746(4)
O4 O 0.4527(3) 0.4747(4) 0.1284(2)
C4 C 0.3689(5) 0.6453(8) 0.1714(3)
H2 H 0.3456 0.6632 0.1718
O5 O 0.6699(3) 0.2298(4) 0.2862(2)
C5 C 0.3702(5) 0.5848(8) 0.1675(4)
O6 O 0.7066(3) 0.2321(4) 0.34445(18)
C6 C 0.4045(5) 0.5619(8) 0.1669(4)
O7 O 0.7120(3) 0.3476(4) 0.3403(2)
C7 C 0.3330(6) 0.5485(10) 0.1627(5)
H3 H 0.3387 0.5089 0.1696
H4 H 0.3153 0.5656 0.1735
O8 O 0.6750(3) 0.3448(4) 0.2829(2)
C8 C 0.3149(6) 0.5485(12) 0.1298(6)
O9 O 0.4738(3) 0.2066(4) 0.1123(2)
C9 C 0.2950(6) 0.5944(13) 0.1195(5)
H5 H 0.2923 0.6245 0.1324
O10 O 0.4099(3) 0.2420(5) 0.0739(2)
C10 C 0.2773(6) 0.5997(10) 0.0895(7)
O11 O 0.3686(3) 0.1655(5) 0.1001(2)
C11 C 0.2866(6) 0.5516(12) 0.0715(5)
H6 H 0.2772 0.5536 0.0511
O12 O 0.4322(3) 0.1307(4) 0.1367(2)
C12 C 0.3068(6) 0.5076(9) 0.0818(5)
O13 O 0.3980(3) 0.3807(5) 0.1368(3)
C13 C 0.3228(5) 0.5048(10) 0.1113(6)
O14 O 0.3544(3) 0.2946(4) 0.1664(2)
C14 C 0.3160(4) 0.4595(7) 0.0624(4)
H7 H 0.3234 0.4245 0.0740
H8 H 0.2936 0.4507 0.0469
O15 O 0.4024(3) 0.2536(4) 0.1272(2)
C15 C 0.3478(5) 0.4790(7) 0.0494(4)
O16 O 0.3366(3) 0.3145(4) 0.1056(2)
C16 C 0.3416(6) 0.5088(7) 0.0229(4)
H9 H 0.3165 0.5167 0.0128
O17 O 0.2723(6) 0.4133(12) 0.1089(6)
C17 C 0.3713(6) 0.5267(8) 0.0114(4)
C18 C 0.4071(5) 0.5171(8) 0.0269(4)
H10 H 0.4274 0.5323 0.0198
C19 C 0.4158(5) 0.4860(6) 0.0528(3)
O18 O 0.2876(3) 0.2201(6) 0.0874(3)
C20 C 0.3851(4) 0.4637(6) 0.0640(3)
O19 O 0.3042(5) 0.1345(7) 0.1219(4)
C21 C 0.4544(5) 0.4820(6) 0.0691(3)
H11 H 0.4572 0.4457 0.0801
H12 H 0.4710 0.4796 0.0552
O20 O 0.3781(4) 0.1687(5) 0.1656(3)
C22 C 0.4680(4) 0.5272(6) 0.0889(4)
O21 O 0.3472(4) 0.3344(5) 0.0495(3)
C23 C 0.4824(5) 0.5757(9) 0.0807(4)
H13 H 0.4862 0.5772 0.0615
O22 O 0.4164(5) 0.3519(6) 0.0496(3)
C24 C 0.4926(4) 0.6257(6) 0.0986(4)
O23 O 0.4615(4) 0.3326(8) 0.1120(3)
C25 C 0.4912(4) 0.6193(7) 0.1265(4)
H14 H 0.5001 0.6498 0.1395
C26 C 0.4771(4) 0.5699(7) 0.1375(3)
C27 C 0.4651(4) 0.5213(6) 0.1187(3)
C28 C 0.4739(5) 0.5663(7) 0.1683(3)
H15 H 0.4724 0.5249 0.1732
N1 N 0.4265(14) 0.119(2) 0.0754(13)
C29 C 0.5074(5) 0.5918(8) 0.1898(3)
H16 H 0.5304 0.5703 0.1885
H17 H 0.5108 0.6318 0.1842
O24 O 0.2484(5) 0.2733(8) 0.1975(4)
C30 C 0.5039(5) 0.5911(8) 0.2211(4)
C31 C 0.5024(6) 0.6407(8) 0.2352(4)
H18 H 0.5046 0.6759 0.2258
C32 C 0.5013(6) 0.5373(9) 0.2361(4)
H19 H 0.5016 0.5021 0.2262
C33 C 0.3970(7) 0.7427(7) 0.1810(6)
C34 C 0.3551(8) 0.7624(18) 0.1731(11)
H20 H 0.3413 0.7438 0.1861
H21 H 0.3437 0.7518 0.1531
H22 H 0.3539 0.8040 0.1753
C35 C 0.4192(13) 0.7724(18) 0.1612(10)
H23 H 0.4073 0.7642 0.1410
H24 H 0.4452 0.7581 0.1656
H25 H 0.4194 0.8137 0.1645
C36 C 0.4139(13) 0.7560(18) 0.2132(6)
H26 H 0.3993 0.7363 0.2252
H27 H 0.4131 0.7974 0.2164
H28 H 0.4401 0.7429 0.2183
C37 C 0.2509(6) 0.6500(8) 0.0765(5)
C38 C 0.2525(13) 0.660(2) 0.0442(6)
H29 H 0.2368 0.6925 0.0364
H30 H 0.2431 0.6254 0.0329
H31 H 0.2786 0.6668 0.0430
C39 C 0.3618(9) 0.5598(13) -0.0167(5)
C40 C 0.3395(10) 0.5225(14) -0.0411(6)
H32 H 0.3347 0.5440 -0.0593
H33 H 0.3155 0.5114 -0.0366
H34 H 0.3542 0.4881 -0.0430
C41 C 0.3934(9) 0.5972(15) -0.0218(7)
H35 H 0.3857 0.6158 -0.0407
H36 H 0.4158 0.5737 -0.0213
H37 H 0.3992 0.6264 -0.0066
C42 C 0.5049(7) 0.6797(9) 0.0858(5)
C43 C 0.4731(8) 0.7072(12) 0.0646(7)
H38 H 0.4823 0.7415 0.0565
H39 H 0.4532 0.7179 0.0745
H40 H 0.4629 0.6803 0.0490
C44 C 0.5330(6) 0.6673(9) 0.0676(5)
H41 H 0.5404 0.7032 0.0597
H42 H 0.5216 0.6417 0.0517
H43 H 0.5554 0.6490 0.0796
C45 C 0.5226(7) 0.7219(9) 0.1086(5)
H44 H 0.5306 0.7558 0.0995
H45 H 0.5446 0.7044 0.1215
H46 H 0.5043 0.7331 0.1199
C46 C 0.6926(4) 0.2272(6) 0.2432(3)
C47 C 0.7164(4) 0.1983(7) 0.2275(3)
H47 H 0.7170 0.2121 0.2088
C48 C 0.7383(4) 0.1522(6) 0.2379(3)
C49 C 0.7357(4) 0.1299(6) 0.2641(3)
H48 H 0.7492 0.0960 0.2708
C50 C 0.7144(4) 0.1546(6) 0.2810(3)
C51 C 0.6931(4) 0.2040(6) 0.2706(3)
C52 C 0.7137(5) 0.1313(6) 0.3102(3)
H49 H 0.7160 0.0892 0.3097
H50 H 0.6891 0.1405 0.3146
C53 C 0.7448(5) 0.1546(6) 0.3341(3)
C54 C 0.7788(4) 0.1235(7) 0.3418(4)
H51 H 0.7808 0.0878 0.3328
C55 C 0.8101(5) 0.1442(10) 0.3627(4)
C56 C 0.8047(6) 0.1974(9) 0.3751(4)
H52 H 0.8253 0.2138 0.3886
C57 C 0.7708(5) 0.2271(7) 0.3686(3)
C58 C 0.7394(4) 0.2043(7) 0.3484(3)
C59 C 0.7692(5) 0.2878(6) 0.3810(3)
H53 H 0.7435 0.2944 0.3842
H54 H 0.7871 0.2901 0.4000
C60 C 0.7779(7) 0.3336(9) 0.3625(4)
C61 C 0.8135(6) 0.3492(9) 0.3623(4)
H55 H 0.8329 0.3304 0.3759
C62 C 0.8253(5) 0.3892(9) 0.3448(4)
C63 C 0.7959(6) 0.4198(9) 0.3261(4)
H56 H 0.8023 0.4494 0.3144
C64 C 0.7572(7) 0.4074(9) 0.3246(4)
C65 C 0.7514(7) 0.3636(9) 0.3425(4)
C66 C 0.7274(5) 0.4366(6) 0.3029(3)
H57 H 0.7345 0.4771 0.3012
H58 H 0.7034 0.4358 0.3094
C67 C 0.7217(5) 0.4067(7) 0.2726(4)
C68 C 0.7456(5) 0.4220(7) 0.2548(4)
H59 H 0.7632 0.4521 0.2609
C69 C 0.7450(5) 0.3960(7) 0.2295(4)
C70 C 0.7193(5) 0.3504(7) 0.2215(4)
H60 H 0.7183 0.3320 0.2035
C71 C 0.6956(5) 0.3311(7) 0.2385(4)
C72 C 0.6980(5) 0.3630(7) 0.2655(4)
C73 C 0.6704(5) 0.2824(6) 0.2317(3)
H61 H 0.6500 0.2872 0.2426
C74 C 0.6517(5) 0.2784(8) 0.2002(4)
H62 H 0.6717 0.2768 0.1892
H63 H 0.6374 0.3142 0.1946
C75 C 0.8676(7) 0.3988(17) 0.3446(8)
C76 C 0.8959(14) 0.3605(19) 0.3664(9)
H64 H 0.8926 0.3674 0.3861
H65 H 0.9218 0.3702 0.3654
H66 H 0.8910 0.3202 0.3614
C77 C 0.7964(12) 0.4633(17) 0.2226(10)
H67 H 0.8083 0.4812 0.2082
H68 H 0.8153 0.4409 0.2361
H69 H 0.7862 0.4930 0.2332
C78 C 0.7355(11) 0.4578(17) 0.1844(10)
H70 H 0.7483 0.4740 0.1701
H71 H 0.7249 0.4888 0.1940
H72 H 0.7152 0.4325 0.1746
C79 C 0.5189(4) 0.1295(6) 0.1131(4)
C80 C 0.5425(4) 0.1030(7) 0.0991(4)
H73 H 0.5556 0.0702 0.1080
C81 C 0.5489(5) 0.1193(8) 0.0738(4)
C82 C 0.5274(5) 0.1646(8) 0.0597(4)
H74 H 0.5304 0.1756 0.0411
C83 C 0.5024(4) 0.1936(6) 0.0719(3)
C84 C 0.4984(4) 0.1788(7) 0.0999(4)
C85 C 0.4806(4) 0.2405(7) 0.0559(4)
H75 H 0.4760 0.2693 0.0700
H76 H 0.4962 0.2591 0.0439
C86 C 0.4445(5) 0.2250(8) 0.0372(4)
C87 C 0.4411(5) 0.2061(7) 0.0081(4)
H77 H 0.4634 0.2065 0.0008
C88 C 0.4083(7) 0.1873(8) -0.0104(4)
C89 C 0.3756(6) 0.1890(8) 0.0003(4)
H78 H 0.3521 0.1798 -0.0122
C90 C 0.3764(6) 0.2040(8) 0.0289(4)
C91 C 0.4093(4) 0.2257(7) 0.0470(3)
C92 C 0.3403(5) 0.1935(7) 0.0404(4)
H79 H 0.3396 0.2212 0.0560
H80 H 0.3179 0.2005 0.0245
C93 C 0.3383(4) 0.1353(7) 0.0514(4)
C94 C 0.3250(5) 0.0913(8) 0.0323(4)
H81 H 0.3145 0.1005 0.0127
C95 C 0.3261(5) 0.0353(7) 0.0405(4)
C96 C 0.3407(5) 0.0243(9) 0.0693(4)
H82 H 0.3398 -0.0140 0.0759
C97 C 0.3566(4) 0.0652(8) 0.0893(4)
C98 C 0.3545(4) 0.1242(6) 0.0800(3)
C99 C 0.3743(4) 0.0492(7) 0.1201(3)
H83 H 0.3703 0.0808 0.1330
H84 H 0.3615 0.0148 0.1254
C100 C 0.4144(5) 0.0378(7) 0.1248(4)
C101 C 0.4246(5) -0.0219(6) 0.1196(4)
H85 H 0.4057 -0.0504 0.1144
C102 C 0.4639(5) -0.0358(7) 0.1226(5)
C103 C 0.4900(4) 0.0063(6) 0.1301(4)
H86 H 0.5158 -0.0031 0.1321
C104 C 0.4805(4) 0.0624(7) 0.1349(3)
C105 C 0.4416(4) 0.0797(9) 0.1327(3)
C106 C 0.5105(5) 0.1104(7) 0.1425(3)
H87 H 0.4995 0.1433 0.1512
C107 C 0.5466(5) 0.0898(7) 0.1642(4)
H88 H 0.5394 0.0738 0.1815
H89 H 0.5584 0.0588 0.1551
C108 C 0.5744(5) 0.1358(8) 0.1733(4)
C109 C 0.6083(5) 0.1389(8) 0.1660(4)
H90 H 0.6153 0.1084 0.1551
C110 C 0.6330(5) 0.1835(10) 0.1735(4)
H91 H 0.6558 0.1838 0.1670
C111 C 0.6252(5) 0.2286(8) 0.1906(3)
C112 C 0.5928(6) 0.2259(10) 0.1998(4)
H92 H 0.5872 0.2548 0.2123
C113 C 0.5667(6) 0.1799(9) 0.1911(4)
H93 H 0.5438 0.1793 0.1975
C114 C 0.5776(6) 0.0885(10) 0.0592(5)
C115 C 0.5661(12) 0.0241(12) 0.0572(10)
H94 H 0.5626 0.0111 0.0760
H95 H 0.5861 0.0014 0.0517
H96 H 0.5426 0.0192 0.0426
C116 C 0.6160(9) 0.095(2) 0.0811(8)
H97 H 0.6139 0.0798 0.0999
H98 H 0.6231 0.1354 0.0830
H99 H 0.6354 0.0735 0.0741
C117 C 0.5806(13) 0.1103(19) 0.0293(7)
H100 H 0.5977 0.0855 0.0215
H101 H 0.5905 0.1495 0.0310
H102 H 0.5556 0.1099 0.0162
C118 C 0.4068(8) 0.1727(11) -0.0418(5)
C119 C 0.4448(7) 0.1618(10) -0.0470(5)
H103 H 0.4426 0.1529 -0.0675
H104 H 0.4563 0.1295 -0.0351
H105 H 0.4605 0.1959 -0.0418
C120 C 0.3877(8) 0.2245(11) -0.0613(5)
H106 H 0.3875 0.2164 -0.0816
H107 H 0.4020 0.2596 -0.0552
H108 H 0.3617 0.2293 -0.0591
C121 C 0.3789(8) 0.1181(11) -0.0512(5)
H109 H 0.3785 0.1077 -0.0713
H110 H 0.3534 0.1281 -0.0495
H111 H 0.3881 0.0856 -0.0385
C122 C 0.3102(5) -0.0124(8) 0.0186(4)
C123 C 0.3012(12) 0.0118(16) -0.0130(6)
H112 H 0.2823 0.0422 -0.0147
H113 H 0.2915 -0.0189 -0.0266
H114 H 0.3243 0.0273 -0.0173
C124 C 0.2729(8) -0.0361(17) 0.0247(9)
H115 H 0.2547 -0.0048 0.0236
H116 H 0.2780 -0.0530 0.0441
H117 H 0.2626 -0.0653 0.0103
C125 C 0.4765(7) -0.0989(8) 0.1177(6)
C126 C 0.4408(7) -0.1362(9) 0.1078(6)
H118 H 0.4252 -0.1337 0.1221
H119 H 0.4482 -0.1761 0.1060
H120 H 0.4263 -0.1225 0.0890
C127 C 0.4966(7) -0.1221(9) 0.1461(6)
H121 H 0.4797 -0.1218 0.1595
H122 H 0.5187 -0.0985 0.1539
H123 H 0.5046 -0.1614 0.1436
C128 C 0.5001(8) -0.0996(10) 0.0974(6)
H124 H 0.4859 -0.0850 0.0787
H125 H 0.5082 -0.1389 0.0950
H126 H 0.5222 -0.0755 0.1045
N2 N 0.2724(6) 0.0458(8) 0.1133(5)
C129 C 0.2528(7) 0.0697(12) 0.0855(5)
H127 H 0.2255 0.0642 0.0831
H128 H 0.2613 0.0502 0.0699
H129 H 0.2583 0.1106 0.0851
C130 C 0.4496(7) 0.3642(10) 0.0454(4)
H130 H 0.4699 0.3676 0.0618
N3 N 0.4568(6) 0.3727(8) 0.0183(4)
C131 C 0.4235(6) 0.3807(10) -0.0065(4)
H131 H 0.4033 0.3545 -0.0044
H132 H 0.4309 0.3726 -0.0247
H133 H 0.4145 0.4202 -0.0067
C132 C 0.4924(6) 0.3833(10) 0.0131(4)
H134 H 0.5116 0.3790 0.0311
H135 H 0.4932 0.4223 0.0057
H136 H 0.4973 0.3560 -0.0013
C133 C 0.3474(10) 0.3348(16) 0.0247(5)
H137 H 0.3713 0.3344 0.0198
N4 N 0.3148(8) 0.3358(13) 0.0011(5)
N5 N 0.2159(6) 0.4663(12) 0.0970(6)
C134 C 0.1785(6) 0.4707(16) 0.0797(7)
H138 H 0.1789 0.4909 0.0617
H139 H 0.1627 0.4918 0.0904
H140 H 0.1680 0.4323 0.0752
C135 C 0.2264(9) 0.5004(14) 0.1225(7)
H141 H 0.2450 0.4797 0.1371
H142 H 0.2041 0.5086 0.1301
H143 H 0.2375 0.5364 0.1178
C136 C 0.2289(6) 0.2796(11) 0.2137(5)
H144 H 0.2396 0.3031 0.2298
N6 N 0.1923(6) 0.2591(9) 0.2140(4)
C137 C 0.1755(7) 0.2157(10) 0.1942(5)
H145 H 0.1506 0.2061 0.1974
H146 H 0.1915 0.1816 0.1971
H147 H 0.1728 0.2295 0.1743
C138 C 0.4361(8) 0.0871(16) 0.0604(9)
C139 C 0.4444(9) 0.0437(15) 0.0385(9)
O25 O 0.3540(7) 0.4189(12) 0.1852(6)
C140 C 0.2980(8) 0.0874(8) 0.1306(5)
H148 H 0.3105 0.0770 0.1497
C141 C 0.2404(7) 0.4226(13) 0.0912(7)
H149 H 0.2332 0.4002 0.0742
C142 C 0.2748(8) -0.0112(8) 0.1260(6)
H150 H 0.2691 -0.0091 0.1452
H151 H 0.3003 -0.0263 0.1277
H152 H 0.2566 -0.0364 0.1135
C143 C 0.1766(7) 0.2699(11) 0.2386(5)
H153 H 0.1518 0.2517 0.2358
H154 H 0.1740 0.3113 0.2410
H155 H 0.1934 0.2543 0.2560
C144 C 0.8724(15) 0.387(2) 0.3136(7)
H156 H 0.8989 0.3922 0.3130
H157 H 0.8569 0.4144 0.3003
H158 H 0.8644 0.3482 0.3080
C145 C 0.8767(16) 0.4623(15) 0.3527(10)
H159 H 0.8742 0.4691 0.3726
H160 H 0.8591 0.4870 0.3395
H161 H 0.9026 0.4708 0.3513
C146 C 0.7806(14) 0.3730(17) 0.1927(13)
H162 H 0.7923 0.3878 0.1775
H163 H 0.7604 0.3464 0.1842
H164 H 0.7996 0.3530 0.2073
C147 C 0.7641(10) 0.4234(13) 0.2071(7)
C148 C 0.3393(9) -0.0609(15) 0.0208(9)
H165 H 0.3627 -0.0456 0.0169
H166 H 0.3293 -0.0907 0.0066
H167 H 0.3444 -0.0773 0.0403
C149 C 0.7694(8) 0.1730(10) 0.1967(6)
H168 H 0.7814 0.1556 0.1823
H169 H 0.7873 0.1986 0.2092
H170 H 0.7473 0.1950 0.1868
C150 C 0.7282(8) 0.0859(13) 0.1961(6)
H171 H 0.7398 0.0676 0.1817
H172 H 0.7062 0.1081 0.1863
H173 H 0.7202 0.0565 0.2082
C151 C 0.7905(8) 0.0929(13) 0.2331(7)
H174 H 0.8039 0.0736 0.2201
H175 H 0.7815 0.0645 0.2451
H176 H 0.8076 0.1197 0.2455
C152 C 0.7569(7) 0.1258(10) 0.2152(5)
C153 C 0.8702(13) 0.125(2) 0.3544(9)
H177 H 0.8942 0.1043 0.3597
H178 H 0.8748 0.1660 0.3569
H179 H 0.8581 0.1167 0.3342
C154 C 0.8368(12) 0.0404(16) 0.3711(10)
H180 H 0.8602 0.0195 0.3789
H181 H 0.8276 0.0306 0.3506
H182 H 0.8178 0.0298 0.3818
C155 C 0.8443(8) 0.1051(14) 0.3740(7)
C156 C 0.8609(16) 0.121(2) 0.4058(7)
H183 H 0.8831 0.0977 0.4135
H184 H 0.8419 0.1149 0.4172
H185 H 0.8682 0.1618 0.4070
C157 C 0.2782(10) 0.3411(17) 0.0078(8)
C158 C 0.3165(13) 0.3217(17) -0.0282(6)
H186 H 0.3028 0.3507 -0.0414
H187 H 0.3050 0.2842 -0.0333
H188 H 0.3429 0.3209 -0.0297
C159 C 0.3308(10) 0.6052(14) -0.0183(7)
H189 H 0.3263 0.6244 -0.0371
H190 H 0.3389 0.6333 -0.0029
H191 H 0.3076 0.5867 -0.0160
C160 C 0.2666(13) 0.7041(19) 0.0940(11)
H192 H 0.2509 0.7371 0.0865
H193 H 0.2925 0.7109 0.0922
H194 H 0.2663 0.6983 0.1144
C161 C 0.2096(8) 0.639(2) 0.0780(11)
H195 H 0.1942 0.6725 0.0705
H196 H 0.2083 0.6324 0.0981
H197 H 0.2000 0.6054 0.0663
N7 N 0.3879(11) 0.5644(14) 0.1021(9)
C162 C 0.3823(7) 0.6100(10) 0.0923(6)
C163 C 0.3756(7) 0.6692(10) 0.0788(6)
O1A O 0.5950(3) 0.5015(5) 0.3373(2)
C1A C 0.5635(5) 0.5935(8) 0.3302(4)
O2A O 0.6552(3) 0.4587(6) 0.3761(2)
C2A C 0.5663(5) 0.6517(8) 0.3257(4)
H1A H 0.5439 0.6739 0.3225
O3A O 0.6078(2) 0.4345(3) 0.41170(19)
C3A C 0.5987(5) 0.6783(7) 0.3254(4)
O4A O 0.5473(3) 0.4747(4) 0.3716(2)
C4A C 0.6311(5) 0.6453(8) 0.3286(3)
H2A H 0.6544 0.6632 0.3282
C5A C 0.6298(5) 0.5848(8) 0.3325(4)
C6A C 0.5955(5) 0.5619(8) 0.3331(4)
C7A C 0.6670(6) 0.5485(10) 0.3373(5)
H3A H 0.6613 0.5089 0.3304
H4A H 0.6847 0.5656 0.3265
C8A C 0.6851(6) 0.5485(12) 0.3702(6)
C9A C 0.7050(6) 0.5944(13) 0.3805(5)
H5A H 0.7077 0.6245 0.3676
C10A C 0.7227(6) 0.5997(10) 0.4105(7)
C11A C 0.7134(6) 0.5516(12) 0.4285(5)
H6A H 0.7228 0.5536 0.4489
C12A C 0.6932(6) 0.5076(9) 0.4182(5)
C13A C 0.6772(5) 0.5048(10) 0.3887(6)
C14A C 0.6840(4) 0.4595(7) 0.4376(4)
H7A H 0.6766 0.4245 0.4260
H8A H 0.7064 0.4507 0.4531
C15A C 0.6522(5) 0.4790(7) 0.4506(4)
C16A C 0.6584(6) 0.5088(7) 0.4771(4)
H9A H 0.6835 0.5167 0.4872
C17A C 0.6287(6) 0.5267(8) 0.4886(4)
C18A C 0.5929(5) 0.5171(8) 0.4731(4)
H10A H 0.5726 0.5323 0.4802
C19A C 0.5842(5) 0.4860(6) 0.4472(3)
C20A C 0.6149(4) 0.4637(6) 0.4360(3)
C21A C 0.5456(5) 0.4820(6) 0.4309(3)
H11A H 0.5428 0.4457 0.4199
H12A H 0.5290 0.4796 0.4448
C22A C 0.5320(4) 0.5272(6) 0.4111(4)
C23A C 0.5176(5) 0.5757(9) 0.4193(4)
H13A H 0.5138 0.5772 0.4385
C24A C 0.5074(4) 0.6257(6) 0.4014(4)
C25A C 0.5088(4) 0.6193(7) 0.3735(4)
H14A H 0.4999 0.6498 0.3605
C26A C 0.5229(4) 0.5699(7) 0.3625(3)
C27A C 0.5349(4) 0.5213(6) 0.3813(3)
C28A C 0.5261(5) 0.5663(7) 0.3317(3)
H15A H 0.5276 0.5249 0.3268
C29A C 0.4926(5) 0.5918(8) 0.3102(3)
H16A H 0.4696 0.5703 0.3115
H17A H 0.4892 0.6318 0.3158
C30A C 0.4961(5) 0.5911(8) 0.2789(4)
C31A C 0.4976(6) 0.6407(8) 0.2648(4)
H18A H 0.4954 0.6759 0.2742
C32A C 0.4987(6) 0.5373(9) 0.2639(4)
H19A H 0.4984 0.5021 0.2738
C33A C 0.6030(7) 0.7427(7) 0.3190(6)
C34A C 0.6449(8) 0.7624(18) 0.3269(11)
H20A H 0.6587 0.7438 0.3139
H21A H 0.6563 0.7518 0.3469
H22A H 0.6461 0.8040 0.3247
C35A C 0.5808(13) 0.7724(18) 0.3388(10)
H23A H 0.5927 0.7642 0.3590
H24A H 0.5548 0.7581 0.3344
H25A H 0.5806 0.8137 0.3355
C36A C 0.5861(13) 0.7560(18) 0.2868(6)
H26A H 0.6007 0.7363 0.2748
H27A H 0.5869 0.7974 0.2836
H28A H 0.5599 0.7429 0.2817
C37A C 0.7491(6) 0.6500(8) 0.4235(5)
C38A C 0.7475(13) 0.660(2) 0.4558(6)
H29A H 0.7632 0.6925 0.4636
H30A H 0.7569 0.6254 0.4671
H31A H 0.7214 0.6668 0.4570
C39A C 0.6382(9) 0.5598(13) 0.5167(5)
C40A C 0.6605(10) 0.5225(14) 0.5411(6)
H32A H 0.6653 0.5440 0.5593
H33A H 0.6845 0.5114 0.5366
H34A H 0.6458 0.4881 0.5430
C41A C 0.6066(9) 0.5972(15) 0.5218(7)
H35A H 0.6143 0.6158 0.5407
H36A H 0.5842 0.5737 0.5213
H37A H 0.6008 0.6264 0.5066
C42A C 0.4951(7) 0.6797(9) 0.4142(5)
C43A C 0.5269(8) 0.7072(12) 0.4354(7)
H38A H 0.5177 0.7415 0.4435
H39A H 0.5468 0.7179 0.4255
H40A H 0.5371 0.6803 0.4510
C44A C 0.4670(6) 0.6673(9) 0.4324(5)
H41A H 0.4596 0.7032 0.4403
H42A H 0.4784 0.6417 0.4483
H43A H 0.4446 0.6490 0.4204
C45A C 0.4774(7) 0.7219(9) 0.3914(5)
H44A H 0.4694 0.7558 0.4005
H45A H 0.4554 0.7044 0.3785
H46A H 0.4957 0.7331 0.3801
C159A C 0.6692(10) 0.6052(14) 0.5183(7)
H189A H 0.6737 0.6244 0.5371
H190A H 0.6611 0.6333 0.5029
H191A H 0.6924 0.5867 0.5160
C160A C 0.7334(13) 0.7041(19) 0.4060(11)
H192A H 0.7491 0.7371 0.4135
H193A H 0.7075 0.7109 0.4078
H194A H 0.7337 0.6983 0.3856
C161A C 0.7904(8) 0.639(2) 0.4220(11)
H195A H 0.8058 0.6725 0.4295
H196A H 0.7917 0.6324 0.4019
H197A H 0.8000 0.6054 0.4337
Dy1A Dy 0.60415(2) 0.33078(3) 0.407071(16)
Mn1A Mn 0.59977(7) 0.46654(11) 0.37363(5)
Dy2A Dy 0.67111(5) 0.38388(9) 0.36033(5)
Mn2A Mn 0.69155(7) 0.28828(9) 0.31270(5)
Dy3A Dy 0.65935(2) 0.22409(3) 0.370602(16)
Mn3A Mn 0.57811(7) 0.18582(10) 0.39397(5)
O5A O 0.3301(3) 0.2298(4) 0.2138(2)
O6A O 0.2934(3) 0.2321(4) 0.15555(18)
O7A O 0.2880(3) 0.3476(4) 0.1597(2)
O8A O 0.3250(3) 0.3448(4) 0.2171(2)
O9A O 0.5262(3) 0.2066(4) 0.3877(2)
O10A O 0.5901(3) 0.2420(5) 0.4261(2)
O11A O 0.6314(3) 0.1655(5) 0.3999(2)
O12A O 0.5678(3) 0.1307(4) 0.3633(2)
O13A O 0.6020(3) 0.3807(5) 0.3632(3)
O14A O 0.6456(3) 0.2946(4) 0.3336(2)
O15A O 0.5976(3) 0.2536(4) 0.3728(2)
O16A O 0.6634(3) 0.3145(4) 0.3944(2)
O17A O 0.7277(6) 0.4133(12) 0.3911(6)
O18A O 0.7124(3) 0.2201(6) 0.4126(3)
O19A O 0.6958(5) 0.1345(7) 0.3781(4)
O20A O 0.6219(4) 0.1687(5) 0.3344(3)
O21A O 0.6528(4) 0.3344(5) 0.4505(3)
O22A O 0.5836(5) 0.3519(6) 0.4504(3)
O23A O 0.5385(4) 0.3326(8) 0.3880(3)
N1A N 0.5735(14) 0.119(2) 0.4246(13)
O24A O 0.7516(5) 0.2733(8) 0.3025(4)
C46A C 0.3074(4) 0.2272(6) 0.2568(3)
C47A C 0.2836(4) 0.1983(7) 0.2725(3)
H47A H 0.2830 0.2121 0.2912
C48A C 0.2617(4) 0.1522(6) 0.2621(3)
C49A C 0.2643(4) 0.1299(6) 0.2359(3)
H48A H 0.2508 0.0960 0.2292
C50A C 0.2856(4) 0.1546(6) 0.2190(3)
C51A C 0.3069(4) 0.2040(6) 0.2294(3)
C52A C 0.2863(5) 0.1313(6) 0.1898(3)
H49A H 0.2840 0.0892 0.1903
H50A H 0.3109 0.1405 0.1854
C53A C 0.2552(5) 0.1546(6) 0.1659(3)
C54A C 0.2212(4) 0.1235(7) 0.1582(4)
H51A H 0.2192 0.0878 0.1672
C55A C 0.1899(5) 0.1442(10) 0.1373(4)
C56A C 0.1953(6) 0.1974(9) 0.1249(4)
H52A H 0.1747 0.2138 0.1114
C57A C 0.2292(5) 0.2271(7) 0.1314(3)
C58A C 0.2606(4) 0.2043(7) 0.1516(3)
C59A C 0.2308(5) 0.2878(6) 0.1190(3)
H53A H 0.2565 0.2944 0.1158
H54A H 0.2129 0.2901 0.1000
C60A C 0.2221(7) 0.3336(9) 0.1375(4)
C61A C 0.1865(6) 0.3492(9) 0.1377(4)
H55A H 0.1671 0.3304 0.1241
C62A C 0.1747(5) 0.3892(9) 0.1552(4)
C63A C 0.2041(6) 0.4198(9) 0.1739(4)
H56A H 0.1977 0.4494 0.1856
C64A C 0.2428(7) 0.4074(9) 0.1754(4)
C65A C 0.2486(7) 0.3636(9) 0.1575(4)
C66A C 0.2726(5) 0.4366(6) 0.1971(3)
H57A H 0.2655 0.4771 0.1988
H58A H 0.2966 0.4358 0.1906
C67A C 0.2783(5) 0.4067(7) 0.2274(4)
C68A C 0.2544(5) 0.4220(7) 0.2452(4)
H59A H 0.2368 0.4521 0.2391
C69A C 0.2550(5) 0.3960(7) 0.2705(4)
C70A C 0.2807(5) 0.3504(7) 0.2785(4)
H60A H 0.2817 0.3320 0.2965
C71A C 0.3044(5) 0.3311(7) 0.2615(4)
C72A C 0.3020(5) 0.3630(7) 0.2345(4)
C73A C 0.3296(5) 0.2824(6) 0.2683(3)
H61A H 0.3500 0.2872 0.2574
C74A C 0.3483(5) 0.2784(8) 0.2998(4)
H62A H 0.3283 0.2768 0.3108
H63A H 0.3626 0.3142 0.3054
C75A C 0.1324(7) 0.3988(17) 0.1554(8)
C76A C 0.1041(14) 0.3605(19) 0.1336(9)
H64A H 0.1074 0.3674 0.1139
H65A H 0.0782 0.3702 0.1346
H66A H 0.1090 0.3202 0.1386
C77A C 0.2036(12) 0.4633(17) 0.2774(10)
H67A H 0.1917 0.4812 0.2918
H68A H 0.1847 0.4409 0.2639
H69A H 0.2138 0.4930 0.2668
C78A C 0.2645(11) 0.4578(17) 0.3156(10)
H70A H 0.2517 0.4740 0.3299
H71A H 0.2751 0.4888 0.3060
H72A H 0.2848 0.4325 0.3254
C79A C 0.4811(4) 0.1295(6) 0.3869(4)
C80A C 0.4575(4) 0.1030(7) 0.4009(4)
H73A H 0.4444 0.0702 0.3920
C81A C 0.4511(5) 0.1193(8) 0.4262(4)
C82A C 0.4726(5) 0.1646(8) 0.4403(4)
H74A H 0.4696 0.1756 0.4589
C83A C 0.4976(4) 0.1936(6) 0.4281(3)
C84A C 0.5016(4) 0.1788(7) 0.4001(4)
C85A C 0.5194(4) 0.2405(7) 0.4441(4)
H75A H 0.5240 0.2693 0.4300
H76A H 0.5038 0.2591 0.4561
C86A C 0.5555(5) 0.2250(8) 0.4628(4)
C87A C 0.5589(5) 0.2061(7) 0.4919(4)
H77A H 0.5366 0.2065 0.4992
C88A C 0.5917(7) 0.1873(8) 0.5104(4)
C89A C 0.6244(6) 0.1890(8) 0.4997(4)
H78A H 0.6479 0.1798 0.5122
C90A C 0.6236(6) 0.2040(8) 0.4711(4)
C91A C 0.5907(4) 0.2257(7) 0.4530(3)
C92A C 0.6597(5) 0.1935(7) 0.4596(4)
H79A H 0.6604 0.2212 0.4440
H80A H 0.6821 0.2005 0.4755
C93A C 0.6617(4) 0.1353(7) 0.4486(4)
C94A C 0.6750(5) 0.0913(8) 0.4677(4)
H81A H 0.6855 0.1005 0.4873
C95A C 0.6739(5) 0.0353(7) 0.4595(4)
C96A C 0.6593(5) 0.0243(9) 0.4307(4)
H82A H 0.6602 -0.0140 0.4241
C97A C 0.6434(4) 0.0652(8) 0.4107(4)
C98A C 0.6455(4) 0.1242(6) 0.4200(3)
C99A C 0.6257(4) 0.0492(7) 0.3799(3)
H83A H 0.6297 0.0808 0.3670
H84A H 0.6385 0.0148 0.3746
C100A C 0.5856(5) 0.0378(7) 0.3752(4)
C101A C 0.5754(5) -0.0219(6) 0.3804(4)
H85A H 0.5943 -0.0504 0.3856
C102A C 0.5361(5) -0.0358(7) 0.3774(5)
C103A C 0.5100(4) 0.0063(6) 0.3699(4)
H86A H 0.4842 -0.0031 0.3679
C104A C 0.5195(4) 0.0624(7) 0.3651(3)
C105A C 0.5584(4) 0.0797(9) 0.3673(3)
C106A C 0.4895(5) 0.1104(7) 0.3575(3)
H87A H 0.5005 0.1433 0.3488
C107A C 0.4534(5) 0.0898(7) 0.3358(4)
H88A H 0.4606 0.0738 0.3185
H89A H 0.4416 0.0588 0.3449
C108A C 0.4256(5) 0.1358(8) 0.3267(4)
C109A C 0.3917(5) 0.1389(8) 0.3340(4)
H90A H 0.3847 0.1084 0.3449
C110A C 0.3670(5) 0.1835(10) 0.3265(4)
H91A H 0.3442 0.1838 0.3330
C111A C 0.3748(5) 0.2286(8) 0.3094(3)
C112A C 0.4072(6) 0.2259(10) 0.3002(4)
H92A H 0.4128 0.2548 0.2877
C113A C 0.4333(6) 0.1799(9) 0.3089(4)
H93A H 0.4562 0.1793 0.3025
C114A C 0.4224(6) 0.0885(10) 0.4408(5)
C115A C 0.4339(12) 0.0241(12) 0.4428(10)
H94A H 0.4374 0.0111 0.4240
H95A H 0.4139 0.0014 0.4483
H96A H 0.4574 0.0192 0.4574
C116A C 0.3840(9) 0.095(2) 0.4189(8)
H97A H 0.3861 0.0798 0.4001
H98A H 0.3769 0.1354 0.4170
H99A H 0.3646 0.0735 0.4259
C117A C 0.4194(13) 0.1103(19) 0.4707(7)
H100A H 0.4023 0.0855 0.4785
H101A H 0.4095 0.1495 0.4690
H102A H 0.4444 0.1099 0.4838
C118A C 0.5932(8) 0.1727(11) 0.5418(5)
C119A C 0.5552(7) 0.1618(10) 0.5470(5)
H103A H 0.5574 0.1529 0.5675
H104A H 0.5437 0.1295 0.5351
H105A H 0.5395 0.1959 0.5418
C120A C 0.6123(8) 0.2245(11) 0.5613(5)
H106A H 0.6125 0.2164 0.5816
H107A H 0.5980 0.2596 0.5552
H108A H 0.6383 0.2293 0.5591
C121A C 0.6211(8) 0.1181(11) 0.5512(5)
H109A H 0.6215 0.1077 0.5713
H110A H 0.6466 0.1281 0.5495
H111A H 0.6119 0.0856 0.5385
C122A C 0.6898(5) -0.0124(8) 0.4814(4)
C123A C 0.6988(12) 0.0118(16) 0.5130(6)
H112A H 0.7177 0.0422 0.5147
H113A H 0.7085 -0.0189 0.5266
H114A H 0.6757 0.0273 0.5173
C124A C 0.7271(8) -0.0361(17) 0.4753(9)
H115A H 0.7453 -0.0048 0.4764
H116A H 0.7220 -0.0530 0.4559
H117A H 0.7374 -0.0653 0.4897
C125A C 0.5235(7) -0.0989(8) 0.3823(6)
C126A C 0.5592(7) -0.1362(9) 0.3922(6)
H118A H 0.5748 -0.1337 0.3779
H119A H 0.5518 -0.1761 0.3940
H120A H 0.5737 -0.1225 0.4110
C127A C 0.5034(7) -0.1221(9) 0.3539(6)
H121A H 0.5203 -0.1218 0.3405
H122A H 0.4813 -0.0985 0.3461
H123A H 0.4954 -0.1614 0.3564
C128A C 0.4999(8) -0.0996(10) 0.4026(6)
H124A H 0.5141 -0.0850 0.4213
H125A H 0.4918 -0.1389 0.4050
H126A H 0.4778 -0.0755 0.3955
N2A N 0.7276(6) 0.0458(8) 0.3867(5)
C129A C 0.7472(7) 0.0697(12) 0.4145(5)
H127A H 0.7745 0.0642 0.4169
H128A H 0.7387 0.0502 0.4301
H129A H 0.7417 0.1106 0.4149
C130A C 0.5504(7) 0.3642(10) 0.4546(4)
H130A H 0.5301 0.3676 0.4382
N3A N 0.5432(6) 0.3727(8) 0.4817(4)
C131A C 0.5765(6) 0.3807(10) 0.5065(4)
H131A H 0.5967 0.3545 0.5044
H132A H 0.5691 0.3726 0.5247
H133A H 0.5855 0.4202 0.5067
C132A C 0.5076(6) 0.3833(10) 0.4869(4)
H134A H 0.4884 0.3790 0.4689
H135A H 0.5068 0.4223 0.4943
H136A H 0.5027 0.3560 0.5013
C133A C 0.6526(10) 0.3348(16) 0.4753(5)
H137A H 0.6287 0.3344 0.4802
N4A N 0.6852(8) 0.3358(13) 0.4989(5)
N5A N 0.7841(6) 0.4663(12) 0.4030(6)
C134A C 0.8215(6) 0.4707(16) 0.4203(7)
H138A H 0.8211 0.4909 0.4383
H139A H 0.8373 0.4918 0.4096
H140A H 0.8320 0.4323 0.4248
C135A C 0.7736(9) 0.5004(14) 0.3775(7)
H141A H 0.7550 0.4797 0.3629
H142A H 0.7959 0.5086 0.3699
H143A H 0.7625 0.5364 0.3822
C136A C 0.7711(6) 0.2796(11) 0.2863(5)
H144A H 0.7604 0.3031 0.2702
N6A N 0.8077(6) 0.2591(9) 0.2860(4)
C137A C 0.8245(7) 0.2157(10) 0.3058(5)
H145A H 0.8494 0.2061 0.3026
H146A H 0.8085 0.1816 0.3029
H147A H 0.8272 0.2295 0.3257
C138A C 0.5639(8) 0.0871(16) 0.4396(9)
C139A C 0.5556(9) 0.0437(15) 0.4615(9)
O25A O 0.6460(7) 0.4189(12) 0.3148(6)
C140A C 0.7020(8) 0.0874(8) 0.3694(5)
H148A H 0.6895 0.0770 0.3503
C141A C 0.7596(7) 0.4226(13) 0.4088(7)
H149A H 0.7668 0.4002 0.4258
C142A C 0.7252(8) -0.0112(8) 0.3740(6)
H150A H 0.7309 -0.0091 0.3548
H151A H 0.6997 -0.0263 0.3723
H152A H 0.7434 -0.0364 0.3865
C143A C 0.8234(7) 0.2699(11) 0.2614(5)
H153A H 0.8482 0.2517 0.2642
H154A H 0.8260 0.3113 0.2590
H155A H 0.8066 0.2543 0.2440
C144A C 0.1276(15) 0.387(2) 0.1864(7)
H156A H 0.1011 0.3922 0.1870
H157A H 0.1431 0.4144 0.1997
H158A H 0.1356 0.3482 0.1920
C145A C 0.1233(16) 0.4623(15) 0.1473(10)
H159A H 0.1258 0.4691 0.1274
H160A H 0.1409 0.4870 0.1605
H161A H 0.0974 0.4708 0.1487
C146A C 0.2194(14) 0.3730(17) 0.3073(13)
H162A H 0.2077 0.3878 0.3225
H163A H 0.2396 0.3464 0.3158
H164A H 0.2004 0.3530 0.2927
C147A C 0.2359(10) 0.4234(13) 0.2929(7)
C148A C 0.6607(9) -0.0609(15) 0.4792(9)
H165A H 0.6373 -0.0456 0.4831
H166A H 0.6707 -0.0907 0.4934
H167A H 0.6556 -0.0773 0.4597
C149A C 0.2306(8) 0.1730(10) 0.3033(6)
H168A H 0.2186 0.1556 0.3177
H169A H 0.2127 0.1986 0.2908
H170A H 0.2527 0.1950 0.3132
C150A C 0.2718(8) 0.0859(13) 0.3039(6)
H171A H 0.2602 0.0676 0.3183
H172A H 0.2938 0.1081 0.3137
H173A H 0.2798 0.0565 0.2918
C151A C 0.2095(8) 0.0929(13) 0.2669(7)
H174A H 0.1961 0.0736 0.2799
H175A H 0.2185 0.0645 0.2549
H176A H 0.1924 0.1197 0.2545
C152A C 0.2431(7) 0.1258(10) 0.2848(5)
C153A C 0.1298(13) 0.125(2) 0.1456(9)
H177A H 0.1058 0.1043 0.1403
H178A H 0.1252 0.1660 0.1431
H179A H 0.1419 0.1167 0.1658
C154A C 0.1632(12) 0.0404(16) 0.1289(10)
H180A H 0.1398 0.0195 0.1211
H181A H 0.1724 0.0306 0.1494
H182A H 0.1822 0.0298 0.1182
C155A C 0.1557(8) 0.1051(14) 0.1260(7)
C156A C 0.1391(16) 0.121(2) 0.0942(7)
H183A H 0.1169 0.0977 0.0865
H184A H 0.1581 0.1149 0.0828
H185A H 0.1318 0.1618 0.0930
C157A C 0.7218(10) 0.3411(17) 0.4922(8)
C158A C 0.6835(13) 0.3217(17) 0.5282(6)
H186A H 0.6972 0.3507 0.5414
H187A H 0.6950 0.2842 0.5333
H188A H 0.6571 0.3209 0.5297
N7A N 0.6121(11) 0.5644(14) 0.3979(9)
C162A C 0.6177(7) 0.6100(10) 0.4077(6)
C163A C 0.6244(7) 0.6692(10) 0.4212(6)
Mn4? Mn 0.34706(19) 0.3695(3) 0.14529(17)
O30? O 0.3766(7) 0.4078(12) 0.1877(6)
C164? C 0.3787(13) 0.7543(18) 0.2068(8)
H198? H 0.3938 0.7360 0.2242
H199? H 0.3531 0.7385 0.2027
H200? H 0.3777 0.7956 0.2100
C165? C 0.4376(8) 0.7689(18) 0.1881(11)
H201? H 0.4532 0.7485 0.2046
H202? H 0.4361 0.8095 0.1931
H203? H 0.4487 0.7653 0.1713
C166? C 0.2210(11) 0.650(2) 0.0960(9)
H204? H 0.2341 0.6521 0.1164
H205? H 0.2065 0.6139 0.0927
H206? H 0.2039 0.6822 0.0909
C167? C 0.2729(13) 0.7077(16) 0.0822(12)
H207? H 0.2861 0.7098 0.1026
H208? H 0.2552 0.7396 0.0776
H209? H 0.2913 0.7097 0.0700
C168? C 0.2344(6) 0.1219(10) 0.2779(5)
C169? C 0.2063(8) 0.1675(10) 0.2842(6)
H210? H 0.1885 0.1494 0.2942
H211? H 0.1923 0.1840 0.2659
H212? H 0.2202 0.1977 0.2964
C170? C 0.2580(8) 0.1003(14) 0.3074(5)
H213? H 0.2415 0.0805 0.3179
H214? H 0.2700 0.1329 0.3188
H215? H 0.2775 0.0738 0.3041
C171? C 0.2116(9) 0.0709(12) 0.2614(7)
H216? H 0.1954 0.0545 0.2732
H217? H 0.2291 0.0417 0.2576
H218? H 0.1960 0.0846 0.2431
C172? C 0.1504(7) 0.1168(15) 0.1305(8)
C173? C 0.1533(12) 0.0643(18) 0.1504(9)
H219? H 0.1284 0.0466 0.1480
H220? H 0.1624 0.0762 0.1705
H221? H 0.1709 0.0366 0.1453
C174? C 0.1412(17) 0.099(2) 0.0984(7)
H222? H 0.1157 0.0826 0.0933
H223? H 0.1593 0.0695 0.0954
H224? H 0.1428 0.1319 0.0862
C175? C 0.1205(12) 0.1590(18) 0.1364(10)
H225? H 0.0958 0.1403 0.1324
H226? H 0.1195 0.1926 0.1239
H227? H 0.1271 0.1711 0.1567
C176? C 0.1249(16) 0.4571(19) 0.1318(8)
H228? H 0.1247 0.4397 0.1130
H229? H 0.1435 0.4881 0.1355
H230? H 0.0998 0.4725 0.1317
C177? C 0.1360(15) 0.436(2) 0.1855(7)
H231? H 0.1549 0.4664 0.1900
H232? H 0.1425 0.4054 0.2000
H233? H 0.1111 0.4514 0.1859
C178? C 0.2255(10) 0.4098(12) 0.2881(9)
C179? C 0.1842(12) 0.4025(17) 0.2705(9)
H234? H 0.1668 0.4129 0.2826
H235? H 0.1800 0.3626 0.2643
H236? H 0.1799 0.4274 0.2535
C180? C 0.2320(14) 0.4735(13) 0.2972(11)
H237? H 0.2125 0.4859 0.3072
H238? H 0.2307 0.4972 0.2800
H239? H 0.2569 0.4778 0.3102
C181? C 0.2315(15) 0.3713(19) 0.3155(11)
H240? H 0.2117 0.3791 0.3259
H241? H 0.2562 0.3796 0.3281
H242? H 0.2305 0.3310 0.3097
C182? C 0.3188(11) -0.0719(13) 0.0344(8)
H243? H 0.3461 -0.0770 0.0408
H244? H 0.3083 -0.1027 0.0209
H245? H 0.3073 -0.0731 0.0511
C183? C 0.1102(15) 0.3586(18) 0.1488(10)
H246? H 0.1103 0.3450 0.1293
H247? H 0.0844 0.3685 0.1499
H248? H 0.1198 0.3285 0.1629
C184? C 0.1354(8) 0.4117(18) 0.1556(7)
C185? C 0.3738(12) 0.7698(18) 0.1532(7)
H249? H 0.3702 0.8106 0.1565
H250? H 0.3491 0.7510 0.1479
H251? H 0.3871 0.7651 0.1376
C186? C 0.3317(10) -0.0098(17) -0.0059(7)
H252? H 0.3589 -0.0109 0.0024
H253? H 0.3253 0.0257 -0.0169
H254? H 0.3245 -0.0426 -0.0189
C187? C 0.2678(6) -0.0068(18) 0.0071(9)
H255? H 0.2550 -0.0105 0.0231
H256? H 0.2590 -0.0369 -0.0072
H257? H 0.2621 0.0308 -0.0021
H258? H 0.2759 0.3131 0.0227
H259? H 0.2585 0.3339 -0.0097
H260? H 0.2752 0.3797 0.0149
N8? N 0.363(2) 0.712(2) 0.069(2)
C188? C 0.6076(10) 0.1352(14) 0.0580(11)
H261? H 0.5951 0.1691 0.0481
H262? H 0.6258 0.1204 0.0475
H263? H 0.6207 0.1454 0.0778
C189? C 0.5967(12) 0.0352(15) 0.0751(9)
H264? H 0.5780 0.0047 0.0741
H265? H 0.6073 0.0448 0.0954
H266? H 0.6169 0.0223 0.0660
C190? C 0.5583(11) 0.072(2) 0.0273(6)
H267? H 0.5495 0.1064 0.0162
H268? H 0.5369 0.0464 0.0273
H269? H 0.5766 0.0520 0.0184
C191? C 0.2303(12) 0.645(2) 0.0448(6)
H270? H 0.2153 0.6800 0.0390
H271? H 0.2137 0.6119 0.0421
H272? H 0.2488 0.6412 0.0328
N9? N 0.4700(11) 0.0217(19) 0.0325(12)
N10? N 0.364(2) 0.688(4) 0.0560(10)
loop_
_geom_bond_atom_site_label_1
_geom_bond_atom_site_label_2
_geom_bond_site_symmetry_1
_geom_bond_site_symmetry_2
Dy1 O3 1_555 1_555
Mn1 O1 1_555 1_555
O1 C6 1_555 1_555
C1 C2 1_555 1_555
Dy2 O2 1_555 1_555
Mn2 O14 1_555 1_555
O2 Mn1 1_555 1_555
C2 H1 1_555 1_555
Dy3 O11 1_555 1_555
Mn3 O9 1_555 1_555
O3 Mn1 1_555 1_555
C3 C2 1_555 1_555
O4 Mn1 1_555 1_555
C4 C3 1_555 1_555
H2 C4 1_555 1_555
O5 C51 1_555 1_555
C5 C4 1_555 1_555
O6 C58 1_555 1_555
C6 C1 1_555 1_555
O7 C65 1_555 1_555
C7 C5 1_555 1_555
H3 C7 1_555 1_555
H4 C7 1_555 1_555
O8 C72 1_555 1_555
C8 C7 1_555 1_555
O9 C84 1_555 1_555
C9 C8 1_555 1_555
H5 C9 1_555 1_555
O10 Dy1 1_555 1_555
C10 C9 1_555 1_555
O11 Mn3 1_555 1_555
C11 C10 1_555 1_555
H6 C11 1_555 1_555
O12 Mn3 1_555 1_555
C12 C11 1_555 1_555
O13 Dy1 1_555 1_555
C13 O2 1_555 1_555
O14 Dy2 1_555 1_555
C14 C12 1_555 1_555
H7 C14 1_555 1_555
H8 C14 1_555 1_555
O15 Dy1 1_555 1_555
C15 C14 1_555 1_555
O16 Dy1 1_555 1_555
C16 C15 1_555 1_555
H9 C16 1_555 1_555
O17 Dy2 1_555 1_555
C17 C16 1_555 1_555
C18 C17 1_555 1_555
H10 C18 1_555 1_555
C19 C18 1_555 1_555
O18 Dy3 1_555 1_555
C20 O3 1_555 1_555
O19 Dy3 1_555 1_555
C21 C19 1_555 1_555
H11 C21 1_555 1_555
H12 C21 1_555 1_555
O20 Dy3 1_555 1_555
C22 C21 1_555 1_555
O21 Dy1 1_555 1_555
C23 C22 1_555 1_555
H13 C23 1_555 1_555
O22 Dy1 1_555 1_555
C24 C23 1_555 1_555
O23 Dy1 1_555 1_555
C25 C24 1_555 1_555
H14 C25 1_555 1_555
C26 C25 1_555 1_555
C27 O4 1_555 1_555
C28 C1 1_555 1_555
H15 C28 1_555 1_555
N1 Mn3 1_555 1_555
C29 C28 1_555 1_555
H16 C29 1_555 1_555
H17 C29 1_555 1_555
O24 Mn2 1_555 1_555
C30 C29 1_555 1_555
C31 C30 1_555 1_555
H18 C31 1_555 1_555
C32 C30 1_555 1_555
H19 C32 1_555 1_555
C33 C3 1_555 1_555
C34 C33 1_555 1_555
H20 C34 1_555 1_555
H21 C34 1_555 1_555
H22 C34 1_555 1_555
C35 C33 1_555 1_555
H23 C35 1_555 1_555
H24 C35 1_555 1_555
H25 C35 1_555 1_555
C36 C33 1_555 1_555
H26 C36 1_555 1_555
H27 C36 1_555 1_555
H28 C36 1_555 1_555
C37 C10 1_555 1_555
C38 C37 1_555 1_555
H29 C38 1_555 1_555
H30 C38 1_555 1_555
H31 C38 1_555 1_555
C39 C17 1_555 1_555
C40 C39 1_555 1_555
H32 C40 1_555 1_555
H33 C40 1_555 1_555
H34 C40 1_555 1_555
C41 C39 1_555 1_555
H35 C41 1_555 1_555
H36 C41 1_555 1_555
H37 C41 1_555 1_555
C42 C24 1_555 1_555
C43 C42 1_555 1_555
H38 C43 1_555 1_555
H39 C43 1_555 1_555
H40 C43 1_555 1_555
C44 C42 1_555 1_555
H41 C44 1_555 1_555
H42 C44 1_555 1_555
H43 C44 1_555 1_555
C45 C42 1_555 1_555
H44 C45 1_555 1_555
H45 C45 1_555 1_555
H46 C45 1_555 1_555
C46 C47 1_555 1_555
C47 H47 1_555 1_555
C48 C47 1_555 1_555
C49 C48 1_555 1_555
H48 C49 1_555 1_555
C50 C49 1_555 1_555
C51 C46 1_555 1_555
C52 C50 1_555 1_555
H49 C52 1_555 1_555
H50 C52 1_555 1_555
C53 C52 1_555 1_555
C54 C53 1_555 1_555
H51 C54 1_555 1_555
C55 C54 1_555 1_555
C56 C55 1_555 1_555
H52 C56 1_555 1_555
C57 C56 1_555 1_555
C58 C53 1_555 1_555
C59 C57 1_555 1_555
H53 C59 1_555 1_555
H54 C59 1_555 1_555
C60 C59 1_555 1_555
C61 C60 1_555 1_555
H55 C61 1_555 1_555
C62 C61 1_555 1_555
C63 C62 1_555 1_555
H56 C63 1_555 1_555
C64 C63 1_555 1_555
C65 C60 1_555 1_555
C66 C64 1_555 1_555
H57 C66 1_555 1_555
H58 C66 1_555 1_555
C67 C66 1_555 1_555
C68 C67 1_555 1_555
H59 C68 1_555 1_555
C69 C68 1_555 1_555
C70 C69 1_555 1_555
H60 C70 1_555 1_555
C71 C70 1_555 1_555
C72 C67 1_555 1_555
C73 C46 1_555 1_555
H61 C73 1_555 1_555
C74 C73 1_555 1_555
H62 C74 1_555 1_555
H63 C74 1_555 1_555
C75 C62 1_555 1_555
C76 C75 1_555 1_555
H64 C76 1_555 1_555
H65 C76 1_555 1_555
H66 C76 1_555 1_555
C77 H67 1_555 1_555
H68 C77 1_555 1_555
H69 C77 1_555 1_555
C78 H70 1_555 1_555
H71 C78 1_555 1_555
H72 C78 1_555 1_555
C79 C80 1_555 1_555
C80 H73 1_555 1_555
C81 C80 1_555 1_555
C82 C81 1_555 1_555
H74 C82 1_555 1_555
C83 C82 1_555 1_555
C84 C79 1_555 1_555
C85 C83 1_555 1_555
H75 C85 1_555 1_555
H76 C85 1_555 1_555
C86 C85 1_555 1_555
C87 C86 1_555 1_555
H77 C87 1_555 1_555
C88 C87 1_555 1_555
C89 C88 1_555 1_555
H78 C89 1_555 1_555
C90 C89 1_555 1_555
C91 O10 1_555 1_555
C92 C90 1_555 1_555
H79 C92 1_555 1_555
H80 C92 1_555 1_555
C93 C92 1_555 1_555
C94 C93 1_555 1_555
H81 C94 1_555 1_555
C95 C94 1_555 1_555
C96 C95 1_555 1_555
H82 C96 1_555 1_555
C97 C96 1_555 1_555
C98 O11 1_555 1_555
C99 C97 1_555 1_555
H83 C99 1_555 1_555
H84 C99 1_555 1_555
C100 C99 1_555 1_555
C101 C100 1_555 1_555
H85 C101 1_555 1_555
C102 C101 1_555 1_555
C103 C102 1_555 1_555
H86 C103 1_555 1_555
C104 C103 1_555 1_555
C105 O12 1_555 1_555
C106 C79 1_555 1_555
H87 C106 1_555 1_555
C107 C106 1_555 1_555
H88 C107 1_555 1_555
H89 C107 1_555 1_555
C108 C107 1_555 1_555
C109 C108 1_555 1_555
H90 C109 1_555 1_555
C110 C109 1_555 1_555
H91 C110 1_555 1_555
C111 C74 1_555 1_555
C112 C111 1_555 1_555
H92 C112 1_555 1_555
C113 C108 1_555 1_555
H93 C113 1_555 1_555
C114 C81 1_555 1_555
C115 C114 1_555 1_555
H94 C115 1_555 1_555
H95 C115 1_555 1_555
H96 C115 1_555 1_555
C116 C114 1_555 1_555
H97 C116 1_555 1_555
H98 C116 1_555 1_555
H99 C116 1_555 1_555
C117 C114 1_555 1_555
H100 C117 1_555 1_555
H101 C117 1_555 1_555
H102 C117 1_555 1_555
C118 C88 1_555 1_555
C119 C118 1_555 1_555
H103 C119 1_555 1_555
H104 C119 1_555 1_555
H105 C119 1_555 1_555
C120 C118 1_555 1_555
H106 C120 1_555 1_555
H107 C120 1_555 1_555
H108 C120 1_555 1_555
C121 C118 1_555 1_555
H109 C121 1_555 1_555
H110 C121 1_555 1_555
H111 C121 1_555 1_555
C122 C95 1_555 1_555
C123 C122 1_555 1_555
H112 C123 1_555 1_555
H113 C123 1_555 1_555
H114 C123 1_555 1_555
C124 C122 1_555 1_555
H115 C124 1_555 1_555
H116 C124 1_555 1_555
H117 C124 1_555 1_555
C125 C102 1_555 1_555
C126 C125 1_555 1_555
H118 C126 1_555 1_555
H119 C126 1_555 1_555
H120 C126 1_555 1_555
C127 C125 1_555 1_555
H121 C127 1_555 1_555
H122 C127 1_555 1_555
H123 C127 1_555 1_555
C128 C125 1_555 1_555
H124 C128 1_555 1_555
H125 C128 1_555 1_555
H126 C128 1_555 1_555
N2 C129 1_555 1_555
C129 H127 1_555 1_555
H128 C129 1_555 1_555
H129 C129 1_555 1_555
C130 O22 1_555 1_555
H130 C130 1_555 1_555
N3 C130 1_555 1_555
C131 N3 1_555 1_555
H131 C131 1_555 1_555
H132 C131 1_555 1_555
H133 C131 1_555 1_555
C132 N3 1_555 1_555
H134 C132 1_555 1_555
H135 C132 1_555 1_555
H136 C132 1_555 1_555
C133 O21 1_555 1_555
H137 C133 1_555 1_555
N4 C133 1_555 1_555
N5 C134 1_555 1_555
C134 H138 1_555 1_555
H139 C134 1_555 1_555
H140 C134 1_555 1_555
C135 N5 1_555 1_555
H141 C135 1_555 1_555
H142 C135 1_555 1_555
H143 C135 1_555 1_555
C136 O24 1_555 1_555
H144 C136 1_555 1_555
N6 C136 1_555 1_555
C137 N6 1_555 1_555
H145 C137 1_555 1_555
H146 C137 1_555 1_555
H147 C137 1_555 1_555
C138 N1 1_555 1_555
C139 C138 1_555 1_555
O25 Dy2 1_555 1_555
C140 O19 1_555 1_555
H148 C140 1_555 1_555
C141 O17 1_555 1_555
H149 C141 1_555 1_555
C142 N2 1_555 1_555
H150 C142 1_555 1_555
H151 C142 1_555 1_555
H152 C142 1_555 1_555
C143 N6 1_555 1_555
H153 C143 1_555 1_555
H154 C143 1_555 1_555
H155 C143 1_555 1_555
C144 C75 1_555 1_555
H156 C144 1_555 1_555
H157 C144 1_555 1_555
H158 C144 1_555 1_555
C145 C75 1_555 1_555
H159 C145 1_555 1_555
H160 C145 1_555 1_555
H161 C145 1_555 1_555
C146 H162 1_555 1_555
H163 C146 1_555 1_555
H164 C146 1_555 1_555
C147 C69 1_555 1_555
C148 C122 1_555 1_555
H165 C148 1_555 1_555
H166 C148 1_555 1_555
H167 C148 1_555 1_555
C149 H168 1_555 1_555
H169 C149 1_555 1_555
H170 C149 1_555 1_555
C150 H171 1_555 1_555
H172 C150 1_555 1_555
H173 C150 1_555 1_555
C151 H174 1_555 1_555
H175 C151 1_555 1_555
H176 C151 1_555 1_555
C152 C48 1_555 1_555
C153 H177 1_555 1_555
H178 C153 1_555 1_555
H179 C153 1_555 1_555
C154 H180 1_555 1_555
H181 C154 1_555 1_555
H182 C154 1_555 1_555
C155 C55 1_555 1_555
C156 C155 1_555 1_555
H183 C156 1_555 1_555
H184 C156 1_555 1_555
H185 C156 1_555 1_555
C157 N4 1_555 1_555
C158 N4 1_555 1_555
H186 C158 1_555 1_555
H187 C158 1_555 1_555
H188 C158 1_555 1_555
C159 C39 1_555 1_555
H189 C159 1_555 1_555
H190 C159 1_555 1_555
H191 C159 1_555 1_555
C160 C37 1_555 1_555
H192 C160 1_555 1_555
H193 C160 1_555 1_555
H194 C160 1_555 1_555
C161 C37 1_555 1_555
H195 C161 1_555 1_555
H196 C161 1_555 1_555
H197 C161 1_555 1_555
N7 Mn1 1_555 1_555
C162 N7 1_555 1_555
C163 C162 1_555 1_555
O1A C6A 1_555 1_555
C1A C2A 1_555 1_555
O2A C13A 1_555 1_555
C2A H1A 1_555 1_555
O3A C20A 1_555 1_555
C3A C2A 1_555 1_555
O4A C27A 1_555 1_555
C4A C3A 1_555 1_555
H2A C4A 1_555 1_555
C5A C4A 1_555 1_555
C6A C1A 1_555 1_555
C7A C5A 1_555 1_555
H3A C7A 1_555 1_555
H4A C7A 1_555 1_555
C8A C7A 1_555 1_555
C9A C8A 1_555 1_555
H5A C9A 1_555 1_555
C10A C9A 1_555 1_555
C11A C10A 1_555 1_555
H6A C11A 1_555 1_555
C12A C11A 1_555 1_555
C13A C8A 1_555 1_555
C14A C12A 1_555 1_555
H7A C14A 1_555 1_555
H8A C14A 1_555 1_555
C15A C14A 1_555 1_555
C16A C15A 1_555 1_555
H9A C16A 1_555 1_555
C17A C16A 1_555 1_555
C18A C17A 1_555 1_555
H10A C18A 1_555 1_555
C19A C18A 1_555 1_555
C20A C15A 1_555 1_555
C21A C19A 1_555 1_555
H11A C21A 1_555 1_555
H12A C21A 1_555 1_555
C22A C21A 1_555 1_555
C23A C22A 1_555 1_555
H13A C23A 1_555 1_555
C24A C23A 1_555 1_555
C25A C24A 1_555 1_555
H14A C25A 1_555 1_555
C26A C25A 1_555 1_555
C27A C22A 1_555 1_555
C28A C1A 1_555 1_555
H15A C28A 1_555 1_555
C29A C28A 1_555 1_555
H16A C29A 1_555 1_555
H17A C29A 1_555 1_555
C30A C29A 1_555 1_555
C31A C31 1_555 1_555
H18A C31A 1_555 1_555
C32A C32 1_555 1_555
H19A C32A 1_555 1_555
C33A C3A 1_555 1_555
C34A C33A 1_555 1_555
H20A C34A 1_555 1_555
H21A C34A 1_555 1_555
H22A C34A 1_555 1_555
C35A C33A 1_555 1_555
H23A C35A 1_555 1_555
H24A C35A 1_555 1_555
H25A C35A 1_555 1_555
C36A C33A 1_555 1_555
H26A C36A 1_555 1_555
H27A C36A 1_555 1_555
H28A C36A 1_555 1_555
C37A C10A 1_555 1_555
C38A C37A 1_555 1_555
H29A C38A 1_555 1_555
H30A C38A 1_555 1_555
H31A C38A 1_555 1_555
C39A C17A 1_555 1_555
C40A C39A 1_555 1_555
H32A C40A 1_555 1_555
H33A C40A 1_555 1_555
H34A C40A 1_555 1_555
C41A C39A 1_555 1_555
H35A C41A 1_555 1_555
H36A C41A 1_555 1_555
H37A C41A 1_555 1_555
C42A C24A 1_555 1_555
C43A C42A 1_555 1_555
H38A C43A 1_555 1_555
H39A C43A 1_555 1_555
H40A C43A 1_555 1_555
C44A C42A 1_555 1_555
H41A C44A 1_555 1_555
H42A C44A 1_555 1_555
H43A C44A 1_555 1_555
C45A C42A 1_555 1_555
H44A C45A 1_555 1_555
H45A C45A 1_555 1_555
H46A C45A 1_555 1_555
C159A C39A 1_555 1_555
H189A C159A 1_555 1_555
H190A C159A 1_555 1_555
H191A C159A 1_555 1_555
C160A C37A 1_555 1_555
H192A C160A 1_555 1_555
H193A C160A 1_555 1_555
H194A C160A 1_555 1_555
C161A C37A 1_555 1_555
H195A C161A 1_555 1_555
H196A C161A 1_555 1_555
H197A C161A 1_555 1_555
Dy1A O3A 1_555 1_555
Mn1A O1A 1_555 1_555
Dy2A O7 1_555 1_555
Mn2A O5 1_555 1_555
Dy3A O6 1_555 1_555
Mn3A O9A 1_555 1_555
O5A Mn2 1_555 1_555
O6A Mn2 1_555 1_555
O7A Dy2 1_555 1_555
O8A Mn2 1_555 1_555
O9A C84A 1_555 1_555
O10A Dy1A 1_555 1_555
O11A Dy3A 1_555 1_555
O12A Mn3A 1_555 1_555
O13A Dy1A 1_555 1_555
O14A Dy2A 1_555 1_555
O15A Dy1A 1_555 1_555
O16A Dy1A 1_555 1_555
O17A Dy2A 1_555 1_555
O18A Dy3A 1_555 1_555
O19A Dy3A 1_555 1_555
O20A Dy3A 1_555 1_555
O21A Dy1A 1_555 1_555
O22A Dy1A 1_555 1_555
O23A Dy1A 1_555 1_555
N1A Mn3A 1_555 1_555
O24A Mn2A 1_555 1_555
C46A C47A 1_555 1_555
C47A H47A 1_555 1_555
C48A C47A 1_555 1_555
C49A C48A 1_555 1_555
H48A C49A 1_555 1_555
C50A C49A 1_555 1_555
C51A O5A 1_555 1_555
C52A C50A 1_555 1_555
H49A C52A 1_555 1_555
H50A C52A 1_555 1_555
C53A C52A 1_555 1_555
C54A C53A 1_555 1_555
H51A C54A 1_555 1_555
C55A C54A 1_555 1_555
C56A C55A 1_555 1_555
H52A C56A 1_555 1_555
C57A C56A 1_555 1_555
C58A O6A 1_555 1_555
C59A C57A 1_555 1_555
H53A C59A 1_555 1_555
H54A C59A 1_555 1_555
C60A C59A 1_555 1_555
C61A C60A 1_555 1_555
H55A C61A 1_555 1_555
C62A C61A 1_555 1_555
C63A C62A 1_555 1_555
H56A C63A 1_555 1_555
C64A C63A 1_555 1_555
C65A O7A 1_555 1_555
C66A C64A 1_555 1_555
H57A C66A 1_555 1_555
H58A C66A 1_555 1_555
C67A C66A 1_555 1_555
C68A C67A 1_555 1_555
H59A C68A 1_555 1_555
C69A C68A 1_555 1_555
C70A C69A 1_555 1_555
H60A C70A 1_555 1_555
C71A C70A 1_555 1_555
C72A O8A 1_555 1_555
C73A C46A 1_555 1_555
H61A C73A 1_555 1_555
C74A C73A 1_555 1_555
H62A C74A 1_555 1_555
H63A C74A 1_555 1_555
C75A C62A 1_555 1_555
C76A C75A 1_555 1_555
H64A C76A 1_555 1_555
H65A C76A 1_555 1_555
H66A C76A 1_555 1_555
C77A H67A 1_555 1_555
H68A C77A 1_555 1_555
H69A C77A 1_555 1_555
C78A H70A 1_555 1_555
H71A C78A 1_555 1_555
H72A C78A 1_555 1_555
C79A C80A 1_555 1_555
C80A H73A 1_555 1_555
C81A C80A 1_555 1_555
C82A C81A 1_555 1_555
H74A C82A 1_555 1_555
C83A C82A 1_555 1_555
C84A C79A 1_555 1_555
C85A C83A 1_555 1_555
H75A C85A 1_555 1_555
H76A C85A 1_555 1_555
C86A C85A 1_555 1_555
C87A C86A 1_555 1_555
H77A C87A 1_555 1_555
C88A C87A 1_555 1_555
C89A C88A 1_555 1_555
H78A C89A 1_555 1_555
C90A C89A 1_555 1_555
C91A O10A 1_555 1_555
C92A C90A 1_555 1_555
H79A C92A 1_555 1_555
H80A C92A 1_555 1_555
C93A C92A 1_555 1_555
C94A C93A 1_555 1_555
H81A C94A 1_555 1_555
C95A C94A 1_555 1_555
C96A C95A 1_555 1_555
H82A C96A 1_555 1_555
C97A C96A 1_555 1_555
C98A O11A 1_555 1_555
C99A C97A 1_555 1_555
H83A C99A 1_555 1_555
H84A C99A 1_555 1_555
C100A C99A 1_555 1_555
C101A C100A 1_555 1_555
H85A C101A 1_555 1_555
C102A C101A 1_555 1_555
C103A C102A 1_555 1_555
H86A C103A 1_555 1_555
C104A C103A 1_555 1_555
C105A O12A 1_555 1_555
C106A C79A 1_555 1_555
H87A C106A 1_555 1_555
C107A C106A 1_555 1_555
H88A C107A 1_555 1_555
H89A C107A 1_555 1_555
C108A C107A 1_555 1_555
C109A C108A 1_555 1_555
H90A C109A 1_555 1_555
C110A C109A 1_555 1_555
H91A C110A 1_555 1_555
C111A C74A 1_555 1_555
C112A C111A 1_555 1_555
H92A C112A 1_555 1_555
C113A C108A 1_555 1_555
H93A C113A 1_555 1_555
C114A C81A 1_555 1_555
C115A C114A 1_555 1_555
H94A C115A 1_555 1_555
H95A C115A 1_555 1_555
H96A C115A 1_555 1_555
C116A C114A 1_555 1_555
H97A C116A 1_555 1_555
H98A C116A 1_555 1_555
H99A C116A 1_555 1_555
C117A C114A 1_555 1_555
H100A C117A 1_555 1_555
H101A C117A 1_555 1_555
H102A C117A 1_555 1_555
C118A C88A 1_555 1_555
C119A C118A 1_555 1_555
H103A C119A 1_555 1_555
H104A C119A 1_555 1_555
H105A C119A 1_555 1_555
C120A C118A 1_555 1_555
H106A C120A 1_555 1_555
H107A C120A 1_555 1_555
H108A C120A 1_555 1_555
C121A C118A 1_555 1_555
H109A C121A 1_555 1_555
H110A C121A 1_555 1_555
H111A C121A 1_555 1_555
C122A C95A 1_555 1_555
C123A C122A 1_555 1_555
H112A C123A 1_555 1_555
H113A C123A 1_555 1_555
H114A C123A 1_555 1_555
C124A C122A 1_555 1_555
H115A C124A 1_555 1_555
H116A C124A 1_555 1_555
H117A C124A 1_555 1_555
C125A C102A 1_555 1_555
C126A C125A 1_555 1_555
H118A C126A 1_555 1_555
H119A C126A 1_555 1_555
H120A C126A 1_555 1_555
C127A C125A 1_555 1_555
H121A C127A 1_555 1_555
H122A C127A 1_555 1_555
H123A C127A 1_555 1_555
C128A C125A 1_555 1_555
H124A C128A 1_555 1_555
H125A C128A 1_555 1_555
H126A C128A 1_555 1_555
N2A C129A 1_555 1_555
C129A H127A 1_555 1_555
H128A C129A 1_555 1_555
H129A C129A 1_555 1_555
C130A O22A 1_555 1_555
H130A C130A 1_555 1_555
N3A C130A 1_555 1_555
C131A N3A 1_555 1_555
H131A C131A 1_555 1_555
H132A C131A 1_555 1_555
H133A C131A 1_555 1_555
C132A N3A 1_555 1_555
H134A C132A 1_555 1_555
H135A C132A 1_555 1_555
H136A C132A 1_555 1_555
C133A O21A 1_555 1_555
H137A C133A 1_555 1_555
N4A C133A 1_555 1_555
N5A C134A 1_555 1_555
C134A H138A 1_555 1_555
H139A C134A 1_555 1_555
H140A C134A 1_555 1_555
C135A N5A 1_555 1_555
H141A C135A 1_555 1_555
H142A C135A 1_555 1_555
H143A C135A 1_555 1_555
C136A O24A 1_555 1_555
H144A C136A 1_555 1_555
N6A C136A 1_555 1_555
C137A N6A 1_555 1_555
H145A C137A 1_555 1_555
H146A C137A 1_555 1_555
H147A C137A 1_555 1_555
C138A N1A 1_555 1_555
C139A C138A 1_555 1_555
O25A Dy2A 1_555 1_555
C140A O19A 1_555 1_555
H148A C140A 1_555 1_555
C141A O17A 1_555 1_555
H149A C141A 1_555 1_555
C142A N2A 1_555 1_555
H150A C142A 1_555 1_555
H151A C142A 1_555 1_555
H152A C142A 1_555 1_555
C143A N6A 1_555 1_555
H153A C143A 1_555 1_555
H154A C143A 1_555 1_555
H155A C143A 1_555 1_555
C144A C75A 1_555 1_555
H156A C144A 1_555 1_555
H157A C144A 1_555 1_555
H158A C144A 1_555 1_555
C145A C75A 1_555 1_555
H159A C145A 1_555 1_555
H160A C145A 1_555 1_555
H161A C145A 1_555 1_555
C146A H162A 1_555 1_555
H163A C146A 1_555 1_555
H164A C146A 1_555 1_555
C147A C69A 1_555 1_555
C148A C122A 1_555 1_555
H165A C148A 1_555 1_555
H166A C148A 1_555 1_555
H167A C148A 1_555 1_555
C149A H168A 1_555 1_555
H169A C149A 1_555 1_555
H170A C149A 1_555 1_555
C150A H171A 1_555 1_555
H172A C150A 1_555 1_555
H173A C150A 1_555 1_555
C151A H174A 1_555 1_555
H175A C151A 1_555 1_555
H176A C151A 1_555 1_555
C152A C48A 1_555 1_555
C153A H177A 1_555 1_555
H178A C153A 1_555 1_555
H179A C153A 1_555 1_555
C154A H180A 1_555 1_555
H181A C154A 1_555 1_555
H182A C154A 1_555 1_555
C155A C55A 1_555 1_555
C156A C155A 1_555 1_555
H183A C156A 1_555 1_555
H184A C156A 1_555 1_555
H185A C156A 1_555 1_555
C157A N4A 1_555 1_555
C158A N4A 1_555 1_555
H186A C158A 1_555 1_555
H187A C158A 1_555 1_555
H188A C158A 1_555 1_555
N7A Mn1A 1_555 1_555
C162A N7A 1_555 1_555
C163A C162A 1_555 1_555
Mn1 O13 1_555 1_555
Dy2 O13 1_555 1_555
Dy2 O16 1_555 1_555
Mn2 O7A 1_555 1_555
Dy3 O14 1_555 1_555
Dy3 O15 1_555 1_555
Dy3 O16 1_555 1_555
Dy3 O6A 1_555 1_555
Mn3 O10 1_555 1_555
Mn3 O15 1_555 1_555
C5 C6 1_555 1_555
O6 Mn2A 1_555 1_555
O7 Mn2A 1_555 1_555
O8 Mn2A 1_555 1_555
C8 C13 1_555 1_555
C12 C13 1_555 1_555
C15 C20 1_555 1_555
C19 C20 1_555 1_555
C22 C27 1_555 1_555
C26 C27 1_555 1_555
C26 C28 1_555 1_555
C50 C51 1_555 1_555
C57 C58 1_555 1_555
C64 C65 1_555 1_555
C71 C72 1_555 1_555
C71 C73 1_555 1_555
C77 C147 1_555 1_555
C78 C147 1_555 1_555
C83 C84 1_555 1_555
C86 C91 1_555 1_555
C90 C91 1_555 1_555
C93 C98 1_555 1_555
C97 C98 1_555 1_555
C100 C105 1_555 1_555
C104 C105 1_555 1_555
C104 C106 1_555 1_555
C110 C111 1_555 1_555
C112 C113 1_555 1_555
N2 C140 1_555 1_555
N5 C141 1_555 1_555
C146 C147 1_555 1_555
C149 C152 1_555 1_555
C150 C152 1_555 1_555
C151 C152 1_555 1_555
C153 C155 1_555 1_555
C154 C155 1_555 1_555
O2A Mn1A 1_555 1_555
O2A Dy2A 1_555 1_555
O3A Mn1A 1_555 1_555
O4A Mn1A 1_555 1_555
C5A C6A 1_555 1_555
C12A C13A 1_555 1_555
C19A C20A 1_555 1_555
C26A C27A 1_555 1_555
C26A C28A 1_555 1_555
C30A C31A 1_555 1_555
C30A C32A 1_555 1_555
Mn1A O13A 1_555 1_555
Dy2A O13A 1_555 1_555
Dy2A O16A 1_555 1_555
Mn2A O14A 1_555 1_555
Dy3A O14A 1_555 1_555
Dy3A O15A 1_555 1_555
Dy3A O16A 1_555 1_555
Mn3A O10A 1_555 1_555
Mn3A O11A 1_555 1_555
Mn3A O15A 1_555 1_555
C46A C51A 1_555 1_555
C50A C51A 1_555 1_555
C53A C58A 1_555 1_555
C57A C58A 1_555 1_555
C60A C65A 1_555 1_555
C64A C65A 1_555 1_555
C67A C72A 1_555 1_555
C71A C72A 1_555 1_555
C71A C73A 1_555 1_555
C77A C147A 1_555 1_555
C78A C147A 1_555 1_555
C83A C84A 1_555 1_555
C86A C91A 1_555 1_555
C90A C91A 1_555 1_555
C93A C98A 1_555 1_555
C97A C98A 1_555 1_555
C100A C105A 1_555 1_555
C104A C105A 1_555 1_555
C104A C106A 1_555 1_555
C110A C111A 1_555 1_555
C112A C113A 1_555 1_555
N2A C140A 1_555 1_555
N5A C141A 1_555 1_555
C146A C147A 1_555 1_555
C149A C152A 1_555 1_555
C150A C152A 1_555 1_555
C151A C152A 1_555 1_555
C153A C155A 1_555 1_555
C154A C155A 1_555 1_555

#END
