# generated using pymatgen
data_H232Pd6C168N52O173F56
_symmetry_space_group_name_H-M   'P 1'
_cell_length_a   26.37400000
_cell_length_b   26.37400000
_cell_length_c   31.88400000
_cell_angle_alpha   90.00000000
_cell_angle_beta   90.00000000
_cell_angle_gamma   90.00000000
_symmetry_Int_Tables_number   1
_chemical_formula_structural   H232Pd6C168N52O173F56
_chemical_formula_sum   'H928 Pd24 C672 N208 O692 F224'
_cell_volume   22178.12383838
_cell_formula_units_Z   4
loop_
 _symmetry_equiv_pos_site_id
 _symmetry_equiv_pos_as_xyz
  1  'x, y, z'
loop_
 _atom_site_type_symbol
 _atom_site_label
 _atom_site_symmetry_multiplicity
 _atom_site_fract_x
 _atom_site_fract_y
 _atom_site_fract_z
 _atom_site_occupancy
  H  H1  1  0.339600  0.972600  0.073700  1
  H  H2  1  0.160400  0.027400  0.573700  1
  H  H3  1  0.777400  0.589600  0.323700  1
  H  H4  1  0.722600  0.410400  0.823700  1
  H  H5  1  0.839600  0.472600  0.573700  1
  H  H6  1  0.660400  0.527400  0.073700  1
  H  H7  1  0.277400  0.089600  0.823700  1
  H  H8  1  0.222600  0.910400  0.323700  1
  H  H9  1  0.660400  0.027400  0.926300  1
  H  H10  1  0.839600  0.972600  0.426300  1
  H  H11  1  0.222600  0.410400  0.676300  1
  H  H12  1  0.277400  0.589600  0.176300  1
  H  H13  1  0.160400  0.527400  0.426300  1
  H  H14  1  0.339600  0.472600  0.926300  1
  H  H15  1  0.722600  0.910400  0.176300  1
  H  H16  1  0.777400  0.089600  0.676300  1
  H  H17  1  0.315800  0.004700  0.111500  1
  H  H18  1  0.184200  0.995300  0.611500  1
  H  H19  1  0.745300  0.565800  0.361500  1
  H  H20  1  0.754700  0.434200  0.861500  1
  H  H21  1  0.815800  0.504700  0.611500  1
  H  H22  1  0.684200  0.495300  0.111500  1
  H  H23  1  0.245300  0.065800  0.861500  1
  H  H24  1  0.254700  0.934200  0.361500  1
  H  H25  1  0.684200  0.995300  0.888500  1
  H  H26  1  0.815800  0.004700  0.388500  1
  H  H27  1  0.254700  0.434200  0.638500  1
  H  H28  1  0.245300  0.565800  0.138500  1
  H  H29  1  0.184200  0.495300  0.388500  1
  H  H30  1  0.315800  0.504700  0.888500  1
  H  H31  1  0.754700  0.934200  0.138500  1
  H  H32  1  0.745300  0.065800  0.638500  1
  H  H33  1  0.294200  0.011500  0.064900  1
  H  H34  1  0.205800  0.988500  0.564900  1
  H  H35  1  0.738500  0.544200  0.314900  1
  H  H36  1  0.761500  0.455800  0.814900  1
  H  H37  1  0.794200  0.511500  0.564900  1
  H  H38  1  0.705800  0.488500  0.064900  1
  H  H39  1  0.238500  0.044200  0.814900  1
  H  H40  1  0.261500  0.955800  0.314900  1
  H  H41  1  0.705800  0.988500  0.935100  1
  H  H42  1  0.794200  0.011500  0.435100  1
  H  H43  1  0.261500  0.455800  0.685100  1
  H  H44  1  0.238500  0.544200  0.185100  1
  H  H45  1  0.205800  0.488500  0.435100  1
  H  H46  1  0.294200  0.511500  0.935100  1
  H  H47  1  0.761500  0.955800  0.185100  1
  H  H48  1  0.738500  0.044200  0.685100  1
  H  H49  1  0.290200  0.920500  0.033700  1
  H  H50  1  0.209800  0.079500  0.533700  1
  H  H51  1  0.829500  0.540200  0.283700  1
  H  H52  1  0.670500  0.459800  0.783700  1
  H  H53  1  0.790200  0.420500  0.533700  1
  H  H54  1  0.709800  0.579500  0.033700  1
  H  H55  1  0.329500  0.040200  0.783700  1
  H  H56  1  0.170500  0.959800  0.283700  1
  H  H57  1  0.709800  0.079500  0.966300  1
  H  H58  1  0.790200  0.920500  0.466300  1
  H  H59  1  0.170500  0.459800  0.716300  1
  H  H60  1  0.329500  0.540200  0.216300  1
  H  H61  1  0.209800  0.579500  0.466300  1
  H  H62  1  0.290200  0.420500  0.966300  1
  H  H63  1  0.670500  0.959800  0.216300  1
  H  H64  1  0.829500  0.040200  0.716300  1
  H  H65  1  0.244900  0.960900  0.032800  1
  H  H66  1  0.255100  0.039100  0.532800  1
  H  H67  1  0.789100  0.494900  0.282800  1
  H  H68  1  0.710900  0.505100  0.782800  1
  H  H69  1  0.744900  0.460900  0.532800  1
  H  H70  1  0.755100  0.539100  0.032800  1
  H  H71  1  0.289100  0.994900  0.782800  1
  H  H72  1  0.210900  0.005100  0.282800  1
  H  H73  1  0.755100  0.039100  0.967200  1
  H  H74  1  0.744900  0.960900  0.467200  1
  H  H75  1  0.210900  0.505100  0.717200  1
  H  H76  1  0.289100  0.494900  0.217200  1
  H  H77  1  0.255100  0.539100  0.467200  1
  H  H78  1  0.244900  0.460900  0.967200  1
  H  H79  1  0.710900  0.005100  0.217200  1
  H  H80  1  0.789100  0.994900  0.717200  1
  H  H81  1  0.234200  0.903700  0.047200  1
  H  H82  1  0.265800  0.096300  0.547200  1
  H  H83  1  0.846300  0.484200  0.297200  1
  H  H84  1  0.653700  0.515800  0.797200  1
  H  H85  1  0.734200  0.403700  0.547200  1
  H  H86  1  0.765800  0.596300  0.047200  1
  H  H87  1  0.346300  0.984200  0.797200  1
  H  H88  1  0.153700  0.015800  0.297200  1
  H  H89  1  0.765800  0.096300  0.952800  1
  H  H90  1  0.734200  0.903700  0.452800  1
  H  H91  1  0.153700  0.515800  0.702800  1
  H  H92  1  0.346300  0.484200  0.202800  1
  H  H93  1  0.265800  0.596300  0.452800  1
  H  H94  1  0.234200  0.403700  0.952800  1
  H  H95  1  0.653700  0.015800  0.202800  1
  H  H96  1  0.846300  0.984200  0.702800  1
  H  H97  1  0.313400  0.883300  0.095000  1
  H  H98  1  0.186600  0.116700  0.595000  1
  H  H99  1  0.866700  0.563400  0.345000  1
  H  H100  1  0.633300  0.436600  0.845000  1
  H  H101  1  0.813400  0.383300  0.595000  1
  H  H102  1  0.686600  0.616700  0.095000  1
  H  H103  1  0.366700  0.063400  0.845000  1
  H  H104  1  0.133300  0.936600  0.345000  1
  H  H105  1  0.686600  0.116700  0.905000  1
  H  H106  1  0.813400  0.883300  0.405000  1
  H  H107  1  0.133300  0.436600  0.655000  1
  H  H108  1  0.366700  0.563400  0.155000  1
  H  H109  1  0.186600  0.616700  0.405000  1
  H  H110  1  0.313400  0.383300  0.905000  1
  H  H111  1  0.633300  0.936600  0.155000  1
  H  H112  1  0.866700  0.063400  0.655000  1
  H  H113  1  0.315300  0.916200  0.137300  1
  H  H114  1  0.184700  0.083800  0.637300  1
  H  H115  1  0.833800  0.565300  0.387300  1
  H  H116  1  0.666200  0.434700  0.887300  1
  H  H117  1  0.815300  0.416200  0.637300  1
  H  H118  1  0.684700  0.583800  0.137300  1
  H  H119  1  0.333800  0.065300  0.887300  1
  H  H120  1  0.166200  0.934700  0.387300  1
  H  H121  1  0.684700  0.083800  0.862700  1
  H  H122  1  0.815300  0.916200  0.362700  1
  H  H123  1  0.166200  0.434700  0.612700  1
  H  H124  1  0.333800  0.565300  0.112700  1
  H  H125  1  0.184700  0.583800  0.362700  1
  H  H126  1  0.315300  0.416200  0.862700  1
  H  H127  1  0.666200  0.934700  0.112700  1
  H  H128  1  0.833800  0.065300  0.612700  1
  H  H129  1  0.269800  0.848600  0.150600  1
  H  H130  1  0.230200  0.151400  0.650600  1
  H  H131  1  0.901400  0.519800  0.400600  1
  H  H132  1  0.598600  0.480200  0.900600  1
  H  H133  1  0.769800  0.348600  0.650600  1
  H  H134  1  0.730200  0.651400  0.150600  1
  H  H135  1  0.401400  0.019800  0.900600  1
  H  H136  1  0.098600  0.980200  0.400600  1
  H  H137  1  0.730200  0.151400  0.849400  1
  H  H138  1  0.769800  0.848600  0.349400  1
  H  H139  1  0.098600  0.480200  0.599400  1
  H  H140  1  0.401400  0.519800  0.099400  1
  H  H141  1  0.230200  0.651400  0.349400  1
  H  H142  1  0.269800  0.348600  0.849400  1
  H  H143  1  0.598600  0.980200  0.099400  1
  H  H144  1  0.901400  0.019800  0.599400  1
  H  H145  1  0.237700  0.855300  0.108600  1
  H  H146  1  0.262300  0.144700  0.608600  1
  H  H147  1  0.894700  0.487700  0.358600  1
  H  H148  1  0.605300  0.512300  0.858600  1
  H  H149  1  0.737700  0.355300  0.608600  1
  H  H150  1  0.762300  0.644700  0.108600  1
  H  H151  1  0.394700  0.987700  0.858600  1
  H  H152  1  0.105300  0.012300  0.358600  1
  H  H153  1  0.762300  0.144700  0.891400  1
  H  H154  1  0.737700  0.855300  0.391400  1
  H  H155  1  0.105300  0.512300  0.641400  1
  H  H156  1  0.394700  0.487700  0.141400  1
  H  H157  1  0.262300  0.644700  0.391400  1
  H  H158  1  0.237700  0.355300  0.891400  1
  H  H159  1  0.605300  0.012300  0.141400  1
  H  H160  1  0.894700  0.987700  0.641400  1
  H  H161  1  0.177700  0.837300  0.163100  1
  H  H162  1  0.322300  0.162700  0.663100  1
  H  H163  1  0.912700  0.427700  0.413100  1
  H  H164  1  0.587300  0.572300  0.913100  1
  H  H165  1  0.677700  0.337300  0.663100  1
  H  H166  1  0.822300  0.662700  0.163100  1
  H  H167  1  0.412700  0.927700  0.913100  1
  H  H168  1  0.087300  0.072300  0.413100  1
  H  H169  1  0.822300  0.162700  0.836900  1
  H  H170  1  0.677700  0.837300  0.336900  1
  H  H171  1  0.087300  0.572300  0.586900  1
  H  H172  1  0.412700  0.427700  0.086900  1
  H  H173  1  0.322300  0.662700  0.336900  1
  H  H174  1  0.177700  0.337300  0.836900  1
  H  H175  1  0.587300  0.072300  0.086900  1
  H  H176  1  0.912700  0.927700  0.586900  1
  H  H177  1  0.167100  0.864800  0.119200  1
  H  H178  1  0.332900  0.135200  0.619200  1
  H  H179  1  0.885200  0.417100  0.369200  1
  H  H180  1  0.614800  0.582900  0.869200  1
  H  H181  1  0.667100  0.364800  0.619200  1
  H  H182  1  0.832900  0.635200  0.119200  1
  H  H183  1  0.385200  0.917100  0.869200  1
  H  H184  1  0.114800  0.082900  0.369200  1
  H  H185  1  0.832900  0.135200  0.880800  1
  H  H186  1  0.667100  0.864800  0.380800  1
  H  H187  1  0.114800  0.582900  0.630800  1
  H  H188  1  0.385200  0.417100  0.130800  1
  H  H189  1  0.332900  0.635200  0.380800  1
  H  H190  1  0.167100  0.364800  0.880800  1
  H  H191  1  0.614800  0.082900  0.130800  1
  H  H192  1  0.885200  0.917100  0.630800  1
  H  H193  1  0.140000  0.884800  0.160900  1
  H  H194  1  0.360000  0.115200  0.660900  1
  H  H195  1  0.865200  0.390000  0.410900  1
  H  H196  1  0.634800  0.610000  0.910900  1
  H  H197  1  0.640000  0.384800  0.660900  1
  H  H198  1  0.860000  0.615200  0.160900  1
  H  H199  1  0.365200  0.890000  0.910900  1
  H  H200  1  0.134800  0.110000  0.410900  1
  H  H201  1  0.860000  0.115200  0.839100  1
  H  H202  1  0.640000  0.884800  0.339100  1
  H  H203  1  0.134800  0.610000  0.589100  1
  H  H204  1  0.365200  0.390000  0.089100  1
  H  H205  1  0.360000  0.615200  0.339100  1
  H  H206  1  0.140000  0.384800  0.839100  1
  H  H207  1  0.634800  0.110000  0.089100  1
  H  H208  1  0.865200  0.890000  0.589100  1
  H  H209  1  0.224300  0.890600  0.219200  1
  H  H210  1  0.275700  0.109400  0.719200  1
  H  H211  1  0.859400  0.474300  0.469200  1
  H  H212  1  0.640600  0.525700  0.969200  1
  H  H213  1  0.724300  0.390600  0.719200  1
  H  H214  1  0.775700  0.609400  0.219200  1
  H  H215  1  0.359400  0.974300  0.969200  1
  H  H216  1  0.140600  0.025700  0.469200  1
  H  H217  1  0.775700  0.109400  0.780800  1
  H  H218  1  0.724300  0.890600  0.280800  1
  H  H219  1  0.140600  0.525700  0.530800  1
  H  H220  1  0.359400  0.474300  0.030800  1
  H  H221  1  0.275700  0.609400  0.280800  1
  H  H222  1  0.224300  0.390600  0.780800  1
  H  H223  1  0.640600  0.025700  0.030800  1
  H  H224  1  0.859400  0.974300  0.530800  1
  H  H225  1  0.224400  0.949400  0.206900  1
  H  H226  1  0.275600  0.050600  0.706900  1
  H  H227  1  0.800600  0.474400  0.456900  1
  H  H228  1  0.699400  0.525600  0.956900  1
  H  H229  1  0.724400  0.449400  0.706900  1
  H  H230  1  0.775600  0.550600  0.206900  1
  H  H231  1  0.300600  0.974400  0.956900  1
  H  H232  1  0.199400  0.025600  0.456900  1
  H  H233  1  0.775600  0.050600  0.793100  1
  H  H234  1  0.724400  0.949400  0.293100  1
  H  H235  1  0.199400  0.525600  0.543100  1
  H  H236  1  0.300600  0.474400  0.043100  1
  H  H237  1  0.275600  0.550600  0.293100  1
  H  H238  1  0.224400  0.449400  0.793100  1
  H  H239  1  0.699400  0.025600  0.043100  1
  H  H240  1  0.800600  0.974400  0.543100  1
  H  H241  1  0.272300  0.914700  0.195800  1
  H  H242  1  0.227700  0.085300  0.695800  1
  H  H243  1  0.835300  0.522300  0.445800  1
  H  H244  1  0.664700  0.477700  0.945800  1
  H  H245  1  0.772300  0.414700  0.695800  1
  H  H246  1  0.727700  0.585300  0.195800  1
  H  H247  1  0.335300  0.022300  0.945800  1
  H  H248  1  0.164700  0.977700  0.445800  1
  H  H249  1  0.727700  0.085300  0.804200  1
  H  H250  1  0.772300  0.914700  0.304200  1
  H  H251  1  0.164700  0.477700  0.554200  1
  H  H252  1  0.335300  0.522300  0.054200  1
  H  H253  1  0.227700  0.585300  0.304200  1
  H  H254  1  0.272300  0.414700  0.804200  1
  H  H255  1  0.664700  0.977700  0.054200  1
  H  H256  1  0.835300  0.022300  0.554200  1
  H  H257  1  0.236100  0.157200  0.208100  1.0
  H  H258  1  0.263900  0.842800  0.708100  1.0
  H  H259  1  0.592800  0.486100  0.458100  1.0
  H  H260  1  0.907200  0.513900  0.958100  1.0
  H  H261  1  0.736100  0.657200  0.708100  1.0
  H  H262  1  0.763900  0.342800  0.208100  1.0
  H  H263  1  0.092800  0.986100  0.958100  1.0
  H  H264  1  0.407200  0.013900  0.458100  1.0
  H  H265  1  0.763900  0.842800  0.791900  1.0
  H  H266  1  0.736100  0.157200  0.291900  1.0
  H  H267  1  0.407200  0.513900  0.541900  1.0
  H  H268  1  0.092800  0.486100  0.041900  1.0
  H  H269  1  0.263900  0.342800  0.291900  1.0
  H  H270  1  0.236100  0.657200  0.791900  1.0
  H  H271  1  0.907200  0.013900  0.041900  1.0
  H  H272  1  0.592800  0.986100  0.541900  1.0
  H  H273  1  0.239500  0.237500  0.183000  1.0
  H  H274  1  0.260500  0.762500  0.683000  1.0
  H  H275  1  0.512500  0.489500  0.433000  1.0
  H  H276  1  0.987500  0.510500  0.933000  1.0
  H  H277  1  0.739500  0.737500  0.683000  1.0
  H  H278  1  0.760500  0.262500  0.183000  1.0
  H  H279  1  0.012500  0.989500  0.933000  1.0
  H  H280  1  0.487500  0.010500  0.433000  1.0
  H  H281  1  0.760500  0.762500  0.817000  1.0
  H  H282  1  0.739500  0.237500  0.317000  1.0
  H  H283  1  0.487500  0.510500  0.567000  1.0
  H  H284  1  0.012500  0.489500  0.067000  1.0
  H  H285  1  0.260500  0.262500  0.317000  1.0
  H  H286  1  0.239500  0.737500  0.817000  1.0
  H  H287  1  0.987500  0.010500  0.067000  1.0
  H  H288  1  0.512500  0.989500  0.567000  1.0
  H  H289  1  0.216800  0.235200  0.229700  1.0
  H  H290  1  0.283200  0.764800  0.729700  1.0
  H  H291  1  0.514800  0.466800  0.479700  1.0
  H  H292  1  0.985200  0.533200  0.979700  1.0
  H  H293  1  0.716800  0.735200  0.729700  1.0
  H  H294  1  0.783200  0.264800  0.229700  1.0
  H  H295  1  0.014800  0.966800  0.979700  1.0
  H  H296  1  0.485200  0.033200  0.479700  1.0
  H  H297  1  0.783200  0.764800  0.770300  1.0
  H  H298  1  0.716800  0.235200  0.270300  1.0
  H  H299  1  0.485200  0.533200  0.520300  1.0
  H  H300  1  0.014800  0.466800  0.020300  1.0
  H  H301  1  0.283200  0.264800  0.270300  1.0
  H  H302  1  0.216800  0.735200  0.770300  1.0
  H  H303  1  0.985200  0.033200  0.020300  1.0
  H  H304  1  0.514800  0.966800  0.520300  1.0
  H  H305  1  0.830500  0.229100  0.246000  1.0
  H  H306  1  0.669500  0.770900  0.746000  1.0
  H  H307  1  0.520900  0.080500  0.496000  1.0
  H  H308  1  0.979100  0.919500  0.996000  1.0
  H  H309  1  0.330500  0.729100  0.746000  1.0
  H  H310  1  0.169500  0.270900  0.246000  1.0
  H  H311  1  0.020900  0.580500  0.996000  1.0
  H  H312  1  0.479100  0.419500  0.496000  1.0
  H  H313  1  0.169500  0.770900  0.754000  1.0
  H  H314  1  0.330500  0.229100  0.254000  1.0
  H  H315  1  0.479100  0.919500  0.504000  1.0
  H  H316  1  0.020900  0.080500  0.004000  1.0
  H  H317  1  0.669500  0.270900  0.254000  1.0
  H  H318  1  0.830500  0.729100  0.754000  1.0
  H  H319  1  0.979100  0.419500  0.004000  1.0
  H  H320  1  0.520900  0.580500  0.504000  1.0
  H  H321  1  0.804600  0.281600  0.232300  1.0
  H  H322  1  0.695400  0.718400  0.732300  1.0
  H  H323  1  0.468400  0.054600  0.482300  1.0
  H  H324  1  0.031600  0.945400  0.982300  1.0
  H  H325  1  0.304600  0.781600  0.732300  1.0
  H  H326  1  0.195400  0.218400  0.232300  1.0
  H  H327  1  0.968400  0.554600  0.982300  1.0
  H  H328  1  0.531600  0.445400  0.482300  1.0
  H  H329  1  0.195400  0.718400  0.767700  1.0
  H  H330  1  0.304600  0.281600  0.267700  1.0
  H  H331  1  0.531600  0.945400  0.517700  1.0
  H  H332  1  0.968400  0.054600  0.017700  1.0
  H  H333  1  0.695400  0.218400  0.267700  1.0
  H  H334  1  0.804600  0.781600  0.767700  1.0
  H  H335  1  0.031600  0.445400  0.017700  1.0
  H  H336  1  0.468400  0.554600  0.517700  1.0
  H  H337  1  0.764300  0.243400  0.185600  1.0
  H  H338  1  0.735700  0.756600  0.685600  1.0
  H  H339  1  0.506600  0.014300  0.435600  1.0
  H  H340  1  0.993400  0.985700  0.935600  1.0
  H  H341  1  0.264300  0.743400  0.685600  1.0
  H  H342  1  0.235700  0.256600  0.185600  1.0
  H  H343  1  0.006600  0.514300  0.935600  1.0
  H  H344  1  0.493400  0.485700  0.435600  1.0
  H  H345  1  0.235700  0.756600  0.814400  1.0
  H  H346  1  0.264300  0.243400  0.314400  1.0
  H  H347  1  0.493400  0.985700  0.564400  1.0
  H  H348  1  0.006600  0.014300  0.064400  1.0
  H  H349  1  0.735700  0.256600  0.314400  1.0
  H  H350  1  0.764300  0.743400  0.814400  1.0
  H  H351  1  0.993400  0.485700  0.064400  1.0
  H  H352  1  0.506600  0.514300  0.564400  1.0
  H  H353  1  0.345400  0.959800  0.094600  1.0
  H  H354  1  0.154600  0.040200  0.594600  1.0
  H  H355  1  0.790200  0.595400  0.344600  1.0
  H  H356  1  0.709800  0.404600  0.844600  1.0
  H  H357  1  0.845400  0.459800  0.594600  1.0
  H  H358  1  0.654600  0.540200  0.094600  1.0
  H  H359  1  0.290200  0.095400  0.844600  1.0
  H  H360  1  0.209800  0.904600  0.344600  1.0
  H  H361  1  0.654600  0.040200  0.905400  1.0
  H  H362  1  0.845400  0.959800  0.405400  1.0
  H  H363  1  0.209800  0.404600  0.655400  1.0
  H  H364  1  0.290200  0.595400  0.155400  1.0
  H  H365  1  0.154600  0.540200  0.405400  1.0
  H  H366  1  0.345400  0.459800  0.905400  1.0
  H  H367  1  0.709800  0.904600  0.155400  1.0
  H  H368  1  0.790200  0.095400  0.655400  1.0
  H  H369  1  0.318800  0.962700  0.139600  1.0
  H  H370  1  0.181200  0.037300  0.639600  1.0
  H  H371  1  0.787300  0.568800  0.389600  1.0
  H  H372  1  0.712700  0.431200  0.889600  1.0
  H  H373  1  0.818800  0.462700  0.639600  1.0
  H  H374  1  0.681200  0.537300  0.139600  1.0
  H  H375  1  0.287300  0.068800  0.889600  1.0
  H  H376  1  0.212700  0.931200  0.389600  1.0
  H  H377  1  0.681200  0.037300  0.860400  1.0
  H  H378  1  0.818800  0.962700  0.360400  1.0
  H  H379  1  0.212700  0.431200  0.610400  1.0
  H  H380  1  0.287300  0.568800  0.110400  1.0
  H  H381  1  0.181200  0.537300  0.360400  1.0
  H  H382  1  0.318800  0.462700  0.860400  1.0
  H  H383  1  0.712700  0.931200  0.110400  1.0
  H  H384  1  0.787300  0.068800  0.610400  1.0
  H  H385  1  0.311500  0.007900  0.106600  1.0
  H  H386  1  0.188500  0.992100  0.606600  1.0
  H  H387  1  0.742100  0.561500  0.356600  1.0
  H  H388  1  0.757900  0.438500  0.856600  1.0
  H  H389  1  0.811500  0.507900  0.606600  1.0
  H  H390  1  0.688500  0.492100  0.106600  1.0
  H  H391  1  0.242100  0.061500  0.856600  1.0
  H  H392  1  0.257900  0.938500  0.356600  1.0
  H  H393  1  0.688500  0.992100  0.893400  1.0
  H  H394  1  0.811500  0.007900  0.393400  1.0
  H  H395  1  0.257900  0.438500  0.643400  1.0
  H  H396  1  0.242100  0.561500  0.143400  1.0
  H  H397  1  0.188500  0.492100  0.393400  1.0
  H  H398  1  0.311500  0.507900  0.893400  1.0
  H  H399  1  0.757900  0.938500  0.143400  1.0
  H  H400  1  0.742100  0.061500  0.643400  1.0
  H  H401  1  0.265200  0.984900  0.041500  1.0
  H  H402  1  0.234800  0.015100  0.541500  1.0
  H  H403  1  0.765100  0.515200  0.291500  1.0
  H  H404  1  0.734900  0.484800  0.791500  1.0
  H  H405  1  0.765200  0.484900  0.541500  1.0
  H  H406  1  0.734800  0.515100  0.041500  1.0
  H  H407  1  0.265100  0.015200  0.791500  1.0
  H  H408  1  0.234900  0.984800  0.291500  1.0
  H  H409  1  0.734800  0.015100  0.958500  1.0
  H  H410  1  0.765200  0.984900  0.458500  1.0
  H  H411  1  0.234900  0.484800  0.708500  1.0
  H  H412  1  0.265100  0.515200  0.208500  1.0
  H  H413  1  0.234800  0.515100  0.458500  1.0
  H  H414  1  0.265200  0.484900  0.958500  1.0
  H  H415  1  0.734900  0.984800  0.208500  1.0
  H  H416  1  0.765100  0.015200  0.708500  1.0
  H  H417  1  0.232600  0.933700  0.041700  1.0
  H  H418  1  0.267400  0.066300  0.541700  1.0
  H  H419  1  0.816300  0.482600  0.291700  1.0
  H  H420  1  0.683700  0.517400  0.791700  1.0
  H  H421  1  0.732600  0.433700  0.541700  1.0
  H  H422  1  0.767400  0.566300  0.041700  1.0
  H  H423  1  0.316300  0.982600  0.791700  1.0
  H  H424  1  0.183700  0.017400  0.291700  1.0
  H  H425  1  0.767400  0.066300  0.958300  1.0
  H  H426  1  0.732600  0.933700  0.458300  1.0
  H  H427  1  0.183700  0.517400  0.708300  1.0
  H  H428  1  0.316300  0.482600  0.208300  1.0
  H  H429  1  0.267400  0.566300  0.458300  1.0
  H  H430  1  0.232600  0.433700  0.958300  1.0
  H  H431  1  0.683700  0.017400  0.208300  1.0
  H  H432  1  0.816300  0.982600  0.708300  1.0
  H  H433  1  0.292900  0.931300  0.036200  1.0
  H  H434  1  0.207100  0.068700  0.536200  1.0
  H  H435  1  0.818700  0.542900  0.286200  1.0
  H  H436  1  0.681300  0.457100  0.786200  1.0
  H  H437  1  0.792900  0.431300  0.536200  1.0
  H  H438  1  0.707100  0.568700  0.036200  1.0
  H  H439  1  0.318700  0.042900  0.786200  1.0
  H  H440  1  0.181300  0.957100  0.286200  1.0
  H  H441  1  0.707100  0.068700  0.963800  1.0
  H  H442  1  0.792900  0.931300  0.463800  1.0
  H  H443  1  0.181300  0.457100  0.713800  1.0
  H  H444  1  0.318700  0.542900  0.213800  1.0
  H  H445  1  0.207100  0.568700  0.463800  1.0
  H  H446  1  0.292900  0.431300  0.963800  1.0
  H  H447  1  0.681300  0.957100  0.213800  1.0
  H  H448  1  0.818700  0.042900  0.713800  1.0
  H  H449  1  0.243100  0.870400  0.087500  1.0
  H  H450  1  0.256900  0.129600  0.587500  1.0
  H  H451  1  0.879600  0.493100  0.337500  1.0
  H  H452  1  0.620400  0.506900  0.837500  1.0
  H  H453  1  0.743100  0.370400  0.587500  1.0
  H  H454  1  0.756900  0.629600  0.087500  1.0
  H  H455  1  0.379600  0.993100  0.837500  1.0
  H  H456  1  0.120400  0.006900  0.337500  1.0
  H  H457  1  0.756900  0.129600  0.912500  1.0
  H  H458  1  0.743100  0.870400  0.412500  1.0
  H  H459  1  0.120400  0.506900  0.662500  1.0
  H  H460  1  0.379600  0.493100  0.162500  1.0
  H  H461  1  0.256900  0.629600  0.412500  1.0
  H  H462  1  0.243100  0.370400  0.912500  1.0
  H  H463  1  0.620400  0.006900  0.162500  1.0
  H  H464  1  0.879600  0.993100  0.662500  1.0
  H  H465  1  0.303200  0.872200  0.095600  1.0
  H  H466  1  0.196800  0.127800  0.595600  1.0
  H  H467  1  0.877800  0.553200  0.345600  1.0
  H  H468  1  0.622200  0.446800  0.845600  1.0
  H  H469  1  0.803200  0.372200  0.595600  1.0
  H  H470  1  0.696800  0.627800  0.095600  1.0
  H  H471  1  0.377800  0.053200  0.845600  1.0
  H  H472  1  0.122200  0.946800  0.345600  1.0
  H  H473  1  0.696800  0.127800  0.904400  1.0
  H  H474  1  0.803200  0.872200  0.404400  1.0
  H  H475  1  0.122200  0.446800  0.654400  1.0
  H  H476  1  0.377800  0.553200  0.154400  1.0
  H  H477  1  0.196800  0.627800  0.404400  1.0
  H  H478  1  0.303200  0.372200  0.904400  1.0
  H  H479  1  0.622200  0.946800  0.154400  1.0
  H  H480  1  0.877800  0.053200  0.654400  1.0
  H  H481  1  0.262100  0.845900  0.159500  1.0
  H  H482  1  0.237900  0.154100  0.659500  1.0
  H  H483  1  0.904100  0.512100  0.409500  1.0
  H  H484  1  0.595900  0.487900  0.909500  1.0
  H  H485  1  0.762100  0.345900  0.659500  1.0
  H  H486  1  0.737900  0.654100  0.159500  1.0
  H  H487  1  0.404100  0.012100  0.909500  1.0
  H  H488  1  0.095900  0.987900  0.409500  1.0
  H  H489  1  0.737900  0.154100  0.840500  1.0
  H  H490  1  0.762100  0.845900  0.340500  1.0
  H  H491  1  0.095900  0.487900  0.590500  1.0
  H  H492  1  0.404100  0.512100  0.090500  1.0
  H  H493  1  0.237900  0.654100  0.340500  1.0
  H  H494  1  0.262100  0.345900  0.840500  1.0
  H  H495  1  0.595900  0.987900  0.090500  1.0
  H  H496  1  0.904100  0.012100  0.590500  1.0
  H  H497  1  0.286900  0.901000  0.167200  1.0
  H  H498  1  0.213100  0.099000  0.667200  1.0
  H  H499  1  0.849000  0.536900  0.417200  1.0
  H  H500  1  0.651000  0.463100  0.917200  1.0
  H  H501  1  0.786900  0.401000  0.667200  1.0
  H  H502  1  0.713100  0.599000  0.167200  1.0
  H  H503  1  0.349000  0.036900  0.917200  1.0
  H  H504  1  0.151000  0.963100  0.417200  1.0
  H  H505  1  0.713100  0.099000  0.832800  1.0
  H  H506  1  0.786900  0.901000  0.332800  1.0
  H  H507  1  0.151000  0.463100  0.582800  1.0
  H  H508  1  0.349000  0.536900  0.082800  1.0
  H  H509  1  0.213100  0.599000  0.332800  1.0
  H  H510  1  0.286900  0.401000  0.832800  1.0
  H  H511  1  0.651000  0.963100  0.082800  1.0
  H  H512  1  0.849000  0.036900  0.582800  1.0
  H  H513  1  0.158400  0.874500  0.113800  1.0
  H  H514  1  0.341600  0.125500  0.613800  1.0
  H  H515  1  0.875500  0.408400  0.363800  1.0
  H  H516  1  0.624500  0.591600  0.863800  1.0
  H  H517  1  0.658400  0.374500  0.613800  1.0
  H  H518  1  0.841600  0.625500  0.113800  1.0
  H  H519  1  0.375500  0.908400  0.863800  1.0
  H  H520  1  0.124500  0.091600  0.363800  1.0
  H  H521  1  0.841600  0.125500  0.886200  1.0
  H  H522  1  0.658400  0.874500  0.386200  1.0
  H  H523  1  0.124500  0.591600  0.636200  1.0
  H  H524  1  0.375500  0.408400  0.136200  1.0
  H  H525  1  0.341600  0.625500  0.386200  1.0
  H  H526  1  0.158400  0.374500  0.886200  1.0
  H  H527  1  0.624500  0.091600  0.136200  1.0
  H  H528  1  0.875500  0.908400  0.636200  1.0
  H  H529  1  0.133000  0.890700  0.157300  1.0
  H  H530  1  0.367000  0.109300  0.657300  1.0
  H  H531  1  0.859300  0.383000  0.407300  1.0
  H  H532  1  0.640700  0.617000  0.907300  1.0
  H  H533  1  0.633000  0.390700  0.657300  1.0
  H  H534  1  0.867000  0.609300  0.157300  1.0
  H  H535  1  0.359300  0.883000  0.907300  1.0
  H  H536  1  0.140700  0.117000  0.407300  1.0
  H  H537  1  0.867000  0.109300  0.842700  1.0
  H  H538  1  0.633000  0.890700  0.342700  1.0
  H  H539  1  0.140700  0.617000  0.592700  1.0
  H  H540  1  0.359300  0.383000  0.092700  1.0
  H  H541  1  0.367000  0.609300  0.342700  1.0
  H  H542  1  0.133000  0.390700  0.842700  1.0
  H  H543  1  0.640700  0.117000  0.092700  1.0
  H  H544  1  0.859300  0.883000  0.592700  1.0
  H  H545  1  0.164100  0.838800  0.154100  1.0
  H  H546  1  0.335900  0.161200  0.654100  1.0
  H  H547  1  0.911200  0.414100  0.404100  1.0
  H  H548  1  0.588800  0.585900  0.904100  1.0
  H  H549  1  0.664100  0.338800  0.654100  1.0
  H  H550  1  0.835900  0.661200  0.154100  1.0
  H  H551  1  0.411200  0.914100  0.904100  1.0
  H  H552  1  0.088800  0.085900  0.404100  1.0
  H  H553  1  0.835900  0.161200  0.845900  1.0
  H  H554  1  0.664100  0.838800  0.345900  1.0
  H  H555  1  0.088800  0.585900  0.595900  1.0
  H  H556  1  0.411200  0.414100  0.095900  1.0
  H  H557  1  0.335900  0.661200  0.345900  1.0
  H  H558  1  0.164100  0.338800  0.845900  1.0
  H  H559  1  0.588800  0.085900  0.095900  1.0
  H  H560  1  0.911200  0.914100  0.595900  1.0
  H  H561  1  0.170600  0.922500  0.210700  1.0
  H  H562  1  0.329400  0.077500  0.710700  1.0
  H  H563  1  0.827500  0.420600  0.460700  1.0
  H  H564  1  0.672500  0.579400  0.960700  1.0
  H  H565  1  0.670600  0.422500  0.710700  1.0
  H  H566  1  0.829400  0.577500  0.210700  1.0
  H  H567  1  0.327500  0.920600  0.960700  1.0
  H  H568  1  0.172500  0.079400  0.460700  1.0
  H  H569  1  0.829400  0.077500  0.789300  1.0
  H  H570  1  0.670600  0.922500  0.289300  1.0
  H  H571  1  0.172500  0.579400  0.539300  1.0
  H  H572  1  0.327500  0.420600  0.039300  1.0
  H  H573  1  0.329400  0.577500  0.289300  1.0
  H  H574  1  0.170600  0.422500  0.789300  1.0
  H  H575  1  0.672500  0.079400  0.039300  1.0
  H  H576  1  0.827500  0.920600  0.539300  1.0
  H  H577  1  0.230200  0.931600  0.216500  1.0
  H  H578  1  0.269800  0.068400  0.716500  1.0
  H  H579  1  0.818400  0.480200  0.466500  1.0
  H  H580  1  0.681600  0.519800  0.966500  1.0
  H  H581  1  0.730200  0.431600  0.716500  1.0
  H  H582  1  0.769800  0.568400  0.216500  1.0
  H  H583  1  0.318400  0.980200  0.966500  1.0
  H  H584  1  0.181600  0.019800  0.466500  1.0
  H  H585  1  0.769800  0.068400  0.783500  1.0
  H  H586  1  0.730200  0.931600  0.283500  1.0
  H  H587  1  0.181600  0.519800  0.533500  1.0
  H  H588  1  0.318400  0.480200  0.033500  1.0
  H  H589  1  0.269800  0.568400  0.283500  1.0
  H  H590  1  0.230200  0.431600  0.783500  1.0
  H  H591  1  0.681600  0.019800  0.033500  1.0
  H  H592  1  0.818400  0.980200  0.533500  1.0
  H  H593  1  0.207600  0.875300  0.218600  1.0
  H  H594  1  0.292400  0.124700  0.718600  1.0
  H  H595  1  0.874700  0.457600  0.468600  1.0
  H  H596  1  0.625300  0.542400  0.968600  1.0
  H  H597  1  0.707600  0.375300  0.718600  1.0
  H  H598  1  0.792400  0.624700  0.218600  1.0
  H  H599  1  0.374700  0.957600  0.968600  1.0
  H  H600  1  0.125300  0.042400  0.468600  1.0
  H  H601  1  0.792400  0.124700  0.781400  1.0
  H  H602  1  0.707600  0.875300  0.281400  1.0
  H  H603  1  0.125300  0.542400  0.531400  1.0
  H  H604  1  0.374700  0.457600  0.031400  1.0
  H  H605  1  0.292400  0.624700  0.281400  1.0
  H  H606  1  0.207600  0.375300  0.781400  1.0
  H  H607  1  0.625300  0.042400  0.031400  1.0
  H  H608  1  0.874700  0.957600  0.531400  1.0
  H  H609  1  0.160500  0.011600  0.047200  1.0
  H  H610  1  0.339500  0.988400  0.547200  1.0
  H  H611  1  0.738400  0.410500  0.297200  1.0
  H  H612  1  0.761600  0.589500  0.797200  1.0
  H  H613  1  0.660500  0.511600  0.547200  1.0
  H  H614  1  0.839500  0.488400  0.047200  1.0
  H  H615  1  0.238400  0.910500  0.797200  1.0
  H  H616  1  0.261600  0.089500  0.297200  1.0
  H  H617  1  0.839500  0.988400  0.952800  1.0
  H  H618  1  0.660500  0.011600  0.452800  1.0
  H  H619  1  0.261600  0.589500  0.702800  1.0
  H  H620  1  0.238400  0.410500  0.202800  1.0
  H  H621  1  0.339500  0.488400  0.452800  1.0
  H  H622  1  0.160500  0.511600  0.952800  1.0
  H  H623  1  0.761600  0.089500  0.202800  1.0
  H  H624  1  0.738400  0.910500  0.702800  1.0
  H  H625  1  0.146300  0.088400  0.015100  1.0
  H  H626  1  0.353700  0.911600  0.515100  1.0
  H  H627  1  0.661600  0.396300  0.265100  1.0
  H  H628  1  0.838400  0.603700  0.765100  1.0
  H  H629  1  0.646300  0.588400  0.515100  1.0
  H  H630  1  0.853700  0.411600  0.015100  1.0
  H  H631  1  0.161600  0.896300  0.765100  1.0
  H  H632  1  0.338400  0.103700  0.265100  1.0
  H  H633  1  0.853700  0.911600  0.984900  1.0
  H  H634  1  0.646300  0.088400  0.484900  1.0
  H  H635  1  0.338400  0.603700  0.734900  1.0
  H  H636  1  0.161600  0.396300  0.234900  1.0
  H  H637  1  0.353700  0.411600  0.484900  1.0
  H  H638  1  0.146300  0.588400  0.984900  1.0
  H  H639  1  0.838400  0.103700  0.234900  1.0
  H  H640  1  0.661600  0.896300  0.734900  1.0
  H  H641  1  0.231500  0.155700  0.104800  1.0
  H  H642  1  0.268500  0.844300  0.604800  1.0
  H  H643  1  0.594300  0.481500  0.354800  1.0
  H  H644  1  0.905700  0.518500  0.854800  1.0
  H  H645  1  0.731500  0.655700  0.604800  1.0
  H  H646  1  0.768500  0.344300  0.104800  1.0
  H  H647  1  0.094300  0.981500  0.854800  1.0
  H  H648  1  0.405700  0.018500  0.354800  1.0
  H  H649  1  0.768500  0.844300  0.895200  1.0
  H  H650  1  0.731500  0.155700  0.395200  1.0
  H  H651  1  0.405700  0.518500  0.645200  1.0
  H  H652  1  0.094300  0.481500  0.145200  1.0
  H  H653  1  0.268500  0.344300  0.395200  1.0
  H  H654  1  0.231500  0.655700  0.895200  1.0
  H  H655  1  0.905700  0.018500  0.145200  1.0
  H  H656  1  0.594300  0.981500  0.645200  1.0
  H  H657  1  0.242800  0.077500  0.135100  1.0
  H  H658  1  0.257200  0.922500  0.635100  1.0
  H  H659  1  0.672500  0.492800  0.385100  1.0
  H  H660  1  0.827500  0.507200  0.885100  1.0
  H  H661  1  0.742800  0.577500  0.635100  1.0
  H  H662  1  0.757200  0.422500  0.135100  1.0
  H  H663  1  0.172500  0.992800  0.885100  1.0
  H  H664  1  0.327500  0.007200  0.385100  1.0
  H  H665  1  0.757200  0.922500  0.864900  1.0
  H  H666  1  0.742800  0.077500  0.364900  1.0
  H  H667  1  0.327500  0.507200  0.614900  1.0
  H  H668  1  0.172500  0.492800  0.114900  1.0
  H  H669  1  0.257200  0.422500  0.364900  1.0
  H  H670  1  0.242800  0.577500  0.864900  1.0
  H  H671  1  0.827500  0.007200  0.114900  1.0
  H  H672  1  0.672500  0.992800  0.614900  1.0
  H  H673  1  0.047100  0.166800  0.880600  1.0
  H  H674  1  0.452900  0.833200  0.380600  1.0
  H  H675  1  0.583200  0.297100  0.130600  1.0
  H  H676  1  0.916800  0.702900  0.630600  1.0
  H  H677  1  0.547100  0.666800  0.380600  1.0
  H  H678  1  0.952900  0.333200  0.880600  1.0
  H  H679  1  0.083200  0.797100  0.630600  1.0
  H  H680  1  0.416800  0.202900  0.130600  1.0
  H  H681  1  0.952900  0.833200  0.119400  1.0
  H  H682  1  0.547100  0.166800  0.619400  1.0
  H  H683  1  0.416800  0.702900  0.869400  1.0
  H  H684  1  0.083200  0.297100  0.369400  1.0
  H  H685  1  0.452900  0.333200  0.619400  1.0
  H  H686  1  0.047100  0.666800  0.119400  1.0
  H  H687  1  0.916800  0.202900  0.369400  1.0
  H  H688  1  0.583200  0.797100  0.869400  1.0
  H  H689  1  0.097800  0.157300  0.938500  1.0
  H  H690  1  0.402200  0.842700  0.438500  1.0
  H  H691  1  0.592700  0.347800  0.188500  1.0
  H  H692  1  0.907300  0.652200  0.688500  1.0
  H  H693  1  0.597800  0.657300  0.438500  1.0
  H  H694  1  0.902200  0.342700  0.938500  1.0
  H  H695  1  0.092700  0.847800  0.688500  1.0
  H  H696  1  0.407300  0.152200  0.188500  1.0
  H  H697  1  0.902200  0.842700  0.061500  1.0
  H  H698  1  0.597800  0.157300  0.561500  1.0
  H  H699  1  0.407300  0.652200  0.811500  1.0
  H  H700  1  0.092700  0.347800  0.311500  1.0
  H  H701  1  0.402200  0.342700  0.561500  1.0
  H  H702  1  0.097800  0.657300  0.061500  1.0
  H  H703  1  0.907300  0.152200  0.311500  1.0
  H  H704  1  0.592700  0.847800  0.811500  1.0
  H  H705  1  0.118100  0.309500  0.940600  1.0
  H  H706  1  0.381900  0.690500  0.440600  1.0
  H  H707  1  0.440500  0.368100  0.190600  1.0
  H  H708  1  0.059500  0.631900  0.690600  1.0
  H  H709  1  0.618100  0.809500  0.440600  1.0
  H  H710  1  0.881900  0.190500  0.940600  1.0
  H  H711  1  0.940500  0.868100  0.690600  1.0
  H  H712  1  0.559500  0.131900  0.190600  1.0
  H  H713  1  0.881900  0.690500  0.059400  1.0
  H  H714  1  0.618100  0.309500  0.559400  1.0
  H  H715  1  0.559500  0.631900  0.809400  1.0
  H  H716  1  0.940500  0.368100  0.309400  1.0
  H  H717  1  0.381900  0.190500  0.559400  1.0
  H  H718  1  0.118100  0.809500  0.059400  1.0
  H  H719  1  0.059500  0.131900  0.309400  1.0
  H  H720  1  0.440500  0.868100  0.809400  1.0
  H  H721  1  0.066200  0.315700  0.882100  1.0
  H  H722  1  0.433800  0.684300  0.382100  1.0
  H  H723  1  0.434300  0.316200  0.132100  1.0
  H  H724  1  0.065700  0.683800  0.632100  1.0
  H  H725  1  0.566200  0.815700  0.382100  1.0
  H  H726  1  0.933800  0.184300  0.882100  1.0
  H  H727  1  0.934300  0.816200  0.632100  1.0
  H  H728  1  0.565700  0.183800  0.132100  1.0
  H  H729  1  0.933800  0.684300  0.117900  1.0
  H  H730  1  0.566200  0.315700  0.617900  1.0
  H  H731  1  0.565700  0.683800  0.867900  1.0
  H  H732  1  0.934300  0.316200  0.367900  1.0
  H  H733  1  0.433800  0.184300  0.617900  1.0
  H  H734  1  0.066200  0.815700  0.117900  1.0
  H  H735  1  0.065700  0.183800  0.367900  1.0
  H  H736  1  0.434300  0.816200  0.867900  1.0
  H  H737  1  0.286700  0.346300  0.130700  1.0
  H  H738  1  0.213300  0.653700  0.630700  1.0
  H  H739  1  0.403700  0.536700  0.380700  1.0
  H  H740  1  0.096300  0.463300  0.880700  1.0
  H  H741  1  0.786700  0.846300  0.630700  1.0
  H  H742  1  0.713300  0.153700  0.130700  1.0
  H  H743  1  0.903700  0.036700  0.880700  1.0
  H  H744  1  0.596300  0.963300  0.380700  1.0
  H  H745  1  0.713300  0.653700  0.869300  1.0
  H  H746  1  0.786700  0.346300  0.369300  1.0
  H  H747  1  0.596300  0.463300  0.619300  1.0
  H  H748  1  0.903700  0.536700  0.119300  1.0
  H  H749  1  0.213300  0.153700  0.369300  1.0
  H  H750  1  0.286700  0.846300  0.869300  1.0
  H  H751  1  0.096300  0.963300  0.119300  1.0
  H  H752  1  0.403700  0.036700  0.619300  1.0
  H  H753  1  0.251400  0.273900  0.101500  1.0
  H  H754  1  0.248600  0.726100  0.601500  1.0
  H  H755  1  0.476100  0.501400  0.351500  1.0
  H  H756  1  0.023900  0.498600  0.851500  1.0
  H  H757  1  0.751400  0.773900  0.601500  1.0
  H  H758  1  0.748600  0.226100  0.101500  1.0
  H  H759  1  0.976100  0.001400  0.851500  1.0
  H  H760  1  0.523900  0.998600  0.351500  1.0
  H  H761  1  0.748600  0.726100  0.898500  1.0
  H  H762  1  0.751400  0.273900  0.398500  1.0
  H  H763  1  0.523900  0.498600  0.648500  1.0
  H  H764  1  0.976100  0.501400  0.148500  1.0
  H  H765  1  0.248600  0.226100  0.398500  1.0
  H  H766  1  0.251400  0.773900  0.898500  1.0
  H  H767  1  0.023900  0.998600  0.148500  1.0
  H  H768  1  0.476100  0.001400  0.648500  1.0
  H  H769  1  0.182400  0.363100  0.015800  1.0
  H  H770  1  0.317600  0.636900  0.515800  1.0
  H  H771  1  0.386900  0.432400  0.265800  1.0
  H  H772  1  0.113100  0.567600  0.765800  1.0
  H  H773  1  0.682400  0.863100  0.515800  1.0
  H  H774  1  0.817600  0.136900  0.015800  1.0
  H  H775  1  0.886900  0.932400  0.765800  1.0
  H  H776  1  0.613100  0.067600  0.265800  1.0
  H  H777  1  0.817600  0.636900  0.984200  1.0
  H  H778  1  0.682400  0.363100  0.484200  1.0
  H  H779  1  0.613100  0.567600  0.734200  1.0
  H  H780  1  0.886900  0.432400  0.234200  1.0
  H  H781  1  0.317600  0.136900  0.484200  1.0
  H  H782  1  0.182400  0.863100  0.984200  1.0
  H  H783  1  0.113100  0.067600  0.234200  1.0
  H  H784  1  0.386900  0.932400  0.734200  1.0
  H  H785  1  0.044900  0.245100  0.718000  1.0
  H  H786  1  0.455100  0.754900  0.218000  1.0
  H  H787  1  0.504900  0.294900  0.968000  1.0
  H  H788  1  0.995100  0.705100  0.468000  1.0
  H  H789  1  0.544900  0.745100  0.218000  1.0
  H  H790  1  0.955100  0.254900  0.718000  1.0
  H  H791  1  0.004900  0.794900  0.468000  1.0
  H  H792  1  0.495100  0.205100  0.968000  1.0
  H  H793  1  0.955100  0.754900  0.282000  1.0
  H  H794  1  0.544900  0.245100  0.782000  1.0
  H  H795  1  0.495100  0.705100  0.032000  1.0
  H  H796  1  0.004900  0.294900  0.532000  1.0
  H  H797  1  0.455100  0.254900  0.782000  1.0
  H  H798  1  0.044900  0.745100  0.282000  1.0
  H  H799  1  0.995100  0.205100  0.532000  1.0
  H  H800  1  0.504900  0.794900  0.032000  1.0
  H  H801  1  0.028000  0.296300  0.741200  1.0
  H  H802  1  0.472000  0.703700  0.241200  1.0
  H  H803  1  0.453700  0.278000  0.991200  1.0
  H  H804  1  0.046300  0.722000  0.491200  1.0
  H  H805  1  0.528000  0.796300  0.241200  1.0
  H  H806  1  0.972000  0.203700  0.741200  1.0
  H  H807  1  0.953700  0.778000  0.491200  1.0
  H  H808  1  0.546300  0.222000  0.991200  1.0
  H  H809  1  0.972000  0.703700  0.258800  1.0
  H  H810  1  0.528000  0.296300  0.758800  1.0
  H  H811  1  0.546300  0.722000  0.008800  1.0
  H  H812  1  0.953700  0.278000  0.508800  1.0
  H  H813  1  0.472000  0.203700  0.758800  1.0
  H  H814  1  0.028000  0.796300  0.258800  1.0
  H  H815  1  0.046300  0.222000  0.508800  1.0
  H  H816  1  0.453700  0.778000  0.008800  1.0
  H  H817  1  0.036800  0.165300  0.780800  1.0
  H  H818  1  0.463200  0.834700  0.280800  1.0
  H  H819  1  0.584700  0.286800  0.030800  1.0
  H  H820  1  0.915300  0.713200  0.530800  1.0
  H  H821  1  0.536800  0.665300  0.280800  1.0
  H  H822  1  0.963200  0.334700  0.780800  1.0
  H  H823  1  0.084700  0.786800  0.530800  1.0
  H  H824  1  0.415300  0.213200  0.030800  1.0
  H  H825  1  0.963200  0.834700  0.219200  1.0
  H  H826  1  0.536800  0.165300  0.719200  1.0
  H  H827  1  0.415300  0.713200  0.969200  1.0
  H  H828  1  0.084700  0.286800  0.469200  1.0
  H  H829  1  0.463200  0.334700  0.719200  1.0
  H  H830  1  0.036800  0.665300  0.219200  1.0
  H  H831  1  0.915300  0.213200  0.469200  1.0
  H  H832  1  0.584700  0.786800  0.969200  1.0
  H  H833  1  0.090100  0.178000  0.802400  1.0
  H  H834  1  0.409900  0.822000  0.302400  1.0
  H  H835  1  0.572000  0.340100  0.052400  1.0
  H  H836  1  0.928000  0.659900  0.552400  1.0
  H  H837  1  0.590100  0.678000  0.302400  1.0
  H  H838  1  0.909900  0.322000  0.802400  1.0
  H  H839  1  0.072000  0.840100  0.552400  1.0
  H  H840  1  0.428000  0.159900  0.052400  1.0
  H  H841  1  0.909900  0.822000  0.197600  1.0
  H  H842  1  0.590100  0.178000  0.697600  1.0
  H  H843  1  0.428000  0.659900  0.947600  1.0
  H  H844  1  0.072000  0.340100  0.447600  1.0
  H  H845  1  0.409900  0.322000  0.697600  1.0
  H  H846  1  0.090100  0.678000  0.197600  1.0
  H  H847  1  0.928000  0.159900  0.447600  1.0
  H  H848  1  0.572000  0.840100  0.947600  1.0
  H  H849  1  0.084600  0.180100  0.752400  1.0
  H  H850  1  0.415400  0.819900  0.252400  1.0
  H  H851  1  0.569900  0.334600  0.002400  1.0
  H  H852  1  0.930100  0.665400  0.502400  1.0
  H  H853  1  0.584600  0.680100  0.252400  1.0
  H  H854  1  0.915400  0.319900  0.752400  1.0
  H  H855  1  0.069900  0.834600  0.502400  1.0
  H  H856  1  0.430100  0.165400  0.002400  1.0
  H  H857  1  0.915400  0.819900  0.247600  1.0
  H  H858  1  0.584600  0.180100  0.747600  1.0
  H  H859  1  0.430100  0.665400  0.997600  1.0
  H  H860  1  0.069900  0.334600  0.497600  1.0
  H  H861  1  0.415400  0.319900  0.747600  1.0
  H  H862  1  0.084600  0.680100  0.247600  1.0
  H  H863  1  0.930100  0.165400  0.497600  1.0
  H  H864  1  0.569900  0.834600  0.997600  1.0
  H  H865  1  0.119700  0.271100  0.762800  1.0
  H  H866  1  0.380300  0.728900  0.262800  1.0
  H  H867  1  0.478900  0.369700  0.012800  1.0
  H  H868  1  0.021100  0.630300  0.512800  1.0
  H  H869  1  0.619700  0.771100  0.262800  1.0
  H  H870  1  0.880300  0.228900  0.762800  1.0
  H  H871  1  0.978900  0.869700  0.512800  1.0
  H  H872  1  0.521100  0.130300  0.012800  1.0
  H  H873  1  0.880300  0.728900  0.237200  1.0
  H  H874  1  0.619700  0.271100  0.737200  1.0
  H  H875  1  0.521100  0.630300  0.987200  1.0
  H  H876  1  0.978900  0.369700  0.487200  1.0
  H  H877  1  0.380300  0.228900  0.737200  1.0
  H  H878  1  0.119700  0.771100  0.237200  1.0
  H  H879  1  0.021100  0.130300  0.487200  1.0
  H  H880  1  0.478900  0.869700  0.987200  1.0
  H  H881  1  0.117900  0.259100  0.812000  1.0
  H  H882  1  0.382100  0.740900  0.312000  1.0
  H  H883  1  0.490900  0.367900  0.062000  1.0
  H  H884  1  0.009100  0.632100  0.562000  1.0
  H  H885  1  0.617900  0.759100  0.312000  1.0
  H  H886  1  0.882100  0.240900  0.812000  1.0
  H  H887  1  0.990900  0.867900  0.562000  1.0
  H  H888  1  0.509100  0.132100  0.062000  1.0
  H  H889  1  0.882100  0.740900  0.188000  1.0
  H  H890  1  0.617900  0.259100  0.688000  1.0
  H  H891  1  0.509100  0.632100  0.938000  1.0
  H  H892  1  0.990900  0.367900  0.438000  1.0
  H  H893  1  0.382100  0.240900  0.688000  1.0
  H  H894  1  0.117900  0.759100  0.188000  1.0
  H  H895  1  0.009100  0.132100  0.438000  1.0
  H  H896  1  0.490900  0.867900  0.938000  1.0
  H  H897  1  0.089100  0.307700  0.793800  1.0
  H  H898  1  0.410900  0.692300  0.293800  1.0
  H  H899  1  0.442300  0.339100  0.043800  1.0
  H  H900  1  0.057700  0.660900  0.543800  1.0
  H  H901  1  0.589100  0.807700  0.293800  1.0
  H  H902  1  0.910900  0.192300  0.793800  1.0
  H  H903  1  0.942300  0.839100  0.543800  1.0
  H  H904  1  0.557700  0.160900  0.043800  1.0
  H  H905  1  0.910900  0.692300  0.206200  1.0
  H  H906  1  0.589100  0.307700  0.706200  1.0
  H  H907  1  0.557700  0.660900  0.956200  1.0
  H  H908  1  0.942300  0.339100  0.456200  1.0
  H  H909  1  0.410900  0.192300  0.706200  1.0
  H  H910  1  0.089100  0.807700  0.206200  1.0
  H  H911  1  0.057700  0.160900  0.456200  1.0
  H  H912  1  0.442300  0.839100  0.956200  1.0
  H  H913  1  0.217700  0.433300  0.047700  1.0
  H  H914  1  0.282300  0.566700  0.547700  1.0
  H  H915  1  0.316700  0.467700  0.297700  1.0
  H  H916  1  0.183300  0.532300  0.797700  1.0
  H  H917  1  0.717700  0.933300  0.547700  1.0
  H  H918  1  0.782300  0.066700  0.047700  1.0
  H  H919  1  0.816700  0.967700  0.797700  1.0
  H  H920  1  0.683300  0.032300  0.297700  1.0
  H  H921  1  0.782300  0.566700  0.952300  1.0
  H  H922  1  0.717700  0.433300  0.452300  1.0
  H  H923  1  0.683300  0.532300  0.702300  1.0
  H  H924  1  0.816700  0.467700  0.202300  1.0
  H  H925  1  0.282300  0.066700  0.452300  1.0
  H  H926  1  0.217700  0.933300  0.952300  1.0
  H  H927  1  0.183300  0.032300  0.202300  1.0
  H  H928  1  0.316700  0.967700  0.702300  1.0
  Pd  Pd929  1  0.000000  0.250000  0.829201  1.0
  Pd  Pd930  1  0.500000  0.750000  0.329201  1.0
  Pd  Pd931  1  0.500000  0.250000  0.079201  1.0
  Pd  Pd932  1  0.000000  0.750000  0.579201  1.0
  Pd  Pd933  1  0.000000  0.750000  0.170799  1.0
  Pd  Pd934  1  0.500000  0.250000  0.670799  1.0
  Pd  Pd935  1  0.500000  0.750000  0.920799  1.0
  Pd  Pd936  1  0.000000  0.250000  0.420799  1.0
  Pd  Pd937  1  0.208000  0.970710  0.125424  1.0
  Pd  Pd938  1  0.292000  0.029290  0.625424  1.0
  Pd  Pd939  1  0.779290  0.458000  0.375424  1.0
  Pd  Pd940  1  0.720710  0.542000  0.875424  1.0
  Pd  Pd941  1  0.708000  0.470710  0.625424  1.0
  Pd  Pd942  1  0.792000  0.529290  0.125424  1.0
  Pd  Pd943  1  0.279290  0.958000  0.875424  1.0
  Pd  Pd944  1  0.220710  0.042000  0.375424  1.0
  Pd  Pd945  1  0.792000  0.029290  0.874576  1.0
  Pd  Pd946  1  0.708000  0.970710  0.374576  1.0
  Pd  Pd947  1  0.220710  0.542000  0.624576  1.0
  Pd  Pd948  1  0.279290  0.458000  0.124576  1.0
  Pd  Pd949  1  0.292000  0.529290  0.374576  1.0
  Pd  Pd950  1  0.208000  0.470710  0.874576  1.0
  Pd  Pd951  1  0.720710  0.042000  0.124576  1.0
  Pd  Pd952  1  0.779290  0.958000  0.624576  1.0
  C  C953  1  0.308300  0.987200  0.085100  1
  C  C954  1  0.191700  0.012800  0.585100  1
  C  C955  1  0.762800  0.558300  0.335100  1
  C  C956  1  0.737200  0.441700  0.835100  1
  C  C957  1  0.808300  0.487200  0.585100  1
  C  C958  1  0.691700  0.512800  0.085100  1
  C  C959  1  0.262800  0.058300  0.835100  1
  C  C960  1  0.237200  0.941700  0.335100  1
  C  C961  1  0.691700  0.012800  0.914900  1
  C  C962  1  0.808300  0.987200  0.414900  1
  C  C963  1  0.237200  0.441700  0.664900  1
  C  C964  1  0.262800  0.558300  0.164900  1
  C  C965  1  0.191700  0.512800  0.414900  1
  C  C966  1  0.308300  0.487200  0.914900  1
  C  C967  1  0.737200  0.941700  0.164900  1
  C  C968  1  0.762800  0.058300  0.664900  1
  C  C969  1  0.259000  0.931500  0.047600  1
  C  C970  1  0.241000  0.068500  0.547600  1
  C  C971  1  0.818500  0.509000  0.297600  1
  C  C972  1  0.681500  0.491000  0.797600  1
  C  C973  1  0.759000  0.431500  0.547600  1
  C  C974  1  0.741000  0.568500  0.047600  1
  C  C975  1  0.318500  0.009000  0.797600  1
  C  C976  1  0.181500  0.991000  0.297600  1
  C  C977  1  0.741000  0.068500  0.952400  1
  C  C978  1  0.759000  0.931500  0.452400  1
  C  C979  1  0.181500  0.491000  0.702400  1
  C  C980  1  0.318500  0.509000  0.202400  1
  C  C981  1  0.241000  0.568500  0.452400  1
  C  C982  1  0.259000  0.431500  0.952400  1
  C  C983  1  0.681500  0.991000  0.202400  1
  C  C984  1  0.818500  0.009000  0.702400  1
  C  C985  1  0.292800  0.903700  0.114700  1
  C  C986  1  0.207200  0.096300  0.614700  1
  C  C987  1  0.846300  0.542800  0.364700  1
  C  C988  1  0.653700  0.457200  0.864700  1
  C  C989  1  0.792800  0.403700  0.614700  1
  C  C990  1  0.707200  0.596300  0.114700  1
  C  C991  1  0.346300  0.042800  0.864700  1
  C  C992  1  0.153700  0.957200  0.364700  1
  C  C993  1  0.707200  0.096300  0.885300  1
  C  C994  1  0.792800  0.903700  0.385300  1
  C  C995  1  0.153700  0.457200  0.635300  1
  C  C996  1  0.346300  0.542800  0.135300  1
  C  C997  1  0.207200  0.596300  0.385300  1
  C  C998  1  0.292800  0.403700  0.885300  1
  C  C999  1  0.653700  0.957200  0.135300  1
  C  C1000  1  0.846300  0.042800  0.635300  1
  C  C1001  1  0.254200  0.874000  0.131700  1
  C  C1002  1  0.245800  0.126000  0.631700  1
  C  C1003  1  0.876000  0.504200  0.381700  1
  C  C1004  1  0.624000  0.495800  0.881700  1
  C  C1005  1  0.754200  0.374000  0.631700  1
  C  C1006  1  0.745800  0.626000  0.131700  1
  C  C1007  1  0.376000  0.004200  0.881700  1
  C  C1008  1  0.124000  0.995800  0.381700  1
  C  C1009  1  0.745800  0.126000  0.868300  1
  C  C1010  1  0.754200  0.874000  0.368300  1
  C  C1011  1  0.124000  0.495800  0.618300  1
  C  C1012  1  0.376000  0.504200  0.118300  1
  C  C1013  1  0.245800  0.626000  0.368300  1
  C  C1014  1  0.254200  0.374000  0.868300  1
  C  C1015  1  0.624000  0.995800  0.118300  1
  C  C1016  1  0.876000  0.004200  0.618300  1
  C  C1017  1  0.171100  0.869900  0.149000  1
  C  C1018  1  0.328900  0.130100  0.649000  1
  C  C1019  1  0.880100  0.421100  0.399000  1
  C  C1020  1  0.619900  0.578900  0.899000  1
  C  C1021  1  0.671100  0.369900  0.649000  1
  C  C1022  1  0.828900  0.630100  0.149000  1
  C  C1023  1  0.380100  0.921100  0.899000  1
  C  C1024  1  0.119900  0.078900  0.399000  1
  C  C1025  1  0.828900  0.130100  0.851000  1
  C  C1026  1  0.671100  0.869900  0.351000  1
  C  C1027  1  0.119900  0.578900  0.601000  1
  C  C1028  1  0.380100  0.421100  0.101000  1
  C  C1029  1  0.328900  0.630100  0.351000  1
  C  C1030  1  0.171100  0.369900  0.851000  1
  C  C1031  1  0.619900  0.078900  0.101000  1
  C  C1032  1  0.880100  0.921100  0.601000  1
  C  C1033  1  0.235300  0.915500  0.198200  1
  C  C1034  1  0.264700  0.084500  0.698200  1
  C  C1035  1  0.834500  0.485300  0.448200  1
  C  C1036  1  0.665500  0.514700  0.948200  1
  C  C1037  1  0.735300  0.415500  0.698200  1
  C  C1038  1  0.764700  0.584500  0.198200  1
  C  C1039  1  0.334500  0.985300  0.948200  1
  C  C1040  1  0.165500  0.014700  0.448200  1
  C  C1041  1  0.764700  0.084500  0.801800  1
  C  C1042  1  0.735300  0.915500  0.301800  1
  C  C1043  1  0.165500  0.514700  0.551800  1
  C  C1044  1  0.334500  0.485300  0.051800  1
  C  C1045  1  0.264700  0.584500  0.301800  1
  C  C1046  1  0.235300  0.415500  0.801800  1
  C  C1047  1  0.665500  0.014700  0.051800  1
  C  C1048  1  0.834500  0.985300  0.551800  1
  C  C1049  1  0.211200  0.224500  0.200300  1.0
  C  C1050  1  0.288800  0.775500  0.700300  1.0
  C  C1051  1  0.525500  0.461200  0.450300  1.0
  C  C1052  1  0.974500  0.538800  0.950300  1.0
  C  C1053  1  0.711200  0.724500  0.700300  1.0
  C  C1054  1  0.788800  0.275500  0.200300  1.0
  C  C1055  1  0.025500  0.961200  0.950300  1.0
  C  C1056  1  0.474500  0.038800  0.450300  1.0
  C  C1057  1  0.788800  0.775500  0.799700  1.0
  C  C1058  1  0.711200  0.224500  0.299700  1.0
  C  C1059  1  0.474500  0.538800  0.549700  1.0
  C  C1060  1  0.025500  0.461200  0.049700  1.0
  C  C1061  1  0.288800  0.275500  0.299700  1.0
  C  C1062  1  0.211200  0.724500  0.799700  1.0
  C  C1063  1  0.974500  0.038800  0.049700  1.0
  C  C1064  1  0.525500  0.961200  0.549700  1.0
  C  C1065  1  0.162100  0.245200  0.184800  1.0
  C  C1066  1  0.337900  0.754800  0.684800  1.0
  C  C1067  1  0.504800  0.412100  0.434800  1.0
  C  C1068  1  0.995200  0.587900  0.934800  1.0
  C  C1069  1  0.662100  0.745200  0.684800  1.0
  C  C1070  1  0.837900  0.254800  0.184800  1.0
  C  C1071  1  0.004800  0.912100  0.934800  1.0
  C  C1072  1  0.495200  0.087900  0.434800  1.0
  C  C1073  1  0.837900  0.754800  0.815200  1.0
  C  C1074  1  0.662100  0.245200  0.315200  1.0
  C  C1075  1  0.495200  0.587900  0.565200  1.0
  C  C1076  1  0.004800  0.412100  0.065200  1.0
  C  C1077  1  0.337900  0.254800  0.315200  1.0
  C  C1078  1  0.162100  0.745200  0.815200  1.0
  C  C1079  1  0.995200  0.087900  0.065200  1.0
  C  C1080  1  0.504800  0.912100  0.565200  1.0
  C  C1081  1  0.113400  0.234400  0.209800  1.0
  C  C1082  1  0.386600  0.765600  0.709800  1.0
  C  C1083  1  0.515600  0.363400  0.459800  1.0
  C  C1084  1  0.984400  0.636600  0.959800  1.0
  C  C1085  1  0.613400  0.734400  0.709800  1.0
  C  C1086  1  0.886600  0.265600  0.209800  1.0
  C  C1087  1  0.015600  0.863400  0.959800  1.0
  C  C1088  1  0.484400  0.136600  0.459800  1.0
  C  C1089  1  0.886600  0.765600  0.790200  1.0
  C  C1090  1  0.613400  0.234400  0.290200  1.0
  C  C1091  1  0.484400  0.636600  0.540200  1.0
  C  C1092  1  0.015600  0.363400  0.040200  1.0
  C  C1093  1  0.386600  0.265600  0.290200  1.0
  C  C1094  1  0.113400  0.734400  0.790200  1.0
  C  C1095  1  0.984400  0.136600  0.040200  1.0
  C  C1096  1  0.515600  0.863400  0.540200  1.0
  C  C1097  1  0.064900  0.256200  0.193600  1.0
  C  C1098  1  0.435100  0.743800  0.693600  1.0
  C  C1099  1  0.493800  0.314900  0.443600  1.0
  C  C1100  1  0.006200  0.685100  0.943600  1.0
  C  C1101  1  0.564900  0.756200  0.693600  1.0
  C  C1102  1  0.935100  0.243800  0.193600  1.0
  C  C1103  1  0.993800  0.814900  0.943600  1.0
  C  C1104  1  0.506200  0.185100  0.443600  1.0
  C  C1105  1  0.935100  0.743800  0.806400  1.0
  C  C1106  1  0.564900  0.256200  0.306400  1.0
  C  C1107  1  0.506200  0.685100  0.556400  1.0
  C  C1108  1  0.993800  0.314900  0.056400  1.0
  C  C1109  1  0.435100  0.243800  0.306400  1.0
  C  C1110  1  0.064900  0.756200  0.806400  1.0
  C  C1111  1  0.006200  0.185100  0.056400  1.0
  C  C1112  1  0.493800  0.814900  0.556400  1.0
  C  C1113  1  0.014100  0.241900  0.210500  1.0
  C  C1114  1  0.485900  0.758100  0.710500  1.0
  C  C1115  1  0.508100  0.264100  0.460500  1.0
  C  C1116  1  0.991900  0.735900  0.960500  1.0
  C  C1117  1  0.514100  0.741900  0.710500  1.0
  C  C1118  1  0.985900  0.258100  0.210500  1.0
  C  C1119  1  0.008100  0.764100  0.960500  1.0
  C  C1120  1  0.491900  0.235900  0.460500  1.0
  C  C1121  1  0.985900  0.758100  0.789500  1.0
  C  C1122  1  0.514100  0.241900  0.289500  1.0
  C  C1123  1  0.491900  0.735900  0.539500  1.0
  C  C1124  1  0.008100  0.264100  0.039500  1.0
  C  C1125  1  0.485900  0.258100  0.289500  1.0
  C  C1126  1  0.014100  0.741900  0.789500  1.0
  C  C1127  1  0.991900  0.235900  0.039500  1.0
  C  C1128  1  0.508100  0.764100  0.539500  1.0
  C  C1129  1  0.964500  0.251700  0.187800  1.0
  C  C1130  1  0.535500  0.748300  0.687800  1.0
  C  C1131  1  0.498300  0.214500  0.437800  1.0
  C  C1132  1  0.001700  0.785500  0.937800  1.0
  C  C1133  1  0.464500  0.751700  0.687800  1.0
  C  C1134  1  0.035500  0.248300  0.187800  1.0
  C  C1135  1  0.998300  0.714500  0.937800  1.0
  C  C1136  1  0.501700  0.285500  0.437800  1.0
  C  C1137  1  0.035500  0.748300  0.812200  1.0
  C  C1138  1  0.464500  0.251700  0.312200  1.0
  C  C1139  1  0.501700  0.785500  0.562200  1.0
  C  C1140  1  0.998300  0.214500  0.062200  1.0
  C  C1141  1  0.535500  0.248300  0.312200  1.0
  C  C1142  1  0.964500  0.751700  0.812200  1.0
  C  C1143  1  0.001700  0.285500  0.062200  1.0
  C  C1144  1  0.498300  0.714500  0.562200  1.0
  C  C1145  1  0.917900  0.260300  0.217300  1.0
  C  C1146  1  0.582100  0.739700  0.717300  1.0
  C  C1147  1  0.489700  0.167900  0.467300  1.0
  C  C1148  1  0.010300  0.832100  0.967300  1.0
  C  C1149  1  0.417900  0.760300  0.717300  1.0
  C  C1150  1  0.082100  0.239700  0.217300  1.0
  C  C1151  1  0.989700  0.667900  0.967300  1.0
  C  C1152  1  0.510300  0.332100  0.467300  1.0
  C  C1153  1  0.082100  0.739700  0.782700  1.0
  C  C1154  1  0.417900  0.260300  0.282700  1.0
  C  C1155  1  0.510300  0.832100  0.532700  1.0
  C  C1156  1  0.989700  0.167900  0.032700  1.0
  C  C1157  1  0.582100  0.239700  0.282700  1.0
  C  C1158  1  0.917900  0.760300  0.782700  1.0
  C  C1159  1  0.010300  0.332100  0.032700  1.0
  C  C1160  1  0.489700  0.667900  0.532700  1.0
  C  C1161  1  0.866300  0.262300  0.194400  1.0
  C  C1162  1  0.633700  0.737700  0.694400  1.0
  C  C1163  1  0.487700  0.116300  0.444400  1.0
  C  C1164  1  0.012300  0.883700  0.944400  1.0
  C  C1165  1  0.366300  0.762300  0.694400  1.0
  C  C1166  1  0.133700  0.237700  0.194400  1.0
  C  C1167  1  0.987700  0.616300  0.944400  1.0
  C  C1168  1  0.512300  0.383700  0.444400  1.0
  C  C1169  1  0.133700  0.737700  0.805600  1.0
  C  C1170  1  0.366300  0.262300  0.305600  1.0
  C  C1171  1  0.512300  0.883700  0.555600  1.0
  C  C1172  1  0.987700  0.116300  0.055600  1.0
  C  C1173  1  0.633700  0.237700  0.305600  1.0
  C  C1174  1  0.866300  0.762300  0.805600  1.0
  C  C1175  1  0.012300  0.383700  0.055600  1.0
  C  C1176  1  0.487700  0.616300  0.555600  1.0
  C  C1177  1  0.819900  0.249800  0.221600  1.0
  C  C1178  1  0.680100  0.750200  0.721600  1.0
  C  C1179  1  0.500200  0.069900  0.471600  1.0
  C  C1180  1  0.999800  0.930100  0.971600  1.0
  C  C1181  1  0.319900  0.749800  0.721600  1.0
  C  C1182  1  0.180100  0.250200  0.221600  1.0
  C  C1183  1  0.000200  0.569900  0.971600  1.0
  C  C1184  1  0.499800  0.430100  0.471600  1.0
  C  C1185  1  0.180100  0.750200  0.778400  1.0
  C  C1186  1  0.319900  0.249800  0.278400  1.0
  C  C1187  1  0.499800  0.930100  0.528400  1.0
  C  C1188  1  0.000200  0.069900  0.028400  1.0
  C  C1189  1  0.680100  0.250200  0.278400  1.0
  C  C1190  1  0.819900  0.749800  0.778400  1.0
  C  C1191  1  0.999800  0.430100  0.028400  1.0
  C  C1192  1  0.500200  0.569900  0.528400  1.0
  C  C1193  1  0.315300  0.971100  0.109800  1.0
  C  C1194  1  0.184700  0.028900  0.609800  1.0
  C  C1195  1  0.778900  0.565300  0.359800  1.0
  C  C1196  1  0.721100  0.434700  0.859800  1.0
  C  C1197  1  0.815300  0.471100  0.609800  1.0
  C  C1198  1  0.684700  0.528900  0.109800  1.0
  C  C1199  1  0.278900  0.065300  0.859800  1.0
  C  C1200  1  0.221100  0.934700  0.359800  1.0
  C  C1201  1  0.684700  0.028900  0.890200  1.0
  C  C1202  1  0.815300  0.971100  0.390200  1.0
  C  C1203  1  0.221100  0.434700  0.640200  1.0
  C  C1204  1  0.278900  0.565300  0.140200  1.0
  C  C1205  1  0.184700  0.528900  0.390200  1.0
  C  C1206  1  0.315300  0.471100  0.890200  1.0
  C  C1207  1  0.721100  0.934700  0.140200  1.0
  C  C1208  1  0.778900  0.065300  0.640200  1.0
  C  C1209  1  0.264900  0.949200  0.050000  1.0
  C  C1210  1  0.235100  0.050800  0.550000  1.0
  C  C1211  1  0.800800  0.514900  0.300000  1.0
  C  C1212  1  0.699200  0.485100  0.800000  1.0
  C  C1213  1  0.764900  0.449200  0.550000  1.0
  C  C1214  1  0.735100  0.550800  0.050000  1.0
  C  C1215  1  0.300800  0.014900  0.800000  1.0
  C  C1216  1  0.199200  0.985100  0.300000  1.0
  C  C1217  1  0.735100  0.050800  0.950000  1.0
  C  C1218  1  0.764900  0.949200  0.450000  1.0
  C  C1219  1  0.199200  0.485100  0.700000  1.0
  C  C1220  1  0.300800  0.514900  0.200000  1.0
  C  C1221  1  0.235100  0.550800  0.450000  1.0
  C  C1222  1  0.264900  0.449200  0.950000  1.0
  C  C1223  1  0.699200  0.985100  0.200000  1.0
  C  C1224  1  0.800800  0.014900  0.700000  1.0
  C  C1225  1  0.270300  0.887700  0.103400  1.0
  C  C1226  1  0.229700  0.112300  0.603400  1.0
  C  C1227  1  0.862300  0.520300  0.353400  1.0
  C  C1228  1  0.637700  0.479700  0.853400  1.0
  C  C1229  1  0.770300  0.387700  0.603400  1.0
  C  C1230  1  0.729700  0.612300  0.103400  1.0
  C  C1231  1  0.362300  0.020300  0.853400  1.0
  C  C1232  1  0.137700  0.979700  0.353400  1.0
  C  C1233  1  0.729700  0.112300  0.896600  1.0
  C  C1234  1  0.770300  0.887700  0.396600  1.0
  C  C1235  1  0.137700  0.479700  0.646600  1.0
  C  C1236  1  0.362300  0.520300  0.146600  1.0
  C  C1237  1  0.229700  0.612300  0.396600  1.0
  C  C1238  1  0.270300  0.387700  0.896600  1.0
  C  C1239  1  0.637700  0.979700  0.146600  1.0
  C  C1240  1  0.862300  0.020300  0.646600  1.0
  C  C1241  1  0.261200  0.882000  0.151000  1.0
  C  C1242  1  0.238800  0.118000  0.651000  1.0
  C  C1243  1  0.868000  0.511200  0.401000  1.0
  C  C1244  1  0.632000  0.488800  0.901000  1.0
  C  C1245  1  0.761200  0.382000  0.651000  1.0
  C  C1246  1  0.738800  0.618000  0.151000  1.0
  C  C1247  1  0.368000  0.011200  0.901000  1.0
  C  C1248  1  0.132000  0.988800  0.401000  1.0
  C  C1249  1  0.738800  0.118000  0.849000  1.0
  C  C1250  1  0.761200  0.882000  0.349000  1.0
  C  C1251  1  0.132000  0.488800  0.599000  1.0
  C  C1252  1  0.368000  0.511200  0.099000  1.0
  C  C1253  1  0.238800  0.618000  0.349000  1.0
  C  C1254  1  0.261200  0.382000  0.849000  1.0
  C  C1255  1  0.632000  0.988800  0.099000  1.0
  C  C1256  1  0.868000  0.011200  0.599000  1.0
  C  C1257  1  0.162200  0.874000  0.144300  1.0
  C  C1258  1  0.337800  0.126000  0.644300  1.0
  C  C1259  1  0.876000  0.412200  0.394300  1.0
  C  C1260  1  0.624000  0.587800  0.894300  1.0
  C  C1261  1  0.662200  0.374000  0.644300  1.0
  C  C1262  1  0.837800  0.626000  0.144300  1.0
  C  C1263  1  0.376000  0.912200  0.894300  1.0
  C  C1264  1  0.124000  0.087800  0.394300  1.0
  C  C1265  1  0.837800  0.126000  0.855700  1.0
  C  C1266  1  0.662200  0.874000  0.355700  1.0
  C  C1267  1  0.124000  0.587800  0.605700  1.0
  C  C1268  1  0.376000  0.412200  0.105700  1.0
  C  C1269  1  0.337800  0.626000  0.355700  1.0
  C  C1270  1  0.162200  0.374000  0.855700  1.0
  C  C1271  1  0.624000  0.087800  0.105700  1.0
  C  C1272  1  0.876000  0.912200  0.605700  1.0
  C  C1273  1  0.204400  0.908600  0.205100  1.0
  C  C1274  1  0.295600  0.091400  0.705100  1.0
  C  C1275  1  0.841400  0.454400  0.455100  1.0
  C  C1276  1  0.658600  0.545600  0.955100  1.0
  C  C1277  1  0.704400  0.408600  0.705100  1.0
  C  C1278  1  0.795600  0.591400  0.205100  1.0
  C  C1279  1  0.341400  0.954400  0.955100  1.0
  C  C1280  1  0.158600  0.045600  0.455100  1.0
  C  C1281  1  0.795600  0.091400  0.794900  1.0
  C  C1282  1  0.704400  0.908600  0.294900  1.0
  C  C1283  1  0.158600  0.545600  0.544900  1.0
  C  C1284  1  0.341400  0.454400  0.044900  1.0
  C  C1285  1  0.295600  0.591400  0.294900  1.0
  C  C1286  1  0.204400  0.408600  0.794900  1.0
  C  C1287  1  0.658600  0.045600  0.044900  1.0
  C  C1288  1  0.841400  0.954400  0.544900  1.0
  C  C1289  1  0.175100  0.041300  0.058850  1.0
  C  C1290  1  0.324900  0.958700  0.558850  1.0
  C  C1291  1  0.708700  0.425100  0.308850  1.0
  C  C1292  1  0.791300  0.574900  0.808850  1.0
  C  C1293  1  0.675100  0.541300  0.558850  1.0
  C  C1294  1  0.824900  0.458700  0.058850  1.0
  C  C1295  1  0.208700  0.925100  0.808850  1.0
  C  C1296  1  0.291300  0.074900  0.308850  1.0
  C  C1297  1  0.824900  0.958700  0.941150  1.0
  C  C1298  1  0.675100  0.041300  0.441150  1.0
  C  C1299  1  0.291300  0.574900  0.691150  1.0
  C  C1300  1  0.208700  0.425100  0.191150  1.0
  C  C1301  1  0.324900  0.458700  0.441150  1.0
  C  C1302  1  0.175100  0.541300  0.941150  1.0
  C  C1303  1  0.791300  0.074900  0.191150  1.0
  C  C1304  1  0.708700  0.925100  0.691150  1.0
  C  C1305  1  0.166600  0.086900  0.039650  1.0
  C  C1306  1  0.333400  0.913100  0.539650  1.0
  C  C1307  1  0.663100  0.416600  0.289650  1.0
  C  C1308  1  0.836900  0.583400  0.789650  1.0
  C  C1309  1  0.666600  0.586900  0.539650  1.0
  C  C1310  1  0.833400  0.413100  0.039650  1.0
  C  C1311  1  0.163100  0.916600  0.789650  1.0
  C  C1312  1  0.336900  0.083400  0.289650  1.0
  C  C1313  1  0.833400  0.913100  0.960350  1.0
  C  C1314  1  0.666600  0.086900  0.460350  1.0
  C  C1315  1  0.336900  0.583400  0.710350  1.0
  C  C1316  1  0.163100  0.416600  0.210350  1.0
  C  C1317  1  0.333400  0.413100  0.460350  1.0
  C  C1318  1  0.166600  0.586900  0.960350  1.0
  C  C1319  1  0.836900  0.083400  0.210350  1.0
  C  C1320  1  0.663100  0.916600  0.710350  1.0
  C  C1321  1  0.187600  0.130800  0.055820  1.0
  C  C1322  1  0.312400  0.869200  0.555820  1.0
  C  C1323  1  0.619200  0.437600  0.305820  1.0
  C  C1324  1  0.880800  0.562400  0.805820  1.0
  C  C1325  1  0.687600  0.630800  0.555820  1.0
  C  C1326  1  0.812400  0.369200  0.055820  1.0
  C  C1327  1  0.119200  0.937600  0.805820  1.0
  C  C1328  1  0.380800  0.062400  0.305820  1.0
  C  C1329  1  0.812400  0.869200  0.944180  1.0
  C  C1330  1  0.687600  0.130800  0.444180  1.0
  C  C1331  1  0.380800  0.562400  0.694180  1.0
  C  C1332  1  0.119200  0.437600  0.194180  1.0
  C  C1333  1  0.312400  0.369200  0.444180  1.0
  C  C1334  1  0.187600  0.630800  0.944180  1.0
  C  C1335  1  0.880800  0.062400  0.194180  1.0
  C  C1336  1  0.619200  0.937600  0.694180  1.0
  C  C1337  1  0.216700  0.126500  0.092500  1.0
  C  C1338  1  0.283300  0.873500  0.592500  1.0
  C  C1339  1  0.623500  0.466700  0.342500  1.0
  C  C1340  1  0.876500  0.533300  0.842500  1.0
  C  C1341  1  0.716700  0.626500  0.592500  1.0
  C  C1342  1  0.783300  0.373500  0.092500  1.0
  C  C1343  1  0.123500  0.966700  0.842500  1.0
  C  C1344  1  0.376500  0.033300  0.342500  1.0
  C  C1345  1  0.783300  0.873500  0.907500  1.0
  C  C1346  1  0.716700  0.126500  0.407500  1.0
  C  C1347  1  0.376500  0.533300  0.657500  1.0
  C  C1348  1  0.123500  0.466700  0.157500  1.0
  C  C1349  1  0.283300  0.373500  0.407500  1.0
  C  C1350  1  0.216700  0.626500  0.907500  1.0
  C  C1351  1  0.876500  0.033300  0.157500  1.0
  C  C1352  1  0.623500  0.966700  0.657500  1.0
  C  C1353  1  0.223300  0.080000  0.110100  1.0
  C  C1354  1  0.276700  0.920000  0.610100  1.0
  C  C1355  1  0.670000  0.473300  0.360100  1.0
  C  C1356  1  0.830000  0.526700  0.860100  1.0
  C  C1357  1  0.723300  0.580000  0.610100  1.0
  C  C1358  1  0.776700  0.420000  0.110100  1.0
  C  C1359  1  0.170000  0.973300  0.860100  1.0
  C  C1360  1  0.330000  0.026700  0.360100  1.0
  C  C1361  1  0.776700  0.920000  0.889900  1.0
  C  C1362  1  0.723300  0.080000  0.389900  1.0
  C  C1363  1  0.330000  0.526700  0.639900  1.0
  C  C1364  1  0.170000  0.473300  0.139900  1.0
  C  C1365  1  0.276700  0.420000  0.389900  1.0
  C  C1366  1  0.223300  0.580000  0.889900  1.0
  C  C1367  1  0.830000  0.026700  0.139900  1.0
  C  C1368  1  0.670000  0.973300  0.639900  1.0
  C  C1369  1  0.061700  0.196100  0.893000  1.0
  C  C1370  1  0.438300  0.803900  0.393000  1.0
  C  C1371  1  0.553900  0.311700  0.143000  1.0
  C  C1372  1  0.946100  0.688300  0.643000  1.0
  C  C1373  1  0.561700  0.696100  0.393000  1.0
  C  C1374  1  0.938300  0.303900  0.893000  1.0
  C  C1375  1  0.053900  0.811700  0.643000  1.0
  C  C1376  1  0.446100  0.188300  0.143000  1.0
  C  C1377  1  0.938300  0.803900  0.107000  1.0
  C  C1378  1  0.561700  0.196100  0.607000  1.0
  C  C1379  1  0.446100  0.688300  0.857000  1.0
  C  C1380  1  0.053900  0.311700  0.357000  1.0
  C  C1381  1  0.438300  0.303900  0.607000  1.0
  C  C1382  1  0.061700  0.696100  0.107000  1.0
  C  C1383  1  0.946100  0.188300  0.357000  1.0
  C  C1384  1  0.553900  0.811700  0.857000  1.0
  C  C1385  1  0.091900  0.190100  0.927300  1.0
  C  C1386  1  0.408100  0.809900  0.427300  1.0
  C  C1387  1  0.559900  0.341900  0.177300  1.0
  C  C1388  1  0.940100  0.658100  0.677300  1.0
  C  C1389  1  0.591900  0.690100  0.427300  1.0
  C  C1390  1  0.908100  0.309900  0.927300  1.0
  C  C1391  1  0.059900  0.841900  0.677300  1.0
  C  C1392  1  0.440100  0.158100  0.177300  1.0
  C  C1393  1  0.908100  0.809900  0.072700  1.0
  C  C1394  1  0.591900  0.190100  0.572700  1.0
  C  C1395  1  0.440100  0.658100  0.822700  1.0
  C  C1396  1  0.059900  0.341900  0.322700  1.0
  C  C1397  1  0.408100  0.309900  0.572700  1.0
  C  C1398  1  0.091900  0.690100  0.072700  1.0
  C  C1399  1  0.940100  0.158100  0.322700  1.0
  C  C1400  1  0.559900  0.841900  0.822700  1.0
  C  C1401  1  0.113900  0.232300  0.945830  1.0
  C  C1402  1  0.386100  0.767700  0.445830  1.0
  C  C1403  1  0.517700  0.363900  0.195830  1.0
  C  C1404  1  0.982300  0.636100  0.695830  1.0
  C  C1405  1  0.613900  0.732300  0.445830  1.0
  C  C1406  1  0.886100  0.267700  0.945830  1.0
  C  C1407  1  0.017700  0.863900  0.695830  1.0
  C  C1408  1  0.482300  0.136100  0.195830  1.0
  C  C1409  1  0.886100  0.767700  0.054170  1.0
  C  C1410  1  0.613900  0.232300  0.554170  1.0
  C  C1411  1  0.482300  0.636100  0.804170  1.0
  C  C1412  1  0.017700  0.363900  0.304170  1.0
  C  C1413  1  0.386100  0.267700  0.554170  1.0
  C  C1414  1  0.113900  0.732300  0.054170  1.0
  C  C1415  1  0.982300  0.136100  0.304170  1.0
  C  C1416  1  0.517700  0.863900  0.804170  1.0
  C  C1417  1  0.103800  0.279800  0.928560  1.0
  C  C1418  1  0.396200  0.720200  0.428560  1.0
  C  C1419  1  0.470200  0.353800  0.178560  1.0
  C  C1420  1  0.029800  0.646200  0.678560  1.0
  C  C1421  1  0.603800  0.779800  0.428560  1.0
  C  C1422  1  0.896200  0.220200  0.928560  1.0
  C  C1423  1  0.970200  0.853800  0.678560  1.0
  C  C1424  1  0.529800  0.146200  0.178560  1.0
  C  C1425  1  0.896200  0.720200  0.071440  1.0
  C  C1426  1  0.603800  0.279800  0.571440  1.0
  C  C1427  1  0.529800  0.646200  0.821440  1.0
  C  C1428  1  0.970200  0.353800  0.321440  1.0
  C  C1429  1  0.396200  0.220200  0.571440  1.0
  C  C1430  1  0.103800  0.779800  0.071440  1.0
  C  C1431  1  0.029800  0.146200  0.321440  1.0
  C  C1432  1  0.470200  0.853800  0.821440  1.0
  C  C1433  1  0.072900  0.283200  0.893790  1.0
  C  C1434  1  0.427100  0.716800  0.393790  1.0
  C  C1435  1  0.466800  0.322900  0.143790  1.0
  C  C1436  1  0.033200  0.677100  0.643790  1.0
  C  C1437  1  0.572900  0.783200  0.393790  1.0
  C  C1438  1  0.927100  0.216800  0.893790  1.0
  C  C1439  1  0.966800  0.822900  0.643790  1.0
  C  C1440  1  0.533200  0.177100  0.143790  1.0
  C  C1441  1  0.927100  0.716800  0.106210  1.0
  C  C1442  1  0.572900  0.283200  0.606210  1.0
  C  C1443  1  0.533200  0.677100  0.856210  1.0
  C  C1444  1  0.966800  0.322900  0.356210  1.0
  C  C1445  1  0.427100  0.216800  0.606210  1.0
  C  C1446  1  0.072900  0.783200  0.106210  1.0
  C  C1447  1  0.033200  0.177100  0.356210  1.0
  C  C1448  1  0.466800  0.822900  0.856210  1.0
  C  C1449  1  0.145500  0.227700  0.984330  1.0
  C  C1450  1  0.354500  0.772300  0.484330  1.0
  C  C1451  1  0.522300  0.395500  0.234330  1.0
  C  C1452  1  0.977700  0.604500  0.734330  1.0
  C  C1453  1  0.645500  0.727700  0.484330  1.0
  C  C1454  1  0.854500  0.272300  0.984330  1.0
  C  C1455  1  0.022300  0.895500  0.734330  1.0
  C  C1456  1  0.477700  0.104500  0.234330  1.0
  C  C1457  1  0.854500  0.772300  0.015670  1.0
  C  C1458  1  0.645500  0.227700  0.515670  1.0
  C  C1459  1  0.477700  0.604500  0.765670  1.0
  C  C1460  1  0.022300  0.395500  0.265670  1.0
  C  C1461  1  0.354500  0.272300  0.515670  1.0
  C  C1462  1  0.145500  0.727700  0.015670  1.0
  C  C1463  1  0.977700  0.104500  0.265670  1.0
  C  C1464  1  0.522300  0.895500  0.765670  1.0
  C  C1465  1  0.179800  0.180600  0.035760  1.0
  C  C1466  1  0.320200  0.819400  0.535760  1.0
  C  C1467  1  0.569400  0.429800  0.285760  1.0
  C  C1468  1  0.930600  0.570200  0.785760  1.0
  C  C1469  1  0.679800  0.680600  0.535760  1.0
  C  C1470  1  0.820200  0.319400  0.035760  1.0
  C  C1471  1  0.069400  0.929800  0.785760  1.0
  C  C1472  1  0.430600  0.070200  0.285760  1.0
  C  C1473  1  0.820200  0.819400  0.964240  1.0
  C  C1474  1  0.679800  0.180600  0.464240  1.0
  C  C1475  1  0.430600  0.570200  0.714240  1.0
  C  C1476  1  0.069400  0.429800  0.214240  1.0
  C  C1477  1  0.320200  0.319400  0.464240  1.0
  C  C1478  1  0.179800  0.680600  0.964240  1.0
  C  C1479  1  0.930600  0.070200  0.214240  1.0
  C  C1480  1  0.569400  0.929800  0.714240  1.0
  C  C1481  1  0.191000  0.265400  0.035150  1.0
  C  C1482  1  0.309000  0.734600  0.535150  1.0
  C  C1483  1  0.484600  0.441000  0.285150  1.0
  C  C1484  1  0.015400  0.559000  0.785150  1.0
  C  C1485  1  0.691000  0.765400  0.535150  1.0
  C  C1486  1  0.809000  0.234600  0.035150  1.0
  C  C1487  1  0.984600  0.941000  0.785150  1.0
  C  C1488  1  0.515400  0.059000  0.285150  1.0
  C  C1489  1  0.809000  0.734600  0.964850  1.0
  C  C1490  1  0.691000  0.265400  0.464850  1.0
  C  C1491  1  0.515400  0.559000  0.714850  1.0
  C  C1492  1  0.984600  0.441000  0.214850  1.0
  C  C1493  1  0.309000  0.234600  0.464850  1.0
  C  C1494  1  0.191000  0.765400  0.964850  1.0
  C  C1495  1  0.015400  0.059000  0.214850  1.0
  C  C1496  1  0.484600  0.941000  0.714850  1.0
  C  C1497  1  0.264700  0.349600  0.107280  1.0
  C  C1498  1  0.235300  0.650400  0.607280  1.0
  C  C1499  1  0.400400  0.514700  0.357280  1.0
  C  C1500  1  0.099600  0.485300  0.857280  1.0
  C  C1501  1  0.764700  0.849600  0.607280  1.0
  C  C1502  1  0.735300  0.150400  0.107280  1.0
  C  C1503  1  0.900400  0.014700  0.857280  1.0
  C  C1504  1  0.599600  0.985300  0.357280  1.0
  C  C1505  1  0.735300  0.650400  0.892720  1.0
  C  C1506  1  0.764700  0.349600  0.392720  1.0
  C  C1507  1  0.599600  0.485300  0.642720  1.0
  C  C1508  1  0.900400  0.514700  0.142720  1.0
  C  C1509  1  0.235300  0.150400  0.392720  1.0
  C  C1510  1  0.264700  0.849600  0.892720  1.0
  C  C1511  1  0.099600  0.985300  0.142720  1.0
  C  C1512  1  0.400400  0.014700  0.642720  1.0
  C  C1513  1  0.244300  0.306200  0.089800  1.0
  C  C1514  1  0.255700  0.693800  0.589800  1.0
  C  C1515  1  0.443800  0.494300  0.339800  1.0
  C  C1516  1  0.056200  0.505700  0.839800  1.0
  C  C1517  1  0.744300  0.806200  0.589800  1.0
  C  C1518  1  0.755700  0.193800  0.089800  1.0
  C  C1519  1  0.943800  0.994300  0.839800  1.0
  C  C1520  1  0.556200  0.005700  0.339800  1.0
  C  C1521  1  0.755700  0.693800  0.910200  1.0
  C  C1522  1  0.744300  0.306200  0.410200  1.0
  C  C1523  1  0.556200  0.505700  0.660200  1.0
  C  C1524  1  0.943800  0.494300  0.160200  1.0
  C  C1525  1  0.255700  0.193800  0.410200  1.0
  C  C1526  1  0.244300  0.806200  0.910200  1.0
  C  C1527  1  0.056200  0.005700  0.160200  1.0
  C  C1528  1  0.443800  0.994300  0.660200  1.0
  C  C1529  1  0.213400  0.310900  0.054850  1.0
  C  C1530  1  0.286600  0.689100  0.554850  1.0
  C  C1531  1  0.439100  0.463400  0.304850  1.0
  C  C1532  1  0.060900  0.536600  0.804850  1.0
  C  C1533  1  0.713400  0.810900  0.554850  1.0
  C  C1534  1  0.786600  0.189100  0.054850  1.0
  C  C1535  1  0.939100  0.963400  0.804850  1.0
  C  C1536  1  0.560900  0.036600  0.304850  1.0
  C  C1537  1  0.786600  0.689100  0.945150  1.0
  C  C1538  1  0.713400  0.310900  0.445150  1.0
  C  C1539  1  0.560900  0.536600  0.695150  1.0
  C  C1540  1  0.939100  0.463400  0.195150  1.0
  C  C1541  1  0.286600  0.189100  0.445150  1.0
  C  C1542  1  0.213400  0.810900  0.945150  1.0
  C  C1543  1  0.060900  0.036600  0.195150  1.0
  C  C1544  1  0.439100  0.963400  0.695150  1.0
  C  C1545  1  0.203600  0.358900  0.039570  1.0
  C  C1546  1  0.296400  0.641100  0.539570  1.0
  C  C1547  1  0.391100  0.453600  0.289570  1.0
  C  C1548  1  0.108900  0.546400  0.789570  1.0
  C  C1549  1  0.703600  0.858900  0.539570  1.0
  C  C1550  1  0.796400  0.141100  0.039570  1.0
  C  C1551  1  0.891100  0.953600  0.789570  1.0
  C  C1552  1  0.608900  0.046400  0.289570  1.0
  C  C1553  1  0.796400  0.641100  0.960430  1.0
  C  C1554  1  0.703600  0.358900  0.460430  1.0
  C  C1555  1  0.608900  0.546400  0.710430  1.0
  C  C1556  1  0.891100  0.453600  0.210430  1.0
  C  C1557  1  0.296400  0.141100  0.460430  1.0
  C  C1558  1  0.203600  0.858900  0.960430  1.0
  C  C1559  1  0.108900  0.046400  0.210430  1.0
  C  C1560  1  0.391100  0.953600  0.710430  1.0
  C  C1561  1  0.027000  0.258900  0.742800  1.0
  C  C1562  1  0.473000  0.741100  0.242800  1.0
  C  C1563  1  0.491100  0.277000  0.992800  1.0
  C  C1564  1  0.008900  0.723000  0.492800  1.0
  C  C1565  1  0.527000  0.758900  0.242800  1.0
  C  C1566  1  0.973000  0.241100  0.742800  1.0
  C  C1567  1  0.991100  0.777000  0.492800  1.0
  C  C1568  1  0.508900  0.223000  0.992800  1.0
  C  C1569  1  0.973000  0.741100  0.257200  1.0
  C  C1570  1  0.527000  0.258900  0.757200  1.0
  C  C1571  1  0.508900  0.723000  0.007200  1.0
  C  C1572  1  0.991100  0.277000  0.507200  1.0
  C  C1573  1  0.473000  0.241100  0.757200  1.0
  C  C1574  1  0.027000  0.758900  0.257200  1.0
  C  C1575  1  0.008900  0.223000  0.507200  1.0
  C  C1576  1  0.491100  0.777000  0.007200  1.0
  C  C1577  1  0.067300  0.186400  0.779100  1.0
  C  C1578  1  0.432700  0.813600  0.279100  1.0
  C  C1579  1  0.563600  0.317300  0.029100  1.0
  C  C1580  1  0.936400  0.682700  0.529100  1.0
  C  C1581  1  0.567300  0.686400  0.279100  1.0
  C  C1582  1  0.932700  0.313600  0.779100  1.0
  C  C1583  1  0.063600  0.817300  0.529100  1.0
  C  C1584  1  0.436400  0.182700  0.029100  1.0
  C  C1585  1  0.932700  0.813600  0.220900  1.0
  C  C1586  1  0.567300  0.186400  0.720900  1.0
  C  C1587  1  0.436400  0.682700  0.970900  1.0
  C  C1588  1  0.063600  0.317300  0.470900  1.0
  C  C1589  1  0.432700  0.313600  0.720900  1.0
  C  C1590  1  0.067300  0.686400  0.220900  1.0
  C  C1591  1  0.936400  0.182700  0.470900  1.0
  C  C1592  1  0.563600  0.817300  0.970900  1.0
  C  C1593  1  0.098700  0.272500  0.788100  1.0
  C  C1594  1  0.401300  0.727500  0.288100  1.0
  C  C1595  1  0.477500  0.348700  0.038100  1.0
  C  C1596  1  0.022500  0.651300  0.538100  1.0
  C  C1597  1  0.598700  0.772500  0.288100  1.0
  C  C1598  1  0.901300  0.227500  0.788100  1.0
  C  C1599  1  0.977500  0.848700  0.538100  1.0
  C  C1600  1  0.522500  0.151300  0.038100  1.0
  C  C1601  1  0.901300  0.727500  0.211900  1.0
  C  C1602  1  0.598700  0.272500  0.711900  1.0
  C  C1603  1  0.522500  0.651300  0.961900  1.0
  C  C1604  1  0.977500  0.348700  0.461900  1.0
  C  C1605  1  0.401300  0.227500  0.711900  1.0
  C  C1606  1  0.098700  0.772500  0.211900  1.0
  C  C1607  1  0.022500  0.151300  0.461900  1.0
  C  C1608  1  0.477500  0.848700  0.961900  1.0
  C  C1609  1  0.224600  0.400500  0.058720  1.0
  C  C1610  1  0.275400  0.599500  0.558720  1.0
  C  C1611  1  0.349500  0.474600  0.308720  1.0
  C  C1612  1  0.150500  0.525400  0.808720  1.0
  C  C1613  1  0.724600  0.900500  0.558720  1.0
  C  C1614  1  0.775400  0.099500  0.058720  1.0
  C  C1615  1  0.849500  0.974600  0.808720  1.0
  C  C1616  1  0.650500  0.025400  0.308720  1.0
  C  C1617  1  0.775400  0.599500  0.941280  1.0
  C  C1618  1  0.724600  0.400500  0.441280  1.0
  C  C1619  1  0.650500  0.525400  0.691280  1.0
  C  C1620  1  0.849500  0.474600  0.191280  1.0
  C  C1621  1  0.275400  0.099500  0.441280  1.0
  C  C1622  1  0.224600  0.900500  0.941280  1.0
  C  C1623  1  0.150500  0.025400  0.191280  1.0
  C  C1624  1  0.349500  0.974600  0.691280  1.0
  N  N1625  1  0.107900  0.926500  0.040100  1
  N  N1626  1  0.392100  0.073500  0.540100  1
  N  N1627  1  0.823500  0.357900  0.290100  1
  N  N1628  1  0.676500  0.642100  0.790100  1
  N  N1629  1  0.607900  0.426500  0.540100  1
  N  N1630  1  0.892100  0.573500  0.040100  1
  N  N1631  1  0.323500  0.857900  0.790100  1
  N  N1632  1  0.176500  0.142100  0.290100  1
  N  N1633  1  0.892100  0.073500  0.959900  1
  N  N1634  1  0.607900  0.926500  0.459900  1
  N  N1635  1  0.176500  0.642100  0.709900  1
  N  N1636  1  0.323500  0.357900  0.209900  1
  N  N1637  1  0.392100  0.573500  0.459900  1
  N  N1638  1  0.107900  0.426500  0.959900  1
  N  N1639  1  0.676500  0.142100  0.209900  1
  N  N1640  1  0.823500  0.857900  0.709900  1
  N  N1641  1  0.317500  0.024300  0.199600  1
  N  N1642  1  0.182500  0.975700  0.699600  1
  N  N1643  1  0.725700  0.567500  0.449600  1
  N  N1644  1  0.774300  0.432500  0.949600  1
  N  N1645  1  0.817500  0.524300  0.699600  1
  N  N1646  1  0.682500  0.475700  0.199600  1
  N  N1647  1  0.225700  0.067500  0.949600  1
  N  N1648  1  0.274300  0.932500  0.449600  1
  N  N1649  1  0.682500  0.975700  0.800400  1
  N  N1650  1  0.817500  0.024300  0.300400  1
  N  N1651  1  0.274300  0.432500  0.550400  1
  N  N1652  1  0.225700  0.567500  0.050400  1
  N  N1653  1  0.182500  0.475700  0.300400  1
  N  N1654  1  0.317500  0.524300  0.800400  1
  N  N1655  1  0.774300  0.932500  0.050400  1
  N  N1656  1  0.725700  0.067500  0.550400  1
  N  N1657  1  0.224000  0.226500  0.880900  1
  N  N1658  1  0.276000  0.773500  0.380900  1
  N  N1659  1  0.523500  0.474000  0.130900  1
  N  N1660  1  0.976500  0.526000  0.630900  1
  N  N1661  1  0.724000  0.726500  0.380900  1
  N  N1662  1  0.776000  0.273500  0.880900  1
  N  N1663  1  0.023500  0.974000  0.630900  1
  N  N1664  1  0.476500  0.026000  0.130900  1
  N  N1665  1  0.776000  0.773500  0.119100  1
  N  N1666  1  0.724000  0.226500  0.619100  1
  N  N1667  1  0.476500  0.526000  0.869100  1
  N  N1668  1  0.023500  0.474000  0.369100  1
  N  N1669  1  0.276000  0.273500  0.619100  1
  N  N1670  1  0.224000  0.726500  0.119100  1
  N  N1671  1  0.976500  0.026000  0.369100  1
  N  N1672  1  0.523500  0.974000  0.869100  1
  N  N1673  1  0.335100  0.284400  0.009400  1
  N  N1674  1  0.164900  0.715600  0.509400  1
  N  N1675  1  0.465600  0.585100  0.259400  1
  N  N1676  1  0.034400  0.414900  0.759400  1
  N  N1677  1  0.835100  0.784400  0.509400  1
  N  N1678  1  0.664900  0.215600  0.009400  1
  N  N1679  1  0.965600  0.085100  0.759400  1
  N  N1680  1  0.534400  0.914900  0.259400  1
  N  N1681  1  0.664900  0.715600  0.990600  1
  N  N1682  1  0.835100  0.284400  0.490600  1
  N  N1683  1  0.534400  0.414900  0.740600  1
  N  N1684  1  0.965600  0.585100  0.240600  1
  N  N1685  1  0.164900  0.215600  0.490600  1
  N  N1686  1  0.335100  0.784400  0.990600  1
  N  N1687  1  0.034400  0.914900  0.240600  1
  N  N1688  1  0.465600  0.085100  0.740600  1
  N  N1689  1  0.203460  0.037380  0.093760  1.0
  N  N1690  1  0.296540  0.962620  0.593760  1.0
  N  N1691  1  0.712620  0.453460  0.343760  1.0
  N  N1692  1  0.787380  0.546540  0.843760  1.0
  N  N1693  1  0.703460  0.537380  0.593760  1.0
  N  N1694  1  0.796540  0.462620  0.093760  1.0
  N  N1695  1  0.212620  0.953460  0.843760  1.0
  N  N1696  1  0.287380  0.046540  0.343760  1.0
  N  N1697  1  0.796540  0.962620  0.906240  1.0
  N  N1698  1  0.703460  0.037380  0.406240  1.0
  N  N1699  1  0.287380  0.546540  0.656240  1.0
  N  N1700  1  0.212620  0.453460  0.156240  1.0
  N  N1701  1  0.296540  0.462620  0.406240  1.0
  N  N1702  1  0.203460  0.537380  0.906240  1.0
  N  N1703  1  0.787380  0.046540  0.156240  1.0
  N  N1704  1  0.712620  0.953460  0.656240  1.0
  N  N1705  1  0.254540  0.396100  0.092570  1.0
  N  N1706  1  0.245460  0.603900  0.592570  1.0
  N  N1707  1  0.353900  0.504540  0.342570  1.0
  N  N1708  1  0.146100  0.495460  0.842570  1.0
  N  N1709  1  0.754540  0.896100  0.592570  1.0
  N  N1710  1  0.745460  0.103900  0.092570  1.0
  N  N1711  1  0.853900  0.004540  0.842570  1.0
  N  N1712  1  0.646100  0.995460  0.342570  1.0
  N  N1713  1  0.745460  0.603900  0.907430  1.0
  N  N1714  1  0.754540  0.396100  0.407430  1.0
  N  N1715  1  0.646100  0.495460  0.657430  1.0
  N  N1716  1  0.853900  0.504540  0.157430  1.0
  N  N1717  1  0.245460  0.103900  0.407430  1.0
  N  N1718  1  0.254540  0.896100  0.907430  1.0
  N  N1719  1  0.146100  0.995460  0.157430  1.0
  N  N1720  1  0.353900  0.004540  0.657430  1.0
  N  N1721  1  0.270600  0.945900  0.092920  1.0
  N  N1722  1  0.229400  0.054100  0.592920  1.0
  N  N1723  1  0.804100  0.520600  0.342920  1.0
  N  N1724  1  0.695900  0.479400  0.842920  1.0
  N  N1725  1  0.770600  0.445900  0.592920  1.0
  N  N1726  1  0.729400  0.554100  0.092920  1.0
  N  N1727  1  0.304100  0.020600  0.842920  1.0
  N  N1728  1  0.195900  0.979400  0.342920  1.0
  N  N1729  1  0.729400  0.054100  0.907080  1.0
  N  N1730  1  0.770600  0.945900  0.407080  1.0
  N  N1731  1  0.195900  0.479400  0.657080  1.0
  N  N1732  1  0.304100  0.520600  0.157080  1.0
  N  N1733  1  0.229400  0.554100  0.407080  1.0
  N  N1734  1  0.270600  0.445900  0.907080  1.0
  N  N1735  1  0.695900  0.979400  0.157080  1.0
  N  N1736  1  0.804100  0.020600  0.657080  1.0
  N  N1737  1  0.212200  0.902900  0.156870  1.0
  N  N1738  1  0.287800  0.097100  0.656870  1.0
  N  N1739  1  0.847100  0.462200  0.406870  1.0
  N  N1740  1  0.652900  0.537800  0.906870  1.0
  N  N1741  1  0.712200  0.402900  0.656870  1.0
  N  N1742  1  0.787800  0.597100  0.156870  1.0
  N  N1743  1  0.347100  0.962200  0.906870  1.0
  N  N1744  1  0.152900  0.037800  0.406870  1.0
  N  N1745  1  0.787800  0.097100  0.843130  1.0
  N  N1746  1  0.712200  0.902900  0.343130  1.0
  N  N1747  1  0.152900  0.537800  0.593130  1.0
  N  N1748  1  0.347100  0.462200  0.093130  1.0
  N  N1749  1  0.287800  0.597100  0.343130  1.0
  N  N1750  1  0.212200  0.402900  0.843130  1.0
  N  N1751  1  0.652900  0.037800  0.093130  1.0
  N  N1752  1  0.847100  0.962200  0.593130  1.0
  N  N1753  1  0.052500  0.241500  0.781770  1.0
  N  N1754  1  0.447500  0.758500  0.281770  1.0
  N  N1755  1  0.508500  0.302500  0.031770  1.0
  N  N1756  1  0.991500  0.697500  0.531770  1.0
  N  N1757  1  0.552500  0.741500  0.281770  1.0
  N  N1758  1  0.947500  0.258500  0.781770  1.0
  N  N1759  1  0.008500  0.802500  0.531770  1.0
  N  N1760  1  0.491500  0.197500  0.031770  1.0
  N  N1761  1  0.947500  0.758500  0.218230  1.0
  N  N1762  1  0.552500  0.241500  0.718230  1.0
  N  N1763  1  0.491500  0.697500  0.968230  1.0
  N  N1764  1  0.008500  0.302500  0.468230  1.0
  N  N1765  1  0.447500  0.258500  0.718230  1.0
  N  N1766  1  0.052500  0.741500  0.218230  1.0
  N  N1767  1  0.991500  0.197500  0.468230  1.0
  N  N1768  1  0.508500  0.802500  0.968230  1.0
  N  N1769  1  0.151900  0.182040  0.000160  1.0
  N  N1770  1  0.348100  0.817960  0.500160  1.0
  N  N1771  1  0.567960  0.401900  0.250160  1.0
  N  N1772  1  0.932040  0.598100  0.750160  1.0
  N  N1773  1  0.651900  0.682040  0.500160  1.0
  N  N1774  1  0.848100  0.317960  0.000160  1.0
  N  N1775  1  0.067960  0.901900  0.750160  1.0
  N  N1776  1  0.432040  0.098100  0.250160  1.0
  N  N1777  1  0.848100  0.817960  0.999840  1.0
  N  N1778  1  0.651900  0.182040  0.499840  1.0
  N  N1779  1  0.432040  0.598100  0.749840  1.0
  N  N1780  1  0.067960  0.401900  0.249840  1.0
  N  N1781  1  0.348100  0.317960  0.499840  1.0
  N  N1782  1  0.151900  0.682040  0.999840  1.0
  N  N1783  1  0.932040  0.098100  0.249840  1.0
  N  N1784  1  0.567960  0.901900  0.749840  1.0
  N  N1785  1  0.164520  0.271260  0.000090  1.0
  N  N1786  1  0.335480  0.728740  0.500090  1.0
  N  N1787  1  0.478740  0.414520  0.250090  1.0
  N  N1788  1  0.021260  0.585480  0.750090  1.0
  N  N1789  1  0.664520  0.771260  0.500090  1.0
  N  N1790  1  0.835480  0.228740  0.000090  1.0
  N  N1791  1  0.978740  0.914520  0.750090  1.0
  N  N1792  1  0.521260  0.085480  0.250090  1.0
  N  N1793  1  0.835480  0.728740  0.999910  1.0
  N  N1794  1  0.664520  0.271260  0.499910  1.0
  N  N1795  1  0.521260  0.585480  0.749910  1.0
  N  N1796  1  0.978740  0.414520  0.249910  1.0
  N  N1797  1  0.335480  0.228740  0.499910  1.0
  N  N1798  1  0.164520  0.771260  0.999910  1.0
  N  N1799  1  0.021260  0.085480  0.249910  1.0
  N  N1800  1  0.478740  0.914520  0.749910  1.0
  N  N1801  1  0.199800  0.220770  0.054830  1.0
  N  N1802  1  0.300200  0.779230  0.554830  1.0
  N  N1803  1  0.529230  0.449800  0.304830  1.0
  N  N1804  1  0.970770  0.550200  0.804830  1.0
  N  N1805  1  0.699800  0.720770  0.554830  1.0
  N  N1806  1  0.800200  0.279230  0.054830  1.0
  N  N1807  1  0.029230  0.949800  0.804830  1.0
  N  N1808  1  0.470770  0.050200  0.304830  1.0
  N  N1809  1  0.800200  0.779230  0.945170  1.0
  N  N1810  1  0.699800  0.220770  0.445170  1.0
  N  N1811  1  0.470770  0.550200  0.695170  1.0
  N  N1812  1  0.029230  0.449800  0.195170  1.0
  N  N1813  1  0.300200  0.279230  0.445170  1.0
  N  N1814  1  0.199800  0.720770  0.945170  1.0
  N  N1815  1  0.970770  0.050200  0.195170  1.0
  N  N1816  1  0.529230  0.949800  0.695170  1.0
  N  N1817  1  0.051690  0.241910  0.875810  1.0
  N  N1818  1  0.448310  0.758090  0.375810  1.0
  N  N1819  1  0.508090  0.301690  0.125810  1.0
  N  N1820  1  0.991910  0.698310  0.625810  1.0
  N  N1821  1  0.551690  0.741910  0.375810  1.0
  N  N1822  1  0.948310  0.258090  0.875810  1.0
  N  N1823  1  0.008090  0.801690  0.625810  1.0
  N  N1824  1  0.491910  0.198310  0.125810  1.0
  N  N1825  1  0.948310  0.758090  0.124190  1.0
  N  N1826  1  0.551690  0.241910  0.624190  1.0
  N  N1827  1  0.491910  0.698310  0.874190  1.0
  N  N1828  1  0.008090  0.301690  0.374190  1.0
  N  N1829  1  0.448310  0.258090  0.624190  1.0
  N  N1830  1  0.051690  0.741910  0.124190  1.0
  N  N1831  1  0.991910  0.198310  0.374190  1.0
  N  N1832  1  0.508090  0.801690  0.874190  1.0
  O  O1833  1  0.307300  0.146900  0.177700  1
  O  O1834  1  0.192700  0.853100  0.677700  1
  O  O1835  1  0.603100  0.557300  0.427700  1
  O  O1836  1  0.896900  0.442700  0.927700  1
  O  O1837  1  0.807300  0.646900  0.677700  1
  O  O1838  1  0.692700  0.353100  0.177700  1
  O  O1839  1  0.103100  0.057300  0.927700  1
  O  O1840  1  0.396900  0.942700  0.427700  1
  O  O1841  1  0.692700  0.853100  0.822300  1
  O  O1842  1  0.807300  0.146900  0.322300  1
  O  O1843  1  0.396900  0.442700  0.572300  1
  O  O1844  1  0.103100  0.557300  0.072300  1
  O  O1845  1  0.192700  0.353100  0.322300  1
  O  O1846  1  0.307300  0.646900  0.822300  1
  O  O1847  1  0.896900  0.942700  0.072300  1
  O  O1848  1  0.603100  0.057300  0.572300  1
  O  O1849  1  0.134900  0.937400  0.006400  1
  O  O1850  1  0.365100  0.062600  0.506400  1
  O  O1851  1  0.812600  0.384900  0.256400  1
  O  O1852  1  0.687400  0.615100  0.756400  1
  O  O1853  1  0.634900  0.437400  0.506400  1
  O  O1854  1  0.865100  0.562600  0.006400  1
  O  O1855  1  0.312600  0.884900  0.756400  1
  O  O1856  1  0.187400  0.115100  0.256400  1
  O  O1857  1  0.865100  0.062600  0.993600  1
  O  O1858  1  0.634900  0.937400  0.493600  1
  O  O1859  1  0.187400  0.615100  0.743600  1
  O  O1860  1  0.312600  0.384900  0.243600  1
  O  O1861  1  0.365100  0.562600  0.493600  1
  O  O1862  1  0.134900  0.437400  0.993600  1
  O  O1863  1  0.687400  0.115100  0.243600  1
  O  O1864  1  0.812600  0.884900  0.743600  1
  O  O1865  1  0.127300  0.902500  0.063500  1
  O  O1866  1  0.372700  0.097500  0.563500  1
  O  O1867  1  0.847500  0.377300  0.313500  1
  O  O1868  1  0.652500  0.622700  0.813500  1
  O  O1869  1  0.627300  0.402500  0.563500  1
  O  O1870  1  0.872700  0.597500  0.063500  1
  O  O1871  1  0.347500  0.877300  0.813500  1
  O  O1872  1  0.152500  0.122700  0.313500  1
  O  O1873  1  0.872700  0.097500  0.936500  1
  O  O1874  1  0.627300  0.902500  0.436500  1
  O  O1875  1  0.152500  0.622700  0.686500  1
  O  O1876  1  0.347500  0.377300  0.186500  1
  O  O1877  1  0.372700  0.597500  0.436500  1
  O  O1878  1  0.127300  0.402500  0.936500  1
  O  O1879  1  0.652500  0.122700  0.186500  1
  O  O1880  1  0.847500  0.877300  0.686500  1
  O  O1881  1  0.073900  0.958500  0.037400  1
  O  O1882  1  0.426100  0.041500  0.537400  1
  O  O1883  1  0.791500  0.323900  0.287400  1
  O  O1884  1  0.708500  0.676100  0.787400  1
  O  O1885  1  0.573900  0.458500  0.537400  1
  O  O1886  1  0.926100  0.541500  0.037400  1
  O  O1887  1  0.291500  0.823900  0.787400  1
  O  O1888  1  0.208500  0.176100  0.287400  1
  O  O1889  1  0.926100  0.041500  0.962600  1
  O  O1890  1  0.573900  0.958500  0.462600  1
  O  O1891  1  0.208500  0.676100  0.712600  1
  O  O1892  1  0.291500  0.323900  0.212600  1
  O  O1893  1  0.426100  0.541500  0.462600  1
  O  O1894  1  0.073900  0.458500  0.962600  1
  O  O1895  1  0.708500  0.176100  0.212600  1
  O  O1896  1  0.791500  0.823900  0.712600  1
  O  O1897  1  0.033300  0.903400  0.084700  1
  O  O1898  1  0.466700  0.096600  0.584700  1
  O  O1899  1  0.846600  0.283300  0.334700  1
  O  O1900  1  0.653400  0.716700  0.834700  1
  O  O1901  1  0.533300  0.403400  0.584700  1
  O  O1902  1  0.966700  0.596600  0.084700  1
  O  O1903  1  0.346600  0.783300  0.834700  1
  O  O1904  1  0.153400  0.216700  0.334700  1
  O  O1905  1  0.966700  0.096600  0.915300  1
  O  O1906  1  0.533300  0.903400  0.415300  1
  O  O1907  1  0.153400  0.716700  0.665300  1
  O  O1908  1  0.346600  0.283300  0.165300  1
  O  O1909  1  0.466700  0.596600  0.415300  1
  O  O1910  1  0.033300  0.403400  0.915300  1
  O  O1911  1  0.653400  0.216700  0.165300  1
  O  O1912  1  0.846600  0.783300  0.665300  1
  O  O1913  1  0.964600  0.940600  0.094500  1
  O  O1914  1  0.535400  0.059400  0.594500  1
  O  O1915  1  0.809400  0.214600  0.344500  1
  O  O1916  1  0.690600  0.785400  0.844500  1
  O  O1917  1  0.464600  0.440600  0.594500  1
  O  O1918  1  0.035400  0.559400  0.094500  1
  O  O1919  1  0.309400  0.714600  0.844500  1
  O  O1920  1  0.190600  0.285400  0.344500  1
  O  O1921  1  0.035400  0.059400  0.905500  1
  O  O1922  1  0.464600  0.940600  0.405500  1
  O  O1923  1  0.190600  0.785400  0.655500  1
  O  O1924  1  0.309400  0.214600  0.155500  1
  O  O1925  1  0.535400  0.559400  0.405500  1
  O  O1926  1  0.964600  0.440600  0.905500  1
  O  O1927  1  0.690600  0.285400  0.155500  1
  O  O1928  1  0.809400  0.714600  0.655500  1
  O  O1929  1  0.350500  0.990500  0.207400  1
  O  O1930  1  0.149500  0.009500  0.707400  1
  O  O1931  1  0.759500  0.600500  0.457400  1
  O  O1932  1  0.740500  0.399500  0.957400  1
  O  O1933  1  0.850500  0.490500  0.707400  1
  O  O1934  1  0.649500  0.509500  0.207400  1
  O  O1935  1  0.259500  0.100500  0.957400  1
  O  O1936  1  0.240500  0.899500  0.457400  1
  O  O1937  1  0.649500  0.009500  0.792600  1
  O  O1938  1  0.850500  0.990500  0.292600  1
  O  O1939  1  0.240500  0.399500  0.542600  1
  O  O1940  1  0.259500  0.600500  0.042600  1
  O  O1941  1  0.149500  0.509500  0.292600  1
  O  O1942  1  0.350500  0.490500  0.792600  1
  O  O1943  1  0.740500  0.899500  0.042600  1
  O  O1944  1  0.759500  0.100500  0.542600  1
  O  O1945  1  0.330900  0.062500  0.179600  1
  O  O1946  1  0.169100  0.937500  0.679600  1
  O  O1947  1  0.687500  0.580900  0.429600  1
  O  O1948  1  0.812500  0.419100  0.929600  1
  O  O1949  1  0.830900  0.562500  0.679600  1
  O  O1950  1  0.669100  0.437500  0.179600  1
  O  O1951  1  0.187500  0.080900  0.929600  1
  O  O1952  1  0.312500  0.919100  0.429600  1
  O  O1953  1  0.669100  0.937500  0.820400  1
  O  O1954  1  0.830900  0.062500  0.320400  1
  O  O1955  1  0.312500  0.419100  0.570400  1
  O  O1956  1  0.187500  0.580900  0.070400  1
  O  O1957  1  0.169100  0.437500  0.320400  1
  O  O1958  1  0.330900  0.562500  0.820400  1
  O  O1959  1  0.812500  0.919100  0.070400  1
  O  O1960  1  0.687500  0.080900  0.570400  1
  O  O1961  1  0.272800  0.016500  0.207600  1
  O  O1962  1  0.227200  0.983500  0.707600  1
  O  O1963  1  0.733500  0.522800  0.457600  1
  O  O1964  1  0.766500  0.477200  0.957600  1
  O  O1965  1  0.772800  0.516500  0.707600  1
  O  O1966  1  0.727200  0.483500  0.207600  1
  O  O1967  1  0.233500  0.022800  0.957600  1
  O  O1968  1  0.266500  0.977200  0.457600  1
  O  O1969  1  0.727200  0.983500  0.792400  1
  O  O1970  1  0.772800  0.016500  0.292400  1
  O  O1971  1  0.266500  0.477200  0.542400  1
  O  O1972  1  0.233500  0.522800  0.042400  1
  O  O1973  1  0.227200  0.483500  0.292400  1
  O  O1974  1  0.272800  0.516500  0.792400  1
  O  O1975  1  0.766500  0.977200  0.042400  1
  O  O1976  1  0.733500  0.022800  0.542400  1
  O  O1977  1  0.863000  0.303600  0.675000  1
  O  O1978  1  0.637000  0.696400  0.175000  1
  O  O1979  1  0.446400  0.113000  0.925000  1
  O  O1980  1  0.053600  0.887000  0.425000  1
  O  O1981  1  0.363000  0.803600  0.175000  1
  O  O1982  1  0.137000  0.196400  0.675000  1
  O  O1983  1  0.946400  0.613000  0.425000  1
  O  O1984  1  0.553600  0.387000  0.925000  1
  O  O1985  1  0.137000  0.696400  0.325000  1
  O  O1986  1  0.363000  0.303600  0.825000  1
  O  O1987  1  0.553600  0.887000  0.075000  1
  O  O1988  1  0.946400  0.113000  0.575000  1
  O  O1989  1  0.637000  0.196400  0.825000  1
  O  O1990  1  0.863000  0.803600  0.325000  1
  O  O1991  1  0.053600  0.387000  0.575000  1
  O  O1992  1  0.446400  0.613000  0.075000  1
  O  O1993  1  0.326400  0.929900  0.283600  1
  O  O1994  1  0.173600  0.070100  0.783600  1
  O  O1995  1  0.820100  0.576400  0.533600  1
  O  O1996  1  0.679900  0.423600  0.033600  1
  O  O1997  1  0.826400  0.429900  0.783600  1
  O  O1998  1  0.673600  0.570100  0.283600  1
  O  O1999  1  0.320100  0.076400  0.033600  1
  O  O2000  1  0.179900  0.923600  0.533600  1
  O  O2001  1  0.673600  0.070100  0.716400  1
  O  O2002  1  0.826400  0.929900  0.216400  1
  O  O2003  1  0.179900  0.423600  0.466400  1
  O  O2004  1  0.320100  0.576400  0.966400  1
  O  O2005  1  0.173600  0.570100  0.216400  1
  O  O2006  1  0.326400  0.429900  0.716400  1
  O  O2007  1  0.679900  0.923600  0.966400  1
  O  O2008  1  0.820100  0.076400  0.466400  1
  O  O2009  1  0.384600  0.934000  0.254300  1
  O  O2010  1  0.115400  0.066000  0.754300  1
  O  O2011  1  0.816000  0.634600  0.504300  1
  O  O2012  1  0.684000  0.365400  0.004300  1
  O  O2013  1  0.884600  0.434000  0.754300  1
  O  O2014  1  0.615400  0.566000  0.254300  1
  O  O2015  1  0.316000  0.134600  0.004300  1
  O  O2016  1  0.184000  0.865400  0.504300  1
  O  O2017  1  0.615400  0.066000  0.745700  1
  O  O2018  1  0.884600  0.934000  0.245700  1
  O  O2019  1  0.184000  0.365400  0.495700  1
  O  O2020  1  0.316000  0.634600  0.995700  1
  O  O2021  1  0.115400  0.566000  0.245700  1
  O  O2022  1  0.384600  0.434000  0.745700  1
  O  O2023  1  0.684000  0.865400  0.995700  1
  O  O2024  1  0.816000  0.134600  0.495700  1
  O  O2025  1  0.189700  0.229600  0.853600  1
  O  O2026  1  0.310300  0.770400  0.353600  1
  O  O2027  1  0.520400  0.439700  0.103600  1
  O  O2028  1  0.979600  0.560300  0.603600  1
  O  O2029  1  0.689700  0.729600  0.353600  1
  O  O2030  1  0.810300  0.270400  0.853600  1
  O  O2031  1  0.020400  0.939700  0.603600  1
  O  O2032  1  0.479600  0.060300  0.103600  1
  O  O2033  1  0.810300  0.770400  0.146400  1
  O  O2034  1  0.689700  0.229600  0.646400  1
  O  O2035  1  0.479600  0.560300  0.896400  1
  O  O2036  1  0.020400  0.439700  0.396400  1
  O  O2037  1  0.310300  0.270400  0.646400  1
  O  O2038  1  0.189700  0.729600  0.146400  1
  O  O2039  1  0.979600  0.060300  0.396400  1
  O  O2040  1  0.520400  0.939700  0.896400  1
  O  O2041  1  0.244100  0.262400  0.900600  1
  O  O2042  1  0.255900  0.737600  0.400600  1
  O  O2043  1  0.487600  0.494100  0.150600  1
  O  O2044  1  0.012400  0.505900  0.650600  1
  O  O2045  1  0.744100  0.762400  0.400600  1
  O  O2046  1  0.755900  0.237600  0.900600  1
  O  O2047  1  0.987600  0.994100  0.650600  1
  O  O2048  1  0.512400  0.005900  0.150600  1
  O  O2049  1  0.755900  0.737600  0.099400  1
  O  O2050  1  0.744100  0.262400  0.599400  1
  O  O2051  1  0.512400  0.505900  0.849400  1
  O  O2052  1  0.987600  0.494100  0.349400  1
  O  O2053  1  0.255900  0.237600  0.599400  1
  O  O2054  1  0.244100  0.762400  0.099400  1
  O  O2055  1  0.012400  0.005900  0.349400  1
  O  O2056  1  0.487600  0.994100  0.849400  1
  O  O2057  1  0.220600  0.183600  0.899100  1
  O  O2058  1  0.279400  0.816400  0.399100  1
  O  O2059  1  0.566400  0.470600  0.149100  1
  O  O2060  1  0.933600  0.529400  0.649100  1
  O  O2061  1  0.720600  0.683600  0.399100  1
  O  O2062  1  0.779400  0.316400  0.899100  1
  O  O2063  1  0.066400  0.970600  0.649100  1
  O  O2064  1  0.433600  0.029400  0.149100  1
  O  O2065  1  0.779400  0.816400  0.100900  1
  O  O2066  1  0.720600  0.183600  0.600900  1
  O  O2067  1  0.433600  0.529400  0.850900  1
  O  O2068  1  0.066400  0.470600  0.350900  1
  O  O2069  1  0.279400  0.316400  0.600900  1
  O  O2070  1  0.220600  0.683600  0.100900  1
  O  O2071  1  0.933600  0.029400  0.350900  1
  O  O2072  1  0.566400  0.970600  0.850900  1
  O  O2073  1  0.273700  0.218300  0.967500  1
  O  O2074  1  0.226300  0.781700  0.467500  1
  O  O2075  1  0.531700  0.523700  0.217500  1
  O  O2076  1  0.968300  0.476300  0.717500  1
  O  O2077  1  0.773700  0.718300  0.467500  1
  O  O2078  1  0.726300  0.281700  0.967500  1
  O  O2079  1  0.031700  0.023700  0.717500  1
  O  O2080  1  0.468300  0.976300  0.217500  1
  O  O2081  1  0.726300  0.781700  0.032500  1
  O  O2082  1  0.773700  0.218300  0.532500  1
  O  O2083  1  0.468300  0.476300  0.782500  1
  O  O2084  1  0.031700  0.523700  0.282500  1
  O  O2085  1  0.226300  0.281700  0.532500  1
  O  O2086  1  0.273700  0.718300  0.032500  1
  O  O2087  1  0.968300  0.976300  0.282500  1
  O  O2088  1  0.531700  0.023700  0.782500  1
  O  O2089  1  0.379500  0.285900  0.079800  1
  O  O2090  1  0.120500  0.714100  0.579800  1
  O  O2091  1  0.464100  0.629500  0.329800  1
  O  O2092  1  0.035900  0.370500  0.829800  1
  O  O2093  1  0.879500  0.785900  0.579800  1
  O  O2094  1  0.620500  0.214100  0.079800  1
  O  O2095  1  0.964100  0.129500  0.829800  1
  O  O2096  1  0.535900  0.870500  0.329800  1
  O  O2097  1  0.620500  0.714100  0.920200  1
  O  O2098  1  0.879500  0.285900  0.420200  1
  O  O2099  1  0.535900  0.370500  0.670200  1
  O  O2100  1  0.964100  0.629500  0.170200  1
  O  O2101  1  0.120500  0.214100  0.420200  1
  O  O2102  1  0.379500  0.785900  0.920200  1
  O  O2103  1  0.035900  0.870500  0.170200  1
  O  O2104  1  0.464100  0.129500  0.670200  1
  O  O2105  1  0.336300  0.340800  0.015100  1
  O  O2106  1  0.163700  0.659200  0.515100  1
  O  O2107  1  0.409200  0.586300  0.265100  1
  O  O2108  1  0.090800  0.413700  0.765100  1
  O  O2109  1  0.836300  0.840800  0.515100  1
  O  O2110  1  0.663700  0.159200  0.015100  1
  O  O2111  1  0.909200  0.086300  0.765100  1
  O  O2112  1  0.590800  0.913700  0.265100  1
  O  O2113  1  0.663700  0.659200  0.984900  1
  O  O2114  1  0.836300  0.340800  0.484900  1
  O  O2115  1  0.590800  0.413700  0.734900  1
  O  O2116  1  0.909200  0.586300  0.234900  1
  O  O2117  1  0.163700  0.159200  0.484900  1
  O  O2118  1  0.336300  0.840800  0.984900  1
  O  O2119  1  0.090800  0.913700  0.234900  1
  O  O2120  1  0.409200  0.086300  0.734900  1
  O  O2121  1  0.370400  0.268800  0.087000  1
  O  O2122  1  0.129600  0.731200  0.587000  1
  O  O2123  1  0.481200  0.620400  0.337000  1
  O  O2124  1  0.018800  0.379600  0.837000  1
  O  O2125  1  0.870400  0.768800  0.587000  1
  O  O2126  1  0.629600  0.231200  0.087000  1
  O  O2127  1  0.981200  0.120400  0.837000  1
  O  O2128  1  0.518800  0.879600  0.337000  1
  O  O2129  1  0.629600  0.731200  0.913000  1
  O  O2130  1  0.870400  0.268800  0.413000  1
  O  O2131  1  0.518800  0.379600  0.663000  1
  O  O2132  1  0.981200  0.620400  0.163000  1
  O  O2133  1  0.129600  0.231200  0.413000  1
  O  O2134  1  0.370400  0.768800  0.913000  1
  O  O2135  1  0.018800  0.879600  0.163000  1
  O  O2136  1  0.481200  0.120400  0.663000  1
  O  O2137  1  0.433500  0.425300  0.941500  1
  O  O2138  1  0.066500  0.574700  0.441500  1
  O  O2139  1  0.324700  0.683500  0.191500  1
  O  O2140  1  0.175300  0.316500  0.691500  1
  O  O2141  1  0.933500  0.925300  0.441500  1
  O  O2142  1  0.566500  0.074700  0.941500  1
  O  O2143  1  0.824700  0.183500  0.691500  1
  O  O2144  1  0.675300  0.816500  0.191500  1
  O  O2145  1  0.566500  0.574700  0.058500  1
  O  O2146  1  0.933500  0.425300  0.558500  1
  O  O2147  1  0.675300  0.316500  0.808500  1
  O  O2148  1  0.824700  0.683500  0.308500  1
  O  O2149  1  0.066500  0.074700  0.558500  1
  O  O2150  1  0.433500  0.925300  0.058500  1
  O  O2151  1  0.175300  0.816500  0.308500  1
  O  O2152  1  0.324700  0.183500  0.808500  1
  O  O2153  1  0.379300  0.345300  0.952600  1
  O  O2154  1  0.120700  0.654700  0.452600  1
  O  O2155  1  0.404700  0.629300  0.202600  1
  O  O2156  1  0.095300  0.370700  0.702600  1
  O  O2157  1  0.879300  0.845300  0.452600  1
  O  O2158  1  0.620700  0.154700  0.952600  1
  O  O2159  1  0.904700  0.129300  0.702600  1
  O  O2160  1  0.595300  0.870700  0.202600  1
  O  O2161  1  0.620700  0.654700  0.047400  1
  O  O2162  1  0.879300  0.345300  0.547400  1
  O  O2163  1  0.595300  0.370700  0.797400  1
  O  O2164  1  0.904700  0.629300  0.297400  1
  O  O2165  1  0.120700  0.154700  0.547400  1
  O  O2166  1  0.379300  0.845300  0.047400  1
  O  O2167  1  0.095300  0.870700  0.297400  1
  O  O2168  1  0.404700  0.129300  0.797400  1
  O  O2169  1  0.139800  0.104000  0.850500  1
  O  O2170  1  0.360200  0.896000  0.350500  1
  O  O2171  1  0.646000  0.389800  0.100500  1
  O  O2172  1  0.854000  0.610200  0.600500  1
  O  O2173  1  0.639800  0.604000  0.350500  1
  O  O2174  1  0.860200  0.396000  0.850500  1
  O  O2175  1  0.146000  0.889800  0.600500  1
  O  O2176  1  0.354000  0.110200  0.100500  1
  O  O2177  1  0.860200  0.896000  0.149500  1
  O  O2178  1  0.639800  0.104000  0.649500  1
  O  O2179  1  0.354000  0.610200  0.899500  1
  O  O2180  1  0.146000  0.389800  0.399500  1
  O  O2181  1  0.360200  0.396000  0.649500  1
  O  O2182  1  0.139800  0.604000  0.149500  1
  O  O2183  1  0.854000  0.110200  0.399500  1
  O  O2184  1  0.646000  0.889800  0.899500  1
  O  O2185  1  0.437000  0.019700  0.020800  1
  O  O2186  1  0.063000  0.980300  0.520800  1
  O  O2187  1  0.730300  0.687000  0.270800  1
  O  O2188  1  0.769700  0.313000  0.770800  1
  O  O2189  1  0.937000  0.519700  0.520800  1
  O  O2190  1  0.563000  0.480300  0.020800  1
  O  O2191  1  0.230300  0.187000  0.770800  1
  O  O2192  1  0.269700  0.813000  0.270800  1
  O  O2193  1  0.563000  0.980300  0.979200  1
  O  O2194  1  0.937000  0.019700  0.479200  1
  O  O2195  1  0.269700  0.313000  0.729200  1
  O  O2196  1  0.230300  0.687000  0.229200  1
  O  O2197  1  0.063000  0.480300  0.479200  1
  O  O2198  1  0.437000  0.519700  0.979200  1
  O  O2199  1  0.769700  0.813000  0.229200  1
  O  O2200  1  0.730300  0.187000  0.729200  1
  O  O2201  1  0.000000  0.250000  0.625000  1
  O  O2202  1  0.500000  0.750000  0.125000  1
  O  O2203  1  0.500000  0.250000  0.875000  1
  O  O2204  1  0.000000  0.750000  0.375000  1
  O  O2205  1  0.007600  0.341200  0.659100  1
  O  O2206  1  0.492400  0.658800  0.159100  1
  O  O2207  1  0.408800  0.257600  0.909100  1
  O  O2208  1  0.091200  0.742400  0.409100  1
  O  O2209  1  0.507600  0.841200  0.159100  1
  O  O2210  1  0.992400  0.158800  0.659100  1
  O  O2211  1  0.908800  0.757600  0.409100  1
  O  O2212  1  0.591200  0.242400  0.909100  1
  O  O2213  1  0.992400  0.658800  0.340900  1
  O  O2214  1  0.507600  0.341200  0.840900  1
  O  O2215  1  0.591200  0.742400  0.090900  1
  O  O2216  1  0.908800  0.257600  0.590900  1
  O  O2217  1  0.492400  0.158800  0.840900  1
  O  O2218  1  0.007600  0.841200  0.340900  1
  O  O2219  1  0.091200  0.242400  0.590900  1
  O  O2220  1  0.408800  0.757600  0.090900  1
  O  O2221  1  0.934700  0.400400  0.648100  1
  O  O2222  1  0.565300  0.599600  0.148100  1
  O  O2223  1  0.349600  0.184700  0.898100  1
  O  O2224  1  0.150400  0.815300  0.398100  1
  O  O2225  1  0.434700  0.900400  0.148100  1
  O  O2226  1  0.065300  0.099600  0.648100  1
  O  O2227  1  0.849600  0.684700  0.398100  1
  O  O2228  1  0.650400  0.315300  0.898100  1
  O  O2229  1  0.065300  0.599600  0.351900  1
  O  O2230  1  0.434700  0.400400  0.851900  1
  O  O2231  1  0.650400  0.815300  0.101900  1
  O  O2232  1  0.849600  0.184700  0.601900  1
  O  O2233  1  0.565300  0.099600  0.851900  1
  O  O2234  1  0.934700  0.900400  0.351900  1
  O  O2235  1  0.150400  0.315300  0.601900  1
  O  O2236  1  0.349600  0.684700  0.101900  1
  O  O2237  1  0.137800  0.915300  0.042600  1
  O  O2238  1  0.362200  0.084700  0.542600  1
  O  O2239  1  0.834700  0.387800  0.292600  1
  O  O2240  1  0.665300  0.612200  0.792600  1
  O  O2241  1  0.637800  0.415300  0.542600  1
  O  O2242  1  0.862200  0.584700  0.042600  1
  O  O2243  1  0.334700  0.887800  0.792600  1
  O  O2244  1  0.165300  0.112200  0.292600  1
  O  O2245  1  0.862200  0.084700  0.957400  1
  O  O2246  1  0.637800  0.915300  0.457400  1
  O  O2247  1  0.165300  0.612200  0.707400  1
  O  O2248  1  0.334700  0.387800  0.207400  1
  O  O2249  1  0.362200  0.584700  0.457400  1
  O  O2250  1  0.137800  0.415300  0.957400  1
  O  O2251  1  0.665300  0.112200  0.207400  1
  O  O2252  1  0.834700  0.887800  0.707400  1
  O  O2253  1  0.074300  0.900400  0.068100  1
  O  O2254  1  0.425700  0.099600  0.568100  1
  O  O2255  1  0.849600  0.324300  0.318100  1
  O  O2256  1  0.650400  0.675700  0.818100  1
  O  O2257  1  0.574300  0.400400  0.568100  1
  O  O2258  1  0.925700  0.599600  0.068100  1
  O  O2259  1  0.349600  0.824300  0.818100  1
  O  O2260  1  0.150400  0.175700  0.318100  1
  O  O2261  1  0.925700  0.099600  0.931900  1
  O  O2262  1  0.574300  0.900400  0.431900  1
  O  O2263  1  0.150400  0.675700  0.681900  1
  O  O2264  1  0.349600  0.324300  0.181900  1
  O  O2265  1  0.425700  0.599600  0.431900  1
  O  O2266  1  0.074300  0.400400  0.931900  1
  O  O2267  1  0.650400  0.175700  0.181900  1
  O  O2268  1  0.849600  0.824300  0.681900  1
  O  O2269  1  0.997100  0.920100  0.097200  1
  O  O2270  1  0.502900  0.079900  0.597200  1
  O  O2271  1  0.829900  0.247100  0.347200  1
  O  O2272  1  0.670100  0.752900  0.847200  1
  O  O2273  1  0.497100  0.420100  0.597200  1
  O  O2274  1  0.002900  0.579900  0.097200  1
  O  O2275  1  0.329900  0.747100  0.847200  1
  O  O2276  1  0.170100  0.252900  0.347200  1
  O  O2277  1  0.002900  0.079900  0.902800  1
  O  O2278  1  0.497100  0.920100  0.402800  1
  O  O2279  1  0.170100  0.752900  0.652800  1
  O  O2280  1  0.329900  0.247100  0.152800  1
  O  O2281  1  0.502900  0.579900  0.402800  1
  O  O2282  1  0.997100  0.420100  0.902800  1
  O  O2283  1  0.670100  0.252900  0.152800  1
  O  O2284  1  0.829900  0.747100  0.652800  1
  O  O2285  1  0.274800  0.039600  0.202400  1
  O  O2286  1  0.225200  0.960400  0.702400  1
  O  O2287  1  0.710400  0.524800  0.452400  1
  O  O2288  1  0.789600  0.475200  0.952400  1
  O  O2289  1  0.774800  0.539600  0.702400  1
  O  O2290  1  0.725200  0.460400  0.202400  1
  O  O2291  1  0.210400  0.024800  0.952400  1
  O  O2292  1  0.289600  0.975200  0.452400  1
  O  O2293  1  0.725200  0.960400  0.797600  1
  O  O2294  1  0.774800  0.039600  0.297600  1
  O  O2295  1  0.289600  0.475200  0.547600  1
  O  O2296  1  0.210400  0.524800  0.047600  1
  O  O2297  1  0.225200  0.460400  0.297600  1
  O  O2298  1  0.274800  0.539600  0.797600  1
  O  O2299  1  0.789600  0.975200  0.047600  1
  O  O2300  1  0.710400  0.024800  0.547600  1
  O  O2301  1  0.306000  0.978600  0.238600  1
  O  O2302  1  0.194000  0.021400  0.738600  1
  O  O2303  1  0.771400  0.556000  0.488600  1
  O  O2304  1  0.728600  0.444000  0.988600  1
  O  O2305  1  0.806000  0.478600  0.738600  1
  O  O2306  1  0.694000  0.521400  0.238600  1
  O  O2307  1  0.271400  0.056000  0.988600  1
  O  O2308  1  0.228600  0.944000  0.488600  1
  O  O2309  1  0.694000  0.021400  0.761400  1
  O  O2310  1  0.806000  0.978600  0.261400  1
  O  O2311  1  0.228600  0.444000  0.511400  1
  O  O2312  1  0.271400  0.556000  0.011400  1
  O  O2313  1  0.194000  0.521400  0.261400  1
  O  O2314  1  0.306000  0.478600  0.761400  1
  O  O2315  1  0.728600  0.944000  0.011400  1
  O  O2316  1  0.771400  0.056000  0.511400  1
  O  O2317  1  0.883100  0.360300  0.677800  1
  O  O2318  1  0.616900  0.639700  0.177800  1
  O  O2319  1  0.389700  0.133100  0.927800  1
  O  O2320  1  0.110300  0.866900  0.427800  1
  O  O2321  1  0.383100  0.860300  0.177800  1
  O  O2322  1  0.116900  0.139700  0.677800  1
  O  O2323  1  0.889700  0.633100  0.427800  1
  O  O2324  1  0.610300  0.366900  0.927800  1
  O  O2325  1  0.116900  0.639700  0.322200  1
  O  O2326  1  0.383100  0.360300  0.822200  1
  O  O2327  1  0.610300  0.866900  0.072200  1
  O  O2328  1  0.889700  0.133100  0.572200  1
  O  O2329  1  0.616900  0.139700  0.822200  1
  O  O2330  1  0.883100  0.860300  0.322200  1
  O  O2331  1  0.110300  0.366900  0.572200  1
  O  O2332  1  0.389700  0.633100  0.072200  1
  O  O2333  1  0.810900  0.291300  0.711900  1
  O  O2334  1  0.689100  0.708700  0.211900  1
  O  O2335  1  0.458700  0.060900  0.961900  1
  O  O2336  1  0.041300  0.939100  0.461900  1
  O  O2337  1  0.310900  0.791300  0.211900  1
  O  O2338  1  0.189100  0.208700  0.711900  1
  O  O2339  1  0.958700  0.560900  0.461900  1
  O  O2340  1  0.541300  0.439100  0.961900  1
  O  O2341  1  0.189100  0.708700  0.288100  1
  O  O2342  1  0.310900  0.291300  0.788100  1
  O  O2343  1  0.541300  0.939100  0.038100  1
  O  O2344  1  0.958700  0.060900  0.538100  1
  O  O2345  1  0.689100  0.208700  0.788100  1
  O  O2346  1  0.810900  0.791300  0.288100  1
  O  O2347  1  0.041300  0.439100  0.538100  1
  O  O2348  1  0.458700  0.560900  0.038100  1
  O  O2349  1  0.346400  0.279000  0.047800  1
  O  O2350  1  0.153600  0.721000  0.547800  1
  O  O2351  1  0.471000  0.596400  0.297800  1
  O  O2352  1  0.029000  0.403600  0.797800  1
  O  O2353  1  0.846400  0.779000  0.547800  1
  O  O2354  1  0.653600  0.221000  0.047800  1
  O  O2355  1  0.971000  0.096400  0.797800  1
  O  O2356  1  0.529000  0.903600  0.297800  1
  O  O2357  1  0.653600  0.721000  0.952200  1
  O  O2358  1  0.846400  0.279000  0.452200  1
  O  O2359  1  0.529000  0.403600  0.702200  1
  O  O2360  1  0.971000  0.596400  0.202200  1
  O  O2361  1  0.153600  0.221000  0.452200  1
  O  O2362  1  0.346400  0.779000  0.952200  1
  O  O2363  1  0.029000  0.903600  0.202200  1
  O  O2364  1  0.471000  0.096400  0.702200  1
  O  O2365  1  0.299400  0.256600  0.995700  1
  O  O2366  1  0.200600  0.743400  0.495700  1
  O  O2367  1  0.493400  0.549400  0.245700  1
  O  O2368  1  0.006600  0.450600  0.745700  1
  O  O2369  1  0.799400  0.756600  0.495700  1
  O  O2370  1  0.700600  0.243400  0.995700  1
  O  O2371  1  0.993400  0.049400  0.745700  1
  O  O2372  1  0.506600  0.950600  0.245700  1
  O  O2373  1  0.700600  0.743400  0.004300  1
  O  O2374  1  0.799400  0.256600  0.504300  1
  O  O2375  1  0.506600  0.450600  0.754300  1
  O  O2376  1  0.993400  0.549400  0.254300  1
  O  O2377  1  0.200600  0.243400  0.504300  1
  O  O2378  1  0.299400  0.756600  0.004300  1
  O  O2379  1  0.006600  0.950600  0.254300  1
  O  O2380  1  0.493400  0.049400  0.754300  1
  O  O2381  1  0.344600  0.325500  0.991000  1
  O  O2382  1  0.155400  0.674500  0.491000  1
  O  O2383  1  0.424500  0.594600  0.241000  1
  O  O2384  1  0.075500  0.405400  0.741000  1
  O  O2385  1  0.844600  0.825500  0.491000  1
  O  O2386  1  0.655400  0.174500  0.991000  1
  O  O2387  1  0.924500  0.094600  0.741000  1
  O  O2388  1  0.575500  0.905400  0.241000  1
  O  O2389  1  0.655400  0.674500  0.009000  1
  O  O2390  1  0.844600  0.325500  0.509000  1
  O  O2391  1  0.575500  0.405400  0.759000  1
  O  O2392  1  0.924500  0.594600  0.259000  1
  O  O2393  1  0.155400  0.174500  0.509000  1
  O  O2394  1  0.344600  0.825500  0.009000  1
  O  O2395  1  0.075500  0.905400  0.259000  1
  O  O2396  1  0.424500  0.094600  0.759000  1
  O  O2397  1  0.246800  0.203700  0.928300  1
  O  O2398  1  0.253200  0.796300  0.428300  1
  O  O2399  1  0.546300  0.496800  0.178300  1
  O  O2400  1  0.953700  0.503200  0.678300  1
  O  O2401  1  0.746800  0.703700  0.428300  1
  O  O2402  1  0.753200  0.296300  0.928300  1
  O  O2403  1  0.046300  0.996800  0.678300  1
  O  O2404  1  0.453700  0.003200  0.178300  1
  O  O2405  1  0.753200  0.796300  0.071700  1
  O  O2406  1  0.746800  0.203700  0.571700  1
  O  O2407  1  0.453700  0.503200  0.821700  1
  O  O2408  1  0.046300  0.496800  0.321700  1
  O  O2409  1  0.253200  0.296300  0.571700  1
  O  O2410  1  0.246800  0.703700  0.071700  1
  O  O2411  1  0.953700  0.003200  0.321700  1
  O  O2412  1  0.546300  0.996800  0.821700  1
  O  O2413  1  0.181800  0.184900  0.853200  1
  O  O2414  1  0.318200  0.815100  0.353200  1
  O  O2415  1  0.565100  0.431800  0.103200  1
  O  O2416  1  0.934900  0.568200  0.603200  1
  O  O2417  1  0.681800  0.684900  0.353200  1
  O  O2418  1  0.818200  0.315100  0.853200  1
  O  O2419  1  0.065100  0.931800  0.603200  1
  O  O2420  1  0.434900  0.068200  0.103200  1
  O  O2421  1  0.818200  0.815100  0.146800  1
  O  O2422  1  0.681800  0.184900  0.646800  1
  O  O2423  1  0.434900  0.568200  0.896800  1
  O  O2424  1  0.065100  0.431800  0.396800  1
  O  O2425  1  0.318200  0.315100  0.646800  1
  O  O2426  1  0.181800  0.684900  0.146800  1
  O  O2427  1  0.934900  0.068200  0.396800  1
  O  O2428  1  0.565100  0.931800  0.896800  1
  O  O2429  1  0.397600  0.403600  0.959600  1
  O  O2430  1  0.102400  0.596400  0.459600  1
  O  O2431  1  0.346400  0.647600  0.209600  1
  O  O2432  1  0.153600  0.352400  0.709600  1
  O  O2433  1  0.897600  0.903600  0.459600  1
  O  O2434  1  0.602400  0.096400  0.959600  1
  O  O2435  1  0.846400  0.147600  0.709600  1
  O  O2436  1  0.653600  0.852400  0.209600  1
  O  O2437  1  0.602400  0.596400  0.040400  1
  O  O2438  1  0.897600  0.403600  0.540400  1
  O  O2439  1  0.653600  0.352400  0.790400  1
  O  O2440  1  0.846400  0.647600  0.290400  1
  O  O2441  1  0.102400  0.096400  0.540400  1
  O  O2442  1  0.397600  0.903600  0.040400  1
  O  O2443  1  0.153600  0.852400  0.290400  1
  O  O2444  1  0.346400  0.147600  0.790400  1
  O  O2445  1  0.083800  0.083500  0.837600  1
  O  O2446  1  0.416200  0.916500  0.337600  1
  O  O2447  1  0.666500  0.333800  0.087600  1
  O  O2448  1  0.833500  0.666200  0.587600  1
  O  O2449  1  0.583800  0.583500  0.337600  1
  O  O2450  1  0.916200  0.416500  0.837600  1
  O  O2451  1  0.166500  0.833800  0.587600  1
  O  O2452  1  0.333500  0.166200  0.087600  1
  O  O2453  1  0.916200  0.916500  0.162400  1
  O  O2454  1  0.583800  0.083500  0.662400  1
  O  O2455  1  0.333500  0.666200  0.912400  1
  O  O2456  1  0.166500  0.333800  0.412400  1
  O  O2457  1  0.416200  0.416500  0.662400  1
  O  O2458  1  0.083800  0.583500  0.162400  1
  O  O2459  1  0.833500  0.166200  0.412400  1
  O  O2460  1  0.666500  0.833800  0.912400  1
  O  O2461  1  0.412800  0.031500  0.034900  1
  O  O2462  1  0.087200  0.968500  0.534900  1
  O  O2463  1  0.718500  0.662800  0.284900  1
  O  O2464  1  0.781500  0.337200  0.784900  1
  O  O2465  1  0.912800  0.531500  0.534900  1
  O  O2466  1  0.587200  0.468500  0.034900  1
  O  O2467  1  0.218500  0.162800  0.784900  1
  O  O2468  1  0.281500  0.837200  0.284900  1
  O  O2469  1  0.587200  0.968500  0.965100  1
  O  O2470  1  0.912800  0.031500  0.465100  1
  O  O2471  1  0.281500  0.337200  0.715100  1
  O  O2472  1  0.218500  0.662800  0.215100  1
  O  O2473  1  0.087200  0.468500  0.465100  1
  O  O2474  1  0.412800  0.531500  0.965100  1
  O  O2475  1  0.781500  0.837200  0.215100  1
  O  O2476  1  0.718500  0.162800  0.715100  1
  O  O2477  1  0.266500  0.139600  0.209500  1
  O  O2478  1  0.233500  0.860400  0.709500  1
  O  O2479  1  0.610400  0.516500  0.459500  1
  O  O2480  1  0.889600  0.483500  0.959500  1
  O  O2481  1  0.766500  0.639600  0.709500  1
  O  O2482  1  0.733500  0.360400  0.209500  1
  O  O2483  1  0.110400  0.016500  0.959500  1
  O  O2484  1  0.389600  0.983500  0.459500  1
  O  O2485  1  0.733500  0.860400  0.790500  1
  O  O2486  1  0.766500  0.139600  0.290500  1
  O  O2487  1  0.389600  0.483500  0.540500  1
  O  O2488  1  0.110400  0.516500  0.040500  1
  O  O2489  1  0.233500  0.360400  0.290500  1
  O  O2490  1  0.266500  0.639600  0.790500  1
  O  O2491  1  0.889600  0.983500  0.040500  1
  O  O2492  1  0.610400  0.016500  0.540500  1
  O  O2493  1  0.209400  0.169400  0.197800  1.0
  O  O2494  1  0.290600  0.830600  0.697800  1.0
  O  O2495  1  0.580600  0.459400  0.447800  1.0
  O  O2496  1  0.919400  0.540600  0.947800  1.0
  O  O2497  1  0.709400  0.669400  0.697800  1.0
  O  O2498  1  0.790600  0.330600  0.197800  1.0
  O  O2499  1  0.080600  0.959400  0.947800  1.0
  O  O2500  1  0.419400  0.040600  0.447800  1.0
  O  O2501  1  0.790600  0.830600  0.802200  1.0
  O  O2502  1  0.709400  0.169400  0.302200  1.0
  O  O2503  1  0.419400  0.540600  0.552200  1.0
  O  O2504  1  0.080600  0.459400  0.052200  1.0
  O  O2505  1  0.290600  0.330600  0.302200  1.0
  O  O2506  1  0.209400  0.669400  0.802200  1.0
  O  O2507  1  0.919400  0.040600  0.052200  1.0
  O  O2508  1  0.580600  0.959400  0.552200  1.0
  O  O2509  1  0.783700  0.223000  0.197700  1.0
  O  O2510  1  0.716300  0.777000  0.697700  1.0
  O  O2511  1  0.527000  0.033700  0.447700  1.0
  O  O2512  1  0.973000  0.966300  0.947700  1.0
  O  O2513  1  0.283700  0.723000  0.697700  1.0
  O  O2514  1  0.216300  0.277000  0.197700  1.0
  O  O2515  1  0.027000  0.533700  0.947700  1.0
  O  O2516  1  0.473000  0.466300  0.447700  1.0
  O  O2517  1  0.216300  0.777000  0.802300  1.0
  O  O2518  1  0.283700  0.223000  0.302300  1.0
  O  O2519  1  0.473000  0.966300  0.552300  1.0
  O  O2520  1  0.027000  0.033700  0.052300  1.0
  O  O2521  1  0.716300  0.277000  0.302300  1.0
  O  O2522  1  0.783700  0.723000  0.802300  1.0
  O  O2523  1  0.973000  0.466300  0.052300  1.0
  O  O2524  1  0.527000  0.533700  0.552300  1.0
  F  F2525  1  0.152700  0.230000  0.145000  1.0
  F  F2526  1  0.347300  0.770000  0.645000  1.0
  F  F2527  1  0.520000  0.402700  0.395000  1.0
  F  F2528  1  0.980000  0.597300  0.895000  1.0
  F  F2529  1  0.652700  0.730000  0.645000  1.0
  F  F2530  1  0.847300  0.270000  0.145000  1.0
  F  F2531  1  0.020000  0.902700  0.895000  1.0
  F  F2532  1  0.480000  0.097300  0.395000  1.0
  F  F2533  1  0.847300  0.770000  0.855000  1.0
  F  F2534  1  0.652700  0.230000  0.355000  1.0
  F  F2535  1  0.480000  0.597300  0.605000  1.0
  F  F2536  1  0.020000  0.402700  0.105000  1.0
  F  F2537  1  0.347300  0.270000  0.355000  1.0
  F  F2538  1  0.152700  0.730000  0.855000  1.0
  F  F2539  1  0.980000  0.097300  0.105000  1.0
  F  F2540  1  0.520000  0.902700  0.605000  1.0
  F  F2541  1  0.164100  0.297100  0.182100  1.0
  F  F2542  1  0.335900  0.702900  0.682100  1.0
  F  F2543  1  0.452900  0.414100  0.432100  1.0
  F  F2544  1  0.047100  0.585900  0.932100  1.0
  F  F2545  1  0.664100  0.797100  0.682100  1.0
  F  F2546  1  0.835900  0.202900  0.182100  1.0
  F  F2547  1  0.952900  0.914100  0.932100  1.0
  F  F2548  1  0.547100  0.085900  0.432100  1.0
  F  F2549  1  0.835900  0.702900  0.817900  1.0
  F  F2550  1  0.664100  0.297100  0.317900  1.0
  F  F2551  1  0.547100  0.585900  0.567900  1.0
  F  F2552  1  0.952900  0.414100  0.067900  1.0
  F  F2553  1  0.335900  0.202900  0.317900  1.0
  F  F2554  1  0.164100  0.797100  0.817900  1.0
  F  F2555  1  0.047100  0.085900  0.067900  1.0
  F  F2556  1  0.452900  0.914100  0.567900  1.0
  F  F2557  1  0.111500  0.185500  0.215700  1.0
  F  F2558  1  0.388500  0.814500  0.715700  1.0
  F  F2559  1  0.564500  0.361500  0.465700  1.0
  F  F2560  1  0.935500  0.638500  0.965700  1.0
  F  F2561  1  0.611500  0.685500  0.715700  1.0
  F  F2562  1  0.888500  0.314500  0.215700  1.0
  F  F2563  1  0.064500  0.861500  0.965700  1.0
  F  F2564  1  0.435500  0.138500  0.465700  1.0
  F  F2565  1  0.888500  0.814500  0.784300  1.0
  F  F2566  1  0.611500  0.185500  0.284300  1.0
  F  F2567  1  0.435500  0.638500  0.534300  1.0
  F  F2568  1  0.064500  0.361500  0.034300  1.0
  F  F2569  1  0.388500  0.314500  0.284300  1.0
  F  F2570  1  0.111500  0.685500  0.784300  1.0
  F  F2571  1  0.935500  0.138500  0.034300  1.0
  F  F2572  1  0.564500  0.861500  0.534300  1.0
  F  F2573  1  0.121000  0.254100  0.248400  1.0
  F  F2574  1  0.379000  0.745900  0.748400  1.0
  F  F2575  1  0.495900  0.371000  0.498400  1.0
  F  F2576  1  0.004100  0.629000  0.998400  1.0
  F  F2577  1  0.621000  0.754100  0.748400  1.0
  F  F2578  1  0.879000  0.245900  0.248400  1.0
  F  F2579  1  0.995900  0.871000  0.998400  1.0
  F  F2580  1  0.504100  0.129000  0.498400  1.0
  F  F2581  1  0.879000  0.745900  0.751600  1.0
  F  F2582  1  0.621000  0.254100  0.251600  1.0
  F  F2583  1  0.504100  0.629000  0.501600  1.0
  F  F2584  1  0.995900  0.371000  0.001600  1.0
  F  F2585  1  0.379000  0.245900  0.251600  1.0
  F  F2586  1  0.121000  0.754100  0.751600  1.0
  F  F2587  1  0.004100  0.129000  0.001600  1.0
  F  F2588  1  0.495900  0.871000  0.501600  1.0
  F  F2589  1  0.067100  0.240100  0.154000  1.0
  F  F2590  1  0.432900  0.759900  0.654000  1.0
  F  F2591  1  0.509900  0.317100  0.404000  1.0
  F  F2592  1  0.990100  0.682900  0.904000  1.0
  F  F2593  1  0.567100  0.740100  0.654000  1.0
  F  F2594  1  0.932900  0.259900  0.154000  1.0
  F  F2595  1  0.009900  0.817100  0.904000  1.0
  F  F2596  1  0.490100  0.182900  0.404000  1.0
  F  F2597  1  0.932900  0.759900  0.846000  1.0
  F  F2598  1  0.567100  0.240100  0.346000  1.0
  F  F2599  1  0.490100  0.682900  0.596000  1.0
  F  F2600  1  0.009900  0.317100  0.096000  1.0
  F  F2601  1  0.432900  0.259900  0.346000  1.0
  F  F2602  1  0.067100  0.740100  0.846000  1.0
  F  F2603  1  0.990100  0.182900  0.096000  1.0
  F  F2604  1  0.509900  0.817100  0.596000  1.0
  F  F2605  1  0.074900  0.305400  0.195000  1.0
  F  F2606  1  0.425100  0.694600  0.695000  1.0
  F  F2607  1  0.444600  0.324900  0.445000  1.0
  F  F2608  1  0.055400  0.675100  0.945000  1.0
  F  F2609  1  0.574900  0.805400  0.695000  1.0
  F  F2610  1  0.925100  0.194600  0.195000  1.0
  F  F2611  1  0.944600  0.824900  0.945000  1.0
  F  F2612  1  0.555400  0.175100  0.445000  1.0
  F  F2613  1  0.925100  0.694600  0.805000  1.0
  F  F2614  1  0.574900  0.305400  0.305000  1.0
  F  F2615  1  0.555400  0.675100  0.555000  1.0
  F  F2616  1  0.944600  0.324900  0.055000  1.0
  F  F2617  1  0.425100  0.194600  0.305000  1.0
  F  F2618  1  0.074900  0.805400  0.805000  1.0
  F  F2619  1  0.055400  0.175100  0.055000  1.0
  F  F2620  1  0.444600  0.824900  0.555000  1.0
  F  F2621  1  0.008400  0.271100  0.247000  1.0
  F  F2622  1  0.491600  0.728900  0.747000  1.0
  F  F2623  1  0.478900  0.258400  0.497000  1.0
  F  F2624  1  0.021100  0.741600  0.997000  1.0
  F  F2625  1  0.508400  0.771100  0.747000  1.0
  F  F2626  1  0.991600  0.228900  0.247000  1.0
  F  F2627  1  0.978900  0.758400  0.997000  1.0
  F  F2628  1  0.521100  0.241600  0.497000  1.0
  F  F2629  1  0.991600  0.728900  0.753000  1.0
  F  F2630  1  0.508400  0.271100  0.253000  1.0
  F  F2631  1  0.521100  0.741600  0.503000  1.0
  F  F2632  1  0.978900  0.258400  0.003000  1.0
  F  F2633  1  0.491600  0.228900  0.253000  1.0
  F  F2634  1  0.008400  0.771100  0.753000  1.0
  F  F2635  1  0.021100  0.241600  0.003000  1.0
  F  F2636  1  0.478900  0.758400  0.503000  1.0
  F  F2637  1  0.018500  0.194600  0.222900  1.0
  F  F2638  1  0.481500  0.805400  0.722900  1.0
  F  F2639  1  0.555400  0.268500  0.472900  1.0
  F  F2640  1  0.944600  0.731500  0.972900  1.0
  F  F2641  1  0.518500  0.694600  0.722900  1.0
  F  F2642  1  0.981500  0.305400  0.222900  1.0
  F  F2643  1  0.055400  0.768500  0.972900  1.0
  F  F2644  1  0.444600  0.231500  0.472900  1.0
  F  F2645  1  0.981500  0.805400  0.777100  1.0
  F  F2646  1  0.518500  0.194600  0.277100  1.0
  F  F2647  1  0.444600  0.731500  0.527100  1.0
  F  F2648  1  0.055400  0.268500  0.027100  1.0
  F  F2649  1  0.481500  0.305400  0.277100  1.0
  F  F2650  1  0.018500  0.694600  0.777100  1.0
  F  F2651  1  0.944600  0.231500  0.027100  1.0
  F  F2652  1  0.555400  0.768500  0.527100  1.0
  F  F2653  1  0.970700  0.292300  0.164300  1.0
  F  F2654  1  0.529300  0.707700  0.664300  1.0
  F  F2655  1  0.457700  0.220700  0.414300  1.0
  F  F2656  1  0.042300  0.779300  0.914300  1.0
  F  F2657  1  0.470700  0.792300  0.664300  1.0
  F  F2658  1  0.029300  0.207700  0.164300  1.0
  F  F2659  1  0.957700  0.720700  0.914300  1.0
  F  F2660  1  0.542300  0.279300  0.414300  1.0
  F  F2661  1  0.029300  0.707700  0.835700  1.0
  F  F2662  1  0.470700  0.292300  0.335700  1.0
  F  F2663  1  0.542300  0.779300  0.585700  1.0
  F  F2664  1  0.957700  0.220700  0.085700  1.0
  F  F2665  1  0.529300  0.207700  0.335700  1.0
  F  F2666  1  0.970700  0.792300  0.835700  1.0
  F  F2667  1  0.042300  0.279300  0.085700  1.0
  F  F2668  1  0.457700  0.720700  0.585700  1.0
  F  F2669  1  0.950100  0.211500  0.164900  1.0
  F  F2670  1  0.549900  0.788500  0.664900  1.0
  F  F2671  1  0.538500  0.200100  0.414900  1.0
  F  F2672  1  0.961500  0.799900  0.914900  1.0
  F  F2673  1  0.450100  0.711500  0.664900  1.0
  F  F2674  1  0.049900  0.288500  0.164900  1.0
  F  F2675  1  0.038500  0.700100  0.914900  1.0
  F  F2676  1  0.461500  0.299900  0.414900  1.0
  F  F2677  1  0.049900  0.788500  0.835100  1.0
  F  F2678  1  0.450100  0.211500  0.335100  1.0
  F  F2679  1  0.461500  0.799900  0.585100  1.0
  F  F2680  1  0.038500  0.200100  0.085100  1.0
  F  F2681  1  0.549900  0.288500  0.335100  1.0
  F  F2682  1  0.950100  0.711500  0.835100  1.0
  F  F2683  1  0.961500  0.299900  0.085100  1.0
  F  F2684  1  0.538500  0.700100  0.585100  1.0
  F  F2685  1  0.916500  0.220700  0.243200  1.0
  F  F2686  1  0.583500  0.779300  0.743200  1.0
  F  F2687  1  0.529300  0.166500  0.493200  1.0
  F  F2688  1  0.970700  0.833500  0.993200  1.0
  F  F2689  1  0.416500  0.720700  0.743200  1.0
  F  F2690  1  0.083500  0.279300  0.243200  1.0
  F  F2691  1  0.029300  0.666500  0.993200  1.0
  F  F2692  1  0.470700  0.333500  0.493200  1.0
  F  F2693  1  0.083500  0.779300  0.756800  1.0
  F  F2694  1  0.416500  0.220700  0.256800  1.0
  F  F2695  1  0.470700  0.833500  0.506800  1.0
  F  F2696  1  0.029300  0.166500  0.006800  1.0
  F  F2697  1  0.583500  0.279300  0.256800  1.0
  F  F2698  1  0.916500  0.720700  0.756800  1.0
  F  F2699  1  0.970700  0.333500  0.006800  1.0
  F  F2700  1  0.529300  0.666500  0.506800  1.0
  F  F2701  1  0.925100  0.302600  0.237600  1.0
  F  F2702  1  0.574900  0.697400  0.737600  1.0
  F  F2703  1  0.447400  0.175100  0.487600  1.0
  F  F2704  1  0.052600  0.824900  0.987600  1.0
  F  F2705  1  0.425100  0.802600  0.737600  1.0
  F  F2706  1  0.074900  0.197400  0.237600  1.0
  F  F2707  1  0.947400  0.675100  0.987600  1.0
  F  F2708  1  0.552600  0.324900  0.487600  1.0
  F  F2709  1  0.074900  0.697400  0.762400  1.0
  F  F2710  1  0.425100  0.302600  0.262400  1.0
  F  F2711  1  0.552600  0.824900  0.512400  1.0
  F  F2712  1  0.947400  0.175100  0.012400  1.0
  F  F2713  1  0.574900  0.197400  0.262400  1.0
  F  F2714  1  0.925100  0.802600  0.762400  1.0
  F  F2715  1  0.052600  0.324900  0.012400  1.0
  F  F2716  1  0.447400  0.675100  0.512400  1.0
  F  F2717  1  0.868500  0.228000  0.163300  1.0
  F  F2718  1  0.631500  0.772000  0.663300  1.0
  F  F2719  1  0.522000  0.118500  0.413300  1.0
  F  F2720  1  0.978000  0.881500  0.913300  1.0
  F  F2721  1  0.368500  0.728000  0.663300  1.0
  F  F2722  1  0.131500  0.272000  0.163300  1.0
  F  F2723  1  0.022000  0.618500  0.913300  1.0
  F  F2724  1  0.478000  0.381500  0.413300  1.0
  F  F2725  1  0.131500  0.772000  0.836700  1.0
  F  F2726  1  0.368500  0.228000  0.336700  1.0
  F  F2727  1  0.478000  0.881500  0.586700  1.0
  F  F2728  1  0.022000  0.118500  0.086700  1.0
  F  F2729  1  0.631500  0.272000  0.336700  1.0
  F  F2730  1  0.868500  0.728000  0.836700  1.0
  F  F2731  1  0.978000  0.381500  0.086700  1.0
  F  F2732  1  0.522000  0.618500  0.586700  1.0
  F  F2733  1  0.862300  0.307600  0.177800  1.0
  F  F2734  1  0.637700  0.692400  0.677800  1.0
  F  F2735  1  0.442400  0.112300  0.427800  1.0
  F  F2736  1  0.057600  0.887700  0.927800  1.0
  F  F2737  1  0.362300  0.807600  0.677800  1.0
  F  F2738  1  0.137700  0.192400  0.177800  1.0
  F  F2739  1  0.942400  0.612300  0.927800  1.0
  F  F2740  1  0.557600  0.387700  0.427800  1.0
  F  F2741  1  0.137700  0.692400  0.822200  1.0
  F  F2742  1  0.362300  0.307600  0.322200  1.0
  F  F2743  1  0.557600  0.887700  0.572200  1.0
  F  F2744  1  0.942400  0.112300  0.072200  1.0
  F  F2745  1  0.637700  0.192400  0.322200  1.0
  F  F2746  1  0.862300  0.807600  0.822200  1.0
  F  F2747  1  0.057600  0.387700  0.072200  1.0
  F  F2748  1  0.442400  0.612300  0.572200  1.0
