
#######################################################################
#
#                 Cambridge Crystallographic Data Centre
#                                CCDC 
#
#######################################################################
#
# If this CIF has been generated from an entry in the Cambridge 
# Structural Database, then it will include bibliographic, chemical, 
# crystal, experimental, refinement or atomic coordinate data resulting 
# from the CCDC's data processing and validation procedures.
#
#######################################################################

data_UPUZOW
_chemical_formula_moiety         
'C108 H144 N36 Pd6 12+,4(C5 H3 F7),12(N1 O3 1-),x(H2 O1)'
_chemical_name_systematic        
"tetrakis(\m-2,4,6-tris(pyridin-4-yl)-1,3,5-triazine)-hexakis(N,N,N',N'-tetramethylethane-1,2-diamine)-hexa-palladium dodecanitrate tetrakis(1,1,2,2,3,3,4-heptafluorocyclopentane) clathrate  hydrate"
_symmetry_cell_setting           triclinic
_symmetry_space_group_name_H-M   'P -1'
_symmetry_Int_Tables_number      2
_space_group_name_Hall           '-P 1'
loop_
_symmetry_equiv_pos_site_id
_symmetry_equiv_pos_as_xyz
1 x,y,z
2 -x,-y,-z
_cell_length_a                   24.284(3)
_cell_length_b                   24.306(3)
_cell_length_c                   24.636(3)
_cell_angle_alpha                115.9900(10)
_cell_angle_beta                 90.625(2)
_cell_angle_gamma                119.3710(10)
_cell_volume                     10907
_exptl_crystal_colour            colorless
_exptl_crystal_description       block
_cell_formula_units_Z            2
loop_
_atom_site_label
_atom_site_type_symbol
_atom_site_fract_x
_atom_site_fract_y
_atom_site_fract_z
Pd1 Pd 0.91699(3) 0.25653(3) 0.10644(3)
Pd2 Pd 0.83577(2) 0.75018(3) 0.10885(2)
Pd3 Pd 0.34437(3) 0.18210(3) 0.10966(2)
Pd4 Pd 0.40040(3) -0.25372(3) -0.40097(3)
Pd5 Pd 0.34014(3) 0.25274(3) -0.39293(2)
Pd6 Pd 0.90800(2) 0.30705(3) -0.39409(2)
N1 N 0.8609(3) 0.2995(3) 0.1223(3)
N2 N 0.4431(3) 0.2496(3) 0.1256(3)
N3 N 0.8051(3) 0.6643(3) 0.1234(3)
N4 N 0.6794(3) 0.3445(3) 0.1313(3)
N5 N 0.6660(3) 0.4348(3) 0.1301(3)
N6 N 0.7692(3) 0.4464(3) 0.1299(3)
N7 N 0.8718(3) 0.2061(3) 0.0134(3)
N8 N 0.8691(3) 0.2399(3) -0.3577(2)
N9 N 0.4961(3) -0.1689(3) -0.3583(3)
N10 N 0.8062(3) 0.1524(3) -0.2050(3)
N11 N 0.7150(3) 0.0604(3) -0.2964(3)
N12 N 0.7147(3) 0.0522(3) -0.2033(3)
N13 N 0.8055(3) 0.6746(3) 0.0155(3)
N14 N 0.4386(3) 0.3067(3) -0.3527(3)
N15 N 0.8535(3) 0.3468(3) -0.3531(3)
N16 N 0.6634(3) 0.4664(3) -0.2014(3)
N17 N 0.6737(3) 0.3852(3) -0.2918(3)
N18 N 0.7656(3) 0.4776(3) -0.2001(3)
N19 N 0.3383(3) 0.1446(3) 0.0164(3)
N20 N 0.3780(3) -0.1777(3) -0.3568(3)
N21 N 0.3288(3) 0.1918(3) -0.3528(3)
N22 N 0.3519(3) 0.0195(3) -0.2007(3)
N23 N 0.3471(3) 0.0286(3) -0.2919(3)
N24 N 0.3370(3) 0.1094(3) -0.2000(3)
N25 N 0.9755(3) 0.2154(4) 0.0895(3)
N26 N 0.9650(3) 0.3088(4) 0.2003(3)
N27 N 0.8637(3) 0.8258(3) 0.2028(3)
N28 N 0.8650(3) 0.8360(3) 0.0939(3)
N29 N 0.3505(3) 0.2183(3) 0.2037(3)
N30 N 0.2450(3) 0.1121(4) 0.0929(3)
N31 N 0.3527(3) 0.3152(3) -0.4330(3)
N32 N 0.2409(3) 0.2006(4) -0.4317(3)
C1 C 0.7994(4) 0.2628(4) 0.1236(4)
H1 H 0.7825 0.2175 0.1222
C2 C 0.7589(4) 0.2883(4) 0.1270(4)
H2 H 0.7149 0.2610 0.1280
C3 C 0.7835(3) 0.3542(4) 0.1289(3)
C4 C 0.8481(4) 0.3927(4) 0.1285(4)
H3 H 0.8661 0.4382 0.1303
C5 C 0.8864(4) 0.3649(4) 0.1256(3)
H4 H 0.9310 0.3918 0.1258
C6 C 0.7411(3) 0.3833(4) 0.1305(3)
C7 C 0.4673(4) 0.3111(4) 0.1240(4)
H5 H 0.4386 0.3260 0.1202
C8 C 0.5331(4) 0.3541(4) 0.1278(4)
H6 H 0.5497 0.3993 0.1293
C9 C 0.5743(3) 0.3304(4) 0.1295(3)
C10 C 0.5480(4) 0.2661(4) 0.1304(4)
H7 H 0.5748 0.2485 0.1326
C11 C 0.4829(4) 0.2278(5) 0.1282(4)
H8 H 0.4655 0.1834 0.1285
C12 C 0.6439(3) 0.3727(4) 0.1307(3)
C13 C 0.8443(3) 0.6412(4) 0.1264(3)
H9 H 0.8888 0.6685 0.1264
C14 C 0.8217(3) 0.5788(4) 0.1294(4)
H10 H 0.8504 0.5634 0.1317
C15 C 0.7568(3) 0.5382(3) 0.1292(3)
C16 C 0.7171(3) 0.5632(4) 0.1254(4)
H11 H 0.6723 0.5367 0.1248
C17 C 0.7419(3) 0.6256(4) 0.1226(4)
H12 H 0.7141 0.6419 0.1200
C18 C 0.7290(3) 0.4690(4) 0.1301(3)
C19 C 0.8998(3) 0.2391(4) -0.0192(3)
H13 H 0.9424 0.2833 0.0010
C20 C 0.8696(3) 0.2114(4) -0.0802(3)
H14 H 0.8907 0.2365 -0.1018
C21 C 0.8081(3) 0.1468(4) -0.1105(3)
C22 C 0.7785(3) 0.1135(4) -0.0766(3)
H15 H 0.7357 0.0696 -0.0956
C23 C 0.8114(3) 0.1444(4) -0.0154(3)
H16 H 0.7906 0.1211 0.0076
C24 C 0.7741(3) 0.1152(4) -0.1768(3)
C25 C 0.8096(3) 0.1772(4) -0.3880(3)
H17 H 0.7883 0.1603 -0.4297
C26 C 0.7784(3) 0.1363(4) -0.3599(3)
H18 H 0.7372 0.0906 -0.3828
C27 C 0.8079(3) 0.1624(4) -0.2980(3)
C28 C 0.8681(4) 0.2276(4) -0.2671(3)
H19 H 0.8891 0.2471 -0.2245
C29 C 0.8985(4) 0.2651(4) -0.2980(3)
H20 H 0.9409 0.3095 -0.2766
C30 C 0.7745(3) 0.1226(4) -0.2647(3)
C31 C 0.5257(3) -0.1420(4) -0.2977(3)
H21 H 0.5031 -0.1671 -0.2766
C32 C 0.5882(3) -0.0785(4) -0.2660(3)
H22 H 0.6085 -0.0606 -0.2236
C33 C 0.6208(3) -0.0415(4) -0.2963(3)
C34 C 0.5904(3) -0.0698(4) -0.3586(3)
H23 H 0.6124 -0.0459 -0.3808
C35 C 0.5277(3) -0.1330(4) -0.3879(3)
H24 H 0.5064 -0.1514 -0.4302
C36 C 0.6873(3) 0.0276(3) -0.2638(3)
C37 C 0.7440(3) 0.6431(4) -0.0188(3)
H25 H 0.7184 0.6617 0.0000
C38 C 0.7171(4) 0.5856(4) -0.0792(3)
H26 H 0.6730 0.5636 -0.1016
C39 C 0.7548(3) 0.5594(4) -0.1077(3)
C40 C 0.8186(3) 0.5930(4) -0.0726(3)
H27 H 0.8459 0.5768 -0.0907
C41 C 0.8420(3) 0.6501(4) -0.0113(3)
H28 H 0.8856 0.6727 0.0124
C42 C 0.7268(3) 0.4979(4) -0.1734(3)
C43 C 0.4745(3) 0.2817(4) -0.3822(3)
H29 H 0.4542 0.2405 -0.4238
C44 C 0.5395(3) 0.3138(4) -0.3538(3)
H30 H 0.5639 0.2952 -0.3757
C45 C 0.5693(3) 0.3738(4) -0.2928(3)
C46 C 0.5314(4) 0.3982(4) -0.2628(3)
H31 H 0.5502 0.4389 -0.2210
C47 C 0.4667(3) 0.3636(4) -0.2937(3)
H32 H 0.4410 0.3807 -0.2726
C48 C 0.6395(3) 0.4102(4) -0.2607(3)
C49 C 0.8793(3) 0.4032(4) -0.2932(3)
H33 H 0.9240 0.4263 -0.2719
C50 C 0.8428(3) 0.4283(4) -0.2617(3)
H34 H 0.8621 0.4682 -0.2195
C51 C 0.7776(3) 0.3949(4) -0.2925(3)
C52 C 0.7512(3) 0.3364(4) -0.3531(3)
H35 H 0.7062 0.3117 -0.3749
C53 C 0.7900(3) 0.3139(4) -0.3822(3)
H36 H 0.7712 0.2737 -0.4243
C54 C 0.7362(3) 0.4200(4) -0.2601(3)
C55 C 0.3416(4) 0.0868(4) -0.0162(3)
H37 H 0.3425 0.0611 0.0034
C56 C 0.3437(4) 0.0628(4) -0.0779(3)
H38 H 0.3466 0.0214 -0.1003
C57 C 0.3416(4) 0.1002(4) -0.1064(3)
C58 C 0.3385(4) 0.1605(4) -0.0725(3)
H39 H 0.3377 0.1872 -0.0910
C59 C 0.3366(4) 0.1817(4) -0.0109(3)
H40 H 0.3340 0.2230 0.0127
C60 C 0.3440(3) 0.0749(4) -0.1734(3)
C61 C 0.3699(4) -0.1455(4) -0.3860(3)
H41 H 0.3701 -0.1627 -0.4289
C62 C 0.3616(4) -0.0891(4) -0.3562(3)
H42 H 0.3554 -0.0680 -0.3782
C63 C 0.3623(3) -0.0627(4) -0.2935(3)
C64 C 0.3703(4) -0.0958(4) -0.2636(3)
H43 H 0.3706 -0.0791 -0.2207
C65 C 0.3778(4) -0.1532(4) -0.2963(3)
H44 H 0.3830 -0.1760 -0.2755
C66 C 0.3530(3) -0.0016(4) -0.2606(3)
C67 C 0.3300(4) 0.2171(4) -0.2917(3)
H45 H 0.3290 0.2597 -0.2694
C68 C 0.3328(4) 0.1829(4) -0.2607(3)
H46 H 0.3333 0.2017 -0.2176
C69 C 0.3346(3) 0.1212(4) -0.2921(3)
C70 C 0.3326(4) 0.0943(4) -0.3555(3)
H47 H 0.3322 0.0508 -0.3786
C71 C 0.3313(4) 0.1310(4) -0.3846(3)
H48 H 0.3321 0.1139 -0.4273
C72 C 0.3394(3) 0.0841(4) -0.2599(3)
C73 C 0.9392(5) 0.1356(5) 0.0408(5)
H49 H 0.9679 0.1178 0.0402
H50 H 0.9266 0.1286 -0.0008
H51 H 0.8995 0.1081 0.0510
C74 C 1.0302(5) 0.2565(6) 0.0681(5)
H52 H 1.0629 0.2439 0.0684
H53 H 1.0513 0.3093 0.0965
H54 H 1.0126 0.2432 0.0252
C75 C 1.0007(6) 0.2247(6) 0.1502(5)
H55 H 1.0389 0.2199 0.1493
H56 H 0.9658 0.1865 0.1572
C76 C 1.0210(5) 0.2990(6) 0.2019(5)
H57 H 1.0590 0.3370 0.1971
H58 H 1.0349 0.3051 0.2432
C77 C 0.9906(5) 0.3878(5) 0.2352(4)
H59 H 1.0161 0.4102 0.2784
H60 H 0.9537 0.3941 0.2362
H61 H 1.0191 0.4116 0.2141
C78 C 0.9190(6) 0.2730(6) 0.2301(5)
H62 H 0.9430 0.2928 0.2732
H63 H 0.8995 0.2201 0.2056
H64 H 0.8840 0.2824 0.2313
C79 C 0.8137(5) 0.8023(5) 0.2359(4)
H65 H 0.8250 0.8446 0.2769
H66 H 0.8131 0.7649 0.2422
H67 H 0.7700 0.7818 0.2104
C80 C 0.9265(5) 0.8433(5) 0.2359(4)
H68 H 0.9397 0.8801 0.2806
H69 H 0.9609 0.8625 0.2168
H70 H 0.9202 0.7986 0.2323
C81 C 0.8739(5) 0.8937(4) 0.2061(4)
H71 H 0.8309 0.8882 0.1984
H72 H 0.9021 0.9369 0.2486
C82 C 0.9062(4) 0.9045(4) 0.1575(4)
H73 H 0.9510 0.9147 0.1676
H74 H 0.9105 0.9469 0.1570
C83 C 0.9037(4) 0.8373(4) 0.0481(4)
H75 H 0.9206 0.8826 0.0472
H76 H 0.8755 0.7949 0.0061
H77 H 0.9408 0.8353 0.0608
C84 C 0.8055(4) 0.8326(5) 0.0711(4)
H78 H 0.8194 0.8782 0.0716
H79 H 0.7771 0.8266 0.0988
H80 H 0.7811 0.7910 0.0280
C85 C 0.4018(4) 0.2186(6) 0.2371(4)
H81 H 0.3964 0.2262 0.2786
H82 H 0.4456 0.2584 0.2423
H83 H 0.3975 0.1716 0.2125
C86 C 0.3625(5) 0.2922(5) 0.2351(4)
H84 H 0.3635 0.3083 0.2794
H85 H 0.3271 0.2909 0.2139
H86 H 0.4050 0.3265 0.2327
C87 C 0.2839(4) 0.1639(6) 0.2045(4)
H87 H 0.2826 0.1201 0.1982
H88 H 0.2766 0.1864 0.2459
C88 C 0.2320(5) 0.1422(6) 0.1544(4)
H89 H 0.2308 0.1852 0.1627
H90 H 0.1886 0.1046 0.1535
C89 C 0.2026(4) 0.1083(6) 0.0452(5)
H91 H 0.1561 0.0781 0.0426
H92 H 0.2094 0.0865 0.0039
H93 H 0.2144 0.1579 0.0579
C90 C 0.2291(5) 0.0374(5) 0.0712(5)
H94 H 0.1858 0.0082 0.0755
H95 H 0.2627 0.0404 0.0967
H96 H 0.2283 0.0143 0.0268
C91 C 0.3720(5) 0.3899(5) -0.3829(4)
H97 H 0.3768 0.4192 -0.4021
H98 H 0.4140 0.4138 -0.3525
H99 H 0.3378 0.3858 -0.3612
C92 C 0.4041(4) 0.3229(5) -0.4667(4)
H100 H 0.4047 0.3482 -0.4888
H101 H 0.3940 0.2742 -0.4973
H102 H 0.4473 0.3514 -0.4362
C93 C 0.2881(4) 0.2768(5) -0.4789(4)
H103 H 0.2861 0.3113 -0.4887
H104 H 0.2828 0.2360 -0.5186
C94 C 0.2342(4) 0.2478(5) -0.4512(5)
H105 H 0.1909 0.2188 -0.4826
H106 H 0.2367 0.2891 -0.4141
C95 C 0.2149(4) 0.1266(5) -0.4889(4)
H107 H 0.1681 0.1032 -0.5085
H108 H 0.2197 0.0958 -0.4761
H109 H 0.2398 0.1325 -0.5191
C96 C 0.2014(4) 0.1895(6) -0.3870(4)
H110 H 0.1561 0.1721 -0.4054
H111 H 0.2212 0.2361 -0.3471
H112 H 0.2011 0.1531 -0.3793
N33 N 0.4229(3) -0.3309(4) -0.4473(4)
N34 N 0.3029(3) -0.3397(4) -0.4457(3)
C97 C 0.4666(12) -0.3146(14) -0.4838(12)
H113 H 0.4745 -0.3538 -0.5045
H114 H 0.5085 -0.2680 -0.4563
H115 H 0.4469 -0.3108 -0.5158
C98 C 0.4416(17) -0.3443(15) -0.3992(13)
H116 H 0.4611 -0.3731 -0.4160
H117 H 0.4023 -0.3715 -0.3884
H118 H 0.4738 -0.2973 -0.3614
C99 C 0.3545(10) -0.4032(10) -0.4934(11)
H119 H 0.3477 -0.4060 -0.5345
H120 H 0.3553 -0.4462 -0.5008
C100 C 0.2986(9) -0.4060(10) -0.4679(11)
H121 H 0.2565 -0.4466 -0.5014
H122 H 0.2990 -0.4159 -0.4330
C101 C 0.2752(12) -0.3319(14) -0.4981(12)
H123 H 0.2370 -0.3798 -0.5303
H124 H 0.3096 -0.3135 -0.5177
H125 H 0.2617 -0.2973 -0.4790
C102 C 0.2586(11) -0.3350(13) -0.3994(11)
H126 H 0.2149 -0.3810 -0.4192
H127 H 0.2540 -0.2942 -0.3902
H128 H 0.2795 -0.3270 -0.3601
N35 N 0.9466(3) 0.3746(3) -0.4309(3)
N36 N 0.9657(3) 0.2689(3) -0.4334(3)
C103 C 0.8945(11) 0.3641(12) -0.4744(9)
H129 H 0.9150 0.3990 -0.4891
H130 H 0.8638 0.3724 -0.4519
H131 H 0.8704 0.3139 -0.5106
C104 C 0.9946(8) 0.4505(8) -0.3809(8)
H132 H 1.0096 0.4824 -0.3989
H133 H 1.0324 0.4537 -0.3617
H134 H 0.9737 0.4660 -0.3487
C105 C 0.9782(8) 0.3448(9) -0.4776(7)
H135 H 0.9440 0.3008 -0.5172
H136 H 1.0090 0.3821 -0.4876
C106 C 1.0146(6) 0.3253(7) -0.4481(6)
H137 H 1.0493 0.3695 -0.4089
H138 H 1.0360 0.3052 -0.4774
C107 C 0.9264(8) 0.1959(8) -0.4887(8)
H139 H 0.9552 0.1790 -0.5049
H140 H 0.9044 0.1972 -0.5212
H141 H 0.8932 0.1622 -0.4772
C108 C 1.0033(5) 0.2671(7) -0.3847(5)
H142 H 1.0439 0.2719 -0.3945
H143 H 0.9757 0.2205 -0.3859
H144 H 1.0145 0.3078 -0.3425
C109 C 0.6387(4) 0.1610(5) -0.3052(4)
C110 C 0.5929(4) 0.1952(5) -0.2921(4)
C111 C 0.5199(4) 0.1264(5) -0.3201(4)
C112 C 0.5259(4) 0.0608(5) -0.3708(4)
H145 H 0.4958 0.0350 -0.4138
C113 C 0.5986(7) 0.0938(8) -0.3708(6)
H146 H 0.6107 0.0579 -0.3793
H147 H 0.6065 0.1079 -0.4034
F1 F 0.6388(11) 0.1452(12) -0.2602(8)
F2 F 0.6949(6) 0.2130(9) -0.2996(10)
F3 F 0.6094(7) 0.2378(8) -0.2353(6)
F4 F 0.6029(7) 0.2237(8) -0.3285(9)
F5 F 0.4999(8) 0.1208(8) -0.2693(7)
F6 F 0.4841(7) 0.1425(15) -0.3426(13)
F7 F 0.5080(7) 0.0158(7) -0.3463(9)
C114 C 0.8085(10) 0.3256(9) -0.1379(9)
C115 C 0.7814(9) 0.3792(9) -0.1098(7)
C116 C 0.8062(11) 0.4163(10) -0.0360(7)
C117 C 0.8539(13) 0.3962(15) -0.0214(10)
H148 H 0.8927 0.4377 0.0165
C118 C 0.8745(8) 0.3686(14) -0.0865(11)
H149 H 0.9096 0.4107 -0.0892
H150 H 0.8897 0.3364 -0.0899
F8 F 0.7623(9) 0.2628(8) -0.1417(12)
F9 F 0.8127(16) 0.3188(13) -0.1914(10)
F10 F 0.7193(8) 0.3395(12) -0.1316(10)
F11 F 0.8139(12) 0.4314(9) -0.1239(7)
F12 F 0.7547(15) 0.3850(15) -0.0169(10)
F13 F 0.8296(11) 0.4869(8) -0.0128(8)
F14 F 0.8167(15) 0.3336(15) -0.0169(12)
C119 C 0.6415(9) 0.1900(11) -0.0320(8)
C120 C 0.6080(9) 0.1471(10) -0.1062(7)
C121 C 0.5362(9) 0.0800(11) -0.1189(10)
C122 C 0.5196(10) 0.1080(16) -0.0538(13)
H151 H 0.4805 0.0687 -0.0505
C123 C 0.5884(10) 0.1466(14) -0.0035(10)
H152 H 0.5912 0.1807 0.0393
H153 H 0.5944 0.1098 -0.0021
F15 F 0.6494(12) 0.2551(9) -0.0092(8)
F16 F 0.6956(9) 0.1944(13) -0.0234(8)
F17 F 0.6018(12) 0.1900(11) -0.1206(9)
F18 F 0.6438(10) 0.1256(12) -0.1382(9)
F19 F 0.4926(11) 0.0778(17) -0.1542(15)
F20 F 0.5354(16) 0.0195(11) -0.1498(17)
F21 F 0.5150(15) 0.1663(17) -0.0449(14)
C124 C 0.5468(10) 0.3388(11) -0.0279(8)
C125 C 0.5157(9) 0.2988(9) -0.1033(8)
C126 C 0.5527(11) 0.3631(11) -0.1187(9)
C127 C 0.5802(15) 0.4370(11) -0.0543(13)
H154 H 0.5679 0.4695 -0.0572
C128 C 0.5547(12) 0.4141(12) -0.0026(11)
H155 H 0.5873 0.4509 0.0396
H156 H 0.5120 0.4092 0.0000
F22 F 0.6021(11) 0.3411(14) -0.0211(11)
F23 F 0.5023(13) 0.2950(16) -0.0120(11)
F24 F 0.5275(13) 0.2490(11) -0.1312(9)
F25 F 0.4536(7) 0.2794(10) -0.1115(8)
F26 F 0.6009(13) 0.3570(15) -0.1410(15)
F27 F 0.5082(15) 0.3482(18) -0.1634(15)
F28 F 0.6480(12) 0.4689(15) -0.0375(12)
O1 O 0.2256(3) -0.1917(3) -0.4747(3)
O2 O 0.2392(3) -0.0874(3) -0.4435(3)
O3 O 0.1947(3) -0.1464(4) -0.3944(3)
N37 N 0.2198(3) -0.1426(4) -0.4382(3)
O4 O 0.4627(3) -0.1029(4) -0.5032(4)
O5 O 0.4224(4) -0.2148(4) -0.5259(3)
O6 O 0.3592(3) -0.1778(4) -0.5330(3)
N38 N 0.4177(4) -0.1655(4) -0.5212(3)
O7 O 0.5802(11) 0.2683(10) 0.2687(8)
O8 O 0.6466(15) 0.3790(18) 0.2892(14)
O9 O 0.6634(17) 0.2846(16) 0.2477(14)
O10 O 1.1599(6) 0.4719(7) -0.4248(6)
O11 O 0.5553(7) 0.4764(8) -0.3570(7)
N39 N 0.8311(7) 0.5193(8) -0.3480(8)
O12 O 0.7698(9) 0.4852(13) -0.3529(13)
O13 O 0.8609(4) 0.4921(5) -0.3698(4)
O14 O 0.8504(16) 0.5793(14) -0.350(2)
O15 O 0.641(3) 0.502(3) -0.349(3)
O16 O 0.1455(8) -0.0345(9) 0.3137(7)
O17 O 0.4464(6) 0.4525(8) 0.1066(7)
O18 O 0.2019(6) -0.2395(6) -0.3556(5)
O19 O 0.3630(4) 0.1453(5) -0.5123(4)
N40 N 0.3378(11) 0.4175(11) -0.2508(13)
O20 O 0.2965(12) 0.4251(15) -0.2744(15)
O21 O 0.3975(9) 0.4699(10) -0.2330(12)
O22 O 0.3215(6) 0.3589(6) -0.2559(6)
O23 O 0.1860(15) 0.3670(16) -0.3233(14)
O24 O 0.5754(12) 0.5654(12) -0.2119(11)
O25 O 0.7953(15) 0.6809(17) -0.1617(15)
N41 N 0.7341(17) 0.6982(18) -0.1233(16)
O26 O 0.6940(8) 0.7125(9) -0.0979(7)
O27 O 0.7973(13) 0.7254(11) -0.1011(10)
O28 O 0.7222(9) 0.6444(10) -0.1844(9)
O29 O -0.042(2) -0.288(2) -0.3566(18)
N42 N 0.3783(10) 0.0176(11) 0.0617(10)
O30 O 0.3811(8) 0.0642(9) 0.1181(8)
O31 O 0.4410(11) 0.0465(12) 0.0550(11)
O32 O 0.3306(7) -0.0372(8) 0.0144(7)
O33 O 0.5513(14) 0.1341(14) 0.1521(12)
O34 O 0.3459(8) -0.0984(10) -0.1111(9)
O35 O 0.5762(9) 0.5672(11) 0.1403(8)
N43 N 0.6342(6) 0.6680(6) 0.0594(6)
O36 O 0.5875(7) 0.6000(8) 0.0445(7)
O37 O 0.6748(6) 0.7139(6) 0.1103(6)
O38 O 0.6295(4) 0.6773(5) 0.0133(4)
N44 N 1.0338(6) 0.4219(8) 0.0641(7)
O39 O 1.0021(7) 0.4447(8) 0.0509(6)
O40 O 1.0402(5) 0.4289(7) 0.1175(6)
O41 O 1.0502(5) 0.3882(6) 0.0209(5)
N45 N 0.8215(13) 1.0271(15) 0.1737(14)
O42 O 0.7938(12) 1.0595(13) 0.2088(11)
O43 O 0.8337(6) 0.9995(7) 0.1996(6)
O44 O 0.8281(9) 1.0181(10) 0.1165(11)
O45 O 0.7848(8) 1.1095(8) 0.1026(7)
O46 O 0.3747(11) 0.2061(10) 0.3786(8)
O47 O 0.2922(12) 0.2047(14) 0.3594(12)
O48 O 0.2986(13) 0.1307(16) 0.3854(15)
O49 O 0.203(2) 0.019(3) 0.270(2)
O50 O 1.0800(13) 0.9076(15) 0.1126(12)
O51 O 1.057(3) 1.006(3) 0.092(3)
O52 O 1.017(3) 1.008(3) 0.037(3)
O53 O 0.9801(9) 0.7579(11) 0.1025(9)
O54 O 1.0722(15) 0.8816(16) 0.1853(15)
O55 O 1.001(2) 0.756(2) 0.2248(18)
O56 O 0.8651(12) 0.7160(13) 0.2937(11)
O57 O 1.0308(16) 0.4259(17) -0.2498(14)
O58 O 1.1384(8) 0.5015(11) -0.2914(8)
O59 O 1.2102(13) 0.5730(14) -0.2937(12)
O60 O 0.1476(9) -0.0568(9) -0.3329(7)
O61 O 0.9682(7) 0.5874(7) -0.4016(7)
O62 O 0.8959(13) 0.8346(14) -0.1196(12)
O63 O 0.1482(4) 0.0317(4) -0.3769(4)
O64 O 0.9730(4) 0.8684(4) 0.3911(4)
O65 O 0.9741(4) 0.9878(5) 0.3974(4)
O66 O 0.2559(11) 0.5068(12) -0.2745(10)
O67 O 0.4899(7) 0.4490(8) 0.3884(7)
O68 O 0.0867(19) 0.069(2) -0.7675(18)
O69 O 0.5987(3) -0.0527(3) -0.4846(3)
O70 O 0.1882(4) -0.0183(4) -0.4813(4)
O71 O 0.3523(3) -0.0555(4) -0.4862(3)
O72 O 0.1559(9) 0.0000(10) 0.1881(9)
O73 O 0.3020(9) 0.4607(10) -0.4431(8)
O74 O 0.9719(5) 0.5497(5) 0.1346(5)
O75 O 0.9973(6) 0.3519(6) -0.1004(6)
O76 O 1.0094(15) 0.3617(17) -0.0662(16)
O77 O 0.0174(9) -0.1673(10) -0.3655(8)
O78 O 0.0922(5) 0.2249(6) -0.5374(5)
O79 O 0.2381(17) 0.2766(19) -0.6498(16)
O80 O 0.253(3) 0.347(3) -0.663(2)
O81 O 1.0716(7) 1.0286(8) 0.3339(7)
O82 O 1.0985(4) 0.6203(5) -0.3866(4)
O83 O 1.1601(7) 0.6343(8) -0.2807(7)
O84 O 0.9475(5) 0.8721(5) 0.4979(4)
O85 O 0.4013(8) 0.4703(9) -0.4897(8)
O86 O 0.5382(9) 0.4117(10) 0.2878(9)
O87 O 0.945(3) 0.897(3) -0.182(3)
O88 O 0.3719(9) 0.3312(10) 0.3934(9)
O89 O 1.0162(19) 1.057(2) 0.2777(18)
O90 O 0.2411(7) -0.1789(8) -0.2251(7)
O91 O 0.1633(19) 0.243(2) -0.7508(18)
O92 O 0.1688(6) 0.1818(7) -0.6054(6)
O93 O 0.8968(4) 0.0913(4) -0.3985(4)
O94 O 0.1814(8) 0.3662(8) -0.4393(7)
O95 O 1.1013(6) 0.5081(7) -0.4804(6)
O96 O 0.204(3) 0.388(3) -0.599(3)
loop_
_geom_bond_atom_site_label_1
_geom_bond_atom_site_label_2
_geom_bond_site_symmetry_1
_geom_bond_site_symmetry_2
Pd1 N1 1_555 1_555
Pd2 N3 1_555 1_555
Pd3 N2 1_555 1_555
Pd4 N9 1_555 1_555
Pd5 N14 1_555 1_555
Pd6 N8 1_555 1_555
N1 C1 1_555 1_555
N2 C7 1_555 1_555
N3 C13 1_555 1_555
N4 C6 1_555 1_555
N5 C12 1_555 1_555
N6 C6 1_555 1_555
N7 Pd1 1_555 1_555
N8 C25 1_555 1_555
N9 C31 1_555 1_555
N10 C24 1_555 1_555
N11 C30 1_555 1_555
N12 C24 1_555 1_555
N13 Pd2 1_555 1_555
N14 C43 1_555 1_555
N15 Pd6 1_555 1_555
N16 C42 1_555 1_555
N17 C48 1_555 1_555
N18 C42 1_555 1_555
N19 Pd3 1_555 1_555
N20 Pd4 1_555 1_555
N21 Pd5 1_555 1_555
N22 C60 1_555 1_555
N23 C66 1_555 1_555
N24 C60 1_555 1_555
N25 Pd1 1_555 1_555
N26 Pd1 1_555 1_555
N27 Pd2 1_555 1_555
N28 Pd2 1_555 1_555
N29 Pd3 1_555 1_555
N30 Pd3 1_555 1_555
N31 Pd5 1_555 1_555
N32 Pd5 1_555 1_555
C1 H1 1_555 1_555
C2 C1 1_555 1_555
H2 C2 1_555 1_555
C3 C2 1_555 1_555
C4 C3 1_555 1_555
H3 C4 1_555 1_555
C5 N1 1_555 1_555
H4 C5 1_555 1_555
C6 C3 1_555 1_555
C7 H5 1_555 1_555
C8 C7 1_555 1_555
H6 C8 1_555 1_555
C9 C8 1_555 1_555
C10 C9 1_555 1_555
H7 C10 1_555 1_555
C11 N2 1_555 1_555
H8 C11 1_555 1_555
C12 N4 1_555 1_555
C13 H9 1_555 1_555
C14 C13 1_555 1_555
H10 C14 1_555 1_555
C15 C14 1_555 1_555
C16 C15 1_555 1_555
H11 C16 1_555 1_555
C17 N3 1_555 1_555
H12 C17 1_555 1_555
C18 N5 1_555 1_555
C19 N7 1_555 1_555
H13 C19 1_555 1_555
C20 C19 1_555 1_555
H14 C20 1_555 1_555
C21 C20 1_555 1_555
C22 C21 1_555 1_555
H15 C22 1_555 1_555
C23 N7 1_555 1_555
H16 C23 1_555 1_555
C24 C21 1_555 1_555
C25 H17 1_555 1_555
C26 C25 1_555 1_555
H18 C26 1_555 1_555
C27 C26 1_555 1_555
C28 C27 1_555 1_555
H19 C28 1_555 1_555
C29 N8 1_555 1_555
H20 C29 1_555 1_555
C30 N10 1_555 1_555
C31 H21 1_555 1_555
C32 C31 1_555 1_555
H22 C32 1_555 1_555
C33 C32 1_555 1_555
C34 C33 1_555 1_555
H23 C34 1_555 1_555
C35 N9 1_555 1_555
H24 C35 1_555 1_555
C36 N11 1_555 1_555
C37 N13 1_555 1_555
H25 C37 1_555 1_555
C38 C37 1_555 1_555
H26 C38 1_555 1_555
C39 C38 1_555 1_555
C40 C39 1_555 1_555
H27 C40 1_555 1_555
C41 N13 1_555 1_555
H28 C41 1_555 1_555
C42 C39 1_555 1_555
C43 H29 1_555 1_555
C44 C43 1_555 1_555
H30 C44 1_555 1_555
C45 C44 1_555 1_555
C46 C45 1_555 1_555
H31 C46 1_555 1_555
C47 N14 1_555 1_555
H32 C47 1_555 1_555
C48 N16 1_555 1_555
C49 N15 1_555 1_555
H33 C49 1_555 1_555
C50 C49 1_555 1_555
H34 C50 1_555 1_555
C51 C50 1_555 1_555
C52 C51 1_555 1_555
H35 C52 1_555 1_555
C53 N15 1_555 1_555
H36 C53 1_555 1_555
C54 N17 1_555 1_555
C55 N19 1_555 1_555
H37 C55 1_555 1_555
C56 C55 1_555 1_555
H38 C56 1_555 1_555
C57 C56 1_555 1_555
C58 C57 1_555 1_555
H39 C58 1_555 1_555
C59 N19 1_555 1_555
H40 C59 1_555 1_555
C60 C57 1_555 1_555
C61 N20 1_555 1_555
H41 C61 1_555 1_555
C62 C61 1_555 1_555
H42 C62 1_555 1_555
C63 C62 1_555 1_555
C64 C63 1_555 1_555
H43 C64 1_555 1_555
C65 N20 1_555 1_555
H44 C65 1_555 1_555
C66 N22 1_555 1_555
C67 N21 1_555 1_555
H45 C67 1_555 1_555
C68 C67 1_555 1_555
H46 C68 1_555 1_555
C69 C68 1_555 1_555
C70 C69 1_555 1_555
H47 C70 1_555 1_555
C71 N21 1_555 1_555
H48 C71 1_555 1_555
C72 N23 1_555 1_555
C73 N25 1_555 1_555
H49 C73 1_555 1_555
H50 C73 1_555 1_555
H51 C73 1_555 1_555
C74 N25 1_555 1_555
H52 C74 1_555 1_555
H53 C74 1_555 1_555
H54 C74 1_555 1_555
C75 N25 1_555 1_555
H55 C75 1_555 1_555
H56 C75 1_555 1_555
C76 N26 1_555 1_555
H57 C76 1_555 1_555
H58 C76 1_555 1_555
C77 N26 1_555 1_555
H59 C77 1_555 1_555
H60 C77 1_555 1_555
H61 C77 1_555 1_555
C78 N26 1_555 1_555
H62 C78 1_555 1_555
H63 C78 1_555 1_555
H64 C78 1_555 1_555
C79 N27 1_555 1_555
H65 C79 1_555 1_555
H66 C79 1_555 1_555
H67 C79 1_555 1_555
C80 N27 1_555 1_555
H68 C80 1_555 1_555
H69 C80 1_555 1_555
H70 C80 1_555 1_555
C81 N27 1_555 1_555
H71 C81 1_555 1_555
H72 C81 1_555 1_555
C82 N28 1_555 1_555
H73 C82 1_555 1_555
H74 C82 1_555 1_555
C83 N28 1_555 1_555
H75 C83 1_555 1_555
H76 C83 1_555 1_555
H77 C83 1_555 1_555
C84 N28 1_555 1_555
H78 C84 1_555 1_555
H79 C84 1_555 1_555
H80 C84 1_555 1_555
C85 N29 1_555 1_555
H81 C85 1_555 1_555
H82 C85 1_555 1_555
H83 C85 1_555 1_555
C86 N29 1_555 1_555
H84 C86 1_555 1_555
H85 C86 1_555 1_555
H86 C86 1_555 1_555
C87 N29 1_555 1_555
H87 C87 1_555 1_555
H88 C87 1_555 1_555
C88 N30 1_555 1_555
H89 C88 1_555 1_555
H90 C88 1_555 1_555
C89 N30 1_555 1_555
H91 C89 1_555 1_555
H92 C89 1_555 1_555
H93 C89 1_555 1_555
C90 N30 1_555 1_555
H94 C90 1_555 1_555
H95 C90 1_555 1_555
H96 C90 1_555 1_555
C91 N31 1_555 1_555
H97 C91 1_555 1_555
H98 C91 1_555 1_555
H99 C91 1_555 1_555
C92 N31 1_555 1_555
H100 C92 1_555 1_555
H101 C92 1_555 1_555
H102 C92 1_555 1_555
C93 N31 1_555 1_555
H103 C93 1_555 1_555
H104 C93 1_555 1_555
C94 N32 1_555 1_555
H105 C94 1_555 1_555
H106 C94 1_555 1_555
C95 N32 1_555 1_555
H107 C95 1_555 1_555
H108 C95 1_555 1_555
H109 C95 1_555 1_555
C96 N32 1_555 1_555
H110 C96 1_555 1_555
H111 C96 1_555 1_555
H112 C96 1_555 1_555
N33 Pd4 1_555 1_555
N34 Pd4 1_555 1_555
C97 N33 1_555 1_555
H113 C97 1_555 1_555
H114 C97 1_555 1_555
H115 C97 1_555 1_555
C98 N33 1_555 1_555
H116 C98 1_555 1_555
H117 C98 1_555 1_555
H118 C98 1_555 1_555
C99 N33 1_555 1_555
H119 C99 1_555 1_555
H120 C99 1_555 1_555
C100 N34 1_555 1_555
H121 C100 1_555 1_555
H122 C100 1_555 1_555
C101 N34 1_555 1_555
H123 C101 1_555 1_555
H124 C101 1_555 1_555
H125 C101 1_555 1_555
C102 N34 1_555 1_555
H126 C102 1_555 1_555
H127 C102 1_555 1_555
H128 C102 1_555 1_555
N35 Pd6 1_555 1_555
N36 Pd6 1_555 1_555
C103 N35 1_555 1_555
H129 C103 1_555 1_555
H130 C103 1_555 1_555
H131 C103 1_555 1_555
C104 N35 1_555 1_555
H132 C104 1_555 1_555
H133 C104 1_555 1_555
H134 C104 1_555 1_555
C105 N35 1_555 1_555
H135 C105 1_555 1_555
H136 C105 1_555 1_555
C106 N36 1_555 1_555
H137 C106 1_555 1_555
H138 C106 1_555 1_555
C107 N36 1_555 1_555
H139 C107 1_555 1_555
H140 C107 1_555 1_555
H141 C107 1_555 1_555
C108 N36 1_555 1_555
H142 C108 1_555 1_555
H143 C108 1_555 1_555
H144 C108 1_555 1_555
C109 C110 1_555 1_555
C110 C111 1_555 1_555
C111 C112 1_555 1_555
C112 H145 1_555 1_555
C113 C109 1_555 1_555
H146 C113 1_555 1_555
H147 C113 1_555 1_555
F1 C109 1_555 1_555
F2 C109 1_555 1_555
F3 C110 1_555 1_555
F4 C110 1_555 1_555
F5 C111 1_555 1_555
F6 C111 1_555 1_555
F7 C112 1_555 1_555
C114 C115 1_555 1_555
C115 C116 1_555 1_555
C116 C117 1_555 1_555
C117 H148 1_555 1_555
C118 C114 1_555 1_555
H149 C118 1_555 1_555
H150 C118 1_555 1_555
F8 C114 1_555 1_555
F9 C114 1_555 1_555
F10 C115 1_555 1_555
F11 C115 1_555 1_555
F12 C116 1_555 1_555
F13 C116 1_555 1_555
F14 C117 1_555 1_555
C119 C120 1_555 1_555
C120 C121 1_555 1_555
C121 C122 1_555 1_555
C122 H151 1_555 1_555
C123 C119 1_555 1_555
H152 C123 1_555 1_555
H153 C123 1_555 1_555
F15 C119 1_555 1_555
F16 C119 1_555 1_555
F17 C120 1_555 1_555
F18 C120 1_555 1_555
F19 C121 1_555 1_555
F20 C121 1_555 1_555
F21 C122 1_555 1_555
C124 C125 1_555 1_555
C125 C126 1_555 1_555
C126 C127 1_555 1_555
C127 H154 1_555 1_555
C128 C124 1_555 1_555
H155 C128 1_555 1_555
H156 C128 1_555 1_555
F22 C124 1_555 1_555
F23 C124 1_555 1_555
F24 C125 1_555 1_555
F25 C125 1_555 1_555
F26 C126 1_555 1_555
F27 C126 1_555 1_555
F28 C127 1_555 1_555
O1 N37 1_555 1_555
O2 N37 1_555 1_555
O3 N37 1_555 1_555
O4 N38 1_555 1_555
O5 N38 1_555 1_555
O6 N38 1_555 1_555
N39 O12 1_555 1_555
O13 N39 1_555 1_555
O14 N39 1_555 1_555
N40 O20 1_555 1_555
O21 N40 1_555 1_555
O22 N40 1_555 1_555
N41 O26 1_555 1_555
O27 N41 1_555 1_555
O28 N41 1_555 1_555
N42 O30 1_555 1_555
O31 N42 1_555 1_555
O32 N42 1_555 1_555
N43 O36 1_555 1_555
O37 N43 1_555 1_555
O38 N43 1_555 1_555
N44 O39 1_555 1_555
O40 N44 1_555 1_555
O41 N44 1_555 1_555
N45 O42 1_555 1_555
O43 N45 1_555 1_555
O44 N45 1_555 1_555
N6 C18 1_555 1_555
N12 C36 1_555 1_555
N18 C54 1_555 1_555
N24 C72 1_555 1_555
C4 C5 1_555 1_555
C9 C12 1_555 1_555
C10 C11 1_555 1_555
C15 C18 1_555 1_555
C16 C17 1_555 1_555
C22 C23 1_555 1_555
C27 C30 1_555 1_555
C28 C29 1_555 1_555
C33 C36 1_555 1_555
C34 C35 1_555 1_555
C40 C41 1_555 1_555
C45 C48 1_555 1_555
C46 C47 1_555 1_555
C51 C54 1_555 1_555
C52 C53 1_555 1_555
C58 C59 1_555 1_555
C63 C66 1_555 1_555
C64 C65 1_555 1_555
C69 C72 1_555 1_555
C70 C71 1_555 1_555
C75 C76 1_555 1_555
C81 C82 1_555 1_555
C87 C88 1_555 1_555
C93 C94 1_555 1_555
C99 C100 1_555 1_555
C105 C106 1_555 1_555
C112 C113 1_555 1_555
C117 C118 1_555 1_555
C122 C123 1_555 1_555
C127 C128 1_555 1_555

#END
