
#######################################################################
#
#                 Cambridge Crystallographic Data Centre
#                                CCDC 
#
#######################################################################
#
# If this CIF has been generated from an entry in the Cambridge 
# Structural Database, then it will include bibliographic, chemical, 
# crystal, experimental, refinement or atomic coordinate data resulting 
# from the CCDC's data processing and validation procedures.
#
#######################################################################

data_UPUZUC
_chemical_formula_moiety         
'C108 H144 N36 Pd6 12+,x(H2 O1),12(N1 O3 1-),2(C9 H6 F14 O2)'
_chemical_name_systematic        
"tetrakis(\m-2,4,6-tris(pyridin-4-yl)-1,3,5-triazine)-hexakis(N,N,N',N'-tetramethylethane-1,2-diamine)-hexa-palladium dodecanitrate bis(2,2,3,3,4,4,5,5,6,6,7,7,8,8-tetradecafluorononane-1,9-diol) clathrate hydrate"
_symmetry_cell_setting           tetragonal
_symmetry_space_group_name_H-M   'I 41/a'
_symmetry_Int_Tables_number      88
_space_group_name_Hall           '-I 4ad'
loop_
_symmetry_equiv_pos_site_id
_symmetry_equiv_pos_as_xyz
1 x,y,z
2 1/2-x,-y,1/2+z
3 3/4-y,1/4+x,1/4+z
4 3/4+y,3/4-x,3/4+z
5 1/2+x,1/2+y,1/2+z
6 -x,1/2-y,z
7 1/4-y,3/4+x,3/4+z
8 1/4+y,1/4-x,1/4+z
9 -x,-y,-z
10 1/2+x,y,1/2-z
11 1/4+y,3/4-x,3/4-z
12 1/4-y,1/4+x,1/4-z
13 1/2-x,1/2-y,1/2-z
14 x,1/2+y,-z
15 3/4+y,1/4-x,1/4-z
16 3/4-y,3/4+x,3/4-z
_cell_length_a                   26.374(3)
_cell_length_b                   26.374(3)
_cell_length_c                   31.884(3)
_cell_angle_alpha                90
_cell_angle_beta                 90
_cell_angle_gamma                90
_cell_volume                     22178.1
_exptl_crystal_colour            colorless
_exptl_crystal_description       Block
_cell_formula_units_Z            4
loop_
_atom_site_label
_atom_site_type_symbol
_atom_site_fract_x
_atom_site_fract_y
_atom_site_fract_z
O1 O 0.2094(13) 1.1694(10) 0.1978(12)
H37 H 0.2361 1.1572 0.2081
C28 C 0.2112(7) 1.2245(11) 0.2003(9)
H38 H 0.2395 1.2375 0.1830
H39 H 0.2168 1.2352 0.2297
C29 C 0.1621(6) 1.2452(7) 0.1848(5)
C30 C 0.1134(5) 1.2344(7) 0.2098(6)
C31 C 0.0649(5) 1.2562(6) 0.1936(4)
C32 C 0.0141(5) 1.2419(7) 0.2105(5)
C33 C -0.0355(5) 1.2517(8) 0.1878(6)
C34 C -0.0821(6) 1.2603(9) 0.2173(6)
C35 C -0.1337(7) 1.2623(12) 0.1944(9)
C36 C -0.1801(9) 1.2498(18) 0.2216(11)
H40 H -0.1695 1.2291 0.2460
H41 H -0.1954 1.2816 0.2323
O2 O -0.2163(14) 1.223(2) 0.1977(15)
H42 H -0.2357 1.2434 0.1856
F1 F 0.1527(7) 1.2300(7) 0.1450(5)
F2 F 0.1641(10) 1.2971(6) 0.1821(7)
F3 F 0.1115(7) 1.1855(5) 0.2157(7)
F4 F 0.1210(8) 1.2541(9) 0.2484(5)
F5 F 0.0671(9) 1.2401(10) 0.1540(5)
F6 F 0.0749(9) 1.3054(5) 0.1950(8)
F7 F 0.0084(9) 1.2711(7) 0.2470(6)
F8 F 0.0185(7) 1.1946(5) 0.2229(6)
F9 F -0.0293(9) 1.2923(8) 0.1643(6)
F10 F -0.0499(8) 1.2115(9) 0.1649(7)
F11 F -0.0835(11) 1.2207(11) 0.2432(8)
F12 F -0.0749(14) 1.3026(11) 0.2376(12)
F13 F -0.1315(15) 1.2280(19) 0.1633(12)
F14 F -0.1377(13) 1.3076(14) 0.1778(13)
O1E O -0.2094(13) 1.3306(10) 0.1978(12)
H37E H -0.2361 1.3428 0.2081
C28E C -0.2112(7) 1.2755(11) 0.2003(9)
H38E H -0.2395 1.2625 0.1830
H39E H -0.2168 1.2648 0.2297
C29E C -0.1621(6) 1.2548(7) 0.1848(5)
C30E C -0.1134(5) 1.2656(7) 0.2098(6)
C31E C -0.0649(5) 1.2438(6) 0.1936(4)
C32E C -0.0141(5) 1.2581(7) 0.2105(5)
C33E C 0.0355(5) 1.2483(8) 0.1878(6)
C34E C 0.0821(6) 1.2397(9) 0.2173(6)
C35E C 0.1337(7) 1.2377(12) 0.1944(9)
C36E C 0.1801(9) 1.2502(18) 0.2216(11)
H40E H 0.1695 1.2709 0.2460
H41E H 0.1954 1.2184 0.2323
O2E O 0.2163(14) 1.277(2) 0.1977(15)
H42E H 0.2357 1.2566 0.1856
F1E F -0.1527(7) 1.2700(7) 0.1450(5)
F2E F -0.1641(10) 1.2029(6) 0.1821(7)
F3E F -0.1115(7) 1.3145(5) 0.2157(7)
F4E F -0.1210(8) 1.2459(9) 0.2484(5)
F5E F -0.0671(9) 1.2599(10) 0.1540(5)
F6E F -0.0749(9) 1.1946(5) 0.1950(8)
F7E F -0.0084(9) 1.2289(7) 0.2470(6)
F8E F -0.0185(7) 1.3054(5) 0.2229(6)
F9E F 0.0293(9) 1.2077(8) 0.1643(6)
F10E F 0.0499(8) 1.2885(9) 0.1649(7)
F11E F 0.0835(11) 1.2793(11) 0.2432(8)
F12E F 0.0749(14) 1.1974(11) 0.2376(12)
F13E F 0.1315(15) 1.2720(19) 0.1633(12)
F14E F 0.1377(13) 1.1924(14) 0.1778(13)
O3 O 0.3073(9) 1.1469(9) 0.1777(7)
N10 N 0.1079(4) 0.9265(4) 0.0401(3)
O4 O 0.1349(6) 0.9374(6) 0.0064(5)
O5 O 0.1273(6) 0.9025(6) 0.0635(5)
O6 O 0.0739(4) 0.9585(4) 0.0374(4)
O7 O 0.0333(14) 0.9034(12) 0.0847(10)
O8 O -0.0354(14) 0.9406(13) 0.0945(10)
N11 N 0.3175(8) 1.0243(8) 0.1996(8)
O9 O 0.3505(8) 0.9905(8) 0.2074(8)
O10 O 0.3309(8) 1.0625(7) 0.1796(7)
O11 O 0.2728(7) 1.0165(8) 0.2076(7)
O12 O -0.1370(17) 1.3036(17) -0.3250(13)
O13 O 0.3264(10) 0.9299(10) 0.2836(8)
O14 O 0.3846(16) 0.9340(16) 0.2543(13)
N12 N 0.224(2) 1.2265(12) -0.1191(15)
O15 O 0.1897(9) 1.2296(10) -0.1464(8)
O16 O 0.2441(10) 1.2624(9) -0.0994(8)
O17 O 0.2206(10) 1.1836(10) -0.1009(9)
O18 O 0.2737(10) 1.2183(10) -0.0325(9)
O19 O 0.3795(4) 1.2859(5) 0.0798(4)
O20 O 0.3363(7) 1.3408(7) 0.0151(7)
O21 O 0.3704(7) 1.2688(7) 0.0870(6)
O22 O 0.4335(10) 1.4253(10) -0.0585(8)
O23 O 0.3793(7) 1.3453(7) -0.0474(6)
O24 O 0.1398(10) 1.1040(9) -0.1495(8)
O25 O 0.437(2) 1.0197(19) 0.0208(16)
O26 O 0.0000 1.2500 -0.3750
O27 O 0.0076(6) 1.3412(6) -0.3409(5)
O28 O -0.0653(11) 1.4004(11) -0.3519(10)
Pd1 Pd 0.208000(16) 0.970710(16) 0.125424(12)
Pd2 Pd 0.0000 1.2500 -0.170799(17)
C1 C 0.3153(5) 0.9711(8) 0.1098(6)
H1 H 0.3454 0.9598 0.0946
H2 H 0.3188 0.9627 0.1396
H3 H 0.3115 1.0079 0.1066
C2 C 0.2649(12) 0.9492(11) 0.0500(10)
H4 H 0.2652 0.9849 0.0415
H5 H 0.2326 0.9337 0.0417
H6 H 0.2929 0.9313 0.0362
C3 C 0.2703(9) 0.8877(8) 0.1034(7)
H7 H 0.2431 0.8704 0.0875
H8 H 0.3032 0.8722 0.0956
C4 C 0.2612(10) 0.8820(10) 0.1510(7)
H9 H 0.2621 0.8459 0.1595
H10 H 0.2869 0.9010 0.1672
C5 C 0.1622(17) 0.8740(17) 0.1443(19)
H11 H 0.1584 0.8745 0.1138
H12 H 0.1330 0.8907 0.1573
H13 H 0.1641 0.8388 0.1541
C6 C 0.2044(10) 0.9086(9) 0.2051(5)
H14 H 0.1706 0.9225 0.2107
H15 H 0.2302 0.9316 0.2165
H16 H 0.2076 0.8753 0.2186
N1 N 0.20346(19) 1.03738(17) 0.09376(14)
N2 N 0.25454(18) 1.39610(17) 0.09257(14)
N3 N 0.2706(2) 0.9459(2) 0.09292(17)
N4 N 0.2122(2) 0.9029(2) 0.15687(17)
N5 N 0.0525(2) 1.2415(2) -0.21823(16)
N6 N 0.1519(2) 1.18204(17) 0.00016(15)
N7 N 0.16452(19) 1.27126(17) 0.00009(15)
N8 N 0.1998(2) 1.22077(18) 0.05483(15)
N9 N 0.05169(19) 1.24191(17) -0.12419(13)
C7 C 0.1751(3) 1.0413(2) 0.05885(18)
H17 H 0.1605 1.0116 0.0472
C8 C 0.1666(3) 1.0869(2) 0.03965(19)
H18 H 0.1463 1.0884 0.0151
C9 C 0.1876(2) 1.1308(2) 0.05582(18)
C10 C 0.2167(3) 1.1265(2) 0.0925(2)
H19 H 0.2315 1.1557 0.1048
C11 C 0.2233(3) 1.0800(2) 0.1101(2)
H20 H 0.2428 1.0775 0.1351
C12 C 0.0617(3) 1.1961(2) -0.10700(19)
H21 H 0.0471 1.1668 -0.1194
C13 C 0.0919(3) 1.1901(2) -0.0727(2)
H22 H 0.0978 1.1573 -0.0615
C14 C 0.1139(2) 1.2323(2) -0.05417(17)
C15 C 0.1038(2) 1.2798(2) -0.07144(17)
H23 H 0.1181 1.3095 -0.0594
C16 C 0.0729(2) 1.2832(2) -0.10621(17)
H24 H 0.0662 1.3157 -0.1179
C17 C 0.1455(2) 1.2277(2) -0.01567(18)
C18 C 0.1798(2) 1.1806(2) 0.03576(18)
C19 C 0.1910(2) 1.2654(2) 0.03515(18)
C20 C 0.2647(2) 1.3496(2) 0.10728(19)
H25 H 0.2867 1.3463 0.1307
C21 C 0.2443(2) 1.3062(2) 0.0898(2)
H26 H 0.2514 1.2739 0.1015
C22 C 0.2134(2) 1.3109(2) 0.05485(18)
C23 C 0.2036(2) 1.3589(2) 0.03957(18)
H27 H 0.1824 1.3631 0.0158
C24 C 0.0270(4) 1.2589(3) -0.2572(2)
H28 H 0.0449 1.2451 -0.2820
H29 H 0.0280 1.2963 -0.2588
C25 C 0.0673(4) 1.1864(3) -0.2209(3)
H30 H 0.0368 1.1653 -0.2192
H31 H 0.0901 1.1780 -0.1976
H32 H 0.0846 1.1801 -0.2476
C26 C 0.0987(3) 1.2725(3) -0.2119(2)
H33 H 0.1197 1.2711 -0.2372
H34 H 0.1179 1.2591 -0.1880
H35 H 0.0891 1.3077 -0.2062
C27 C 0.2246(2) 1.4005(2) 0.05872(18)
H36 H 0.2177 1.4333 0.0477
N5E N -0.0525(2) 1.2585(2) -0.21823(16)
C24E C -0.0270(4) 1.2411(3) -0.2572(2)
H28E H -0.0449 1.2549 -0.2820
H29E H -0.0280 1.2037 -0.2588
C25E C -0.0673(4) 1.3136(3) -0.2209(3)
H30E H -0.0368 1.3347 -0.2192
H31E H -0.0901 1.3220 -0.1976
H32E H -0.0846 1.3199 -0.2476
C26E C -0.0987(3) 1.2275(3) -0.2119(2)
H33E H -0.1197 1.2289 -0.2372
H34E H -0.1179 1.2409 -0.1880
H35E H -0.0891 1.1923 -0.2062
Pd1E Pd -0.208000(16) 1.529290(16) 0.125424(12)
C1E C -0.3153(5) 1.5289(8) 0.1098(6)
H1E H -0.3454 1.5402 0.0946
H2E H -0.3188 1.5373 0.1396
H3E H -0.3115 1.4921 0.1066
C2E C -0.2649(12) 1.5508(11) 0.0500(10)
H4E H -0.2652 1.5151 0.0415
H5E H -0.2326 1.5663 0.0417
H6E H -0.2929 1.5687 0.0362
C3E C -0.2703(9) 1.6123(8) 0.1034(7)
H7E H -0.2431 1.6296 0.0875
H8E H -0.3032 1.6278 0.0956
C4E C -0.2612(10) 1.6180(10) 0.1510(7)
H9E H -0.2621 1.6541 0.1595
H10E H -0.2869 1.5990 0.1672
C5E C -0.1622(17) 1.6260(17) 0.1443(19)
H11E H -0.1584 1.6255 0.1138
H12E H -0.1330 1.6093 0.1573
H13E H -0.1641 1.6612 0.1541
C6E C -0.2044(10) 1.5914(9) 0.2051(5)
H14E H -0.1706 1.5775 0.2107
H15E H -0.2302 1.5684 0.2165
H16E H -0.2076 1.6247 0.2186
N1E N -0.20346(19) 1.46262(17) 0.09376(14)
N2E N -0.25454(18) 1.10390(17) 0.09257(14)
N3E N -0.2706(2) 1.5541(2) 0.09292(17)
N4E N -0.2122(2) 1.5971(2) 0.15687(17)
N6E N -0.1519(2) 1.31796(17) 0.00016(15)
N7E N -0.16452(19) 1.22874(17) 0.00009(15)
N8E N -0.1998(2) 1.27923(18) 0.05483(15)
N9E N -0.05169(19) 1.25809(17) -0.12419(13)
C7E C -0.1751(3) 1.4587(2) 0.05885(18)
H17E H -0.1605 1.4884 0.0472
C8E C -0.1666(3) 1.4131(2) 0.03965(19)
H18E H -0.1463 1.4116 0.0151
C9E C -0.1876(2) 1.3692(2) 0.05582(18)
C10E C -0.2167(3) 1.3735(2) 0.0925(2)
H19E H -0.2315 1.3443 0.1048
C11E C -0.2233(3) 1.4200(2) 0.1101(2)
H20E H -0.2428 1.4225 0.1351
C12E C -0.0617(3) 1.3039(2) -0.10700(19)
H21E H -0.0471 1.3332 -0.1194
C13E C -0.0919(3) 1.3099(2) -0.0727(2)
H22E H -0.0978 1.3427 -0.0615
C14E C -0.1139(2) 1.2677(2) -0.05417(17)
C15E C -0.1038(2) 1.2202(2) -0.07144(17)
H23E H -0.1181 1.1905 -0.0594
C16E C -0.0729(2) 1.2168(2) -0.10621(17)
H24E H -0.0662 1.1843 -0.1179
C17E C -0.1455(2) 1.2723(2) -0.01567(18)
C18E C -0.1798(2) 1.3194(2) 0.03576(18)
C19E C -0.1910(2) 1.2346(2) 0.03515(18)
C20E C -0.2647(2) 1.1504(2) 0.10728(19)
H25E H -0.2867 1.1537 0.1307
C21E C -0.2443(2) 1.1938(2) 0.0898(2)
H26E H -0.2514 1.2261 0.1015
C22E C -0.2134(2) 1.1891(2) 0.05485(18)
C23E C -0.2036(2) 1.1411(2) 0.03957(18)
H27E H -0.1824 1.1369 0.0158
C27E C -0.2246(2) 1.0995(2) 0.05872(18)
H36E H -0.2177 1.0667 0.0477
Pd1K Pd 0.279290(16) 1.458000(16) 0.124576(12)
Pd2K Pd 0.0000 1.2500 0.420799(17)
C1K C 0.2789(8) 1.5653(5) 0.1402(6)
H1K H 0.2902 1.5954 0.1554
H2K H 0.2873 1.5688 0.1104
H3K H 0.2421 1.5615 0.1434
C2K C 0.3008(11) 1.5149(12) 0.2000(10)
H4K H 0.2651 1.5152 0.2085
H5K H 0.3163 1.4826 0.2083
H6K H 0.3187 1.5429 0.2138
C3K C 0.3623(8) 1.5203(9) 0.1466(7)
H7K H 0.3796 1.4931 0.1625
H8K H 0.3778 1.5532 0.1544
C4K C 0.3680(10) 1.5112(10) 0.0990(7)
H9K H 0.4041 1.5121 0.0905
H10K H 0.3490 1.5369 0.0828
C5K C 0.3760(17) 1.4122(17) 0.1057(19)
H11K H 0.3755 1.4084 0.1362
H12K H 0.3593 1.3830 0.0927
H13K H 0.4112 1.4141 0.0959
C6K C 0.3414(9) 1.4544(10) 0.0449(5)
H14K H 0.3275 1.4206 0.0393
H15K H 0.3184 1.4802 0.0335
H16K H 0.3747 1.4576 0.0314
N1K N 0.21262(17) 1.45346(19) 0.15624(14)
N2K N -0.14610(17) 1.50454(18) 0.15743(14)
N3K N 0.3041(2) 1.5206(2) 0.15708(17)
N4K N 0.3471(2) 1.4622(2) 0.09313(17)
N5K N 0.0085(2) 1.3025(2) 0.46823(16)
N6K N 0.06796(17) 1.4019(2) 0.24984(15)
N7K N -0.02126(17) 1.41452(19) 0.24991(15)
N8K N 0.02923(18) 1.4498(2) 0.19517(15)
N9K N 0.00809(17) 1.30169(19) 0.37419(13)
C7K C 0.2087(2) 1.4251(3) 0.19115(18)
H17K H 0.2384 1.4105 0.2028
C8K C 0.1631(2) 1.4166(3) 0.21035(19)
H18K H 0.1616 1.3963 0.2349
C9K C 0.1192(2) 1.4376(2) 0.19418(18)
C10K C 0.1235(2) 1.4667(3) 0.1575(2)
H19K H 0.0943 1.4815 0.1452
C11K C 0.1700(2) 1.4733(3) 0.1399(2)
H20K H 0.1725 1.4928 0.1149
C12K C 0.0539(2) 1.3117(3) 0.35700(19)
H21K H 0.0832 1.2971 0.3694
C13K C 0.0599(2) 1.3419(3) 0.3227(2)
H22K H 0.0927 1.3478 0.3115
C14K C 0.0177(2) 1.3639(2) 0.30417(17)
C15K C -0.0298(2) 1.3538(2) 0.32144(17)
H23K H -0.0595 1.3681 0.3094
C16K C -0.0332(2) 1.3229(2) 0.35621(17)
H24K H -0.0657 1.3162 0.3679
C17K C 0.0223(2) 1.3955(2) 0.26567(18)
C18K C 0.0694(2) 1.4298(2) 0.21424(18)
C19K C -0.0154(2) 1.4410(2) 0.21485(18)
C20K C -0.0996(2) 1.5147(2) 0.14272(19)
H25K H -0.0963 1.5367 0.1193
C21K C -0.0562(2) 1.4943(2) 0.1602(2)
H26K H -0.0239 1.5014 0.1485
C22K C -0.0609(2) 1.4634(2) 0.19515(18)
C23K C -0.1089(2) 1.4536(2) 0.21043(18)
H27K H -0.1131 1.4324 0.2342
C24K C -0.0089(3) 1.2770(4) 0.5072(2)
H28K H 0.0049 1.2949 0.5320
H29K H -0.0463 1.2780 0.5088
C25K C 0.0636(3) 1.3173(4) 0.4709(3)
H30K H 0.0847 1.2868 0.4692
H31K H 0.0720 1.3401 0.4476
H32K H 0.0699 1.3346 0.4976
C26K C -0.0225(3) 1.3487(3) 0.4619(2)
H33K H -0.0211 1.3697 0.4872
H34K H -0.0091 1.3679 0.4380
H35K H -0.0577 1.3391 0.4562
C27K C -0.1505(2) 1.4746(2) 0.19128(18)
H36K H -0.1833 1.4677 0.2023
N5N N -0.0085(2) 1.1975(2) 0.46823(16)
C24N C 0.0089(3) 1.2230(4) 0.5072(2)
H28N H -0.0049 1.2051 0.5320
H29N H 0.0463 1.2220 0.5088
C25N C -0.0636(3) 1.1827(4) 0.4709(3)
H30N H -0.0847 1.2132 0.4692
H31N H -0.0720 1.1599 0.4476
H32N H -0.0699 1.1654 0.4976
C26N C 0.0225(3) 1.1513(3) 0.4619(2)
H33N H 0.0211 1.1303 0.4872
H34N H 0.0091 1.1321 0.4380
H35N H 0.0577 1.1609 0.4562
Pd1N Pd -0.279290(16) 1.042000(16) 0.124576(12)
C1N C -0.2789(8) 0.9347(5) 0.1402(6)
H1N H -0.2902 0.9046 0.1554
H2N H -0.2873 0.9312 0.1104
H3N H -0.2421 0.9385 0.1434
C2N C -0.3008(11) 0.9851(12) 0.2000(10)
H4N H -0.2651 0.9848 0.2085
H5N H -0.3163 1.0174 0.2083
H6N H -0.3187 0.9571 0.2138
C3N C -0.3623(8) 0.9797(9) 0.1466(7)
H7N H -0.3796 1.0069 0.1625
H8N H -0.3778 0.9468 0.1544
C4N C -0.3680(10) 0.9888(10) 0.0990(7)
H9N H -0.4041 0.9879 0.0905
H10N H -0.3490 0.9631 0.0828
C5N C -0.3760(17) 1.0878(17) 0.1057(19)
H11N H -0.3755 1.0916 0.1362
H12N H -0.3593 1.1170 0.0927
H13N H -0.4112 1.0859 0.0959
C6N C -0.3414(9) 1.0456(10) 0.0449(5)
H14N H -0.3275 1.0794 0.0393
H15N H -0.3184 1.0198 0.0335
H16N H -0.3747 1.0424 0.0314
N1N N -0.21262(17) 1.04654(19) 0.15624(14)
N2N N 0.14610(17) 0.99546(18) 0.15743(14)
N3N N -0.3041(2) 0.9794(2) 0.15708(17)
N4N N -0.3471(2) 1.0378(2) 0.09313(17)
N6N N -0.06796(17) 1.0981(2) 0.24984(15)
N7N N 0.02126(17) 1.08548(19) 0.24991(15)
N8N N -0.02923(18) 1.0502(2) 0.19517(15)
N9N N -0.00809(17) 1.19831(19) 0.37419(13)
C7N C -0.2087(2) 1.0749(3) 0.19115(18)
H17N H -0.2384 1.0895 0.2028
C8N C -0.1631(2) 1.0834(3) 0.21035(19)
H18N H -0.1616 1.1037 0.2349
C9N C -0.1192(2) 1.0624(2) 0.19418(18)
C10N C -0.1235(2) 1.0333(3) 0.1575(2)
H19N H -0.0943 1.0185 0.1452
C11N C -0.1700(2) 1.0267(3) 0.1399(2)
H20N H -0.1725 1.0072 0.1149
C12N C -0.0539(2) 1.1883(3) 0.35700(19)
H21N H -0.0832 1.2029 0.3694
C13N C -0.0599(2) 1.1581(3) 0.3227(2)
H22N H -0.0927 1.1522 0.3115
C14N C -0.0177(2) 1.1361(2) 0.30417(17)
C15N C 0.0298(2) 1.1462(2) 0.32144(17)
H23N H 0.0595 1.1319 0.3094
C16N C 0.0332(2) 1.1771(2) 0.35621(17)
H24N H 0.0657 1.1838 0.3679
C17N C -0.0223(2) 1.1045(2) 0.26567(18)
C18N C -0.0694(2) 1.0702(2) 0.21424(18)
C19N C 0.0154(2) 1.0590(2) 0.21485(18)
C20N C 0.0996(2) 0.9853(2) 0.14272(19)
H25N H 0.0963 0.9633 0.1193
C21N C 0.0562(2) 1.0057(2) 0.1602(2)
H26N H 0.0239 0.9986 0.1485
C22N C 0.0609(2) 1.0366(2) 0.19515(18)
C23N C 0.1089(2) 1.0464(2) 0.21043(18)
H27N H 0.1131 1.0676 0.2342
C27N C 0.1505(2) 1.0254(2) 0.19128(18)
H36N H 0.1833 1.0323 0.2023
loop_
_geom_bond_atom_site_label_1
_geom_bond_atom_site_label_2
_geom_bond_site_symmetry_1
_geom_bond_site_symmetry_2
Pd1 N1 1_555 1_555
Pd2 N5 1_555 1_555
C1 H1 1_555 1_555
H2 C1 1_555 1_555
H3 C1 1_555 1_555
C2 H4 1_555 1_555
H5 C2 1_555 1_555
H6 C2 1_555 1_555
C3 H7 1_555 1_555
H8 C3 1_555 1_555
C4 C3 1_555 1_555
H9 C4 1_555 1_555
H10 C4 1_555 1_555
C5 H11 1_555 1_555
H12 C5 1_555 1_555
H13 C5 1_555 1_555
C6 H14 1_555 1_555
H15 C6 1_555 1_555
H16 C6 1_555 1_555
N1 C7 1_555 1_555
N2 C20 1_555 1_555
N3 Pd1 1_555 1_555
N4 Pd1 1_555 1_555
N5 C24 1_555 1_555
N6 C17 1_555 1_555
N7 C17 1_555 1_555
N8 C18 1_555 1_555
N9 Pd2 1_555 1_555
C7 H17 1_555 1_555
C8 C7 1_555 1_555
H18 C8 1_555 1_555
C9 C8 1_555 1_555
C10 C9 1_555 1_555
H19 C10 1_555 1_555
C11 N1 1_555 1_555
H20 C11 1_555 1_555
C12 N9 1_555 1_555
H21 C12 1_555 1_555
C13 C12 1_555 1_555
H22 C13 1_555 1_555
C14 C13 1_555 1_555
C15 C14 1_555 1_555
H23 C15 1_555 1_555
C16 N9 1_555 1_555
H24 C16 1_555 1_555
C17 C14 1_555 1_555
C18 N6 1_555 1_555
C19 N7 1_555 1_555
C20 H25 1_555 1_555
C21 C20 1_555 1_555
H26 C21 1_555 1_555
C22 C19 1_555 1_555
C23 C22 1_555 1_555
H27 C23 1_555 1_555
C24 H28 1_555 1_555
H29 C24 1_555 1_555
C25 N5 1_555 1_555
H30 C25 1_555 1_555
H31 C25 1_555 1_555
H32 C25 1_555 1_555
C26 N5 1_555 1_555
H33 C26 1_555 1_555
H34 C26 1_555 1_555
H35 C26 1_555 1_555
C27 N2 1_555 1_555
H36 C27 1_555 1_555
O1 H37 1_555 1_555
C28 O1 1_555 1_555
H38 C28 1_555 1_555
H39 C28 1_555 1_555
C29 C28 1_555 1_555
C30 C29 1_555 1_555
C31 C30 1_555 1_555
C32 C31 1_555 1_555
C33 C32 1_555 1_555
C34 C33 1_555 1_555
C35 C34 1_555 1_555
C36 C35 1_555 1_555
H40 C36 1_555 1_555
H41 C36 1_555 1_555
O2 C36 1_555 1_555
H42 O2 1_555 1_555
F1 C29 1_555 1_555
F2 C29 1_555 1_555
F3 C30 1_555 1_555
F4 C30 1_555 1_555
F5 C31 1_555 1_555
F6 C31 1_555 1_555
F7 C32 1_555 1_555
F8 C32 1_555 1_555
F9 C33 1_555 1_555
F10 C33 1_555 1_555
F11 C34 1_555 1_555
F12 C34 1_555 1_555
F13 C35 1_555 1_555
F14 C35 1_555 1_555
N10 O4 1_555 1_555
O5 N10 1_555 1_555
O6 N10 1_555 1_555
N11 O9 1_555 1_555
O10 N11 1_555 1_555
O11 N11 1_555 1_555
N12 O15 1_555 1_555
O16 N12 1_555 1_555
O17 N12 1_555 1_555
N5E Pd2 1_555 1_555
C24E C24 1_555 1_555
H28E C24E 1_555 1_555
H29E C24E 1_555 1_555
C25E N5E 1_555 1_555
H30E C25E 1_555 1_555
H31E C25E 1_555 1_555
H32E C25E 1_555 1_555
C26E N5E 1_555 1_555
H33E C26E 1_555 1_555
H34E C26E 1_555 1_555
H35E C26E 1_555 1_555
Pd1E N1E 1_555 1_555
C1E H1E 1_555 1_555
H2E C1E 1_555 1_555
H3E C1E 1_555 1_555
C2E H4E 1_555 1_555
H5E C2E 1_555 1_555
H6E C2E 1_555 1_555
C3E H7E 1_555 1_555
H8E C3E 1_555 1_555
C4E C3E 1_555 1_555
H9E C4E 1_555 1_555
H10E C4E 1_555 1_555
C5E H11E 1_555 1_555
H12E C5E 1_555 1_555
H13E C5E 1_555 1_555
C6E H14E 1_555 1_555
H15E C6E 1_555 1_555
H16E C6E 1_555 1_555
N1E C7E 1_555 1_555
N2E C20E 1_555 1_555
N3E Pd1E 1_555 1_555
N4E Pd1E 1_555 1_555
N6E C17E 1_555 1_555
N7E C17E 1_555 1_555
N8E C18E 1_555 1_555
N9E Pd2 1_555 1_555
C7E H17E 1_555 1_555
C8E C7E 1_555 1_555
H18E C8E 1_555 1_555
C9E C8E 1_555 1_555
C10E C9E 1_555 1_555
H19E C10E 1_555 1_555
C11E N1E 1_555 1_555
H20E C11E 1_555 1_555
C12E N9E 1_555 1_555
H21E C12E 1_555 1_555
C13E C12E 1_555 1_555
H22E C13E 1_555 1_555
C14E C13E 1_555 1_555
C15E C14E 1_555 1_555
H23E C15E 1_555 1_555
C16E N9E 1_555 1_555
H24E C16E 1_555 1_555
C17E C14E 1_555 1_555
C18E N6E 1_555 1_555
C19E N7E 1_555 1_555
C20E H25E 1_555 1_555
C21E C20E 1_555 1_555
H26E C21E 1_555 1_555
C22E C19E 1_555 1_555
C23E C22E 1_555 1_555
H27E C23E 1_555 1_555
C27E N2E 1_555 1_555
H36E C27E 1_555 1_555
Pd1K N2 1_555 1_555
Pd2K N5K 1_555 1_555
C1K H1K 1_555 1_555
H2K C1K 1_555 1_555
H3K C1K 1_555 1_555
C2K H4K 1_555 1_555
H5K C2K 1_555 1_555
H6K C2K 1_555 1_555
C3K H7K 1_555 1_555
H8K C3K 1_555 1_555
C4K C3K 1_555 1_555
H9K C4K 1_555 1_555
H10K C4K 1_555 1_555
C5K H11K 1_555 1_555
H12K C5K 1_555 1_555
H13K C5K 1_555 1_555
C6K H14K 1_555 1_555
H15K C6K 1_555 1_555
H16K C6K 1_555 1_555
N1K Pd1K 1_555 1_555
N2K Pd1E 1_555 1_555
N3K Pd1K 1_555 1_555
N4K Pd1K 1_555 1_555
N5K C24K 1_555 1_555
N6K C17K 1_555 1_555
N7K C17K 1_555 1_555
N8K C18K 1_555 1_555
N9K Pd2K 1_555 1_555
C7K N1K 1_555 1_555
H17K C7K 1_555 1_555
C8K C7K 1_555 1_555
H18K C8K 1_555 1_555
C9K C8K 1_555 1_555
C10K C9K 1_555 1_555
H19K C10K 1_555 1_555
C11K N1K 1_555 1_555
H20K C11K 1_555 1_555
C12K N9K 1_555 1_555
H21K C12K 1_555 1_555
C13K C12K 1_555 1_555
H22K C13K 1_555 1_555
C14K C13K 1_555 1_555
C15K C14K 1_555 1_555
H23K C15K 1_555 1_555
C16K N9K 1_555 1_555
H24K C16K 1_555 1_555
C17K C14K 1_555 1_555
C18K N6K 1_555 1_555
C19K N7K 1_555 1_555
C20K N2K 1_555 1_555
H25K C20K 1_555 1_555
C21K C20K 1_555 1_555
H26K C21K 1_555 1_555
C22K C19K 1_555 1_555
C23K C22K 1_555 1_555
H27K C23K 1_555 1_555
C24K H28K 1_555 1_555
H29K C24K 1_555 1_555
C25K N5K 1_555 1_555
H30K C25K 1_555 1_555
H31K C25K 1_555 1_555
H32K C25K 1_555 1_555
C26K N5K 1_555 1_555
H33K C26K 1_555 1_555
H34K C26K 1_555 1_555
H35K C26K 1_555 1_555
C27K N2K 1_555 1_555
H36K C27K 1_555 1_555
N5N Pd2K 1_555 1_555
C24N C24K 1_555 1_555
H28N C24N 1_555 1_555
H29N C24N 1_555 1_555
C25N N5N 1_555 1_555
H30N C25N 1_555 1_555
H31N C25N 1_555 1_555
H32N C25N 1_555 1_555
C26N N5N 1_555 1_555
H33N C26N 1_555 1_555
H34N C26N 1_555 1_555
H35N C26N 1_555 1_555
Pd1N N2E 1_555 1_555
C1N H1N 1_555 1_555
H2N C1N 1_555 1_555
H3N C1N 1_555 1_555
C2N H4N 1_555 1_555
H5N C2N 1_555 1_555
H6N C2N 1_555 1_555
C3N H7N 1_555 1_555
H8N C3N 1_555 1_555
C4N C3N 1_555 1_555
H9N C4N 1_555 1_555
H10N C4N 1_555 1_555
C5N H11N 1_555 1_555
H12N C5N 1_555 1_555
H13N C5N 1_555 1_555
C6N H14N 1_555 1_555
H15N C6N 1_555 1_555
H16N C6N 1_555 1_555
N1N Pd1N 1_555 1_555
N2N Pd1 1_555 1_555
N3N Pd1N 1_555 1_555
N4N Pd1N 1_555 1_555
N6N C17N 1_555 1_555
N7N C17N 1_555 1_555
N8N C18N 1_555 1_555
N9N Pd2K 1_555 1_555
C7N N1N 1_555 1_555
H17N C7N 1_555 1_555
C8N C7N 1_555 1_555
H18N C8N 1_555 1_555
C9N C8N 1_555 1_555
C10N C9N 1_555 1_555
H19N C10N 1_555 1_555
C11N N1N 1_555 1_555
H20N C11N 1_555 1_555
C12N N9N 1_555 1_555
H21N C12N 1_555 1_555
C13N C12N 1_555 1_555
H22N C13N 1_555 1_555
C14N C13N 1_555 1_555
C15N C14N 1_555 1_555
H23N C15N 1_555 1_555
C16N N9N 1_555 1_555
H24N C16N 1_555 1_555
C17N C14N 1_555 1_555
C18N N6N 1_555 1_555
C19N N7N 1_555 1_555
C20N N2N 1_555 1_555
H25N C20N 1_555 1_555
C21N C20N 1_555 1_555
H26N C21N 1_555 1_555
C22N C19N 1_555 1_555
C23N C22N 1_555 1_555
H27N C23N 1_555 1_555
C27N N2N 1_555 1_555
H36N C27N 1_555 1_555
O1E H37E 1_555 1_555
C28E C36 1_555 1_555
H38E O2 1_555 1_555
H39E C36 1_555 1_555
C29E C35 1_555 1_555
C30E C34 1_555 1_555
C31E C33 1_555 1_555
C32E C32 1_555 1_555
C33E C31 1_555 1_555
C34E C30 1_555 1_555
C35E C29 1_555 1_555
C36E C28 1_555 1_555
H40E C36E 1_555 1_555
H41E C28 1_555 1_555
O2E C28 1_555 1_555
H42E C28 1_555 1_555
F1E C35 1_555 1_555
F2E O2 1_555 1_555
F3E F12 1_555 1_555
F4E C34 1_555 1_555
F5E C33 1_555 1_555
F6E F10 1_555 1_555
F7E C32 1_555 1_555
F8E F7 1_555 1_555
F9E F5 1_555 1_555
F10E C31 1_555 1_555
F11E C31 1_555 1_555
F12E F3 1_555 1_555
F13E C29 1_555 1_555
F14E C29 1_555 1_555
C1 N3 1_555 1_555
C2 N3 1_555 1_555
C3 N3 1_555 1_555
C4 N4 1_555 1_555
C5 N4 1_555 1_555
C6 N4 1_555 1_555
N8 C19 1_555 1_555
C9 C18 1_555 1_555
C10 C11 1_555 1_555
C15 C16 1_555 1_555
C21 C22 1_555 1_555
C23 C27 1_555 1_555
H38 O2E 1_555 1_555
H39 C36E 1_555 1_555
C29 C36E 1_555 1_555
C29 O2E 1_555 1_555
C30 C35E 1_555 1_555
C31 C34E 1_555 1_555
C32 C33E 1_555 1_555
C32 C34E 1_555 1_555
C33 C32E 1_555 1_555
C34 C31E 1_555 1_555
C34 C32E 1_555 1_555
C35 C30E 1_555 1_555
C36 C29E 1_555 1_555
H41 C28E 1_555 1_555
O2 C28E 1_555 1_555
O2 C29E 1_555 1_555
H42 C28E 1_555 1_555
F1 C35E 1_555 1_555
F1 F13E 1_555 1_555
F1 F14E 1_555 1_555
F2 O2E 1_555 1_555
F2 F13E 1_555 1_555
F3 F14E 1_555 1_555
F4 C34E 1_555 1_555
F4 F11E 1_555 1_555
F5 C33E 1_555 1_555
F5 F10E 1_555 1_555
F6 F10E 1_555 1_555
F7 C32E 1_555 1_555
F7 F7E 1_555 1_555
F8 F7E 1_555 1_555
F9 F5E 1_555 1_555
F10 C31E 1_555 1_555
F10 F5E 1_555 1_555
F11 C31E 1_555 1_555
F11 F4E 1_555 1_555
F13 C29E 1_555 1_555
F13 F1E 1_555 1_555
F13 F2E 1_555 1_555
F14 C29E 1_555 1_555
F14 F1E 1_555 1_555
F14 F3E 1_555 1_555
N5E C24E 1_555 1_555
C1E N3E 1_555 1_555
C2E N3E 1_555 1_555
C3E N3E 1_555 1_555
C4E N4E 1_555 1_555
C5E N4E 1_555 1_555
C6E N4E 1_555 1_555
N8E C19E 1_555 1_555
C9E C18E 1_555 1_555
C10E C11E 1_555 1_555
C15E C16E 1_555 1_555
C21E C22E 1_555 1_555
C23E C27E 1_555 1_555
C1K N3K 1_555 1_555
C2K N3K 1_555 1_555
C3K N3K 1_555 1_555
C4K N4K 1_555 1_555
C5K N4K 1_555 1_555
C6K N4K 1_555 1_555
N8K C19K 1_555 1_555
C9K C18K 1_555 1_555
C10K C11K 1_555 1_555
C15K C16K 1_555 1_555
C21K C22K 1_555 1_555
C23K C27K 1_555 1_555
N5N C24N 1_555 1_555
C1N N3N 1_555 1_555
C2N N3N 1_555 1_555
C3N N3N 1_555 1_555
C4N N4N 1_555 1_555
C5N N4N 1_555 1_555
C6N N4N 1_555 1_555
N8N C19N 1_555 1_555
C9N C18N 1_555 1_555
C10N C11N 1_555 1_555
C15N C16N 1_555 1_555
C21N C22N 1_555 1_555
C23N C27N 1_555 1_555
O1E C28E 1_555 1_555
C28E H38E 1_555 1_555
C28E H39E 1_555 1_555
C28E C29E 1_555 1_555
C29E C30E 1_555 1_555
C29E F1E 1_555 1_555
C29E F2E 1_555 1_555
C30E C31E 1_555 1_555
C30E F3E 1_555 1_555
C30E F4E 1_555 1_555
C31E C32E 1_555 1_555
C31E F5E 1_555 1_555
C31E F6E 1_555 1_555
C32E C33E 1_555 1_555
C32E F7E 1_555 1_555
C32E F8E 1_555 1_555
C33E C34E 1_555 1_555
C33E F9E 1_555 1_555
C33E F10E 1_555 1_555
C34E C35E 1_555 1_555
C34E F11E 1_555 1_555
C34E F12E 1_555 1_555
C35E C36E 1_555 1_555
C35E F13E 1_555 1_555
C35E F14E 1_555 1_555
C36E H41E 1_555 1_555
C36E O2E 1_555 1_555
O2E H42E 1_555 1_555

#END
