# generated using pymatgen
data_H199Pd6C160N52O143F56
_symmetry_space_group_name_H-M   'P 1'
_cell_length_a   24.28400000
_cell_length_b   24.30600000
_cell_length_c   24.63600000
_cell_angle_alpha   115.99000000
_cell_angle_beta   90.62500000
_cell_angle_gamma   119.37100000
_symmetry_Int_Tables_number   1
_chemical_formula_structural   H199Pd6C160N52O143F56
_chemical_formula_sum   'H398 Pd12 C320 N104 O286 F112'
_cell_volume   10907.02611127
_cell_formula_units_Z   2
loop_
 _symmetry_equiv_pos_site_id
 _symmetry_equiv_pos_as_xyz
  1  'x, y, z'
loop_
 _atom_site_type_symbol
 _atom_site_label
 _atom_site_symmetry_multiplicity
 _atom_site_fract_x
 _atom_site_fract_y
 _atom_site_fract_z
 _atom_site_occupancy
  H  H1  1  0.782500  0.217500  0.122200  1
  H  H2  1  0.217500  0.782500  0.877800  1
  H  H3  1  0.714900  0.261000  0.128000  1
  H  H4  1  0.285100  0.739000  0.872000  1
  H  H5  1  0.866100  0.438200  0.130300  1
  H  H6  1  0.133900  0.561800  0.869700  1
  H  H7  1  0.931000  0.391800  0.125800  1
  H  H8  1  0.069000  0.608200  0.874200  1
  H  H9  1  0.438600  0.326000  0.120200  1
  H  H10  1  0.561400  0.674000  0.879800  1
  H  H11  1  0.549700  0.399300  0.129300  1
  H  H12  1  0.450300  0.600700  0.870700  1
  H  H13  1  0.574800  0.248500  0.132600  1
  H  H14  1  0.425200  0.751500  0.867400  1
  H  H15  1  0.465500  0.183400  0.128500  1
  H  H16  1  0.534500  0.816600  0.871500  1
  H  H17  1  0.888800  0.668500  0.126400  1
  H  H18  1  0.111200  0.331500  0.873600  1
  H  H19  1  0.850400  0.563400  0.131700  1
  H  H20  1  0.149600  0.436600  0.868300  1
  H  H21  1  0.672300  0.536700  0.124800  1
  H  H22  1  0.327700  0.463300  0.875200  1
  H  H23  1  0.714100  0.641900  0.120000  1
  H  H24  1  0.285900  0.358100  0.880000  1
  H  H25  1  0.942400  0.283300  0.001000  1
  H  H26  1  0.057600  0.716700  0.999000  1
  H  H27  1  0.890700  0.236500  0.898200  1
  H  H28  1  0.109300  0.763500  0.101800  1
  H  H29  1  0.735700  0.069600  0.904400  1
  H  H30  1  0.264300  0.930400  0.095600  1
  H  H31  1  0.790600  0.121100  0.007600  1
  H  H32  1  0.209400  0.878900  0.992400  1
  H  H33  1  0.788300  0.160300  0.570300  1
  H  H34  1  0.211700  0.839700  0.429700  1
  H  H35  1  0.737200  0.090600  0.617200  1
  H  H36  1  0.262800  0.909400  0.382800  1
  H  H37  1  0.889100  0.247100  0.775500  1
  H  H38  1  0.110900  0.752900  0.224500  1
  H  H39  1  0.940900  0.309500  0.723400  1
  H  H40  1  0.059100  0.690500  0.276600  1
  H  H41  1  0.503100  0.832900  0.723400  1
  H  H42  1  0.496900  0.167100  0.276600  1
  H  H43  1  0.608500  0.939400  0.776400  1
  H  H44  1  0.391500  0.060600  0.223600  1
  H  H45  1  0.612400  0.954100  0.619200  1
  H  H46  1  0.387600  0.045900  0.380800  1
  H  H47  1  0.506400  0.848600  0.569800  1
  H  H48  1  0.493600  0.151400  0.430200  1
  H  H49  1  0.718400  0.661700  0.000000  1
  H  H50  1  0.281600  0.338300  0.000000  1
  H  H51  1  0.673000  0.563600  0.898400  1
  H  H52  1  0.327000  0.436400  0.101600  1
  H  H53  1  0.845900  0.576800  0.909300  1
  H  H54  1  0.154100  0.423200  0.090700  1
  H  H55  1  0.885600  0.672700  0.012400  1
  H  H56  1  0.114400  0.327300  0.987600  1
  H  H57  1  0.454200  0.240500  0.576200  1
  H  H58  1  0.545800  0.759500  0.423800  1
  H  H59  1  0.563900  0.295200  0.624300  1
  H  H60  1  0.436100  0.704800  0.375700  1
  H  H61  1  0.550200  0.438900  0.779000  1
  H  H62  1  0.449800  0.561100  0.221000  1
  H  H63  1  0.441000  0.380700  0.727400  1
  H  H64  1  0.559000  0.619300  0.272600  1
  H  H65  1  0.924000  0.426300  0.728100  1
  H  H66  1  0.076000  0.573700  0.271900  1
  H  H67  1  0.862100  0.468200  0.780500  1
  H  H68  1  0.137900  0.531800  0.219500  1
  H  H69  1  0.706200  0.311700  0.625100  1
  H  H70  1  0.293800  0.688300  0.374900  1
  H  H71  1  0.771200  0.273700  0.575700  1
  H  H72  1  0.228800  0.726300  0.424300  1
  H  H73  1  0.342500  0.061100  0.003400  1
  H  H74  1  0.657500  0.938900  0.996600  1
  H  H75  1  0.346600  0.021400  0.899700  1
  H  H76  1  0.653400  0.978600  0.100300  1
  H  H77  1  0.337700  0.187200  0.909000  1
  H  H78  1  0.662300  0.812800  0.091000  1
  H  H79  1  0.334000  0.223000  0.012700  1
  H  H80  1  0.666000  0.777000  0.987300  1
  H  H81  1  0.370100  0.837300  0.571100  1
  H  H82  1  0.629900  0.162700  0.428900  1
  H  H83  1  0.355400  0.932000  0.621800  1
  H  H84  1  0.644600  0.068000  0.378200  1
  H  H85  1  0.370600  0.920900  0.779300  1
  H  H86  1  0.629400  0.079100  0.220700  1
  H  H87  1  0.383000  0.824000  0.724500  1
  H  H88  1  0.617000  0.176000  0.275500  1
  H  H89  1  0.329000  0.259700  0.730600  1
  H  H90  1  0.671000  0.740300  0.269400  1
  H  H91  1  0.333333  0.201700  0.782400  1
  H  H92  1  0.666667  0.798300  0.217600  1
  H  H93  1  0.332200  0.050800  0.621400  1
  H  H94  1  0.667800  0.949200  0.378600  1
  H  H95  1  0.332100  0.113900  0.572700  1
  H  H96  1  0.667900  0.886100  0.427300  1
  H  H97  1  0.967900  0.117800  0.040200  1
  H  H98  1  0.032100  0.882200  0.959800  1
  H  H99  1  0.926600  0.128600  0.999200  1
  H  H100  1  0.073400  0.871400  0.000800  1
  H  H101  1  0.899500  0.108100  0.051000  1
  H  H102  1  0.100500  0.891900  0.949000  1
  H  H103  1  0.062900  0.243900  0.068400  1
  H  H104  1  0.937100  0.756100  0.931600  1
  H  H105  1  0.051300  0.309300  0.096500  1
  H  H106  1  0.948700  0.690700  0.903500  1
  H  H107  1  0.012600  0.243200  0.025200  1
  H  H108  1  0.987400  0.756800  0.974800  1
  H  H109  1  0.038900  0.219900  0.149300  1
  H  H110  1  0.961100  0.780100  0.850700  1
  H  H111  1  0.965800  0.186500  0.157200  1
  H  H112  1  0.034200  0.813500  0.842800  1
  H  H113  1  0.059000  0.337000  0.197100  1
  H  H114  1  0.941000  0.663000  0.802900  1
  H  H115  1  0.034900  0.305100  0.243200  1
  H  H116  1  0.965100  0.694900  0.756800  1
  H  H117  1  0.016100  0.410200  0.278400  1
  H  H118  1  0.983900  0.589800  0.721600  1
  H  H119  1  0.953700  0.394100  0.236200  1
  H  H120  1  0.046300  0.605900  0.763800  1
  H  H121  1  0.019100  0.411600  0.214100  1
  H  H122  1  0.980900  0.588400  0.785900  1
  H  H123  1  0.943000  0.292800  0.273200  1
  H  H124  1  0.057000  0.707200  0.726800  1
  H  H125  1  0.899500  0.220100  0.205600  1
  H  H126  1  0.100500  0.779900  0.794400  1
  H  H127  1  0.884000  0.282400  0.231300  1
  H  H128  1  0.116000  0.717600  0.768700  1
  H  H129  1  0.825000  0.844600  0.276900  1
  H  H130  1  0.175000  0.155400  0.723100  1
  H  H131  1  0.813100  0.764900  0.242200  1
  H  H132  1  0.186900  0.235100  0.757800  1
  H  H133  1  0.770000  0.781800  0.210400  1
  H  H134  1  0.230000  0.218200  0.789600  1
  H  H135  1  0.939700  0.880100  0.280600  1
  H  H136  1  0.060300  0.119900  0.719400  1
  H  H137  1  0.960900  0.862500  0.216800  1
  H  H138  1  0.039100  0.137500  0.783200  1
  H  H139  1  0.920200  0.798600  0.232300  1
  H  H140  1  0.079800  0.201400  0.767700  1
  H  H141  1  0.830900  0.888200  0.198400  1
  H  H142  1  0.169100  0.111800  0.801600  1
  H  H143  1  0.902100  0.936900  0.248600  1
  H  H144  1  0.097900  0.063100  0.751400  1
  H  H145  1  0.951000  0.914700  0.167600  1
  H  H146  1  0.049000  0.085300  0.832400  1
  H  H147  1  0.910500  0.946900  0.157000  1
  H  H148  1  0.089500  0.053100  0.843000  1
  H  H149  1  0.920600  0.882600  0.047200  1
  H  H150  1  0.079400  0.117400  0.952800  1
  H  H151  1  0.875500  0.794900  0.006100  1
  H  H152  1  0.124500  0.205100  0.993900  1
  H  H153  1  0.940800  0.835300  0.060800  1
  H  H154  1  0.059200  0.164700  0.939200  1
  H  H155  1  0.819400  0.878200  0.071600  1
  H  H156  1  0.180600  0.121800  0.928400  1
  H  H157  1  0.777100  0.826600  0.098800  1
  H  H158  1  0.222900  0.173400  0.901200  1
  H  H159  1  0.781100  0.791000  0.028000  1
  H  H160  1  0.218900  0.209000  0.972000  1
  H  H161  1  0.396400  0.226200  0.278600  1
  H  H162  1  0.603600  0.773800  0.721400  1
  H  H163  1  0.445600  0.258400  0.242300  1
  H  H164  1  0.554400  0.741600  0.757700  1
  H  H165  1  0.397500  0.171600  0.212500  1
  H  H166  1  0.602500  0.828400  0.787500  1
  H  H167  1  0.363500  0.308300  0.279400  1
  H  H168  1  0.636500  0.691700  0.720600  1
  H  H169  1  0.327100  0.290900  0.213900  1
  H  H170  1  0.672900  0.709100  0.786100  1
  H  H171  1  0.405000  0.326500  0.232700  1
  H  H172  1  0.595000  0.673500  0.767300  1
  H  H173  1  0.282600  0.120100  0.198200  1
  H  H174  1  0.717400  0.879900  0.801800  1
  H  H175  1  0.276600  0.186400  0.245900  1
  H  H176  1  0.723400  0.813600  0.754100  1
  H  H177  1  0.230800  0.185200  0.162700  1
  H  H178  1  0.769200  0.814800  0.837300  1
  H  H179  1  0.188600  0.104600  0.153500  1
  H  H180  1  0.811400  0.895400  0.846500  1
  H  H181  1  0.156100  0.078100  0.042600  1
  H  H182  1  0.843900  0.921900  0.957400  1
  H  H183  1  0.209400  0.086500  0.003900  1
  H  H184  1  0.790600  0.913500  0.996100  1
  H  H185  1  0.214400  0.157900  0.057900  1
  H  H186  1  0.785600  0.842100  0.942100  1
  H  H187  1  0.185800  0.008200  0.075500  1
  H  H188  1  0.814200  0.991800  0.924500  1
  H  H189  1  0.262700  0.040400  0.096700  1
  H  H190  1  0.737300  0.959600  0.903300  1
  H  H191  1  0.228300  0.014300  0.026800  1
  H  H192  1  0.771700  0.985700  0.973200  1
  H  H193  1  0.376800  0.419200  0.597900  1
  H  H194  1  0.623200  0.580800  0.402100  1
  H  H195  1  0.414000  0.413800  0.647500  1
  H  H196  1  0.586000  0.586200  0.352500  1
  H  H197  1  0.337800  0.385800  0.638800  1
  H  H198  1  0.662200  0.614200  0.361200  1
  H  H199  1  0.404700  0.348200  0.511200  1
  H  H200  1  0.595300  0.651800  0.488800  1
  H  H201  1  0.394000  0.274200  0.502700  1
  H  H202  1  0.606000  0.725800  0.497300  1
  H  H203  1  0.447300  0.351400  0.563800  1
  H  H204  1  0.552700  0.648600  0.436200  1
  H  H205  1  0.286100  0.311300  0.511300  1
  H  H206  1  0.713900  0.688700  0.488700  1
  H  H207  1  0.282800  0.236000  0.481400  1
  H  H208  1  0.717200  0.764000  0.518600  1
  H  H209  1  0.190900  0.218800  0.517400  1
  H  H210  1  0.809100  0.781200  0.482600  1
  H  H211  1  0.236700  0.289100  0.585900  1
  H  H212  1  0.763300  0.710900  0.414100  1
  H  H213  1  0.168100  0.103200  0.491500  1
  H  H214  1  0.831900  0.896800  0.508500  1
  H  H215  1  0.219700  0.095800  0.523900  1
  H  H216  1  0.780300  0.904200  0.476100  1
  H  H217  1  0.239800  0.132500  0.480900  1
  H  H218  1  0.760200  0.867500  0.519100  1
  H  H219  1  0.156100  0.172100  0.594600  1
  H  H220  1  0.843900  0.827900  0.405400  1
  H  H221  1  0.221200  0.236100  0.652900  1
  H  H222  1  0.778800  0.763900  0.347100  1
  H  H223  1  0.201100  0.153100  0.620700  1
  H  H224  1  0.798900  0.846900  0.379300  1
  H  H225  1  0.474500  0.646200  0.495500  1
  H  H226  1  0.525500  0.353800  0.504500  1
  H  H227  1  0.508500  0.732000  0.543700  1
  H  H228  1  0.491500  0.268000  0.456300  1
  H  H229  1  0.446900  0.689200  0.484200  1
  H  H230  1  0.553100  0.310800  0.515800  1
  H  H231  1  0.461100  0.626900  0.584000  1
  H  H232  1  0.538900  0.373100  0.416000  1
  H  H233  1  0.402300  0.628500  0.611600  1
  H  H234  1  0.597700  0.371500  0.388400  1
  H  H235  1  0.473800  0.702700  0.638600  1
  H  H236  1  0.526200  0.297300  0.361400  1
  H  H237  1  0.347700  0.594000  0.465500  1
  H  H238  1  0.652300  0.406000  0.534500  1
  H  H239  1  0.355300  0.553800  0.499200  1
  H  H240  1  0.644700  0.446200  0.500800  1
  H  H241  1  0.256500  0.553400  0.498600  1
  H  H242  1  0.743500  0.446600  0.501400  1
  H  H243  1  0.299000  0.584100  0.567000  1
  H  H244  1  0.701000  0.415900  0.433000  1
  H  H245  1  0.237000  0.620200  0.469700  1
  H  H246  1  0.763000  0.379800  0.530300  1
  H  H247  1  0.309600  0.686500  0.482300  1
  H  H248  1  0.690400  0.313500  0.517700  1
  H  H249  1  0.261700  0.702700  0.521000  1
  H  H250  1  0.738300  0.297300  0.479000  1
  H  H251  1  0.214900  0.619000  0.580800  1
  H  H252  1  0.785100  0.381000  0.419200  1
  H  H253  1  0.254000  0.705800  0.609800  1
  H  H254  1  0.746000  0.294200  0.390200  1
  H  H255  1  0.279500  0.673000  0.639900  1
  H  H256  1  0.720500  0.327000  0.360100  1
  H  H257  1  0.915000  0.399000  0.510900  1
  H  H258  1  0.085000  0.601000  0.489100  1
  H  H259  1  0.863800  0.372400  0.548100  1
  H  H260  1  0.136200  0.627600  0.451900  1
  H  H261  1  0.870400  0.313900  0.489400  1
  H  H262  1  0.129600  0.686100  0.510600  1
  H  H263  1  0.009600  0.482400  0.601100  1
  H  H264  1  0.990400  0.517600  0.398900  1
  H  H265  1  0.032400  0.453700  0.638300  1
  H  H266  1  0.967600  0.546300  0.361700  1
  H  H267  1  0.973700  0.466000  0.651300  1
  H  H268  1  0.026300  0.534000  0.348700  1
  H  H269  1  0.944000  0.300800  0.482800  1
  H  H270  1  0.056000  0.699200  0.517200  1
  H  H271  1  0.009000  0.382100  0.512400  1
  H  H272  1  0.991000  0.617900  0.487600  1
  H  H273  1  0.049300  0.369500  0.591100  1
  H  H274  1  0.950700  0.630500  0.408900  1
  H  H275  1  0.036000  0.305200  0.522600  1
  H  H276  1  0.964000  0.694800  0.477400  1
  H  H277  1  0.955200  0.179000  0.495100  1
  H  H278  1  0.044800  0.821000  0.504900  1
  H  H279  1  0.904400  0.197200  0.478800  1
  H  H280  1  0.095600  0.802800  0.521200  1
  H  H281  1  0.893200  0.162200  0.522800  1
  H  H282  1  0.106800  0.837800  0.477200  1
  H  H283  1  0.043900  0.271900  0.605500  1
  H  H284  1  0.956100  0.728100  0.394500  1
  H  H285  1  0.975700  0.220500  0.614100  1
  H  H286  1  0.024300  0.779500  0.385900  1
  H  H287  1  0.014500  0.307800  0.657500  1
  H  H288  1  0.985500  0.692200  0.342500  1
  H  H289  1  0.495800  0.035000  0.586200  1
  H  H290  1  0.504200  0.965000  0.413800  1
  H  H291  1  0.610700  0.057900  0.620700  1
  H  H292  1  0.389300  0.942100  0.379300  1
  H  H293  1  0.606500  0.107900  0.596600  1
  H  H294  1  0.393500  0.892100  0.403400  1
  H  H295  1  0.892700  0.437700  0.016500  1
  H  H296  1  0.107300  0.562300  0.983500  1
  H  H297  1  0.909600  0.410700  0.910800  1
  H  H298  1  0.090400  0.589300  0.089200  1
  H  H299  1  0.889700  0.336400  0.910100  1
  H  H300  1  0.110300  0.663600  0.089900  1
  H  H301  1  0.480500  0.068700  0.949500  1
  H  H302  1  0.519500  0.931300  0.050500  1
  H  H303  1  0.591200  0.180700  0.039300  1
  H  H304  1  0.408800  0.819300  0.960700  1
  H  H305  1  0.594400  0.109800  0.997900  1
  H  H306  1  0.405600  0.890200  0.002100  1
  H  H307  1  0.567900  0.469500  0.942800  1
  H  H308  1  0.432100  0.530500  0.057200  1
  H  H309  1  0.587300  0.450900  0.039600  1
  H  H310  1  0.412700  0.549100  0.960400  1
  H  H311  1  0.512000  0.409200  0.000000  1
  H  H312  1  0.488000  0.590800  0.000000  1
  H  H313  1  0.455000  0.638400  0.472900  1
  H  H314  1  0.545000  0.361600  0.527100  1
  H  H315  1  0.487000  0.724900  0.512900  1
  H  H316  1  0.513000  0.275100  0.487100  1
  H  H317  1  0.412100  0.670600  0.469400  1
  H  H318  1  0.587900  0.329400  0.530600  1
  H  H319  1  0.489900  0.644100  0.571600  1
  H  H320  1  0.510100  0.355900  0.428400  1
  H  H321  1  0.471200  0.682200  0.633100  1
  H  H322  1  0.528800  0.317800  0.366900  1
  H  H323  1  0.521600  0.730500  0.607000  1
  H  H324  1  0.478400  0.269500  0.393000  1
  H  H325  1  0.356500  0.593700  0.573800  1
  H  H326  1  0.643500  0.406300  0.426200  1
  H  H327  1  0.368100  0.556900  0.506300  1
  H  H328  1  0.631900  0.443100  0.493700  1
  H  H329  1  0.266600  0.548700  0.489100  1
  H  H330  1  0.733400  0.451300  0.510900  1
  H  H331  1  0.318500  0.603100  0.468200  1
  H  H332  1  0.681500  0.396900  0.531800  1
  H  H333  1  0.224800  0.664300  0.535600  1
  H  H334  1  0.775200  0.335700  0.464400  1
  H  H335  1  0.276500  0.684000  0.494300  1
  H  H336  1  0.723500  0.316000  0.505700  1
  H  H337  1  0.233200  0.594000  0.582300  1
  H  H338  1  0.766800  0.406000  0.417700  1
  H  H339  1  0.276300  0.678600  0.636700  1
  H  H340  1  0.723700  0.321400  0.363300  1
  H  H341  1  0.307300  0.630300  0.619900  1
  H  H342  1  0.692700  0.369700  0.380100  1
  H  H343  1  0.876300  0.399300  0.574500  1
  H  H344  1  0.123700  0.600700  0.425500  1
  H  H345  1  0.855900  0.326200  0.510300  1
  H  H346  1  0.144100  0.673800  0.489700  1
  H  H347  1  0.909500  0.404800  0.519800  1
  H  H348  1  0.090500  0.595200  0.480200  1
  H  H349  1  0.994000  0.485500  0.600400  1
  H  H350  1  0.006000  0.514500  0.399600  1
  H  H351  1  0.009900  0.470500  0.653800  1
  H  H352  1  0.990100  0.529500  0.346200  1
  H  H353  1  0.940200  0.459100  0.635600  1
  H  H354  1  0.059800  0.540900  0.364400  1
  H  H355  1  0.041500  0.400200  0.582500  1
  H  H356  1  0.958500  0.599800  0.417500  1
  H  H357  1  0.012100  0.388000  0.516700  1
  H  H358  1  0.987900  0.612000  0.483300  1
  H  H359  1  0.017700  0.287000  0.499500  1
  H  H360  1  0.982300  0.713000  0.500500  1
  H  H361  1  0.942000  0.260200  0.477200  1
  H  H362  1  0.058000  0.739800  0.522800  1
  H  H363  1  0.955200  0.171800  0.507500  1
  H  H364  1  0.044800  0.828200  0.492500  1
  H  H365  1  0.889800  0.170600  0.494600  1
  H  H366  1  0.110200  0.829400  0.505400  1
  H  H367  1  0.909900  0.166300  0.554000  1
  H  H368  1  0.090100  0.833700  0.446000  1
  H  H369  1  0.038500  0.263900  0.590500  1
  H  H370  1  0.961500  0.736100  0.409500  1
  H  H371  1  0.011100  0.294900  0.647400  1
  H  H372  1  0.988900  0.705100  0.352600  1
  H  H373  1  0.055200  0.345400  0.620000  1
  H  H374  1  0.944800  0.654600  0.380000  1
  H  H375  1  0.583000  0.032700  0.614300  1
  H  H376  1  0.417000  0.967300  0.385700  1
  H  H377  1  0.468700  0.021800  0.605200  1
  H  H378  1  0.531300  0.978200  0.394800  1
  H  H379  1  0.520400  0.064200  0.575400  1
  H  H380  1  0.479600  0.935800  0.424600  1
  H  H381  1  0.920600  0.421000  0.960100  1
  H  H382  1  0.079400  0.579000  0.039900  1
  H  H383  1  0.856900  0.452600  0.042000  1
  H  H384  1  0.143100  0.547400  0.958000  1
  H  H385  1  0.885600  0.500400  0.008400  1
  H  H386  1  0.114400  0.499600  0.991600  1
  H  H387  1  0.537900  0.087700  0.998600  1
  H  H388  1  0.462100  0.912300  0.001400  1
  H  H389  1  0.489800  0.995600  0.889200  1
  H  H390  1  0.510200  0.004400  0.110800  1
  H  H391  1  0.443800  0.026600  0.892500  1
  H  H392  1  0.556200  0.973400  0.107500  1
  H  H393  1  0.550900  0.456400  0.997900  1
  H  H394  1  0.449100  0.543600  0.002100  1
  H  H395  1  0.499900  0.398900  0.887900  1
  H  H396  1  0.500100  0.601100  0.112100  1
  H  H397  1  0.575200  0.453400  0.892700  1
  H  H398  1  0.424800  0.546600  0.107300  1
  Pd  Pd399  1  0.916990  0.256530  0.106440  1
  Pd  Pd400  1  0.083010  0.743470  0.893560  1
  Pd  Pd401  1  0.835770  0.750180  0.108850  1
  Pd  Pd402  1  0.164230  0.249820  0.891150  1
  Pd  Pd403  1  0.344370  0.182100  0.109660  1
  Pd  Pd404  1  0.655630  0.817900  0.890340  1
  Pd  Pd405  1  0.400400  0.746280  0.599030  1
  Pd  Pd406  1  0.599600  0.253720  0.400970  1
  Pd  Pd407  1  0.340140  0.252740  0.607070  1
  Pd  Pd408  1  0.659860  0.747260  0.392930  1
  Pd  Pd409  1  0.908000  0.307050  0.605910  1
  Pd  Pd410  1  0.092000  0.692950  0.394090  1
  C  C411  1  0.799400  0.262800  0.123600  1
  C  C412  1  0.200600  0.737200  0.876400  1
  C  C413  1  0.758900  0.288300  0.127000  1
  C  C414  1  0.241100  0.711700  0.873000  1
  C  C415  1  0.783500  0.354200  0.128900  1
  C  C416  1  0.216500  0.645800  0.871100  1
  C  C417  1  0.848100  0.392700  0.128500  1
  C  C418  1  0.151900  0.607300  0.871500  1
  C  C419  1  0.886400  0.364900  0.125600  1
  C  C420  1  0.113600  0.635100  0.874400  1
  C  C421  1  0.741100  0.383300  0.130500  1
  C  C422  1  0.258900  0.616700  0.869500  1
  C  C423  1  0.467300  0.311100  0.124000  1
  C  C424  1  0.532700  0.688900  0.876000  1
  C  C425  1  0.533100  0.354100  0.127800  1
  C  C426  1  0.466900  0.645900  0.872200  1
  C  C427  1  0.574300  0.330400  0.129500  1
  C  C428  1  0.425700  0.669600  0.870500  1
  C  C429  1  0.548000  0.266100  0.130400  1
  C  C430  1  0.452000  0.733900  0.869600  1
  C  C431  1  0.482900  0.227800  0.128200  1
  C  C432  1  0.517100  0.772200  0.871800  1
  C  C433  1  0.643900  0.372700  0.130700  1
  C  C434  1  0.356100  0.627300  0.869300  1
  C  C435  1  0.844300  0.641200  0.126400  1
  C  C436  1  0.155700  0.358800  0.873600  1
  C  C437  1  0.821700  0.578800  0.129400  1
  C  C438  1  0.178300  0.421200  0.870600  1
  C  C439  1  0.756800  0.538200  0.129200  1
  C  C440  1  0.243200  0.461800  0.870800  1
  C  C441  1  0.717100  0.563200  0.125400  1
  C  C442  1  0.282900  0.436800  0.874600  1
  C  C443  1  0.741900  0.625600  0.122600  1
  C  C444  1  0.258100  0.374400  0.877400  1
  C  C445  1  0.729000  0.469000  0.130100  1
  C  C446  1  0.271000  0.531000  0.869900  1
  C  C447  1  0.899800  0.239100  0.980800  1
  C  C448  1  0.100200  0.760900  0.019200  1
  C  C449  1  0.869600  0.211400  0.919800  1
  C  C450  1  0.130400  0.788600  0.080200  1
  C  C451  1  0.808100  0.146800  0.889500  1
  C  C452  1  0.191900  0.853200  0.110500  1
  C  C453  1  0.778500  0.113500  0.923400  1
  C  C454  1  0.221500  0.886500  0.076600  1
  C  C455  1  0.811400  0.144400  0.984600  1
  C  C456  1  0.188600  0.855600  0.015400  1
  C  C457  1  0.774100  0.115200  0.823200  1
  C  C458  1  0.225900  0.884800  0.176800  1
  C  C459  1  0.809600  0.177200  0.612000  1
  C  C460  1  0.190400  0.822800  0.388000  1
  C  C461  1  0.778400  0.136300  0.640100  1
  C  C462  1  0.221600  0.863700  0.359900  1
  C  C463  1  0.807900  0.162400  0.702000  1
  C  C464  1  0.192100  0.837600  0.298000  1
  C  C465  1  0.868100  0.227600  0.732900  1
  C  C466  1  0.131900  0.772400  0.267100  1
  C  C467  1  0.898500  0.265100  0.702000  1
  C  C468  1  0.101500  0.734900  0.298000  1
  C  C469  1  0.774500  0.122600  0.735300  1
  C  C470  1  0.225500  0.877400  0.264700  1
  C  C471  1  0.525700  0.858000  0.702300  1
  C  C472  1  0.474300  0.142000  0.297700  1
  C  C473  1  0.588200  0.921500  0.734000  1
  C  C474  1  0.411800  0.078500  0.266000  1
  C  C475  1  0.620800  0.958500  0.703700  1
  C  C476  1  0.379200  0.041500  0.296300  1
  C  C477  1  0.590400  0.930200  0.641400  1
  C  C478  1  0.409600  0.069800  0.358600  1
  C  C479  1  0.527700  0.867000  0.612100  1
  C  C480  1  0.472300  0.133000  0.387900  1
  C  C481  1  0.687300  0.027600  0.736200  1
  C  C482  1  0.312700  0.972400  0.263800  1
  C  C483  1  0.744000  0.643100  0.981200  1
  C  C484  1  0.256000  0.356900  0.018800  1
  C  C485  1  0.717100  0.585600  0.920800  1
  C  C486  1  0.282900  0.414400  0.079200  1
  C  C487  1  0.754800  0.559400  0.892300  1
  C  C488  1  0.245200  0.440600  0.107700  1
  C  C489  1  0.818600  0.593000  0.927400  1
  C  C490  1  0.181400  0.407000  0.072600  1
  C  C491  1  0.842000  0.650100  0.988700  1
  C  C492  1  0.158000  0.349900  0.011300  1
  C  C493  1  0.726800  0.497900  0.826600  1
  C  C494  1  0.273200  0.502100  0.173400  1
  C  C495  1  0.474500  0.281700  0.617800  1
  C  C496  1  0.525500  0.718300  0.382200  1
  C  C497  1  0.539500  0.313800  0.646200  1
  C  C498  1  0.460500  0.686200  0.353800  1
  C  C499  1  0.569300  0.373800  0.707200  1
  C  C500  1  0.430700  0.626200  0.292800  1
  C  C501  1  0.531400  0.398200  0.737200  1
  C  C502  1  0.468600  0.601800  0.262800  1
  C  C503  1  0.466700  0.363600  0.706300  1
  C  C504  1  0.533300  0.636400  0.293700  1
  C  C505  1  0.639500  0.410200  0.739300  1
  C  C506  1  0.360500  0.589800  0.260700  1
  C  C507  1  0.879300  0.403200  0.706800  1
  C  C508  1  0.120700  0.596800  0.293200  1
  C  C509  1  0.842800  0.428300  0.738300  1
  C  C510  1  0.157200  0.571700  0.261700  1
  C  C511  1  0.777600  0.394900  0.707500  1
  C  C512  1  0.222400  0.605100  0.292500  1
  C  C513  1  0.751200  0.336400  0.646900  1
  C  C514  1  0.248800  0.663600  0.353100  1
  C  C515  1  0.790000  0.313900  0.617800  1
  C  C516  1  0.210000  0.686100  0.382200  1
  C  C517  1  0.736200  0.420000  0.739900  1
  C  C518  1  0.263800  0.580000  0.260100  1
  C  C519  1  0.341600  0.086800  0.983800  1
  C  C520  1  0.658400  0.913200  0.016200  1
  C  C521  1  0.343700  0.062800  0.922100  1
  C  C522  1  0.656300  0.937200  0.077900  1
  C  C523  1  0.341600  0.100200  0.893600  1
  C  C524  1  0.658400  0.899800  0.106400  1
  C  C525  1  0.338500  0.160500  0.927500  1
  C  C526  1  0.661500  0.839500  0.072500  1
  C  C527  1  0.336600  0.181700  0.989100  1
  C  C528  1  0.663400  0.818300  0.010900  1
  C  C529  1  0.344000  0.074900  0.826600  1
  C  C530  1  0.656000  0.925100  0.173400  1
  C  C531  1  0.369900  0.854500  0.614000  1
  C  C532  1  0.630100  0.145500  0.386000  1
  C  C533  1  0.361600  0.910900  0.643800  1
  C  C534  1  0.638400  0.089100  0.356200  1
  C  C535  1  0.362300  0.937300  0.706500  1
  C  C536  1  0.637700  0.062700  0.293500  1
  C  C537  1  0.370300  0.904200  0.736400  1
  C  C538  1  0.629700  0.095800  0.263600  1
  C  C539  1  0.377800  0.846800  0.703700  1
  C  C540  1  0.622200  0.153200  0.296300  1
  C  C541  1  0.353000  0.998400  0.739400  1
  C  C542  1  0.647000  0.001600  0.260600  1
  C  C543  1  0.330000  0.217100  0.708300  1
  C  C544  1  0.670000  0.782900  0.291700  1
  C  C545  1  0.332800  0.182900  0.739300  1
  C  C546  1  0.667200  0.817100  0.260700  1
  C  C547  1  0.334600  0.121200  0.707900  1
  C  C548  1  0.665400  0.878800  0.292100  1
  C  C549  1  0.332600  0.094300  0.644500  1
  C  C550  1  0.667400  0.905700  0.355500  1
  C  C551  1  0.331300  0.131000  0.615400  1
  C  C552  1  0.668700  0.869000  0.384600  1
  C  C553  1  0.339400  0.084100  0.740100  1
  C  C554  1  0.660600  0.915900  0.259900  1
  C  C555  1  0.939200  0.135600  0.040800  1
  C  C556  1  0.060800  0.864400  0.959200  1
  C  C557  1  0.030200  0.256500  0.068100  1
  C  C558  1  0.969800  0.743500  0.931900  1
  C  C559  1  0.000700  0.224700  0.150200  1
  C  C560  1  0.999300  0.775300  0.849800  1
  C  C561  1  0.021000  0.299000  0.201900  1
  C  C562  1  0.979000  0.701000  0.798100  1
  C  C563  1  0.990600  0.387800  0.235200  1
  C  C564  1  0.009400  0.612200  0.764800  1
  C  C565  1  0.919000  0.273000  0.230100  1
  C  C566  1  0.081000  0.727000  0.769900  1
  C  C567  1  0.813700  0.802300  0.235900  1
  C  C568  1  0.186300  0.197700  0.764100  1
  C  C569  1  0.926500  0.843300  0.235900  1
  C  C570  1  0.073500  0.156700  0.764100  1
  C  C571  1  0.873900  0.893700  0.206100  1
  C  C572  1  0.126100  0.106300  0.793900  1
  C  C573  1  0.906200  0.904500  0.157500  1
  C  C574  1  0.093800  0.095500  0.842500  1
  C  C575  1  0.903700  0.837300  0.048100  1
  C  C576  1  0.096300  0.162700  0.951900  1
  C  C577  1  0.805500  0.832600  0.071100  1
  C  C578  1  0.194500  0.167400  0.928900  1
  C  C579  1  0.401800  0.218600  0.237100  1
  C  C580  1  0.598200  0.781400  0.762900  1
  C  C581  1  0.362500  0.292200  0.235100  1
  C  C582  1  0.637500  0.707800  0.764900  1
  C  C583  1  0.283900  0.163900  0.204500  1
  C  C584  1  0.716100  0.836100  0.795500  1
  C  C585  1  0.232000  0.142200  0.154400  1
  C  C586  1  0.768000  0.857800  0.845600  1
  C  C587  1  0.202600  0.108300  0.045200  1
  C  C588  1  0.797400  0.891700  0.954800  1
  C  C589  1  0.229100  0.037400  0.071200  1
  C  C590  1  0.770900  0.962600  0.928800  1
  C  C591  1  0.372000  0.389900  0.617100  1
  C  C592  1  0.628000  0.610100  0.382900  1
  C  C593  1  0.404100  0.322900  0.533300  1
  C  C594  1  0.595900  0.677100  0.466700  1
  C  C595  1  0.288100  0.276800  0.521100  1
  C  C596  1  0.711900  0.723200  0.478900  1
  C  C597  1  0.234200  0.247800  0.548800  1
  C  C598  1  0.765800  0.752200  0.451200  1
  C  C599  1  0.214900  0.126600  0.511100  1
  C  C600  1  0.785100  0.873400  0.488900  1
  C  C601  1  0.201400  0.189500  0.613000  1
  C  C602  1  0.798600  0.810500  0.387000  1
  C  C603  1  0.466600  0.685400  0.516200  1
  C  C604  1  0.533400  0.314600  0.483800  1
  C  C605  1  0.441600  0.655700  0.600800  1
  C  C606  1  0.558400  0.344300  0.399200  1
  C  C607  1  0.354500  0.596800  0.506600  1
  C  C608  1  0.645500  0.403200  0.493400  1
  C  C609  1  0.298600  0.594000  0.532100  1
  C  C610  1  0.701400  0.406000  0.467900  1
  C  C611  1  0.275200  0.668100  0.501900  1
  C  C612  1  0.724800  0.331900  0.498100  1
  C  C613  1  0.258600  0.665000  0.600600  1
  C  C614  1  0.741400  0.335000  0.399400  1
  C  C615  1  0.894500  0.364100  0.525600  1
  C  C616  1  0.105500  0.635900  0.474400  1
  C  C617  1  0.994600  0.450500  0.619100  1
  C  C618  1  0.005400  0.549500  0.380900  1
  C  C619  1  0.978200  0.344800  0.522400  1
  C  C620  1  0.021800  0.655200  0.477600  1
  C  C621  1  0.014600  0.325300  0.551900  1
  C  C622  1  0.985400  0.674700  0.448100  1
  C  C623  1  0.926400  0.195900  0.511300  1
  C  C624  1  0.073600  0.804100  0.488700  1
  C  C625  1  0.003300  0.267100  0.615300  1
  C  C626  1  0.996700  0.732900  0.384700  1
  C  C627  1  0.638700  0.161000  0.694800  1
  C  C628  1  0.361300  0.839000  0.305200  1
  C  C629  1  0.592900  0.195200  0.707900  1
  C  C630  1  0.407100  0.804800  0.292100  1
  C  C631  1  0.519900  0.126400  0.679900  1
  C  C632  1  0.480100  0.873600  0.320100  1
  C  C633  1  0.525900  0.060800  0.629200  1
  C  C634  1  0.474100  0.939200  0.370800  1
  C  C635  1  0.598600  0.093800  0.629200  1
  C  C636  1  0.401400  0.906200  0.370800  1
  C  C637  1  0.808500  0.325600  0.862100  1
  C  C638  1  0.191500  0.674400  0.137900  1
  C  C639  1  0.781400  0.379200  0.890200  1
  C  C640  1  0.218600  0.620800  0.109800  1
  C  C641  1  0.806200  0.416300  0.964000  1
  C  C642  1  0.193800  0.583700  0.036000  1
  C  C643  1  0.853900  0.396200  0.978600  1
  C  C644  1  0.146100  0.603800  0.021400  1
  C  C645  1  0.874500  0.368600  0.913500  1
  C  C646  1  0.125500  0.631400  0.086500  1
  C  C647  1  0.641500  0.190000  0.968000  1
  C  C648  1  0.358500  0.810000  0.032000  1
  C  C649  1  0.608000  0.147100  0.893800  1
  C  C650  1  0.392000  0.852900  0.106200  1
  C  C651  1  0.536200  0.080000  0.881100  1
  C  C652  1  0.463800  0.920000  0.118900  1
  C  C653  1  0.519600  0.108000  0.946200  1
  C  C654  1  0.480400  0.892000  0.053800  1
  C  C655  1  0.588400  0.146600  0.996500  1
  C  C656  1  0.411600  0.853400  0.003500  1
  C  C657  1  0.546800  0.338800  0.972100  1
  C  C658  1  0.453200  0.661200  0.027900  1
  C  C659  1  0.515700  0.298800  0.896700  1
  C  C660  1  0.484300  0.701200  0.103300  1
  C  C661  1  0.552700  0.363100  0.881300  1
  C  C662  1  0.447300  0.636900  0.118700  1
  C  C663  1  0.580200  0.437000  0.945700  1
  C  C664  1  0.419800  0.563000  0.054300  1
  C  C665  1  0.554700  0.414100  0.997400  1
  C  C666  1  0.445300  0.585900  0.002600  1
  C  C667  1  0.446400  0.676400  0.496900  1
  C  C668  1  0.553600  0.323600  0.503100  1
  C  C669  1  0.481900  0.682800  0.595000  1
  C  C670  1  0.518100  0.317200  0.405000  1
  C  C671  1  0.364000  0.597500  0.535900  1
  C  C672  1  0.636000  0.402500  0.464100  1
  C  C673  1  0.308800  0.596500  0.504600  1
  C  C674  1  0.691200  0.403500  0.495400  1
  C  C675  1  0.264300  0.670500  0.525200  1
  C  C676  1  0.735700  0.329500  0.474800  1
  C  C677  1  0.277700  0.638900  0.602600  1
  C  C678  1  0.722300  0.361100  0.397400  1
  C  C679  1  0.892000  0.376000  0.541000  1
  C  C680  1  0.108000  0.624000  0.459000  1
  C  C681  1  0.975000  0.455000  0.619000  1
  C  C682  1  0.025000  0.545000  0.381000  1
  C  C683  1  0.001600  0.370000  0.546400  1
  C  C684  1  0.998400  0.630000  0.453600  1
  C  C685  1  0.981500  0.291500  0.514000  1
  C  C686  1  0.018500  0.708500  0.486000  1
  C  C687  1  0.927000  0.187400  0.527300  1
  C  C688  1  0.073000  0.812600  0.472700  1
  C  C689  1  0.021600  0.295200  0.609200  1
  C  C690  1  0.978400  0.704800  0.390800  1
  C  C691  1  0.522600  0.138400  0.665600  1
  C  C692  1  0.477400  0.861600  0.334400  1
  C  C693  1  0.589300  0.185500  0.719400  1
  C  C694  1  0.410700  0.814500  0.280600  1
  C  C695  1  0.624400  0.143600  0.691500  1
  C  C696  1  0.375600  0.856400  0.308500  1
  C  C697  1  0.567600  0.060300  0.646200  1
  C  C698  1  0.432400  0.939700  0.353800  1
  C  C699  1  0.513500  0.064100  0.614900  1
  C  C700  1  0.486500  0.935900  0.385100  1
  C  C701  1  0.783000  0.420700  0.967900  1
  C  C702  1  0.217000  0.579300  0.032100  1
  C  C703  1  0.766800  0.364500  0.895700  1
  C  C704  1  0.233200  0.635500  0.104300  1
  C  C705  1  0.829500  0.360400  0.887200  1
  C  C706  1  0.170500  0.639600  0.112800  1
  C  C707  1  0.872300  0.396500  0.955900  1
  C  C708  1  0.127700  0.603500  0.044100  1
  C  C709  1  0.854500  0.450500  0.001000  1
  C  C710  1  0.145500  0.549500  0.999000  1
  C  C711  1  0.522300  0.069600  0.855800  1
  C  C712  1  0.477700  0.930400  0.144200  1
  C  C713  1  0.601500  0.121400  0.893900  1
  C  C714  1  0.398500  0.878600  0.106100  1
  C  C715  1  0.602100  0.158700  0.964800  1
  C  C716  1  0.397900  0.841300  0.035200  1
  C  C717  1  0.533900  0.104800  0.969500  1
  C  C718  1  0.466100  0.895200  0.030500  1
  C  C719  1  0.489900  0.039700  0.898700  1
  C  C720  1  0.510100  0.960300  0.101300  1
  C  C721  1  0.549000  0.343700  0.854900  1
  C  C722  1  0.451000  0.656300  0.145100  1
  C  C723  1  0.541700  0.303000  0.893900  1
  C  C724  1  0.458300  0.697000  0.106100  1
  C  C725  1  0.546100  0.354600  0.962400  1
  C  C726  1  0.453900  0.645400  0.037600  1
  C  C727  1  0.568300  0.430000  0.967700  1
  C  C728  1  0.431700  0.570000  0.032300  1
  C  C729  1  0.545400  0.411300  0.898000  1
  C  C730  1  0.454600  0.588700  0.102000  1
  N  N731  1  0.860900  0.299500  0.122300  1
  N  N732  1  0.139100  0.700500  0.877700  1
  N  N733  1  0.443100  0.249600  0.125600  1
  N  N734  1  0.556900  0.750400  0.874400  1
  N  N735  1  0.805100  0.664300  0.123400  1
  N  N736  1  0.194900  0.335700  0.876600  1
  N  N737  1  0.679400  0.344500  0.131300  1
  N  N738  1  0.320600  0.655500  0.868700  1
  N  N739  1  0.666000  0.434800  0.130100  1
  N  N740  1  0.334000  0.565200  0.869900  1
  N  N741  1  0.769200  0.446400  0.129900  1
  N  N742  1  0.230800  0.553600  0.870100  1
  N  N743  1  0.871800  0.206100  0.013400  1
  N  N744  1  0.128200  0.793900  0.986600  1
  N  N745  1  0.869100  0.239900  0.642300  1
  N  N746  1  0.130900  0.760100  0.357700  1
  N  N747  1  0.496100  0.831100  0.641700  1
  N  N748  1  0.503900  0.168900  0.358300  1
  N  N749  1  0.806200  0.152400  0.795000  1
  N  N750  1  0.193800  0.847600  0.205000  1
  N  N751  1  0.715000  0.060400  0.703600  1
  N  N752  1  0.285000  0.939600  0.296400  1
  N  N753  1  0.714700  0.052200  0.796700  1
  N  N754  1  0.285300  0.947800  0.203300  1
  N  N755  1  0.805500  0.674600  0.015500  1
  N  N756  1  0.194500  0.325400  0.984500  1
  N  N757  1  0.438600  0.306700  0.647300  1
  N  N758  1  0.561400  0.693300  0.352700  1
  N  N759  1  0.853500  0.346800  0.646900  1
  N  N760  1  0.146500  0.653200  0.353100  1
  N  N761  1  0.663400  0.466400  0.798600  1
  N  N762  1  0.336600  0.533600  0.201400  1
  N  N763  1  0.673700  0.385200  0.708200  1
  N  N764  1  0.326300  0.614800  0.291800  1
  N  N765  1  0.765600  0.477600  0.799900  1
  N  N766  1  0.234400  0.522400  0.200100  1
  N  N767  1  0.338300  0.144600  0.016400  1
  N  N768  1  0.661700  0.855400  0.983600  1
  N  N769  1  0.378000  0.822300  0.643200  1
  N  N770  1  0.622000  0.177700  0.356800  1
  N  N771  1  0.328800  0.191800  0.647200  1
  N  N772  1  0.671200  0.808200  0.352800  1
  N  N773  1  0.351900  0.019500  0.799300  1
  N  N774  1  0.648100  0.980500  0.200700  1
  N  N775  1  0.347100  0.028600  0.708100  1
  N  N776  1  0.652900  0.971400  0.291900  1
  N  N777  1  0.337000  0.109400  0.800000  1
  N  N778  1  0.663000  0.890600  0.200000  1
  N  N779  1  0.975500  0.215400  0.089500  1
  N  N780  1  0.024500  0.784600  0.910500  1
  N  N781  1  0.965000  0.308800  0.200300  1
  N  N782  1  0.035000  0.691200  0.799700  1
  N  N783  1  0.863700  0.825800  0.202800  1
  N  N784  1  0.136300  0.174200  0.797200  1
  N  N785  1  0.865000  0.836000  0.093900  1
  N  N786  1  0.135000  0.164000  0.906100  1
  N  N787  1  0.350500  0.218300  0.203700  1
  N  N788  1  0.649500  0.781700  0.796300  1
  N  N789  1  0.245000  0.112100  0.092900  1
  N  N790  1  0.755000  0.887900  0.907100  1
  N  N791  1  0.352700  0.315200  0.567000  1
  N  N792  1  0.647300  0.684800  0.433000  1
  N  N793  1  0.240900  0.200600  0.568300  1
  N  N794  1  0.759100  0.799400  0.431700  1
  N  N795  1  0.422900  0.669100  0.552700  1
  N  N796  1  0.577100  0.330900  0.447300  1
  N  N797  1  0.302900  0.660300  0.554300  1
  N  N798  1  0.697100  0.339700  0.445700  1
  N  N799  1  0.946600  0.374600  0.569100  1
  N  N800  1  0.053400  0.625400  0.430900  1
  N  N801  1  0.965700  0.268900  0.566600  1
  N  N802  1  0.034300  0.731100  0.433400  1
  N  N803  1  0.219800  0.857400  0.561800  1
  N  N804  1  0.780200  0.142600  0.438200  1
  N  N805  1  0.417700  0.834500  0.478800  1
  N  N806  1  0.582300  0.165500  0.521200  1
  N  N807  1  0.831100  0.519300  0.652000  1
  N  N808  1  0.168900  0.480700  0.348000  1
  N  N809  1  0.337800  0.417500  0.749200  1
  N  N810  1  0.662200  0.582500  0.250800  1
  N  N811  1  0.734100  0.698200  0.876700  1
  N  N812  1  0.265900  0.301800  0.123300  1
  N  N813  1  0.378300  0.017600  0.061700  1
  N  N814  1  0.621700  0.982400  0.938300  1
  N  N815  1  0.634200  0.668000  0.059400  1
  N  N816  1  0.365800  0.332000  0.940600  1
  N  N817  1  0.033800  0.421900  0.064100  1
  N  N818  1  0.966200  0.578100  0.935900  1
  N  N819  1  0.821500  0.027100  0.173700  1
  N  N820  1  0.178500  0.972900  0.826300  1
  N  N821  1  0.418200  0.055600  0.099800  1
  N  N822  1  0.581800  0.944400  0.900200  1
  N  N823  1  0.633200  0.660500  0.095000  1
  N  N824  1  0.366800  0.339500  0.905000  1
  N  N825  1  0.028500  0.447000  0.090600  1
  N  N826  1  0.971500  0.553000  0.909400  1
  N  N827  1  0.812900  0.078500  0.120800  1
  N  N828  1  0.187100  0.921500  0.879200  1
  N  N829  1  0.300400  0.126700  0.350900  1
  N  N830  1  0.699600  0.873300  0.649100  1
  N  N831  1  0.020900  0.811500  0.144700  1
  N  N832  1  0.979100  0.188500  0.855300  1
  N  N833  1  0.075600  0.445800  0.738900  1
  N  N834  1  0.924400  0.554200  0.261100  1
  O  O835  1  0.225600  0.808300  0.525300  1
  O  O836  1  0.774400  0.191700  0.474700  1
  O  O837  1  0.239200  0.912600  0.556500  1
  O  O838  1  0.760800  0.087400  0.443500  1
  O  O839  1  0.194700  0.853600  0.605600  1
  O  O840  1  0.805300  0.146400  0.394400  1
  O  O841  1  0.462700  0.897100  0.496800  1
  O  O842  1  0.537300  0.102900  0.503200  1
  O  O843  1  0.422400  0.785200  0.474100  1
  O  O844  1  0.577600  0.214800  0.525900  1
  O  O845  1  0.359200  0.822200  0.467000  1
  O  O846  1  0.640800  0.177800  0.533000  1
  O  O847  1  0.580200  0.268300  0.268700  1
  O  O848  1  0.419800  0.731700  0.731300  1
  O  O849  1  0.646600  0.379000  0.289200  1
  O  O850  1  0.353400  0.621000  0.710800  1
  O  O851  1  0.663400  0.284600  0.247700  1
  O  O852  1  0.336600  0.715400  0.752300  1
  O  O853  1  0.159900  0.471900  0.575200  1
  O  O854  1  0.840100  0.528100  0.424800  1
  O  O855  1  0.555300  0.476400  0.643000  1
  O  O856  1  0.444700  0.523600  0.357000  1
  O  O857  1  0.769800  0.485200  0.647100  1
  O  O858  1  0.230200  0.514800  0.352900  1
  O  O859  1  0.860900  0.492100  0.630200  1
  O  O860  1  0.139100  0.507900  0.369800  1
  O  O861  1  0.850400  0.579300  0.650000  1
  O  O862  1  0.149600  0.420700  0.350000  1
  O  O863  1  0.641000  0.502000  0.651000  1
  O  O864  1  0.359000  0.498000  0.349000  1
  O  O865  1  0.145500  0.965500  0.313700  1
  O  O866  1  0.854500  0.034500  0.686300  1
  O  O867  1  0.446400  0.452500  0.106600  1
  O  O868  1  0.553600  0.547500  0.893400  1
  O  O869  1  0.201900  0.760500  0.644400  1
  O  O870  1  0.798100  0.239500  0.355600  1
  O  O871  1  0.363000  0.145300  0.487700  1
  O  O872  1  0.637000  0.854700  0.512300  1
  O  O873  1  0.296500  0.425100  0.725600  1
  O  O874  1  0.703500  0.574900  0.274400  1
  O  O875  1  0.397500  0.469900  0.767000  1
  O  O876  1  0.602500  0.530100  0.233000  1
  O  O877  1  0.321500  0.358900  0.744100  1
  O  O878  1  0.678500  0.641100  0.255900  1
  O  O879  1  0.186000  0.367000  0.676700  1
  O  O880  1  0.814000  0.633000  0.323300  1
  O  O881  1  0.575400  0.565400  0.788100  1
  O  O882  1  0.424600  0.434600  0.211900  1
  O  O883  1  0.795300  0.680900  0.838300  1
  O  O884  1  0.204700  0.319100  0.161700  1
  O  O885  1  0.694000  0.712500  0.902100  1
  O  O886  1  0.306000  0.287500  0.097900  1
  O  O887  1  0.797300  0.725400  0.898900  1
  O  O888  1  0.202700  0.274600  0.101100  1
  O  O889  1  0.722200  0.644400  0.815600  1
  O  O890  1  0.277800  0.355600  0.184400  1
  O  O891  1  0.958000  0.712000  0.643400  1
  O  O892  1  0.042000  0.288000  0.356600  1
  O  O893  1  0.381100  0.064200  0.118100  1
  O  O894  1  0.618900  0.935800  0.881900  1
  O  O895  1  0.441000  0.046500  0.055000  1
  O  O896  1  0.559000  0.953500  0.945000  1
  O  O897  1  0.330600  0.962800  0.014400  1
  O  O898  1  0.669400  0.037200  0.985600  1
  O  O899  1  0.551300  0.134100  0.152100  1
  O  O900  1  0.448700  0.865900  0.847900  1
  O  O901  1  0.345900  0.901600  0.888900  1
  O  O902  1  0.654100  0.098400  0.111100  1
  O  O903  1  0.576200  0.567200  0.140300  1
  O  O904  1  0.423800  0.432800  0.859700  1
  O  O905  1  0.587500  0.600000  0.044500  1
  O  O906  1  0.412500  0.400000  0.955500  1
  O  O907  1  0.674800  0.713900  0.110300  1
  O  O908  1  0.325200  0.286100  0.889700  1
  O  O909  1  0.629500  0.677300  0.013300  1
  O  O910  1  0.370500  0.322700  0.986700  1
  O  O911  1  0.002100  0.444700  0.050900  1
  O  O912  1  0.997900  0.555300  0.949100  1
  O  O913  1  0.040200  0.428900  0.117500  1
  O  O914  1  0.959800  0.571100  0.882500  1
  O  O915  1  0.050200  0.388200  0.020900  1
  O  O916  1  0.949800  0.611800  0.979100  1
  O  O917  1  0.793800  0.059500  0.208800  1
  O  O918  1  0.206200  0.940500  0.791200  1
  O  O919  1  0.833700  0.999500  0.199600  1
  O  O920  1  0.166300  0.000500  0.800400  1
  O  O921  1  0.828100  0.018100  0.116500  1
  O  O922  1  0.171900  0.981900  0.883500  1
  O  O923  1  0.784800  0.109500  0.102600  1
  O  O924  1  0.215200  0.890500  0.897400  1
  O  O925  1  0.374700  0.206100  0.378600  1
  O  O926  1  0.625300  0.793900  0.621400  1
  O  O927  1  0.292200  0.204700  0.359400  1
  O  O928  1  0.707800  0.795300  0.640600  1
  O  O929  1  0.298600  0.130700  0.385400  1
  O  O930  1  0.701400  0.869300  0.614600  1
  O  O931  1  0.203000  0.019000  0.270000  1
  O  O932  1  0.797000  0.981000  0.730000  1
  O  O933  1  0.080000  0.907600  0.112600  1
  O  O934  1  0.920000  0.092400  0.887400  1
  O  O935  1  0.057000  0.006000  0.092000  1
  O  O936  1  0.943000  0.994000  0.908000  1
  O  O937  1  0.017000  0.008000  0.037000  1
  O  O938  1  0.983000  0.992000  0.963000  1
  O  O939  1  0.980100  0.757900  0.102500  1
  O  O940  1  0.019900  0.242100  0.897500  1
  O  O941  1  0.072200  0.881600  0.185300  1
  O  O942  1  0.927800  0.118400  0.814700  1
  O  O943  1  0.001000  0.756000  0.224800  1
  O  O944  1  0.999000  0.244000  0.775200  1
  O  O945  1  0.865100  0.716000  0.293700  1
  O  O946  1  0.134900  0.284000  0.706300  1
  O  O947  1  0.030800  0.425900  0.750200  1
  O  O948  1  0.969200  0.574100  0.249800  1
  O  O949  1  0.138400  0.501500  0.708600  1
  O  O950  1  0.861600  0.498500  0.291400  1
  O  O951  1  0.210200  0.573000  0.706300  1
  O  O952  1  0.789800  0.427000  0.293700  1
  O  O953  1  0.147600  0.943200  0.667100  1
  O  O954  1  0.852400  0.056800  0.332900  1
  O  O955  1  0.968200  0.587400  0.598400  1
  O  O956  1  0.031800  0.412600  0.401600  1
  O  O957  1  0.895900  0.834600  0.880400  1
  O  O958  1  0.104100  0.165400  0.119600  1
  O  O959  1  0.148200  0.031700  0.623100  1
  O  O960  1  0.851800  0.968300  0.376900  1
  O  O961  1  0.973000  0.868400  0.391100  1
  O  O962  1  0.027000  0.131600  0.608900  1
  O  O963  1  0.974100  0.987800  0.397400  1
  O  O964  1  0.025900  0.012200  0.602600  1
  O  O965  1  0.255900  0.506800  0.725500  1
  O  O966  1  0.744100  0.493200  0.274500  1
  O  O967  1  0.489900  0.449000  0.388400  1
  O  O968  1  0.510100  0.551000  0.611600  1
  O  O969  1  0.086700  0.069000  0.232500  1
  O  O970  1  0.913300  0.931000  0.767500  1
  O  O971  1  0.598700  0.947300  0.515400  1
  O  O972  1  0.401300  0.052700  0.484600  1
  O  O973  1  0.188200  0.981700  0.518700  1
  O  O974  1  0.811800  0.018300  0.481300  1
  O  O975  1  0.352300  0.944500  0.513800  1
  O  O976  1  0.647700  0.055500  0.486200  1
  O  O977  1  0.155900  0.000000  0.188100  1
  O  O978  1  0.844100  0.000000  0.811900  1
  O  O979  1  0.302000  0.460700  0.556900  1
  O  O980  1  0.698000  0.539300  0.443100  1
  O  O981  1  0.971900  0.549700  0.134600  1
  O  O982  1  0.028100  0.450300  0.865400  1
  O  O983  1  0.997300  0.351900  0.899600  1
  O  O984  1  0.002700  0.648100  0.100400  1
  O  O985  1  0.009400  0.361700  0.933800  1
  O  O986  1  0.990600  0.638300  0.066200  1
  O  O987  1  0.017400  0.832700  0.634500  1
  O  O988  1  0.982600  0.167300  0.365500  1
  O  O989  1  0.092200  0.224900  0.462600  1
  O  O990  1  0.907800  0.775100  0.537400  1
  O  O991  1  0.238100  0.276600  0.350200  1
  O  O992  1  0.761900  0.723400  0.649800  1
  O  O993  1  0.253000  0.347000  0.337000  1
  O  O994  1  0.747000  0.653000  0.663000  1
  O  O995  1  0.071600  0.028600  0.333900  1
  O  O996  1  0.928400  0.971400  0.666100  1
  O  O997  1  0.098500  0.620300  0.613400  1
  O  O998  1  0.901500  0.379700  0.386600  1
  O  O999  1  0.160100  0.634300  0.719300  1
  O  O1000  1  0.839900  0.365700  0.280700  1
  O  O1001  1  0.947500  0.872100  0.497900  1
  O  O1002  1  0.052500  0.127900  0.502100  1
  O  O1003  1  0.401300  0.470300  0.510300  1
  O  O1004  1  0.598700  0.529700  0.489700  1
  O  O1005  1  0.538200  0.411700  0.287800  1
  O  O1006  1  0.461800  0.588300  0.712200  1
  O  O1007  1  0.945000  0.897000  0.818000  1
  O  O1008  1  0.055000  0.103000  0.182000  1
  O  O1009  1  0.371900  0.331200  0.393400  1
  O  O1010  1  0.628100  0.668800  0.606600  1
  O  O1011  1  0.016200  0.057000  0.277700  1
  O  O1012  1  0.983800  0.943000  0.722300  1
  O  O1013  1  0.241100  0.821100  0.774900  1
  O  O1014  1  0.758900  0.178900  0.225100  1
  O  O1015  1  0.163300  0.243000  0.249200  1
  O  O1016  1  0.836700  0.757000  0.750800  1
  O  O1017  1  0.168800  0.181800  0.394600  1
  O  O1018  1  0.831200  0.818200  0.605400  1
  O  O1019  1  0.896800  0.091300  0.601500  1
  O  O1020  1  0.103200  0.908700  0.398500  1
  O  O1021  1  0.181400  0.366200  0.560700  1
  O  O1022  1  0.818600  0.633800  0.439300  1
  O  O1023  1  0.101300  0.508100  0.519600  1
  O  O1024  1  0.898700  0.491900  0.480400  1
  O  O1025  1  0.204000  0.388000  0.401000  1
  O  O1026  1  0.796000  0.612000  0.599000  1
  O  O1027  1  0.715300  0.272100  0.243500  1
  O  O1028  1  0.284700  0.727900  0.756500  1
  O  O1029  1  0.640300  0.442000  0.307000  1
  O  O1030  1  0.359700  0.558000  0.693000  1
  O  O1031  1  0.621200  0.290100  0.269200  1
  O  O1032  1  0.378800  0.709900  0.730800  1
  O  O1033  1  0.686100  0.532100  0.690800  1
  O  O1034  1  0.313900  0.467900  0.309200  1
  O  O1035  1  0.107700  0.921700  0.300700  1
  O  O1036  1  0.892300  0.078300  0.699300  1
  O  O1037  1  0.422200  0.414500  0.073000  1
  O  O1038  1  0.577800  0.585500  0.927000  1
  O  O1039  1  0.156100  0.758000  0.645900  1
  O  O1040  1  0.843900  0.242000  0.354100  1
  O  O1041  1  0.335000  0.101000  0.469000  1
  O  O1042  1  0.665000  0.899000  0.531000  1
  O  O1043  1  0.246000  0.380200  0.710500  1
  O  O1044  1  0.754000  0.619800  0.289500  1
  O  O1045  1  0.140000  0.379000  0.731000  1
  O  O1046  1  0.860000  0.621000  0.269000  1
  O  O1047  1  0.524000  0.535200  0.752000  1
  O  O1048  1  0.476000  0.464800  0.248000  1
  O  O1049  1  0.623000  0.611000  0.840000  1
  O  O1050  1  0.377000  0.389000  0.160000  1
  O  O1051  1  0.831500  0.658900  0.801600  1
  O  O1052  1  0.168500  0.341100  0.198400  1
  O  O1053  1  0.821900  0.730000  0.888100  1
  O  O1054  1  0.178100  0.270000  0.111900  1
  O  O1055  1  0.667800  0.681800  0.886500  1
  O  O1056  1  0.332200  0.318200  0.113500  1
  O  O1057  1  0.024200  0.727200  0.634900  1
  O  O1058  1  0.975800  0.272800  0.365100  1
  O  O1059  1  0.369200  0.043700  0.093600  1
  O  O1060  1  0.630800  0.956300  0.906400  1
  O  O1061  1  0.436300  0.023700  0.050800  1
  O  O1062  1  0.563700  0.976300  0.949200  1
  O  O1063  1  0.469700  0.101400  0.153600  1
  O  O1064  1  0.530300  0.898600  0.846400  1
  O  O1065  1  0.593400  0.147200  0.140000  1
  O  O1066  1  0.406600  0.852800  0.860000  1
  O  O1067  1  0.344900  0.929600  0.935200  1
  O  O1068  1  0.655100  0.070400  0.064800  1
  O  O1069  1  0.559500  0.523800  0.130100  1
  O  O1070  1  0.440500  0.476200  0.869900  1
  O  O1071  1  0.605500  0.603100  0.048500  1
  O  O1072  1  0.394500  0.396900  0.951500  1
  O  O1073  1  0.676600  0.712300  0.090400  1
  O  O1074  1  0.323400  0.287700  0.909600  1
  O  O1075  1  0.627600  0.660700  0.144600  1
  O  O1076  1  0.372400  0.339300  0.855400  1
  O  O1077  1  0.020700  0.462300  0.045900  1
  O  O1078  1  0.979300  0.537700  0.954100  1
  O  O1079  1  0.038300  0.404700  0.091400  1
  O  O1080  1  0.961700  0.595300  0.908600  1
  O  O1081  1  0.034800  0.497800  0.144600  1
  O  O1082  1  0.965200  0.502200  0.855400  1
  O  O1083  1  0.808200  0.088200  0.176000  1
  O  O1084  1  0.191800  0.911800  0.824000  1
  O  O1085  1  0.806900  0.102100  0.093800  1
  O  O1086  1  0.193100  0.897900  0.906200  1
  O  O1087  1  0.826300  0.034700  0.090700  1
  O  O1088  1  0.173700  0.965300  0.909300  1
  O  O1089  1  0.949100  0.055000  0.142000  1
  O  O1090  1  0.050900  0.945000  0.858000  1
  O  O1091  1  0.939900  0.017700  0.089300  1
  O  O1092  1  0.060100  0.982300  0.910700  1
  O  O1093  1  0.273500  0.102300  0.295500  1
  O  O1094  1  0.726500  0.897700  0.704500  1
  O  O1095  1  0.275100  0.081900  0.365800  1
  O  O1096  1  0.724900  0.918100  0.634200  1
  O  O1097  1  0.336700  0.182900  0.375000  1
  O  O1098  1  0.663300  0.817100  0.625000  1
  O  O1099  1  0.982900  0.780700  0.099600  1
  O  O1100  1  0.017100  0.219300  0.900400  1
  O  O1101  1  0.030400  0.792300  0.182200  1
  O  O1102  1  0.969600  0.207700  0.817800  1
  O  O1103  1  0.040000  0.864400  0.141200  1
  O  O1104  1  0.960000  0.135600  0.858800  1
  O  O1105  1  0.084100  0.970000  0.117900  1
  O  O1106  1  0.915900  0.030000  0.882100  1
  O  O1107  1  0.961000  0.709000  0.244400  1
  O  O1108  1  0.039000  0.291000  0.755600  1
  O  O1109  1  0.894100  0.732400  0.291500  1
  O  O1110  1  0.105900  0.267600  0.708500  1
  O  O1111  1  0.130200  0.462300  0.715000  1
  O  O1112  1  0.869800  0.537700  0.285000  1
  O  O1113  1  0.028100  0.445900  0.742900  1
  O  O1114  1  0.971900  0.554100  0.257100  1
  O  O1115  1  0.077200  0.403000  0.760500  1
  O  O1116  1  0.922800  0.597000  0.239500  1
  O  O1117  1  0.186700  0.979100  0.684900  1
  O  O1118  1  0.813300  0.020900  0.315100  1
  O  O1119  1  0.820400  0.541000  0.709000  1
  O  O1120  1  0.179600  0.459000  0.291000  1
  F  F1121  1  0.638800  0.145200  0.739800  1
  F  F1122  1  0.361200  0.854800  0.260200  1
  F  F1123  1  0.694900  0.213000  0.700400  1
  F  F1124  1  0.305100  0.787000  0.299600  1
  F  F1125  1  0.609400  0.237800  0.764700  1
  F  F1126  1  0.390600  0.762200  0.235300  1
  F  F1127  1  0.602900  0.223700  0.671500  1
  F  F1128  1  0.397100  0.776300  0.328500  1
  F  F1129  1  0.499900  0.120800  0.730700  1
  F  F1130  1  0.500100  0.879200  0.269300  1
  F  F1131  1  0.484100  0.142500  0.657400  1
  F  F1132  1  0.515900  0.857500  0.342600  1
  F  F1133  1  0.508000  0.015800  0.653700  1
  F  F1134  1  0.492000  0.984200  0.346300  1
  F  F1135  1  0.762300  0.262800  0.858300  1
  F  F1136  1  0.237700  0.737200  0.141700  1
  F  F1137  1  0.812700  0.318800  0.808600  1
  F  F1138  1  0.187300  0.681200  0.191400  1
  F  F1139  1  0.719300  0.339500  0.868400  1
  F  F1140  1  0.280700  0.660500  0.131600  1
  F  F1141  1  0.813900  0.431400  0.876100  1
  F  F1142  1  0.186100  0.568600  0.123900  1
  F  F1143  1  0.754700  0.385000  0.983100  1
  F  F1144  1  0.245300  0.615000  0.016900  1
  F  F1145  1  0.829600  0.486900  0.987200  1
  F  F1146  1  0.170400  0.513100  0.012800  1
  F  F1147  1  0.816700  0.333600  0.983100  1
  F  F1148  1  0.183300  0.666400  0.016900  1
  F  F1149  1  0.649400  0.255100  0.990800  1
  F  F1150  1  0.350600  0.744900  0.009200  1
  F  F1151  1  0.695600  0.194400  0.976600  1
  F  F1152  1  0.304400  0.805600  0.023400  1
  F  F1153  1  0.601800  0.190000  0.879400  1
  F  F1154  1  0.398200  0.810000  0.120600  1
  F  F1155  1  0.643800  0.125600  0.861800  1
  F  F1156  1  0.356200  0.874400  0.138200  1
  F  F1157  1  0.492600  0.077800  0.845800  1
  F  F1158  1  0.507400  0.922200  0.154200  1
  F  F1159  1  0.535400  0.019500  0.850200  1
  F  F1160  1  0.464600  0.980500  0.149800  1
  F  F1161  1  0.515000  0.166300  0.955100  1
  F  F1162  1  0.485000  0.833700  0.044900  1
  F  F1163  1  0.602100  0.341100  0.978900  1
  F  F1164  1  0.397900  0.658900  0.021100  1
  F  F1165  1  0.502300  0.295000  0.988000  1
  F  F1166  1  0.497700  0.705000  0.012000  1
  F  F1167  1  0.527500  0.249000  0.868800  1
  F  F1168  1  0.472500  0.751000  0.131200  1
  F  F1169  1  0.453600  0.279400  0.888500  1
  F  F1170  1  0.546400  0.720600  0.111500  1
  F  F1171  1  0.600900  0.357000  0.859000  1
  F  F1172  1  0.399100  0.643000  0.141000  1
  F  F1173  1  0.508200  0.348200  0.836600  1
  F  F1174  1  0.491800  0.651800  0.163400  1
  F  F1175  1  0.648000  0.468900  0.962500  1
  F  F1176  1  0.352000  0.531100  0.037500  1
  F  F1177  1  0.474900  0.126500  0.692400  1
  F  F1178  1  0.525100  0.873500  0.307600  1
  F  F1179  1  0.527200  0.173300  0.635800  1
  F  F1180  1  0.472800  0.826700  0.364200  1
  F  F1181  1  0.579300  0.187000  0.771900  1
  F  F1182  1  0.420700  0.813000  0.228100  1
  F  F1183  1  0.625000  0.253300  0.729100  1
  F  F1184  1  0.375000  0.746700  0.270900  1
  F  F1185  1  0.651600  0.141000  0.734000  1
  F  F1186  1  0.348400  0.859000  0.266000  1
  F  F1187  1  0.659600  0.167800  0.658300  1
  F  F1188  1  0.340400  0.832200  0.341700  1
  F  F1189  1  0.539900  0.029400  0.681000  1
  F  F1190  1  0.460100  0.970600  0.319000  1
  F  F1191  1  0.738100  0.384900  0.991500  1
  F  F1192  1  0.261900  0.615100  0.008500  1
  F  F1193  1  0.776600  0.473300  0.971800  1
  F  F1194  1  0.223400  0.526700  0.028200  1
  F  F1195  1  0.715600  0.300600  0.881800  1
  F  F1196  1  0.284400  0.699400  0.118200  1
  F  F1197  1  0.752100  0.385400  0.859400  1
  F  F1198  1  0.247900  0.614600  0.140600  1
  F  F1199  1  0.810700  0.290800  0.857200  1
  F  F1200  1  0.189300  0.709200  0.142800  1
  F  F1201  1  0.858500  0.390000  0.854000  1
  F  F1202  1  0.141500  0.610000  0.146000  1
  F  F1203  1  0.848400  0.341300  0.971800  1
  F  F1204  1  0.151600  0.658700  0.028200  1
  F  F1205  1  0.506100  0.112500  0.851800  1
  F  F1206  1  0.493900  0.887500  0.148200  1
  F  F1207  1  0.521800  0.025400  0.800900  1
  F  F1208  1  0.478200  0.974600  0.199100  1
  F  F1209  1  0.628500  0.167300  0.875100  1
  F  F1210  1  0.371500  0.832700  0.124900  1
  F  F1211  1  0.619400  0.074900  0.884800  1
  F  F1212  1  0.380600  0.925100  0.115200  1
  F  F1213  1  0.615900  0.225200  0.982100  1
  F  F1214  1  0.384100  0.774800  0.017900  1
  F  F1215  1  0.642000  0.156300  0.997900  1
  F  F1216  1  0.358000  0.843700  0.002100  1
  F  F1217  1  0.504900  0.146100  0.988200  1
  F  F1218  1  0.495100  0.853900  0.011800  1
  F  F1219  1  0.611900  0.368900  0.850300  1
  F  F1220  1  0.388100  0.631100  0.149700  1
  F  F1221  1  0.508500  0.298000  0.800800  1
  F  F1222  1  0.491500  0.702000  0.199200  1
  F  F1223  1  0.588600  0.291700  0.892900  1
  F  F1224  1  0.411400  0.708300  0.107100  1
  F  F1225  1  0.483200  0.237700  0.864900  1
  F  F1226  1  0.516800  0.762300  0.135100  1
  F  F1227  1  0.596200  0.367400  0.001900  1
  F  F1228  1  0.403800  0.632600  0.998100  1
  F  F1229  1  0.491100  0.320300  0.975800  1
  F  F1230  1  0.508900  0.679700  0.024200  1
  F  F1231  1  0.637200  0.470400  0.983900  1
  F  F1232  1  0.362800  0.529600  0.016100  1
