# generated using pymatgen
data_H212Pd6C156N56(O29F4)5
_symmetry_space_group_name_H-M   'P 1'
_cell_length_a   25.93000000
_cell_length_b   25.93000000
_cell_length_c   31.60500000
_cell_angle_alpha   90.00000000
_cell_angle_beta   90.00000000
_cell_angle_gamma   90.00000000
_symmetry_Int_Tables_number   1
_chemical_formula_structural   H212Pd6C156N56(O29F4)5
_chemical_formula_sum   'H848 Pd24 C624 N224 O580 F80'
_cell_volume   21250.09266450
_cell_formula_units_Z   4
loop_
 _symmetry_equiv_pos_site_id
 _symmetry_equiv_pos_as_xyz
  1  'x, y, z'
loop_
 _atom_site_type_symbol
 _atom_site_label
 _atom_site_symmetry_multiplicity
 _atom_site_fract_x
 _atom_site_fract_y
 _atom_site_fract_z
 _atom_site_occupancy
  H  H1  1  0.823900  0.780200  0.365300  1
  H  H2  1  0.676100  0.219800  0.865300  1
  H  H3  1  0.969800  0.073900  0.615300  1
  H  H4  1  0.530200  0.926100  0.115300  1
  H  H5  1  0.323900  0.280200  0.865300  1
  H  H6  1  0.176100  0.719800  0.365300  1
  H  H7  1  0.469800  0.573900  0.115300  1
  H  H8  1  0.030200  0.426100  0.615300  1
  H  H9  1  0.176100  0.219800  0.634700  1
  H  H10  1  0.323900  0.780200  0.134700  1
  H  H11  1  0.030200  0.926100  0.384700  1
  H  H12  1  0.469800  0.073900  0.884700  1
  H  H13  1  0.676100  0.719800  0.134700  1
  H  H14  1  0.823900  0.280200  0.634700  1
  H  H15  1  0.530200  0.426100  0.884700  1
  H  H16  1  0.969800  0.573900  0.384700  1
  H  H17  1  0.774900  0.133500  0.289500  1
  H  H18  1  0.725100  0.866500  0.789500  1
  H  H19  1  0.616500  0.024900  0.539500  1
  H  H20  1  0.883500  0.975100  0.039500  1
  H  H21  1  0.274900  0.633500  0.789500  1
  H  H22  1  0.225100  0.366500  0.289500  1
  H  H23  1  0.116500  0.524900  0.039500  1
  H  H24  1  0.383500  0.475100  0.539500  1
  H  H25  1  0.225100  0.866500  0.710500  1
  H  H26  1  0.274900  0.133500  0.210500  1
  H  H27  1  0.383500  0.975100  0.460500  1
  H  H28  1  0.116500  0.024900  0.960500  1
  H  H29  1  0.725100  0.366500  0.210500  1
  H  H30  1  0.774900  0.633500  0.710500  1
  H  H31  1  0.883500  0.475100  0.960500  1
  H  H32  1  0.616500  0.524900  0.460500  1
  H  H33  1  0.733000  0.092200  0.304800  1
  H  H34  1  0.767000  0.907800  0.804800  1
  H  H35  1  0.657800  0.983000  0.554800  1
  H  H36  1  0.842200  0.017000  0.054800  1
  H  H37  1  0.233000  0.592200  0.804800  1
  H  H38  1  0.267000  0.407800  0.304800  1
  H  H39  1  0.157800  0.483000  0.054800  1
  H  H40  1  0.342200  0.517000  0.554800  1
  H  H41  1  0.267000  0.907800  0.695200  1
  H  H42  1  0.233000  0.092200  0.195200  1
  H  H43  1  0.342200  0.017000  0.445200  1
  H  H44  1  0.157800  0.983000  0.945200  1
  H  H45  1  0.767000  0.407800  0.195200  1
  H  H46  1  0.733000  0.592200  0.695200  1
  H  H47  1  0.842200  0.517000  0.945200  1
  H  H48  1  0.657800  0.483000  0.445200  1
  H  H49  1  0.789200  0.073500  0.290700  1
  H  H50  1  0.710800  0.926500  0.790700  1
  H  H51  1  0.676500  0.039200  0.540700  1
  H  H52  1  0.823500  0.960800  0.040700  1
  H  H53  1  0.289200  0.573500  0.790700  1
  H  H54  1  0.210800  0.426500  0.290700  1
  H  H55  1  0.176500  0.539200  0.040700  1
  H  H56  1  0.323500  0.460800  0.540700  1
  H  H57  1  0.210800  0.926500  0.709300  1
  H  H58  1  0.289200  0.073500  0.209300  1
  H  H59  1  0.323500  0.960800  0.459300  1
  H  H60  1  0.176500  0.039200  0.959300  1
  H  H61  1  0.710800  0.426500  0.209300  1
  H  H62  1  0.789200  0.573500  0.709300  1
  H  H63  1  0.823500  0.460800  0.959300  1
  H  H64  1  0.676500  0.539200  0.459300  1
  H  H65  1  0.863800  0.122200  0.360200  1
  H  H66  1  0.636200  0.877800  0.860200  1
  H  H67  1  0.627800  0.113800  0.610200  1
  H  H68  1  0.872200  0.886200  0.110200  1
  H  H69  1  0.363800  0.622200  0.860200  1
  H  H70  1  0.136200  0.377800  0.360200  1
  H  H71  1  0.127800  0.613800  0.110200  1
  H  H72  1  0.372200  0.386200  0.610200  1
  H  H73  1  0.136200  0.877800  0.639800  1
  H  H74  1  0.363800  0.122200  0.139800  1
  H  H75  1  0.372200  0.886200  0.389800  1
  H  H76  1  0.127800  0.113800  0.889800  1
  H  H77  1  0.636200  0.377800  0.139800  1
  H  H78  1  0.863800  0.622200  0.639800  1
  H  H79  1  0.872200  0.386200  0.889800  1
  H  H80  1  0.627800  0.613800  0.389800  1
  H  H81  1  0.825800  0.141400  0.396900  1
  H  H82  1  0.674200  0.858600  0.896900  1
  H  H83  1  0.608600  0.075800  0.646900  1
  H  H84  1  0.891400  0.924200  0.146900  1
  H  H85  1  0.325800  0.641400  0.896900  1
  H  H86  1  0.174200  0.358600  0.396900  1
  H  H87  1  0.108600  0.575800  0.146900  1
  H  H88  1  0.391400  0.424200  0.646900  1
  H  H89  1  0.174200  0.858600  0.603100  1
  H  H90  1  0.325800  0.141400  0.103100  1
  H  H91  1  0.391400  0.924200  0.353100  1
  H  H92  1  0.108600  0.075800  0.853100  1
  H  H93  1  0.674200  0.358600  0.103100  1
  H  H94  1  0.825800  0.641400  0.603100  1
  H  H95  1  0.891400  0.424200  0.853100  1
  H  H96  1  0.608600  0.575800  0.353100  1
  H  H97  1  0.829900  0.173200  0.353600  1
  H  H98  1  0.670100  0.826800  0.853600  1
  H  H99  1  0.576800  0.079900  0.603600  1
  H  H100  1  0.923200  0.920100  0.103600  1
  H  H101  1  0.329900  0.673200  0.853600  1
  H  H102  1  0.170100  0.326800  0.353600  1
  H  H103  1  0.076800  0.579900  0.103600  1
  H  H104  1  0.423200  0.420100  0.603600  1
  H  H105  1  0.170100  0.826800  0.646400  1
  H  H106  1  0.329900  0.173200  0.146400  1
  H  H107  1  0.423200  0.920100  0.396400  1
  H  H108  1  0.076800  0.079900  0.896400  1
  H  H109  1  0.670100  0.326800  0.146400  1
  H  H110  1  0.829900  0.673200  0.646400  1
  H  H111  1  0.923200  0.420100  0.896400  1
  H  H112  1  0.576800  0.579900  0.396400  1
  H  H113  1  0.758600  0.155300  0.396900  1
  H  H114  1  0.741400  0.844700  0.896900  1
  H  H115  1  0.594700  0.008600  0.646900  1
  H  H116  1  0.905300  0.991400  0.146900  1
  H  H117  1  0.258600  0.655300  0.896900  1
  H  H118  1  0.241400  0.344700  0.396900  1
  H  H119  1  0.094700  0.508600  0.146900  1
  H  H120  1  0.405300  0.491400  0.646900  1
  H  H121  1  0.241400  0.844700  0.603100  1
  H  H122  1  0.258600  0.155300  0.103100  1
  H  H123  1  0.405300  0.991400  0.353100  1
  H  H124  1  0.094700  0.008600  0.853100  1
  H  H125  1  0.741400  0.344700  0.103100  1
  H  H126  1  0.758600  0.655300  0.603100  1
  H  H127  1  0.905300  0.491400  0.853100  1
  H  H128  1  0.594700  0.508600  0.353100  1
  H  H129  1  0.728300  0.163800  0.353300  1
  H  H130  1  0.771700  0.836200  0.853300  1
  H  H131  1  0.586200  0.978300  0.603300  1
  H  H132  1  0.913800  0.021700  0.103300  1
  H  H133  1  0.228300  0.663800  0.853300  1
  H  H134  1  0.271700  0.336200  0.353300  1
  H  H135  1  0.086200  0.478300  0.103300  1
  H  H136  1  0.413800  0.521700  0.603300  1
  H  H137  1  0.271700  0.836200  0.646700  1
  H  H138  1  0.228300  0.163800  0.146700  1
  H  H139  1  0.413800  0.021700  0.396700  1
  H  H140  1  0.086200  0.978300  0.896700  1
  H  H141  1  0.771700  0.336200  0.146700  1
  H  H142  1  0.728300  0.663800  0.646700  1
  H  H143  1  0.913800  0.521700  0.896700  1
  H  H144  1  0.586200  0.478300  0.396700  1
  H  H145  1  0.682300  0.092200  0.362600  1
  H  H146  1  0.817700  0.907800  0.862600  1
  H  H147  1  0.657800  0.932300  0.612600  1
  H  H148  1  0.842200  0.067700  0.112600  1
  H  H149  1  0.182300  0.592200  0.862600  1
  H  H150  1  0.317700  0.407800  0.362600  1
  H  H151  1  0.157800  0.432300  0.112600  1
  H  H152  1  0.342200  0.567700  0.612600  1
  H  H153  1  0.317700  0.907800  0.637400  1
  H  H154  1  0.182300  0.092200  0.137400  1
  H  H155  1  0.342200  0.067700  0.387400  1
  H  H156  1  0.157800  0.932300  0.887400  1
  H  H157  1  0.817700  0.407800  0.137400  1
  H  H158  1  0.682300  0.592200  0.637400  1
  H  H159  1  0.842200  0.567700  0.887400  1
  H  H160  1  0.657800  0.432300  0.387400  1
  H  H161  1  0.679700  0.124300  0.406000  1
  H  H162  1  0.820300  0.875700  0.906000  1
  H  H163  1  0.625700  0.929700  0.656000  1
  H  H164  1  0.874300  0.070300  0.156000  1
  H  H165  1  0.179700  0.624300  0.906000  1
  H  H166  1  0.320300  0.375700  0.406000  1
  H  H167  1  0.125700  0.429700  0.156000  1
  H  H168  1  0.374300  0.570300  0.656000  1
  H  H169  1  0.320300  0.875700  0.594000  1
  H  H170  1  0.179700  0.124300  0.094000  1
  H  H171  1  0.374300  0.070300  0.344000  1
  H  H172  1  0.125700  0.929700  0.844000  1
  H  H173  1  0.820300  0.375700  0.094000  1
  H  H174  1  0.679700  0.624300  0.594000  1
  H  H175  1  0.874300  0.570300  0.844000  1
  H  H176  1  0.625700  0.429700  0.344000  1
  H  H177  1  0.764800  0.097600  0.456400  1
  H  H178  1  0.735200  0.902400  0.956400  1
  H  H179  1  0.652400  0.014800  0.706400  1
  H  H180  1  0.847600  0.985200  0.206400  1
  H  H181  1  0.264800  0.597600  0.956400  1
  H  H182  1  0.235200  0.402400  0.456400  1
  H  H183  1  0.152400  0.514800  0.206400  1
  H  H184  1  0.347600  0.485200  0.706400  1
  H  H185  1  0.235200  0.902400  0.543600  1
  H  H186  1  0.264800  0.097600  0.043600  1
  H  H187  1  0.347600  0.985200  0.293600  1
  H  H188  1  0.152400  0.014800  0.793600  1
  H  H189  1  0.735200  0.402400  0.043600  1
  H  H190  1  0.764800  0.597600  0.543600  1
  H  H191  1  0.847600  0.485200  0.793600  1
  H  H192  1  0.652400  0.514800  0.293600  1
  H  H193  1  0.747600  0.040200  0.468500  1
  H  H194  1  0.752400  0.959800  0.968500  1
  H  H195  1  0.709800  0.997600  0.718500  1
  H  H196  1  0.790200  0.002400  0.218500  1
  H  H197  1  0.247600  0.540200  0.968500  1
  H  H198  1  0.252400  0.459800  0.468500  1
  H  H199  1  0.209800  0.497600  0.218500  1
  H  H200  1  0.290200  0.502400  0.718500  1
  H  H201  1  0.252400  0.959800  0.531500  1
  H  H202  1  0.247600  0.040200  0.031500  1
  H  H203  1  0.290200  0.002400  0.281500  1
  H  H204  1  0.209800  0.997600  0.781500  1
  H  H205  1  0.752400  0.459800  0.031500  1
  H  H206  1  0.747600  0.540200  0.531500  1
  H  H207  1  0.790200  0.502400  0.781500  1
  H  H208  1  0.709800  0.497600  0.281500  1
  H  H209  1  0.706200  0.085900  0.468900  1
  H  H210  1  0.793800  0.914100  0.968900  1
  H  H211  1  0.664100  0.956200  0.718900  1
  H  H212  1  0.835900  0.043800  0.218900  1
  H  H213  1  0.206200  0.585900  0.968900  1
  H  H214  1  0.293800  0.414100  0.468900  1
  H  H215  1  0.164100  0.456200  0.218900  1
  H  H216  1  0.335900  0.543800  0.718900  1
  H  H217  1  0.293800  0.914100  0.531100  1
  H  H218  1  0.206200  0.085900  0.031100  1
  H  H219  1  0.335900  0.043800  0.281100  1
  H  H220  1  0.164100  0.956200  0.781100  1
  H  H221  1  0.793800  0.414100  0.031100  1
  H  H222  1  0.706200  0.585900  0.531100  1
  H  H223  1  0.835900  0.543800  0.781100  1
  H  H224  1  0.664100  0.456200  0.281100  1
  H  H225  1  0.683100  0.994000  0.391900  1
  H  H226  1  0.816900  0.006000  0.891900  1
  H  H227  1  0.756000  0.933100  0.641900  1
  H  H228  1  0.744000  0.066900  0.141900  1
  H  H229  1  0.183100  0.494000  0.891900  1
  H  H230  1  0.316900  0.506000  0.391900  1
  H  H231  1  0.256000  0.433100  0.141900  1
  H  H232  1  0.244000  0.566900  0.641900  1
  H  H233  1  0.316900  0.006000  0.608100  1
  H  H234  1  0.183100  0.994000  0.108100  1
  H  H235  1  0.244000  0.066900  0.358100  1
  H  H236  1  0.256000  0.933100  0.858100  1
  H  H237  1  0.816900  0.506000  0.108100  1
  H  H238  1  0.683100  0.494000  0.608100  1
  H  H239  1  0.744000  0.566900  0.858100  1
  H  H240  1  0.756000  0.433100  0.358100  1
  H  H241  1  0.647600  0.034300  0.416800  1
  H  H242  1  0.852400  0.965700  0.916800  1
  H  H243  1  0.715700  0.897600  0.666800  1
  H  H244  1  0.784300  0.102400  0.166800  1
  H  H245  1  0.147600  0.534300  0.916800  1
  H  H246  1  0.352400  0.465700  0.416800  1
  H  H247  1  0.215700  0.397600  0.166800  1
  H  H248  1  0.284300  0.602400  0.666800  1
  H  H249  1  0.352400  0.965700  0.583200  1
  H  H250  1  0.147600  0.034300  0.083200  1
  H  H251  1  0.284300  0.102400  0.333200  1
  H  H252  1  0.215700  0.897600  0.833200  1
  H  H253  1  0.852400  0.465700  0.083200  1
  H  H254  1  0.647600  0.534300  0.583200  1
  H  H255  1  0.784300  0.602400  0.833200  1
  H  H256  1  0.715700  0.397600  0.333200  1
  H  H257  1  0.688400  0.999800  0.442100  1
  H  H258  1  0.811600  0.000200  0.942100  1
  H  H259  1  0.750200  0.938400  0.692100  1
  H  H260  1  0.749800  0.061600  0.192100  1
  H  H261  1  0.188400  0.499800  0.942100  1
  H  H262  1  0.311600  0.500200  0.442100  1
  H  H263  1  0.250200  0.438400  0.192100  1
  H  H264  1  0.249800  0.561600  0.692100  1
  H  H265  1  0.311600  0.000200  0.557900  1
  H  H266  1  0.188400  0.999800  0.057900  1
  H  H267  1  0.249800  0.061600  0.307900  1
  H  H268  1  0.250200  0.938400  0.807900  1
  H  H269  1  0.811600  0.500200  0.057900  1
  H  H270  1  0.688400  0.499800  0.557900  1
  H  H271  1  0.749800  0.561600  0.807900  1
  H  H272  1  0.750200  0.438400  0.307900  1
  H  H273  1  0.813400  0.972600  0.301100  1.0
  H  H274  1  0.686600  0.027400  0.801100  1.0
  H  H275  1  0.777400  0.063400  0.551100  1.0
  H  H276  1  0.722600  0.936600  0.051100  1.0
  H  H277  1  0.313400  0.472600  0.801100  1.0
  H  H278  1  0.186600  0.527400  0.301100  1.0
  H  H279  1  0.277400  0.563400  0.051100  1.0
  H  H280  1  0.222600  0.436600  0.551100  1.0
  H  H281  1  0.186600  0.027400  0.698900  1.0
  H  H282  1  0.313400  0.972600  0.198900  1.0
  H  H283  1  0.222600  0.936600  0.448900  1.0
  H  H284  1  0.277400  0.063400  0.948900  1.0
  H  H285  1  0.686600  0.527400  0.198900  1.0
  H  H286  1  0.813400  0.472600  0.698900  1.0
  H  H287  1  0.722600  0.436600  0.948900  1.0
  H  H288  1  0.777400  0.563400  0.448900  1.0
  H  H289  1  0.884600  0.935900  0.267700  1.0
  H  H290  1  0.615400  0.064100  0.767700  1.0
  H  H291  1  0.814100  0.134600  0.517700  1.0
  H  H292  1  0.685900  0.865400  0.017700  1.0
  H  H293  1  0.384600  0.435900  0.767700  1.0
  H  H294  1  0.115400  0.564100  0.267700  1.0
  H  H295  1  0.314100  0.634600  0.017700  1.0
  H  H296  1  0.185900  0.365400  0.517700  1.0
  H  H297  1  0.115400  0.064100  0.732300  1.0
  H  H298  1  0.384600  0.935900  0.232300  1.0
  H  H299  1  0.185900  0.865400  0.482300  1.0
  H  H300  1  0.314100  0.134600  0.982300  1.0
  H  H301  1  0.615400  0.564100  0.232300  1.0
  H  H302  1  0.884600  0.435900  0.732300  1.0
  H  H303  1  0.685900  0.365400  0.982300  1.0
  H  H304  1  0.814100  0.634600  0.482300  1.0
  H  H305  1  0.975200  0.006600  0.354100  1.0
  H  H306  1  0.524800  0.993400  0.854100  1.0
  H  H307  1  0.743400  0.225200  0.604100  1.0
  H  H308  1  0.756600  0.774800  0.104100  1.0
  H  H309  1  0.475200  0.506600  0.854100  1.0
  H  H310  1  0.024800  0.493400  0.354100  1.0
  H  H311  1  0.243400  0.725200  0.104100  1.0
  H  H312  1  0.256600  0.274800  0.604100  1.0
  H  H313  1  0.024800  0.993400  0.645900  1.0
  H  H314  1  0.475200  0.006600  0.145900  1.0
  H  H315  1  0.256600  0.774800  0.395900  1.0
  H  H316  1  0.243400  0.225200  0.895900  1.0
  H  H317  1  0.524800  0.493400  0.145900  1.0
  H  H318  1  0.975200  0.506600  0.645900  1.0
  H  H319  1  0.756600  0.274800  0.895900  1.0
  H  H320  1  0.743400  0.725200  0.395900  1.0
  H  H321  1  0.902300  0.041900  0.384400  1.0
  H  H322  1  0.597700  0.958100  0.884400  1.0
  H  H323  1  0.708100  0.152300  0.634400  1.0
  H  H324  1  0.791900  0.847700  0.134400  1.0
  H  H325  1  0.402300  0.541900  0.884400  1.0
  H  H326  1  0.097700  0.458100  0.384400  1.0
  H  H327  1  0.208100  0.652300  0.134400  1.0
  H  H328  1  0.291900  0.347700  0.634400  1.0
  H  H329  1  0.097700  0.958100  0.615600  1.0
  H  H330  1  0.402300  0.041900  0.115600  1.0
  H  H331  1  0.291900  0.847700  0.365600  1.0
  H  H332  1  0.208100  0.152300  0.865600  1.0
  H  H333  1  0.597700  0.458100  0.115600  1.0
  H  H334  1  0.902300  0.541900  0.615600  1.0
  H  H335  1  0.791900  0.347700  0.865600  1.0
  H  H336  1  0.708100  0.652300  0.365600  1.0
  H  H337  1  0.084300  0.801200  0.129500  1.0
  H  H338  1  0.415700  0.198800  0.629500  1.0
  H  H339  1  0.948800  0.334300  0.379500  1.0
  H  H340  1  0.551200  0.665700  0.879500  1.0
  H  H341  1  0.584300  0.301200  0.629500  1.0
  H  H342  1  0.915700  0.698800  0.129500  1.0
  H  H343  1  0.448800  0.834300  0.879500  1.0
  H  H344  1  0.051200  0.165700  0.379500  1.0
  H  H345  1  0.915700  0.198800  0.870500  1.0
  H  H346  1  0.584300  0.801200  0.370500  1.0
  H  H347  1  0.051200  0.665700  0.620500  1.0
  H  H348  1  0.448800  0.334300  0.120500  1.0
  H  H349  1  0.415700  0.698800  0.370500  1.0
  H  H350  1  0.084300  0.301200  0.870500  1.0
  H  H351  1  0.551200  0.165700  0.120500  1.0
  H  H352  1  0.948800  0.834300  0.620500  1.0
  H  H353  1  0.093300  0.854000  0.187900  1.0
  H  H354  1  0.406700  0.146000  0.687900  1.0
  H  H355  1  0.896000  0.343300  0.437900  1.0
  H  H356  1  0.604000  0.656700  0.937900  1.0
  H  H357  1  0.593300  0.354000  0.687900  1.0
  H  H358  1  0.906700  0.646000  0.187900  1.0
  H  H359  1  0.396000  0.843300  0.937900  1.0
  H  H360  1  0.104000  0.156700  0.437900  1.0
  H  H361  1  0.906700  0.146000  0.812100  1.0
  H  H362  1  0.593300  0.854000  0.312100  1.0
  H  H363  1  0.104000  0.656700  0.562100  1.0
  H  H364  1  0.396000  0.343300  0.062100  1.0
  H  H365  1  0.406700  0.646000  0.312100  1.0
  H  H366  1  0.093300  0.354000  0.812100  1.0
  H  H367  1  0.604000  0.156700  0.062100  1.0
  H  H368  1  0.896000  0.843300  0.562100  1.0
  H  H369  1  0.937800  0.864200  0.194800  1.0
  H  H370  1  0.562200  0.135800  0.694800  1.0
  H  H371  1  0.885800  0.187800  0.444800  1.0
  H  H372  1  0.614200  0.812200  0.944800  1.0
  H  H373  1  0.437800  0.364200  0.694800  1.0
  H  H374  1  0.062200  0.635800  0.194800  1.0
  H  H375  1  0.385800  0.687800  0.944800  1.0
  H  H376  1  0.114200  0.312200  0.444800  1.0
  H  H377  1  0.062200  0.135800  0.805200  1.0
  H  H378  1  0.437800  0.864200  0.305200  1.0
  H  H379  1  0.114200  0.812200  0.555200  1.0
  H  H380  1  0.385800  0.187800  0.055200  1.0
  H  H381  1  0.562200  0.635800  0.305200  1.0
  H  H382  1  0.937800  0.364200  0.805200  1.0
  H  H383  1  0.614200  0.312200  0.055200  1.0
  H  H384  1  0.885800  0.687800  0.555200  1.0
  H  H385  1  0.932300  0.812600  0.135800  1.0
  H  H386  1  0.567700  0.187400  0.635800  1.0
  H  H387  1  0.937400  0.182300  0.385800  1.0
  H  H388  1  0.562600  0.817700  0.885800  1.0
  H  H389  1  0.432300  0.312600  0.635800  1.0
  H  H390  1  0.067700  0.687400  0.135800  1.0
  H  H391  1  0.437400  0.682300  0.885800  1.0
  H  H392  1  0.062600  0.317700  0.385800  1.0
  H  H393  1  0.067700  0.187400  0.864200  1.0
  H  H394  1  0.432300  0.812600  0.364200  1.0
  H  H395  1  0.062600  0.817700  0.614200  1.0
  H  H396  1  0.437400  0.182300  0.114200  1.0
  H  H397  1  0.567700  0.687400  0.364200  1.0
  H  H398  1  0.932300  0.312600  0.864200  1.0
  H  H399  1  0.562600  0.317700  0.114200  1.0
  H  H400  1  0.937400  0.682300  0.614200  1.0
  H  H401  1  0.178800  0.000700  0.383400  1.0
  H  H402  1  0.321200  0.999300  0.883400  1.0
  H  H403  1  0.749300  0.428800  0.633400  1.0
  H  H404  1  0.750700  0.571200  0.133400  1.0
  H  H405  1  0.678800  0.500700  0.883400  1.0
  H  H406  1  0.821200  0.499300  0.383400  1.0
  H  H407  1  0.249300  0.928800  0.133400  1.0
  H  H408  1  0.250700  0.071200  0.633400  1.0
  H  H409  1  0.821200  0.999300  0.616600  1.0
  H  H410  1  0.678800  0.000700  0.116600  1.0
  H  H411  1  0.250700  0.571200  0.366600  1.0
  H  H412  1  0.249300  0.428800  0.866600  1.0
  H  H413  1  0.321200  0.499300  0.116600  1.0
  H  H414  1  0.178800  0.500700  0.616600  1.0
  H  H415  1  0.750700  0.071200  0.866600  1.0
  H  H416  1  0.749300  0.928800  0.366600  1.0
  H  H417  1  0.097200  0.989600  0.353500  1.0
  H  H418  1  0.402800  0.010400  0.853500  1.0
  H  H419  1  0.760400  0.347200  0.603500  1.0
  H  H420  1  0.739600  0.652800  0.103500  1.0
  H  H421  1  0.597200  0.489600  0.853500  1.0
  H  H422  1  0.902800  0.510400  0.353500  1.0
  H  H423  1  0.260400  0.847200  0.103500  1.0
  H  H424  1  0.239600  0.152800  0.603500  1.0
  H  H425  1  0.902800  0.010400  0.646500  1.0
  H  H426  1  0.597200  0.989600  0.146500  1.0
  H  H427  1  0.239600  0.652800  0.396500  1.0
  H  H428  1  0.260400  0.347200  0.896500  1.0
  H  H429  1  0.402800  0.510400  0.146500  1.0
  H  H430  1  0.097200  0.489600  0.646500  1.0
  H  H431  1  0.739600  0.152800  0.896500  1.0
  H  H432  1  0.760400  0.847200  0.396500  1.0
  H  H433  1  0.162700  0.898700  0.264300  1.0
  H  H434  1  0.337300  0.101300  0.764300  1.0
  H  H435  1  0.851300  0.412700  0.514300  1.0
  H  H436  1  0.648700  0.587300  0.014300  1.0
  H  H437  1  0.662700  0.398700  0.764300  1.0
  H  H438  1  0.837300  0.601300  0.264300  1.0
  H  H439  1  0.351300  0.912700  0.014300  1.0
  H  H440  1  0.148700  0.087300  0.514300  1.0
  H  H441  1  0.837300  0.101300  0.735700  1.0
  H  H442  1  0.662700  0.898700  0.235700  1.0
  H  H443  1  0.148700  0.587300  0.485700  1.0
  H  H444  1  0.351300  0.412700  0.985700  1.0
  H  H445  1  0.337300  0.601300  0.235700  1.0
  H  H446  1  0.162700  0.398700  0.735700  1.0
  H  H447  1  0.648700  0.087300  0.985700  1.0
  H  H448  1  0.851300  0.912700  0.485700  1.0
  H  H449  1  0.242100  0.914800  0.294800  1.0
  H  H450  1  0.257900  0.085200  0.794800  1.0
  H  H451  1  0.835200  0.492100  0.544800  1.0
  H  H452  1  0.664800  0.507900  0.044800  1.0
  H  H453  1  0.742100  0.414800  0.794800  1.0
  H  H454  1  0.757900  0.585200  0.294800  1.0
  H  H455  1  0.335200  0.992100  0.044800  1.0
  H  H456  1  0.164800  0.007900  0.544800  1.0
  H  H457  1  0.757900  0.085200  0.705200  1.0
  H  H458  1  0.742100  0.914800  0.205200  1.0
  H  H459  1  0.164800  0.507900  0.455200  1.0
  H  H460  1  0.335200  0.492100  0.955200  1.0
  H  H461  1  0.257900  0.585200  0.205200  1.0
  H  H462  1  0.242100  0.414800  0.705200  1.0
  H  H463  1  0.664800  0.007900  0.955200  1.0
  H  H464  1  0.835200  0.992100  0.455200  1.0
  H  H465  1  0.774400  0.076400  0.286100  1.0
  H  H466  1  0.725600  0.923600  0.786100  1.0
  H  H467  1  0.673600  0.024400  0.536100  1.0
  H  H468  1  0.826400  0.975600  0.036100  1.0
  H  H469  1  0.274400  0.576400  0.786100  1.0
  H  H470  1  0.225600  0.423600  0.286100  1.0
  H  H471  1  0.173600  0.524400  0.036100  1.0
  H  H472  1  0.326400  0.475600  0.536100  1.0
  H  H473  1  0.225600  0.923600  0.713900  1.0
  H  H474  1  0.274400  0.076400  0.213900  1.0
  H  H475  1  0.326400  0.975600  0.463900  1.0
  H  H476  1  0.173600  0.024400  0.963900  1.0
  H  H477  1  0.725600  0.423600  0.213900  1.0
  H  H478  1  0.774400  0.576400  0.713900  1.0
  H  H479  1  0.826400  0.475600  0.963900  1.0
  H  H480  1  0.673600  0.524400  0.463900  1.0
  H  H481  1  0.833600  0.091500  0.293500  1.0
  H  H482  1  0.666400  0.908500  0.793500  1.0
  H  H483  1  0.658500  0.083600  0.543500  1.0
  H  H484  1  0.841500  0.916400  0.043500  1.0
  H  H485  1  0.333600  0.591500  0.793500  1.0
  H  H486  1  0.166400  0.408500  0.293500  1.0
  H  H487  1  0.158500  0.583600  0.043500  1.0
  H  H488  1  0.341500  0.416400  0.543500  1.0
  H  H489  1  0.166400  0.908500  0.706500  1.0
  H  H490  1  0.333600  0.091500  0.206500  1.0
  H  H491  1  0.341500  0.916400  0.456500  1.0
  H  H492  1  0.158500  0.083600  0.956500  1.0
  H  H493  1  0.666400  0.408500  0.206500  1.0
  H  H494  1  0.833600  0.591500  0.706500  1.0
  H  H495  1  0.841500  0.416400  0.956500  1.0
  H  H496  1  0.658500  0.583600  0.456500  1.0
  H  H497  1  0.791700  0.135600  0.284900  1.0
  H  H498  1  0.708300  0.864400  0.784900  1.0
  H  H499  1  0.614400  0.041700  0.534900  1.0
  H  H500  1  0.885600  0.958300  0.034900  1.0
  H  H501  1  0.291700  0.635600  0.784900  1.0
  H  H502  1  0.208300  0.364400  0.284900  1.0
  H  H503  1  0.114400  0.541700  0.034900  1.0
  H  H504  1  0.385600  0.458300  0.534900  1.0
  H  H505  1  0.208300  0.864400  0.715100  1.0
  H  H506  1  0.291700  0.135600  0.215100  1.0
  H  H507  1  0.385600  0.958300  0.465100  1.0
  H  H508  1  0.114400  0.041700  0.965100  1.0
  H  H509  1  0.708300  0.364400  0.215100  1.0
  H  H510  1  0.791700  0.635600  0.715100  1.0
  H  H511  1  0.885600  0.458300  0.965100  1.0
  H  H512  1  0.614400  0.541700  0.465100  1.0
  H  H513  1  0.861500  0.119900  0.340000  1.0
  H  H514  1  0.638500  0.880100  0.840000  1.0
  H  H515  1  0.630100  0.111500  0.590000  1.0
  H  H516  1  0.869900  0.888500  0.090000  1.0
  H  H517  1  0.361500  0.619900  0.840000  1.0
  H  H518  1  0.138500  0.380100  0.340000  1.0
  H  H519  1  0.130100  0.611500  0.090000  1.0
  H  H520  1  0.369900  0.388500  0.590000  1.0
  H  H521  1  0.138500  0.880100  0.660000  1.0
  H  H522  1  0.361500  0.119900  0.160000  1.0
  H  H523  1  0.369900  0.888500  0.410000  1.0
  H  H524  1  0.130100  0.111500  0.910000  1.0
  H  H525  1  0.638500  0.380100  0.160000  1.0
  H  H526  1  0.861500  0.619900  0.660000  1.0
  H  H527  1  0.869900  0.388500  0.910000  1.0
  H  H528  1  0.630100  0.611500  0.410000  1.0
  H  H529  1  0.839500  0.136800  0.385200  1.0
  H  H530  1  0.660500  0.863200  0.885200  1.0
  H  H531  1  0.613200  0.089500  0.635200  1.0
  H  H532  1  0.886800  0.910500  0.135200  1.0
  H  H533  1  0.339500  0.636800  0.885200  1.0
  H  H534  1  0.160500  0.363200  0.385200  1.0
  H  H535  1  0.113200  0.589500  0.135200  1.0
  H  H536  1  0.386800  0.410500  0.635200  1.0
  H  H537  1  0.160500  0.863200  0.614800  1.0
  H  H538  1  0.339500  0.136800  0.114800  1.0
  H  H539  1  0.386800  0.910500  0.364800  1.0
  H  H540  1  0.113200  0.089500  0.864800  1.0
  H  H541  1  0.660500  0.363200  0.114800  1.0
  H  H542  1  0.839500  0.636800  0.614800  1.0
  H  H543  1  0.886800  0.410500  0.864800  1.0
  H  H544  1  0.613200  0.589500  0.364800  1.0
  H  H545  1  0.827200  0.170900  0.344200  1.0
  H  H546  1  0.672800  0.829100  0.844200  1.0
  H  H547  1  0.579100  0.077200  0.594200  1.0
  H  H548  1  0.920900  0.922800  0.094200  1.0
  H  H549  1  0.327200  0.670900  0.844200  1.0
  H  H550  1  0.172800  0.329100  0.344200  1.0
  H  H551  1  0.079100  0.577200  0.094200  1.0
  H  H552  1  0.420900  0.422800  0.594200  1.0
  H  H553  1  0.172800  0.829100  0.655800  1.0
  H  H554  1  0.327200  0.170900  0.155800  1.0
  H  H555  1  0.420900  0.922800  0.405800  1.0
  H  H556  1  0.079100  0.077200  0.905800  1.0
  H  H557  1  0.672800  0.329100  0.155800  1.0
  H  H558  1  0.827200  0.670900  0.655800  1.0
  H  H559  1  0.920900  0.422800  0.905800  1.0
  H  H560  1  0.579100  0.577200  0.405800  1.0
  H  H561  1  0.712300  0.109400  0.333800  1.0
  H  H562  1  0.787700  0.890600  0.833800  1.0
  H  H563  1  0.640600  0.962300  0.583800  1.0
  H  H564  1  0.859400  0.037700  0.083800  1.0
  H  H565  1  0.212300  0.609400  0.833800  1.0
  H  H566  1  0.287700  0.390600  0.333800  1.0
  H  H567  1  0.140600  0.462300  0.083800  1.0
  H  H568  1  0.359400  0.537700  0.583800  1.0
  H  H569  1  0.287700  0.890600  0.666200  1.0
  H  H570  1  0.212300  0.109400  0.166200  1.0
  H  H571  1  0.359400  0.037700  0.416200  1.0
  H  H572  1  0.140600  0.962300  0.916200  1.0
  H  H573  1  0.787700  0.390600  0.166200  1.0
  H  H574  1  0.712300  0.609400  0.666200  1.0
  H  H575  1  0.859400  0.537700  0.916200  1.0
  H  H576  1  0.640600  0.462300  0.416200  1.0
  H  H577  1  0.737200  0.164800  0.344500  1.0
  H  H578  1  0.762800  0.835200  0.844500  1.0
  H  H579  1  0.585200  0.987200  0.594500  1.0
  H  H580  1  0.914800  0.012800  0.094500  1.0
  H  H581  1  0.237200  0.664800  0.844500  1.0
  H  H582  1  0.262800  0.335200  0.344500  1.0
  H  H583  1  0.085200  0.487200  0.094500  1.0
  H  H584  1  0.414800  0.512800  0.594500  1.0
  H  H585  1  0.262800  0.835200  0.655500  1.0
  H  H586  1  0.237200  0.164800  0.155500  1.0
  H  H587  1  0.414800  0.012800  0.405500  1.0
  H  H588  1  0.085200  0.987200  0.905500  1.0
  H  H589  1  0.762800  0.335200  0.155500  1.0
  H  H590  1  0.737200  0.664800  0.655500  1.0
  H  H591  1  0.914800  0.512800  0.905500  1.0
  H  H592  1  0.585200  0.487200  0.405500  1.0
  H  H593  1  0.689400  0.135100  0.403900  1.0
  H  H594  1  0.810600  0.864900  0.903900  1.0
  H  H595  1  0.614900  0.939400  0.653900  1.0
  H  H596  1  0.885100  0.060600  0.153900  1.0
  H  H597  1  0.189400  0.635100  0.903900  1.0
  H  H598  1  0.310600  0.364900  0.403900  1.0
  H  H599  1  0.114900  0.439400  0.153900  1.0
  H  H600  1  0.385100  0.560600  0.653900  1.0
  H  H601  1  0.310600  0.864900  0.596100  1.0
  H  H602  1  0.189400  0.135100  0.096100  1.0
  H  H603  1  0.385100  0.060600  0.346100  1.0
  H  H604  1  0.114900  0.939400  0.846100  1.0
  H  H605  1  0.810600  0.364900  0.096100  1.0
  H  H606  1  0.689400  0.635100  0.596100  1.0
  H  H607  1  0.885100  0.560600  0.846100  1.0
  H  H608  1  0.614900  0.439400  0.346100  1.0
  H  H609  1  0.749300  0.139000  0.416000  1.0
  H  H610  1  0.750700  0.861000  0.916000  1.0
  H  H611  1  0.611000  0.999300  0.666000  1.0
  H  H612  1  0.889000  0.000700  0.166000  1.0
  H  H613  1  0.249300  0.639000  0.916000  1.0
  H  H614  1  0.250700  0.361000  0.416000  1.0
  H  H615  1  0.111000  0.499300  0.166000  1.0
  H  H616  1  0.389000  0.500700  0.666000  1.0
  H  H617  1  0.250700  0.861000  0.584000  1.0
  H  H618  1  0.249300  0.139000  0.084000  1.0
  H  H619  1  0.389000  0.000700  0.334000  1.0
  H  H620  1  0.111000  0.999300  0.834000  1.0
  H  H621  1  0.750700  0.361000  0.084000  1.0
  H  H622  1  0.749300  0.639000  0.584000  1.0
  H  H623  1  0.889000  0.500700  0.834000  1.0
  H  H624  1  0.611000  0.499300  0.334000  1.0
  H  H625  1  0.728600  0.016800  0.461600  1.0
  H  H626  1  0.771400  0.983200  0.961600  1.0
  H  H627  1  0.733200  0.978600  0.711600  1.0
  H  H628  1  0.766800  0.021400  0.211600  1.0
  H  H629  1  0.228600  0.516800  0.961600  1.0
  H  H630  1  0.271400  0.483200  0.461600  1.0
  H  H631  1  0.233200  0.478600  0.211600  1.0
  H  H632  1  0.266800  0.521400  0.711600  1.0
  H  H633  1  0.271400  0.983200  0.538400  1.0
  H  H634  1  0.228600  0.016800  0.038400  1.0
  H  H635  1  0.266800  0.021400  0.288400  1.0
  H  H636  1  0.233200  0.978600  0.788400  1.0
  H  H637  1  0.771400  0.483200  0.038400  1.0
  H  H638  1  0.728600  0.516800  0.538400  1.0
  H  H639  1  0.766800  0.521400  0.788400  1.0
  H  H640  1  0.733200  0.478600  0.288400  1.0
  H  H641  1  0.699100  0.070200  0.469500  1.0
  H  H642  1  0.800900  0.929800  0.969500  1.0
  H  H643  1  0.679800  0.949100  0.719500  1.0
  H  H644  1  0.820200  0.050900  0.219500  1.0
  H  H645  1  0.199100  0.570200  0.969500  1.0
  H  H646  1  0.300900  0.429800  0.469500  1.0
  H  H647  1  0.179800  0.449100  0.219500  1.0
  H  H648  1  0.320200  0.550900  0.719500  1.0
  H  H649  1  0.300900  0.929800  0.530500  1.0
  H  H650  1  0.199100  0.070200  0.030500  1.0
  H  H651  1  0.320200  0.050900  0.280500  1.0
  H  H652  1  0.179800  0.949100  0.780500  1.0
  H  H653  1  0.800900  0.429800  0.030500  1.0
  H  H654  1  0.699100  0.570200  0.530500  1.0
  H  H655  1  0.820200  0.550900  0.780500  1.0
  H  H656  1  0.679800  0.449100  0.280500  1.0
  H  H657  1  0.760700  0.069300  0.465800  1.0
  H  H658  1  0.739300  0.930700  0.965800  1.0
  H  H659  1  0.680700  0.010700  0.715800  1.0
  H  H660  1  0.819300  0.989300  0.215800  1.0
  H  H661  1  0.260700  0.569300  0.965800  1.0
  H  H662  1  0.239300  0.430700  0.465800  1.0
  H  H663  1  0.180700  0.510700  0.215800  1.0
  H  H664  1  0.319300  0.489300  0.715800  1.0
  H  H665  1  0.239300  0.930700  0.534200  1.0
  H  H666  1  0.260700  0.069300  0.034200  1.0
  H  H667  1  0.319300  0.989300  0.284200  1.0
  H  H668  1  0.180700  0.010700  0.784200  1.0
  H  H669  1  0.739300  0.430700  0.034200  1.0
  H  H670  1  0.760700  0.569300  0.534200  1.0
  H  H671  1  0.819300  0.489300  0.784200  1.0
  H  H672  1  0.680700  0.510700  0.284200  1.0
  H  H673  1  0.674600  0.045900  0.363100  1.0
  H  H674  1  0.825400  0.954100  0.863100  1.0
  H  H675  1  0.704100  0.924600  0.613100  1.0
  H  H676  1  0.795900  0.075400  0.113100  1.0
  H  H677  1  0.174600  0.545900  0.863100  1.0
  H  H678  1  0.325400  0.454100  0.363100  1.0
  H  H679  1  0.204100  0.424600  0.113100  1.0
  H  H680  1  0.295900  0.575400  0.613100  1.0
  H  H681  1  0.325400  0.954100  0.636900  1.0
  H  H682  1  0.174600  0.045900  0.136900  1.0
  H  H683  1  0.295900  0.075400  0.386900  1.0
  H  H684  1  0.204100  0.924600  0.886900  1.0
  H  H685  1  0.825400  0.454100  0.136900  1.0
  H  H686  1  0.674600  0.545900  0.636900  1.0
  H  H687  1  0.795900  0.575400  0.886900  1.0
  H  H688  1  0.704100  0.424600  0.386900  1.0
  H  H689  1  0.648900  0.048700  0.409100  1.0
  H  H690  1  0.851100  0.951300  0.909100  1.0
  H  H691  1  0.701300  0.898900  0.659100  1.0
  H  H692  1  0.798700  0.101100  0.159100  1.0
  H  H693  1  0.148900  0.548700  0.909100  1.0
  H  H694  1  0.351100  0.451300  0.409100  1.0
  H  H695  1  0.201300  0.398900  0.159100  1.0
  H  H696  1  0.298700  0.601100  0.659100  1.0
  H  H697  1  0.351100  0.951300  0.590900  1.0
  H  H698  1  0.148900  0.048700  0.090900  1.0
  H  H699  1  0.298700  0.101100  0.340900  1.0
  H  H700  1  0.201300  0.898900  0.840900  1.0
  H  H701  1  0.851100  0.451300  0.090900  1.0
  H  H702  1  0.648900  0.548700  0.590900  1.0
  H  H703  1  0.798700  0.601100  0.840900  1.0
  H  H704  1  0.701300  0.398900  0.340900  1.0
  H  H705  1  0.682600  0.999600  0.396000  1.0
  H  H706  1  0.817400  0.000400  0.896000  1.0
  H  H707  1  0.750400  0.932600  0.646000  1.0
  H  H708  1  0.749600  0.067400  0.146000  1.0
  H  H709  1  0.182600  0.499600  0.896000  1.0
  H  H710  1  0.317400  0.500400  0.396000  1.0
  H  H711  1  0.250400  0.432600  0.146000  1.0
  H  H712  1  0.249600  0.567400  0.646000  1.0
  H  H713  1  0.317400  0.000400  0.604000  1.0
  H  H714  1  0.182600  0.999600  0.104000  1.0
  H  H715  1  0.249600  0.067400  0.354000  1.0
  H  H716  1  0.250400  0.932600  0.854000  1.0
  H  H717  1  0.817400  0.500400  0.104000  1.0
  H  H718  1  0.682600  0.499600  0.604000  1.0
  H  H719  1  0.749600  0.567400  0.854000  1.0
  H  H720  1  0.750400  0.432600  0.354000  1.0
  H  H721  1  0.085300  0.786400  0.023400  1.0
  H  H722  1  0.414700  0.213600  0.523400  1.0
  H  H723  1  0.963600  0.335300  0.273400  1.0
  H  H724  1  0.536400  0.664700  0.773400  1.0
  H  H725  1  0.585300  0.286400  0.523400  1.0
  H  H726  1  0.914700  0.713600  0.023400  1.0
  H  H727  1  0.463600  0.835300  0.773400  1.0
  H  H728  1  0.036400  0.164700  0.273400  1.0
  H  H729  1  0.914700  0.213600  0.976600  1.0
  H  H730  1  0.585300  0.786400  0.476600  1.0
  H  H731  1  0.036400  0.664700  0.726600  1.0
  H  H732  1  0.463600  0.335300  0.226600  1.0
  H  H733  1  0.414700  0.713600  0.476600  1.0
  H  H734  1  0.085300  0.286400  0.976600  1.0
  H  H735  1  0.536400  0.164700  0.226600  1.0
  H  H736  1  0.963600  0.835300  0.726600  1.0
  H  H737  1  0.075800  0.833900  0.054800  1.0
  H  H738  1  0.424200  0.166100  0.554800  1.0
  H  H739  1  0.916100  0.325800  0.304800  1.0
  H  H740  1  0.583900  0.674200  0.804800  1.0
  H  H741  1  0.575800  0.333900  0.554800  1.0
  H  H742  1  0.924200  0.666100  0.054800  1.0
  H  H743  1  0.416100  0.825800  0.804800  1.0
  H  H744  1  0.083900  0.174200  0.304800  1.0
  H  H745  1  0.924200  0.166100  0.945200  1.0
  H  H746  1  0.575800  0.833900  0.445200  1.0
  H  H747  1  0.083900  0.674200  0.695200  1.0
  H  H748  1  0.416100  0.325800  0.195200  1.0
  H  H749  1  0.424200  0.666100  0.445200  1.0
  H  H750  1  0.075800  0.333900  0.945200  1.0
  H  H751  1  0.583900  0.174200  0.195200  1.0
  H  H752  1  0.916100  0.825800  0.695200  1.0
  H  H753  1  0.069100  0.841400  0.004800  1.0
  H  H754  1  0.430900  0.158600  0.504800  1.0
  H  H755  1  0.908600  0.319100  0.254800  1.0
  H  H756  1  0.591400  0.680900  0.754800  1.0
  H  H757  1  0.569100  0.341400  0.504800  1.0
  H  H758  1  0.930900  0.658600  0.004800  1.0
  H  H759  1  0.408600  0.819100  0.754800  1.0
  H  H760  1  0.091400  0.180900  0.254800  1.0
  H  H761  1  0.930900  0.158600  0.995200  1.0
  H  H762  1  0.569100  0.841400  0.495200  1.0
  H  H763  1  0.091400  0.680900  0.745200  1.0
  H  H764  1  0.408600  0.319100  0.245200  1.0
  H  H765  1  0.430900  0.658600  0.495200  1.0
  H  H766  1  0.069100  0.341400  0.995200  1.0
  H  H767  1  0.591400  0.180900  0.245200  1.0
  H  H768  1  0.908600  0.819100  0.745200  1.0
  H  H769  1  0.979400  0.872400  0.013400  1.0
  H  H770  1  0.520600  0.127600  0.513400  1.0
  H  H771  1  0.877600  0.229400  0.263400  1.0
  H  H772  1  0.622400  0.770600  0.763400  1.0
  H  H773  1  0.479400  0.372400  0.513400  1.0
  H  H774  1  0.020600  0.627600  0.013400  1.0
  H  H775  1  0.377600  0.729400  0.763400  1.0
  H  H776  1  0.122400  0.270600  0.263400  1.0
  H  H777  1  0.020600  0.127600  0.986600  1.0
  H  H778  1  0.479400  0.872400  0.486600  1.0
  H  H779  1  0.122400  0.770600  0.736600  1.0
  H  H780  1  0.377600  0.229400  0.236600  1.0
  H  H781  1  0.520600  0.627600  0.486600  1.0
  H  H782  1  0.979400  0.372400  0.986600  1.0
  H  H783  1  0.622400  0.270600  0.236600  1.0
  H  H784  1  0.877600  0.729400  0.736600  1.0
  H  H785  1  0.991800  0.870000  0.062900  1.0
  H  H786  1  0.508200  0.130000  0.562900  1.0
  H  H787  1  0.880000  0.241800  0.312900  1.0
  H  H788  1  0.620000  0.758200  0.812900  1.0
  H  H789  1  0.491800  0.370000  0.562900  1.0
  H  H790  1  0.008200  0.630000  0.062900  1.0
  H  H791  1  0.380000  0.741800  0.812900  1.0
  H  H792  1  0.120000  0.258200  0.312900  1.0
  H  H793  1  0.008200  0.130000  0.937100  1.0
  H  H794  1  0.491800  0.870000  0.437100  1.0
  H  H795  1  0.120000  0.758200  0.687100  1.0
  H  H796  1  0.380000  0.241800  0.187100  1.0
  H  H797  1  0.508200  0.630000  0.437100  1.0
  H  H798  1  0.991800  0.370000  0.937100  1.0
  H  H799  1  0.620000  0.258200  0.187100  1.0
  H  H800  1  0.880000  0.741800  0.687100  1.0
  H  H801  1  0.941900  0.841500  0.044600  1.0
  H  H802  1  0.558100  0.158500  0.544600  1.0
  H  H803  1  0.908500  0.191900  0.294600  1.0
  H  H804  1  0.591500  0.808100  0.794600  1.0
  H  H805  1  0.441900  0.341500  0.544600  1.0
  H  H806  1  0.058100  0.658500  0.044600  1.0
  H  H807  1  0.408500  0.691900  0.794600  1.0
  H  H808  1  0.091500  0.308100  0.294600  1.0
  H  H809  1  0.058100  0.158500  0.955400  1.0
  H  H810  1  0.441900  0.841500  0.455400  1.0
  H  H811  1  0.091500  0.808100  0.705400  1.0
  H  H812  1  0.408500  0.191900  0.205400  1.0
  H  H813  1  0.558100  0.658500  0.455400  1.0
  H  H814  1  0.941900  0.341500  0.955400  1.0
  H  H815  1  0.591500  0.308100  0.205400  1.0
  H  H816  1  0.908500  0.691900  0.705400  1.0
  H  H817  1  0.003400  0.796000  0.967400  1.0
  H  H818  1  0.496600  0.204000  0.467400  1.0
  H  H819  1  0.954000  0.253400  0.217400  1.0
  H  H820  1  0.546000  0.746600  0.717400  1.0
  H  H821  1  0.503400  0.296000  0.467400  1.0
  H  H822  1  0.996600  0.704000  0.967400  1.0
  H  H823  1  0.454000  0.753400  0.717400  1.0
  H  H824  1  0.046000  0.246600  0.217400  1.0
  H  H825  1  0.996600  0.204000  0.032600  1.0
  H  H826  1  0.503400  0.796000  0.532600  1.0
  H  H827  1  0.046000  0.746600  0.782600  1.0
  H  H828  1  0.454000  0.253400  0.282600  1.0
  H  H829  1  0.496600  0.704000  0.532600  1.0
  H  H830  1  0.003400  0.296000  0.032600  1.0
  H  H831  1  0.546000  0.246600  0.282600  1.0
  H  H832  1  0.954000  0.753400  0.782600  1.0
  H  H833  1  0.952100  0.777700  0.991600  1.0
  H  H834  1  0.547900  0.222300  0.491600  1.0
  H  H835  1  0.972300  0.202100  0.241600  1.0
  H  H836  1  0.527700  0.797900  0.741600  1.0
  H  H837  1  0.452100  0.277700  0.491600  1.0
  H  H838  1  0.047900  0.722300  0.991600  1.0
  H  H839  1  0.472300  0.702100  0.741600  1.0
  H  H840  1  0.027700  0.297900  0.241600  1.0
  H  H841  1  0.047900  0.222300  0.008400  1.0
  H  H842  1  0.452100  0.777700  0.508400  1.0
  H  H843  1  0.027700  0.797900  0.758400  1.0
  H  H844  1  0.472300  0.202100  0.258400  1.0
  H  H845  1  0.547900  0.722300  0.508400  1.0
  H  H846  1  0.952100  0.277700  0.008400  1.0
  H  H847  1  0.527700  0.297900  0.258400  1.0
  H  H848  1  0.972300  0.702100  0.758400  1.0
  Pd  Pd849  1  0.000000  0.750000  0.079780  1.0
  Pd  Pd850  1  0.500000  0.250000  0.579780  1.0
  Pd  Pd851  1  0.000000  0.250000  0.329780  1.0
  Pd  Pd852  1  0.500000  0.750000  0.829780  1.0
  Pd  Pd853  1  0.000000  0.250000  0.920220  1.0
  Pd  Pd854  1  0.500000  0.750000  0.420220  1.0
  Pd  Pd855  1  0.000000  0.750000  0.670220  1.0
  Pd  Pd856  1  0.500000  0.250000  0.170220  1.0
  Pd  Pd857  1  0.788410  0.035867  0.377281  1.0
  Pd  Pd858  1  0.711590  0.964133  0.877281  1.0
  Pd  Pd859  1  0.714133  0.038410  0.627281  1.0
  Pd  Pd860  1  0.785867  0.961590  0.127281  1.0
  Pd  Pd861  1  0.288410  0.535867  0.877281  1.0
  Pd  Pd862  1  0.211590  0.464133  0.377281  1.0
  Pd  Pd863  1  0.214133  0.538410  0.127281  1.0
  Pd  Pd864  1  0.285867  0.461590  0.627281  1.0
  Pd  Pd865  1  0.211590  0.964133  0.622719  1.0
  Pd  Pd866  1  0.288410  0.035867  0.122719  1.0
  Pd  Pd867  1  0.285867  0.961590  0.372719  1.0
  Pd  Pd868  1  0.214133  0.038410  0.872719  1.0
  Pd  Pd869  1  0.711590  0.464133  0.122719  1.0
  Pd  Pd870  1  0.788410  0.535867  0.622719  1.0
  Pd  Pd871  1  0.785867  0.461590  0.872719  1.0
  Pd  Pd872  1  0.714133  0.538410  0.372719  1.0
  C  C873  1  0.838900  0.741000  0.311900  1
  C  C874  1  0.661100  0.259000  0.811900  1
  C  C875  1  0.009000  0.088900  0.561900  1
  C  C876  1  0.491000  0.911100  0.061900  1
  C  C877  1  0.338900  0.241000  0.811900  1
  C  C878  1  0.161100  0.759000  0.311900  1
  C  C879  1  0.509000  0.588900  0.061900  1
  C  C880  1  0.991000  0.411100  0.561900  1
  C  C881  1  0.161100  0.259000  0.688100  1
  C  C882  1  0.338900  0.741000  0.188100  1
  C  C883  1  0.991000  0.911100  0.438100  1
  C  C884  1  0.509000  0.088900  0.938100  1
  C  C885  1  0.661100  0.759000  0.188100  1
  C  C886  1  0.838900  0.241000  0.688100  1
  C  C887  1  0.491000  0.411100  0.938100  1
  C  C888  1  0.009000  0.588900  0.438100  1
  C  C889  1  0.872200  0.736200  0.280000  1
  C  C890  1  0.627800  0.263800  0.780000  1
  C  C891  1  0.013800  0.122200  0.530000  1
  C  C892  1  0.486200  0.877800  0.030000  1
  C  C893  1  0.372200  0.236200  0.780000  1
  C  C894  1  0.127800  0.763800  0.280000  1
  C  C895  1  0.513800  0.622200  0.030000  1
  C  C896  1  0.986200  0.377800  0.530000  1
  C  C897  1  0.127800  0.263800  0.720000  1
  C  C898  1  0.372200  0.736200  0.220000  1
  C  C899  1  0.986200  0.877800  0.470000  1
  C  C900  1  0.513800  0.122200  0.970000  1
  C  C901  1  0.627800  0.763800  0.220000  1
  C  C902  1  0.872200  0.236200  0.720000  1
  C  C903  1  0.486200  0.377800  0.970000  1
  C  C904  1  0.013800  0.622200  0.470000  1
  C  C905  1  0.916400  0.763000  0.279100  1
  C  C906  1  0.583600  0.237000  0.779100  1
  C  C907  1  0.987000  0.166400  0.529100  1
  C  C908  1  0.513000  0.833600  0.029100  1
  C  C909  1  0.416400  0.263000  0.779100  1
  C  C910  1  0.083600  0.737000  0.279100  1
  C  C911  1  0.487000  0.666400  0.029100  1
  C  C912  1  0.013000  0.333600  0.529100  1
  C  C913  1  0.083600  0.237000  0.720900  1
  C  C914  1  0.416400  0.763000  0.220900  1
  C  C915  1  0.013000  0.833600  0.470900  1
  C  C916  1  0.487000  0.166400  0.970900  1
  C  C917  1  0.583600  0.737000  0.220900  1
  C  C918  1  0.916400  0.263000  0.720900  1
  C  C919  1  0.513000  0.333600  0.970900  1
  C  C920  1  0.987000  0.666400  0.470900  1
  C  C921  1  0.929200  0.796800  0.312200  1
  C  C922  1  0.570800  0.203200  0.812200  1
  C  C923  1  0.953200  0.179200  0.562200  1
  C  C924  1  0.546800  0.820800  0.062200  1
  C  C925  1  0.429200  0.296800  0.812200  1
  C  C926  1  0.070800  0.703200  0.312200  1
  C  C927  1  0.453200  0.679200  0.062200  1
  C  C928  1  0.046800  0.320800  0.562200  1
  C  C929  1  0.070800  0.203200  0.687800  1
  C  C930  1  0.429200  0.796800  0.187800  1
  C  C931  1  0.046800  0.820800  0.437800  1
  C  C932  1  0.453200  0.179200  0.937800  1
  C  C933  1  0.570800  0.703200  0.187800  1
  C  C934  1  0.929200  0.296800  0.687800  1
  C  C935  1  0.546800  0.320800  0.937800  1
  C  C936  1  0.953200  0.679200  0.437800  1
  C  C937  1  0.894000  0.801800  0.344300  1
  C  C938  1  0.606000  0.198200  0.844300  1
  C  C939  1  0.948200  0.144000  0.594300  1
  C  C940  1  0.551800  0.856000  0.094300  1
  C  C941  1  0.394000  0.301800  0.844300  1
  C  C942  1  0.106000  0.698200  0.344300  1
  C  C943  1  0.448200  0.644000  0.094300  1
  C  C944  1  0.051800  0.356000  0.594300  1
  C  C945  1  0.106000  0.198200  0.655700  1
  C  C946  1  0.394000  0.801800  0.155700  1
  C  C947  1  0.051800  0.856000  0.405700  1
  C  C948  1  0.448200  0.144000  0.905700  1
  C  C949  1  0.606000  0.698200  0.155700  1
  C  C950  1  0.894000  0.301800  0.655700  1
  C  C951  1  0.551800  0.356000  0.905700  1
  C  C952  1  0.948200  0.644000  0.405700  1
  C  C953  1  0.848700  0.775000  0.343600  1
  C  C954  1  0.651300  0.225000  0.843600  1
  C  C955  1  0.975000  0.098700  0.593600  1
  C  C956  1  0.525000  0.901300  0.093600  1
  C  C957  1  0.348700  0.275000  0.843600  1
  C  C958  1  0.151300  0.725000  0.343600  1
  C  C959  1  0.475000  0.598700  0.093600  1
  C  C960  1  0.025000  0.401300  0.593600  1
  C  C961  1  0.151300  0.225000  0.656400  1
  C  C962  1  0.348700  0.775000  0.156400  1
  C  C963  1  0.025000  0.901300  0.406400  1
  C  C964  1  0.475000  0.098700  0.906400  1
  C  C965  1  0.651300  0.725000  0.156400  1
  C  C966  1  0.848700  0.275000  0.656400  1
  C  C967  1  0.525000  0.401300  0.906400  1
  C  C968  1  0.975000  0.598700  0.406400  1
  C  C969  1  0.769700  0.101000  0.304700  1
  C  C970  1  0.730300  0.899000  0.804700  1
  C  C971  1  0.649000  0.019700  0.554700  1
  C  C972  1  0.851000  0.980300  0.054700  1
  C  C973  1  0.269700  0.601000  0.804700  1
  C  C974  1  0.230300  0.399000  0.304700  1
  C  C975  1  0.149000  0.519700  0.054700  1
  C  C976  1  0.351000  0.480300  0.554700  1
  C  C977  1  0.230300  0.899000  0.695300  1
  C  C978  1  0.269700  0.101000  0.195300  1
  C  C979  1  0.351000  0.980300  0.445300  1
  C  C980  1  0.149000  0.019700  0.945300  1
  C  C981  1  0.730300  0.399000  0.195300  1
  C  C982  1  0.769700  0.601000  0.695300  1
  C  C983  1  0.851000  0.480300  0.945300  1
  C  C984  1  0.649000  0.519700  0.445300  1
  C  C985  1  0.831000  0.139000  0.366200  1
  C  C986  1  0.669000  0.861000  0.866200  1
  C  C987  1  0.611000  0.081000  0.616200  1
  C  C988  1  0.889000  0.919000  0.116200  1
  C  C989  1  0.331000  0.639000  0.866200  1
  C  C990  1  0.169000  0.361000  0.366200  1
  C  C991  1  0.111000  0.581000  0.116200  1
  C  C992  1  0.389000  0.419000  0.616200  1
  C  C993  1  0.169000  0.861000  0.633800  1
  C  C994  1  0.331000  0.139000  0.133800  1
  C  C995  1  0.389000  0.919000  0.383800  1
  C  C996  1  0.111000  0.081000  0.883800  1
  C  C997  1  0.669000  0.361000  0.133800  1
  C  C998  1  0.831000  0.639000  0.633800  1
  C  C999  1  0.889000  0.419000  0.883800  1
  C  C1000  1  0.611000  0.581000  0.383800  1
  C  C1001  1  0.743100  0.137300  0.372400  1
  C  C1002  1  0.756900  0.862700  0.872400  1
  C  C1003  1  0.612700  0.993100  0.622400  1
  C  C1004  1  0.887300  0.006900  0.122400  1
  C  C1005  1  0.243100  0.637300  0.872400  1
  C  C1006  1  0.256900  0.362700  0.372400  1
  C  C1007  1  0.112700  0.493100  0.122400  1
  C  C1008  1  0.387300  0.506900  0.622400  1
  C  C1009  1  0.256900  0.862700  0.627600  1
  C  C1010  1  0.243100  0.137300  0.127600  1
  C  C1011  1  0.387300  0.006900  0.377600  1
  C  C1012  1  0.112700  0.993100  0.877600  1
  C  C1013  1  0.756900  0.362700  0.127600  1
  C  C1014  1  0.743100  0.637300  0.627600  1
  C  C1015  1  0.887300  0.506900  0.877600  1
  C  C1016  1  0.612700  0.493100  0.377600  1
  C  C1017  1  0.702800  0.104700  0.387000  1
  C  C1018  1  0.797200  0.895300  0.887000  1
  C  C1019  1  0.645300  0.952800  0.637000  1
  C  C1020  1  0.854700  0.047200  0.137000  1
  C  C1021  1  0.202800  0.604700  0.887000  1
  C  C1022  1  0.297200  0.395300  0.387000  1
  C  C1023  1  0.145300  0.452800  0.137000  1
  C  C1024  1  0.354700  0.547200  0.637000  1
  C  C1025  1  0.297200  0.895300  0.613000  1
  C  C1026  1  0.202800  0.104700  0.113000  1
  C  C1027  1  0.354700  0.047200  0.363000  1
  C  C1028  1  0.145300  0.952800  0.863000  1
  C  C1029  1  0.797200  0.395300  0.113000  1
  C  C1030  1  0.702800  0.604700  0.613000  1
  C  C1031  1  0.854700  0.547200  0.863000  1
  C  C1032  1  0.645300  0.452800  0.363000  1
  C  C1033  1  0.736800  0.072300  0.454700  1
  C  C1034  1  0.763200  0.927700  0.954700  1
  C  C1035  1  0.677700  0.986800  0.704700  1
  C  C1036  1  0.822300  0.013200  0.204700  1
  C  C1037  1  0.236800  0.572300  0.954700  1
  C  C1038  1  0.263200  0.427700  0.454700  1
  C  C1039  1  0.177700  0.486800  0.204700  1
  C  C1040  1  0.322300  0.513200  0.704700  1
  C  C1041  1  0.263200  0.927700  0.545300  1
  C  C1042  1  0.236800  0.072300  0.045300  1
  C  C1043  1  0.322300  0.013200  0.295300  1
  C  C1044  1  0.177700  0.986800  0.795300  1
  C  C1045  1  0.763200  0.427700  0.045300  1
  C  C1046  1  0.736800  0.572300  0.545300  1
  C  C1047  1  0.822300  0.513200  0.795300  1
  C  C1048  1  0.677700  0.486800  0.295300  1
  C  C1049  1  0.681800  0.018300  0.415600  1
  C  C1050  1  0.818200  0.981700  0.915600  1
  C  C1051  1  0.731700  0.931800  0.665600  1
  C  C1052  1  0.768300  0.068200  0.165600  1
  C  C1053  1  0.181800  0.518300  0.915600  1
  C  C1054  1  0.318200  0.481700  0.415600  1
  C  C1055  1  0.231700  0.431800  0.165600  1
  C  C1056  1  0.268300  0.568200  0.665600  1
  C  C1057  1  0.318200  0.981700  0.584400  1
  C  C1058  1  0.181800  0.018300  0.084400  1
  C  C1059  1  0.268300  0.068200  0.334400  1
  C  C1060  1  0.231700  0.931800  0.834400  1
  C  C1061  1  0.818200  0.481700  0.084400  1
  C  C1062  1  0.681800  0.518300  0.584400  1
  C  C1063  1  0.768300  0.568200  0.834400  1
  C  C1064  1  0.731700  0.431800  0.334400  1
  C  C1065  1  0.846900  0.979500  0.311850  1.0
  C  C1066  1  0.653100  0.020500  0.811850  1.0
  C  C1067  1  0.770500  0.096900  0.561850  1.0
  C  C1068  1  0.729500  0.903100  0.061850  1.0
  C  C1069  1  0.346900  0.479500  0.811850  1.0
  C  C1070  1  0.153100  0.520500  0.311850  1.0
  C  C1071  1  0.270500  0.596900  0.061850  1.0
  C  C1072  1  0.229500  0.403100  0.561850  1.0
  C  C1073  1  0.153100  0.020500  0.688150  1.0
  C  C1074  1  0.346900  0.979500  0.188150  1.0
  C  C1075  1  0.229500  0.903100  0.438150  1.0
  C  C1076  1  0.270500  0.096900  0.938150  1.0
  C  C1077  1  0.653100  0.520500  0.188150  1.0
  C  C1078  1  0.846900  0.479500  0.688150  1.0
  C  C1079  1  0.729500  0.403100  0.938150  1.0
  C  C1080  1  0.770500  0.596900  0.438150  1.0
  C  C1081  1  0.889100  0.957400  0.291800  1.0
  C  C1082  1  0.610900  0.042600  0.791800  1.0
  C  C1083  1  0.792600  0.139100  0.541800  1.0
  C  C1084  1  0.707400  0.860900  0.041800  1.0
  C  C1085  1  0.389100  0.457400  0.791800  1.0
  C  C1086  1  0.110900  0.542600  0.291800  1.0
  C  C1087  1  0.292600  0.639100  0.041800  1.0
  C  C1088  1  0.207400  0.360900  0.541800  1.0
  C  C1089  1  0.110900  0.042600  0.708200  1.0
  C  C1090  1  0.389100  0.957400  0.208200  1.0
  C  C1091  1  0.207400  0.860900  0.458200  1.0
  C  C1092  1  0.292600  0.139100  0.958200  1.0
  C  C1093  1  0.610900  0.542600  0.208200  1.0
  C  C1094  1  0.889100  0.457400  0.708200  1.0
  C  C1095  1  0.707400  0.360900  0.958200  1.0
  C  C1096  1  0.792600  0.639100  0.458200  1.0
  C  C1097  1  0.937700  0.967200  0.307750  1.0
  C  C1098  1  0.562300  0.032800  0.807750  1.0
  C  C1099  1  0.782800  0.187700  0.557750  1.0
  C  C1100  1  0.717200  0.812300  0.057750  1.0
  C  C1101  1  0.437700  0.467200  0.807750  1.0
  C  C1102  1  0.062300  0.532800  0.307750  1.0
  C  C1103  1  0.282800  0.687700  0.057750  1.0
  C  C1104  1  0.217200  0.312300  0.557750  1.0
  C  C1105  1  0.062300  0.032800  0.692250  1.0
  C  C1106  1  0.437700  0.967200  0.192250  1.0
  C  C1107  1  0.217200  0.812300  0.442250  1.0
  C  C1108  1  0.282800  0.187700  0.942250  1.0
  C  C1109  1  0.562300  0.532800  0.192250  1.0
  C  C1110  1  0.937700  0.467200  0.692250  1.0
  C  C1111  1  0.717200  0.312300  0.942250  1.0
  C  C1112  1  0.782800  0.687700  0.442250  1.0
  C  C1113  1  0.942200  0.999100  0.342600  1.0
  C  C1114  1  0.557800  0.000900  0.842600  1.0
  C  C1115  1  0.750900  0.192200  0.592600  1.0
  C  C1116  1  0.749100  0.807800  0.092600  1.0
  C  C1117  1  0.442200  0.499100  0.842600  1.0
  C  C1118  1  0.057800  0.500900  0.342600  1.0
  C  C1119  1  0.250900  0.692200  0.092600  1.0
  C  C1120  1  0.249100  0.307800  0.592600  1.0
  C  C1121  1  0.057800  0.000900  0.657400  1.0
  C  C1122  1  0.442200  0.999100  0.157400  1.0
  C  C1123  1  0.249100  0.807800  0.407400  1.0
  C  C1124  1  0.250900  0.192200  0.907400  1.0
  C  C1125  1  0.557800  0.500900  0.157400  1.0
  C  C1126  1  0.942200  0.499100  0.657400  1.0
  C  C1127  1  0.749100  0.307800  0.907400  1.0
  C  C1128  1  0.750900  0.692200  0.407400  1.0
  C  C1129  1  0.898800  0.019900  0.360600  1.0
  C  C1130  1  0.601200  0.980100  0.860600  1.0
  C  C1131  1  0.730100  0.148800  0.610600  1.0
  C  C1132  1  0.769900  0.851200  0.110600  1.0
  C  C1133  1  0.398800  0.519900  0.860600  1.0
  C  C1134  1  0.101200  0.480100  0.360600  1.0
  C  C1135  1  0.230100  0.648800  0.110600  1.0
  C  C1136  1  0.269900  0.351200  0.610600  1.0
  C  C1137  1  0.101200  0.980100  0.639400  1.0
  C  C1138  1  0.398800  0.019900  0.139400  1.0
  C  C1139  1  0.269900  0.851200  0.389400  1.0
  C  C1140  1  0.230100  0.148800  0.889400  1.0
  C  C1141  1  0.601200  0.480100  0.139400  1.0
  C  C1142  1  0.898800  0.519900  0.639400  1.0
  C  C1143  1  0.769900  0.351200  0.889400  1.0
  C  C1144  1  0.730100  0.648800  0.389400  1.0
  C  C1145  1  0.054300  0.814500  0.142900  1.0
  C  C1146  1  0.445700  0.185500  0.642900  1.0
  C  C1147  1  0.935500  0.304300  0.392900  1.0
  C  C1148  1  0.564500  0.695700  0.892900  1.0
  C  C1149  1  0.554300  0.314500  0.642900  1.0
  C  C1150  1  0.945700  0.685500  0.142900  1.0
  C  C1151  1  0.435500  0.804300  0.892900  1.0
  C  C1152  1  0.064500  0.195700  0.392900  1.0
  C  C1153  1  0.945700  0.185500  0.857100  1.0
  C  C1154  1  0.554300  0.814500  0.357100  1.0
  C  C1155  1  0.064500  0.695700  0.607100  1.0
  C  C1156  1  0.435500  0.304300  0.107100  1.0
  C  C1157  1  0.445700  0.685500  0.357100  1.0
  C  C1158  1  0.054300  0.314500  0.857100  1.0
  C  C1159  1  0.564500  0.195700  0.107100  1.0
  C  C1160  1  0.935500  0.804300  0.607100  1.0
  C  C1161  1  0.059900  0.845600  0.177700  1.0
  C  C1162  1  0.440100  0.154400  0.677700  1.0
  C  C1163  1  0.904400  0.309900  0.427700  1.0
  C  C1164  1  0.595600  0.690100  0.927700  1.0
  C  C1165  1  0.559900  0.345600  0.677700  1.0
  C  C1166  1  0.940100  0.654400  0.177700  1.0
  C  C1167  1  0.404400  0.809900  0.927700  1.0
  C  C1168  1  0.095600  0.190100  0.427700  1.0
  C  C1169  1  0.940100  0.154400  0.822300  1.0
  C  C1170  1  0.559900  0.845600  0.322300  1.0
  C  C1171  1  0.095600  0.690100  0.572300  1.0
  C  C1172  1  0.404400  0.309900  0.072300  1.0
  C  C1173  1  0.440100  0.654400  0.322300  1.0
  C  C1174  1  0.059900  0.345600  0.822300  1.0
  C  C1175  1  0.595600  0.190100  0.072300  1.0
  C  C1176  1  0.904400  0.809900  0.572300  1.0
  C  C1177  1  0.016100  0.864800  0.197900  1.0
  C  C1178  1  0.483900  0.135200  0.697900  1.0
  C  C1179  1  0.885200  0.266100  0.447900  1.0
  C  C1180  1  0.614800  0.733900  0.947900  1.0
  C  C1181  1  0.516100  0.364800  0.697900  1.0
  C  C1182  1  0.983900  0.635200  0.197900  1.0
  C  C1183  1  0.385200  0.766100  0.947900  1.0
  C  C1184  1  0.114800  0.233900  0.447900  1.0
  C  C1185  1  0.983900  0.135200  0.802100  1.0
  C  C1186  1  0.516100  0.864800  0.302100  1.0
  C  C1187  1  0.114800  0.733900  0.552100  1.0
  C  C1188  1  0.385200  0.266100  0.052100  1.0
  C  C1189  1  0.483900  0.635200  0.302100  1.0
  C  C1190  1  0.016100  0.364800  0.802100  1.0
  C  C1191  1  0.614800  0.233900  0.052100  1.0
  C  C1192  1  0.885200  0.766100  0.552100  1.0
  C  C1193  1  0.968300  0.851900  0.181700  1.0
  C  C1194  1  0.531700  0.148100  0.681700  1.0
  C  C1195  1  0.898100  0.218300  0.431700  1.0
  C  C1196  1  0.601900  0.781700  0.931700  1.0
  C  C1197  1  0.468300  0.351900  0.681700  1.0
  C  C1198  1  0.031700  0.648100  0.181700  1.0
  C  C1199  1  0.398100  0.718300  0.931700  1.0
  C  C1200  1  0.101900  0.281700  0.431700  1.0
  C  C1201  1  0.031700  0.148100  0.818300  1.0
  C  C1202  1  0.468300  0.851900  0.318300  1.0
  C  C1203  1  0.101900  0.781700  0.568300  1.0
  C  C1204  1  0.398100  0.218300  0.068300  1.0
  C  C1205  1  0.531700  0.648100  0.318300  1.0
  C  C1206  1  0.968300  0.351900  0.818300  1.0
  C  C1207  1  0.601900  0.281700  0.068300  1.0
  C  C1208  1  0.898100  0.718300  0.568300  1.0
  C  C1209  1  0.965400  0.821100  0.146700  1.0
  C  C1210  1  0.534600  0.178900  0.646700  1.0
  C  C1211  1  0.928900  0.215400  0.396700  1.0
  C  C1212  1  0.571100  0.784600  0.896700  1.0
  C  C1213  1  0.465400  0.321100  0.646700  1.0
  C  C1214  1  0.034600  0.678900  0.146700  1.0
  C  C1215  1  0.428900  0.715400  0.896700  1.0
  C  C1216  1  0.071100  0.284600  0.396700  1.0
  C  C1217  1  0.034600  0.178900  0.853300  1.0
  C  C1218  1  0.465400  0.821100  0.353300  1.0
  C  C1219  1  0.071100  0.784600  0.603300  1.0
  C  C1220  1  0.428900  0.215400  0.103300  1.0
  C  C1221  1  0.534600  0.678900  0.353300  1.0
  C  C1222  1  0.965400  0.321100  0.853300  1.0
  C  C1223  1  0.571100  0.284600  0.103300  1.0
  C  C1224  1  0.928900  0.715400  0.603300  1.0
  C  C1225  1  0.175300  0.980100  0.358700  1.0
  C  C1226  1  0.324700  0.019900  0.858700  1.0
  C  C1227  1  0.769900  0.425300  0.608700  1.0
  C  C1228  1  0.730100  0.574700  0.108700  1.0
  C  C1229  1  0.675300  0.480100  0.858700  1.0
  C  C1230  1  0.824700  0.519900  0.358700  1.0
  C  C1231  1  0.269900  0.925300  0.108700  1.0
  C  C1232  1  0.230100  0.074700  0.608700  1.0
  C  C1233  1  0.824700  0.019900  0.641300  1.0
  C  C1234  1  0.675300  0.980100  0.141300  1.0
  C  C1235  1  0.230100  0.574700  0.391300  1.0
  C  C1236  1  0.269900  0.425300  0.891300  1.0
  C  C1237  1  0.324700  0.519900  0.141300  1.0
  C  C1238  1  0.175300  0.480100  0.641300  1.0
  C  C1239  1  0.730100  0.074700  0.891300  1.0
  C  C1240  1  0.769900  0.925300  0.391300  1.0
  C  C1241  1  0.126500  0.973400  0.341200  1.0
  C  C1242  1  0.373500  0.026600  0.841200  1.0
  C  C1243  1  0.776600  0.376500  0.591200  1.0
  C  C1244  1  0.723400  0.623500  0.091200  1.0
  C  C1245  1  0.626500  0.473400  0.841200  1.0
  C  C1246  1  0.873500  0.526600  0.341200  1.0
  C  C1247  1  0.276600  0.876500  0.091200  1.0
  C  C1248  1  0.223400  0.123500  0.591200  1.0
  C  C1249  1  0.873500  0.026600  0.658800  1.0
  C  C1250  1  0.626500  0.973400  0.158800  1.0
  C  C1251  1  0.223400  0.623500  0.408800  1.0
  C  C1252  1  0.276600  0.376500  0.908800  1.0
  C  C1253  1  0.373500  0.526600  0.158800  1.0
  C  C1254  1  0.126500  0.473400  0.658800  1.0
  C  C1255  1  0.723400  0.123500  0.908800  1.0
  C  C1256  1  0.776600  0.876500  0.408800  1.0
  C  C1257  1  0.121300  0.942800  0.305700  1.0
  C  C1258  1  0.378700  0.057200  0.805700  1.0
  C  C1259  1  0.807200  0.371300  0.555700  1.0
  C  C1260  1  0.692800  0.628700  0.055700  1.0
  C  C1261  1  0.621300  0.442800  0.805700  1.0
  C  C1262  1  0.878700  0.557200  0.305700  1.0
  C  C1263  1  0.307200  0.871300  0.055700  1.0
  C  C1264  1  0.192800  0.128700  0.555700  1.0
  C  C1265  1  0.878700  0.057200  0.694300  1.0
  C  C1266  1  0.621300  0.942800  0.194300  1.0
  C  C1267  1  0.192800  0.628700  0.444300  1.0
  C  C1268  1  0.307200  0.371300  0.944300  1.0
  C  C1269  1  0.378700  0.557200  0.194300  1.0
  C  C1270  1  0.121300  0.442800  0.694300  1.0
  C  C1271  1  0.692800  0.128700  0.944300  1.0
  C  C1272  1  0.807200  0.871300  0.444300  1.0
  C  C1273  1  0.165200  0.920200  0.288500  1.0
  C  C1274  1  0.334800  0.079800  0.788500  1.0
  C  C1275  1  0.829800  0.415200  0.538500  1.0
  C  C1276  1  0.670200  0.584800  0.038500  1.0
  C  C1277  1  0.665200  0.420200  0.788500  1.0
  C  C1278  1  0.834800  0.579800  0.288500  1.0
  C  C1279  1  0.329800  0.915200  0.038500  1.0
  C  C1280  1  0.170200  0.084800  0.538500  1.0
  C  C1281  1  0.834800  0.079800  0.711500  1.0
  C  C1282  1  0.665200  0.920200  0.211500  1.0
  C  C1283  1  0.170200  0.584800  0.461500  1.0
  C  C1284  1  0.329800  0.415200  0.961500  1.0
  C  C1285  1  0.334800  0.579800  0.211500  1.0
  C  C1286  1  0.165200  0.420200  0.711500  1.0
  C  C1287  1  0.670200  0.084800  0.961500  1.0
  C  C1288  1  0.829800  0.915200  0.461500  1.0
  C  C1289  1  0.212100  0.929500  0.307100  1.0
  C  C1290  1  0.287900  0.070500  0.807100  1.0
  C  C1291  1  0.820500  0.462100  0.557100  1.0
  C  C1292  1  0.679500  0.537900  0.057100  1.0
  C  C1293  1  0.712100  0.429500  0.807100  1.0
  C  C1294  1  0.787900  0.570500  0.307100  1.0
  C  C1295  1  0.320500  0.962100  0.057100  1.0
  C  C1296  1  0.179500  0.037900  0.557100  1.0
  C  C1297  1  0.787900  0.070500  0.692900  1.0
  C  C1298  1  0.712100  0.929500  0.192900  1.0
  C  C1299  1  0.179500  0.537900  0.442900  1.0
  C  C1300  1  0.320500  0.462100  0.942900  1.0
  C  C1301  1  0.287900  0.570500  0.192900  1.0
  C  C1302  1  0.212100  0.429500  0.692900  1.0
  C  C1303  1  0.679500  0.037900  0.942900  1.0
  C  C1304  1  0.820500  0.962100  0.442900  1.0
  C  C1305  1  0.984200  0.945400  0.287300  1.0
  C  C1306  1  0.515800  0.054600  0.787300  1.0
  C  C1307  1  0.804600  0.234200  0.537300  1.0
  C  C1308  1  0.695400  0.765800  0.037300  1.0
  C  C1309  1  0.484200  0.445400  0.787300  1.0
  C  C1310  1  0.015800  0.554600  0.287300  1.0
  C  C1311  1  0.304600  0.734200  0.037300  1.0
  C  C1312  1  0.195400  0.265800  0.537300  1.0
  C  C1313  1  0.015800  0.054600  0.712700  1.0
  C  C1314  1  0.484200  0.945400  0.212700  1.0
  C  C1315  1  0.195400  0.765800  0.462700  1.0
  C  C1316  1  0.304600  0.234200  0.962700  1.0
  C  C1317  1  0.515800  0.554600  0.212700  1.0
  C  C1318  1  0.984200  0.445400  0.712700  1.0
  C  C1319  1  0.695400  0.265800  0.962700  1.0
  C  C1320  1  0.804600  0.734200  0.462700  1.0
  C  C1321  1  0.020600  0.897400  0.236100  1.0
  C  C1322  1  0.479400  0.102600  0.736100  1.0
  C  C1323  1  0.852600  0.270600  0.486100  1.0
  C  C1324  1  0.647400  0.729400  0.986100  1.0
  C  C1325  1  0.520600  0.397400  0.736100  1.0
  C  C1326  1  0.979400  0.602600  0.236100  1.0
  C  C1327  1  0.352600  0.770600  0.986100  1.0
  C  C1328  1  0.147400  0.229400  0.486100  1.0
  C  C1329  1  0.979400  0.102600  0.763900  1.0
  C  C1330  1  0.520600  0.897400  0.263900  1.0
  C  C1331  1  0.147400  0.729400  0.513900  1.0
  C  C1332  1  0.352600  0.270600  0.013900  1.0
  C  C1333  1  0.479400  0.602600  0.263900  1.0
  C  C1334  1  0.020600  0.397400  0.763900  1.0
  C  C1335  1  0.647400  0.229400  0.013900  1.0
  C  C1336  1  0.852600  0.770600  0.513900  1.0
  C  C1337  1  0.070100  0.933400  0.286600  1.0
  C  C1338  1  0.429900  0.066600  0.786600  1.0
  C  C1339  1  0.816600  0.320100  0.536600  1.0
  C  C1340  1  0.683400  0.679900  0.036600  1.0
  C  C1341  1  0.570100  0.433400  0.786600  1.0
  C  C1342  1  0.929900  0.566600  0.286600  1.0
  C  C1343  1  0.316600  0.820100  0.036600  1.0
  C  C1344  1  0.183400  0.179900  0.536600  1.0
  C  C1345  1  0.929900  0.066600  0.713400  1.0
  C  C1346  1  0.570100  0.933400  0.213400  1.0
  C  C1347  1  0.183400  0.679900  0.463400  1.0
  C  C1348  1  0.316600  0.320100  0.963400  1.0
  C  C1349  1  0.429900  0.566600  0.213400  1.0
  C  C1350  1  0.070100  0.433400  0.713400  1.0
  C  C1351  1  0.683400  0.179900  0.963400  1.0
  C  C1352  1  0.816600  0.820100  0.463400  1.0
  C  C1353  1  0.797800  0.102000  0.298300  1.0
  C  C1354  1  0.702200  0.898000  0.798300  1.0
  C  C1355  1  0.648000  0.047800  0.548300  1.0
  C  C1356  1  0.852000  0.952200  0.048300  1.0
  C  C1357  1  0.297800  0.602000  0.798300  1.0
  C  C1358  1  0.202200  0.398000  0.298300  1.0
  C  C1359  1  0.148000  0.547800  0.048300  1.0
  C  C1360  1  0.352000  0.452200  0.548300  1.0
  C  C1361  1  0.202200  0.898000  0.701700  1.0
  C  C1362  1  0.297800  0.102000  0.201700  1.0
  C  C1363  1  0.352000  0.952200  0.451700  1.0
  C  C1364  1  0.148000  0.047800  0.951700  1.0
  C  C1365  1  0.702200  0.398000  0.201700  1.0
  C  C1366  1  0.797800  0.602000  0.701700  1.0
  C  C1367  1  0.852000  0.452200  0.951700  1.0
  C  C1368  1  0.648000  0.547800  0.451700  1.0
  C  C1369  1  0.832400  0.135700  0.354800  1.0
  C  C1370  1  0.667600  0.864300  0.854800  1.0
  C  C1371  1  0.614300  0.082400  0.604800  1.0
  C  C1372  1  0.885700  0.917600  0.104800  1.0
  C  C1373  1  0.332400  0.635700  0.854800  1.0
  C  C1374  1  0.167600  0.364300  0.354800  1.0
  C  C1375  1  0.114300  0.582400  0.104800  1.0
  C  C1376  1  0.385700  0.417600  0.604800  1.0
  C  C1377  1  0.167600  0.864300  0.645200  1.0
  C  C1378  1  0.332400  0.135700  0.145200  1.0
  C  C1379  1  0.385700  0.917600  0.395200  1.0
  C  C1380  1  0.114300  0.082400  0.895200  1.0
  C  C1381  1  0.667600  0.364300  0.145200  1.0
  C  C1382  1  0.832400  0.635700  0.645200  1.0
  C  C1383  1  0.885700  0.417600  0.895200  1.0
  C  C1384  1  0.614300  0.582400  0.395200  1.0
  C  C1385  1  0.737300  0.127700  0.352100  1.0
  C  C1386  1  0.762700  0.872300  0.852100  1.0
  C  C1387  1  0.622300  0.987300  0.602100  1.0
  C  C1388  1  0.877700  0.012700  0.102100  1.0
  C  C1389  1  0.237300  0.627700  0.852100  1.0
  C  C1390  1  0.262700  0.372300  0.352100  1.0
  C  C1391  1  0.122300  0.487300  0.102100  1.0
  C  C1392  1  0.377700  0.512700  0.602100  1.0
  C  C1393  1  0.262700  0.872300  0.647900  1.0
  C  C1394  1  0.237300  0.127700  0.147900  1.0
  C  C1395  1  0.377700  0.012700  0.397900  1.0
  C  C1396  1  0.122300  0.987300  0.897900  1.0
  C  C1397  1  0.762700  0.372300  0.147900  1.0
  C  C1398  1  0.737300  0.627700  0.647900  1.0
  C  C1399  1  0.877700  0.512700  0.897900  1.0
  C  C1400  1  0.622300  0.487300  0.397900  1.0
  C  C1401  1  0.724000  0.120500  0.398100  1.0
  C  C1402  1  0.776000  0.879500  0.898100  1.0
  C  C1403  1  0.629500  0.974000  0.648100  1.0
  C  C1404  1  0.870500  0.026000  0.148100  1.0
  C  C1405  1  0.224000  0.620500  0.898100  1.0
  C  C1406  1  0.276000  0.379500  0.398100  1.0
  C  C1407  1  0.129500  0.474000  0.148100  1.0
  C  C1408  1  0.370500  0.526000  0.648100  1.0
  C  C1409  1  0.276000  0.879500  0.601900  1.0
  C  C1410  1  0.224000  0.120500  0.101900  1.0
  C  C1411  1  0.370500  0.026000  0.351900  1.0
  C  C1412  1  0.129500  0.974000  0.851900  1.0
  C  C1413  1  0.776000  0.379500  0.101900  1.0
  C  C1414  1  0.724000  0.620500  0.601900  1.0
  C  C1415  1  0.870500  0.526000  0.851900  1.0
  C  C1416  1  0.629500  0.474000  0.351900  1.0
  C  C1417  1  0.728600  0.053900  0.455400  1.0
  C  C1418  1  0.771400  0.946100  0.955400  1.0
  C  C1419  1  0.696100  0.978600  0.705400  1.0
  C  C1420  1  0.803900  0.021400  0.205400  1.0
  C  C1421  1  0.228600  0.553900  0.955400  1.0
  C  C1422  1  0.271400  0.446100  0.455400  1.0
  C  C1423  1  0.196100  0.478600  0.205400  1.0
  C  C1424  1  0.303900  0.521400  0.705400  1.0
  C  C1425  1  0.271400  0.946100  0.544600  1.0
  C  C1426  1  0.228600  0.053900  0.044600  1.0
  C  C1427  1  0.303900  0.021400  0.294600  1.0
  C  C1428  1  0.196100  0.978600  0.794600  1.0
  C  C1429  1  0.771400  0.446100  0.044600  1.0
  C  C1430  1  0.728600  0.553900  0.544600  1.0
  C  C1431  1  0.803900  0.521400  0.794600  1.0
  C  C1432  1  0.696100  0.478600  0.294600  1.0
  C  C1433  1  0.679000  0.037000  0.393100  1.0
  C  C1434  1  0.821000  0.963000  0.893100  1.0
  C  C1435  1  0.713000  0.929000  0.643100  1.0
  C  C1436  1  0.787000  0.071000  0.143100  1.0
  C  C1437  1  0.179000  0.537000  0.893100  1.0
  C  C1438  1  0.321000  0.463000  0.393100  1.0
  C  C1439  1  0.213000  0.429000  0.143100  1.0
  C  C1440  1  0.287000  0.571000  0.643100  1.0
  C  C1441  1  0.321000  0.963000  0.606900  1.0
  C  C1442  1  0.179000  0.037000  0.106900  1.0
  C  C1443  1  0.287000  0.071000  0.356900  1.0
  C  C1444  1  0.213000  0.929000  0.856900  1.0
  C  C1445  1  0.821000  0.463000  0.106900  1.0
  C  C1446  1  0.679000  0.537000  0.606900  1.0
  C  C1447  1  0.787000  0.571000  0.856900  1.0
  C  C1448  1  0.713000  0.429000  0.356900  1.0
  C  C1449  1  0.064600  0.817400  0.028500  1.0
  C  C1450  1  0.435400  0.182600  0.528500  1.0
  C  C1451  1  0.932600  0.314600  0.278500  1.0
  C  C1452  1  0.567400  0.685400  0.778500  1.0
  C  C1453  1  0.564600  0.317400  0.528500  1.0
  C  C1454  1  0.935400  0.682600  0.028500  1.0
  C  C1455  1  0.432600  0.814600  0.778500  1.0
  C  C1456  1  0.067400  0.185400  0.278500  1.0
  C  C1457  1  0.935400  0.182600  0.971500  1.0
  C  C1458  1  0.564600  0.817400  0.471500  1.0
  C  C1459  1  0.067400  0.685400  0.721500  1.0
  C  C1460  1  0.432600  0.314600  0.221500  1.0
  C  C1461  1  0.435400  0.682600  0.471500  1.0
  C  C1462  1  0.064600  0.317400  0.971500  1.0
  C  C1463  1  0.567400  0.185400  0.221500  1.0
  C  C1464  1  0.932600  0.814600  0.721500  1.0
  C  C1465  1  0.977800  0.850800  0.038800  1.0
  C  C1466  1  0.522200  0.149200  0.538800  1.0
  C  C1467  1  0.899200  0.227800  0.288800  1.0
  C  C1468  1  0.600800  0.772200  0.788800  1.0
  C  C1469  1  0.477800  0.350800  0.538800  1.0
  C  C1470  1  0.022200  0.649200  0.038800  1.0
  C  C1471  1  0.399200  0.727800  0.788800  1.0
  C  C1472  1  0.100800  0.272200  0.288800  1.0
  C  C1473  1  0.022200  0.149200  0.961200  1.0
  C  C1474  1  0.477800  0.850800  0.461200  1.0
  C  C1475  1  0.100800  0.772200  0.711200  1.0
  C  C1476  1  0.399200  0.227800  0.211200  1.0
  C  C1477  1  0.522200  0.649200  0.461200  1.0
  C  C1478  1  0.977800  0.350800  0.961200  1.0
  C  C1479  1  0.600800  0.272200  0.211200  1.0
  C  C1480  1  0.899200  0.727800  0.711200  1.0
  C  C1481  1  0.990300  0.777300  0.992500  1.0
  C  C1482  1  0.509700  0.222700  0.492500  1.0
  C  C1483  1  0.972700  0.240300  0.242500  1.0
  C  C1484  1  0.527300  0.759700  0.742500  1.0
  C  C1485  1  0.490300  0.277300  0.492500  1.0
  C  C1486  1  0.009700  0.722700  0.992500  1.0
  C  C1487  1  0.472700  0.740300  0.742500  1.0
  C  C1488  1  0.027300  0.259700  0.242500  1.0
  C  C1489  1  0.009700  0.222700  0.007500  1.0
  C  C1490  1  0.490300  0.777300  0.507500  1.0
  C  C1491  1  0.027300  0.759700  0.757500  1.0
  C  C1492  1  0.472700  0.240300  0.257500  1.0
  C  C1493  1  0.509700  0.722700  0.507500  1.0
  C  C1494  1  0.990300  0.277300  0.007500  1.0
  C  C1495  1  0.527300  0.259700  0.257500  1.0
  C  C1496  1  0.972700  0.740300  0.757500  1.0
  N  N1497  1  0.677300  0.972100  0.303600  1
  N  N1498  1  0.822700  0.027900  0.803600  1
  N  N1499  1  0.777900  0.927300  0.553600  1
  N  N1500  1  0.722100  0.072700  0.053600  1
  N  N1501  1  0.177300  0.472100  0.803600  1
  N  N1502  1  0.322700  0.527900  0.303600  1
  N  N1503  1  0.277900  0.427300  0.053600  1
  N  N1504  1  0.222100  0.572700  0.553600  1
  N  N1505  1  0.322700  0.027900  0.696400  1
  N  N1506  1  0.177300  0.972100  0.196400  1
  N  N1507  1  0.222100  0.072700  0.446400  1
  N  N1508  1  0.277900  0.927300  0.946400  1
  N  N1509  1  0.822700  0.527900  0.196400  1
  N  N1510  1  0.677300  0.472100  0.696400  1
  N  N1511  1  0.722100  0.572700  0.946400  1
  N  N1512  1  0.777900  0.427300  0.446400  1
  N  N1513  1  0.891200  0.068500  0.479600  1
  N  N1514  1  0.608800  0.931500  0.979600  1
  N  N1515  1  0.681500  0.141200  0.729600  1
  N  N1516  1  0.818500  0.858800  0.229600  1
  N  N1517  1  0.391200  0.568500  0.979600  1
  N  N1518  1  0.108800  0.431500  0.479600  1
  N  N1519  1  0.181500  0.641200  0.229600  1
  N  N1520  1  0.318500  0.358800  0.729600  1
  N  N1521  1  0.108800  0.931500  0.520400  1
  N  N1522  1  0.391200  0.068500  0.020400  1
  N  N1523  1  0.318500  0.858800  0.270400  1
  N  N1524  1  0.181500  0.141200  0.770400  1
  N  N1525  1  0.608800  0.431500  0.020400  1
  N  N1526  1  0.891200  0.568500  0.520400  1
  N  N1527  1  0.818500  0.358800  0.770400  1
  N  N1528  1  0.681500  0.641200  0.270400  1
  N  N1529  1  0.671500  0.200900  0.490400  1
  N  N1530  1  0.828500  0.799100  0.990400  1
  N  N1531  1  0.549100  0.921500  0.740400  1
  N  N1532  1  0.950900  0.078500  0.240400  1
  N  N1533  1  0.171500  0.700900  0.990400  1
  N  N1534  1  0.328500  0.299100  0.490400  1
  N  N1535  1  0.049100  0.421500  0.240400  1
  N  N1536  1  0.450900  0.578500  0.740400  1
  N  N1537  1  0.328500  0.799100  0.509600  1
  N  N1538  1  0.171500  0.200900  0.009600  1
  N  N1539  1  0.450900  0.078500  0.259600  1
  N  N1540  1  0.049100  0.921500  0.759600  1
  N  N1541  1  0.828500  0.299100  0.009600  1
  N  N1542  1  0.671500  0.700900  0.509600  1
  N  N1543  1  0.950900  0.578500  0.759600  1
  N  N1544  1  0.549100  0.421500  0.259600  1
  N  N1545  1  0.909700  0.080900  0.461100  1
  N  N1546  1  0.590300  0.919100  0.961100  1
  N  N1547  1  0.669100  0.159700  0.711100  1
  N  N1548  1  0.830900  0.840300  0.211100  1
  N  N1549  1  0.409700  0.580900  0.961100  1
  N  N1550  1  0.090300  0.419100  0.461100  1
  N  N1551  1  0.169100  0.659700  0.211100  1
  N  N1552  1  0.330900  0.340300  0.711100  1
  N  N1553  1  0.090300  0.919100  0.538900  1
  N  N1554  1  0.409700  0.080900  0.038900  1
  N  N1555  1  0.330900  0.840300  0.288900  1
  N  N1556  1  0.169100  0.159700  0.788900  1
  N  N1557  1  0.590300  0.419100  0.038900  1
  N  N1558  1  0.909700  0.580900  0.538900  1
  N  N1559  1  0.830900  0.340300  0.788900  1
  N  N1560  1  0.669100  0.659700  0.288900  1
  N  N1561  1  0.782000  0.280400  0.388000  1
  N  N1562  1  0.718000  0.719600  0.888000  1
  N  N1563  1  0.469600  0.032000  0.638000  1
  N  N1564  1  0.030400  0.968000  0.138000  1
  N  N1565  1  0.282000  0.780400  0.888000  1
  N  N1566  1  0.218000  0.219600  0.388000  1
  N  N1567  1  0.969600  0.532000  0.138000  1
  N  N1568  1  0.530400  0.468000  0.638000  1
  N  N1569  1  0.218000  0.719600  0.612000  1
  N  N1570  1  0.282000  0.280400  0.112000  1
  N  N1571  1  0.530400  0.968000  0.362000  1
  N  N1572  1  0.969600  0.032000  0.862000  1
  N  N1573  1  0.718000  0.219600  0.112000  1
  N  N1574  1  0.782000  0.780400  0.612000  1
  N  N1575  1  0.030400  0.468000  0.862000  1
  N  N1576  1  0.469600  0.532000  0.362000  1
  N  N1577  1  0.851570  0.009970  0.345570  1.0
  N  N1578  1  0.648430  0.990030  0.845570  1.0
  N  N1579  1  0.740030  0.101570  0.595570  1.0
  N  N1580  1  0.759970  0.898430  0.095570  1.0
  N  N1581  1  0.351570  0.509970  0.845570  1.0
  N  N1582  1  0.148430  0.490030  0.345570  1.0
  N  N1583  1  0.240030  0.601570  0.095570  1.0
  N  N1584  1  0.259970  0.398430  0.595570  1.0
  N  N1585  1  0.148430  0.990030  0.654430  1.0
  N  N1586  1  0.351570  0.009970  0.154430  1.0
  N  N1587  1  0.259970  0.898430  0.404430  1.0
  N  N1588  1  0.240030  0.101570  0.904430  1.0
  N  N1589  1  0.648430  0.490030  0.154430  1.0
  N  N1590  1  0.851570  0.509970  0.654430  1.0
  N  N1591  1  0.759970  0.398430  0.904430  1.0
  N  N1592  1  0.740030  0.601570  0.404430  1.0
  N  N1593  1  0.007760  0.802200  0.126980  1.0
  N  N1594  1  0.492240  0.197800  0.626980  1.0
  N  N1595  1  0.947800  0.257760  0.376980  1.0
  N  N1596  1  0.552200  0.742240  0.876980  1.0
  N  N1597  1  0.507760  0.302200  0.626980  1.0
  N  N1598  1  0.992240  0.697800  0.126980  1.0
  N  N1599  1  0.447800  0.757760  0.876980  1.0
  N  N1600  1  0.052200  0.242240  0.376980  1.0
  N  N1601  1  0.992240  0.197800  0.873020  1.0
  N  N1602  1  0.507760  0.802200  0.373020  1.0
  N  N1603  1  0.052200  0.742240  0.623020  1.0
  N  N1604  1  0.447800  0.257760  0.123020  1.0
  N  N1605  1  0.492240  0.697800  0.373020  1.0
  N  N1606  1  0.007760  0.302200  0.873020  1.0
  N  N1607  1  0.552200  0.242240  0.123020  1.0
  N  N1608  1  0.947800  0.757760  0.623020  1.0
  N  N1609  1  0.217210  0.958500  0.341950  1.0
  N  N1610  1  0.282790  0.041500  0.841950  1.0
  N  N1611  1  0.791500  0.467210  0.591950  1.0
  N  N1612  1  0.708500  0.532790  0.091950  1.0
  N  N1613  1  0.717210  0.458500  0.841950  1.0
  N  N1614  1  0.782790  0.541500  0.341950  1.0
  N  N1615  1  0.291500  0.967210  0.091950  1.0
  N  N1616  1  0.208500  0.032790  0.591950  1.0
  N  N1617  1  0.782790  0.041500  0.658050  1.0
  N  N1618  1  0.717210  0.958500  0.158050  1.0
  N  N1619  1  0.208500  0.532790  0.408050  1.0
  N  N1620  1  0.291500  0.467210  0.908050  1.0
  N  N1621  1  0.282790  0.541500  0.158050  1.0
  N  N1622  1  0.217210  0.458500  0.658050  1.0
  N  N1623  1  0.708500  0.032790  0.908050  1.0
  N  N1624  1  0.791500  0.967210  0.408050  1.0
  N  N1625  1  0.977300  0.917500  0.252300  1.0
  N  N1626  1  0.522700  0.082500  0.752300  1.0
  N  N1627  1  0.832500  0.227300  0.502300  1.0
  N  N1628  1  0.667500  0.772700  0.002300  1.0
  N  N1629  1  0.477300  0.417500  0.752300  1.0
  N  N1630  1  0.022700  0.582500  0.252300  1.0
  N  N1631  1  0.332500  0.727300  0.002300  1.0
  N  N1632  1  0.167500  0.272700  0.502300  1.0
  N  N1633  1  0.022700  0.082500  0.747700  1.0
  N  N1634  1  0.477300  0.917500  0.247700  1.0
  N  N1635  1  0.167500  0.772700  0.497700  1.0
  N  N1636  1  0.332500  0.227300  0.997700  1.0
  N  N1637  1  0.522700  0.582500  0.247700  1.0
  N  N1638  1  0.977300  0.417500  0.747700  1.0
  N  N1639  1  0.667500  0.272700  0.997700  1.0
  N  N1640  1  0.832500  0.727300  0.497700  1.0
  N  N1641  1  0.068220  0.904200  0.252010  1.0
  N  N1642  1  0.431780  0.095800  0.752010  1.0
  N  N1643  1  0.845800  0.318220  0.502010  1.0
  N  N1644  1  0.654200  0.681780  0.002010  1.0
  N  N1645  1  0.568220  0.404200  0.752010  1.0
  N  N1646  1  0.931780  0.595800  0.252010  1.0
  N  N1647  1  0.345800  0.818220  0.002010  1.0
  N  N1648  1  0.154200  0.181780  0.502010  1.0
  N  N1649  1  0.931780  0.095800  0.747990  1.0
  N  N1650  1  0.568220  0.904200  0.247990  1.0
  N  N1651  1  0.154200  0.681780  0.497990  1.0
  N  N1652  1  0.345800  0.318220  0.997990  1.0
  N  N1653  1  0.431780  0.595800  0.247990  1.0
  N  N1654  1  0.068220  0.404200  0.747990  1.0
  N  N1655  1  0.654200  0.181780  0.997990  1.0
  N  N1656  1  0.845800  0.818220  0.497990  1.0
  N  N1657  1  0.029400  0.954700  0.305780  1.0
  N  N1658  1  0.470600  0.045300  0.805780  1.0
  N  N1659  1  0.795300  0.279400  0.555780  1.0
  N  N1660  1  0.704700  0.720600  0.055780  1.0
  N  N1661  1  0.529400  0.454700  0.805780  1.0
  N  N1662  1  0.970600  0.545300  0.305780  1.0
  N  N1663  1  0.295300  0.779400  0.055780  1.0
  N  N1664  1  0.204700  0.220600  0.555780  1.0
  N  N1665  1  0.970600  0.045300  0.694220  1.0
  N  N1666  1  0.529400  0.954700  0.194220  1.0
  N  N1667  1  0.204700  0.720600  0.444220  1.0
  N  N1668  1  0.295300  0.279400  0.944220  1.0
  N  N1669  1  0.470600  0.545300  0.194220  1.0
  N  N1670  1  0.029400  0.454700  0.694220  1.0
  N  N1671  1  0.704700  0.220600  0.944220  1.0
  N  N1672  1  0.795300  0.779400  0.444220  1.0
  N  N1673  1  0.787500  0.106400  0.347500  1.0
  N  N1674  1  0.712500  0.893600  0.847500  1.0
  N  N1675  1  0.643600  0.037500  0.597500  1.0
  N  N1676  1  0.856400  0.962500  0.097500  1.0
  N  N1677  1  0.287500  0.606400  0.847500  1.0
  N  N1678  1  0.212500  0.393600  0.347500  1.0
  N  N1679  1  0.143600  0.537500  0.097500  1.0
  N  N1680  1  0.356400  0.462500  0.597500  1.0
  N  N1681  1  0.212500  0.893600  0.652500  1.0
  N  N1682  1  0.287500  0.106400  0.152500  1.0
  N  N1683  1  0.356400  0.962500  0.402500  1.0
  N  N1684  1  0.143600  0.037500  0.902500  1.0
  N  N1685  1  0.712500  0.393600  0.152500  1.0
  N  N1686  1  0.787500  0.606400  0.652500  1.0
  N  N1687  1  0.856400  0.462500  0.902500  1.0
  N  N1688  1  0.643600  0.537500  0.402500  1.0
  N  N1689  1  0.724500  0.061800  0.409200  1.0
  N  N1690  1  0.775500  0.938200  0.909200  1.0
  N  N1691  1  0.688200  0.974500  0.659200  1.0
  N  N1692  1  0.811800  0.025500  0.159200  1.0
  N  N1693  1  0.224500  0.561800  0.909200  1.0
  N  N1694  1  0.275500  0.438200  0.409200  1.0
  N  N1695  1  0.188200  0.474500  0.159200  1.0
  N  N1696  1  0.311800  0.525500  0.659200  1.0
  N  N1697  1  0.275500  0.938200  0.590800  1.0
  N  N1698  1  0.224500  0.061800  0.090800  1.0
  N  N1699  1  0.311800  0.025500  0.340800  1.0
  N  N1700  1  0.188200  0.974500  0.840800  1.0
  N  N1701  1  0.775500  0.438200  0.090800  1.0
  N  N1702  1  0.724500  0.561800  0.590800  1.0
  N  N1703  1  0.811800  0.525500  0.840800  1.0
  N  N1704  1  0.688200  0.474500  0.340800  1.0
  N  N1705  1  0.008900  0.802700  0.031960  1.0
  N  N1706  1  0.491100  0.197300  0.531960  1.0
  N  N1707  1  0.947300  0.258900  0.281960  1.0
  N  N1708  1  0.552700  0.741100  0.781960  1.0
  N  N1709  1  0.508900  0.302700  0.531960  1.0
  N  N1710  1  0.991100  0.697300  0.031960  1.0
  N  N1711  1  0.447300  0.758900  0.781960  1.0
  N  N1712  1  0.052700  0.241100  0.281960  1.0
  N  N1713  1  0.991100  0.197300  0.968040  1.0
  N  N1714  1  0.508900  0.802700  0.468040  1.0
  N  N1715  1  0.052700  0.741100  0.718040  1.0
  N  N1716  1  0.447300  0.258900  0.218040  1.0
  N  N1717  1  0.491100  0.697300  0.468040  1.0
  N  N1718  1  0.008900  0.302700  0.968040  1.0
  N  N1719  1  0.552700  0.241100  0.218040  1.0
  N  N1720  1  0.947300  0.758900  0.718040  1.0
  O  O1721  1  0.722700  0.985100  0.294700  1
  O  O1722  1  0.777300  0.014900  0.794700  1
  O  O1723  1  0.764900  0.972700  0.544700  1
  O  O1724  1  0.735100  0.027300  0.044700  1
  O  O1725  1  0.222700  0.485100  0.794700  1
  O  O1726  1  0.277300  0.514900  0.294700  1
  O  O1727  1  0.264900  0.472700  0.044700  1
  O  O1728  1  0.235100  0.527300  0.544700  1
  O  O1729  1  0.277300  0.014900  0.705300  1
  O  O1730  1  0.222700  0.985100  0.205300  1
  O  O1731  1  0.235100  0.027300  0.455300  1
  O  O1732  1  0.264900  0.972700  0.955300  1
  O  O1733  1  0.777300  0.514900  0.205300  1
  O  O1734  1  0.722700  0.485100  0.705300  1
  O  O1735  1  0.735100  0.527300  0.955300  1
  O  O1736  1  0.764900  0.472700  0.455300  1
  O  O1737  1  0.667700  0.927800  0.322100  1
  O  O1738  1  0.832300  0.072200  0.822100  1
  O  O1739  1  0.822200  0.917700  0.572100  1
  O  O1740  1  0.677800  0.082300  0.072100  1
  O  O1741  1  0.167700  0.427800  0.822100  1
  O  O1742  1  0.332300  0.572200  0.322100  1
  O  O1743  1  0.322200  0.417700  0.072100  1
  O  O1744  1  0.177800  0.582300  0.572100  1
  O  O1745  1  0.332300  0.072200  0.677900  1
  O  O1746  1  0.167700  0.927800  0.177900  1
  O  O1747  1  0.177800  0.082300  0.427900  1
  O  O1748  1  0.322200  0.917700  0.927900  1
  O  O1749  1  0.832300  0.572200  0.177900  1
  O  O1750  1  0.667700  0.427800  0.677900  1
  O  O1751  1  0.677800  0.582300  0.927900  1
  O  O1752  1  0.822200  0.417700  0.427900  1
  O  O1753  1  0.644100  0.008500  0.291100  1
  O  O1754  1  0.855900  0.991500  0.791100  1
  O  O1755  1  0.741500  0.894100  0.541100  1
  O  O1756  1  0.758500  0.105900  0.041100  1
  O  O1757  1  0.144100  0.508500  0.791100  1
  O  O1758  1  0.355900  0.491500  0.291100  1
  O  O1759  1  0.241500  0.394100  0.041100  1
  O  O1760  1  0.258500  0.605900  0.541100  1
  O  O1761  1  0.355900  0.991500  0.708900  1
  O  O1762  1  0.144100  0.008500  0.208900  1
  O  O1763  1  0.258500  0.105900  0.458900  1
  O  O1764  1  0.241500  0.894100  0.958900  1
  O  O1765  1  0.855900  0.491500  0.208900  1
  O  O1766  1  0.644100  0.508500  0.708900  1
  O  O1767  1  0.758500  0.605900  0.958900  1
  O  O1768  1  0.741500  0.394100  0.458900  1
  O  O1769  1  0.896600  0.988000  0.554000  1
  O  O1770  1  0.603400  0.012000  0.054000  1
  O  O1771  1  0.762000  0.146600  0.804000  1
  O  O1772  1  0.738000  0.853400  0.304000  1
  O  O1773  1  0.396600  0.488000  0.054000  1
  O  O1774  1  0.103400  0.512000  0.554000  1
  O  O1775  1  0.262000  0.646600  0.304000  1
  O  O1776  1  0.238000  0.353400  0.804000  1
  O  O1777  1  0.103400  0.012000  0.446000  1
  O  O1778  1  0.396600  0.988000  0.946000  1
  O  O1779  1  0.238000  0.853400  0.196000  1
  O  O1780  1  0.262000  0.146600  0.696000  1
  O  O1781  1  0.603400  0.512000  0.946000  1
  O  O1782  1  0.896600  0.488000  0.446000  1
  O  O1783  1  0.738000  0.353400  0.696000  1
  O  O1784  1  0.762000  0.646600  0.196000  1
  O  O1785  1  0.872700  0.090700  0.450100  1
  O  O1786  1  0.627300  0.909300  0.950100  1
  O  O1787  1  0.659300  0.122700  0.700100  1
  O  O1788  1  0.840700  0.877300  0.200100  1
  O  O1789  1  0.372700  0.590700  0.950100  1
  O  O1790  1  0.127300  0.409300  0.450100  1
  O  O1791  1  0.159300  0.622700  0.200100  1
  O  O1792  1  0.340700  0.377300  0.700100  1
  O  O1793  1  0.127300  0.909300  0.549900  1
  O  O1794  1  0.372700  0.090700  0.049900  1
  O  O1795  1  0.340700  0.877300  0.299900  1
  O  O1796  1  0.159300  0.122700  0.799900  1
  O  O1797  1  0.627300  0.409300  0.049900  1
  O  O1798  1  0.872700  0.590700  0.549900  1
  O  O1799  1  0.840700  0.377300  0.799900  1
  O  O1800  1  0.659300  0.622700  0.299900  1
  O  O1801  1  0.867200  0.049200  0.510600  1
  O  O1802  1  0.632800  0.950800  0.010600  1
  O  O1803  1  0.700800  0.117200  0.760600  1
  O  O1804  1  0.799200  0.882800  0.260600  1
  O  O1805  1  0.367200  0.549200  0.010600  1
  O  O1806  1  0.132800  0.450800  0.510600  1
  O  O1807  1  0.200800  0.617200  0.260600  1
  O  O1808  1  0.299200  0.382800  0.760600  1
  O  O1809  1  0.132800  0.950800  0.489400  1
  O  O1810  1  0.367200  0.049200  0.989400  1
  O  O1811  1  0.299200  0.882800  0.239400  1
  O  O1812  1  0.200800  0.117200  0.739400  1
  O  O1813  1  0.632800  0.450800  0.989400  1
  O  O1814  1  0.867200  0.549200  0.489400  1
  O  O1815  1  0.799200  0.382800  0.739400  1
  O  O1816  1  0.700800  0.617200  0.239400  1
  O  O1817  1  0.940900  0.072000  0.483700  1
  O  O1818  1  0.559100  0.928000  0.983700  1
  O  O1819  1  0.678000  0.190900  0.733700  1
  O  O1820  1  0.822000  0.809100  0.233700  1
  O  O1821  1  0.440900  0.572000  0.983700  1
  O  O1822  1  0.059100  0.428000  0.483700  1
  O  O1823  1  0.178000  0.690900  0.233700  1
  O  O1824  1  0.322000  0.309100  0.733700  1
  O  O1825  1  0.059100  0.928000  0.516300  1
  O  O1826  1  0.440900  0.072000  0.016300  1
  O  O1827  1  0.322000  0.809100  0.266300  1
  O  O1828  1  0.178000  0.190900  0.766300  1
  O  O1829  1  0.559100  0.428000  0.016300  1
  O  O1830  1  0.940900  0.572000  0.516300  1
  O  O1831  1  0.822000  0.309100  0.766300  1
  O  O1832  1  0.678000  0.690900  0.266300  1
  O  O1833  1  0.033600  0.056700  0.403300  1
  O  O1834  1  0.466400  0.943300  0.903300  1
  O  O1835  1  0.693300  0.283600  0.653300  1
  O  O1836  1  0.806700  0.716400  0.153300  1
  O  O1837  1  0.533600  0.556700  0.903300  1
  O  O1838  1  0.966400  0.443300  0.403300  1
  O  O1839  1  0.193300  0.783600  0.153300  1
  O  O1840  1  0.306700  0.216400  0.653300  1
  O  O1841  1  0.966400  0.943300  0.596700  1
  O  O1842  1  0.533600  0.056700  0.096700  1
  O  O1843  1  0.306700  0.716400  0.346700  1
  O  O1844  1  0.193300  0.283600  0.846700  1
  O  O1845  1  0.466400  0.443300  0.096700  1
  O  O1846  1  0.033600  0.556700  0.596700  1
  O  O1847  1  0.806700  0.216400  0.846700  1
  O  O1848  1  0.693300  0.783600  0.346700  1
  O  O1849  1  0.679400  0.241600  0.513000  1
  O  O1850  1  0.820600  0.758400  0.013000  1
  O  O1851  1  0.508400  0.929400  0.763000  1
  O  O1852  1  0.991600  0.070600  0.263000  1
  O  O1853  1  0.179400  0.741600  0.013000  1
  O  O1854  1  0.320600  0.258400  0.513000  1
  O  O1855  1  0.008400  0.429400  0.263000  1
  O  O1856  1  0.491600  0.570600  0.763000  1
  O  O1857  1  0.320600  0.758400  0.487000  1
  O  O1858  1  0.179400  0.241600  0.987000  1
  O  O1859  1  0.491600  0.070600  0.237000  1
  O  O1860  1  0.008400  0.929400  0.737000  1
  O  O1861  1  0.820600  0.258400  0.987000  1
  O  O1862  1  0.679400  0.741600  0.487000  1
  O  O1863  1  0.991600  0.570600  0.737000  1
  O  O1864  1  0.508400  0.429400  0.237000  1
  O  O1865  1  0.653200  0.164200  0.508600  1
  O  O1866  1  0.846800  0.835800  0.008600  1
  O  O1867  1  0.585800  0.903200  0.758600  1
  O  O1868  1  0.914200  0.096800  0.258600  1
  O  O1869  1  0.153200  0.664200  0.008600  1
  O  O1870  1  0.346800  0.335800  0.508600  1
  O  O1871  1  0.085800  0.403200  0.258600  1
  O  O1872  1  0.414200  0.596800  0.758600  1
  O  O1873  1  0.346800  0.835800  0.491400  1
  O  O1874  1  0.153200  0.164200  0.991400  1
  O  O1875  1  0.414200  0.096800  0.241400  1
  O  O1876  1  0.085800  0.903200  0.741400  1
  O  O1877  1  0.846800  0.335800  0.991400  1
  O  O1878  1  0.653200  0.664200  0.491400  1
  O  O1879  1  0.914200  0.596800  0.741400  1
  O  O1880  1  0.585800  0.403200  0.241400  1
  O  O1881  1  0.695700  0.204200  0.453400  1
  O  O1882  1  0.804300  0.795800  0.953400  1
  O  O1883  1  0.545800  0.945700  0.703400  1
  O  O1884  1  0.954200  0.054300  0.203400  1
  O  O1885  1  0.195700  0.704200  0.953400  1
  O  O1886  1  0.304300  0.295800  0.453400  1
  O  O1887  1  0.045800  0.445700  0.203400  1
  O  O1888  1  0.454200  0.554300  0.703400  1
  O  O1889  1  0.304300  0.795800  0.546600  1
  O  O1890  1  0.195700  0.204200  0.046600  1
  O  O1891  1  0.454200  0.054300  0.296600  1
  O  O1892  1  0.045800  0.945700  0.796600  1
  O  O1893  1  0.804300  0.295800  0.046600  1
  O  O1894  1  0.695700  0.704200  0.546600  1
  O  O1895  1  0.954200  0.554300  0.796600  1
  O  O1896  1  0.545800  0.445700  0.296600  1
  O  O1897  1  0.586300  0.111900  0.446700  1
  O  O1898  1  0.913700  0.888100  0.946700  1
  O  O1899  1  0.638100  0.836300  0.696700  1
  O  O1900  1  0.861900  0.163700  0.196700  1
  O  O1901  1  0.086300  0.611900  0.946700  1
  O  O1902  1  0.413700  0.388100  0.446700  1
  O  O1903  1  0.138100  0.336300  0.196700  1
  O  O1904  1  0.361900  0.663700  0.696700  1
  O  O1905  1  0.413700  0.888100  0.553300  1
  O  O1906  1  0.086300  0.111900  0.053300  1
  O  O1907  1  0.361900  0.163700  0.303300  1
  O  O1908  1  0.138100  0.836300  0.803300  1
  O  O1909  1  0.913700  0.388100  0.053300  1
  O  O1910  1  0.586300  0.611900  0.553300  1
  O  O1911  1  0.861900  0.663700  0.803300  1
  O  O1912  1  0.638100  0.336300  0.303300  1
  O  O1913  1  0.973400  0.125100  0.336600  1
  O  O1914  1  0.526600  0.874900  0.836600  1
  O  O1915  1  0.624900  0.223400  0.586600  1
  O  O1916  1  0.875100  0.776600  0.086600  1
  O  O1917  1  0.473400  0.625100  0.836600  1
  O  O1918  1  0.026600  0.374900  0.336600  1
  O  O1919  1  0.124900  0.723400  0.086600  1
  O  O1920  1  0.375100  0.276600  0.586600  1
  O  O1921  1  0.026600  0.874900  0.663400  1
  O  O1922  1  0.473400  0.125100  0.163400  1
  O  O1923  1  0.375100  0.776600  0.413400  1
  O  O1924  1  0.124900  0.223400  0.913400  1
  O  O1925  1  0.526600  0.374900  0.163400  1
  O  O1926  1  0.973400  0.625100  0.663400  1
  O  O1927  1  0.875100  0.276600  0.913400  1
  O  O1928  1  0.624900  0.723400  0.413400  1
  O  O1929  1  0.810100  0.288600  0.350900  1
  O  O1930  1  0.689900  0.711400  0.850900  1
  O  O1931  1  0.461400  0.060100  0.600900  1
  O  O1932  1  0.038600  0.939900  0.100900  1
  O  O1933  1  0.310100  0.788600  0.850900  1
  O  O1934  1  0.189900  0.211400  0.350900  1
  O  O1935  1  0.961400  0.560100  0.100900  1
  O  O1936  1  0.538600  0.439900  0.600900  1
  O  O1937  1  0.189900  0.711400  0.649100  1
  O  O1938  1  0.310100  0.288600  0.149100  1
  O  O1939  1  0.538600  0.939900  0.399100  1
  O  O1940  1  0.961400  0.060100  0.899100  1
  O  O1941  1  0.689900  0.211400  0.149100  1
  O  O1942  1  0.810100  0.788600  0.649100  1
  O  O1943  1  0.038600  0.439900  0.899100  1
  O  O1944  1  0.461400  0.560100  0.399100  1
  O  O1945  1  0.753400  0.289800  0.425300  1
  O  O1946  1  0.746600  0.710200  0.925300  1
  O  O1947  1  0.460200  0.003400  0.675300  1
  O  O1948  1  0.039800  0.996600  0.175300  1
  O  O1949  1  0.253400  0.789800  0.925300  1
  O  O1950  1  0.246600  0.210200  0.425300  1
  O  O1951  1  0.960200  0.503400  0.175300  1
  O  O1952  1  0.539800  0.496600  0.675300  1
  O  O1953  1  0.246600  0.710200  0.574700  1
  O  O1954  1  0.253400  0.289800  0.074700  1
  O  O1955  1  0.539800  0.996600  0.324700  1
  O  O1956  1  0.960200  0.003400  0.824700  1
  O  O1957  1  0.746600  0.210200  0.074700  1
  O  O1958  1  0.753400  0.789800  0.574700  1
  O  O1959  1  0.039800  0.496600  0.824700  1
  O  O1960  1  0.460200  0.503400  0.324700  1
  O  O1961  1  0.660500  0.233700  0.319400  1
  O  O1962  1  0.839500  0.766300  0.819400  1
  O  O1963  1  0.516300  0.910500  0.569400  1
  O  O1964  1  0.983700  0.089500  0.069400  1
  O  O1965  1  0.160500  0.733700  0.819400  1
  O  O1966  1  0.339500  0.266300  0.319400  1
  O  O1967  1  0.016300  0.410500  0.069400  1
  O  O1968  1  0.483700  0.589500  0.569400  1
  O  O1969  1  0.339500  0.766300  0.680600  1
  O  O1970  1  0.160500  0.233700  0.180600  1
  O  O1971  1  0.483700  0.089500  0.430600  1
  O  O1972  1  0.016300  0.910500  0.930600  1
  O  O1973  1  0.839500  0.266300  0.180600  1
  O  O1974  1  0.660500  0.733700  0.680600  1
  O  O1975  1  0.983700  0.589500  0.930600  1
  O  O1976  1  0.516300  0.410500  0.430600  1
  O  O1977  1  0.621200  0.159500  0.321800  1
  O  O1978  1  0.878800  0.840500  0.821800  1
  O  O1979  1  0.590500  0.871200  0.571800  1
  O  O1980  1  0.909500  0.128800  0.071800  1
  O  O1981  1  0.121200  0.659500  0.821800  1
  O  O1982  1  0.378800  0.340500  0.321800  1
  O  O1983  1  0.090500  0.371200  0.071800  1
  O  O1984  1  0.409500  0.628800  0.571800  1
  O  O1985  1  0.378800  0.840500  0.678200  1
  O  O1986  1  0.121200  0.159500  0.178200  1
  O  O1987  1  0.409500  0.128800  0.428200  1
  O  O1988  1  0.090500  0.871200  0.928200  1
  O  O1989  1  0.878800  0.340500  0.178200  1
  O  O1990  1  0.621200  0.659500  0.678200  1
  O  O1991  1  0.909500  0.628800  0.928200  1
  O  O1992  1  0.590500  0.371200  0.428200  1
  O  O1993  1  0.551000  0.121000  0.354000  1
  O  O1994  1  0.949000  0.879000  0.854000  1
  O  O1995  1  0.629000  0.801000  0.604000  1
  O  O1996  1  0.871000  0.199000  0.104000  1
  O  O1997  1  0.051000  0.621000  0.854000  1
  O  O1998  1  0.449000  0.379000  0.354000  1
  O  O1999  1  0.129000  0.301000  0.104000  1
  O  O2000  1  0.371000  0.699000  0.604000  1
  O  O2001  1  0.449000  0.879000  0.646000  1
  O  O2002  1  0.051000  0.121000  0.146000  1
  O  O2003  1  0.371000  0.199000  0.396000  1
  O  O2004  1  0.129000  0.801000  0.896000  1
  O  O2005  1  0.949000  0.379000  0.146000  1
  O  O2006  1  0.551000  0.621000  0.646000  1
  O  O2007  1  0.871000  0.699000  0.896000  1
  O  O2008  1  0.629000  0.301000  0.396000  1
  O  O2009  1  0.668100  0.426500  0.525400  1
  O  O2010  1  0.831900  0.573500  0.025400  1
  O  O2011  1  0.323500  0.918100  0.775400  1
  O  O2012  1  0.176500  0.081900  0.275400  1
  O  O2013  1  0.168100  0.926500  0.025400  1
  O  O2014  1  0.331900  0.073500  0.525400  1
  O  O2015  1  0.823500  0.418100  0.275400  1
  O  O2016  1  0.676500  0.581900  0.775400  1
  O  O2017  1  0.331900  0.573500  0.474600  1
  O  O2018  1  0.168100  0.426500  0.974600  1
  O  O2019  1  0.676500  0.081900  0.224600  1
  O  O2020  1  0.823500  0.918100  0.724600  1
  O  O2021  1  0.831900  0.073500  0.974600  1
  O  O2022  1  0.668100  0.926500  0.474600  1
  O  O2023  1  0.176500  0.581900  0.724600  1
  O  O2024  1  0.323500  0.418100  0.224600  1
  O  O2025  1  0.712000  0.304000  0.479900  1
  O  O2026  1  0.788000  0.696000  0.979900  1
  O  O2027  1  0.446000  0.962000  0.729900  1
  O  O2028  1  0.054000  0.038000  0.229900  1
  O  O2029  1  0.212000  0.804000  0.979900  1
  O  O2030  1  0.288000  0.196000  0.479900  1
  O  O2031  1  0.946000  0.462000  0.229900  1
  O  O2032  1  0.554000  0.538000  0.729900  1
  O  O2033  1  0.288000  0.696000  0.520100  1
  O  O2034  1  0.212000  0.304000  0.020100  1
  O  O2035  1  0.554000  0.038000  0.270100  1
  O  O2036  1  0.946000  0.962000  0.770100  1
  O  O2037  1  0.788000  0.196000  0.020100  1
  O  O2038  1  0.712000  0.804000  0.520100  1
  O  O2039  1  0.054000  0.538000  0.770100  1
  O  O2040  1  0.446000  0.462000  0.270100  1
  O  O2041  1  0.000000  0.750000  0.875000  1
  O  O2042  1  0.500000  0.250000  0.375000  1
  O  O2043  1  0.000000  0.250000  0.125000  1
  O  O2044  1  0.500000  0.750000  0.625000  1
  O  O2045  1  0.634000  0.902500  0.400800  1
  O  O2046  1  0.866000  0.097500  0.900800  1
  O  O2047  1  0.847500  0.884000  0.650800  1
  O  O2048  1  0.652500  0.116000  0.150800  1
  O  O2049  1  0.134000  0.402500  0.900800  1
  O  O2050  1  0.366000  0.597500  0.400800  1
  O  O2051  1  0.347500  0.384000  0.150800  1
  O  O2052  1  0.152500  0.616000  0.650800  1
  O  O2053  1  0.366000  0.097500  0.599200  1
  O  O2054  1  0.134000  0.902500  0.099200  1
  O  O2055  1  0.152500  0.116000  0.349200  1
  O  O2056  1  0.347500  0.884000  0.849200  1
  O  O2057  1  0.866000  0.597500  0.099200  1
  O  O2058  1  0.634000  0.402500  0.599200  1
  O  O2059  1  0.652500  0.616000  0.849200  1
  O  O2060  1  0.847500  0.384000  0.349200  1
  O  O2061  1  0.725400  0.175100  0.221200  1
  O  O2062  1  0.774600  0.824900  0.721200  1
  O  O2063  1  0.574900  0.975400  0.471200  1
  O  O2064  1  0.925100  0.024600  0.971200  1
  O  O2065  1  0.225400  0.675100  0.721200  1
  O  O2066  1  0.274600  0.324900  0.221200  1
  O  O2067  1  0.074900  0.475400  0.971200  1
  O  O2068  1  0.425100  0.524600  0.471200  1
  O  O2069  1  0.274600  0.824900  0.778800  1
  O  O2070  1  0.225400  0.175100  0.278800  1
  O  O2071  1  0.425100  0.024600  0.528800  1
  O  O2072  1  0.074900  0.975400  0.028800  1
  O  O2073  1  0.774600  0.324900  0.278800  1
  O  O2074  1  0.725400  0.675100  0.778800  1
  O  O2075  1  0.925100  0.524600  0.028800  1
  O  O2076  1  0.574900  0.475400  0.528800  1
  O  O2077  1  0.504500  0.021800  0.464100  1
  O  O2078  1  0.995500  0.978200  0.964100  1
  O  O2079  1  0.728200  0.754500  0.714100  1
  O  O2080  1  0.771800  0.245500  0.214100  1
  O  O2081  1  0.004500  0.521800  0.964100  1
  O  O2082  1  0.495500  0.478200  0.464100  1
  O  O2083  1  0.228200  0.254500  0.214100  1
  O  O2084  1  0.271800  0.745500  0.714100  1
  O  O2085  1  0.495500  0.978200  0.535900  1
  O  O2086  1  0.004500  0.021800  0.035900  1
  O  O2087  1  0.271800  0.245500  0.285900  1
  O  O2088  1  0.228200  0.754500  0.785900  1
  O  O2089  1  0.995500  0.478200  0.035900  1
  O  O2090  1  0.504500  0.521800  0.535900  1
  O  O2091  1  0.771800  0.745500  0.785900  1
  O  O2092  1  0.728200  0.254500  0.285900  1
  O  O2093  1  0.887000  0.943000  0.565000  1
  O  O2094  1  0.613000  0.057000  0.065000  1
  O  O2095  1  0.807000  0.137000  0.815000  1
  O  O2096  1  0.693000  0.863000  0.315000  1
  O  O2097  1  0.387000  0.443000  0.065000  1
  O  O2098  1  0.113000  0.557000  0.565000  1
  O  O2099  1  0.307000  0.637000  0.315000  1
  O  O2100  1  0.193000  0.363000  0.815000  1
  O  O2101  1  0.113000  0.057000  0.435000  1
  O  O2102  1  0.387000  0.943000  0.935000  1
  O  O2103  1  0.193000  0.863000  0.185000  1
  O  O2104  1  0.307000  0.137000  0.685000  1
  O  O2105  1  0.613000  0.557000  0.935000  1
  O  O2106  1  0.887000  0.443000  0.435000  1
  O  O2107  1  0.693000  0.363000  0.685000  1
  O  O2108  1  0.807000  0.637000  0.185000  1
  O  O2109  1  0.862000  0.083500  0.461700  1
  O  O2110  1  0.638000  0.916500  0.961700  1
  O  O2111  1  0.666500  0.112000  0.711700  1
  O  O2112  1  0.833500  0.888000  0.211700  1
  O  O2113  1  0.362000  0.583500  0.961700  1
  O  O2114  1  0.138000  0.416500  0.461700  1
  O  O2115  1  0.166500  0.612000  0.211700  1
  O  O2116  1  0.333500  0.388000  0.711700  1
  O  O2117  1  0.138000  0.916500  0.538300  1
  O  O2118  1  0.362000  0.083500  0.038300  1
  O  O2119  1  0.333500  0.888000  0.288300  1
  O  O2120  1  0.166500  0.112000  0.788300  1
  O  O2121  1  0.638000  0.416500  0.038300  1
  O  O2122  1  0.862000  0.583500  0.538300  1
  O  O2123  1  0.833500  0.388000  0.788300  1
  O  O2124  1  0.666500  0.612000  0.288300  1
  O  O2125  1  0.933000  0.040600  0.479300  1
  O  O2126  1  0.567000  0.959400  0.979300  1
  O  O2127  1  0.709400  0.183000  0.729300  1
  O  O2128  1  0.790600  0.817000  0.229300  1
  O  O2129  1  0.433000  0.540600  0.979300  1
  O  O2130  1  0.067000  0.459400  0.479300  1
  O  O2131  1  0.209400  0.683000  0.229300  1
  O  O2132  1  0.290600  0.317000  0.729300  1
  O  O2133  1  0.067000  0.959400  0.520700  1
  O  O2134  1  0.433000  0.040600  0.020700  1
  O  O2135  1  0.290600  0.817000  0.270700  1
  O  O2136  1  0.209400  0.183000  0.770700  1
  O  O2137  1  0.567000  0.459400  0.020700  1
  O  O2138  1  0.933000  0.540600  0.520700  1
  O  O2139  1  0.790600  0.317000  0.770700  1
  O  O2140  1  0.709400  0.683000  0.270700  1
  O  O2141  1  0.940100  0.101700  0.434100  1
  O  O2142  1  0.559900  0.898300  0.934100  1
  O  O2143  1  0.648300  0.190100  0.684100  1
  O  O2144  1  0.851700  0.809900  0.184100  1
  O  O2145  1  0.440100  0.601700  0.934100  1
  O  O2146  1  0.059900  0.398300  0.434100  1
  O  O2147  1  0.148300  0.690100  0.184100  1
  O  O2148  1  0.351700  0.309900  0.684100  1
  O  O2149  1  0.059900  0.898300  0.565900  1
  O  O2150  1  0.440100  0.101700  0.065900  1
  O  O2151  1  0.351700  0.809900  0.315900  1
  O  O2152  1  0.148300  0.190100  0.815900  1
  O  O2153  1  0.559900  0.398300  0.065900  1
  O  O2154  1  0.940100  0.601700  0.565900  1
  O  O2155  1  0.851700  0.309900  0.815900  1
  O  O2156  1  0.648300  0.690100  0.315900  1
  O  O2157  1  0.002800  0.076000  0.413100  1
  O  O2158  1  0.497200  0.924000  0.913100  1
  O  O2159  1  0.674000  0.252800  0.663100  1
  O  O2160  1  0.826000  0.747200  0.163100  1
  O  O2161  1  0.502800  0.576000  0.913100  1
  O  O2162  1  0.997200  0.424000  0.413100  1
  O  O2163  1  0.174000  0.752800  0.163100  1
  O  O2164  1  0.326000  0.247200  0.663100  1
  O  O2165  1  0.997200  0.924000  0.586900  1
  O  O2166  1  0.502800  0.076000  0.086900  1
  O  O2167  1  0.326000  0.747200  0.336900  1
  O  O2168  1  0.174000  0.252800  0.836900  1
  O  O2169  1  0.497200  0.424000  0.086900  1
  O  O2170  1  0.002800  0.576000  0.586900  1
  O  O2171  1  0.826000  0.247200  0.836900  1
  O  O2172  1  0.674000  0.752800  0.336900  1
  O  O2173  1  0.059600  0.085500  0.334800  1
  O  O2174  1  0.440400  0.914500  0.834800  1
  O  O2175  1  0.664500  0.309600  0.584800  1
  O  O2176  1  0.835500  0.690400  0.084800  1
  O  O2177  1  0.559600  0.585500  0.834800  1
  O  O2178  1  0.940400  0.414500  0.334800  1
  O  O2179  1  0.164500  0.809600  0.084800  1
  O  O2180  1  0.335500  0.190400  0.584800  1
  O  O2181  1  0.940400  0.914500  0.665200  1
  O  O2182  1  0.559600  0.085500  0.165200  1
  O  O2183  1  0.335500  0.690400  0.415200  1
  O  O2184  1  0.164500  0.309600  0.915200  1
  O  O2185  1  0.440400  0.414500  0.165200  1
  O  O2186  1  0.059600  0.585500  0.665200  1
  O  O2187  1  0.835500  0.190400  0.915200  1
  O  O2188  1  0.664500  0.809600  0.415200  1
  O  O2189  1  0.632800  0.179600  0.459700  1
  O  O2190  1  0.867200  0.820400  0.959700  1
  O  O2191  1  0.570400  0.882800  0.709700  1
  O  O2192  1  0.929600  0.117200  0.209700  1
  O  O2193  1  0.132800  0.679600  0.959700  1
  O  O2194  1  0.367200  0.320400  0.459700  1
  O  O2195  1  0.070400  0.382800  0.209700  1
  O  O2196  1  0.429600  0.617200  0.709700  1
  O  O2197  1  0.367200  0.820400  0.540300  1
  O  O2198  1  0.132800  0.179600  0.040300  1
  O  O2199  1  0.429600  0.117200  0.290300  1
  O  O2200  1  0.070400  0.882800  0.790300  1
  O  O2201  1  0.867200  0.320400  0.040300  1
  O  O2202  1  0.632800  0.679600  0.540300  1
  O  O2203  1  0.929600  0.617200  0.790300  1
  O  O2204  1  0.570400  0.382800  0.290300  1
  O  O2205  1  0.792600  0.267300  0.348600  1
  O  O2206  1  0.707400  0.732700  0.848600  1
  O  O2207  1  0.482700  0.042600  0.598600  1
  O  O2208  1  0.017300  0.957400  0.098600  1
  O  O2209  1  0.292600  0.767300  0.848600  1
  O  O2210  1  0.207400  0.232700  0.348600  1
  O  O2211  1  0.982700  0.542600  0.098600  1
  O  O2212  1  0.517300  0.457400  0.598600  1
  O  O2213  1  0.207400  0.732700  0.651400  1
  O  O2214  1  0.292600  0.267300  0.151400  1
  O  O2215  1  0.517300  0.957400  0.401400  1
  O  O2216  1  0.982700  0.042600  0.901400  1
  O  O2217  1  0.707400  0.232700  0.151400  1
  O  O2218  1  0.792600  0.767300  0.651400  1
  O  O2219  1  0.017300  0.457400  0.901400  1
  O  O2220  1  0.482700  0.542600  0.401400  1
  O  O2221  1  0.779500  0.327900  0.404700  1
  O  O2222  1  0.720500  0.672100  0.904700  1
  O  O2223  1  0.422100  0.029500  0.654700  1
  O  O2224  1  0.077900  0.970500  0.154700  1
  O  O2225  1  0.279500  0.827900  0.904700  1
  O  O2226  1  0.220500  0.172100  0.404700  1
  O  O2227  1  0.922100  0.529500  0.154700  1
  O  O2228  1  0.577900  0.470500  0.654700  1
  O  O2229  1  0.220500  0.672100  0.595300  1
  O  O2230  1  0.279500  0.327900  0.095300  1
  O  O2231  1  0.577900  0.970500  0.345300  1
  O  O2232  1  0.922100  0.029500  0.845300  1
  O  O2233  1  0.720500  0.172100  0.095300  1
  O  O2234  1  0.779500  0.827900  0.595300  1
  O  O2235  1  0.077900  0.470500  0.845300  1
  O  O2236  1  0.422100  0.529500  0.345300  1
  O  O2237  1  0.753800  0.241200  0.400400  1
  O  O2238  1  0.746200  0.758800  0.900400  1
  O  O2239  1  0.508800  0.003800  0.650400  1
  O  O2240  1  0.991200  0.996200  0.150400  1
  O  O2241  1  0.253800  0.741200  0.900400  1
  O  O2242  1  0.246200  0.258800  0.400400  1
  O  O2243  1  0.008800  0.503800  0.150400  1
  O  O2244  1  0.491200  0.496200  0.650400  1
  O  O2245  1  0.246200  0.758800  0.599600  1
  O  O2246  1  0.253800  0.241200  0.099600  1
  O  O2247  1  0.491200  0.996200  0.349600  1
  O  O2248  1  0.008800  0.003800  0.849600  1
  O  O2249  1  0.746200  0.258800  0.099600  1
  O  O2250  1  0.753800  0.741200  0.599600  1
  O  O2251  1  0.991200  0.496200  0.849600  1
  O  O2252  1  0.508800  0.503800  0.349600  1
  O  O2253  1  0.671000  0.184000  0.290300  1
  O  O2254  1  0.829000  0.816000  0.790300  1
  O  O2255  1  0.566000  0.921000  0.540300  1
  O  O2256  1  0.934000  0.079000  0.040300  1
  O  O2257  1  0.171000  0.684000  0.790300  1
  O  O2258  1  0.329000  0.316000  0.290300  1
  O  O2259  1  0.066000  0.421000  0.040300  1
  O  O2260  1  0.434000  0.579000  0.540300  1
  O  O2261  1  0.329000  0.816000  0.709700  1
  O  O2262  1  0.171000  0.184000  0.209700  1
  O  O2263  1  0.434000  0.079000  0.459700  1
  O  O2264  1  0.066000  0.921000  0.959700  1
  O  O2265  1  0.829000  0.316000  0.209700  1
  O  O2266  1  0.671000  0.684000  0.709700  1
  O  O2267  1  0.934000  0.579000  0.959700  1
  O  O2268  1  0.566000  0.421000  0.459700  1
  O  O2269  1  0.496800  0.158900  0.344100  1
  O  O2270  1  0.003200  0.841100  0.844100  1
  O  O2271  1  0.591100  0.746800  0.594100  1
  O  O2272  1  0.908900  0.253200  0.094100  1
  O  O2273  1  0.996800  0.658900  0.844100  1
  O  O2274  1  0.503200  0.341100  0.344100  1
  O  O2275  1  0.091100  0.246800  0.094100  1
  O  O2276  1  0.408900  0.753200  0.594100  1
  O  O2277  1  0.503200  0.841100  0.655900  1
  O  O2278  1  0.996800  0.158900  0.155900  1
  O  O2279  1  0.408900  0.253200  0.405900  1
  O  O2280  1  0.091100  0.746800  0.905900  1
  O  O2281  1  0.003200  0.341100  0.155900  1
  O  O2282  1  0.496800  0.658900  0.655900  1
  O  O2283  1  0.908900  0.753200  0.905900  1
  O  O2284  1  0.591100  0.246800  0.405900  1
  O  O2285  1  0.673000  0.370000  0.490900  1
  O  O2286  1  0.827000  0.630000  0.990900  1
  O  O2287  1  0.380000  0.923000  0.740900  1
  O  O2288  1  0.120000  0.077000  0.240900  1
  O  O2289  1  0.173000  0.870000  0.990900  1
  O  O2290  1  0.327000  0.130000  0.490900  1
  O  O2291  1  0.880000  0.423000  0.240900  1
  O  O2292  1  0.620000  0.577000  0.740900  1
  O  O2293  1  0.327000  0.630000  0.509100  1
  O  O2294  1  0.173000  0.370000  0.009100  1
  O  O2295  1  0.620000  0.077000  0.259100  1
  O  O2296  1  0.880000  0.923000  0.759100  1
  O  O2297  1  0.827000  0.130000  0.009100  1
  O  O2298  1  0.673000  0.870000  0.509100  1
  O  O2299  1  0.120000  0.577000  0.759100  1
  O  O2300  1  0.380000  0.423000  0.259100  1
  F  F2301  1  0.798800  0.709800  0.310100  1
  F  F2302  1  0.701200  0.290200  0.810100  1
  F  F2303  1  0.040200  0.048800  0.560100  1
  F  F2304  1  0.459800  0.951200  0.060100  1
  F  F2305  1  0.298800  0.209800  0.810100  1
  F  F2306  1  0.201200  0.790200  0.310100  1
  F  F2307  1  0.540200  0.548800  0.060100  1
  F  F2308  1  0.959800  0.451200  0.560100  1
  F  F2309  1  0.201200  0.290200  0.689900  1
  F  F2310  1  0.298800  0.709800  0.189900  1
  F  F2311  1  0.959800  0.951200  0.439900  1
  F  F2312  1  0.540200  0.048800  0.939900  1
  F  F2313  1  0.701200  0.790200  0.189900  1
  F  F2314  1  0.798800  0.209800  0.689900  1
  F  F2315  1  0.459800  0.451200  0.939900  1
  F  F2316  1  0.040200  0.548800  0.439900  1
  F  F2317  1  0.860800  0.704900  0.247600  1
  F  F2318  1  0.639200  0.295100  0.747600  1
  F  F2319  1  0.045100  0.110800  0.497600  1
  F  F2320  1  0.454900  0.889200  0.997600  1
  F  F2321  1  0.360800  0.204900  0.747600  1
  F  F2322  1  0.139200  0.795100  0.247600  1
  F  F2323  1  0.545100  0.610800  0.997600  1
  F  F2324  1  0.954900  0.389200  0.497600  1
  F  F2325  1  0.139200  0.295100  0.752400  1
  F  F2326  1  0.360800  0.704900  0.252400  1
  F  F2327  1  0.954900  0.889200  0.502400  1
  F  F2328  1  0.545100  0.110800  0.002400  1
  F  F2329  1  0.639200  0.795100  0.252400  1
  F  F2330  1  0.860800  0.204900  0.752400  1
  F  F2331  1  0.454900  0.389200  0.002400  1
  F  F2332  1  0.045100  0.610800  0.502400  1
  F  F2333  1  0.948000  0.757900  0.245400  1
  F  F2334  1  0.552000  0.242100  0.745400  1
  F  F2335  1  0.992100  0.198000  0.495400  1
  F  F2336  1  0.507900  0.802000  0.995400  1
  F  F2337  1  0.448000  0.257900  0.745400  1
  F  F2338  1  0.052000  0.742100  0.245400  1
  F  F2339  1  0.492100  0.698000  0.995400  1
  F  F2340  1  0.007900  0.302000  0.495400  1
  F  F2341  1  0.052000  0.242100  0.754600  1
  F  F2342  1  0.448000  0.757900  0.254600  1
  F  F2343  1  0.007900  0.802000  0.504600  1
  F  F2344  1  0.492100  0.198000  0.004600  1
  F  F2345  1  0.552000  0.742100  0.254600  1
  F  F2346  1  0.948000  0.257900  0.754600  1
  F  F2347  1  0.507900  0.302000  0.004600  1
  F  F2348  1  0.992100  0.698000  0.504600  1
  F  F2349  1  0.973000  0.822700  0.314400  1
  F  F2350  1  0.527000  0.177300  0.814400  1
  F  F2351  1  0.927300  0.223000  0.564400  1
  F  F2352  1  0.572700  0.777000  0.064400  1
  F  F2353  1  0.473000  0.322700  0.814400  1
  F  F2354  1  0.027000  0.677300  0.314400  1
  F  F2355  1  0.427300  0.723000  0.064400  1
  F  F2356  1  0.072700  0.277000  0.564400  1
  F  F2357  1  0.027000  0.177300  0.685600  1
  F  F2358  1  0.473000  0.822700  0.185600  1
  F  F2359  1  0.072700  0.777000  0.435600  1
  F  F2360  1  0.427300  0.223000  0.935600  1
  F  F2361  1  0.527000  0.677300  0.185600  1
  F  F2362  1  0.973000  0.322700  0.685600  1
  F  F2363  1  0.572700  0.277000  0.935600  1
  F  F2364  1  0.927300  0.723000  0.435600  1
  F  F2365  1  0.903100  0.834200  0.376700  1
  F  F2366  1  0.596900  0.165800  0.876700  1
  F  F2367  1  0.915800  0.153100  0.626700  1
  F  F2368  1  0.584200  0.846900  0.126700  1
  F  F2369  1  0.403100  0.334200  0.876700  1
  F  F2370  1  0.096900  0.665800  0.376700  1
  F  F2371  1  0.415800  0.653100  0.126700  1
  F  F2372  1  0.084200  0.346900  0.626700  1
  F  F2373  1  0.096900  0.165800  0.623300  1
  F  F2374  1  0.403100  0.834200  0.123300  1
  F  F2375  1  0.084200  0.846900  0.373300  1
  F  F2376  1  0.415800  0.153100  0.873300  1
  F  F2377  1  0.596900  0.665800  0.123300  1
  F  F2378  1  0.903100  0.334200  0.623300  1
  F  F2379  1  0.584200  0.346900  0.873300  1
  F  F2380  1  0.915800  0.653100  0.373300  1
