
#######################################################################
#
#                 Cambridge Crystallographic Data Centre
#                                CCDC 
#
#######################################################################
#
# If this CIF has been generated from an entry in the Cambridge 
# Structural Database, then it will include bibliographic, chemical, 
# crystal, experimental, refinement or atomic coordinate data resulting 
# from the CCDC's data processing and validation procedures.
#
#######################################################################

data_UQABEV
_chemical_formula_moiety         
'C108 H144 N36 Pd6 12+,12(N1 O3 1-),x(H2 O1),4(C6 H1 F5)'
_chemical_name_systematic        
"tetrakis(\m-2,4,6-tris(pyridin-4-yl)-1,3,5-triazine)-hexakis(N,N,N',N'-tetramethylethane-1,2-diamine)-hexa-palladium dodecanitrate tetrakis(pentafluorobenzene) clathrate hydrate"
_symmetry_cell_setting           tetragonal
_symmetry_space_group_name_H-M   'I 41/a'
_symmetry_Int_Tables_number      88
_space_group_name_Hall           '-I 4ad'
loop_
_symmetry_equiv_pos_site_id
_symmetry_equiv_pos_as_xyz
1 x,y,z
2 1/2-x,-y,1/2+z
3 3/4-y,1/4+x,1/4+z
4 3/4+y,3/4-x,3/4+z
5 1/2+x,1/2+y,1/2+z
6 -x,1/2-y,z
7 1/4-y,3/4+x,3/4+z
8 1/4+y,1/4-x,1/4+z
9 -x,-y,-z
10 1/2+x,y,1/2-z
11 1/4+y,3/4-x,3/4-z
12 1/4-y,1/4+x,1/4-z
13 1/2-x,1/2-y,1/2-z
14 x,1/2+y,-z
15 3/4+y,1/4-x,1/4-z
16 3/4-y,3/4+x,3/4-z
_cell_length_a                   25.930(3)
_cell_length_b                   25.930(3)
_cell_length_c                   31.605(3)
_cell_angle_alpha                90
_cell_angle_beta                 90
_cell_angle_gamma                90
_cell_volume                     21250.1
_exptl_crystal_colour            colorless
_exptl_crystal_description       Block
_cell_formula_units_Z            4
loop_
_atom_site_label
_atom_site_type_symbol
_atom_site_fract_x
_atom_site_fract_y
_atom_site_fract_z
Pd1 Pd 1.0000 0.7500 0.07978(2)
Pd2 Pd 0.788410(18) 1.035867(17) 0.377281(13)
N1 N 0.85157(19) 1.00997(19) 0.34557(15)
N2 N 1.00776(19) 0.8022(2) 0.12698(15)
N3 N 1.21721(19) 0.9585(2) 0.34195(16)
N4 N 0.9773(2) 0.9175(2) 0.25230(17)
N5 N 1.06822(19) 0.9042(2) 0.25201(17)
N6 N 1.0294(2) 0.9547(2) 0.30578(17)
N7 N 0.7875(2) 1.1064(2) 0.34750(18)
N8 N 0.7245(2) 1.0618(2) 0.40920(17)
N9 N 1.0089(2) 0.8027(2) 0.03196(18)
C1 C 0.8469(2) 0.9795(3) 0.31185(19)
H1 H 0.8134 0.9726 0.3011
C2 C 0.8891(2) 0.9574(3) 0.2918(2)
H2 H 0.8846 0.9359 0.2677
C3 C 0.9377(2) 0.9672(2) 0.30775(19)
C4 C 0.9422(3) 0.9991(2) 0.3426(2)
H3 H 0.9752 1.0066 0.3541
C5 C 0.8988(2) 1.0199(2) 0.3606(2)
H4 H 0.9023 1.0419 0.3844
C6 C 1.0543(2) 0.8145(3) 0.1429(2)
H5 H 1.0843 0.8012 0.1295
C7 C 1.0599(2) 0.8456(3) 0.1777(2)
H6 H 1.0933 0.8540 0.1879
C8 C 1.0161(2) 0.8648(3) 0.1979(2)
C9 C 0.9683(2) 0.8519(3) 0.1817(2)
H7 H 0.9378 0.8642 0.1948
C10 C 0.9654(2) 0.8211(3) 0.1467(2)
H8 H 0.9323 0.8126 0.1358
C11 C 1.1753(3) 0.9801(3) 0.3587(2)
H9 H 1.1788 1.0007 0.3834
C12 C 1.1265(3) 0.9734(3) 0.3412(2)
H10 H 1.0972 0.9896 0.3535
C13 C 1.1213(2) 0.9428(3) 0.3057(2)
C14 C 1.1652(2) 0.9202(3) 0.2885(2)
H11 H 1.1627 0.8987 0.2643
C15 C 1.2121(2) 0.9295(3) 0.3071(2)
H12 H 1.2421 0.9148 0.2948
C16 C 0.9842(2) 0.9454(2) 0.2873(2)
C17 C 1.0206(2) 0.8974(3) 0.2361(2)
C18 C 1.0701(2) 0.9334(3) 0.2866(2)
C19 C 0.7978(8) 1.1020(7) 0.2983(5)
H13 H 0.7744 1.0764 0.2861
H14 H 0.8336 1.0915 0.2935
H15 H 0.7917 1.1356 0.2849
C20 C 0.8324(19) 1.1357(18) 0.3548(10)
H16 H 0.8615 1.1199 0.3400
H17 H 0.8395 1.1368 0.3852
H18 H 0.8272 1.1709 0.3442
C21 C 0.7373(7) 1.1277(7) 0.3521(6)
H19 H 0.7123 1.1094 0.3338
H20 H 0.7372 1.1648 0.3445
C22 C 0.7240(8) 1.1205(6) 0.3981(6)
H21 H 0.6894 1.1351 0.4039
H22 H 0.7493 1.1390 0.4160
C23 C 0.7286(11) 1.0539(9) 0.4554(9)
H23 H 0.7286 1.0168 0.4616
H24 H 0.6991 1.0702 0.4695
H25 H 0.7607 1.0693 0.4658
C24 C 0.6790(5) 1.0370(7) 0.3931(6)
H26 H 0.6746 1.0459 0.3631
H27 H 0.6489 1.0487 0.4091
H28 H 0.6826 0.9996 0.3960
C25 C 1.0646(3) 0.8174(4) 0.0285(3)
H29 H 1.0853 0.7864 0.0234
H30 H 1.0758 0.8339 0.0548
H31 H 1.0691 0.8414 0.0048
C26 C 0.9778(3) 0.8508(3) 0.0388(3)
H32 H 0.9794 0.8724 0.0134
H33 H 0.9918 0.8700 0.0629
H34 H 0.9419 0.8415 0.0446
C27 C 0.9903(4) 0.7773(4) -0.0075(2)
H35 H 1.0034 0.7960 -0.0326
H36 H 0.9521 0.7777 -0.0084
N9E N 0.9911(2) 0.6973(2) 0.03196(18)
C25E C 0.9354(3) 0.6826(4) 0.0285(3)
H29E H 0.9147 0.7136 0.0234
H30E H 0.9242 0.6661 0.0548
H31E H 0.9309 0.6586 0.0048
C26E C 1.0222(3) 0.6492(3) 0.0388(3)
H32E H 1.0206 0.6276 0.0134
H33E H 1.0082 0.6300 0.0629
H34E H 1.0581 0.6585 0.0446
C27E C 1.0097(4) 0.7227(4) -0.0075(2)
H35E H 0.9966 0.7040 -0.0326
H36E H 1.0479 0.7223 -0.0084
Pd2E Pd 1.211590(18) 0.464133(17) 0.377281(13)
N1E N 1.14843(19) 0.49003(19) 0.34557(15)
N2E N 0.99224(19) 0.6978(2) 0.12698(15)
N3E N 0.78279(19) 0.5415(2) 0.34195(16)
N4E N 1.0227(2) 0.5825(2) 0.25230(17)
N5E N 0.93178(19) 0.5958(2) 0.25201(17)
N6E N 0.9706(2) 0.5453(2) 0.30578(17)
N7E N 1.2125(2) 0.3936(2) 0.34750(18)
N8E N 1.2755(2) 0.4382(2) 0.40920(17)
C1E C 1.1531(2) 0.5205(3) 0.31185(19)
H1E H 1.1866 0.5274 0.3011
C2E C 1.1109(2) 0.5426(3) 0.2918(2)
H2E H 1.1154 0.5641 0.2677
C3E C 1.0623(2) 0.5328(2) 0.30775(19)
C4E C 1.0578(3) 0.5009(2) 0.3426(2)
H3E H 1.0248 0.4934 0.3541
C5E C 1.1012(2) 0.4801(2) 0.3606(2)
H4E H 1.0977 0.4581 0.3844
C6E C 0.9457(2) 0.6855(3) 0.1429(2)
H5E H 0.9157 0.6988 0.1295
C7E C 0.9401(2) 0.6544(3) 0.1777(2)
H6E H 0.9067 0.6460 0.1879
C8E C 0.9839(2) 0.6352(3) 0.1979(2)
C9E C 1.0317(2) 0.6481(3) 0.1817(2)
H7E H 1.0622 0.6358 0.1948
C10E C 1.0346(2) 0.6789(3) 0.1467(2)
H8E H 1.0677 0.6874 0.1358
C11E C 0.8247(3) 0.5199(3) 0.3587(2)
H9E H 0.8212 0.4993 0.3834
C12E C 0.8735(3) 0.5266(3) 0.3412(2)
H10E H 0.9028 0.5104 0.3535
C13E C 0.8787(2) 0.5572(3) 0.3057(2)
C14E C 0.8348(2) 0.5798(3) 0.2885(2)
H11E H 0.8373 0.6013 0.2643
C15E C 0.7879(2) 0.5705(3) 0.3071(2)
H12E H 0.7579 0.5852 0.2948
C16E C 1.0158(2) 0.5546(2) 0.2873(2)
C17E C 0.9794(2) 0.6026(3) 0.2361(2)
C18E C 0.9299(2) 0.5666(3) 0.2866(2)
C19E C 1.2022(8) 0.3980(7) 0.2983(5)
H13E H 1.2256 0.4236 0.2861
H14E H 1.1664 0.4085 0.2935
H15E H 1.2083 0.3644 0.2849
C20E C 1.1676(19) 0.3643(18) 0.3548(10)
H16E H 1.1385 0.3801 0.3400
H17E H 1.1605 0.3632 0.3852
H18E H 1.1728 0.3291 0.3442
C21E C 1.2627(7) 0.3723(7) 0.3521(6)
H19E H 1.2877 0.3906 0.3338
H20E H 1.2628 0.3352 0.3445
C22E C 1.2760(8) 0.3795(6) 0.3981(6)
H21E H 1.3106 0.3649 0.4039
H22E H 1.2507 0.3610 0.4160
C23E C 1.2714(11) 0.4461(9) 0.4554(9)
H23E H 1.2714 0.4832 0.4616
H24E H 1.3009 0.4298 0.4695
H25E H 1.2393 0.4307 0.4658
C24E C 1.3210(5) 0.4630(7) 0.3931(6)
H26E H 1.3254 0.4541 0.3631
H27E H 1.3511 0.4513 0.4091
H28E H 1.3174 0.5004 0.3960
Pd1J Pd 1.0000 0.7500 0.67022(2)
Pd2J Pd 1.285867(17) 0.961590(18) 0.372719(13)
N1J N 1.25997(19) 0.89843(19) 0.40443(15)
N2J N 1.0522(2) 0.74224(19) 0.62302(15)
N3J N 1.2085(2) 0.53279(19) 0.40805(16)
N4J N 1.1675(2) 0.7727(2) 0.49770(17)
N5J N 1.1542(2) 0.68178(19) 0.49799(17)
N6J N 1.2047(2) 0.7206(2) 0.44422(17)
N7J N 1.3564(2) 0.9625(2) 0.40250(18)
N8J N 1.3118(2) 1.0255(2) 0.34080(17)
N9J N 1.0527(2) 0.7411(2) 0.71804(18)
C1J C 1.2295(3) 0.9031(2) 0.43815(19)
H1J H 1.2226 0.9366 0.4489
C2J C 1.2074(3) 0.8609(2) 0.4582(2)
H2J H 1.1859 0.8654 0.4823
C3J C 1.2172(2) 0.8123(2) 0.44225(19)
C4J C 1.2491(2) 0.8078(3) 0.4074(2)
H3J H 1.2566 0.7748 0.3959
C5J C 1.2699(2) 0.8512(2) 0.3894(2)
H4J H 1.2919 0.8477 0.3656
C6J C 1.0645(3) 0.6957(2) 0.6071(2)
H5J H 1.0512 0.6657 0.6205
C7J C 1.0956(3) 0.6901(2) 0.5723(2)
H6J H 1.1040 0.6567 0.5621
C8J C 1.1148(3) 0.7339(2) 0.5521(2)
C9J C 1.1019(3) 0.7817(2) 0.5683(2)
H7J H 1.1142 0.8122 0.5552
C10J C 1.0711(3) 0.7846(2) 0.6033(2)
H8J H 1.0626 0.8177 0.6142
C11J C 1.2301(3) 0.5747(3) 0.3913(2)
H9J H 1.2507 0.5712 0.3666
C12J C 1.2234(3) 0.6235(3) 0.4088(2)
H10J H 1.2396 0.6528 0.3965
C13J C 1.1928(3) 0.6287(2) 0.4443(2)
C14J C 1.1702(3) 0.5848(2) 0.4615(2)
H11J H 1.1487 0.5873 0.4857
C15J C 1.1795(3) 0.5379(2) 0.4429(2)
H12J H 1.1648 0.5079 0.4552
C16J C 1.1954(2) 0.7658(2) 0.4627(2)
C17J C 1.1474(3) 0.7294(2) 0.5139(2)
C18J C 1.1834(3) 0.6799(2) 0.4634(2)
C19J C 1.3520(7) 0.9522(8) 0.4517(5)
H13J H 1.3264 0.9756 0.4639
H14J H 1.3415 0.9164 0.4565
H15J H 1.3856 0.9583 0.4651
C20J C 1.3857(18) 0.9176(19) 0.3952(10)
H16J H 1.3699 0.8885 0.4100
H17J H 1.3868 0.9105 0.3648
H18J H 1.4209 0.9228 0.4058
C21J C 1.3777(7) 1.0127(7) 0.3979(6)
H19J H 1.3594 1.0377 0.4162
H20J H 1.4148 1.0128 0.4055
C22J C 1.3705(6) 1.0260(8) 0.3519(6)
H21J H 1.3851 1.0606 0.3461
H22J H 1.3890 1.0007 0.3340
C23J C 1.3039(9) 1.0214(11) 0.2946(9)
H23J H 1.2668 1.0214 0.2884
H24J H 1.3202 1.0509 0.2805
H25J H 1.3193 0.9893 0.2842
C24J C 1.2870(7) 1.0710(5) 0.3569(6)
H26J H 1.2959 1.0754 0.3869
H27J H 1.2987 1.1011 0.3409
H28J H 1.2496 1.0674 0.3540
C25J C 1.0674(4) 0.6854(3) 0.7215(3)
H29J H 1.0364 0.6647 0.7266
H30J H 1.0839 0.6742 0.6952
H31J H 1.0914 0.6809 0.7452
C26J C 1.1008(3) 0.7722(3) 0.7112(3)
H32J H 1.1224 0.7706 0.7366
H33J H 1.1200 0.7582 0.6871
H34J H 1.0915 0.8081 0.7054
C27J C 1.0273(4) 0.7597(4) 0.7575(2)
H35J H 1.0460 0.7466 0.7826
H36J H 1.0277 0.7979 0.7584
N9O N 0.9473(2) 0.7589(2) 0.71804(18)
C25O C 0.9326(4) 0.8146(3) 0.7215(3)
H29O H 0.9636 0.8353 0.7266
H30O H 0.9161 0.8258 0.6952
H31O H 0.9086 0.8191 0.7452
C26O C 0.8992(3) 0.7278(3) 0.7112(3)
H32O H 0.8776 0.7294 0.7366
H33O H 0.8800 0.7418 0.6871
H34O H 0.9085 0.6919 0.7054
C27O C 0.9727(4) 0.7403(4) 0.7575(2)
H35O H 0.9540 0.7534 0.7826
H36O H 0.9723 0.7021 0.7584
Pd2O Pd 0.714133(17) 0.538410(18) 0.372719(13)
N1O N 0.74003(19) 0.60157(19) 0.40443(15)
N2O N 0.9478(2) 0.75776(19) 0.62302(15)
N3O N 0.7915(2) 0.96721(19) 0.40805(16)
N4O N 0.8325(2) 0.7273(2) 0.49770(17)
N5O N 0.8458(2) 0.81822(19) 0.49799(17)
N6O N 0.7953(2) 0.7794(2) 0.44422(17)
N7O N 0.6436(2) 0.5375(2) 0.40250(18)
N8O N 0.6882(2) 0.4745(2) 0.34080(17)
C1O C 0.7705(3) 0.5969(2) 0.43815(19)
H1O H 0.7774 0.5634 0.4489
C2O C 0.7926(3) 0.6391(2) 0.4582(2)
H2O H 0.8141 0.6346 0.4823
C3O C 0.7828(2) 0.6877(2) 0.44225(19)
C4O C 0.7509(2) 0.6922(3) 0.4074(2)
H3O H 0.7434 0.7252 0.3959
C5O C 0.7301(2) 0.6488(2) 0.3894(2)
H4O H 0.7081 0.6523 0.3656
C6O C 0.9355(3) 0.8043(2) 0.6071(2)
H5O H 0.9488 0.8343 0.6205
C7O C 0.9044(3) 0.8099(2) 0.5723(2)
H6O H 0.8960 0.8433 0.5621
C8O C 0.8852(3) 0.7661(2) 0.5521(2)
C9O C 0.8981(3) 0.7183(2) 0.5683(2)
H7O H 0.8858 0.6878 0.5552
C10O C 0.9289(3) 0.7154(2) 0.6033(2)
H8O H 0.9374 0.6823 0.6142
C11O C 0.7699(3) 0.9253(3) 0.3913(2)
H9O H 0.7493 0.9288 0.3666
C12O C 0.7766(3) 0.8765(3) 0.4088(2)
H10O H 0.7604 0.8472 0.3965
C13O C 0.8072(3) 0.8713(2) 0.4443(2)
C14O C 0.8298(3) 0.9152(2) 0.4615(2)
H11O H 0.8513 0.9127 0.4857
C15O C 0.8205(3) 0.9621(2) 0.4429(2)
H12O H 0.8352 0.9921 0.4552
C16O C 0.8046(2) 0.7342(2) 0.4627(2)
C17O C 0.8526(3) 0.7706(2) 0.5139(2)
C18O C 0.8166(3) 0.8201(2) 0.4634(2)
C19O C 0.6480(7) 0.5478(8) 0.4517(5)
H13O H 0.6736 0.5244 0.4639
H14O H 0.6585 0.5836 0.4565
H15O H 0.6144 0.5417 0.4651
C20O C 0.6143(18) 0.5824(19) 0.3952(10)
H16O H 0.6301 0.6115 0.4100
H17O H 0.6132 0.5895 0.3648
H18O H 0.5791 0.5772 0.4058
C21O C 0.6223(7) 0.4873(7) 0.3979(6)
H19O H 0.6406 0.4623 0.4162
H20O H 0.5852 0.4872 0.4055
C22O C 0.6295(6) 0.4740(8) 0.3519(6)
H21O H 0.6149 0.4394 0.3461
H22O H 0.6110 0.4993 0.3340
C23O C 0.6961(9) 0.4786(11) 0.2946(9)
H23O H 0.7332 0.4786 0.2884
H24O H 0.6798 0.4491 0.2805
H25O H 0.6807 0.5107 0.2842
C24O C 0.7130(7) 0.4290(5) 0.3569(6)
H26O H 0.7041 0.4246 0.3869
H27O H 0.7013 0.3989 0.3409
H28O H 0.7504 0.4326 0.3540
C34 C 0.8389(7) 0.7410(8) 0.3119(5)
C35 C 0.8722(7) 0.7362(6) 0.2800(5)
C36 C 0.9164(7) 0.7630(7) 0.2791(5)
C37 C 0.9292(7) 0.7968(7) 0.3122(6)
C38 C 0.8940(8) 0.8018(7) 0.3443(6)
C39 C 0.8487(8) 0.7750(8) 0.3436(6)
H53 H 0.8239 0.7802 0.3653
F1 F 0.7988(7) 0.7098(6) 0.3101(4)
F2 F 0.8608(6) 0.7049(5) 0.2476(4)
F3 F 0.9480(6) 0.7579(6) 0.2454(5)
F4 F 0.9730(6) 0.8227(6) 0.3144(5)
F5 F 0.9031(6) 0.8342(6) 0.3767(5)
N10 N 0.6773(5) 0.9721(6) 0.3036(5)
O1 O 0.7227(3) 0.9851(4) 0.2947(3)
O2 O 0.6677(7) 0.9278(7) 0.3221(6)
O3 O 0.6441(5) 1.0085(7) 0.2911(5)
O4 O 0.8966(7) 0.9880(10) 0.5540(6)
N11 N 0.8912(6) 1.0685(5) 0.4796(4)
O6 O 0.8727(5) 1.0907(5) 0.4501(4)
O7 O 0.8672(5) 1.0492(5) 0.5106(4)
O8 O 0.9409(8) 1.0720(12) 0.4837(9)
O13 O 1.0336(11) 1.0567(10) 0.4033(8)
N13 N 0.6715(8) 1.2009(7) 0.4904(5)
O15 O 0.6794(6) 1.2416(7) 0.5130(5)
O16 O 0.6532(4) 1.1642(7) 0.5086(5)
O17 O 0.6957(12) 1.2042(9) 0.4534(6)
O19 O 0.5863(6) 1.1119(11) 0.4467(5)
O20 O 0.9734(3) 1.1251(2) 0.3366(2)
O24 O 0.8101(7) 1.2886(8) 0.3509(6)
O25 O 0.7534(7) 1.2898(7) 0.4253(6)
O26 O 0.6605(16) 1.2337(17) 0.3194(14)
O27 O 0.6212(10) 1.1595(9) 0.3218(8)
O29 O 0.551(2) 1.121(2) 0.3540(17)
O31 O 0.6681(8) 1.4265(8) 0.5254(10)
O32 O 0.712(2) 1.304(2) 0.4799(16)
O34 O 1.0000 0.7500 -0.1250
O35 O 0.6340(7) 0.9025(7) 0.4008(6)
O36 O 0.7254(10) 1.1751(10) 0.2212(9)
O37 O 0.5045(13) 1.0218(13) 0.4641(11)
loop_
_geom_bond_atom_site_label_1
_geom_bond_atom_site_label_2
_geom_bond_site_symmetry_1
_geom_bond_site_symmetry_2
Pd1 N2 1_555 1_555
Pd2 N1 1_555 1_555
N1 C1 1_555 1_555
N2 C6 1_555 1_555
N3 C11 1_555 1_555
N4 C16 1_555 1_555
N5 C17 1_555 1_555
N6 C16 1_555 1_555
N7 Pd2 1_555 1_555
N8 Pd2 1_555 1_555
N9 Pd1 1_555 1_555
C1 H1 1_555 1_555
C2 C1 1_555 1_555
H2 C2 1_555 1_555
C3 C2 1_555 1_555
C4 C3 1_555 1_555
H3 C4 1_555 1_555
C5 N1 1_555 1_555
H4 C5 1_555 1_555
C6 H5 1_555 1_555
C7 C6 1_555 1_555
H6 C7 1_555 1_555
C8 C7 1_555 1_555
C9 C8 1_555 1_555
H7 C9 1_555 1_555
C10 N2 1_555 1_555
H8 C10 1_555 1_555
C11 H9 1_555 1_555
C12 C11 1_555 1_555
H10 C12 1_555 1_555
C13 C12 1_555 1_555
C14 C13 1_555 1_555
H11 C14 1_555 1_555
C15 N3 1_555 1_555
H12 C15 1_555 1_555
C16 C3 1_555 1_555
C17 N4 1_555 1_555
C18 N5 1_555 1_555
C19 N7 1_555 1_555
H13 C19 1_555 1_555
H14 C19 1_555 1_555
H15 C19 1_555 1_555
C20 N7 1_555 1_555
H16 C20 1_555 1_555
H17 C20 1_555 1_555
H18 C20 1_555 1_555
C21 N7 1_555 1_555
H19 C21 1_555 1_555
H20 C21 1_555 1_555
C22 N8 1_555 1_555
H21 C22 1_555 1_555
H22 C22 1_555 1_555
C23 N8 1_555 1_555
H23 C23 1_555 1_555
H24 C23 1_555 1_555
H25 C23 1_555 1_555
C24 N8 1_555 1_555
H26 C24 1_555 1_555
H27 C24 1_555 1_555
H28 C24 1_555 1_555
C25 N9 1_555 1_555
H29 C25 1_555 1_555
H30 C25 1_555 1_555
H31 C25 1_555 1_555
C26 N9 1_555 1_555
H32 C26 1_555 1_555
H33 C26 1_555 1_555
H34 C26 1_555 1_555
C27 N9 1_555 1_555
H35 C27 1_555 1_555
H36 C27 1_555 1_555
C34 C35 1_555 1_555
C35 C36 1_555 1_555
C36 C37 1_555 1_555
C37 C38 1_555 1_555
C38 C39 1_555 1_555
C39 C34 1_555 1_555
H53 C39 1_555 1_555
F1 C34 1_555 1_555
F2 C35 1_555 1_555
F3 C36 1_555 1_555
F4 C37 1_555 1_555
F5 C38 1_555 1_555
N10 O1 1_555 1_555
O2 N10 1_555 1_555
O3 N10 1_555 1_555
N11 O6 1_555 1_555
O7 N11 1_555 1_555
O8 N11 1_555 1_555
N13 O15 1_555 1_555
O16 N13 1_555 1_555
O17 N13 1_555 1_555
N9E Pd1 1_555 1_555
C25E N9E 1_555 1_555
H29E C25E 1_555 1_555
H30E C25E 1_555 1_555
H31E C25E 1_555 1_555
C26E N9E 1_555 1_555
H32E C26E 1_555 1_555
H33E C26E 1_555 1_555
H34E C26E 1_555 1_555
C27E C27 1_555 1_555
H35E C27E 1_555 1_555
H36E C27E 1_555 1_555
Pd2E N1E 1_555 1_555
N1E C1E 1_555 1_555
N2E Pd1 1_555 1_555
N3E C11E 1_555 1_555
N4E C16E 1_555 1_555
N5E C17E 1_555 1_555
N6E C16E 1_555 1_555
N7E Pd2E 1_555 1_555
N8E Pd2E 1_555 1_555
C1E H1E 1_555 1_555
C2E C1E 1_555 1_555
H2E C2E 1_555 1_555
C3E C2E 1_555 1_555
C4E C3E 1_555 1_555
H3E C4E 1_555 1_555
C5E N1E 1_555 1_555
H4E C5E 1_555 1_555
C6E N2E 1_555 1_555
H5E C6E 1_555 1_555
C7E C6E 1_555 1_555
H6E C7E 1_555 1_555
C8E C7E 1_555 1_555
C9E C8E 1_555 1_555
H7E C9E 1_555 1_555
C10E N2E 1_555 1_555
H8E C10E 1_555 1_555
C11E H9E 1_555 1_555
C12E C11E 1_555 1_555
H10E C12E 1_555 1_555
C13E C12E 1_555 1_555
C14E C13E 1_555 1_555
H11E C14E 1_555 1_555
C15E N3E 1_555 1_555
H12E C15E 1_555 1_555
C16E C3E 1_555 1_555
C17E N4E 1_555 1_555
C18E N5E 1_555 1_555
C19E N7E 1_555 1_555
H13E C19E 1_555 1_555
H14E C19E 1_555 1_555
H15E C19E 1_555 1_555
C20E N7E 1_555 1_555
H16E C20E 1_555 1_555
H17E C20E 1_555 1_555
H18E C20E 1_555 1_555
C21E N7E 1_555 1_555
H19E C21E 1_555 1_555
H20E C21E 1_555 1_555
C22E N8E 1_555 1_555
H21E C22E 1_555 1_555
H22E C22E 1_555 1_555
C23E N8E 1_555 1_555
H23E C23E 1_555 1_555
H24E C23E 1_555 1_555
H25E C23E 1_555 1_555
C24E N8E 1_555 1_555
H26E C24E 1_555 1_555
H27E C24E 1_555 1_555
H28E C24E 1_555 1_555
Pd1J N2J 1_555 1_555
Pd2J N3 1_555 1_555
N1J Pd2J 1_555 1_555
N2J C6J 1_555 1_555
N3J Pd2E 1_555 1_555
N4J C16J 1_555 1_555
N5J C17J 1_555 1_555
N6J C16J 1_555 1_555
N7J Pd2J 1_555 1_555
N8J Pd2J 1_555 1_555
N9J Pd1J 1_555 1_555
C1J N1J 1_555 1_555
H1J C1J 1_555 1_555
C2J C1J 1_555 1_555
H2J C2J 1_555 1_555
C3J C2J 1_555 1_555
C4J C3J 1_555 1_555
H3J C4J 1_555 1_555
C5J N1J 1_555 1_555
H4J C5J 1_555 1_555
C6J H5J 1_555 1_555
C7J C6J 1_555 1_555
H6J C7J 1_555 1_555
C8J C7J 1_555 1_555
C9J C8J 1_555 1_555
H7J C9J 1_555 1_555
C10J N2J 1_555 1_555
H8J C10J 1_555 1_555
C11J N3J 1_555 1_555
H9J C11J 1_555 1_555
C12J C11J 1_555 1_555
H10J C12J 1_555 1_555
C13J C12J 1_555 1_555
C14J C13J 1_555 1_555
H11J C14J 1_555 1_555
C15J N3J 1_555 1_555
H12J C15J 1_555 1_555
C16J C3J 1_555 1_555
C17J N4J 1_555 1_555
C18J N5J 1_555 1_555
C19J N7J 1_555 1_555
H13J C19J 1_555 1_555
H14J C19J 1_555 1_555
H15J C19J 1_555 1_555
C20J N7J 1_555 1_555
H16J C20J 1_555 1_555
H17J C20J 1_555 1_555
H18J C20J 1_555 1_555
C21J N7J 1_555 1_555
H19J C21J 1_555 1_555
H20J C21J 1_555 1_555
C22J N8J 1_555 1_555
H21J C22J 1_555 1_555
H22J C22J 1_555 1_555
C23J N8J 1_555 1_555
H23J C23J 1_555 1_555
H24J C23J 1_555 1_555
H25J C23J 1_555 1_555
C24J N8J 1_555 1_555
H26J C24J 1_555 1_555
H27J C24J 1_555 1_555
H28J C24J 1_555 1_555
C25J N9J 1_555 1_555
H29J C25J 1_555 1_555
H30J C25J 1_555 1_555
H31J C25J 1_555 1_555
C26J N9J 1_555 1_555
H32J C26J 1_555 1_555
H33J C26J 1_555 1_555
H34J C26J 1_555 1_555
C27J N9J 1_555 1_555
H35J C27J 1_555 1_555
H36J C27J 1_555 1_555
N9O Pd1J 1_555 1_555
C25O N9O 1_555 1_555
H29O C25O 1_555 1_555
H30O C25O 1_555 1_555
H31O C25O 1_555 1_555
C26O N9O 1_555 1_555
H32O C26O 1_555 1_555
H33O C26O 1_555 1_555
H34O C26O 1_555 1_555
C27O C27J 1_555 1_555
H35O C27O 1_555 1_555
H36O C27O 1_555 1_555
Pd2O N3E 1_555 1_555
N1O Pd2O 1_555 1_555
N2O Pd1J 1_555 1_555
N3O Pd2 1_555 1_555
N4O C16O 1_555 1_555
N5O C17O 1_555 1_555
N6O C16O 1_555 1_555
N7O Pd2O 1_555 1_555
N8O Pd2O 1_555 1_555
C1O N1O 1_555 1_555
H1O C1O 1_555 1_555
C2O C1O 1_555 1_555
H2O C2O 1_555 1_555
C3O C2O 1_555 1_555
C4O C3O 1_555 1_555
H3O C4O 1_555 1_555
C5O N1O 1_555 1_555
H4O C5O 1_555 1_555
C6O N2O 1_555 1_555
H5O C6O 1_555 1_555
C7O C6O 1_555 1_555
H6O C7O 1_555 1_555
C8O C7O 1_555 1_555
C9O C8O 1_555 1_555
H7O C9O 1_555 1_555
C10O N2O 1_555 1_555
H8O C10O 1_555 1_555
C11O N3O 1_555 1_555
H9O C11O 1_555 1_555
C12O C11O 1_555 1_555
H10O C12O 1_555 1_555
C13O C12O 1_555 1_555
C14O C13O 1_555 1_555
H11O C14O 1_555 1_555
C15O N3O 1_555 1_555
H12O C15O 1_555 1_555
C16O C3O 1_555 1_555
C17O N4O 1_555 1_555
C18O N5O 1_555 1_555
C19O N7O 1_555 1_555
H13O C19O 1_555 1_555
H14O C19O 1_555 1_555
H15O C19O 1_555 1_555
C20O N7O 1_555 1_555
H16O C20O 1_555 1_555
H17O C20O 1_555 1_555
H18O C20O 1_555 1_555
C21O N7O 1_555 1_555
H19O C21O 1_555 1_555
H20O C21O 1_555 1_555
C22O N8O 1_555 1_555
H21O C22O 1_555 1_555
H22O C22O 1_555 1_555
C23O N8O 1_555 1_555
H23O C23O 1_555 1_555
H24O C23O 1_555 1_555
H25O C23O 1_555 1_555
C24O N8O 1_555 1_555
H26O C24O 1_555 1_555
H27O C24O 1_555 1_555
H28O C24O 1_555 1_555
N6 C18 1_555 1_555
C4 C5 1_555 1_555
C8 C17 1_555 1_555
C9 C10 1_555 1_555
C13 C18 1_555 1_555
C14 C15 1_555 1_555
C21 C22 1_555 1_555
N9E C27E 1_555 1_555
N6E C18E 1_555 1_555
C4E C5E 1_555 1_555
C8E C17E 1_555 1_555
C9E C10E 1_555 1_555
C13E C18E 1_555 1_555
C14E C15E 1_555 1_555
C21E C22E 1_555 1_555
N6J C18J 1_555 1_555
C4J C5J 1_555 1_555
C8J C17J 1_555 1_555
C9J C10J 1_555 1_555
C13J C18J 1_555 1_555
C14J C15J 1_555 1_555
C21J C22J 1_555 1_555
N9O C27O 1_555 1_555
N6O C18O 1_555 1_555
C4O C5O 1_555 1_555
C8O C17O 1_555 1_555
C9O C10O 1_555 1_555
C13O C18O 1_555 1_555
C14O C15O 1_555 1_555
C21O C22O 1_555 1_555

#END
