# generated using pymatgen
data_H232Pd6C180N52(O51F8)3
_symmetry_space_group_name_H-M   'P 1'
_cell_length_a   26.05900000
_cell_length_b   26.05900000
_cell_length_c   31.87900000
_cell_angle_alpha   90.00000000
_cell_angle_beta   90.00000000
_cell_angle_gamma   90.00000000
_symmetry_Int_Tables_number   1
_chemical_formula_structural   H232Pd6C180N52(O51F8)3
_chemical_formula_sum   'H928 Pd24 C720 N208 O612 F96'
_cell_volume   21648.11974280
_cell_formula_units_Z   4
loop_
 _symmetry_equiv_pos_site_id
 _symmetry_equiv_pos_as_xyz
  1  'x, y, z'
loop_
 _atom_site_type_symbol
 _atom_site_label
 _atom_site_symmetry_multiplicity
 _atom_site_fract_x
 _atom_site_fract_y
 _atom_site_fract_z
 _atom_site_occupancy
  H  H1  1  0.582700  0.166200  0.279000  1
  H  H2  1  0.917300  0.833800  0.779000  1
  H  H3  1  0.583800  0.832700  0.529000  1
  H  H4  1  0.916200  0.167300  0.029000  1
  H  H5  1  0.082700  0.666200  0.779000  1
  H  H6  1  0.417300  0.333800  0.279000  1
  H  H7  1  0.083800  0.332700  0.029000  1
  H  H8  1  0.416200  0.667300  0.529000  1
  H  H9  1  0.417300  0.833800  0.721000  1
  H  H10  1  0.082700  0.166200  0.221000  1
  H  H11  1  0.416200  0.167300  0.471000  1
  H  H12  1  0.083800  0.832700  0.971000  1
  H  H13  1  0.917300  0.333800  0.221000  1
  H  H14  1  0.582700  0.666200  0.721000  1
  H  H15  1  0.916200  0.667300  0.971000  1
  H  H16  1  0.583800  0.332700  0.471000  1
  H  H17  1  0.638100  0.308700  0.253500  1
  H  H18  1  0.861900  0.691300  0.753500  1
  H  H19  1  0.441300  0.888100  0.503500  1
  H  H20  1  0.058700  0.111900  0.003500  1
  H  H21  1  0.138100  0.808700  0.753500  1
  H  H22  1  0.361900  0.191300  0.253500  1
  H  H23  1  0.941300  0.388100  0.003500  1
  H  H24  1  0.558700  0.611900  0.503500  1
  H  H25  1  0.361900  0.691300  0.746500  1
  H  H26  1  0.138100  0.308700  0.246500  1
  H  H27  1  0.558700  0.111900  0.496500  1
  H  H28  1  0.941300  0.888100  0.996500  1
  H  H29  1  0.861900  0.191300  0.246500  1
  H  H30  1  0.638100  0.808700  0.746500  1
  H  H31  1  0.058700  0.611900  0.996500  1
  H  H32  1  0.441300  0.388100  0.496500  1
  H  H33  1  0.699400  0.222700  0.347800  1
  H  H34  1  0.800600  0.777300  0.847800  1
  H  H35  1  0.527300  0.949400  0.597800  1
  H  H36  1  0.972700  0.050600  0.097800  1
  H  H37  1  0.199400  0.722700  0.847800  1
  H  H38  1  0.300600  0.277300  0.347800  1
  H  H39  1  0.027300  0.449400  0.097800  1
  H  H40  1  0.472700  0.550600  0.597800  1
  H  H41  1  0.300600  0.777300  0.652200  1
  H  H42  1  0.199400  0.222700  0.152200  1
  H  H43  1  0.472700  0.050600  0.402200  1
  H  H44  1  0.027300  0.949400  0.902200  1
  H  H45  1  0.800600  0.277300  0.152200  1
  H  H46  1  0.699400  0.722700  0.652200  1
  H  H47  1  0.972700  0.550600  0.902200  1
  H  H48  1  0.527300  0.449400  0.402200  1
  H  H49  1  0.795300  0.912200  0.468200  1
  H  H50  1  0.704700  0.087800  0.968200  1
  H  H51  1  0.837800  0.045300  0.718200  1
  H  H52  1  0.662200  0.954700  0.218200  1
  H  H53  1  0.295300  0.412200  0.968200  1
  H  H54  1  0.204700  0.587800  0.468200  1
  H  H55  1  0.337800  0.545300  0.218200  1
  H  H56  1  0.162200  0.454700  0.718200  1
  H  H57  1  0.204700  0.087800  0.531800  1
  H  H58  1  0.295300  0.912200  0.031800  1
  H  H59  1  0.162200  0.954700  0.281800  1
  H  H60  1  0.337800  0.045300  0.781800  1
  H  H61  1  0.704700  0.587800  0.031800  1
  H  H62  1  0.795300  0.412200  0.531800  1
  H  H63  1  0.662200  0.454700  0.781800  1
  H  H64  1  0.837800  0.545300  0.281800  1
  H  H65  1  0.737700  0.899900  0.454000  1
  H  H66  1  0.762300  0.100100  0.954000  1
  H  H67  1  0.850100  0.987700  0.704000  1
  H  H68  1  0.649900  0.012300  0.204000  1
  H  H69  1  0.237700  0.399900  0.954000  1
  H  H70  1  0.262300  0.600100  0.454000  1
  H  H71  1  0.350100  0.487700  0.204000  1
  H  H72  1  0.149900  0.512300  0.704000  1
  H  H73  1  0.262300  0.100100  0.546000  1
  H  H74  1  0.237700  0.899900  0.046000  1
  H  H75  1  0.149900  0.012300  0.296000  1
  H  H76  1  0.350100  0.987700  0.796000  1
  H  H77  1  0.762300  0.600100  0.046000  1
  H  H78  1  0.737700  0.399900  0.546000  1
  H  H79  1  0.649900  0.512300  0.796000  1
  H  H80  1  0.850100  0.487700  0.296000  1
  H  H81  1  0.752800  0.956600  0.468800  1
  H  H82  1  0.747200  0.043400  0.968800  1
  H  H83  1  0.793400  0.002800  0.718800  1
  H  H84  1  0.706600  0.997200  0.218800  1
  H  H85  1  0.252800  0.456600  0.968800  1
  H  H86  1  0.247200  0.543400  0.468800  1
  H  H87  1  0.293400  0.502800  0.218800  1
  H  H88  1  0.206600  0.497200  0.718800  1
  H  H89  1  0.247200  0.043400  0.531200  1
  H  H90  1  0.252800  0.956600  0.031200  1
  H  H91  1  0.206600  0.997200  0.281200  1
  H  H92  1  0.293400  0.002800  0.781200  1
  H  H93  1  0.747200  0.543400  0.031200  1
  H  H94  1  0.752800  0.456600  0.531200  1
  H  H95  1  0.706600  0.497200  0.781200  1
  H  H96  1  0.793400  0.502800  0.281200  1
  H  H97  1  0.746300  0.850000  0.403300  1
  H  H98  1  0.753700  0.150000  0.903300  1
  H  H99  1  0.900000  0.996300  0.653300  1
  H  H100  1  0.600000  0.003700  0.153300  1
  H  H101  1  0.246300  0.350000  0.903300  1
  H  H102  1  0.253700  0.650000  0.403300  1
  H  H103  1  0.400000  0.496300  0.153300  1
  H  H104  1  0.100000  0.503700  0.653300  1
  H  H105  1  0.253700  0.150000  0.596700  1
  H  H106  1  0.246300  0.850000  0.096700  1
  H  H107  1  0.100000  0.003700  0.346700  1
  H  H108  1  0.400000  0.996300  0.846700  1
  H  H109  1  0.753700  0.650000  0.096700  1
  H  H110  1  0.746300  0.350000  0.596700  1
  H  H111  1  0.600000  0.503700  0.846700  1
  H  H112  1  0.900000  0.496300  0.346700  1
  H  H113  1  0.775300  0.834200  0.361000  1
  H  H114  1  0.724700  0.165800  0.861000  1
  H  H115  1  0.915800  0.025300  0.611000  1
  H  H116  1  0.584200  0.974700  0.111000  1
  H  H117  1  0.275300  0.334200  0.861000  1
  H  H118  1  0.224700  0.665800  0.361000  1
  H  H119  1  0.415800  0.525300  0.111000  1
  H  H120  1  0.084200  0.474700  0.611000  1
  H  H121  1  0.224700  0.165800  0.639000  1
  H  H122  1  0.275300  0.834200  0.139000  1
  H  H123  1  0.084200  0.974700  0.389000  1
  H  H124  1  0.415800  0.025300  0.889000  1
  H  H125  1  0.724700  0.665800  0.139000  1
  H  H126  1  0.775300  0.334200  0.639000  1
  H  H127  1  0.584200  0.474700  0.889000  1
  H  H128  1  0.915800  0.525300  0.389000  1
  H  H129  1  0.683300  0.830400  0.358800  1
  H  H130  1  0.816700  0.169600  0.858800  1
  H  H131  1  0.919600  0.933300  0.608800  1
  H  H132  1  0.580400  0.066700  0.108800  1
  H  H133  1  0.183300  0.330400  0.858800  1
  H  H134  1  0.316700  0.669600  0.358800  1
  H  H135  1  0.419600  0.433300  0.108800  1
  H  H136  1  0.080400  0.566700  0.608800  1
  H  H137  1  0.316700  0.169600  0.641200  1
  H  H138  1  0.183300  0.830400  0.141200  1
  H  H139  1  0.080400  0.066700  0.391200  1
  H  H140  1  0.419600  0.933300  0.891200  1
  H  H141  1  0.816700  0.669600  0.141200  1
  H  H142  1  0.683300  0.330400  0.641200  1
  H  H143  1  0.580400  0.566700  0.891200  1
  H  H144  1  0.919600  0.433300  0.391200  1
  H  H145  1  0.645400  0.877600  0.350700  1
  H  H146  1  0.854600  0.122400  0.850700  1
  H  H147  1  0.872400  0.895400  0.600700  1
  H  H148  1  0.627600  0.104600  0.100700  1
  H  H149  1  0.145400  0.377600  0.850700  1
  H  H150  1  0.354600  0.622400  0.350700  1
  H  H151  1  0.372400  0.395400  0.100700  1
  H  H152  1  0.127600  0.604600  0.600700  1
  H  H153  1  0.354600  0.122400  0.649300  1
  H  H154  1  0.145400  0.877600  0.149300  1
  H  H155  1  0.127600  0.104600  0.399300  1
  H  H156  1  0.372400  0.895400  0.899300  1
  H  H157  1  0.854600  0.622400  0.149300  1
  H  H158  1  0.645400  0.377600  0.649300  1
  H  H159  1  0.627600  0.604600  0.899300  1
  H  H160  1  0.872400  0.395400  0.399300  1
  H  H161  1  0.675300  0.873000  0.394300  1
  H  H162  1  0.824700  0.127000  0.894300  1
  H  H163  1  0.877000  0.925300  0.644300  1
  H  H164  1  0.623000  0.074700  0.144300  1
  H  H165  1  0.175300  0.373000  0.894300  1
  H  H166  1  0.324700  0.627000  0.394300  1
  H  H167  1  0.377000  0.425300  0.144300  1
  H  H168  1  0.123000  0.574700  0.644300  1
  H  H169  1  0.324700  0.127000  0.605700  1
  H  H170  1  0.175300  0.873000  0.105700  1
  H  H171  1  0.123000  0.074700  0.355700  1
  H  H172  1  0.377000  0.925300  0.855700  1
  H  H173  1  0.824700  0.627000  0.105700  1
  H  H174  1  0.675300  0.373000  0.605700  1
  H  H175  1  0.623000  0.574700  0.855700  1
  H  H176  1  0.877000  0.425300  0.355700  1
  H  H177  1  0.828300  0.881500  0.406000  1
  H  H178  1  0.671700  0.118500  0.906000  1
  H  H179  1  0.868500  0.078300  0.656000  1
  H  H180  1  0.631500  0.921700  0.156000  1
  H  H181  1  0.328300  0.381500  0.906000  1
  H  H182  1  0.171700  0.618500  0.406000  1
  H  H183  1  0.368500  0.578300  0.156000  1
  H  H184  1  0.131500  0.421700  0.656000  1
  H  H185  1  0.171700  0.118500  0.594000  1
  H  H186  1  0.328300  0.881500  0.094000  1
  H  H187  1  0.131500  0.921700  0.344000  1
  H  H188  1  0.368500  0.078300  0.844000  1
  H  H189  1  0.671700  0.618500  0.094000  1
  H  H190  1  0.828300  0.381500  0.594000  1
  H  H191  1  0.631500  0.421700  0.844000  1
  H  H192  1  0.868500  0.578300  0.344000  1
  H  H193  1  0.820700  0.910200  0.361700  1
  H  H194  1  0.679300  0.089800  0.861700  1
  H  H195  1  0.839800  0.070700  0.611700  1
  H  H196  1  0.660200  0.929300  0.111700  1
  H  H197  1  0.320700  0.410200  0.861700  1
  H  H198  1  0.179300  0.589800  0.361700  1
  H  H199  1  0.339800  0.570700  0.111700  1
  H  H200  1  0.160200  0.429300  0.611700  1
  H  H201  1  0.179300  0.089800  0.638300  1
  H  H202  1  0.320700  0.910200  0.138300  1
  H  H203  1  0.160200  0.929300  0.388300  1
  H  H204  1  0.339800  0.070700  0.888300  1
  H  H205  1  0.679300  0.589800  0.138300  1
  H  H206  1  0.820700  0.410200  0.638300  1
  H  H207  1  0.660200  0.429300  0.888300  1
  H  H208  1  0.839800  0.570700  0.388300  1
  H  H209  1  0.733800  0.863400  0.293300  1
  H  H210  1  0.766200  0.136600  0.793300  1
  H  H211  1  0.886600  0.983800  0.543300  1
  H  H212  1  0.613400  0.016200  0.043300  1
  H  H213  1  0.233800  0.363400  0.793300  1
  H  H214  1  0.266200  0.636600  0.293300  1
  H  H215  1  0.386600  0.483800  0.043300  1
  H  H216  1  0.113400  0.516200  0.543300  1
  H  H217  1  0.266200  0.136600  0.706700  1
  H  H218  1  0.233800  0.863400  0.206700  1
  H  H219  1  0.113400  0.016200  0.456700  1
  H  H220  1  0.386600  0.983800  0.956700  1
  H  H221  1  0.766200  0.636600  0.206700  1
  H  H222  1  0.733800  0.363400  0.706700  1
  H  H223  1  0.613400  0.516200  0.956700  1
  H  H224  1  0.886600  0.483800  0.456700  1
  H  H225  1  0.771000  0.908900  0.307900  1
  H  H226  1  0.729000  0.091100  0.807900  1
  H  H227  1  0.841100  0.021000  0.557900  1
  H  H228  1  0.658900  0.979000  0.057900  1
  H  H229  1  0.271000  0.408900  0.807900  1
  H  H230  1  0.229000  0.591100  0.307900  1
  H  H231  1  0.341100  0.521000  0.057900  1
  H  H232  1  0.158900  0.479000  0.557900  1
  H  H233  1  0.229000  0.091100  0.692100  1
  H  H234  1  0.271000  0.908900  0.192100  1
  H  H235  1  0.158900  0.979000  0.442100  1
  H  H236  1  0.341100  0.021000  0.942100  1
  H  H237  1  0.729000  0.591100  0.192100  1
  H  H238  1  0.771000  0.408900  0.692100  1
  H  H239  1  0.658900  0.479000  0.942100  1
  H  H240  1  0.841100  0.521000  0.442100  1
  H  H241  1  0.714700  0.921700  0.290700  1
  H  H242  1  0.785300  0.078300  0.790700  1
  H  H243  1  0.828300  0.964700  0.540700  1
  H  H244  1  0.671700  0.035300  0.040700  1
  H  H245  1  0.214700  0.421700  0.790700  1
  H  H246  1  0.285300  0.578300  0.290700  1
  H  H247  1  0.328300  0.464700  0.040700  1
  H  H248  1  0.171700  0.535300  0.540700  1
  H  H249  1  0.285300  0.078300  0.709300  1
  H  H250  1  0.214700  0.921700  0.209300  1
  H  H251  1  0.171700  0.035300  0.459300  1
  H  H252  1  0.328300  0.964700  0.959300  1
  H  H253  1  0.785300  0.578300  0.209300  1
  H  H254  1  0.714700  0.421700  0.709300  1
  H  H255  1  0.671700  0.535300  0.959300  1
  H  H256  1  0.828300  0.464700  0.459300  1
  H  H257  1  0.849400  0.971000  0.433100  1
  H  H258  1  0.650600  0.029000  0.933100  1
  H  H259  1  0.779000  0.099400  0.683100  1
  H  H260  1  0.721000  0.900600  0.183100  1
  H  H261  1  0.349400  0.471000  0.933100  1
  H  H262  1  0.150600  0.529000  0.433100  1
  H  H263  1  0.279000  0.599400  0.183100  1
  H  H264  1  0.221000  0.400600  0.683100  1
  H  H265  1  0.150600  0.029000  0.566900  1
  H  H266  1  0.349400  0.971000  0.066900  1
  H  H267  1  0.221000  0.900600  0.316900  1
  H  H268  1  0.279000  0.099400  0.816900  1
  H  H269  1  0.650600  0.529000  0.066900  1
  H  H270  1  0.849400  0.471000  0.566900  1
  H  H271  1  0.721000  0.400600  0.816900  1
  H  H272  1  0.779000  0.599400  0.316900  1
  H  H273  1  0.806100  0.014200  0.428600  1
  H  H274  1  0.693900  0.985800  0.928600  1
  H  H275  1  0.735800  0.056100  0.678600  1
  H  H276  1  0.764200  0.943900  0.178600  1
  H  H277  1  0.306100  0.514200  0.928600  1
  H  H278  1  0.193900  0.485800  0.428600  1
  H  H279  1  0.235800  0.556100  0.178600  1
  H  H280  1  0.264200  0.443900  0.678600  1
  H  H281  1  0.193900  0.985800  0.571400  1
  H  H282  1  0.306100  0.014200  0.071400  1
  H  H283  1  0.264200  0.943900  0.321400  1
  H  H284  1  0.235800  0.056100  0.821400  1
  H  H285  1  0.693900  0.485800  0.071400  1
  H  H286  1  0.806100  0.514200  0.571400  1
  H  H287  1  0.764200  0.443900  0.821400  1
  H  H288  1  0.735800  0.556100  0.321400  1
  H  H289  1  0.836200  0.994400  0.387900  1
  H  H290  1  0.663800  0.005600  0.887900  1
  H  H291  1  0.755600  0.086200  0.637900  1
  H  H292  1  0.744400  0.913800  0.137900  1
  H  H293  1  0.336200  0.494400  0.887900  1
  H  H294  1  0.163800  0.505600  0.387900  1
  H  H295  1  0.255600  0.586200  0.137900  1
  H  H296  1  0.244400  0.413800  0.637900  1
  H  H297  1  0.163800  0.005600  0.612100  1
  H  H298  1  0.336200  0.994400  0.112100  1
  H  H299  1  0.244400  0.913800  0.362100  1
  H  H300  1  0.255600  0.086200  0.862100  1
  H  H301  1  0.663800  0.505600  0.112100  1
  H  H302  1  0.836200  0.494400  0.612100  1
  H  H303  1  0.744400  0.413800  0.862100  1
  H  H304  1  0.755600  0.586200  0.362100  1
  H  H305  1  0.530100  0.163600  0.393100  1
  H  H306  1  0.969900  0.836400  0.893100  1
  H  H307  1  0.586400  0.780100  0.643100  1
  H  H308  1  0.913600  0.219900  0.143100  1
  H  H309  1  0.030100  0.663600  0.893100  1
  H  H310  1  0.469900  0.336400  0.393100  1
  H  H311  1  0.086400  0.280100  0.143100  1
  H  H312  1  0.413600  0.719900  0.643100  1
  H  H313  1  0.469900  0.836400  0.606900  1
  H  H314  1  0.030100  0.163600  0.106900  1
  H  H315  1  0.413600  0.219900  0.356900  1
  H  H316  1  0.086400  0.780100  0.856900  1
  H  H317  1  0.969900  0.336400  0.106900  1
  H  H318  1  0.530100  0.663600  0.606900  1
  H  H319  1  0.913600  0.719900  0.856900  1
  H  H320  1  0.586400  0.280100  0.356900  1
  H  H321  1  0.467200  0.236500  0.293700  1
  H  H322  1  0.032800  0.763500  0.793700  1
  H  H323  1  0.513500  0.717200  0.543700  1
  H  H324  1  0.986500  0.282800  0.043700  1
  H  H325  1  0.967200  0.736500  0.793700  1
  H  H326  1  0.532800  0.263500  0.293700  1
  H  H327  1  0.013500  0.217200  0.043700  1
  H  H328  1  0.486500  0.782800  0.543700  1
  H  H329  1  0.532800  0.763500  0.706300  1
  H  H330  1  0.967200  0.236500  0.206300  1
  H  H331  1  0.486500  0.282800  0.456300  1
  H  H332  1  0.013500  0.717200  0.956300  1
  H  H333  1  0.032800  0.263500  0.206300  1
  H  H334  1  0.467200  0.736500  0.706300  1
  H  H335  1  0.986500  0.782800  0.956300  1
  H  H336  1  0.513500  0.217200  0.456300  1
  H  H337  1  0.569900  0.310600  0.367100  1
  H  H338  1  0.930100  0.689400  0.867100  1
  H  H339  1  0.439400  0.819900  0.617100  1
  H  H340  1  0.060600  0.180100  0.117100  1
  H  H341  1  0.069900  0.810600  0.867100  1
  H  H342  1  0.430100  0.189400  0.367100  1
  H  H343  1  0.939400  0.319900  0.117100  1
  H  H344  1  0.560600  0.680100  0.617100  1
  H  H345  1  0.430100  0.689400  0.632900  1
  H  H346  1  0.069900  0.310600  0.132900  1
  H  H347  1  0.560600  0.180100  0.382900  1
  H  H348  1  0.939400  0.819900  0.882900  1
  H  H349  1  0.930100  0.189400  0.132900  1
  H  H350  1  0.569900  0.810600  0.632900  1
  H  H351  1  0.060600  0.680100  0.882900  1
  H  H352  1  0.439400  0.319900  0.382900  1
  H  H353  1  0.601500  0.958100  0.386400  1.0
  H  H354  1  0.898500  0.041900  0.886400  1.0
  H  H355  1  0.791900  0.851500  0.636400  1.0
  H  H356  1  0.708100  0.148500  0.136400  1.0
  H  H357  1  0.101500  0.458100  0.886400  1.0
  H  H358  1  0.398500  0.541900  0.386400  1.0
  H  H359  1  0.291900  0.351500  0.136400  1.0
  H  H360  1  0.208100  0.648500  0.636400  1.0
  H  H361  1  0.398500  0.041900  0.613600  1.0
  H  H362  1  0.101500  0.958100  0.113600  1.0
  H  H363  1  0.208100  0.148500  0.363600  1.0
  H  H364  1  0.291900  0.851500  0.863600  1.0
  H  H365  1  0.898500  0.541900  0.113600  1.0
  H  H366  1  0.601500  0.458100  0.613600  1.0
  H  H367  1  0.708100  0.648500  0.863600  1.0
  H  H368  1  0.791900  0.351500  0.363600  1.0
  H  H369  1  0.527400  0.991800  0.356900  1.0
  H  H370  1  0.972600  0.008200  0.856900  1.0
  H  H371  1  0.758200  0.777400  0.606900  1.0
  H  H372  1  0.741800  0.222600  0.106900  1.0
  H  H373  1  0.027400  0.491800  0.856900  1.0
  H  H374  1  0.472600  0.508200  0.356900  1.0
  H  H375  1  0.258200  0.277400  0.106900  1.0
  H  H376  1  0.241800  0.722600  0.606900  1.0
  H  H377  1  0.472600  0.008200  0.643100  1.0
  H  H378  1  0.027400  0.991800  0.143100  1.0
  H  H379  1  0.241800  0.222600  0.393100  1.0
  H  H380  1  0.258200  0.777400  0.893100  1.0
  H  H381  1  0.972600  0.508200  0.143100  1.0
  H  H382  1  0.527400  0.491800  0.643100  1.0
  H  H383  1  0.741800  0.722600  0.893100  1.0
  H  H384  1  0.758200  0.277400  0.393100  1.0
  H  H385  1  0.614900  0.058100  0.266900  1.0
  H  H386  1  0.885100  0.941900  0.766900  1.0
  H  H387  1  0.691900  0.864900  0.516900  1.0
  H  H388  1  0.808100  0.135100  0.016900  1.0
  H  H389  1  0.114900  0.558100  0.766900  1.0
  H  H390  1  0.385100  0.441900  0.266900  1.0
  H  H391  1  0.191900  0.364900  0.016900  1.0
  H  H392  1  0.308100  0.635100  0.516900  1.0
  H  H393  1  0.385100  0.941900  0.733100  1.0
  H  H394  1  0.114900  0.058100  0.233100  1.0
  H  H395  1  0.308100  0.135100  0.483100  1.0
  H  H396  1  0.191900  0.864900  0.983100  1.0
  H  H397  1  0.885100  0.441900  0.233100  1.0
  H  H398  1  0.614900  0.558100  0.733100  1.0
  H  H399  1  0.808100  0.635100  0.983100  1.0
  H  H400  1  0.691900  0.364900  0.483100  1.0
  H  H401  1  0.687300  0.023900  0.299100  1.0
  H  H402  1  0.812700  0.976100  0.799100  1.0
  H  H403  1  0.726100  0.937300  0.549100  1.0
  H  H404  1  0.773900  0.062700  0.049100  1.0
  H  H405  1  0.187300  0.523900  0.799100  1.0
  H  H406  1  0.312700  0.476100  0.299100  1.0
  H  H407  1  0.226100  0.437300  0.049100  1.0
  H  H408  1  0.273900  0.562700  0.549100  1.0
  H  H409  1  0.312700  0.976100  0.700900  1.0
  H  H410  1  0.187300  0.023900  0.200900  1.0
  H  H411  1  0.273900  0.062700  0.450900  1.0
  H  H412  1  0.226100  0.937300  0.950900  1.0
  H  H413  1  0.812700  0.476100  0.200900  1.0
  H  H414  1  0.687300  0.523900  0.700900  1.0
  H  H415  1  0.773900  0.562700  0.950900  1.0
  H  H416  1  0.726100  0.437300  0.450900  1.0
  H  H417  1  0.799400  0.922600  0.466900  1.0
  H  H418  1  0.700600  0.077400  0.966900  1.0
  H  H419  1  0.827400  0.049400  0.716900  1.0
  H  H420  1  0.672600  0.950600  0.216900  1.0
  H  H421  1  0.299400  0.422600  0.966900  1.0
  H  H422  1  0.200600  0.577400  0.466900  1.0
  H  H423  1  0.327400  0.549400  0.216900  1.0
  H  H424  1  0.172600  0.450600  0.716900  1.0
  H  H425  1  0.200600  0.077400  0.533100  1.0
  H  H426  1  0.299400  0.922600  0.033100  1.0
  H  H427  1  0.172600  0.950600  0.283100  1.0
  H  H428  1  0.327400  0.049400  0.783100  1.0
  H  H429  1  0.700600  0.577400  0.033100  1.0
  H  H430  1  0.799400  0.422600  0.533100  1.0
  H  H431  1  0.672600  0.450600  0.783100  1.0
  H  H432  1  0.827400  0.549400  0.283100  1.0
  H  H433  1  0.739000  0.931400  0.461300  1.0
  H  H434  1  0.761000  0.068600  0.961300  1.0
  H  H435  1  0.818600  0.989000  0.711300  1.0
  H  H436  1  0.681400  0.011000  0.211300  1.0
  H  H437  1  0.239000  0.431400  0.961300  1.0
  H  H438  1  0.261000  0.568600  0.461300  1.0
  H  H439  1  0.318600  0.489000  0.211300  1.0
  H  H440  1  0.181400  0.511000  0.711300  1.0
  H  H441  1  0.261000  0.068600  0.538700  1.0
  H  H442  1  0.239000  0.931400  0.038700  1.0
  H  H443  1  0.181400  0.011000  0.288700  1.0
  H  H444  1  0.318600  0.989000  0.788700  1.0
  H  H445  1  0.761000  0.568600  0.038700  1.0
  H  H446  1  0.739000  0.431400  0.538700  1.0
  H  H447  1  0.681400  0.511000  0.788700  1.0
  H  H448  1  0.818600  0.489000  0.288700  1.0
  H  H449  1  0.777100  0.979500  0.461900  1.0
  H  H450  1  0.722900  0.020500  0.961900  1.0
  H  H451  1  0.770500  0.027100  0.711900  1.0
  H  H452  1  0.729500  0.972900  0.211900  1.0
  H  H453  1  0.277100  0.479500  0.961900  1.0
  H  H454  1  0.222900  0.520500  0.461900  1.0
  H  H455  1  0.270500  0.527100  0.211900  1.0
  H  H456  1  0.229500  0.472900  0.711900  1.0
  H  H457  1  0.222900  0.020500  0.538100  1.0
  H  H458  1  0.277100  0.979500  0.038100  1.0
  H  H459  1  0.229500  0.972900  0.288100  1.0
  H  H460  1  0.270500  0.027100  0.788100  1.0
  H  H461  1  0.722900  0.520500  0.038100  1.0
  H  H462  1  0.777100  0.479500  0.538100  1.0
  H  H463  1  0.729500  0.472900  0.788100  1.0
  H  H464  1  0.770500  0.527100  0.288100  1.0
  H  H465  1  0.789300  0.888800  0.333900  1.0
  H  H466  1  0.710700  0.111200  0.833900  1.0
  H  H467  1  0.861200  0.039300  0.583900  1.0
  H  H468  1  0.638800  0.960700  0.083900  1.0
  H  H469  1  0.289300  0.388800  0.833900  1.0
  H  H470  1  0.210700  0.611200  0.333900  1.0
  H  H471  1  0.361200  0.539300  0.083900  1.0
  H  H472  1  0.138800  0.460700  0.583900  1.0
  H  H473  1  0.210700  0.111200  0.666100  1.0
  H  H474  1  0.289300  0.888800  0.166100  1.0
  H  H475  1  0.138800  0.960700  0.416100  1.0
  H  H476  1  0.361200  0.039300  0.916100  1.0
  H  H477  1  0.710700  0.611200  0.166100  1.0
  H  H478  1  0.789300  0.388800  0.666100  1.0
  H  H479  1  0.638800  0.460700  0.916100  1.0
  H  H480  1  0.861200  0.539300  0.416100  1.0
  H  H481  1  0.764000  0.834600  0.346700  1.0
  H  H482  1  0.736000  0.165400  0.846700  1.0
  H  H483  1  0.915400  0.014000  0.596700  1.0
  H  H484  1  0.584600  0.986000  0.096700  1.0
  H  H485  1  0.264000  0.334600  0.846700  1.0
  H  H486  1  0.236000  0.665400  0.346700  1.0
  H  H487  1  0.415400  0.514000  0.096700  1.0
  H  H488  1  0.084600  0.486000  0.596700  1.0
  H  H489  1  0.236000  0.165400  0.653300  1.0
  H  H490  1  0.264000  0.834600  0.153300  1.0
  H  H491  1  0.084600  0.986000  0.403300  1.0
  H  H492  1  0.415400  0.014000  0.903300  1.0
  H  H493  1  0.736000  0.665400  0.153300  1.0
  H  H494  1  0.764000  0.334600  0.653300  1.0
  H  H495  1  0.584600  0.486000  0.903300  1.0
  H  H496  1  0.915400  0.514000  0.403300  1.0
  H  H497  1  0.676600  0.825600  0.352800  1.0
  H  H498  1  0.823400  0.174400  0.852800  1.0
  H  H499  1  0.924400  0.926600  0.602800  1.0
  H  H500  1  0.575600  0.073400  0.102800  1.0
  H  H501  1  0.176600  0.325600  0.852800  1.0
  H  H502  1  0.323400  0.674400  0.352800  1.0
  H  H503  1  0.424400  0.426600  0.102800  1.0
  H  H504  1  0.075600  0.573400  0.602800  1.0
  H  H505  1  0.323400  0.174400  0.647200  1.0
  H  H506  1  0.176600  0.825600  0.147200  1.0
  H  H507  1  0.075600  0.073400  0.397200  1.0
  H  H508  1  0.424400  0.926600  0.897200  1.0
  H  H509  1  0.823400  0.674400  0.147200  1.0
  H  H510  1  0.676600  0.325600  0.647200  1.0
  H  H511  1  0.575600  0.573400  0.897200  1.0
  H  H512  1  0.924400  0.426600  0.397200  1.0
  H  H513  1  0.639600  0.874100  0.347100  1.0
  H  H514  1  0.860400  0.125900  0.847100  1.0
  H  H515  1  0.875900  0.889600  0.597100  1.0
  H  H516  1  0.624100  0.110400  0.097100  1.0
  H  H517  1  0.139600  0.374100  0.847100  1.0
  H  H518  1  0.360400  0.625900  0.347100  1.0
  H  H519  1  0.375900  0.389600  0.097100  1.0
  H  H520  1  0.124100  0.610400  0.597100  1.0
  H  H521  1  0.360400  0.125900  0.652900  1.0
  H  H522  1  0.139600  0.874100  0.152900  1.0
  H  H523  1  0.124100  0.110400  0.402900  1.0
  H  H524  1  0.375900  0.889600  0.902900  1.0
  H  H525  1  0.860400  0.625900  0.152900  1.0
  H  H526  1  0.639600  0.374100  0.652900  1.0
  H  H527  1  0.624100  0.610400  0.902900  1.0
  H  H528  1  0.875900  0.389600  0.402900  1.0
  H  H529  1  0.666000  0.863200  0.391600  1.0
  H  H530  1  0.834000  0.136800  0.891600  1.0
  H  H531  1  0.886800  0.916000  0.641600  1.0
  H  H532  1  0.613200  0.084000  0.141600  1.0
  H  H533  1  0.166000  0.363200  0.891600  1.0
  H  H534  1  0.334000  0.636800  0.391600  1.0
  H  H535  1  0.386800  0.416000  0.141600  1.0
  H  H536  1  0.113200  0.584000  0.641600  1.0
  H  H537  1  0.334000  0.136800  0.608400  1.0
  H  H538  1  0.166000  0.863200  0.108400  1.0
  H  H539  1  0.113200  0.084000  0.358400  1.0
  H  H540  1  0.386800  0.916000  0.858400  1.0
  H  H541  1  0.834000  0.636800  0.108400  1.0
  H  H542  1  0.666000  0.363200  0.608400  1.0
  H  H543  1  0.613200  0.584000  0.858400  1.0
  H  H544  1  0.886800  0.416000  0.358400  1.0
  H  H545  1  0.813600  0.867100  0.404100  1.0
  H  H546  1  0.686400  0.132900  0.904100  1.0
  H  H547  1  0.882900  0.063600  0.654100  1.0
  H  H548  1  0.617100  0.936400  0.154100  1.0
  H  H549  1  0.313600  0.367100  0.904100  1.0
  H  H550  1  0.186400  0.632900  0.404100  1.0
  H  H551  1  0.382900  0.563600  0.154100  1.0
  H  H552  1  0.117100  0.436400  0.654100  1.0
  H  H553  1  0.186400  0.132900  0.595900  1.0
  H  H554  1  0.313600  0.867100  0.095900  1.0
  H  H555  1  0.117100  0.936400  0.345900  1.0
  H  H556  1  0.382900  0.063600  0.845900  1.0
  H  H557  1  0.686400  0.632900  0.095900  1.0
  H  H558  1  0.813600  0.367100  0.595900  1.0
  H  H559  1  0.617100  0.436400  0.845900  1.0
  H  H560  1  0.882900  0.563600  0.345900  1.0
  H  H561  1  0.754200  0.863600  0.417100  1.0
  H  H562  1  0.745800  0.136400  0.917100  1.0
  H  H563  1  0.886400  0.004200  0.667100  1.0
  H  H564  1  0.613600  0.995800  0.167100  1.0
  H  H565  1  0.254200  0.363600  0.917100  1.0
  H  H566  1  0.245800  0.636400  0.417100  1.0
  H  H567  1  0.386400  0.504200  0.167100  1.0
  H  H568  1  0.113600  0.495800  0.667100  1.0
  H  H569  1  0.245800  0.136400  0.582900  1.0
  H  H570  1  0.254200  0.863600  0.082900  1.0
  H  H571  1  0.113600  0.995800  0.332900  1.0
  H  H572  1  0.386400  0.004200  0.832900  1.0
  H  H573  1  0.745800  0.636400  0.082900  1.0
  H  H574  1  0.754200  0.363600  0.582900  1.0
  H  H575  1  0.613600  0.495800  0.832900  1.0
  H  H576  1  0.886400  0.504200  0.332900  1.0
  H  H577  1  0.703300  0.863300  0.287000  1.0
  H  H578  1  0.796700  0.136700  0.787000  1.0
  H  H579  1  0.886700  0.953300  0.537000  1.0
  H  H580  1  0.613300  0.046700  0.037000  1.0
  H  H581  1  0.203300  0.363300  0.787000  1.0
  H  H582  1  0.296700  0.636700  0.287000  1.0
  H  H583  1  0.386700  0.453300  0.037000  1.0
  H  H584  1  0.113300  0.546700  0.537000  1.0
  H  H585  1  0.296700  0.136700  0.713000  1.0
  H  H586  1  0.203300  0.863300  0.213000  1.0
  H  H587  1  0.113300  0.046700  0.463000  1.0
  H  H588  1  0.386700  0.953300  0.963000  1.0
  H  H589  1  0.796700  0.636700  0.213000  1.0
  H  H590  1  0.703300  0.363300  0.713000  1.0
  H  H591  1  0.613300  0.546700  0.963000  1.0
  H  H592  1  0.886700  0.453300  0.463000  1.0
  H  H593  1  0.729300  0.919000  0.286000  1.0
  H  H594  1  0.770700  0.081000  0.786000  1.0
  H  H595  1  0.831000  0.979300  0.536000  1.0
  H  H596  1  0.669000  0.020700  0.036000  1.0
  H  H597  1  0.229300  0.419000  0.786000  1.0
  H  H598  1  0.270700  0.581000  0.286000  1.0
  H  H599  1  0.331000  0.479300  0.036000  1.0
  H  H600  1  0.169000  0.520700  0.536000  1.0
  H  H601  1  0.270700  0.081000  0.714000  1.0
  H  H602  1  0.229300  0.919000  0.214000  1.0
  H  H603  1  0.169000  0.020700  0.464000  1.0
  H  H604  1  0.331000  0.979300  0.964000  1.0
  H  H605  1  0.770700  0.581000  0.214000  1.0
  H  H606  1  0.729300  0.419000  0.714000  1.0
  H  H607  1  0.669000  0.520700  0.964000  1.0
  H  H608  1  0.831000  0.479300  0.464000  1.0
  H  H609  1  0.669300  0.913300  0.295600  1.0
  H  H610  1  0.830700  0.086700  0.795600  1.0
  H  H611  1  0.836700  0.919300  0.545600  1.0
  H  H612  1  0.663300  0.080700  0.045600  1.0
  H  H613  1  0.169300  0.413300  0.795600  1.0
  H  H614  1  0.330700  0.586700  0.295600  1.0
  H  H615  1  0.336700  0.419300  0.045600  1.0
  H  H616  1  0.163300  0.580700  0.545600  1.0
  H  H617  1  0.330700  0.086700  0.704400  1.0
  H  H618  1  0.169300  0.913300  0.204400  1.0
  H  H619  1  0.163300  0.080700  0.454400  1.0
  H  H620  1  0.336700  0.919300  0.954400  1.0
  H  H621  1  0.830700  0.586700  0.204400  1.0
  H  H622  1  0.669300  0.413300  0.704400  1.0
  H  H623  1  0.663300  0.580700  0.954400  1.0
  H  H624  1  0.836700  0.419300  0.454400  1.0
  H  H625  1  0.854000  0.950200  0.403500  1.0
  H  H626  1  0.646000  0.049800  0.903500  1.0
  H  H627  1  0.799800  0.104000  0.653500  1.0
  H  H628  1  0.700200  0.896000  0.153500  1.0
  H  H629  1  0.354000  0.450200  0.903500  1.0
  H  H630  1  0.146000  0.549800  0.403500  1.0
  H  H631  1  0.299800  0.604000  0.153500  1.0
  H  H632  1  0.200200  0.396000  0.653500  1.0
  H  H633  1  0.146000  0.049800  0.596500  1.0
  H  H634  1  0.354000  0.950200  0.096500  1.0
  H  H635  1  0.200200  0.896000  0.346500  1.0
  H  H636  1  0.299800  0.104000  0.846500  1.0
  H  H637  1  0.646000  0.549800  0.096500  1.0
  H  H638  1  0.854000  0.450200  0.596500  1.0
  H  H639  1  0.700200  0.396000  0.846500  1.0
  H  H640  1  0.799800  0.604000  0.346500  1.0
  H  H641  1  0.821300  0.001300  0.395500  1.0
  H  H642  1  0.678700  0.998700  0.895500  1.0
  H  H643  1  0.748700  0.071300  0.645500  1.0
  H  H644  1  0.751300  0.928700  0.145500  1.0
  H  H645  1  0.321300  0.501300  0.895500  1.0
  H  H646  1  0.178700  0.498700  0.395500  1.0
  H  H647  1  0.248700  0.571300  0.145500  1.0
  H  H648  1  0.251300  0.428700  0.645500  1.0
  H  H649  1  0.178700  0.998700  0.604500  1.0
  H  H650  1  0.321300  0.001300  0.104500  1.0
  H  H651  1  0.251300  0.928700  0.354500  1.0
  H  H652  1  0.248700  0.071300  0.854500  1.0
  H  H653  1  0.678700  0.498700  0.104500  1.0
  H  H654  1  0.821300  0.501300  0.604500  1.0
  H  H655  1  0.751300  0.428700  0.854500  1.0
  H  H656  1  0.748700  0.571300  0.354500  1.0
  H  H657  1  0.823900  0.957700  0.360200  1.0
  H  H658  1  0.676100  0.042300  0.860200  1.0
  H  H659  1  0.792300  0.073900  0.610200  1.0
  H  H660  1  0.707700  0.926100  0.110200  1.0
  H  H661  1  0.323900  0.457700  0.860200  1.0
  H  H662  1  0.176100  0.542300  0.360200  1.0
  H  H663  1  0.292300  0.573900  0.110200  1.0
  H  H664  1  0.207700  0.426100  0.610200  1.0
  H  H665  1  0.176100  0.042300  0.639800  1.0
  H  H666  1  0.323900  0.957700  0.139800  1.0
  H  H667  1  0.207700  0.926100  0.389800  1.0
  H  H668  1  0.292300  0.073900  0.889800  1.0
  H  H669  1  0.676100  0.542300  0.139800  1.0
  H  H670  1  0.823900  0.457700  0.639800  1.0
  H  H671  1  0.707700  0.426100  0.889800  1.0
  H  H672  1  0.792300  0.573900  0.389800  1.0
  H  H673  1  0.322400  0.997600  0.386600  1.0
  H  H674  1  0.177600  0.002400  0.886600  1.0
  H  H675  1  0.752400  0.572400  0.636600  1.0
  H  H676  1  0.747600  0.427600  0.136600  1.0
  H  H677  1  0.822400  0.497600  0.886600  1.0
  H  H678  1  0.677600  0.502400  0.386600  1.0
  H  H679  1  0.252400  0.072400  0.136600  1.0
  H  H680  1  0.247600  0.927600  0.636600  1.0
  H  H681  1  0.677600  0.002400  0.613400  1.0
  H  H682  1  0.822400  0.997600  0.113400  1.0
  H  H683  1  0.247600  0.427600  0.363400  1.0
  H  H684  1  0.252400  0.572400  0.863400  1.0
  H  H685  1  0.177600  0.502400  0.113400  1.0
  H  H686  1  0.322400  0.497600  0.613400  1.0
  H  H687  1  0.747600  0.927600  0.863400  1.0
  H  H688  1  0.752400  0.072400  0.363400  1.0
  H  H689  1  0.402800  0.007200  0.356500  1.0
  H  H690  1  0.097200  0.992800  0.856500  1.0
  H  H691  1  0.742800  0.652800  0.606500  1.0
  H  H692  1  0.757200  0.347200  0.106500  1.0
  H  H693  1  0.902800  0.507200  0.856500  1.0
  H  H694  1  0.597200  0.492800  0.356500  1.0
  H  H695  1  0.242800  0.152800  0.106500  1.0
  H  H696  1  0.257200  0.847200  0.606500  1.0
  H  H697  1  0.597200  0.992800  0.643500  1.0
  H  H698  1  0.902800  0.007200  0.143500  1.0
  H  H699  1  0.257200  0.347200  0.393500  1.0
  H  H700  1  0.242800  0.652800  0.893500  1.0
  H  H701  1  0.097200  0.492800  0.143500  1.0
  H  H702  1  0.402800  0.507200  0.643500  1.0
  H  H703  1  0.757200  0.847200  0.893500  1.0
  H  H704  1  0.742800  0.152800  0.393500  1.0
  H  H705  1  0.338700  0.093600  0.265700  1.0
  H  H706  1  0.161300  0.906400  0.765700  1.0
  H  H707  1  0.656400  0.588700  0.515700  1.0
  H  H708  1  0.843600  0.411300  0.015700  1.0
  H  H709  1  0.838700  0.593600  0.765700  1.0
  H  H710  1  0.661300  0.406400  0.265700  1.0
  H  H711  1  0.156400  0.088700  0.015700  1.0
  H  H712  1  0.343600  0.911300  0.515700  1.0
  H  H713  1  0.661300  0.906400  0.734300  1.0
  H  H714  1  0.838700  0.093600  0.234300  1.0
  H  H715  1  0.343600  0.411300  0.484300  1.0
  H  H716  1  0.156400  0.588700  0.984300  1.0
  H  H717  1  0.161300  0.406400  0.234300  1.0
  H  H718  1  0.338700  0.593600  0.734300  1.0
  H  H719  1  0.843600  0.911300  0.984300  1.0
  H  H720  1  0.656400  0.088700  0.484300  1.0
  H  H721  1  0.259000  0.078500  0.295700  1.0
  H  H722  1  0.241000  0.921500  0.795700  1.0
  H  H723  1  0.671500  0.509000  0.545700  1.0
  H  H724  1  0.828500  0.491000  0.045700  1.0
  H  H725  1  0.759000  0.578500  0.795700  1.0
  H  H726  1  0.741000  0.421500  0.295700  1.0
  H  H727  1  0.171500  0.009000  0.045700  1.0
  H  H728  1  0.328500  0.991000  0.545700  1.0
  H  H729  1  0.741000  0.921500  0.704300  1.0
  H  H730  1  0.759000  0.078500  0.204300  1.0
  H  H731  1  0.328500  0.491000  0.454300  1.0
  H  H732  1  0.171500  0.509000  0.954300  1.0
  H  H733  1  0.241000  0.421500  0.204300  1.0
  H  H734  1  0.259000  0.578500  0.704300  1.0
  H  H735  1  0.828500  0.991000  0.954300  1.0
  H  H736  1  0.671500  0.009000  0.454300  1.0
  H  H737  1  0.416500  0.200000  0.136900  1.0
  H  H738  1  0.083500  0.800000  0.636900  1.0
  H  H739  1  0.550000  0.666500  0.386900  1.0
  H  H740  1  0.950000  0.333500  0.886900  1.0
  H  H741  1  0.916500  0.700000  0.636900  1.0
  H  H742  1  0.583500  0.300000  0.136900  1.0
  H  H743  1  0.050000  0.166500  0.886900  1.0
  H  H744  1  0.450000  0.833500  0.386900  1.0
  H  H745  1  0.583500  0.800000  0.863100  1.0
  H  H746  1  0.916500  0.200000  0.363100  1.0
  H  H747  1  0.450000  0.333500  0.613100  1.0
  H  H748  1  0.050000  0.666500  0.113100  1.0
  H  H749  1  0.083500  0.300000  0.363100  1.0
  H  H750  1  0.416500  0.700000  0.863100  1.0
  H  H751  1  0.950000  0.833500  0.113100  1.0
  H  H752  1  0.550000  0.166500  0.613100  1.0
  H  H753  1  0.496900  0.204300  0.975100  1.0
  H  H754  1  0.003100  0.795700  0.475100  1.0
  H  H755  1  0.545700  0.746900  0.225100  1.0
  H  H756  1  0.954300  0.253100  0.725100  1.0
  H  H757  1  0.996900  0.704300  0.475100  1.0
  H  H758  1  0.503100  0.295700  0.975100  1.0
  H  H759  1  0.045700  0.246900  0.725100  1.0
  H  H760  1  0.454300  0.753100  0.225100  1.0
  H  H761  1  0.503100  0.795700  0.024900  1.0
  H  H762  1  0.996900  0.204300  0.524900  1.0
  H  H763  1  0.454300  0.253100  0.774900  1.0
  H  H764  1  0.045700  0.746900  0.274900  1.0
  H  H765  1  0.003100  0.295700  0.524900  1.0
  H  H766  1  0.496900  0.704300  0.024900  1.0
  H  H767  1  0.954300  0.753100  0.274900  1.0
  H  H768  1  0.545700  0.246900  0.774900  1.0
  H  H769  1  0.547800  0.222700  0.999100  1.0
  H  H770  1  0.952200  0.777300  0.499100  1.0
  H  H771  1  0.527300  0.797800  0.249100  1.0
  H  H772  1  0.972700  0.202200  0.749100  1.0
  H  H773  1  0.047800  0.722700  0.499100  1.0
  H  H774  1  0.452200  0.277300  0.999100  1.0
  H  H775  1  0.027300  0.297800  0.749100  1.0
  H  H776  1  0.472700  0.702200  0.249100  1.0
  H  H777  1  0.452200  0.777300  0.000900  1.0
  H  H778  1  0.047800  0.222700  0.500900  1.0
  H  H779  1  0.472700  0.202200  0.750900  1.0
  H  H780  1  0.027300  0.797800  0.250900  1.0
  H  H781  1  0.952200  0.277300  0.500900  1.0
  H  H782  1  0.547800  0.722700  0.000900  1.0
  H  H783  1  0.972700  0.702200  0.250900  1.0
  H  H784  1  0.527300  0.297800  0.750900  1.0
  H  H785  1  0.520200  0.127900  0.021200  1.0
  H  H786  1  0.979800  0.872100  0.521200  1.0
  H  H787  1  0.622100  0.770200  0.271200  1.0
  H  H788  1  0.877900  0.229800  0.771200  1.0
  H  H789  1  0.020200  0.627900  0.521200  1.0
  H  H790  1  0.479800  0.372100  0.021200  1.0
  H  H791  1  0.122100  0.270200  0.771200  1.0
  H  H792  1  0.377900  0.729800  0.271200  1.0
  H  H793  1  0.479800  0.872100  0.978800  1.0
  H  H794  1  0.020200  0.127900  0.478800  1.0
  H  H795  1  0.377900  0.229800  0.728800  1.0
  H  H796  1  0.122100  0.770200  0.228800  1.0
  H  H797  1  0.979800  0.372100  0.478800  1.0
  H  H798  1  0.520200  0.627900  0.978800  1.0
  H  H799  1  0.877900  0.729800  0.228800  1.0
  H  H800  1  0.622100  0.270200  0.728800  1.0
  H  H801  1  0.510600  0.131600  0.070700  1.0
  H  H802  1  0.989400  0.868400  0.570700  1.0
  H  H803  1  0.618400  0.760600  0.320700  1.0
  H  H804  1  0.881600  0.239400  0.820700  1.0
  H  H805  1  0.010600  0.631600  0.570700  1.0
  H  H806  1  0.489400  0.368400  0.070700  1.0
  H  H807  1  0.118400  0.260600  0.820700  1.0
  H  H808  1  0.381600  0.739400  0.320700  1.0
  H  H809  1  0.489400  0.868400  0.929300  1.0
  H  H810  1  0.010600  0.131600  0.429300  1.0
  H  H811  1  0.381600  0.239400  0.679300  1.0
  H  H812  1  0.118400  0.760600  0.179300  1.0
  H  H813  1  0.989400  0.368400  0.429300  1.0
  H  H814  1  0.510600  0.631600  0.929300  1.0
  H  H815  1  0.881600  0.739400  0.179300  1.0
  H  H816  1  0.618400  0.260600  0.679300  1.0
  H  H817  1  0.558900  0.159900  0.050100  1.0
  H  H818  1  0.941100  0.840100  0.550100  1.0
  H  H819  1  0.590100  0.808900  0.300100  1.0
  H  H820  1  0.909900  0.191100  0.800100  1.0
  H  H821  1  0.058900  0.659900  0.550100  1.0
  H  H822  1  0.441100  0.340100  0.050100  1.0
  H  H823  1  0.090100  0.308900  0.800100  1.0
  H  H824  1  0.409900  0.691100  0.300100  1.0
  H  H825  1  0.441100  0.840100  0.949900  1.0
  H  H826  1  0.058900  0.159900  0.449900  1.0
  H  H827  1  0.409900  0.191100  0.699900  1.0
  H  H828  1  0.090100  0.808900  0.199900  1.0
  H  H829  1  0.941100  0.340100  0.449900  1.0
  H  H830  1  0.558900  0.659900  0.949900  1.0
  H  H831  1  0.909900  0.691100  0.199900  1.0
  H  H832  1  0.590100  0.308900  0.699900  1.0
  H  H833  1  0.431400  0.160200  0.010900  1.0
  H  H834  1  0.068600  0.839800  0.510900  1.0
  H  H835  1  0.589800  0.681400  0.260900  1.0
  H  H836  1  0.910200  0.318600  0.760900  1.0
  H  H837  1  0.931400  0.660200  0.510900  1.0
  H  H838  1  0.568600  0.339800  0.010900  1.0
  H  H839  1  0.089800  0.181400  0.760900  1.0
  H  H840  1  0.410200  0.818600  0.260900  1.0
  H  H841  1  0.568600  0.839800  0.989100  1.0
  H  H842  1  0.931400  0.160200  0.489100  1.0
  H  H843  1  0.410200  0.318600  0.739100  1.0
  H  H844  1  0.089800  0.681400  0.239100  1.0
  H  H845  1  0.068600  0.339800  0.489100  1.0
  H  H846  1  0.431400  0.660200  0.989100  1.0
  H  H847  1  0.910200  0.818600  0.239100  1.0
  H  H848  1  0.589800  0.181400  0.739100  1.0
  H  H849  1  0.414800  0.212500  0.033500  1.0
  H  H850  1  0.085200  0.787500  0.533500  1.0
  H  H851  1  0.537500  0.664800  0.283500  1.0
  H  H852  1  0.962500  0.335200  0.783500  1.0
  H  H853  1  0.914800  0.712500  0.533500  1.0
  H  H854  1  0.585200  0.287500  0.033500  1.0
  H  H855  1  0.037500  0.164800  0.783500  1.0
  H  H856  1  0.462500  0.835200  0.283500  1.0
  H  H857  1  0.585200  0.787500  0.966500  1.0
  H  H858  1  0.914800  0.212500  0.466500  1.0
  H  H859  1  0.462500  0.335200  0.716500  1.0
  H  H860  1  0.037500  0.664800  0.216500  1.0
  H  H861  1  0.085200  0.287500  0.466500  1.0
  H  H862  1  0.414800  0.712500  0.966500  1.0
  H  H863  1  0.962500  0.835200  0.216500  1.0
  H  H864  1  0.537500  0.164800  0.716500  1.0
  H  H865  1  0.426000  0.162300  0.060900  1.0
  H  H866  1  0.074000  0.837700  0.560900  1.0
  H  H867  1  0.587700  0.676000  0.310900  1.0
  H  H868  1  0.912300  0.324000  0.810900  1.0
  H  H869  1  0.926000  0.662300  0.560900  1.0
  H  H870  1  0.574000  0.337700  0.060900  1.0
  H  H871  1  0.087700  0.176000  0.810900  1.0
  H  H872  1  0.412300  0.824000  0.310900  1.0
  H  H873  1  0.574000  0.837700  0.939100  1.0
  H  H874  1  0.926000  0.162300  0.439100  1.0
  H  H875  1  0.412300  0.324000  0.689100  1.0
  H  H876  1  0.087700  0.676000  0.189100  1.0
  H  H877  1  0.074000  0.337700  0.439100  1.0
  H  H878  1  0.426000  0.662300  0.939100  1.0
  H  H879  1  0.912300  0.824000  0.189100  1.0
  H  H880  1  0.587700  0.176000  0.689100  1.0
  H  H881  1  0.407500  0.145800  0.193900  1.0
  H  H882  1  0.092500  0.854200  0.693900  1.0
  H  H883  1  0.604200  0.657500  0.443900  1.0
  H  H884  1  0.895800  0.342500  0.943900  1.0
  H  H885  1  0.907500  0.645800  0.693900  1.0
  H  H886  1  0.592500  0.354200  0.193900  1.0
  H  H887  1  0.104200  0.157500  0.943900  1.0
  H  H888  1  0.395800  0.842500  0.443900  1.0
  H  H889  1  0.592500  0.854200  0.806100  1.0
  H  H890  1  0.907500  0.145800  0.306100  1.0
  H  H891  1  0.395800  0.342500  0.556100  1.0
  H  H892  1  0.104200  0.657500  0.056100  1.0
  H  H893  1  0.092500  0.354200  0.306100  1.0
  H  H894  1  0.407500  0.645800  0.806100  1.0
  H  H895  1  0.895800  0.842500  0.056100  1.0
  H  H896  1  0.604200  0.157500  0.556100  1.0
  H  H897  1  0.561700  0.131200  0.198000  1.0
  H  H898  1  0.938300  0.868800  0.698000  1.0
  H  H899  1  0.618800  0.811700  0.448000  1.0
  H  H900  1  0.881200  0.188300  0.948000  1.0
  H  H901  1  0.061700  0.631200  0.698000  1.0
  H  H902  1  0.438300  0.368800  0.198000  1.0
  H  H903  1  0.118800  0.311700  0.948000  1.0
  H  H904  1  0.381200  0.688300  0.448000  1.0
  H  H905  1  0.438300  0.868800  0.802000  1.0
  H  H906  1  0.061700  0.131200  0.302000  1.0
  H  H907  1  0.381200  0.188300  0.552000  1.0
  H  H908  1  0.118800  0.811700  0.052000  1.0
  H  H909  1  0.938300  0.368800  0.302000  1.0
  H  H910  1  0.561700  0.631200  0.802000  1.0
  H  H911  1  0.881200  0.688300  0.052000  1.0
  H  H912  1  0.618800  0.311700  0.552000  1.0
  H  H913  1  0.567100  0.185200  0.140200  1.0
  H  H914  1  0.932900  0.814800  0.640200  1.0
  H  H915  1  0.564800  0.817100  0.390200  1.0
  H  H916  1  0.935200  0.182900  0.890200  1.0
  H  H917  1  0.067100  0.685200  0.640200  1.0
  H  H918  1  0.432900  0.314800  0.140200  1.0
  H  H919  1  0.064800  0.317100  0.890200  1.0
  H  H920  1  0.435200  0.682900  0.390200  1.0
  H  H921  1  0.432900  0.814800  0.859800  1.0
  H  H922  1  0.067100  0.185200  0.359800  1.0
  H  H923  1  0.435200  0.182900  0.609800  1.0
  H  H924  1  0.064800  0.817100  0.109800  1.0
  H  H925  1  0.932900  0.314800  0.359800  1.0
  H  H926  1  0.567100  0.685200  0.859800  1.0
  H  H927  1  0.935200  0.682900  0.109800  1.0
  H  H928  1  0.564800  0.317100  0.609800  1.0
  Pd  Pd929  1  0.500000  0.250000  0.086662  1.0
  Pd  Pd930  1  0.000000  0.750000  0.586662  1.0
  Pd  Pd931  1  0.500000  0.750000  0.336662  1.0
  Pd  Pd932  1  0.000000  0.250000  0.836662  1.0
  Pd  Pd933  1  0.500000  0.750000  0.913338  1.0
  Pd  Pd934  1  0.000000  0.250000  0.413338  1.0
  Pd  Pd935  1  0.500000  0.250000  0.663338  1.0
  Pd  Pd936  1  0.000000  0.750000  0.163338  1.0
  Pd  Pd937  1  0.714538  0.964554  0.376514  1.0
  Pd  Pd938  1  0.785462  0.035446  0.876514  1.0
  Pd  Pd939  1  0.785446  0.964538  0.626514  1.0
  Pd  Pd940  1  0.714554  0.035462  0.126514  1.0
  Pd  Pd941  1  0.214538  0.464554  0.876514  1.0
  Pd  Pd942  1  0.285462  0.535446  0.376514  1.0
  Pd  Pd943  1  0.285446  0.464538  0.126514  1.0
  Pd  Pd944  1  0.214554  0.535462  0.626514  1.0
  Pd  Pd945  1  0.285462  0.035446  0.623486  1.0
  Pd  Pd946  1  0.214538  0.964554  0.123486  1.0
  Pd  Pd947  1  0.214554  0.035462  0.373486  1.0
  Pd  Pd948  1  0.285446  0.964538  0.873486  1.0
  Pd  Pd949  1  0.785462  0.535446  0.123486  1.0
  Pd  Pd950  1  0.714538  0.464554  0.623486  1.0
  Pd  Pd951  1  0.714554  0.535462  0.873486  1.0
  Pd  Pd952  1  0.785446  0.464538  0.373486  1.0
  C  C953  1  0.640900  0.190400  0.317000  1
  C  C954  1  0.859100  0.809600  0.817000  1
  C  C955  1  0.559600  0.890900  0.567000  1
  C  C956  1  0.940400  0.109100  0.067000  1
  C  C957  1  0.140900  0.690400  0.817000  1
  C  C958  1  0.359100  0.309600  0.317000  1
  C  C959  1  0.059600  0.390900  0.067000  1
  C  C960  1  0.440400  0.609100  0.567000  1
  C  C961  1  0.359100  0.809600  0.683000  1
  C  C962  1  0.140900  0.190400  0.183000  1
  C  C963  1  0.440400  0.109100  0.433000  1
  C  C964  1  0.059600  0.890900  0.933000  1
  C  C965  1  0.859100  0.309600  0.183000  1
  C  C966  1  0.640900  0.690400  0.683000  1
  C  C967  1  0.940400  0.609100  0.933000  1
  C  C968  1  0.559600  0.390900  0.433000  1
  C  C969  1  0.605300  0.193700  0.285500  1
  C  C970  1  0.894700  0.806300  0.785500  1
  C  C971  1  0.556300  0.855300  0.535500  1
  C  C972  1  0.943700  0.144700  0.035500  1
  C  C973  1  0.105300  0.693700  0.785500  1
  C  C974  1  0.394700  0.306300  0.285500  1
  C  C975  1  0.056300  0.355300  0.035500  1
  C  C976  1  0.443700  0.644700  0.535500  1
  C  C977  1  0.394700  0.806300  0.714500  1
  C  C978  1  0.105300  0.193700  0.214500  1
  C  C979  1  0.443700  0.144700  0.464500  1
  C  C980  1  0.056300  0.855300  0.964500  1
  C  C981  1  0.894700  0.306300  0.214500  1
  C  C982  1  0.605300  0.693700  0.714500  1
  C  C983  1  0.943700  0.644700  0.964500  1
  C  C984  1  0.556300  0.355300  0.464500  1
  C  C985  1  0.604200  0.239100  0.263800  1
  C  C986  1  0.895800  0.760900  0.763800  1
  C  C987  1  0.510900  0.854200  0.513800  1
  C  C988  1  0.989100  0.145800  0.013800  1
  C  C989  1  0.104200  0.739100  0.763800  1
  C  C990  1  0.395800  0.260900  0.263800  1
  C  C991  1  0.010900  0.354200  0.013800  1
  C  C992  1  0.489100  0.645800  0.513800  1
  C  C993  1  0.395800  0.760900  0.736200  1
  C  C994  1  0.104200  0.239100  0.236200  1
  C  C995  1  0.489100  0.145800  0.486200  1
  C  C996  1  0.010900  0.854200  0.986200  1
  C  C997  1  0.895800  0.260900  0.236200  1
  C  C998  1  0.604200  0.739100  0.736200  1
  C  C999  1  0.989100  0.645800  0.986200  1
  C  C1000  1  0.510900  0.354200  0.486200  1
  C  C1001  1  0.639000  0.278300  0.270000  1
  C  C1002  1  0.861000  0.721700  0.770000  1
  C  C1003  1  0.471700  0.889000  0.520000  1
  C  C1004  1  0.028300  0.111000  0.020000  1
  C  C1005  1  0.139000  0.778300  0.770000  1
  C  C1006  1  0.361000  0.221700  0.270000  1
  C  C1007  1  0.971700  0.389000  0.020000  1
  C  C1008  1  0.528300  0.611000  0.520000  1
  C  C1009  1  0.361000  0.721700  0.730000  1
  C  C1010  1  0.139000  0.278300  0.230000  1
  C  C1011  1  0.528300  0.111000  0.480000  1
  C  C1012  1  0.971700  0.889000  0.980000  1
  C  C1013  1  0.861000  0.221700  0.230000  1
  C  C1014  1  0.639000  0.778300  0.730000  1
  C  C1015  1  0.028300  0.611000  0.980000  1
  C  C1016  1  0.471700  0.389000  0.480000  1
  C  C1017  1  0.675100  0.271400  0.301000  1
  C  C1018  1  0.824900  0.728600  0.801000  1
  C  C1019  1  0.478600  0.925100  0.551000  1
  C  C1020  1  0.021400  0.074900  0.051000  1
  C  C1021  1  0.175100  0.771400  0.801000  1
  C  C1022  1  0.324900  0.228600  0.301000  1
  C  C1023  1  0.978600  0.425100  0.051000  1
  C  C1024  1  0.521400  0.574900  0.551000  1
  C  C1025  1  0.324900  0.728600  0.699000  1
  C  C1026  1  0.175100  0.271400  0.199000  1
  C  C1027  1  0.521400  0.074900  0.449000  1
  C  C1028  1  0.978600  0.925100  0.949000  1
  C  C1029  1  0.824900  0.228600  0.199000  1
  C  C1030  1  0.675100  0.771400  0.699000  1
  C  C1031  1  0.021400  0.574900  0.949000  1
  C  C1032  1  0.478600  0.425100  0.449000  1
  C  C1033  1  0.675300  0.226900  0.325600  1
  C  C1034  1  0.824700  0.773100  0.825600  1
  C  C1035  1  0.523100  0.925300  0.575600  1
  C  C1036  1  0.976900  0.074700  0.075600  1
  C  C1037  1  0.175300  0.726900  0.825600  1
  C  C1038  1  0.324700  0.273100  0.325600  1
  C  C1039  1  0.023100  0.425300  0.075600  1
  C  C1040  1  0.476900  0.574700  0.575600  1
  C  C1041  1  0.324700  0.773100  0.674400  1
  C  C1042  1  0.175300  0.226900  0.174400  1
  C  C1043  1  0.476900  0.074700  0.424400  1
  C  C1044  1  0.023100  0.925300  0.924400  1
  C  C1045  1  0.824700  0.273100  0.174400  1
  C  C1046  1  0.675300  0.726900  0.674400  1
  C  C1047  1  0.976900  0.574700  0.924400  1
  C  C1048  1  0.523100  0.425300  0.424400  1
  C  C1049  1  0.764800  0.925900  0.454000  1
  C  C1050  1  0.735200  0.074100  0.954000  1
  C  C1051  1  0.824100  0.014800  0.704000  1
  C  C1052  1  0.675900  0.985200  0.204000  1
  C  C1053  1  0.264800  0.425900  0.954000  1
  C  C1054  1  0.235200  0.574100  0.454000  1
  C  C1055  1  0.324100  0.514800  0.204000  1
  C  C1056  1  0.175900  0.485200  0.704000  1
  C  C1057  1  0.235200  0.074100  0.546000  1
  C  C1058  1  0.264800  0.925900  0.046000  1
  C  C1059  1  0.175900  0.985200  0.296000  1
  C  C1060  1  0.324100  0.014800  0.796000  1
  C  C1061  1  0.735200  0.574100  0.046000  1
  C  C1062  1  0.764800  0.425900  0.546000  1
  C  C1063  1  0.675900  0.485200  0.796000  1
  C  C1064  1  0.824100  0.514800  0.296000  1
  C  C1065  1  0.761500  0.863600  0.377100  1
  C  C1066  1  0.738500  0.136400  0.877100  1
  C  C1067  1  0.886400  0.011500  0.627100  1
  C  C1068  1  0.613600  0.988500  0.127100  1
  C  C1069  1  0.261500  0.363600  0.877100  1
  C  C1070  1  0.238500  0.636400  0.377100  1
  C  C1071  1  0.386400  0.511500  0.127100  1
  C  C1072  1  0.113600  0.488500  0.627100  1
  C  C1073  1  0.238500  0.136400  0.622900  1
  C  C1074  1  0.261500  0.863600  0.122900  1
  C  C1075  1  0.113600  0.988500  0.372900  1
  C  C1076  1  0.386400  0.011500  0.872900  1
  C  C1077  1  0.738500  0.636400  0.122900  1
  C  C1078  1  0.761500  0.363600  0.622900  1
  C  C1079  1  0.613600  0.488500  0.872900  1
  C  C1080  1  0.886400  0.511500  0.372900  1
  C  C1081  1  0.677500  0.866900  0.364000  1
  C  C1082  1  0.822500  0.133100  0.864000  1
  C  C1083  1  0.883100  0.927500  0.614000  1
  C  C1084  1  0.616900  0.072500  0.114000  1
  C  C1085  1  0.177500  0.366900  0.864000  1
  C  C1086  1  0.322500  0.633100  0.364000  1
  C  C1087  1  0.383100  0.427500  0.114000  1
  C  C1088  1  0.116900  0.572500  0.614000  1
  C  C1089  1  0.322500  0.133100  0.636000  1
  C  C1090  1  0.177500  0.866900  0.136000  1
  C  C1091  1  0.116900  0.072500  0.386000  1
  C  C1092  1  0.383100  0.927500  0.886000  1
  C  C1093  1  0.822500  0.633100  0.136000  1
  C  C1094  1  0.677500  0.366900  0.636000  1
  C  C1095  1  0.616900  0.572500  0.886000  1
  C  C1096  1  0.883100  0.427500  0.386000  1
  C  C1097  1  0.803000  0.898300  0.387400  1
  C  C1098  1  0.697000  0.101700  0.887400  1
  C  C1099  1  0.851700  0.053000  0.637400  1
  C  C1100  1  0.648300  0.947000  0.137400  1
  C  C1101  1  0.303000  0.398300  0.887400  1
  C  C1102  1  0.197000  0.601700  0.387400  1
  C  C1103  1  0.351700  0.553000  0.137400  1
  C  C1104  1  0.148300  0.447000  0.637400  1
  C  C1105  1  0.197000  0.101700  0.612600  1
  C  C1106  1  0.303000  0.898300  0.112600  1
  C  C1107  1  0.148300  0.947000  0.362600  1
  C  C1108  1  0.351700  0.053000  0.862600  1
  C  C1109  1  0.697000  0.601700  0.112600  1
  C  C1110  1  0.803000  0.398300  0.612600  1
  C  C1111  1  0.648300  0.447000  0.862600  1
  C  C1112  1  0.851700  0.553000  0.362600  1
  C  C1113  1  0.735300  0.897100  0.306800  1
  C  C1114  1  0.764700  0.102900  0.806800  1
  C  C1115  1  0.852900  0.985300  0.556800  1
  C  C1116  1  0.647100  0.014700  0.056800  1
  C  C1117  1  0.235300  0.397100  0.806800  1
  C  C1118  1  0.264700  0.602900  0.306800  1
  C  C1119  1  0.352900  0.485300  0.056800  1
  C  C1120  1  0.147100  0.514700  0.556800  1
  C  C1121  1  0.264700  0.102900  0.693200  1
  C  C1122  1  0.235300  0.897100  0.193200  1
  C  C1123  1  0.147100  0.014700  0.443200  1
  C  C1124  1  0.352900  0.985300  0.943200  1
  C  C1125  1  0.764700  0.602900  0.193200  1
  C  C1126  1  0.735300  0.397100  0.693200  1
  C  C1127  1  0.647100  0.514700  0.943200  1
  C  C1128  1  0.852900  0.485300  0.443200  1
  C  C1129  1  0.821900  0.984300  0.415100  1
  C  C1130  1  0.678100  0.015700  0.915100  1
  C  C1131  1  0.765700  0.071900  0.665100  1
  C  C1132  1  0.734300  0.928100  0.165100  1
  C  C1133  1  0.321900  0.484300  0.915100  1
  C  C1134  1  0.178100  0.515700  0.415100  1
  C  C1135  1  0.265700  0.571900  0.165100  1
  C  C1136  1  0.234300  0.428100  0.665100  1
  C  C1137  1  0.178100  0.015700  0.584900  1
  C  C1138  1  0.321900  0.984300  0.084900  1
  C  C1139  1  0.234300  0.928100  0.334900  1
  C  C1140  1  0.265700  0.071900  0.834900  1
  C  C1141  1  0.678100  0.515700  0.084900  1
  C  C1142  1  0.821900  0.484300  0.584900  1
  C  C1143  1  0.734300  0.428100  0.834900  1
  C  C1144  1  0.765700  0.571900  0.334900  1
  C  C1145  1  0.554200  0.237300  0.385600  1
  C  C1146  1  0.945800  0.762700  0.885600  1
  C  C1147  1  0.512700  0.804200  0.635600  1
  C  C1148  1  0.987300  0.195800  0.135600  1
  C  C1149  1  0.054200  0.737300  0.885600  1
  C  C1150  1  0.445800  0.262700  0.385600  1
  C  C1151  1  0.012700  0.304200  0.135600  1
  C  C1152  1  0.487300  0.695800  0.635600  1
  C  C1153  1  0.445800  0.762700  0.614400  1
  C  C1154  1  0.054200  0.237300  0.114400  1
  C  C1155  1  0.487300  0.195800  0.364400  1
  C  C1156  1  0.012700  0.804200  0.864400  1
  C  C1157  1  0.945800  0.262700  0.114400  1
  C  C1158  1  0.554200  0.737300  0.614400  1
  C  C1159  1  0.987300  0.695800  0.864400  1
  C  C1160  1  0.512700  0.304200  0.364400  1
  C  C1161  1  0.526000  0.193800  0.376700  1
  C  C1162  1  0.974000  0.806200  0.876700  1
  C  C1163  1  0.556200  0.776000  0.626700  1
  C  C1164  1  0.943800  0.224000  0.126700  1
  C  C1165  1  0.026000  0.693800  0.876700  1
  C  C1166  1  0.474000  0.306200  0.376700  1
  C  C1167  1  0.056200  0.276000  0.126700  1
  C  C1168  1  0.443800  0.724000  0.626700  1
  C  C1169  1  0.474000  0.806200  0.623300  1
  C  C1170  1  0.026000  0.193800  0.123300  1
  C  C1171  1  0.443800  0.224000  0.373300  1
  C  C1172  1  0.056200  0.776000  0.873300  1
  C  C1173  1  0.974000  0.306200  0.123300  1
  C  C1174  1  0.526000  0.693800  0.623300  1
  C  C1175  1  0.943800  0.724000  0.873300  1
  C  C1176  1  0.556200  0.276000  0.373300  1
  C  C1177  1  0.491600  0.194700  0.343500  1
  C  C1178  1  0.008400  0.805300  0.843500  1
  C  C1179  1  0.555300  0.741600  0.593500  1
  C  C1180  1  0.944700  0.258400  0.093500  1
  C  C1181  1  0.991600  0.694700  0.843500  1
  C  C1182  1  0.508400  0.305300  0.343500  1
  C  C1183  1  0.055300  0.241600  0.093500  1
  C  C1184  1  0.444700  0.758400  0.593500  1
  C  C1185  1  0.508400  0.805300  0.656500  1
  C  C1186  1  0.991600  0.194700  0.156500  1
  C  C1187  1  0.444700  0.258400  0.406500  1
  C  C1188  1  0.055300  0.741600  0.906500  1
  C  C1189  1  0.008400  0.305300  0.156500  1
  C  C1190  1  0.491600  0.694700  0.656500  1
  C  C1191  1  0.944700  0.758400  0.906500  1
  C  C1192  1  0.555300  0.241600  0.406500  1
  C  C1193  1  0.487000  0.237600  0.318700  1
  C  C1194  1  0.013000  0.762400  0.818700  1
  C  C1195  1  0.512400  0.737000  0.568700  1
  C  C1196  1  0.987600  0.263000  0.068700  1
  C  C1197  1  0.987000  0.737600  0.818700  1
  C  C1198  1  0.513000  0.262400  0.318700  1
  C  C1199  1  0.012400  0.237000  0.068700  1
  C  C1200  1  0.487600  0.763000  0.568700  1
  C  C1201  1  0.513000  0.762400  0.681300  1
  C  C1202  1  0.987000  0.237600  0.181300  1
  C  C1203  1  0.487600  0.263000  0.431300  1
  C  C1204  1  0.012400  0.737000  0.931300  1
  C  C1205  1  0.013000  0.262400  0.181300  1
  C  C1206  1  0.487000  0.737600  0.681300  1
  C  C1207  1  0.987600  0.763000  0.931300  1
  C  C1208  1  0.512400  0.237000  0.431300  1
  C  C1209  1  0.511500  0.282700  0.330700  1
  C  C1210  1  0.988500  0.717300  0.830700  1
  C  C1211  1  0.467300  0.761500  0.580700  1
  C  C1212  1  0.032700  0.238500  0.080700  1
  C  C1213  1  0.011500  0.782700  0.830700  1
  C  C1214  1  0.488500  0.217300  0.330700  1
  C  C1215  1  0.967300  0.261500  0.080700  1
  C  C1216  1  0.532700  0.738500  0.580700  1
  C  C1217  1  0.488500  0.717300  0.669300  1
  C  C1218  1  0.011500  0.282700  0.169300  1
  C  C1219  1  0.532700  0.238500  0.419300  1
  C  C1220  1  0.967300  0.761500  0.919300  1
  C  C1221  1  0.988500  0.217300  0.169300  1
  C  C1222  1  0.511500  0.782700  0.669300  1
  C  C1223  1  0.032700  0.738500  0.919300  1
  C  C1224  1  0.467300  0.261500  0.419300  1
  C  C1225  1  0.548700  0.281500  0.362000  1
  C  C1226  1  0.951300  0.718500  0.862000  1
  C  C1227  1  0.468500  0.798700  0.612000  1
  C  C1228  1  0.031500  0.201300  0.112000  1
  C  C1229  1  0.048700  0.781500  0.862000  1
  C  C1230  1  0.451300  0.218500  0.362000  1
  C  C1231  1  0.968500  0.298700  0.112000  1
  C  C1232  1  0.531500  0.701300  0.612000  1
  C  C1233  1  0.451300  0.718500  0.638000  1
  C  C1234  1  0.048700  0.281500  0.138000  1
  C  C1235  1  0.531500  0.201300  0.388000  1
  C  C1236  1  0.968500  0.798700  0.888000  1
  C  C1237  1  0.951300  0.218500  0.138000  1
  C  C1238  1  0.548700  0.781500  0.638000  1
  C  C1239  1  0.031500  0.701300  0.888000  1
  C  C1240  1  0.468500  0.298700  0.388000  1
  C  C1241  1  0.604070  0.978950  0.361980  1.0
  C  C1242  1  0.895930  0.021050  0.861980  1.0
  C  C1243  1  0.771050  0.854070  0.611980  1.0
  C  C1244  1  0.728950  0.145930  0.111980  1.0
  C  C1245  1  0.104070  0.478950  0.861980  1.0
  C  C1246  1  0.395930  0.521050  0.361980  1.0
  C  C1247  1  0.271050  0.354070  0.111980  1.0
  C  C1248  1  0.228950  0.645930  0.611980  1.0
  C  C1249  1  0.395930  0.021050  0.638020  1.0
  C  C1250  1  0.104070  0.978950  0.138020  1.0
  C  C1251  1  0.228950  0.145930  0.388020  1.0
  C  C1252  1  0.271050  0.854070  0.888020  1.0
  C  C1253  1  0.895930  0.521050  0.138020  1.0
  C  C1254  1  0.604070  0.478950  0.638020  1.0
  C  C1255  1  0.728950  0.645930  0.888020  1.0
  C  C1256  1  0.771050  0.354070  0.388020  1.0
  C  C1257  1  0.559860  0.998630  0.344530  1.0
  C  C1258  1  0.940140  0.001370  0.844530  1.0
  C  C1259  1  0.751370  0.809860  0.594530  1.0
  C  C1260  1  0.748630  0.190140  0.094530  1.0
  C  C1261  1  0.059860  0.498630  0.844530  1.0
  C  C1262  1  0.440140  0.501370  0.344530  1.0
  C  C1263  1  0.251370  0.309860  0.094530  1.0
  C  C1264  1  0.248630  0.690140  0.594530  1.0
  C  C1265  1  0.440140  0.001370  0.655470  1.0
  C  C1266  1  0.059860  0.998630  0.155470  1.0
  C  C1267  1  0.248630  0.190140  0.405470  1.0
  C  C1268  1  0.251370  0.809860  0.905470  1.0
  C  C1269  1  0.940140  0.501370  0.155470  1.0
  C  C1270  1  0.559860  0.498630  0.655470  1.0
  C  C1271  1  0.748630  0.690140  0.905470  1.0
  C  C1272  1  0.751370  0.309860  0.405470  1.0
  C  C1273  1  0.563500  0.028620  0.308550  1.0
  C  C1274  1  0.936500  0.971380  0.808550  1.0
  C  C1275  1  0.721380  0.813500  0.558550  1.0
  C  C1276  1  0.778620  0.186500  0.058550  1.0
  C  C1277  1  0.063500  0.528620  0.808550  1.0
  C  C1278  1  0.436500  0.471380  0.308550  1.0
  C  C1279  1  0.221380  0.313500  0.058550  1.0
  C  C1280  1  0.278620  0.686500  0.558550  1.0
  C  C1281  1  0.436500  0.971380  0.691450  1.0
  C  C1282  1  0.063500  0.028620  0.191450  1.0
  C  C1283  1  0.278620  0.186500  0.441450  1.0
  C  C1284  1  0.221380  0.813500  0.941450  1.0
  C  C1285  1  0.936500  0.471380  0.191450  1.0
  C  C1286  1  0.563500  0.528620  0.691450  1.0
  C  C1287  1  0.778620  0.686500  0.941450  1.0
  C  C1288  1  0.721380  0.313500  0.441450  1.0
  C  C1289  1  0.611470  0.037870  0.291500  1.0
  C  C1290  1  0.888530  0.962130  0.791500  1.0
  C  C1291  1  0.712130  0.861470  0.541500  1.0
  C  C1292  1  0.787870  0.138530  0.041500  1.0
  C  C1293  1  0.111470  0.537870  0.791500  1.0
  C  C1294  1  0.388530  0.462130  0.291500  1.0
  C  C1295  1  0.212130  0.361470  0.041500  1.0
  C  C1296  1  0.287870  0.638530  0.541500  1.0
  C  C1297  1  0.388530  0.962130  0.708500  1.0
  C  C1298  1  0.111470  0.037870  0.208500  1.0
  C  C1299  1  0.287870  0.138530  0.458500  1.0
  C  C1300  1  0.212130  0.861470  0.958500  1.0
  C  C1301  1  0.888530  0.462130  0.208500  1.0
  C  C1302  1  0.611470  0.537870  0.708500  1.0
  C  C1303  1  0.787870  0.638530  0.958500  1.0
  C  C1304  1  0.712130  0.361470  0.458500  1.0
  C  C1305  1  0.654350  0.017350  0.310740  1.0
  C  C1306  1  0.845650  0.982650  0.810740  1.0
  C  C1307  1  0.732650  0.904350  0.560740  1.0
  C  C1308  1  0.767350  0.095650  0.060740  1.0
  C  C1309  1  0.154350  0.517350  0.810740  1.0
  C  C1310  1  0.345650  0.482650  0.310740  1.0
  C  C1311  1  0.232650  0.404350  0.060740  1.0
  C  C1312  1  0.267350  0.595650  0.560740  1.0
  C  C1313  1  0.345650  0.982650  0.689260  1.0
  C  C1314  1  0.154350  0.017350  0.189260  1.0
  C  C1315  1  0.267350  0.095650  0.439260  1.0
  C  C1316  1  0.232650  0.904350  0.939260  1.0
  C  C1317  1  0.845650  0.482650  0.189260  1.0
  C  C1318  1  0.654350  0.517350  0.689260  1.0
  C  C1319  1  0.767350  0.595650  0.939260  1.0
  C  C1320  1  0.732650  0.404350  0.439260  1.0
  C  C1321  1  0.516360  0.050540  0.289440  1.0
  C  C1322  1  0.983640  0.949460  0.789440  1.0
  C  C1323  1  0.699460  0.766360  0.539440  1.0
  C  C1324  1  0.800540  0.233640  0.039440  1.0
  C  C1325  1  0.016360  0.550540  0.789440  1.0
  C  C1326  1  0.483640  0.449460  0.289440  1.0
  C  C1327  1  0.199460  0.266360  0.039440  1.0
  C  C1328  1  0.300540  0.733640  0.539440  1.0
  C  C1329  1  0.483640  0.949460  0.710560  1.0
  C  C1330  1  0.016360  0.050540  0.210560  1.0
  C  C1331  1  0.300540  0.233640  0.460560  1.0
  C  C1332  1  0.199460  0.766360  0.960560  1.0
  C  C1333  1  0.983640  0.449460  0.210560  1.0
  C  C1334  1  0.516360  0.550540  0.710560  1.0
  C  C1335  1  0.800540  0.733640  0.960560  1.0
  C  C1336  1  0.699460  0.266360  0.460560  1.0
  C  C1337  1  0.773100  0.943700  0.453200  1.0
  C  C1338  1  0.726900  0.056300  0.953200  1.0
  C  C1339  1  0.806300  0.023100  0.703200  1.0
  C  C1340  1  0.693700  0.976900  0.203200  1.0
  C  C1341  1  0.273100  0.443700  0.953200  1.0
  C  C1342  1  0.226900  0.556300  0.453200  1.0
  C  C1343  1  0.306300  0.523100  0.203200  1.0
  C  C1344  1  0.193700  0.476900  0.703200  1.0
  C  C1345  1  0.226900  0.056300  0.546800  1.0
  C  C1346  1  0.273100  0.943700  0.046800  1.0
  C  C1347  1  0.193700  0.976900  0.296800  1.0
  C  C1348  1  0.306300  0.023100  0.796800  1.0
  C  C1349  1  0.726900  0.556300  0.046800  1.0
  C  C1350  1  0.773100  0.443700  0.546800  1.0
  C  C1351  1  0.693700  0.476900  0.796800  1.0
  C  C1352  1  0.806300  0.523100  0.296800  1.0
  C  C1353  1  0.764600  0.871800  0.353000  1.0
  C  C1354  1  0.735400  0.128200  0.853000  1.0
  C  C1355  1  0.878200  0.014600  0.603000  1.0
  C  C1356  1  0.621800  0.985400  0.103000  1.0
  C  C1357  1  0.264600  0.371800  0.853000  1.0
  C  C1358  1  0.235400  0.628200  0.353000  1.0
  C  C1359  1  0.378200  0.514600  0.103000  1.0
  C  C1360  1  0.121800  0.485400  0.603000  1.0
  C  C1361  1  0.235400  0.128200  0.647000  1.0
  C  C1362  1  0.264600  0.871800  0.147000  1.0
  C  C1363  1  0.121800  0.985400  0.397000  1.0
  C  C1364  1  0.378200  0.014600  0.897000  1.0
  C  C1365  1  0.735400  0.628200  0.147000  1.0
  C  C1366  1  0.764600  0.371800  0.647000  1.0
  C  C1367  1  0.621800  0.485400  0.897000  1.0
  C  C1368  1  0.878200  0.514600  0.397000  1.0
  C  C1369  1  0.670600  0.861300  0.361100  1.0
  C  C1370  1  0.829400  0.138700  0.861100  1.0
  C  C1371  1  0.888700  0.920600  0.611100  1.0
  C  C1372  1  0.611300  0.079400  0.111100  1.0
  C  C1373  1  0.170600  0.361300  0.861100  1.0
  C  C1374  1  0.329400  0.638700  0.361100  1.0
  C  C1375  1  0.388700  0.420600  0.111100  1.0
  C  C1376  1  0.111300  0.579400  0.611100  1.0
  C  C1377  1  0.329400  0.138700  0.638900  1.0
  C  C1378  1  0.170600  0.861300  0.138900  1.0
  C  C1379  1  0.111300  0.079400  0.388900  1.0
  C  C1380  1  0.388700  0.920600  0.888900  1.0
  C  C1381  1  0.829400  0.638700  0.138900  1.0
  C  C1382  1  0.670600  0.361300  0.638900  1.0
  C  C1383  1  0.611300  0.579400  0.888900  1.0
  C  C1384  1  0.888700  0.420600  0.388900  1.0
  C  C1385  1  0.779000  0.881300  0.398500  1.0
  C  C1386  1  0.721000  0.118700  0.898500  1.0
  C  C1387  1  0.868700  0.029000  0.648500  1.0
  C  C1388  1  0.631300  0.971000  0.148500  1.0
  C  C1389  1  0.279000  0.381300  0.898500  1.0
  C  C1390  1  0.221000  0.618700  0.398500  1.0
  C  C1391  1  0.368700  0.529000  0.148500  1.0
  C  C1392  1  0.131300  0.471000  0.648500  1.0
  C  C1393  1  0.221000  0.118700  0.601500  1.0
  C  C1394  1  0.279000  0.881300  0.101500  1.0
  C  C1395  1  0.131300  0.971000  0.351500  1.0
  C  C1396  1  0.368700  0.029000  0.851500  1.0
  C  C1397  1  0.721000  0.618700  0.101500  1.0
  C  C1398  1  0.779000  0.381300  0.601500  1.0
  C  C1399  1  0.631300  0.471000  0.851500  1.0
  C  C1400  1  0.868700  0.529000  0.351500  1.0
  C  C1401  1  0.703100  0.897700  0.299600  1.0
  C  C1402  1  0.796900  0.102300  0.799600  1.0
  C  C1403  1  0.852300  0.953100  0.549600  1.0
  C  C1404  1  0.647700  0.046900  0.049600  1.0
  C  C1405  1  0.203100  0.397700  0.799600  1.0
  C  C1406  1  0.296900  0.602300  0.299600  1.0
  C  C1407  1  0.352300  0.453100  0.049600  1.0
  C  C1408  1  0.147700  0.546900  0.549600  1.0
  C  C1409  1  0.296900  0.102300  0.700400  1.0
  C  C1410  1  0.203100  0.897700  0.200400  1.0
  C  C1411  1  0.147700  0.046900  0.450400  1.0
  C  C1412  1  0.352300  0.953100  0.950400  1.0
  C  C1413  1  0.796900  0.602300  0.200400  1.0
  C  C1414  1  0.703100  0.397700  0.700400  1.0
  C  C1415  1  0.647700  0.546900  0.950400  1.0
  C  C1416  1  0.852300  0.453100  0.450400  1.0
  C  C1417  1  0.823000  0.964200  0.390400  1.0
  C  C1418  1  0.677000  0.035800  0.890400  1.0
  C  C1419  1  0.785800  0.073000  0.640400  1.0
  C  C1420  1  0.714200  0.927000  0.140400  1.0
  C  C1421  1  0.323000  0.464200  0.890400  1.0
  C  C1422  1  0.177000  0.535800  0.390400  1.0
  C  C1423  1  0.285800  0.573000  0.140400  1.0
  C  C1424  1  0.214200  0.427000  0.640400  1.0
  C  C1425  1  0.177000  0.035800  0.609600  1.0
  C  C1426  1  0.323000  0.964200  0.109600  1.0
  C  C1427  1  0.214200  0.927000  0.359600  1.0
  C  C1428  1  0.285800  0.073000  0.859600  1.0
  C  C1429  1  0.677000  0.535800  0.109600  1.0
  C  C1430  1  0.823000  0.464200  0.609600  1.0
  C  C1431  1  0.714200  0.427000  0.859600  1.0
  C  C1432  1  0.785800  0.573000  0.359600  1.0
  C  C1433  1  0.325770  0.017120  0.361610  1.0
  C  C1434  1  0.174230  0.982880  0.861610  1.0
  C  C1435  1  0.732880  0.575770  0.611610  1.0
  C  C1436  1  0.767120  0.424230  0.111610  1.0
  C  C1437  1  0.825770  0.517120  0.861610  1.0
  C  C1438  1  0.674230  0.482880  0.361610  1.0
  C  C1439  1  0.232880  0.075770  0.111610  1.0
  C  C1440  1  0.267120  0.924230  0.611610  1.0
  C  C1441  1  0.674230  0.982880  0.638390  1.0
  C  C1442  1  0.825770  0.017120  0.138390  1.0
  C  C1443  1  0.267120  0.424230  0.388390  1.0
  C  C1444  1  0.232880  0.575770  0.888390  1.0
  C  C1445  1  0.174230  0.482880  0.138390  1.0
  C  C1446  1  0.325770  0.517120  0.638390  1.0
  C  C1447  1  0.767120  0.924230  0.888390  1.0
  C  C1448  1  0.732880  0.075770  0.388390  1.0
  C  C1449  1  0.373810  0.023100  0.344000  1.0
  C  C1450  1  0.126190  0.976900  0.844000  1.0
  C  C1451  1  0.726900  0.623810  0.594000  1.0
  C  C1452  1  0.773100  0.376190  0.094000  1.0
  C  C1453  1  0.873810  0.523100  0.844000  1.0
  C  C1454  1  0.626190  0.476900  0.344000  1.0
  C  C1455  1  0.226900  0.123810  0.094000  1.0
  C  C1456  1  0.273100  0.876190  0.594000  1.0
  C  C1457  1  0.626190  0.976900  0.656000  1.0
  C  C1458  1  0.873810  0.023100  0.156000  1.0
  C  C1459  1  0.273100  0.376190  0.406000  1.0
  C  C1460  1  0.226900  0.623810  0.906000  1.0
  C  C1461  1  0.126190  0.476900  0.156000  1.0
  C  C1462  1  0.373810  0.523100  0.656000  1.0
  C  C1463  1  0.773100  0.876190  0.906000  1.0
  C  C1464  1  0.726900  0.123810  0.406000  1.0
  C  C1465  1  0.379530  0.052370  0.308300  1.0
  C  C1466  1  0.120470  0.947630  0.808300  1.0
  C  C1467  1  0.697630  0.629530  0.558300  1.0
  C  C1468  1  0.802370  0.370470  0.058300  1.0
  C  C1469  1  0.879530  0.552370  0.808300  1.0
  C  C1470  1  0.620470  0.447630  0.308300  1.0
  C  C1471  1  0.197630  0.129530  0.058300  1.0
  C  C1472  1  0.302370  0.870470  0.558300  1.0
  C  C1473  1  0.620470  0.947630  0.691700  1.0
  C  C1474  1  0.879530  0.052370  0.191700  1.0
  C  C1475  1  0.302370  0.370470  0.441700  1.0
  C  C1476  1  0.197630  0.629530  0.941700  1.0
  C  C1477  1  0.120470  0.447630  0.191700  1.0
  C  C1478  1  0.379530  0.552370  0.691700  1.0
  C  C1479  1  0.802370  0.870470  0.941700  1.0
  C  C1480  1  0.697630  0.129530  0.441700  1.0
  C  C1481  1  0.336120  0.073400  0.290410  1.0
  C  C1482  1  0.163880  0.926600  0.790410  1.0
  C  C1483  1  0.676600  0.586120  0.540410  1.0
  C  C1484  1  0.823400  0.413880  0.040410  1.0
  C  C1485  1  0.836120  0.573400  0.790410  1.0
  C  C1486  1  0.663880  0.426600  0.290410  1.0
  C  C1487  1  0.176600  0.086120  0.040410  1.0
  C  C1488  1  0.323400  0.913880  0.540410  1.0
  C  C1489  1  0.663880  0.926600  0.709590  1.0
  C  C1490  1  0.836120  0.073400  0.209590  1.0
  C  C1491  1  0.323400  0.413880  0.459590  1.0
  C  C1492  1  0.176600  0.586120  0.959590  1.0
  C  C1493  1  0.163880  0.426600  0.209590  1.0
  C  C1494  1  0.336120  0.573400  0.709590  1.0
  C  C1495  1  0.823400  0.913880  0.959590  1.0
  C  C1496  1  0.676600  0.086120  0.459590  1.0
  C  C1497  1  0.288880  0.064900  0.308740  1.0
  C  C1498  1  0.211120  0.935100  0.808740  1.0
  C  C1499  1  0.685100  0.538880  0.558740  1.0
  C  C1500  1  0.814900  0.461120  0.058740  1.0
  C  C1501  1  0.788880  0.564900  0.808740  1.0
  C  C1502  1  0.711120  0.435100  0.308740  1.0
  C  C1503  1  0.185100  0.038880  0.058740  1.0
  C  C1504  1  0.314900  0.961120  0.558740  1.0
  C  C1505  1  0.711120  0.935100  0.691260  1.0
  C  C1506  1  0.788880  0.064900  0.191260  1.0
  C  C1507  1  0.314900  0.461120  0.441260  1.0
  C  C1508  1  0.185100  0.538880  0.941260  1.0
  C  C1509  1  0.211120  0.435100  0.191260  1.0
  C  C1510  1  0.288880  0.564900  0.691260  1.0
  C  C1511  1  0.814900  0.961120  0.941260  1.0
  C  C1512  1  0.685100  0.038880  0.441260  1.0
  C  C1513  1  0.430930  0.061940  0.289290  1.0
  C  C1514  1  0.069070  0.938060  0.789290  1.0
  C  C1515  1  0.688060  0.680930  0.539290  1.0
  C  C1516  1  0.811940  0.319070  0.039290  1.0
  C  C1517  1  0.930930  0.561940  0.789290  1.0
  C  C1518  1  0.569070  0.438060  0.289290  1.0
  C  C1519  1  0.188060  0.180930  0.039290  1.0
  C  C1520  1  0.311940  0.819070  0.539290  1.0
  C  C1521  1  0.569070  0.938060  0.710710  1.0
  C  C1522  1  0.930930  0.061940  0.210710  1.0
  C  C1523  1  0.311940  0.319070  0.460710  1.0
  C  C1524  1  0.188060  0.680930  0.960710  1.0
  C  C1525  1  0.069070  0.438060  0.210710  1.0
  C  C1526  1  0.430930  0.561940  0.710710  1.0
  C  C1527  1  0.811940  0.819070  0.960710  1.0
  C  C1528  1  0.688060  0.180930  0.460710  1.0
  C  C1529  1  0.446340  0.185780  0.149510  1.0
  C  C1530  1  0.053660  0.814220  0.649510  1.0
  C  C1531  1  0.564220  0.696340  0.399510  1.0
  C  C1532  1  0.935780  0.303660  0.899510  1.0
  C  C1533  1  0.946340  0.685780  0.649510  1.0
  C  C1534  1  0.553660  0.314220  0.149510  1.0
  C  C1535  1  0.064220  0.196340  0.899510  1.0
  C  C1536  1  0.435780  0.803660  0.399510  1.0
  C  C1537  1  0.553660  0.814220  0.850490  1.0
  C  C1538  1  0.946340  0.185780  0.350490  1.0
  C  C1539  1  0.435780  0.303660  0.600490  1.0
  C  C1540  1  0.064220  0.696340  0.100490  1.0
  C  C1541  1  0.053660  0.314220  0.350490  1.0
  C  C1542  1  0.446340  0.685780  0.850490  1.0
  C  C1543  1  0.935780  0.803660  0.100490  1.0
  C  C1544  1  0.564220  0.196340  0.600490  1.0
  C  C1545  1  0.509800  0.222800  0.000050  1.0
  C  C1546  1  0.990200  0.777200  0.500050  1.0
  C  C1547  1  0.527200  0.759800  0.250050  1.0
  C  C1548  1  0.972800  0.240200  0.750050  1.0
  C  C1549  1  0.009800  0.722800  0.500050  1.0
  C  C1550  1  0.490200  0.277200  0.000050  1.0
  C  C1551  1  0.027200  0.259800  0.750050  1.0
  C  C1552  1  0.472800  0.740200  0.250050  1.0
  C  C1553  1  0.490200  0.777200  0.999950  1.0
  C  C1554  1  0.009800  0.222800  0.499950  1.0
  C  C1555  1  0.472800  0.240200  0.749950  1.0
  C  C1556  1  0.027200  0.759800  0.249950  1.0
  C  C1557  1  0.990200  0.277200  0.499950  1.0
  C  C1558  1  0.509800  0.722800  0.999950  1.0
  C  C1559  1  0.972800  0.740200  0.249950  1.0
  C  C1560  1  0.527200  0.259800  0.749950  1.0
  C  C1561  1  0.523000  0.150100  0.045890  1.0
  C  C1562  1  0.977000  0.849900  0.545890  1.0
  C  C1563  1  0.599900  0.773000  0.295890  1.0
  C  C1564  1  0.900100  0.227000  0.795890  1.0
  C  C1565  1  0.023000  0.650100  0.545890  1.0
  C  C1566  1  0.477000  0.349900  0.045890  1.0
  C  C1567  1  0.099900  0.273000  0.795890  1.0
  C  C1568  1  0.400100  0.727000  0.295890  1.0
  C  C1569  1  0.477000  0.849900  0.954110  1.0
  C  C1570  1  0.023000  0.150100  0.454110  1.0
  C  C1571  1  0.400100  0.227000  0.704110  1.0
  C  C1572  1  0.099900  0.773000  0.204110  1.0
  C  C1573  1  0.977000  0.349900  0.454110  1.0
  C  C1574  1  0.523000  0.650100  0.954110  1.0
  C  C1575  1  0.900100  0.727000  0.204110  1.0
  C  C1576  1  0.599900  0.273000  0.704110  1.0
  C  C1577  1  0.436100  0.181700  0.035800  1.0
  C  C1578  1  0.063900  0.818300  0.535800  1.0
  C  C1579  1  0.568300  0.686100  0.285800  1.0
  C  C1580  1  0.931700  0.313900  0.785800  1.0
  C  C1581  1  0.936100  0.681700  0.535800  1.0
  C  C1582  1  0.563900  0.318300  0.035800  1.0
  C  C1583  1  0.068300  0.186100  0.785800  1.0
  C  C1584  1  0.431700  0.813900  0.285800  1.0
  C  C1585  1  0.563900  0.818300  0.964200  1.0
  C  C1586  1  0.936100  0.181700  0.464200  1.0
  C  C1587  1  0.431700  0.313900  0.714200  1.0
  C  C1588  1  0.068300  0.686100  0.214200  1.0
  C  C1589  1  0.063900  0.318300  0.464200  1.0
  C  C1590  1  0.436100  0.681700  0.964200  1.0
  C  C1591  1  0.931700  0.813900  0.214200  1.0
  C  C1592  1  0.568300  0.186100  0.714200  1.0
  C  C1593  1  0.440690  0.153700  0.183520  1.0
  C  C1594  1  0.059310  0.846300  0.683520  1.0
  C  C1595  1  0.596300  0.690690  0.433520  1.0
  C  C1596  1  0.903700  0.309310  0.933520  1.0
  C  C1597  1  0.940690  0.653700  0.683520  1.0
  C  C1598  1  0.559310  0.346300  0.183520  1.0
  C  C1599  1  0.096300  0.190690  0.933520  1.0
  C  C1600  1  0.403700  0.809310  0.433520  1.0
  C  C1601  1  0.559310  0.846300  0.816480  1.0
  C  C1602  1  0.940690  0.153700  0.316480  1.0
  C  C1603  1  0.403700  0.309310  0.566480  1.0
  C  C1604  1  0.096300  0.690690  0.066480  1.0
  C  C1605  1  0.059310  0.346300  0.316480  1.0
  C  C1606  1  0.440690  0.653700  0.816480  1.0
  C  C1607  1  0.903700  0.809310  0.066480  1.0
  C  C1608  1  0.596300  0.190690  0.566480  1.0
  C  C1609  1  0.483580  0.133380  0.202270  1.0
  C  C1610  1  0.016420  0.866620  0.702270  1.0
  C  C1611  1  0.616620  0.733580  0.452270  1.0
  C  C1612  1  0.883380  0.266420  0.952270  1.0
  C  C1613  1  0.983580  0.633380  0.702270  1.0
  C  C1614  1  0.516420  0.366620  0.202270  1.0
  C  C1615  1  0.116620  0.233580  0.952270  1.0
  C  C1616  1  0.383380  0.766420  0.452270  1.0
  C  C1617  1  0.516420  0.866620  0.797730  1.0
  C  C1618  1  0.983580  0.133380  0.297730  1.0
  C  C1619  1  0.383380  0.266420  0.547730  1.0
  C  C1620  1  0.116620  0.733580  0.047730  1.0
  C  C1621  1  0.016420  0.366620  0.297730  1.0
  C  C1622  1  0.483580  0.633380  0.797730  1.0
  C  C1623  1  0.883380  0.766420  0.047730  1.0
  C  C1624  1  0.616620  0.233580  0.547730  1.0
  C  C1625  1  0.531480  0.145060  0.185830  1.0
  C  C1626  1  0.968520  0.854940  0.685830  1.0
  C  C1627  1  0.604940  0.781480  0.435830  1.0
  C  C1628  1  0.895060  0.218520  0.935830  1.0
  C  C1629  1  0.031480  0.645060  0.685830  1.0
  C  C1630  1  0.468520  0.354940  0.185830  1.0
  C  C1631  1  0.104940  0.281480  0.935830  1.0
  C  C1632  1  0.395060  0.718520  0.435830  1.0
  C  C1633  1  0.468520  0.854940  0.814170  1.0
  C  C1634  1  0.031480  0.145060  0.314170  1.0
  C  C1635  1  0.395060  0.218520  0.564170  1.0
  C  C1636  1  0.104940  0.781480  0.064170  1.0
  C  C1637  1  0.968520  0.354940  0.314170  1.0
  C  C1638  1  0.531480  0.645060  0.814170  1.0
  C  C1639  1  0.895060  0.718520  0.064170  1.0
  C  C1640  1  0.604940  0.281480  0.564170  1.0
  C  C1641  1  0.534300  0.177190  0.151550  1.0
  C  C1642  1  0.965700  0.822810  0.651550  1.0
  C  C1643  1  0.572810  0.784300  0.401550  1.0
  C  C1644  1  0.927190  0.215700  0.901550  1.0
  C  C1645  1  0.034300  0.677190  0.651550  1.0
  C  C1646  1  0.465700  0.322810  0.151550  1.0
  C  C1647  1  0.072810  0.284300  0.901550  1.0
  C  C1648  1  0.427190  0.715700  0.401550  1.0
  C  C1649  1  0.465700  0.822810  0.848450  1.0
  C  C1650  1  0.034300  0.177190  0.348450  1.0
  C  C1651  1  0.427190  0.215700  0.598450  1.0
  C  C1652  1  0.072810  0.784300  0.098450  1.0
  C  C1653  1  0.965700  0.322810  0.348450  1.0
  C  C1654  1  0.534300  0.677190  0.848450  1.0
  C  C1655  1  0.927190  0.715700  0.098450  1.0
  C  C1656  1  0.572810  0.284300  0.598450  1.0
  C  C1657  1  0.479280  0.099690  0.239590  1.0
  C  C1658  1  0.020720  0.900310  0.739590  1.0
  C  C1659  1  0.650310  0.729280  0.489590  1.0
  C  C1660  1  0.849690  0.270720  0.989590  1.0
  C  C1661  1  0.979280  0.599690  0.739590  1.0
  C  C1662  1  0.520720  0.400310  0.239590  1.0
  C  C1663  1  0.150310  0.229280  0.989590  1.0
  C  C1664  1  0.349690  0.770720  0.489590  1.0
  C  C1665  1  0.520720  0.900310  0.760410  1.0
  C  C1666  1  0.979280  0.099690  0.260410  1.0
  C  C1667  1  0.349690  0.270720  0.510410  1.0
  C  C1668  1  0.150310  0.729280  0.010410  1.0
  C  C1669  1  0.020720  0.400310  0.260410  1.0
  C  C1670  1  0.479280  0.599690  0.760410  1.0
  C  C1671  1  0.849690  0.770720  0.010410  1.0
  C  C1672  1  0.650310  0.229280  0.510410  1.0
  N  N1673  1  0.854100  0.825900  0.497100  1
  N  N1674  1  0.645900  0.174100  0.997100  1
  N  N1675  1  0.924100  0.104100  0.747100  1
  N  N1676  1  0.575900  0.895900  0.247100  1
  N  N1677  1  0.354100  0.325900  0.997100  1
  N  N1678  1  0.145900  0.674100  0.497100  1
  N  N1679  1  0.424100  0.604100  0.247100  1
  N  N1680  1  0.075900  0.395900  0.747100  1
  N  N1681  1  0.145900  0.174100  0.502900  1
  N  N1682  1  0.354100  0.825900  0.002900  1
  N  N1683  1  0.075900  0.895900  0.252900  1
  N  N1684  1  0.424100  0.104100  0.752900  1
  N  N1685  1  0.645900  0.674100  0.002900  1
  N  N1686  1  0.854100  0.325900  0.502900  1
  N  N1687  1  0.575900  0.395900  0.752900  1
  N  N1688  1  0.924100  0.604100  0.252900  1
  N  N1689  1  0.718100  0.720600  0.386900  1
  N  N1690  1  0.781900  0.279400  0.886900  1
  N  N1691  1  0.029400  0.968100  0.636900  1
  N  N1692  1  0.470600  0.031900  0.136900  1
  N  N1693  1  0.218100  0.220600  0.886900  1
  N  N1694  1  0.281900  0.779400  0.386900  1
  N  N1695  1  0.529400  0.468100  0.136900  1
  N  N1696  1  0.970600  0.531900  0.636900  1
  N  N1697  1  0.281900  0.279400  0.613100  1
  N  N1698  1  0.218100  0.720600  0.113100  1
  N  N1699  1  0.970600  0.031900  0.363100  1
  N  N1700  1  0.529400  0.968100  0.863100  1
  N  N1701  1  0.781900  0.779400  0.113100  1
  N  N1702  1  0.718100  0.220600  0.613100  1
  N  N1703  1  0.470600  0.531900  0.863100  1
  N  N1704  1  0.029400  0.468100  0.363100  1
  N  N1705  1  0.825500  0.020600  0.301900  1
  N  N1706  1  0.674500  0.979400  0.801900  1
  N  N1707  1  0.729400  0.075500  0.551900  1
  N  N1708  1  0.770600  0.924500  0.051900  1
  N  N1709  1  0.325500  0.520600  0.801900  1
  N  N1710  1  0.174500  0.479400  0.301900  1
  N  N1711  1  0.229400  0.575500  0.051900  1
  N  N1712  1  0.270600  0.424500  0.551900  1
  N  N1713  1  0.174500  0.979400  0.698100  1
  N  N1714  1  0.325500  0.020600  0.198100  1
  N  N1715  1  0.270600  0.924500  0.448100  1
  N  N1716  1  0.229400  0.075500  0.948100  1
  N  N1717  1  0.674500  0.479400  0.198100  1
  N  N1718  1  0.825500  0.520600  0.698100  1
  N  N1719  1  0.770600  0.424500  0.948100  1
  N  N1720  1  0.729400  0.575500  0.448100  1
  N  N1721  1  0.612100  0.936000  0.476400  1
  N  N1722  1  0.887900  0.064000  0.976400  1
  N  N1723  1  0.814000  0.862100  0.726400  1
  N  N1724  1  0.686000  0.137900  0.226400  1
  N  N1725  1  0.112100  0.436000  0.976400  1
  N  N1726  1  0.387900  0.564000  0.476400  1
  N  N1727  1  0.314000  0.362100  0.226400  1
  N  N1728  1  0.186000  0.637900  0.726400  1
  N  N1729  1  0.387900  0.064000  0.523600  1
  N  N1730  1  0.112100  0.936000  0.023600  1
  N  N1731  1  0.186000  0.137900  0.273600  1
  N  N1732  1  0.314000  0.862100  0.773600  1
  N  N1733  1  0.887900  0.564000  0.023600  1
  N  N1734  1  0.612100  0.436000  0.523600  1
  N  N1735  1  0.686000  0.637900  0.773600  1
  N  N1736  1  0.814000  0.362100  0.273600  1
  N  N1737  1  0.650620  0.988240  0.345600  1.0
  N  N1738  1  0.849380  0.011760  0.845600  1.0
  N  N1739  1  0.761760  0.900620  0.595600  1.0
  N  N1740  1  0.738240  0.099380  0.095600  1.0
  N  N1741  1  0.150620  0.488240  0.845600  1.0
  N  N1742  1  0.349380  0.511760  0.345600  1.0
  N  N1743  1  0.261760  0.400620  0.095600  1.0
  N  N1744  1  0.238240  0.599380  0.595600  1.0
  N  N1745  1  0.349380  0.011760  0.654400  1.0
  N  N1746  1  0.150620  0.988240  0.154400  1.0
  N  N1747  1  0.238240  0.099380  0.404400  1.0
  N  N1748  1  0.261760  0.900620  0.904400  1.0
  N  N1749  1  0.849380  0.511760  0.154400  1.0
  N  N1750  1  0.650620  0.488240  0.654400  1.0
  N  N1751  1  0.738240  0.599380  0.904400  1.0
  N  N1752  1  0.761760  0.400620  0.404400  1.0
  N  N1753  1  0.284000  0.037970  0.344430  1.0
  N  N1754  1  0.216000  0.962030  0.844430  1.0
  N  N1755  1  0.712030  0.534000  0.594430  1.0
  N  N1756  1  0.787970  0.466000  0.094430  1.0
  N  N1757  1  0.784000  0.537970  0.844430  1.0
  N  N1758  1  0.716000  0.462030  0.344430  1.0
  N  N1759  1  0.212030  0.034000  0.094430  1.0
  N  N1760  1  0.287970  0.966000  0.594430  1.0
  N  N1761  1  0.716000  0.962030  0.655570  1.0
  N  N1762  1  0.784000  0.037970  0.155570  1.0
  N  N1763  1  0.287970  0.466000  0.405570  1.0
  N  N1764  1  0.212030  0.534000  0.905570  1.0
  N  N1765  1  0.216000  0.462030  0.155570  1.0
  N  N1766  1  0.284000  0.537970  0.655570  1.0
  N  N1767  1  0.787970  0.966000  0.905570  1.0
  N  N1768  1  0.712030  0.034000  0.405570  1.0
  N  N1769  1  0.778680  0.939990  0.408220  1.0
  N  N1770  1  0.721320  0.060010  0.908220  1.0
  N  N1771  1  0.810010  0.028680  0.658220  1.0
  N  N1772  1  0.689990  0.971320  0.158220  1.0
  N  N1773  1  0.278680  0.439990  0.908220  1.0
  N  N1774  1  0.221320  0.560010  0.408220  1.0
  N  N1775  1  0.310010  0.528680  0.158220  1.0
  N  N1776  1  0.189990  0.471320  0.658220  1.0
  N  N1777  1  0.221320  0.060010  0.591780  1.0
  N  N1778  1  0.278680  0.939990  0.091780  1.0
  N  N1779  1  0.189990  0.971320  0.341780  1.0
  N  N1780  1  0.310010  0.028680  0.841780  1.0
  N  N1781  1  0.721320  0.560010  0.091780  1.0
  N  N1782  1  0.778680  0.439990  0.591780  1.0
  N  N1783  1  0.689990  0.471320  0.841780  1.0
  N  N1784  1  0.810010  0.528680  0.341780  1.0
  N  N1785  1  0.715310  0.893350  0.348570  1.0
  N  N1786  1  0.784690  0.106650  0.848570  1.0
  N  N1787  1  0.856650  0.965310  0.598570  1.0
  N  N1788  1  0.643350  0.034690  0.098570  1.0
  N  N1789  1  0.215310  0.393350  0.848570  1.0
  N  N1790  1  0.284690  0.606650  0.348570  1.0
  N  N1791  1  0.356650  0.465310  0.098570  1.0
  N  N1792  1  0.143350  0.534690  0.598570  1.0
  N  N1793  1  0.284690  0.106650  0.651430  1.0
  N  N1794  1  0.215310  0.893350  0.151430  1.0
  N  N1795  1  0.143350  0.034690  0.401430  1.0
  N  N1796  1  0.356650  0.965310  0.901430  1.0
  N  N1797  1  0.784690  0.606650  0.151430  1.0
  N  N1798  1  0.715310  0.393350  0.651430  1.0
  N  N1799  1  0.643350  0.534690  0.901430  1.0
  N  N1800  1  0.856650  0.465310  0.401430  1.0
  N  N1801  1  0.471550  0.040070  0.307530  1.0
  N  N1802  1  0.028450  0.959930  0.807530  1.0
  N  N1803  1  0.709930  0.721550  0.557530  1.0
  N  N1804  1  0.790070  0.278450  0.057530  1.0
  N  N1805  1  0.971550  0.540070  0.807530  1.0
  N  N1806  1  0.528450  0.459930  0.307530  1.0
  N  N1807  1  0.209930  0.221550  0.057530  1.0
  N  N1808  1  0.290070  0.778450  0.557530  1.0
  N  N1809  1  0.528450  0.959930  0.692470  1.0
  N  N1810  1  0.971550  0.040070  0.192470  1.0
  N  N1811  1  0.290070  0.278450  0.442470  1.0
  N  N1812  1  0.209930  0.721550  0.942470  1.0
  N  N1813  1  0.028450  0.459930  0.192470  1.0
  N  N1814  1  0.471550  0.540070  0.692470  1.0
  N  N1815  1  0.790070  0.778450  0.942470  1.0
  N  N1816  1  0.709930  0.221550  0.442470  1.0
  N  N1817  1  0.432420  0.091500  0.255340  1.0
  N  N1818  1  0.067580  0.908500  0.755340  1.0
  N  N1819  1  0.658500  0.682420  0.505340  1.0
  N  N1820  1  0.841500  0.317580  0.005340  1.0
  N  N1821  1  0.932420  0.591500  0.755340  1.0
  N  N1822  1  0.567580  0.408500  0.255340  1.0
  N  N1823  1  0.158500  0.182420  0.005340  1.0
  N  N1824  1  0.341500  0.817580  0.505340  1.0
  N  N1825  1  0.567580  0.908500  0.744660  1.0
  N  N1826  1  0.932420  0.091500  0.244660  1.0
  N  N1827  1  0.341500  0.317580  0.494660  1.0
  N  N1828  1  0.158500  0.682420  0.994660  1.0
  N  N1829  1  0.067580  0.408500  0.244660  1.0
  N  N1830  1  0.432420  0.591500  0.744660  1.0
  N  N1831  1  0.841500  0.817580  0.994660  1.0
  N  N1832  1  0.658500  0.182420  0.494660  1.0
  N  N1833  1  0.492320  0.197580  0.133610  1.0
  N  N1834  1  0.007680  0.802420  0.633610  1.0
  N  N1835  1  0.552420  0.742320  0.383610  1.0
  N  N1836  1  0.947580  0.257680  0.883610  1.0
  N  N1837  1  0.992320  0.697580  0.633610  1.0
  N  N1838  1  0.507680  0.302420  0.133610  1.0
  N  N1839  1  0.052420  0.242320  0.883610  1.0
  N  N1840  1  0.447580  0.757680  0.383610  1.0
  N  N1841  1  0.507680  0.802420  0.866390  1.0
  N  N1842  1  0.992320  0.197580  0.366390  1.0
  N  N1843  1  0.447580  0.257680  0.616390  1.0
  N  N1844  1  0.052420  0.742320  0.116390  1.0
  N  N1845  1  0.007680  0.302420  0.366390  1.0
  N  N1846  1  0.492320  0.697580  0.866390  1.0
  N  N1847  1  0.947580  0.757680  0.116390  1.0
  N  N1848  1  0.552420  0.242320  0.616390  1.0
  N  N1849  1  0.491380  0.196920  0.039430  1.0
  N  N1850  1  0.008620  0.803080  0.539430  1.0
  N  N1851  1  0.553080  0.741380  0.289430  1.0
  N  N1852  1  0.946920  0.258620  0.789430  1.0
  N  N1853  1  0.991380  0.696920  0.539430  1.0
  N  N1854  1  0.508620  0.303080  0.039430  1.0
  N  N1855  1  0.053080  0.241380  0.789430  1.0
  N  N1856  1  0.446920  0.758620  0.289430  1.0
  N  N1857  1  0.508620  0.803080  0.960570  1.0
  N  N1858  1  0.991380  0.196920  0.460570  1.0
  N  N1859  1  0.446920  0.258620  0.710570  1.0
  N  N1860  1  0.053080  0.741380  0.210570  1.0
  N  N1861  1  0.008620  0.303080  0.460570  1.0
  N  N1862  1  0.491380  0.696920  0.960570  1.0
  N  N1863  1  0.946920  0.758620  0.210570  1.0
  N  N1864  1  0.553080  0.241380  0.710570  1.0
  N  N1865  1  0.522740  0.080230  0.255450  1.0
  N  N1866  1  0.977260  0.919770  0.755450  1.0
  N  N1867  1  0.669770  0.772740  0.505450  1.0
  N  N1868  1  0.830230  0.227260  0.005450  1.0
  N  N1869  1  0.022740  0.580230  0.755450  1.0
  N  N1870  1  0.477260  0.419770  0.255450  1.0
  N  N1871  1  0.169770  0.272740  0.005450  1.0
  N  N1872  1  0.330230  0.727260  0.505450  1.0
  N  N1873  1  0.477260  0.919770  0.744550  1.0
  N  N1874  1  0.022740  0.080230  0.244550  1.0
  N  N1875  1  0.330230  0.227260  0.494550  1.0
  N  N1876  1  0.169770  0.772740  0.994550  1.0
  N  N1877  1  0.977260  0.419770  0.244550  1.0
  N  N1878  1  0.522740  0.580230  0.744550  1.0
  N  N1879  1  0.830230  0.727260  0.994550  1.0
  N  N1880  1  0.669770  0.272740  0.494550  1.0
  O  O1881  1  0.845900  0.856700  0.516400  1
  O  O1882  1  0.654100  0.143300  0.016400  1
  O  O1883  1  0.893300  0.095900  0.766400  1
  O  O1884  1  0.606700  0.904100  0.266400  1
  O  O1885  1  0.345900  0.356700  0.016400  1
  O  O1886  1  0.154100  0.643300  0.516400  1
  O  O1887  1  0.393300  0.595900  0.266400  1
  O  O1888  1  0.106700  0.404100  0.766400  1
  O  O1889  1  0.154100  0.143300  0.483600  1
  O  O1890  1  0.345900  0.856700  0.983600  1
  O  O1891  1  0.106700  0.904100  0.233600  1
  O  O1892  1  0.393300  0.095900  0.733600  1
  O  O1893  1  0.654100  0.643300  0.983600  1
  O  O1894  1  0.845900  0.356700  0.483600  1
  O  O1895  1  0.606700  0.404100  0.733600  1
  O  O1896  1  0.893300  0.595900  0.233600  1
  O  O1897  1  0.873900  0.830000  0.459800  1
  O  O1898  1  0.626100  0.170000  0.959800  1
  O  O1899  1  0.920000  0.123900  0.709800  1
  O  O1900  1  0.580000  0.876100  0.209800  1
  O  O1901  1  0.373900  0.330000  0.959800  1
  O  O1902  1  0.126100  0.670000  0.459800  1
  O  O1903  1  0.420000  0.623900  0.209800  1
  O  O1904  1  0.080000  0.376100  0.709800  1
  O  O1905  1  0.126100  0.170000  0.540200  1
  O  O1906  1  0.373900  0.830000  0.040200  1
  O  O1907  1  0.080000  0.876100  0.290200  1
  O  O1908  1  0.420000  0.123900  0.790200  1
  O  O1909  1  0.626100  0.670000  0.040200  1
  O  O1910  1  0.873900  0.330000  0.540200  1
  O  O1911  1  0.580000  0.376100  0.790200  1
  O  O1912  1  0.920000  0.623900  0.290200  1
  O  O1913  1  0.833700  0.785600  0.504600  1
  O  O1914  1  0.666300  0.214400  0.004600  1
  O  O1915  1  0.964400  0.083700  0.754600  1
  O  O1916  1  0.535600  0.916300  0.254600  1
  O  O1917  1  0.333700  0.285600  0.004600  1
  O  O1918  1  0.166300  0.714400  0.504600  1
  O  O1919  1  0.464400  0.583700  0.254600  1
  O  O1920  1  0.035600  0.416300  0.754600  1
  O  O1921  1  0.166300  0.214400  0.495400  1
  O  O1922  1  0.333700  0.785600  0.995400  1
  O  O1923  1  0.035600  0.916300  0.245400  1
  O  O1924  1  0.464400  0.083700  0.745400  1
  O  O1925  1  0.666300  0.714400  0.995400  1
  O  O1926  1  0.833700  0.285600  0.495400  1
  O  O1927  1  0.535600  0.416300  0.745400  1
  O  O1928  1  0.964400  0.583700  0.245400  1
  O  O1929  1  0.932400  0.918600  0.450200  1
  O  O1930  1  0.567600  0.081400  0.950200  1
  O  O1931  1  0.831400  0.182400  0.700200  1
  O  O1932  1  0.668600  0.817600  0.200200  1
  O  O1933  1  0.432400  0.418600  0.950200  1
  O  O1934  1  0.067600  0.581400  0.450200  1
  O  O1935  1  0.331400  0.682400  0.200200  1
  O  O1936  1  0.168600  0.317600  0.700200  1
  O  O1937  1  0.067600  0.081400  0.549800  1
  O  O1938  1  0.432400  0.918600  0.049800  1
  O  O1939  1  0.168600  0.817600  0.299800  1
  O  O1940  1  0.331400  0.182400  0.799800  1
  O  O1941  1  0.567600  0.581400  0.049800  1
  O  O1942  1  0.932400  0.418600  0.549800  1
  O  O1943  1  0.668600  0.317600  0.799800  1
  O  O1944  1  0.831400  0.682400  0.299800  1
  O  O1945  1  0.744300  0.756700  0.401300  1
  O  O1946  1  0.755700  0.243300  0.901300  1
  O  O1947  1  0.993300  0.994300  0.651300  1
  O  O1948  1  0.506700  0.005700  0.151300  1
  O  O1949  1  0.244300  0.256700  0.901300  1
  O  O1950  1  0.255700  0.743300  0.401300  1
  O  O1951  1  0.493300  0.494300  0.151300  1
  O  O1952  1  0.006700  0.505700  0.651300  1
  O  O1953  1  0.255700  0.243300  0.598700  1
  O  O1954  1  0.244300  0.756700  0.098700  1
  O  O1955  1  0.006700  0.005700  0.348700  1
  O  O1956  1  0.493300  0.994300  0.848700  1
  O  O1957  1  0.755700  0.743300  0.098700  1
  O  O1958  1  0.744300  0.256700  0.598700  1
  O  O1959  1  0.506700  0.505700  0.848700  1
  O  O1960  1  0.993300  0.494300  0.348700  1
  O  O1961  1  0.693200  0.725300  0.354100  1
  O  O1962  1  0.806800  0.274700  0.854100  1
  O  O1963  1  0.024700  0.943200  0.604100  1
  O  O1964  1  0.475300  0.056800  0.104100  1
  O  O1965  1  0.193200  0.225300  0.854100  1
  O  O1966  1  0.306800  0.774700  0.354100  1
  O  O1967  1  0.524700  0.443200  0.104100  1
  O  O1968  1  0.975300  0.556800  0.604100  1
  O  O1969  1  0.306800  0.274700  0.645900  1
  O  O1970  1  0.193200  0.725300  0.145900  1
  O  O1971  1  0.975300  0.056800  0.395900  1
  O  O1972  1  0.524700  0.943200  0.895900  1
  O  O1973  1  0.806800  0.774700  0.145900  1
  O  O1974  1  0.693200  0.225300  0.645900  1
  O  O1975  1  0.475300  0.556800  0.895900  1
  O  O1976  1  0.024700  0.443200  0.395900  1
  O  O1977  1  0.718500  0.674400  0.399000  1
  O  O1978  1  0.781500  0.325600  0.899000  1
  O  O1979  1  0.075600  0.968500  0.649000  1
  O  O1980  1  0.424400  0.031500  0.149000  1
  O  O1981  1  0.218500  0.174400  0.899000  1
  O  O1982  1  0.281500  0.825600  0.399000  1
  O  O1983  1  0.575600  0.468500  0.149000  1
  O  O1984  1  0.924400  0.531500  0.649000  1
  O  O1985  1  0.281500  0.325600  0.601000  1
  O  O1986  1  0.218500  0.674400  0.101000  1
  O  O1987  1  0.924400  0.031500  0.351000  1
  O  O1988  1  0.575600  0.968500  0.851000  1
  O  O1989  1  0.781500  0.825600  0.101000  1
  O  O1990  1  0.718500  0.174400  0.601000  1
  O  O1991  1  0.424400  0.531500  0.851000  1
  O  O1992  1  0.075600  0.468500  0.351000  1
  O  O1993  1  0.777900  0.711500  0.471300  1
  O  O1994  1  0.722100  0.288500  0.971300  1
  O  O1995  1  0.038500  0.027900  0.721300  1
  O  O1996  1  0.461500  0.972100  0.221300  1
  O  O1997  1  0.277900  0.211500  0.971300  1
  O  O1998  1  0.222100  0.788500  0.471300  1
  O  O1999  1  0.538500  0.527900  0.221300  1
  O  O2000  1  0.961500  0.472100  0.721300  1
  O  O2001  1  0.222100  0.288500  0.528700  1
  O  O2002  1  0.277900  0.711500  0.028700  1
  O  O2003  1  0.961500  0.972100  0.278700  1
  O  O2004  1  0.538500  0.027900  0.778700  1
  O  O2005  1  0.722100  0.788500  0.028700  1
  O  O2006  1  0.777900  0.211500  0.528700  1
  O  O2007  1  0.461500  0.472100  0.778700  1
  O  O2008  1  0.038500  0.527900  0.278700  1
  O  O2009  1  0.778500  0.012000  0.296000  1
  O  O2010  1  0.721500  0.988000  0.796000  1
  O  O2011  1  0.738000  0.028500  0.546000  1
  O  O2012  1  0.762000  0.971500  0.046000  1
  O  O2013  1  0.278500  0.512000  0.796000  1
  O  O2014  1  0.221500  0.488000  0.296000  1
  O  O2015  1  0.238000  0.528500  0.046000  1
  O  O2016  1  0.262000  0.471500  0.546000  1
  O  O2017  1  0.221500  0.988000  0.704000  1
  O  O2018  1  0.278500  0.012000  0.204000  1
  O  O2019  1  0.262000  0.971500  0.454000  1
  O  O2020  1  0.238000  0.028500  0.954000  1
  O  O2021  1  0.721500  0.488000  0.204000  1
  O  O2022  1  0.778500  0.512000  0.704000  1
  O  O2023  1  0.762000  0.471500  0.954000  1
  O  O2024  1  0.738000  0.528500  0.454000  1
  O  O2025  1  0.840600  0.062100  0.321000  1
  O  O2026  1  0.659400  0.937900  0.821000  1
  O  O2027  1  0.687900  0.090600  0.571000  1
  O  O2028  1  0.812100  0.909400  0.071000  1
  O  O2029  1  0.340600  0.562100  0.821000  1
  O  O2030  1  0.159400  0.437900  0.321000  1
  O  O2031  1  0.187900  0.590600  0.071000  1
  O  O2032  1  0.312100  0.409400  0.571000  1
  O  O2033  1  0.159400  0.937900  0.679000  1
  O  O2034  1  0.340600  0.062100  0.179000  1
  O  O2035  1  0.312100  0.909400  0.429000  1
  O  O2036  1  0.187900  0.090600  0.929000  1
  O  O2037  1  0.659400  0.437900  0.179000  1
  O  O2038  1  0.840600  0.562100  0.679000  1
  O  O2039  1  0.812100  0.409400  0.929000  1
  O  O2040  1  0.687900  0.590600  0.429000  1
  O  O2041  1  0.858900  0.988800  0.287700  1
  O  O2042  1  0.641100  0.011200  0.787700  1
  O  O2043  1  0.761200  0.108900  0.537700  1
  O  O2044  1  0.738800  0.891100  0.037700  1
  O  O2045  1  0.358900  0.488800  0.787700  1
  O  O2046  1  0.141100  0.511200  0.287700  1
  O  O2047  1  0.261200  0.608900  0.037700  1
  O  O2048  1  0.238800  0.391100  0.537700  1
  O  O2049  1  0.141100  0.011200  0.712300  1
  O  O2050  1  0.358900  0.988800  0.212300  1
  O  O2051  1  0.238800  0.891100  0.462300  1
  O  O2052  1  0.261200  0.108900  0.962300  1
  O  O2053  1  0.641100  0.511200  0.212300  1
  O  O2054  1  0.858900  0.488800  0.712300  1
  O  O2055  1  0.738800  0.391100  0.962300  1
  O  O2056  1  0.761200  0.608900  0.462300  1
  O  O2057  1  0.843500  0.910100  0.242100  1
  O  O2058  1  0.656500  0.089900  0.742100  1
  O  O2059  1  0.839900  0.093500  0.492100  1
  O  O2060  1  0.660100  0.906500  0.992100  1
  O  O2061  1  0.343500  0.410100  0.742100  1
  O  O2062  1  0.156500  0.589900  0.242100  1
  O  O2063  1  0.339900  0.593500  0.992100  1
  O  O2064  1  0.160100  0.406500  0.492100  1
  O  O2065  1  0.156500  0.089900  0.757900  1
  O  O2066  1  0.343500  0.910100  0.257900  1
  O  O2067  1  0.160100  0.906500  0.507900  1
  O  O2068  1  0.339900  0.093500  0.007900  1
  O  O2069  1  0.656500  0.589900  0.257900  1
  O  O2070  1  0.843500  0.410100  0.757900  1
  O  O2071  1  0.660100  0.406500  0.007900  1
  O  O2072  1  0.839900  0.593500  0.507900  1
  O  O2073  1  0.629600  0.909200  0.452200  1
  O  O2074  1  0.870400  0.090800  0.952200  1
  O  O2075  1  0.840800  0.879600  0.702200  1
  O  O2076  1  0.659200  0.120400  0.202200  1
  O  O2077  1  0.129600  0.409200  0.952200  1
  O  O2078  1  0.370400  0.590800  0.452200  1
  O  O2079  1  0.340800  0.379600  0.202200  1
  O  O2080  1  0.159200  0.620400  0.702200  1
  O  O2081  1  0.370400  0.090800  0.547800  1
  O  O2082  1  0.129600  0.909200  0.047800  1
  O  O2083  1  0.159200  0.120400  0.297800  1
  O  O2084  1  0.340800  0.879600  0.797800  1
  O  O2085  1  0.870400  0.590800  0.047800  1
  O  O2086  1  0.629600  0.409200  0.547800  1
  O  O2087  1  0.659200  0.620400  0.797800  1
  O  O2088  1  0.840800  0.379600  0.297800  1
  O  O2089  1  0.573500  0.962200  0.474200  1
  O  O2090  1  0.926500  0.037800  0.974200  1
  O  O2091  1  0.787800  0.823500  0.724200  1
  O  O2092  1  0.712200  0.176500  0.224200  1
  O  O2093  1  0.073500  0.462200  0.974200  1
  O  O2094  1  0.426500  0.537800  0.474200  1
  O  O2095  1  0.287800  0.323500  0.224200  1
  O  O2096  1  0.212200  0.676500  0.724200  1
  O  O2097  1  0.426500  0.037800  0.525800  1
  O  O2098  1  0.073500  0.962200  0.025800  1
  O  O2099  1  0.212200  0.176500  0.275800  1
  O  O2100  1  0.287800  0.823500  0.775800  1
  O  O2101  1  0.926500  0.537800  0.025800  1
  O  O2102  1  0.573500  0.462200  0.525800  1
  O  O2103  1  0.712200  0.676500  0.775800  1
  O  O2104  1  0.787800  0.323500  0.275800  1
  O  O2105  1  0.640100  0.952800  0.508000  1
  O  O2106  1  0.859900  0.047200  0.008000  1
  O  O2107  1  0.797200  0.890100  0.758000  1
  O  O2108  1  0.702800  0.109900  0.258000  1
  O  O2109  1  0.140100  0.452800  0.008000  1
  O  O2110  1  0.359900  0.547200  0.508000  1
  O  O2111  1  0.297200  0.390100  0.258000  1
  O  O2112  1  0.202800  0.609900  0.758000  1
  O  O2113  1  0.359900  0.047200  0.492000  1
  O  O2114  1  0.140100  0.952800  0.992000  1
  O  O2115  1  0.202800  0.109900  0.242000  1
  O  O2116  1  0.297200  0.890100  0.742000  1
  O  O2117  1  0.859900  0.547200  0.992000  1
  O  O2118  1  0.640100  0.452800  0.492000  1
  O  O2119  1  0.702800  0.609900  0.742000  1
  O  O2120  1  0.797200  0.390100  0.242000  1
  O  O2121  1  0.603000  0.039000  0.551900  1
  O  O2122  1  0.897000  0.961000  0.051900  1
  O  O2123  1  0.711000  0.853000  0.801900  1
  O  O2124  1  0.789000  0.147000  0.301900  1
  O  O2125  1  0.103000  0.539000  0.051900  1
  O  O2126  1  0.397000  0.461000  0.551900  1
  O  O2127  1  0.211000  0.353000  0.301900  1
  O  O2128  1  0.289000  0.647000  0.801900  1
  O  O2129  1  0.397000  0.961000  0.448100  1
  O  O2130  1  0.103000  0.039000  0.948100  1
  O  O2131  1  0.289000  0.147000  0.198100  1
  O  O2132  1  0.211000  0.853000  0.698100  1
  O  O2133  1  0.897000  0.461000  0.948100  1
  O  O2134  1  0.603000  0.539000  0.448100  1
  O  O2135  1  0.789000  0.647000  0.698100  1
  O  O2136  1  0.711000  0.353000  0.198100  1
  O  O2137  1  0.862100  0.105100  0.386700  1
  O  O2138  1  0.637900  0.894900  0.886700  1
  O  O2139  1  0.644900  0.112100  0.636700  1
  O  O2140  1  0.855100  0.887900  0.136700  1
  O  O2141  1  0.362100  0.605100  0.886700  1
  O  O2142  1  0.137900  0.394900  0.386700  1
  O  O2143  1  0.144900  0.612100  0.136700  1
  O  O2144  1  0.355100  0.387900  0.636700  1
  O  O2145  1  0.137900  0.894900  0.613300  1
  O  O2146  1  0.362100  0.105100  0.113300  1
  O  O2147  1  0.355100  0.887900  0.363300  1
  O  O2148  1  0.144900  0.112100  0.863300  1
  O  O2149  1  0.637900  0.394900  0.113300  1
  O  O2150  1  0.862100  0.605100  0.613300  1
  O  O2151  1  0.855100  0.387900  0.863300  1
  O  O2152  1  0.644900  0.612100  0.363300  1
  O  O2153  1  0.819500  0.244100  0.335000  1
  O  O2154  1  0.680500  0.755900  0.835000  1
  O  O2155  1  0.505900  0.069500  0.585000  1
  O  O2156  1  0.994100  0.930500  0.085000  1
  O  O2157  1  0.319500  0.744100  0.835000  1
  O  O2158  1  0.180500  0.255900  0.335000  1
  O  O2159  1  0.005900  0.569500  0.085000  1
  O  O2160  1  0.494100  0.430500  0.585000  1
  O  O2161  1  0.180500  0.755900  0.665000  1
  O  O2162  1  0.319500  0.244100  0.165000  1
  O  O2163  1  0.494100  0.930500  0.415000  1
  O  O2164  1  0.005900  0.069500  0.915000  1
  O  O2165  1  0.680500  0.255900  0.165000  1
  O  O2166  1  0.819500  0.744100  0.665000  1
  O  O2167  1  0.994100  0.430500  0.915000  1
  O  O2168  1  0.505900  0.569500  0.415000  1
  O  O2169  1  0.412500  0.249200  0.915600  1
  O  O2170  1  0.087500  0.750800  0.415600  1
  O  O2171  1  0.500800  0.662500  0.165600  1
  O  O2172  1  0.999200  0.337500  0.665600  1
  O  O2173  1  0.912500  0.749200  0.415600  1
  O  O2174  1  0.587500  0.250800  0.915600  1
  O  O2175  1  0.000800  0.162500  0.665600  1
  O  O2176  1  0.499200  0.837500  0.165600  1
  O  O2177  1  0.587500  0.750800  0.084400  1
  O  O2178  1  0.912500  0.249200  0.584400  1
  O  O2179  1  0.499200  0.337500  0.834400  1
  O  O2180  1  0.000800  0.662500  0.334400  1
  O  O2181  1  0.087500  0.250800  0.584400  1
  O  O2182  1  0.412500  0.749200  0.084400  1
  O  O2183  1  0.999200  0.837500  0.334400  1
  O  O2184  1  0.500800  0.162500  0.834400  1
  O  O2185  1  0.884600  0.846500  0.320100  1
  O  O2186  1  0.615400  0.153500  0.820100  1
  O  O2187  1  0.903500  0.134600  0.570100  1
  O  O2188  1  0.596500  0.865400  0.070100  1
  O  O2189  1  0.384600  0.346500  0.820100  1
  O  O2190  1  0.115400  0.653500  0.320100  1
  O  O2191  1  0.403500  0.634600  0.070100  1
  O  O2192  1  0.096500  0.365400  0.570100  1
  O  O2193  1  0.115400  0.153500  0.679900  1
  O  O2194  1  0.384600  0.846500  0.179900  1
  O  O2195  1  0.096500  0.865400  0.429900  1
  O  O2196  1  0.403500  0.134600  0.929900  1
  O  O2197  1  0.615400  0.653500  0.179900  1
  O  O2198  1  0.884600  0.346500  0.679900  1
  O  O2199  1  0.596500  0.365400  0.929900  1
  O  O2200  1  0.903500  0.634600  0.429900  1
  O  O2201  1  0.876300  0.775100  0.593690  1
  O  O2202  1  0.623700  0.224900  0.093690  1
  O  O2203  1  0.974900  0.126300  0.843690  1
  O  O2204  1  0.525100  0.873700  0.343690  1
  O  O2205  1  0.376300  0.275100  0.093690  1
  O  O2206  1  0.123700  0.724900  0.593690  1
  O  O2207  1  0.474900  0.626300  0.343690  1
  O  O2208  1  0.025100  0.373700  0.843690  1
  O  O2209  1  0.123700  0.224900  0.406310  1
  O  O2210  1  0.376300  0.775100  0.906310  1
  O  O2211  1  0.025100  0.873700  0.156310  1
  O  O2212  1  0.474900  0.126300  0.656310  1
  O  O2213  1  0.623700  0.724900  0.906310  1
  O  O2214  1  0.876300  0.275100  0.406310  1
  O  O2215  1  0.525100  0.373700  0.656310  1
  O  O2216  1  0.974900  0.626300  0.156310  1
  O  O2217  1  0.347100  0.202600  0.886700  1
  O  O2218  1  0.152900  0.797400  0.386700  1
  O  O2219  1  0.547400  0.597100  0.136700  1
  O  O2220  1  0.952600  0.402900  0.636700  1
  O  O2221  1  0.847100  0.702600  0.386700  1
  O  O2222  1  0.652900  0.297400  0.886700  1
  O  O2223  1  0.047400  0.097100  0.636700  1
  O  O2224  1  0.452600  0.902900  0.136700  1
  O  O2225  1  0.652900  0.797400  0.113300  1
  O  O2226  1  0.847100  0.202600  0.613300  1
  O  O2227  1  0.452600  0.402900  0.863300  1
  O  O2228  1  0.047400  0.597100  0.363300  1
  O  O2229  1  0.152900  0.297400  0.613300  1
  O  O2230  1  0.347100  0.702600  0.113300  1
  O  O2231  1  0.952600  0.902900  0.363300  1
  O  O2232  1  0.547400  0.097100  0.863300  1
  O  O2233  1  0.846500  0.763600  0.339200  1
  O  O2234  1  0.653500  0.236400  0.839200  1
  O  O2235  1  0.986400  0.096500  0.589200  1
  O  O2236  1  0.513600  0.903500  0.089200  1
  O  O2237  1  0.346500  0.263600  0.839200  1
  O  O2238  1  0.153500  0.736400  0.339200  1
  O  O2239  1  0.486400  0.596500  0.089200  1
  O  O2240  1  0.013600  0.403500  0.589200  1
  O  O2241  1  0.153500  0.236400  0.660800  1
  O  O2242  1  0.346500  0.763600  0.160800  1
  O  O2243  1  0.013600  0.903500  0.410800  1
  O  O2244  1  0.486400  0.096500  0.910800  1
  O  O2245  1  0.653500  0.736400  0.160800  1
  O  O2246  1  0.846500  0.263600  0.660800  1
  O  O2247  1  0.513600  0.403500  0.910800  1
  O  O2248  1  0.986400  0.596500  0.410800  1
  O  O2249  1  0.500000  0.250000  0.875000  1
  O  O2250  1  0.000000  0.750000  0.375000  1
  O  O2251  1  0.500000  0.750000  0.125000  1
  O  O2252  1  0.000000  0.250000  0.625000  1
  O  O2253  1  0.924900  0.027500  0.465800  1
  O  O2254  1  0.575100  0.972500  0.965800  1
  O  O2255  1  0.722500  0.174900  0.715800  1
  O  O2256  1  0.777500  0.825100  0.215800  1
  O  O2257  1  0.424900  0.527500  0.965800  1
  O  O2258  1  0.075100  0.472500  0.465800  1
  O  O2259  1  0.222500  0.674900  0.215800  1
  O  O2260  1  0.277500  0.325100  0.715800  1
  O  O2261  1  0.075100  0.972500  0.534200  1
  O  O2262  1  0.424900  0.027500  0.034200  1
  O  O2263  1  0.277500  0.825100  0.284200  1
  O  O2264  1  0.222500  0.174900  0.784200  1
  O  O2265  1  0.575100  0.472500  0.034200  1
  O  O2266  1  0.924900  0.527500  0.534200  1
  O  O2267  1  0.777500  0.325100  0.784200  1
  O  O2268  1  0.722500  0.674900  0.284200  1
  O  O2269  1  0.815400  0.789200  0.286400  1
  O  O2270  1  0.684600  0.210800  0.786400  1
  O  O2271  1  0.960800  0.065400  0.536400  1
  O  O2272  1  0.539200  0.934600  0.036400  1
  O  O2273  1  0.315400  0.289200  0.786400  1
  O  O2274  1  0.184600  0.710800  0.286400  1
  O  O2275  1  0.460800  0.565400  0.036400  1
  O  O2276  1  0.039200  0.434600  0.536400  1
  O  O2277  1  0.184600  0.210800  0.713600  1
  O  O2278  1  0.315400  0.789200  0.213600  1
  O  O2279  1  0.039200  0.934600  0.463600  1
  O  O2280  1  0.460800  0.065400  0.963600  1
  O  O2281  1  0.684600  0.710800  0.213600  1
  O  O2282  1  0.815400  0.289200  0.713600  1
  O  O2283  1  0.539200  0.434600  0.963600  1
  O  O2284  1  0.960800  0.565400  0.463600  1
  O  O2285  1  0.816800  0.754600  0.513800  1
  O  O2286  1  0.683200  0.245400  0.013800  1
  O  O2287  1  0.995400  0.066800  0.763800  1
  O  O2288  1  0.504600  0.933200  0.263800  1
  O  O2289  1  0.316800  0.254600  0.013800  1
  O  O2290  1  0.183200  0.745400  0.513800  1
  O  O2291  1  0.495400  0.566800  0.263800  1
  O  O2292  1  0.004600  0.433200  0.763800  1
  O  O2293  1  0.183200  0.245400  0.486200  1
  O  O2294  1  0.316800  0.754600  0.986200  1
  O  O2295  1  0.004600  0.933200  0.236200  1
  O  O2296  1  0.495400  0.066800  0.736200  1
  O  O2297  1  0.683200  0.745400  0.986200  1
  O  O2298  1  0.816800  0.254600  0.486200  1
  O  O2299  1  0.504600  0.433200  0.736200  1
  O  O2300  1  0.995400  0.566800  0.236200  1
  O  O2301  1  0.799000  0.801500  0.461100  1
  O  O2302  1  0.701000  0.198500  0.961100  1
  O  O2303  1  0.948500  0.049000  0.711100  1
  O  O2304  1  0.551500  0.951000  0.211100  1
  O  O2305  1  0.299000  0.301500  0.961100  1
  O  O2306  1  0.201000  0.698500  0.461100  1
  O  O2307  1  0.448500  0.549000  0.211100  1
  O  O2308  1  0.051500  0.451000  0.711100  1
  O  O2309  1  0.201000  0.198500  0.538900  1
  O  O2310  1  0.299000  0.801500  0.038900  1
  O  O2311  1  0.051500  0.951000  0.288900  1
  O  O2312  1  0.448500  0.049000  0.788900  1
  O  O2313  1  0.701000  0.698500  0.038900  1
  O  O2314  1  0.799000  0.301500  0.538900  1
  O  O2315  1  0.551500  0.451000  0.788900  1
  O  O2316  1  0.948500  0.549000  0.288900  1
  O  O2317  1  0.906900  0.878700  0.451800  1
  O  O2318  1  0.593100  0.121300  0.951800  1
  O  O2319  1  0.871300  0.156900  0.701800  1
  O  O2320  1  0.628700  0.843100  0.201800  1
  O  O2321  1  0.406900  0.378700  0.951800  1
  O  O2322  1  0.093100  0.621300  0.451800  1
  O  O2323  1  0.371300  0.656900  0.201800  1
  O  O2324  1  0.128700  0.343100  0.701800  1
  O  O2325  1  0.093100  0.121300  0.548200  1
  O  O2326  1  0.406900  0.878700  0.048200  1
  O  O2327  1  0.128700  0.843100  0.298200  1
  O  O2328  1  0.371300  0.156900  0.798200  1
  O  O2329  1  0.593100  0.621300  0.048200  1
  O  O2330  1  0.906900  0.378700  0.548200  1
  O  O2331  1  0.628700  0.343100  0.798200  1
  O  O2332  1  0.871300  0.656900  0.298200  1
  O  O2333  1  0.750500  0.711600  0.429900  1
  O  O2334  1  0.749500  0.288400  0.929900  1
  O  O2335  1  0.038400  0.000500  0.679900  1
  O  O2336  1  0.461600  0.999500  0.179900  1
  O  O2337  1  0.250500  0.211600  0.929900  1
  O  O2338  1  0.249500  0.788400  0.429900  1
  O  O2339  1  0.538400  0.500500  0.179900  1
  O  O2340  1  0.961600  0.499500  0.679900  1
  O  O2341  1  0.249500  0.288400  0.570100  1
  O  O2342  1  0.250500  0.711600  0.070100  1
  O  O2343  1  0.961600  0.999500  0.320100  1
  O  O2344  1  0.538400  0.000500  0.820100  1
  O  O2345  1  0.749500  0.788400  0.070100  1
  O  O2346  1  0.750500  0.211600  0.570100  1
  O  O2347  1  0.461600  0.499500  0.820100  1
  O  O2348  1  0.038400  0.500500  0.320100  1
  O  O2349  1  0.684000  0.695200  0.357000  1
  O  O2350  1  0.816000  0.304800  0.857000  1
  O  O2351  1  0.054800  0.934000  0.607000  1
  O  O2352  1  0.445200  0.066000  0.107000  1
  O  O2353  1  0.184000  0.195200  0.857000  1
  O  O2354  1  0.316000  0.804800  0.357000  1
  O  O2355  1  0.554800  0.434000  0.107000  1
  O  O2356  1  0.945200  0.566000  0.607000  1
  O  O2357  1  0.316000  0.304800  0.643000  1
  O  O2358  1  0.184000  0.695200  0.143000  1
  O  O2359  1  0.945200  0.066000  0.393000  1
  O  O2360  1  0.554800  0.934000  0.893000  1
  O  O2361  1  0.816000  0.804800  0.143000  1
  O  O2362  1  0.684000  0.195200  0.643000  1
  O  O2363  1  0.445200  0.566000  0.893000  1
  O  O2364  1  0.054800  0.434000  0.393000  1
  O  O2365  1  0.883000  0.935000  0.271300  1
  O  O2366  1  0.617000  0.065000  0.771300  1
  O  O2367  1  0.815000  0.133000  0.521300  1
  O  O2368  1  0.685000  0.867000  0.021300  1
  O  O2369  1  0.383000  0.435000  0.771300  1
  O  O2370  1  0.117000  0.565000  0.271300  1
  O  O2371  1  0.315000  0.633000  0.021300  1
  O  O2372  1  0.185000  0.367000  0.521300  1
  O  O2373  1  0.117000  0.065000  0.728700  1
  O  O2374  1  0.383000  0.935000  0.228700  1
  O  O2375  1  0.185000  0.867000  0.478700  1
  O  O2376  1  0.315000  0.133000  0.978700  1
  O  O2377  1  0.617000  0.565000  0.228700  1
  O  O2378  1  0.883000  0.435000  0.728700  1
  O  O2379  1  0.685000  0.367000  0.978700  1
  O  O2380  1  0.815000  0.633000  0.478700  1
  O  O2381  1  0.819900  0.919400  0.208800  1
  O  O2382  1  0.680100  0.080600  0.708800  1
  O  O2383  1  0.830600  0.069900  0.458800  1
  O  O2384  1  0.669400  0.930100  0.958800  1
  O  O2385  1  0.319900  0.419400  0.708800  1
  O  O2386  1  0.180100  0.580600  0.208800  1
  O  O2387  1  0.330600  0.569900  0.958800  1
  O  O2388  1  0.169400  0.430100  0.458800  1
  O  O2389  1  0.180100  0.080600  0.791200  1
  O  O2390  1  0.319900  0.919400  0.291200  1
  O  O2391  1  0.169400  0.930100  0.541200  1
  O  O2392  1  0.330600  0.069900  0.041200  1
  O  O2393  1  0.680100  0.580600  0.291200  1
  O  O2394  1  0.819900  0.419400  0.791200  1
  O  O2395  1  0.669400  0.430100  0.041200  1
  O  O2396  1  0.830600  0.569900  0.541200  1
  O  O2397  1  0.785500  0.015000  0.296900  1
  O  O2398  1  0.714500  0.985000  0.796900  1
  O  O2399  1  0.735000  0.035500  0.546900  1
  O  O2400  1  0.765000  0.964500  0.046900  1
  O  O2401  1  0.285500  0.515000  0.796900  1
  O  O2402  1  0.214500  0.485000  0.296900  1
  O  O2403  1  0.235000  0.535500  0.046900  1
  O  O2404  1  0.265000  0.464500  0.546900  1
  O  O2405  1  0.214500  0.985000  0.703100  1
  O  O2406  1  0.285500  0.015000  0.203100  1
  O  O2407  1  0.265000  0.964500  0.453100  1
  O  O2408  1  0.235000  0.035500  0.953100  1
  O  O2409  1  0.714500  0.485000  0.203100  1
  O  O2410  1  0.785500  0.515000  0.703100  1
  O  O2411  1  0.765000  0.464500  0.953100  1
  O  O2412  1  0.735000  0.535500  0.453100  1
  O  O2413  1  0.637200  0.009000  0.538300  1
  O  O2414  1  0.862800  0.991000  0.038300  1
  O  O2415  1  0.741000  0.887200  0.788300  1
  O  O2416  1  0.759000  0.112800  0.288300  1
  O  O2417  1  0.137200  0.509000  0.038300  1
  O  O2418  1  0.362800  0.491000  0.538300  1
  O  O2419  1  0.241000  0.387200  0.288300  1
  O  O2420  1  0.259000  0.612800  0.788300  1
  O  O2421  1  0.362800  0.991000  0.461700  1
  O  O2422  1  0.137200  0.009000  0.961700  1
  O  O2423  1  0.259000  0.112800  0.211700  1
  O  O2424  1  0.241000  0.887200  0.711700  1
  O  O2425  1  0.862800  0.491000  0.961700  1
  O  O2426  1  0.637200  0.509000  0.461700  1
  O  O2427  1  0.759000  0.612800  0.711700  1
  O  O2428  1  0.741000  0.387200  0.211700  1
  O  O2429  1  0.642400  0.921100  0.465500  1
  O  O2430  1  0.857600  0.078900  0.965500  1
  O  O2431  1  0.828900  0.892400  0.715500  1
  O  O2432  1  0.671100  0.107600  0.215500  1
  O  O2433  1  0.142400  0.421100  0.965500  1
  O  O2434  1  0.357600  0.578900  0.465500  1
  O  O2435  1  0.328900  0.392400  0.215500  1
  O  O2436  1  0.171100  0.607600  0.715500  1
  O  O2437  1  0.357600  0.078900  0.534500  1
  O  O2438  1  0.142400  0.921100  0.034500  1
  O  O2439  1  0.171100  0.107600  0.284500  1
  O  O2440  1  0.328900  0.892400  0.784500  1
  O  O2441  1  0.857600  0.578900  0.034500  1
  O  O2442  1  0.642400  0.421100  0.534500  1
  O  O2443  1  0.671100  0.607600  0.784500  1
  O  O2444  1  0.828900  0.392400  0.284500  1
  O  O2445  1  0.570100  0.901000  0.439300  1
  O  O2446  1  0.929900  0.099000  0.939300  1
  O  O2447  1  0.849000  0.820100  0.689300  1
  O  O2448  1  0.651000  0.179900  0.189300  1
  O  O2449  1  0.070100  0.401000  0.939300  1
  O  O2450  1  0.429900  0.599000  0.439300  1
  O  O2451  1  0.349000  0.320100  0.189300  1
  O  O2452  1  0.151000  0.679900  0.689300  1
  O  O2453  1  0.429900  0.099000  0.560700  1
  O  O2454  1  0.070100  0.901000  0.060700  1
  O  O2455  1  0.151000  0.179900  0.310700  1
  O  O2456  1  0.349000  0.820100  0.810700  1
  O  O2457  1  0.929900  0.599000  0.060700  1
  O  O2458  1  0.570100  0.401000  0.560700  1
  O  O2459  1  0.651000  0.679900  0.810700  1
  O  O2460  1  0.849000  0.320100  0.310700  1
  O  O2461  1  0.814000  0.204300  0.356800  1
  O  O2462  1  0.686000  0.795700  0.856800  1
  O  O2463  1  0.545700  0.064000  0.606800  1
  O  O2464  1  0.954300  0.936000  0.106800  1
  O  O2465  1  0.314000  0.704300  0.856800  1
  O  O2466  1  0.186000  0.295700  0.356800  1
  O  O2467  1  0.045700  0.564000  0.106800  1
  O  O2468  1  0.454300  0.436000  0.606800  1
  O  O2469  1  0.186000  0.795700  0.643200  1
  O  O2470  1  0.314000  0.204300  0.143200  1
  O  O2471  1  0.454300  0.936000  0.393200  1
  O  O2472  1  0.045700  0.064000  0.893200  1
  O  O2473  1  0.686000  0.295700  0.143200  1
  O  O2474  1  0.814000  0.704300  0.643200  1
  O  O2475  1  0.954300  0.436000  0.893200  1
  O  O2476  1  0.545700  0.564000  0.393200  1
  O  O2477  1  0.412800  0.303000  0.887800  1
  O  O2478  1  0.087200  0.697000  0.387800  1
  O  O2479  1  0.447000  0.662800  0.137800  1
  O  O2480  1  0.053000  0.337200  0.637800  1
  O  O2481  1  0.912800  0.803000  0.387800  1
  O  O2482  1  0.587200  0.197000  0.887800  1
  O  O2483  1  0.947000  0.162800  0.637800  1
  O  O2484  1  0.553000  0.837200  0.137800  1
  O  O2485  1  0.587200  0.697000  0.112200  1
  O  O2486  1  0.912800  0.303000  0.612200  1
  O  O2487  1  0.553000  0.337200  0.862200  1
  O  O2488  1  0.947000  0.662800  0.362200  1
  O  O2489  1  0.087200  0.197000  0.612200  1
  O  O2490  1  0.412800  0.803000  0.112200  1
  O  O2491  1  0.053000  0.837200  0.362200  1
  O  O2492  1  0.447000  0.162800  0.862200  1
  F  F2493  1  0.641600  0.144900  0.339100  1
  F  F2494  1  0.858400  0.855100  0.839100  1
  F  F2495  1  0.605100  0.891600  0.589100  1
  F  F2496  1  0.894900  0.108400  0.089100  1
  F  F2497  1  0.141600  0.644900  0.839100  1
  F  F2498  1  0.358400  0.355100  0.339100  1
  F  F2499  1  0.105100  0.391600  0.089100  1
  F  F2500  1  0.394900  0.608400  0.589100  1
  F  F2501  1  0.358400  0.855100  0.660900  1
  F  F2502  1  0.141600  0.144900  0.160900  1
  F  F2503  1  0.394900  0.108400  0.410900  1
  F  F2504  1  0.105100  0.891600  0.910900  1
  F  F2505  1  0.858400  0.355100  0.160900  1
  F  F2506  1  0.641600  0.644900  0.660900  1
  F  F2507  1  0.894900  0.608400  0.910900  1
  F  F2508  1  0.605100  0.391600  0.410900  1
  F  F2509  1  0.568400  0.245000  0.233200  1
  F  F2510  1  0.931600  0.755000  0.733200  1
  F  F2511  1  0.505000  0.818400  0.483200  1
  F  F2512  1  0.995000  0.181600  0.983200  1
  F  F2513  1  0.068400  0.745000  0.733200  1
  F  F2514  1  0.431600  0.255000  0.233200  1
  F  F2515  1  0.005000  0.318400  0.983200  1
  F  F2516  1  0.495000  0.681600  0.483200  1
  F  F2517  1  0.431600  0.755000  0.766800  1
  F  F2518  1  0.068400  0.245000  0.266800  1
  F  F2519  1  0.495000  0.181600  0.516800  1
  F  F2520  1  0.005000  0.818400  0.016800  1
  F  F2521  1  0.931600  0.255000  0.266800  1
  F  F2522  1  0.568400  0.745000  0.766800  1
  F  F2523  1  0.995000  0.681600  0.016800  1
  F  F2524  1  0.505000  0.318400  0.516800  1
  F  F2525  1  0.707500  0.308000  0.308800  1
  F  F2526  1  0.792500  0.692000  0.808800  1
  F  F2527  1  0.442000  0.957500  0.558800  1
  F  F2528  1  0.058000  0.042500  0.058800  1
  F  F2529  1  0.207500  0.808000  0.808800  1
  F  F2530  1  0.292500  0.192000  0.308800  1
  F  F2531  1  0.942000  0.457500  0.058800  1
  F  F2532  1  0.558000  0.542500  0.558800  1
  F  F2533  1  0.292500  0.692000  0.691200  1
  F  F2534  1  0.207500  0.308000  0.191200  1
  F  F2535  1  0.558000  0.042500  0.441200  1
  F  F2536  1  0.942000  0.957500  0.941200  1
  F  F2537  1  0.792500  0.192000  0.191200  1
  F  F2538  1  0.707500  0.808000  0.691200  1
  F  F2539  1  0.058000  0.542500  0.941200  1
  F  F2540  1  0.442000  0.457500  0.441200  1
  F  F2541  1  0.588400  0.235500  0.416100  1
  F  F2542  1  0.911600  0.764500  0.916100  1
  F  F2543  1  0.514500  0.838400  0.666100  1
  F  F2544  1  0.985500  0.161600  0.166100  1
  F  F2545  1  0.088400  0.735500  0.916100  1
  F  F2546  1  0.411600  0.264500  0.416100  1
  F  F2547  1  0.014500  0.338400  0.166100  1
  F  F2548  1  0.485500  0.661600  0.666100  1
  F  F2549  1  0.411600  0.764500  0.583900  1
  F  F2550  1  0.088400  0.235500  0.083900  1
  F  F2551  1  0.485500  0.161600  0.333900  1
  F  F2552  1  0.014500  0.838400  0.833900  1
  F  F2553  1  0.911600  0.264500  0.083900  1
  F  F2554  1  0.588400  0.735500  0.583900  1
  F  F2555  1  0.985500  0.661600  0.833900  1
  F  F2556  1  0.514500  0.338400  0.333900  1
  F  F2557  1  0.464600  0.154000  0.335400  1
  F  F2558  1  0.035400  0.846000  0.835400  1
  F  F2559  1  0.596000  0.714600  0.585400  1
  F  F2560  1  0.904000  0.285400  0.085400  1
  F  F2561  1  0.964600  0.654000  0.835400  1
  F  F2562  1  0.535400  0.346000  0.335400  1
  F  F2563  1  0.096000  0.214600  0.085400  1
  F  F2564  1  0.404000  0.785400  0.585400  1
  F  F2565  1  0.535400  0.846000  0.664600  1
  F  F2566  1  0.964600  0.154000  0.164600  1
  F  F2567  1  0.404000  0.285400  0.414600  1
  F  F2568  1  0.096000  0.714600  0.914600  1
  F  F2569  1  0.035400  0.346000  0.164600  1
  F  F2570  1  0.464600  0.654000  0.664600  1
  F  F2571  1  0.904000  0.785400  0.914600  1
  F  F2572  1  0.596000  0.214600  0.414600  1
  F  F2573  1  0.508200  0.321700  0.305800  1
  F  F2574  1  0.991800  0.678300  0.805800  1
  F  F2575  1  0.428300  0.758200  0.555800  1
  F  F2576  1  0.071700  0.241800  0.055800  1
  F  F2577  1  0.008200  0.821700  0.805800  1
  F  F2578  1  0.491800  0.178300  0.305800  1
  F  F2579  1  0.928300  0.258200  0.055800  1
  F  F2580  1  0.571700  0.741800  0.555800  1
  F  F2581  1  0.491800  0.678300  0.694200  1
  F  F2582  1  0.008200  0.321700  0.194200  1
  F  F2583  1  0.571700  0.241800  0.444200  1
  F  F2584  1  0.928300  0.758200  0.944200  1
  F  F2585  1  0.991800  0.178300  0.194200  1
  F  F2586  1  0.508200  0.821700  0.694200  1
  F  F2587  1  0.071700  0.741800  0.944200  1
  F  F2588  1  0.428300  0.258200  0.444200  1
