
#######################################################################
#
#                 Cambridge Crystallographic Data Centre
#                                CCDC 
#
#######################################################################
#
# If this CIF has been generated from an entry in the Cambridge 
# Structural Database, then it will include bibliographic, chemical, 
# crystal, experimental, refinement or atomic coordinate data resulting 
# from the CCDC's data processing and validation procedures.
#
#######################################################################

data_UQABAR
_chemical_formula_moiety         
'C108 H144 N36 Pd6 12+,12(N1 O3 1-),x(H2 O1),2(C6 F6)'
_chemical_name_systematic        
"tetrakis(\m-2,4,6-tris(pyridin-4-yl)-1,3,5-triazine)-hexakis(N,N,N',N'-tetramethylethane-1,2-diamine)-hexa-palladium dodecanitrate bis(hexafluorobenzene) clathrate hydrate"
_symmetry_cell_setting           tetragonal
_symmetry_space_group_name_H-M   'I 41/a'
_symmetry_Int_Tables_number      88
_space_group_name_Hall           '-I 4ad'
loop_
_symmetry_equiv_pos_site_id
_symmetry_equiv_pos_as_xyz
1 x,y,z
2 1/2-x,-y,1/2+z
3 3/4-y,1/4+x,1/4+z
4 3/4+y,3/4-x,3/4+z
5 1/2+x,1/2+y,1/2+z
6 -x,1/2-y,z
7 1/4-y,3/4+x,3/4+z
8 1/4+y,1/4-x,1/4+z
9 -x,-y,-z
10 1/2+x,y,1/2-z
11 1/4+y,3/4-x,3/4-z
12 1/4-y,1/4+x,1/4-z
13 1/2-x,1/2-y,1/2-z
14 x,1/2+y,-z
15 3/4+y,1/4-x,1/4-z
16 3/4-y,3/4+x,3/4-z
_cell_length_a                   26.037(2)
_cell_length_b                   26.037(2)
_cell_length_c                   31.484(3)
_cell_angle_alpha                90
_cell_angle_beta                 90
_cell_angle_gamma                90
_cell_volume                     21343.8
_exptl_crystal_colour            colorless
_exptl_crystal_description       Block
_cell_formula_units_Z            4
loop_
_atom_site_label
_atom_site_type_symbol
_atom_site_fract_x
_atom_site_fract_y
_atom_site_fract_z
C28 C 0.0705(6) 0.8162(7) 0.4197(5)
C29 C 0.0425(5) 0.7973(6) 0.4521(4)
C30 C 0.0057(6) 0.8227(7) 0.4740(5)
C31 C -0.0098(8) 0.8707(8) 0.4628(7)
C32 C 0.0176(13) 0.8914(9) 0.4296(10)
C33 C 0.0553(11) 0.8645(10) 0.4089(9)
F1 F 0.1094(4) 0.7899(6) 0.4001(4)
F2 F 0.0544(5) 0.7482(6) 0.4617(5)
F3 F -0.0167(7) 0.7982(7) 0.5070(6)
F4 F -0.0437(6) 0.8951(7) 0.4866(7)
F5 F 0.0112(9) 0.9427(7) 0.4257(7)
F6 F 0.0853(11) 0.8904(8) 0.3821(8)
C34 C 0.0517(11) 0.8685(12) 0.4275(9)
C35 C 0.0468(9) 0.8362(10) 0.4616(9)
C36 C 0.0079(9) 0.8480(9) 0.4894(8)
C37 C -0.0268(10) 0.8877(11) 0.4865(8)
C38 C -0.0221(12) 0.9198(12) 0.4517(9)
C39 C 0.0194(13) 0.9099(14) 0.4242(10)
F7 F 0.0886(14) 0.8594(13) 0.3998(10)
F8 F 0.0800(9) 0.7977(12) 0.4682(7)
F9 F 0.0072(9) 0.8214(10) 0.5252(6)
F10 F -0.0634(9) 0.8972(8) 0.5139(8)
F11 F -0.0512(10) 0.9608(9) 0.4474(7)
F12 F 0.0255(10) 0.9418(11) 0.3917(8)
N10 N -0.1100(4) 1.0698(3) 0.4811(3)
O1 O -0.1311(3) 1.0894(3) 0.4521(2)
O2 O -0.0607(6) 1.0673(9) 0.4832(7)
O3 O -0.1326(4) 1.0511(4) 0.5126(3)
O4 O -0.2783(5) 0.9932(6) 0.2947(4)
O5 O -0.3286(18) 0.905(2) 0.3264(14)
N11 N -0.3274(5) 1.2051(5) 0.4897(4)
O6 O -0.3035(7) 1.1991(7) 0.4530(6)
O7 O -0.3211(4) 1.2418(4) 0.5106(4)
O8 O -0.3505(4) 1.1717(5) 0.5000(4)
O9 O -0.4134(8) 1.1152(9) 0.4430(7)
O10 O 0.0371(8) 0.9406(7) 0.0997(6)
O11 O 0.0414(7) 1.0013(7) 0.1743(6)
O12 O -0.3746(7) 0.9029(7) 0.4055(5)
O13 O -0.3815(10) 1.1588(9) 0.3247(8)
O14 O -0.309(2) 1.213(2) 0.2894(17)
O15 O -0.1736(4) 0.7460(4) 0.1630(3)
O16 O -0.2833(5) 0.8507(5) 0.3126(4)
O17 O -0.1236(2) 0.7761(2) 0.08853(18)
O18 O 0.1677(10) 0.9273(10) 0.0193(8)
O19 O 0.1735(17) 0.8624(17) -0.0008(15)
O20 O 0.0000 0.7500 -0.1250
O21 O 0.1363(16) 0.8056(15) -0.1163(13)
O22 O 0.9118(15) 0.2465(15) 0.0882(13)
Pd1 Pd 0.0000 0.7500 0.081211(17)
Pd2 Pd -0.211021(15) 1.035415(15) 0.377725(11)
N1 N -0.14777(16) 1.01075(16) 0.34632(13)
N2 N -0.02209(17) 0.9214(2) 0.25138(16)
N3 N 0.03015(17) 0.96034(18) 0.30389(15)
N4 N 0.06814(17) 0.90833(19) 0.25098(15)
N5 N 0.00768(17) 0.8024(2) 0.12831(13)
N6 N 0.0087(2) 0.8028(2) 0.03320(15)
N7 N 0.21651(17) 0.95893(17) 0.34169(14)
N8 N -0.27533(19) 1.0607(2) 0.40930(15)
N9 N -0.2117(2) 1.10609(19) 0.34856(15)
C1 C -0.2756(8) 1.1201(6) 0.3985(6)
H1 H -0.3103 1.1343 0.4037
H2 H -0.2511 1.1381 0.4173
C2 C -0.2614(6) 1.1288(6) 0.3544(8)
H3 H -0.2868 1.1126 0.3352
H4 H -0.2602 1.1660 0.3483
C3 C -0.3197(5) 1.0371(8) 0.3936(7)
H5 H -0.3494 1.0480 0.4104
H6 H -0.3160 0.9997 0.3954
H7 H -0.3248 1.0471 0.3639
C4 C -0.2687(13) 1.0568(10) 0.4557(10)
H8 H -0.2647 1.0206 0.4637
H9 H -0.2990 1.0711 0.4699
H10 H -0.2381 1.0760 0.4643
C5 C -0.2013(9) 1.1017(7) 0.2994(5)
H11 H -0.2078 1.1350 0.2859
H12 H -0.2242 1.0758 0.2871
H13 H -0.1655 1.0916 0.2946
C6 C -0.1676(12) 1.1373(9) 0.3624(12)
H14 H -0.1363 1.1251 0.3484
H15 H -0.1635 1.1344 0.3933
H16 H -0.1735 1.1734 0.3549
C7 C 0.1752(2) 0.9808(3) 0.3585(2)
H17 H 0.1788 1.0006 0.3837
C8 C 0.1272(2) 0.9757(3) 0.3405(2)
H18 H 0.0983 0.9924 0.3528
C9 C 0.1215(2) 0.9461(2) 0.30434(17)
C10 C 0.1648(2) 0.9235(2) 0.28732(17)
H19 H 0.1623 0.9026 0.2627
C11 C 0.2115(2) 0.9315(2) 0.30627(17)
H20 H 0.2413 0.9169 0.2937
C12 C -0.1523(2) 0.9814(2) 0.31199(17)
H21 H -0.1857 0.9741 0.3013
C13 C -0.1098(2) 0.9610(2) 0.29105(17)
H22 H -0.1140 0.9407 0.2663
C14 C -0.0614(2) 0.9709(2) 0.30683(17)
C15 C -0.0575(2) 1.0013(2) 0.34311(19)
H23 H -0.0246 1.0088 0.3547
C16 C -0.1005(2) 1.0205(2) 0.36196(18)
H24 H -0.0972 1.0411 0.3867
C17 C -0.0148(2) 0.9502(2) 0.28590(18)
C18 C 0.0704(2) 0.9379(2) 0.28511(18)
C19 C 0.0209(2) 0.9009(2) 0.23511(17)
C20 C 0.0160(2) 0.8676(2) 0.19752(18)
C21 C -0.0313(2) 0.8536(3) 0.18196(18)
H25 H -0.0617 0.8661 0.1950
C22 C -0.0344(2) 0.8214(3) 0.14759(18)
H26 H -0.0673 0.8123 0.1370
C23 C 0.0594(2) 0.8488(3) 0.17726(19)
H27 H 0.0927 0.8584 0.1867
C24 C 0.0537(2) 0.8161(3) 0.14331(18)
H28 H 0.0836 0.8028 0.1300
C25 C -0.0092(3) 0.7775(3) -0.0064(2)
H29 H 0.0046 0.7958 -0.0315
H30 H -0.0472 0.7784 -0.0079
C26 C -0.0225(3) 0.8501(3) 0.0396(2)
H31 H -0.0186 0.8727 0.0150
H32 H -0.0107 0.8679 0.0652
H33 H -0.0587 0.8407 0.0429
C27 C 0.0631(3) 0.8172(4) 0.0290(3)
H34 H 0.0836 0.7865 0.0229
H35 H 0.0750 0.8328 0.0556
H36 H 0.0670 0.8420 0.0058
N6E N -0.0087(2) 0.6972(2) 0.03320(15)
C25E C 0.0092(3) 0.7225(3) -0.0064(2)
H29E H -0.0046 0.7042 -0.0315
H30E H 0.0472 0.7216 -0.0079
C26E C 0.0225(3) 0.6499(3) 0.0396(2)
H31E H 0.0186 0.6273 0.0150
H32E H 0.0107 0.6321 0.0652
H33E H 0.0587 0.6593 0.0429
C27E C -0.0631(3) 0.6828(4) 0.0290(3)
H34E H -0.0836 0.7135 0.0229
H35E H -0.0750 0.6672 0.0556
H36E H -0.0670 0.6580 0.0058
Pd2E Pd 0.211021(15) 0.464585(15) 0.377725(11)
N1E N 0.14777(16) 0.48925(16) 0.34632(13)
N2E N 0.02209(17) 0.5786(2) 0.25138(16)
N3E N -0.03015(17) 0.53966(18) 0.30389(15)
N4E N -0.06814(17) 0.59167(19) 0.25098(15)
N5E N -0.00768(17) 0.6976(2) 0.12831(13)
N7E N -0.21651(17) 0.54107(17) 0.34169(14)
N8E N 0.27533(19) 0.4393(2) 0.40930(15)
N9E N 0.2117(2) 0.39391(19) 0.34856(15)
C1E C 0.2756(8) 0.3799(6) 0.3985(6)
H1E H 0.3103 0.3657 0.4037
H2E H 0.2511 0.3619 0.4173
C2E C 0.2614(6) 0.3712(6) 0.3544(8)
H3E H 0.2868 0.3874 0.3352
H4E H 0.2602 0.3340 0.3483
C3E C 0.3197(5) 0.4629(8) 0.3936(7)
H5E H 0.3494 0.4520 0.4104
H6E H 0.3160 0.5003 0.3954
H7E H 0.3248 0.4529 0.3639
C4E C 0.2687(13) 0.4432(10) 0.4557(10)
H8E H 0.2647 0.4794 0.4637
H9E H 0.2990 0.4289 0.4699
H10E H 0.2381 0.4240 0.4643
C5E C 0.2013(9) 0.3983(7) 0.2994(5)
H11E H 0.2078 0.3650 0.2859
H12E H 0.2242 0.4242 0.2871
H13E H 0.1655 0.4084 0.2946
C6E C 0.1676(12) 0.3627(9) 0.3624(12)
H14E H 0.1363 0.3749 0.3484
H15E H 0.1635 0.3656 0.3933
H16E H 0.1735 0.3266 0.3549
C7E C -0.1752(2) 0.5192(3) 0.3585(2)
H17E H -0.1788 0.4994 0.3837
C8E C -0.1272(2) 0.5243(3) 0.3405(2)
H18E H -0.0983 0.5076 0.3528
C9E C -0.1215(2) 0.5539(2) 0.30434(17)
C10E C -0.1648(2) 0.5765(2) 0.28732(17)
H19E H -0.1623 0.5974 0.2627
C11E C -0.2115(2) 0.5685(2) 0.30627(17)
H20E H -0.2413 0.5831 0.2937
C12E C 0.1523(2) 0.5186(2) 0.31199(17)
H21E H 0.1857 0.5259 0.3013
C13E C 0.1098(2) 0.5390(2) 0.29105(17)
H22E H 0.1140 0.5593 0.2663
C14E C 0.0614(2) 0.5291(2) 0.30683(17)
C15E C 0.0575(2) 0.4987(2) 0.34311(19)
H23E H 0.0246 0.4912 0.3547
C16E C 0.1005(2) 0.4795(2) 0.36196(18)
H24E H 0.0972 0.4589 0.3867
C17E C 0.0148(2) 0.5498(2) 0.28590(18)
C18E C -0.0704(2) 0.5621(2) 0.28511(18)
C19E C -0.0209(2) 0.5991(2) 0.23511(17)
C20E C -0.0160(2) 0.6324(2) 0.19752(18)
C21E C 0.0313(2) 0.6464(3) 0.18196(18)
H25E H 0.0617 0.6339 0.1950
C22E C 0.0344(2) 0.6786(3) 0.14759(18)
H26E H 0.0673 0.6877 0.1370
C23E C -0.0594(2) 0.6512(3) 0.17726(19)
H27E H -0.0927 0.6416 0.1867
C24E C -0.0537(2) 0.6839(3) 0.14331(18)
H28E H -0.0836 0.6972 0.1300
Pd1J Pd 0.0000 0.7500 0.668789(17)
Pd2J Pd 0.285415(15) 0.961021(15) 0.372275(11)
N1J N 0.26075(16) 0.89777(16) 0.40368(13)
N2J N 0.1714(2) 0.77209(17) 0.49862(16)
N3J N 0.21034(18) 0.71985(17) 0.44611(15)
N4J N 0.15833(19) 0.68186(17) 0.49902(15)
N5J N 0.0524(2) 0.74232(17) 0.62169(13)
N6J N 0.0528(2) 0.7413(2) 0.71680(15)
N7J N 0.20893(17) 0.53349(17) 0.40831(14)
N8J N 0.3107(2) 1.02533(19) 0.34070(15)
N9J N 0.35609(19) 0.9617(2) 0.40144(15)
C1J C 0.3701(6) 1.0256(8) 0.3515(6)
H1J H 0.3843 1.0603 0.3463
H2J H 0.3881 1.0011 0.3327
C2J C 0.3788(6) 1.0114(6) 0.3956(8)
H3J H 0.3626 1.0368 0.4148
H4J H 0.4160 1.0102 0.4017
C3J C 0.2871(8) 1.0697(5) 0.3564(7)
H5J H 0.2980 1.0994 0.3396
H6J H 0.2497 1.0660 0.3546
H7J H 0.2971 1.0748 0.3861
C4J C 0.3068(10) 1.0187(13) 0.2943(10)
H8J H 0.2706 1.0147 0.2863
H9J H 0.3211 1.0490 0.2801
H10J H 0.3260 0.9881 0.2857
C5J C 0.3517(7) 0.9513(9) 0.4506(5)
H11J H 0.3850 0.9578 0.4641
H12J H 0.3258 0.9742 0.4629
H13J H 0.3416 0.9155 0.4554
C6J C 0.3873(9) 0.9176(12) 0.3876(12)
H14J H 0.3751 0.8863 0.4016
H15J H 0.3844 0.9135 0.3567
H16J H 0.4234 0.9235 0.3951
C7J C 0.2308(3) 0.5748(2) 0.3915(2)
H17J H 0.2506 0.5712 0.3663
C8J C 0.2257(3) 0.6228(2) 0.4095(2)
H18J H 0.2424 0.6517 0.3972
C9J C 0.1961(2) 0.6285(2) 0.44566(17)
C10J C 0.1735(2) 0.5852(2) 0.46268(17)
H19J H 0.1526 0.5877 0.4873
C11J C 0.1815(2) 0.5385(2) 0.44373(17)
H20J H 0.1669 0.5087 0.4563
C12J C 0.2314(2) 0.9023(2) 0.43801(17)
H21J H 0.2241 0.9357 0.4487
C13J C 0.2110(2) 0.8598(2) 0.45895(17)
H22J H 0.1907 0.8640 0.4837
C14J C 0.2209(2) 0.8114(2) 0.44317(17)
C15J C 0.2513(2) 0.8075(2) 0.40689(19)
H23J H 0.2588 0.7746 0.3953
C16J C 0.2705(2) 0.8505(2) 0.38804(18)
H24J H 0.2911 0.8472 0.3633
C17J C 0.2002(2) 0.7648(2) 0.46410(18)
C18J C 0.1879(2) 0.6796(2) 0.46489(18)
C19J C 0.1509(2) 0.7291(2) 0.51489(17)
C20J C 0.1176(2) 0.7340(2) 0.55248(18)
C21J C 0.1036(3) 0.7813(2) 0.56804(18)
H25J H 0.1161 0.8117 0.5550
C22J C 0.0714(3) 0.7844(2) 0.60241(18)
H26J H 0.0623 0.8173 0.6130
C23J C 0.0988(3) 0.6906(2) 0.57274(19)
H27J H 0.1084 0.6573 0.5633
C24J C 0.0661(3) 0.6963(2) 0.60669(18)
H28J H 0.0528 0.6664 0.6200
C25J C 0.0275(3) 0.7592(3) 0.7564(2)
H29J H 0.0458 0.7454 0.7815
H30J H 0.0284 0.7972 0.7579
C26J C 0.1001(3) 0.7725(3) 0.7104(2)
H31J H 0.1227 0.7686 0.7350
H32J H 0.1179 0.7607 0.6848
H33J H 0.0907 0.8087 0.7071
C27J C 0.0672(4) 0.6869(3) 0.7210(3)
H34J H 0.0365 0.6664 0.7271
H35J H 0.0828 0.6750 0.6944
H36J H 0.0920 0.6830 0.7442
N6O N -0.0528(2) 0.7587(2) 0.71680(15)
C25O C -0.0275(3) 0.7408(3) 0.7564(2)
H29O H -0.0458 0.7546 0.7815
H30O H -0.0284 0.7028 0.7579
C26O C -0.1001(3) 0.7275(3) 0.7104(2)
H31O H -0.1227 0.7314 0.7350
H32O H -0.1179 0.7393 0.6848
H33O H -0.0907 0.6913 0.7071
C27O C -0.0672(4) 0.8131(3) 0.7210(3)
H34O H -0.0365 0.8336 0.7271
H35O H -0.0828 0.8250 0.6944
H36O H -0.0920 0.8170 0.7442
Pd2O Pd -0.285415(15) 0.538979(15) 0.372275(11)
N1O N -0.26075(16) 0.60223(16) 0.40368(13)
N2O N -0.1714(2) 0.72791(17) 0.49862(16)
N3O N -0.21034(18) 0.78015(17) 0.44611(15)
N4O N -0.15833(19) 0.81814(17) 0.49902(15)
N5O N -0.0524(2) 0.75768(17) 0.62169(13)
N7O N -0.20893(17) 0.96651(17) 0.40831(14)
N8O N -0.3107(2) 0.47467(19) 0.34070(15)
N9O N -0.35609(19) 0.5383(2) 0.40144(15)
C1O C -0.3701(6) 0.4744(8) 0.3515(6)
H1O H -0.3843 0.4397 0.3463
H2O H -0.3881 0.4989 0.3327
C2O C -0.3788(6) 0.4886(6) 0.3956(8)
H3O H -0.3626 0.4632 0.4148
H4O H -0.4160 0.4898 0.4017
C3O C -0.2871(8) 0.4303(5) 0.3564(7)
H5O H -0.2980 0.4006 0.3396
H6O H -0.2497 0.4340 0.3546
H7O H -0.2971 0.4252 0.3861
C4O C -0.3068(10) 0.4813(13) 0.2943(10)
H8O H -0.2706 0.4853 0.2863
H9O H -0.3211 0.4510 0.2801
H10O H -0.3260 0.5119 0.2857
C5O C -0.3517(7) 0.5487(9) 0.4506(5)
H11O H -0.3850 0.5422 0.4641
H12O H -0.3258 0.5258 0.4629
H13O H -0.3416 0.5845 0.4554
C6O C -0.3873(9) 0.5824(12) 0.3876(12)
H14O H -0.3751 0.6137 0.4016
H15O H -0.3844 0.5865 0.3567
H16O H -0.4234 0.5765 0.3951
C7O C -0.2308(3) 0.9252(2) 0.3915(2)
H17O H -0.2506 0.9288 0.3663
C8O C -0.2257(3) 0.8772(2) 0.4095(2)
H18O H -0.2424 0.8483 0.3972
C9O C -0.1961(2) 0.8715(2) 0.44566(17)
C10O C -0.1735(2) 0.9148(2) 0.46268(17)
H19O H -0.1526 0.9123 0.4873
C11O C -0.1815(2) 0.9615(2) 0.44373(17)
H20O H -0.1669 0.9913 0.4563
C12O C -0.2314(2) 0.5977(2) 0.43801(17)
H21O H -0.2241 0.5643 0.4487
C13O C -0.2110(2) 0.6402(2) 0.45895(17)
H22O H -0.1907 0.6360 0.4837
C14O C -0.2209(2) 0.6886(2) 0.44317(17)
C15O C -0.2513(2) 0.6925(2) 0.40689(19)
H23O H -0.2588 0.7254 0.3953
C16O C -0.2705(2) 0.6495(2) 0.38804(18)
H24O H -0.2911 0.6528 0.3633
C17O C -0.2002(2) 0.7352(2) 0.46410(18)
C18O C -0.1879(2) 0.8204(2) 0.46489(18)
C19O C -0.1509(2) 0.7709(2) 0.51489(17)
C20O C -0.1176(2) 0.7660(2) 0.55248(18)
C21O C -0.1036(3) 0.7187(2) 0.56804(18)
H25O H -0.1161 0.6883 0.5550
C22O C -0.0714(3) 0.7156(2) 0.60241(18)
H26O H -0.0623 0.6827 0.6130
C23O C -0.0988(3) 0.8094(2) 0.57274(19)
H27O H -0.1084 0.8427 0.5633
C24O C -0.0661(3) 0.8037(2) 0.60669(18)
H28O H -0.0528 0.8336 0.6200
loop_
_geom_bond_atom_site_label_1
_geom_bond_atom_site_label_2
_geom_bond_site_symmetry_1
_geom_bond_site_symmetry_2
Pd1 N5 1_555 1_555
Pd2 N1 1_555 1_555
N1 C12 1_555 1_555
N2 C17 1_555 1_555
N3 C17 1_555 1_555
N4 C18 1_555 1_555
N5 C22 1_555 1_555
N6 Pd1 1_555 1_555
N7 C7 1_555 1_555
N8 Pd2 1_555 1_555
N9 Pd2 1_555 1_555
C1 N8 1_555 1_555
H1 C1 1_555 1_555
H2 C1 1_555 1_555
C2 N9 1_555 1_555
H3 C2 1_555 1_555
H4 C2 1_555 1_555
C3 N8 1_555 1_555
H5 C3 1_555 1_555
H6 C3 1_555 1_555
H7 C3 1_555 1_555
C4 N8 1_555 1_555
H8 C4 1_555 1_555
H9 C4 1_555 1_555
H10 C4 1_555 1_555
C5 N9 1_555 1_555
H11 C5 1_555 1_555
H12 C5 1_555 1_555
H13 C5 1_555 1_555
C6 N9 1_555 1_555
H14 C6 1_555 1_555
H15 C6 1_555 1_555
H16 C6 1_555 1_555
C7 H17 1_555 1_555
C8 C7 1_555 1_555
H18 C8 1_555 1_555
C9 C8 1_555 1_555
C10 C9 1_555 1_555
H19 C10 1_555 1_555
C11 N7 1_555 1_555
H20 C11 1_555 1_555
C12 H21 1_555 1_555
C13 C12 1_555 1_555
H22 C13 1_555 1_555
C14 C13 1_555 1_555
C15 C14 1_555 1_555
H23 C15 1_555 1_555
C16 N1 1_555 1_555
H24 C16 1_555 1_555
C17 C14 1_555 1_555
C18 N3 1_555 1_555
C19 N2 1_555 1_555
C20 C19 1_555 1_555
C21 C20 1_555 1_555
H25 C21 1_555 1_555
C22 C21 1_555 1_555
H26 C22 1_555 1_555
C23 C20 1_555 1_555
H27 C23 1_555 1_555
C24 N5 1_555 1_555
H28 C24 1_555 1_555
C25 N6 1_555 1_555
H29 C25 1_555 1_555
H30 C25 1_555 1_555
C26 N6 1_555 1_555
H31 C26 1_555 1_555
H32 C26 1_555 1_555
H33 C26 1_555 1_555
C27 N6 1_555 1_555
H34 C27 1_555 1_555
H35 C27 1_555 1_555
H36 C27 1_555 1_555
C28 C29 1_555 1_555
C29 C30 1_555 1_555
C30 C31 1_555 1_555
C31 C32 1_555 1_555
C32 C33 1_555 1_555
C33 C28 1_555 1_555
F1 C28 1_555 1_555
F2 C29 1_555 1_555
F3 C30 1_555 1_555
F4 C31 1_555 1_555
F5 C32 1_555 1_555
F6 C33 1_555 1_555
C34 C28 1_555 1_555
C35 C28 1_555 1_555
C36 C30 1_555 1_555
C37 C31 1_555 1_555
C38 C31 1_555 1_555
C39 C31 1_555 1_555
F7 C28 1_555 1_555
F8 C28 1_555 1_555
F9 C30 1_555 1_555
F10 F4 1_555 1_555
F11 C38 1_555 1_555
F12 F5 1_555 1_555
N10 O1 1_555 1_555
O2 N10 1_555 1_555
O3 N10 1_555 1_555
N11 O6 1_555 1_555
O7 N11 1_555 1_555
O8 N11 1_555 1_555
N6E Pd1 1_555 1_555
C25E C25 1_555 1_555
H29E C25E 1_555 1_555
H30E C25E 1_555 1_555
C26E N6E 1_555 1_555
H31E C26E 1_555 1_555
H32E C26E 1_555 1_555
H33E C26E 1_555 1_555
C27E N6E 1_555 1_555
H34E C27E 1_555 1_555
H35E C27E 1_555 1_555
H36E C27E 1_555 1_555
Pd2E N1E 1_555 1_555
N1E C12E 1_555 1_555
N2E C17E 1_555 1_555
N3E C17E 1_555 1_555
N4E C18E 1_555 1_555
N5E Pd1 1_555 1_555
N7E C7E 1_555 1_555
N8E Pd2E 1_555 1_555
N9E Pd2E 1_555 1_555
C1E N8E 1_555 1_555
H1E C1E 1_555 1_555
H2E C1E 1_555 1_555
C2E N9E 1_555 1_555
H3E C2E 1_555 1_555
H4E C2E 1_555 1_555
C3E N8E 1_555 1_555
H5E C3E 1_555 1_555
H6E C3E 1_555 1_555
H7E C3E 1_555 1_555
C4E N8E 1_555 1_555
H8E C4E 1_555 1_555
H9E C4E 1_555 1_555
H10E C4E 1_555 1_555
C5E N9E 1_555 1_555
H11E C5E 1_555 1_555
H12E C5E 1_555 1_555
H13E C5E 1_555 1_555
C6E N9E 1_555 1_555
H14E C6E 1_555 1_555
H15E C6E 1_555 1_555
H16E C6E 1_555 1_555
C7E H17E 1_555 1_555
C8E C7E 1_555 1_555
H18E C8E 1_555 1_555
C9E C8E 1_555 1_555
C10E C9E 1_555 1_555
H19E C10E 1_555 1_555
C11E N7E 1_555 1_555
H20E C11E 1_555 1_555
C12E H21E 1_555 1_555
C13E C12E 1_555 1_555
H22E C13E 1_555 1_555
C14E C13E 1_555 1_555
C15E C14E 1_555 1_555
H23E C15E 1_555 1_555
C16E N1E 1_555 1_555
H24E C16E 1_555 1_555
C17E C14E 1_555 1_555
C18E N3E 1_555 1_555
C19E N2E 1_555 1_555
C20E C19E 1_555 1_555
C21E C20E 1_555 1_555
H25E C21E 1_555 1_555
C22E N5E 1_555 1_555
H26E C22E 1_555 1_555
C23E C20E 1_555 1_555
H27E C23E 1_555 1_555
C24E N5E 1_555 1_555
H28E C24E 1_555 1_555
Pd1J N5J 1_555 1_555
Pd2J N7 1_555 1_555
N1J Pd2J 1_555 1_555
N2J C17J 1_555 1_555
N3J C17J 1_555 1_555
N4J C18J 1_555 1_555
N5J C22J 1_555 1_555
N6J Pd1J 1_555 1_555
N7J Pd2E 1_555 1_555
N8J Pd2J 1_555 1_555
N9J Pd2J 1_555 1_555
C1J N8J 1_555 1_555
H1J C1J 1_555 1_555
H2J C1J 1_555 1_555
C2J N9J 1_555 1_555
H3J C2J 1_555 1_555
H4J C2J 1_555 1_555
C3J N8J 1_555 1_555
H5J C3J 1_555 1_555
H6J C3J 1_555 1_555
H7J C3J 1_555 1_555
C4J N8J 1_555 1_555
H8J C4J 1_555 1_555
H9J C4J 1_555 1_555
H10J C4J 1_555 1_555
C5J N9J 1_555 1_555
H11J C5J 1_555 1_555
H12J C5J 1_555 1_555
H13J C5J 1_555 1_555
C6J N9J 1_555 1_555
H14J C6J 1_555 1_555
H15J C6J 1_555 1_555
H16J C6J 1_555 1_555
C7J N7J 1_555 1_555
H17J C7J 1_555 1_555
C8J C7J 1_555 1_555
H18J C8J 1_555 1_555
C9J C8J 1_555 1_555
C10J C9J 1_555 1_555
H19J C10J 1_555 1_555
C11J N7J 1_555 1_555
H20J C11J 1_555 1_555
C12J N1J 1_555 1_555
H21J C12J 1_555 1_555
C13J C12J 1_555 1_555
H22J C13J 1_555 1_555
C14J C13J 1_555 1_555
C15J C14J 1_555 1_555
H23J C15J 1_555 1_555
C16J N1J 1_555 1_555
H24J C16J 1_555 1_555
C17J C14J 1_555 1_555
C18J N3J 1_555 1_555
C19J N2J 1_555 1_555
C20J C19J 1_555 1_555
C21J C20J 1_555 1_555
H25J C21J 1_555 1_555
C22J C21J 1_555 1_555
H26J C22J 1_555 1_555
C23J C20J 1_555 1_555
H27J C23J 1_555 1_555
C24J N5J 1_555 1_555
H28J C24J 1_555 1_555
C25J N6J 1_555 1_555
H29J C25J 1_555 1_555
H30J C25J 1_555 1_555
C26J N6J 1_555 1_555
H31J C26J 1_555 1_555
H32J C26J 1_555 1_555
H33J C26J 1_555 1_555
C27J N6J 1_555 1_555
H34J C27J 1_555 1_555
H35J C27J 1_555 1_555
H36J C27J 1_555 1_555
N6O Pd1J 1_555 1_555
C25O C25J 1_555 1_555
H29O C25O 1_555 1_555
H30O C25O 1_555 1_555
C26O N6O 1_555 1_555
H31O C26O 1_555 1_555
H32O C26O 1_555 1_555
H33O C26O 1_555 1_555
C27O N6O 1_555 1_555
H34O C27O 1_555 1_555
H35O C27O 1_555 1_555
H36O C27O 1_555 1_555
Pd2O N7E 1_555 1_555
N1O Pd2O 1_555 1_555
N2O C17O 1_555 1_555
N3O C17O 1_555 1_555
N4O C18O 1_555 1_555
N5O Pd1J 1_555 1_555
N7O Pd2 1_555 1_555
N8O Pd2O 1_555 1_555
N9O Pd2O 1_555 1_555
C1O N8O 1_555 1_555
H1O C1O 1_555 1_555
H2O C1O 1_555 1_555
C2O N9O 1_555 1_555
H3O C2O 1_555 1_555
H4O C2O 1_555 1_555
C3O N8O 1_555 1_555
H5O C3O 1_555 1_555
H6O C3O 1_555 1_555
H7O C3O 1_555 1_555
C4O N8O 1_555 1_555
H8O C4O 1_555 1_555
H9O C4O 1_555 1_555
H10O C4O 1_555 1_555
C5O N9O 1_555 1_555
H11O C5O 1_555 1_555
H12O C5O 1_555 1_555
H13O C5O 1_555 1_555
C6O N9O 1_555 1_555
H14O C6O 1_555 1_555
H15O C6O 1_555 1_555
H16O C6O 1_555 1_555
C7O N7O 1_555 1_555
H17O C7O 1_555 1_555
C8O C7O 1_555 1_555
H18O C8O 1_555 1_555
C9O C8O 1_555 1_555
C10O C9O 1_555 1_555
H19O C10O 1_555 1_555
C11O N7O 1_555 1_555
H20O C11O 1_555 1_555
C12O N1O 1_555 1_555
H21O C12O 1_555 1_555
C13O C12O 1_555 1_555
H22O C13O 1_555 1_555
C14O C13O 1_555 1_555
C15O C14O 1_555 1_555
H23O C15O 1_555 1_555
C16O N1O 1_555 1_555
H24O C16O 1_555 1_555
C17O C14O 1_555 1_555
C18O N3O 1_555 1_555
C19O N2O 1_555 1_555
C20O C19O 1_555 1_555
C21O C20O 1_555 1_555
H25O C21O 1_555 1_555
C22O N5O 1_555 1_555
H26O C22O 1_555 1_555
C23O C20O 1_555 1_555
H27O C23O 1_555 1_555
C24O N5O 1_555 1_555
H28O C24O 1_555 1_555
N4 C19 1_555 1_555
C1 C2 1_555 1_555
C9 C18 1_555 1_555
C10 C11 1_555 1_555
C15 C16 1_555 1_555
C23 C24 1_555 1_555
C29 C35 1_555 1_555
C29 F8 1_555 1_555
C30 C35 1_555 1_555
C31 C35 1_555 1_555
C31 C36 1_555 1_555
C32 C34 1_555 1_555
C32 C38 1_555 1_555
C33 C34 1_555 1_555
C33 C39 1_555 1_555
C33 F7 1_555 1_555
F2 F8 1_555 1_555
F3 C36 1_555 1_555
F3 F9 1_555 1_555
F4 C38 1_555 1_555
F5 C38 1_555 1_555
F5 C39 1_555 1_555
F6 F7 1_555 1_555
C34 C35 1_555 1_555
C34 C39 1_555 1_555
C34 F7 1_555 1_555
C35 C36 1_555 1_555
C35 F8 1_555 1_555
C36 C37 1_555 1_555
C36 F9 1_555 1_555
C37 C38 1_555 1_555
C37 F10 1_555 1_555
C38 C39 1_555 1_555
C39 F12 1_555 1_555
N6E C25E 1_555 1_555
N4E C19E 1_555 1_555
C1E C2E 1_555 1_555
C9E C18E 1_555 1_555
C10E C11E 1_555 1_555
C15E C16E 1_555 1_555
C21E C22E 1_555 1_555
C23E C24E 1_555 1_555
N4J C19J 1_555 1_555
C1J C2J 1_555 1_555
C9J C18J 1_555 1_555
C10J C11J 1_555 1_555
C15J C16J 1_555 1_555
C23J C24J 1_555 1_555
N6O C25O 1_555 1_555
N4O C19O 1_555 1_555
C1O C2O 1_555 1_555
C9O C18O 1_555 1_555
C10O C11O 1_555 1_555
C15O C16O 1_555 1_555
C21O C22O 1_555 1_555
C23O C24O 1_555 1_555

#END
