# generated using pymatgen
data_H208Pd6C158N52O147F20
_symmetry_space_group_name_H-M   'P 1'
_cell_length_a   25.94100000
_cell_length_b   25.94100000
_cell_length_c   31.66700000
_cell_angle_alpha   90.00000000
_cell_angle_beta   90.00000000
_cell_angle_gamma   90.00000000
_symmetry_Int_Tables_number   1
_chemical_formula_structural   H208Pd6C158N52O147F20
_chemical_formula_sum   'H832 Pd24 C632 N208 O588 F80'
_cell_volume   21309.84787683
_cell_formula_units_Z   4
loop_
 _symmetry_equiv_pos_site_id
 _symmetry_equiv_pos_as_xyz
  1  'x, y, z'
loop_
 _atom_site_type_symbol
 _atom_site_label
 _atom_site_symmetry_multiplicity
 _atom_site_fract_x
 _atom_site_fract_y
 _atom_site_fract_z
 _atom_site_occupancy
  H  H1  1  0.325100  0.675300  0.357500  1
  H  H2  1  0.174900  0.324700  0.857500  1
  H  H3  1  0.074700  0.575100  0.607500  1
  H  H4  1  0.425300  0.424900  0.107500  1
  H  H5  1  0.825100  0.175300  0.857500  1
  H  H6  1  0.674900  0.824700  0.357500  1
  H  H7  1  0.574700  0.075100  0.107500  1
  H  H8  1  0.925300  0.924900  0.607500  1
  H  H9  1  0.674900  0.324700  0.642500  1
  H  H10  1  0.825100  0.675300  0.142500  1
  H  H11  1  0.925300  0.424900  0.392500  1
  H  H12  1  0.574700  0.575100  0.892500  1
  H  H13  1  0.174900  0.824700  0.142500  1
  H  H14  1  0.325100  0.175300  0.642500  1
  H  H15  1  0.425300  0.924900  0.892500  1
  H  H16  1  0.074700  0.075100  0.392500  1
  H  H17  1  0.363400  0.627000  0.358400  1
  H  H18  1  0.136600  0.373000  0.858400  1
  H  H19  1  0.123000  0.613400  0.608400  1
  H  H20  1  0.377000  0.386600  0.108400  1
  H  H21  1  0.863400  0.127000  0.858400  1
  H  H22  1  0.636600  0.873000  0.358400  1
  H  H23  1  0.623000  0.113400  0.108400  1
  H  H24  1  0.877000  0.886600  0.608400  1
  H  H25  1  0.636600  0.373000  0.641600  1
  H  H26  1  0.863400  0.627000  0.141600  1
  H  H27  1  0.877000  0.386600  0.391600  1
  H  H28  1  0.623000  0.613400  0.891600  1
  H  H29  1  0.136600  0.873000  0.141600  1
  H  H30  1  0.363400  0.127000  0.641600  1
  H  H31  1  0.377000  0.886600  0.891600  1
  H  H32  1  0.123000  0.113400  0.391600  1
  H  H33  1  0.327900  0.639300  0.398500  1
  H  H34  1  0.172100  0.360700  0.898500  1
  H  H35  1  0.110700  0.577900  0.648500  1
  H  H36  1  0.389300  0.422100  0.148500  1
  H  H37  1  0.827900  0.139300  0.898500  1
  H  H38  1  0.672100  0.860700  0.398500  1
  H  H39  1  0.610700  0.077900  0.148500  1
  H  H40  1  0.889300  0.922100  0.648500  1
  H  H41  1  0.672100  0.360700  0.601500  1
  H  H42  1  0.827900  0.639300  0.101500  1
  H  H43  1  0.889300  0.422100  0.351500  1
  H  H44  1  0.610700  0.577900  0.851500  1
  H  H45  1  0.172100  0.860700  0.101500  1
  H  H46  1  0.327900  0.139300  0.601500  1
  H  H47  1  0.389300  0.922100  0.851500  1
  H  H48  1  0.110700  0.077900  0.351500  1
  H  H49  1  0.269800  0.632900  0.292800  1
  H  H50  1  0.230200  0.367100  0.792800  1
  H  H51  1  0.117100  0.519800  0.542800  1
  H  H52  1  0.382900  0.480200  0.042800  1
  H  H53  1  0.769800  0.132900  0.792800  1
  H  H54  1  0.730200  0.867100  0.292800  1
  H  H55  1  0.617100  0.019800  0.042800  1
  H  H56  1  0.882900  0.980200  0.542800  1
  H  H57  1  0.730200  0.367100  0.707200  1
  H  H58  1  0.769800  0.632900  0.207200  1
  H  H59  1  0.882900  0.480200  0.457200  1
  H  H60  1  0.617100  0.519800  0.957200  1
  H  H61  1  0.230200  0.867100  0.207200  1
  H  H62  1  0.269800  0.132900  0.707200  1
  H  H63  1  0.382900  0.980200  0.957200  1
  H  H64  1  0.117100  0.019800  0.457200  1
  H  H65  1  0.232000  0.588500  0.309300  1
  H  H66  1  0.268000  0.411500  0.809300  1
  H  H67  1  0.161500  0.482000  0.559300  1
  H  H68  1  0.338500  0.518000  0.059300  1
  H  H69  1  0.732000  0.088500  0.809300  1
  H  H70  1  0.768000  0.911500  0.309300  1
  H  H71  1  0.661500  0.982000  0.059300  1
  H  H72  1  0.838500  0.018000  0.559300  1
  H  H73  1  0.768000  0.411500  0.690700  1
  H  H74  1  0.732000  0.588500  0.190700  1
  H  H75  1  0.838500  0.518000  0.440700  1
  H  H76  1  0.661500  0.482000  0.940700  1
  H  H77  1  0.268000  0.911500  0.190700  1
  H  H78  1  0.232000  0.088500  0.690700  1
  H  H79  1  0.338500  0.018000  0.940700  1
  H  H80  1  0.161500  0.982000  0.440700  1
  H  H81  1  0.288500  0.574100  0.292700  1
  H  H82  1  0.211500  0.425900  0.792700  1
  H  H83  1  0.175900  0.538500  0.542700  1
  H  H84  1  0.324100  0.461500  0.042700  1
  H  H85  1  0.788500  0.074100  0.792700  1
  H  H86  1  0.711500  0.925900  0.292700  1
  H  H87  1  0.675900  0.038500  0.042700  1
  H  H88  1  0.824100  0.961500  0.542700  1
  H  H89  1  0.711500  0.425900  0.707300  1
  H  H90  1  0.788500  0.574100  0.207300  1
  H  H91  1  0.824100  0.461500  0.457300  1
  H  H92  1  0.675900  0.538500  0.957300  1
  H  H93  1  0.211500  0.925900  0.207300  1
  H  H94  1  0.288500  0.074100  0.707300  1
  H  H95  1  0.324100  0.961500  0.957300  1
  H  H96  1  0.175900  0.038500  0.457300  1
  H  H97  1  0.261100  0.656600  0.398900  1
  H  H98  1  0.238900  0.343400  0.898900  1
  H  H99  1  0.093400  0.511100  0.648900  1
  H  H100  1  0.406600  0.488900  0.148900  1
  H  H101  1  0.761100  0.156600  0.898900  1
  H  H102  1  0.738900  0.843400  0.398900  1
  H  H103  1  0.593400  0.011100  0.148900  1
  H  H104  1  0.906600  0.988900  0.648900  1
  H  H105  1  0.738900  0.343400  0.601100  1
  H  H106  1  0.761100  0.656600  0.101100  1
  H  H107  1  0.906600  0.488900  0.351100  1
  H  H108  1  0.593400  0.511100  0.851100  1
  H  H109  1  0.238900  0.843400  0.101100  1
  H  H110  1  0.261100  0.156600  0.601100  1
  H  H111  1  0.406600  0.988900  0.851100  1
  H  H112  1  0.093400  0.011100  0.351100  1
  H  H113  1  0.230100  0.665200  0.355600  1
  H  H114  1  0.269900  0.334800  0.855600  1
  H  H115  1  0.084800  0.480100  0.605600  1
  H  H116  1  0.415200  0.519900  0.105600  1
  H  H117  1  0.730100  0.165200  0.855600  1
  H  H118  1  0.769900  0.834800  0.355600  1
  H  H119  1  0.584800  0.980100  0.105600  1
  H  H120  1  0.915200  0.019900  0.605600  1
  H  H121  1  0.769900  0.334800  0.644400  1
  H  H122  1  0.730100  0.665200  0.144400  1
  H  H123  1  0.915200  0.519900  0.394400  1
  H  H124  1  0.584800  0.480100  0.894400  1
  H  H125  1  0.269900  0.834800  0.144400  1
  H  H126  1  0.230100  0.165200  0.644400  1
  H  H127  1  0.415200  0.019900  0.894400  1
  H  H128  1  0.084800  0.980100  0.394400  1
  H  H129  1  0.180100  0.624400  0.408500  1
  H  H130  1  0.319900  0.375600  0.908500  1
  H  H131  1  0.125600  0.430100  0.658500  1
  H  H132  1  0.374400  0.569900  0.158500  1
  H  H133  1  0.680100  0.124400  0.908500  1
  H  H134  1  0.819900  0.875600  0.408500  1
  H  H135  1  0.625600  0.930100  0.158500  1
  H  H136  1  0.874400  0.069900  0.658500  1
  H  H137  1  0.819900  0.375600  0.591500  1
  H  H138  1  0.680100  0.624400  0.091500  1
  H  H139  1  0.874400  0.569900  0.341500  1
  H  H140  1  0.625600  0.430100  0.841500  1
  H  H141  1  0.319900  0.875600  0.091500  1
  H  H142  1  0.180100  0.124400  0.591500  1
  H  H143  1  0.374400  0.069900  0.841500  1
  H  H144  1  0.125600  0.930100  0.341500  1
  H  H145  1  0.183400  0.591700  0.365700  1
  H  H146  1  0.316600  0.408300  0.865700  1
  H  H147  1  0.158300  0.433400  0.615700  1
  H  H148  1  0.341700  0.566600  0.115700  1
  H  H149  1  0.683400  0.091700  0.865700  1
  H  H150  1  0.816600  0.908300  0.365700  1
  H  H151  1  0.658300  0.933400  0.115700  1
  H  H152  1  0.841700  0.066600  0.615700  1
  H  H153  1  0.816600  0.408300  0.634300  1
  H  H154  1  0.683400  0.591700  0.134300  1
  H  H155  1  0.841700  0.566600  0.384300  1
  H  H156  1  0.658300  0.433400  0.884300  1
  H  H157  1  0.316600  0.908300  0.134300  1
  H  H158  1  0.183400  0.091700  0.634300  1
  H  H159  1  0.341700  0.066600  0.884300  1
  H  H160  1  0.158300  0.933400  0.384300  1
  H  H161  1  0.206000  0.567100  0.473500  1
  H  H162  1  0.294000  0.432900  0.973500  1
  H  H163  1  0.182900  0.456000  0.723500  1
  H  H164  1  0.317100  0.544000  0.223500  1
  H  H165  1  0.706000  0.067100  0.973500  1
  H  H166  1  0.794000  0.932900  0.473500  1
  H  H167  1  0.682900  0.956000  0.223500  1
  H  H168  1  0.817100  0.044000  0.723500  1
  H  H169  1  0.794000  0.432900  0.526500  1
  H  H170  1  0.706000  0.567100  0.026500  1
  H  H171  1  0.817100  0.544000  0.276500  1
  H  H172  1  0.682900  0.456000  0.776500  1
  H  H173  1  0.294000  0.932900  0.026500  1
  H  H174  1  0.206000  0.067100  0.526500  1
  H  H175  1  0.317100  0.044000  0.776500  1
  H  H176  1  0.182900  0.956000  0.276500  1
  H  H177  1  0.243300  0.612700  0.458600  1
  H  H178  1  0.256700  0.387300  0.958600  1
  H  H179  1  0.137300  0.493300  0.708600  1
  H  H180  1  0.362700  0.506700  0.208600  1
  H  H181  1  0.743300  0.112700  0.958600  1
  H  H182  1  0.756700  0.887300  0.458600  1
  H  H183  1  0.637300  0.993300  0.208600  1
  H  H184  1  0.862700  0.006700  0.708600  1
  H  H185  1  0.756700  0.387300  0.541400  1
  H  H186  1  0.743300  0.612700  0.041400  1
  H  H187  1  0.862700  0.506700  0.291400  1
  H  H188  1  0.637300  0.493300  0.791400  1
  H  H189  1  0.256700  0.887300  0.041400  1
  H  H190  1  0.243300  0.112700  0.541400  1
  H  H191  1  0.362700  0.006700  0.791400  1
  H  H192  1  0.137300  0.993300  0.291400  1
  H  H193  1  0.265900  0.555900  0.465300  1
  H  H194  1  0.234100  0.444100  0.965300  1
  H  H195  1  0.194100  0.515900  0.715300  1
  H  H196  1  0.305900  0.484100  0.215300  1
  H  H197  1  0.765900  0.055900  0.965300  1
  H  H198  1  0.734100  0.944100  0.465300  1
  H  H199  1  0.694100  0.015900  0.215300  1
  H  H200  1  0.805900  0.984100  0.715300  1
  H  H201  1  0.734100  0.444100  0.534700  1
  H  H202  1  0.765900  0.555900  0.034700  1
  H  H203  1  0.805900  0.484100  0.284700  1
  H  H204  1  0.694100  0.515900  0.784700  1
  H  H205  1  0.234100  0.944100  0.034700  1
  H  H206  1  0.265900  0.055900  0.534700  1
  H  H207  1  0.305900  0.984100  0.784700  1
  H  H208  1  0.194100  0.015900  0.284700  1
  H  H209  1  0.145500  0.538800  0.424100  1
  H  H210  1  0.354500  0.461200  0.924100  1
  H  H211  1  0.211200  0.395500  0.674100  1
  H  H212  1  0.288800  0.604500  0.174100  1
  H  H213  1  0.645500  0.038800  0.924100  1
  H  H214  1  0.854500  0.961200  0.424100  1
  H  H215  1  0.711200  0.895500  0.174100  1
  H  H216  1  0.788800  0.104500  0.674100  1
  H  H217  1  0.854500  0.461200  0.575900  1
  H  H218  1  0.645500  0.538800  0.075900  1
  H  H219  1  0.788800  0.604500  0.325900  1
  H  H220  1  0.711200  0.395500  0.825900  1
  H  H221  1  0.354500  0.961200  0.075900  1
  H  H222  1  0.145500  0.038800  0.575900  1
  H  H223  1  0.288800  0.104500  0.825900  1
  H  H224  1  0.211200  0.895500  0.325900  1
  H  H225  1  0.186400  0.497500  0.441100  1
  H  H226  1  0.313600  0.502500  0.941100  1
  H  H227  1  0.252500  0.436400  0.691100  1
  H  H228  1  0.247500  0.563600  0.191100  1
  H  H229  1  0.686400  0.997500  0.941100  1
  H  H230  1  0.813600  0.002500  0.441100  1
  H  H231  1  0.752500  0.936400  0.191100  1
  H  H232  1  0.747500  0.063600  0.691100  1
  H  H233  1  0.813600  0.502500  0.558900  1
  H  H234  1  0.686400  0.497500  0.058900  1
  H  H235  1  0.747500  0.563600  0.308900  1
  H  H236  1  0.752500  0.436400  0.808900  1
  H  H237  1  0.313600  0.002500  0.058900  1
  H  H238  1  0.186400  0.997500  0.558900  1
  H  H239  1  0.247500  0.063600  0.808900  1
  H  H240  1  0.252500  0.936400  0.308900  1
  H  H241  1  0.174100  0.501100  0.391700  1
  H  H242  1  0.325900  0.498900  0.891700  1
  H  H243  1  0.248900  0.424100  0.641700  1
  H  H244  1  0.251100  0.575900  0.141700  1
  H  H245  1  0.674100  0.001100  0.891700  1
  H  H246  1  0.825900  0.998900  0.391700  1
  H  H247  1  0.748900  0.924100  0.141700  1
  H  H248  1  0.751100  0.075900  0.641700  1
  H  H249  1  0.825900  0.498900  0.608300  1
  H  H250  1  0.674100  0.501100  0.108300  1
  H  H251  1  0.751100  0.575900  0.358300  1
  H  H252  1  0.748900  0.424100  0.858300  1
  H  H253  1  0.325900  0.998900  0.108300  1
  H  H254  1  0.174100  0.001100  0.608300  1
  H  H255  1  0.251100  0.075900  0.858300  1
  H  H256  1  0.248900  0.924100  0.358300  1
  H  H257  1  0.312300  0.472900  0.304500  1.0
  H  H258  1  0.187700  0.527100  0.804500  1.0
  H  H259  1  0.277100  0.562300  0.554500  1.0
  H  H260  1  0.222900  0.437700  0.054500  1.0
  H  H261  1  0.812300  0.972900  0.804500  1.0
  H  H262  1  0.687700  0.027100  0.304500  1.0
  H  H263  1  0.777100  0.062300  0.054500  1.0
  H  H264  1  0.722900  0.937700  0.554500  1.0
  H  H265  1  0.687700  0.527100  0.695500  1.0
  H  H266  1  0.812300  0.472900  0.195500  1.0
  H  H267  1  0.722900  0.437700  0.445500  1.0
  H  H268  1  0.777100  0.562300  0.945500  1.0
  H  H269  1  0.187700  0.027100  0.195500  1.0
  H  H270  1  0.312300  0.972900  0.695500  1.0
  H  H271  1  0.222900  0.937700  0.945500  1.0
  H  H272  1  0.277100  0.062300  0.445500  1.0
  H  H273  1  0.383300  0.438500  0.269300  1.0
  H  H274  1  0.116700  0.561500  0.769300  1.0
  H  H275  1  0.311500  0.633300  0.519300  1.0
  H  H276  1  0.188500  0.366700  0.019300  1.0
  H  H277  1  0.883300  0.938500  0.769300  1.0
  H  H278  1  0.616700  0.061500  0.269300  1.0
  H  H279  1  0.811500  0.133300  0.019300  1.0
  H  H280  1  0.688500  0.866700  0.519300  1.0
  H  H281  1  0.616700  0.561500  0.730700  1.0
  H  H282  1  0.883300  0.438500  0.230700  1.0
  H  H283  1  0.688500  0.366700  0.480700  1.0
  H  H284  1  0.811500  0.633300  0.980700  1.0
  H  H285  1  0.116700  0.061500  0.230700  1.0
  H  H286  1  0.383300  0.938500  0.730700  1.0
  H  H287  1  0.188500  0.866700  0.980700  1.0
  H  H288  1  0.311500  0.133300  0.480700  1.0
  H  H289  1  0.475000  0.504300  0.357800  1.0
  H  H290  1  0.025000  0.495700  0.857800  1.0
  H  H291  1  0.245700  0.725000  0.607800  1.0
  H  H292  1  0.254300  0.275000  0.107800  1.0
  H  H293  1  0.975000  0.004300  0.857800  1.0
  H  H294  1  0.525000  0.995700  0.357800  1.0
  H  H295  1  0.745700  0.225000  0.107800  1.0
  H  H296  1  0.754300  0.775000  0.607800  1.0
  H  H297  1  0.525000  0.495700  0.642200  1.0
  H  H298  1  0.975000  0.504300  0.142200  1.0
  H  H299  1  0.754300  0.275000  0.392200  1.0
  H  H300  1  0.745700  0.725000  0.892200  1.0
  H  H301  1  0.025000  0.995700  0.142200  1.0
  H  H302  1  0.475000  0.004300  0.642200  1.0
  H  H303  1  0.254300  0.775000  0.892200  1.0
  H  H304  1  0.245700  0.225000  0.392200  1.0
  H  H305  1  0.402100  0.538200  0.389800  1.0
  H  H306  1  0.097900  0.461800  0.889800  1.0
  H  H307  1  0.211800  0.652100  0.639800  1.0
  H  H308  1  0.288200  0.347900  0.139800  1.0
  H  H309  1  0.902100  0.038200  0.889800  1.0
  H  H310  1  0.597900  0.961800  0.389800  1.0
  H  H311  1  0.711800  0.152100  0.139800  1.0
  H  H312  1  0.788200  0.847900  0.639800  1.0
  H  H313  1  0.597900  0.461800  0.610200  1.0
  H  H314  1  0.902100  0.538200  0.110200  1.0
  H  H315  1  0.788200  0.347900  0.360200  1.0
  H  H316  1  0.711800  0.652100  0.860200  1.0
  H  H317  1  0.097900  0.961800  0.110200  1.0
  H  H318  1  0.402100  0.038200  0.610200  1.0
  H  H319  1  0.288200  0.847900  0.860200  1.0
  H  H320  1  0.211800  0.152100  0.360200  1.0
  H  H321  1  0.582800  0.303200  0.130700  1.0
  H  H322  1  0.917200  0.696800  0.630700  1.0
  H  H323  1  0.446800  0.832800  0.380700  1.0
  H  H324  1  0.053200  0.167200  0.880700  1.0
  H  H325  1  0.082800  0.803200  0.630700  1.0
  H  H326  1  0.417200  0.196800  0.130700  1.0
  H  H327  1  0.946800  0.332800  0.880700  1.0
  H  H328  1  0.553200  0.667200  0.380700  1.0
  H  H329  1  0.417200  0.696800  0.869300  1.0
  H  H330  1  0.082800  0.303200  0.369300  1.0
  H  H331  1  0.553200  0.167200  0.619300  1.0
  H  H332  1  0.946800  0.832800  0.119300  1.0
  H  H333  1  0.917200  0.196800  0.369300  1.0
  H  H334  1  0.582800  0.803200  0.869300  1.0
  H  H335  1  0.053200  0.667200  0.119300  1.0
  H  H336  1  0.446800  0.332800  0.619300  1.0
  H  H337  1  0.592100  0.360500  0.186700  1.0
  H  H338  1  0.907900  0.639500  0.686700  1.0
  H  H339  1  0.389500  0.842100  0.436700  1.0
  H  H340  1  0.110500  0.157900  0.936700  1.0
  H  H341  1  0.092100  0.860500  0.686700  1.0
  H  H342  1  0.407900  0.139500  0.186700  1.0
  H  H343  1  0.889500  0.342100  0.936700  1.0
  H  H344  1  0.610500  0.657900  0.436700  1.0
  H  H345  1  0.407900  0.639500  0.813300  1.0
  H  H346  1  0.092100  0.360500  0.313300  1.0
  H  H347  1  0.610500  0.157900  0.563300  1.0
  H  H348  1  0.889500  0.842100  0.063300  1.0
  H  H349  1  0.907900  0.139500  0.313300  1.0
  H  H350  1  0.592100  0.860500  0.813300  1.0
  H  H351  1  0.110500  0.657900  0.063300  1.0
  H  H352  1  0.389500  0.342100  0.563300  1.0
  H  H353  1  0.436300  0.363900  0.196400  1.0
  H  H354  1  0.063700  0.636100  0.696400  1.0
  H  H355  1  0.386100  0.686300  0.446400  1.0
  H  H356  1  0.113900  0.313700  0.946400  1.0
  H  H357  1  0.936300  0.863900  0.696400  1.0
  H  H358  1  0.563700  0.136100  0.196400  1.0
  H  H359  1  0.886100  0.186300  0.946400  1.0
  H  H360  1  0.613900  0.813700  0.446400  1.0
  H  H361  1  0.563700  0.636100  0.803600  1.0
  H  H362  1  0.936300  0.363900  0.303600  1.0
  H  H363  1  0.613900  0.313700  0.553600  1.0
  H  H364  1  0.886100  0.686300  0.053600  1.0
  H  H365  1  0.063700  0.136100  0.303600  1.0
  H  H366  1  0.436300  0.863900  0.803600  1.0
  H  H367  1  0.113900  0.813700  0.053600  1.0
  H  H368  1  0.386100  0.186300  0.553600  1.0
  H  H369  1  0.430900  0.311700  0.137900  1.0
  H  H370  1  0.069100  0.688300  0.637900  1.0
  H  H371  1  0.438300  0.680900  0.387900  1.0
  H  H372  1  0.061700  0.319100  0.887900  1.0
  H  H373  1  0.930900  0.811700  0.637900  1.0
  H  H374  1  0.569100  0.188300  0.137900  1.0
  H  H375  1  0.938300  0.180900  0.887900  1.0
  H  H376  1  0.561700  0.819100  0.387900  1.0
  H  H377  1  0.569100  0.688300  0.862100  1.0
  H  H378  1  0.930900  0.311700  0.362100  1.0
  H  H379  1  0.561700  0.319100  0.612100  1.0
  H  H380  1  0.938300  0.680900  0.112100  1.0
  H  H381  1  0.069100  0.188300  0.362100  1.0
  H  H382  1  0.430900  0.811700  0.862100  1.0
  H  H383  1  0.061700  0.819100  0.112100  1.0
  H  H384  1  0.438300  0.180900  0.612100  1.0
  H  H385  1  0.681400  0.508900  0.377400  1.0
  H  H386  1  0.818600  0.491100  0.877400  1.0
  H  H387  1  0.241100  0.931400  0.627400  1.0
  H  H388  1  0.258900  0.068600  0.127400  1.0
  H  H389  1  0.181400  0.008900  0.877400  1.0
  H  H390  1  0.318600  0.991100  0.377400  1.0
  H  H391  1  0.741100  0.431400  0.127400  1.0
  H  H392  1  0.758900  0.568600  0.627400  1.0
  H  H393  1  0.318600  0.491100  0.622600  1.0
  H  H394  1  0.181400  0.508900  0.122600  1.0
  H  H395  1  0.758900  0.068600  0.372600  1.0
  H  H396  1  0.741100  0.931400  0.872600  1.0
  H  H397  1  0.818600  0.991100  0.122600  1.0
  H  H398  1  0.681400  0.008900  0.622600  1.0
  H  H399  1  0.258900  0.568600  0.872600  1.0
  H  H400  1  0.241100  0.431400  0.372600  1.0
  H  H401  1  0.600100  0.501000  0.347400  1.0
  H  H402  1  0.899900  0.499000  0.847400  1.0
  H  H403  1  0.249000  0.850100  0.597400  1.0
  H  H404  1  0.251000  0.149900  0.097400  1.0
  H  H405  1  0.100100  0.001000  0.847400  1.0
  H  H406  1  0.399900  0.999000  0.347400  1.0
  H  H407  1  0.749000  0.350100  0.097400  1.0
  H  H408  1  0.751000  0.649900  0.597400  1.0
  H  H409  1  0.399900  0.499000  0.652600  1.0
  H  H410  1  0.100100  0.501000  0.152600  1.0
  H  H411  1  0.751000  0.149900  0.402600  1.0
  H  H412  1  0.749000  0.850100  0.902600  1.0
  H  H413  1  0.899900  0.999000  0.152600  1.0
  H  H414  1  0.600100  0.001000  0.652600  1.0
  H  H415  1  0.251000  0.649900  0.902600  1.0
  H  H416  1  0.249000  0.350100  0.402600  1.0
  H  H417  1  0.660900  0.400700  0.263000  1.0
  H  H418  1  0.839100  0.599300  0.763000  1.0
  H  H419  1  0.349300  0.910900  0.513000  1.0
  H  H420  1  0.150700  0.089100  0.013000  1.0
  H  H421  1  0.160900  0.900700  0.763000  1.0
  H  H422  1  0.339100  0.099300  0.263000  1.0
  H  H423  1  0.849300  0.410900  0.013000  1.0
  H  H424  1  0.650700  0.589100  0.513000  1.0
  H  H425  1  0.339100  0.599300  0.737000  1.0
  H  H426  1  0.160900  0.400700  0.237000  1.0
  H  H427  1  0.650700  0.089100  0.487000  1.0
  H  H428  1  0.849300  0.910900  0.987000  1.0
  H  H429  1  0.839100  0.099300  0.237000  1.0
  H  H430  1  0.660900  0.900700  0.737000  1.0
  H  H431  1  0.150700  0.589100  0.987000  1.0
  H  H432  1  0.349300  0.410900  0.487000  1.0
  H  H433  1  0.740900  0.414600  0.293300  1.0
  H  H434  1  0.759100  0.585400  0.793300  1.0
  H  H435  1  0.335400  0.990900  0.543300  1.0
  H  H436  1  0.164600  0.009100  0.043300  1.0
  H  H437  1  0.240900  0.914600  0.793300  1.0
  H  H438  1  0.259100  0.085400  0.293300  1.0
  H  H439  1  0.835400  0.490900  0.043300  1.0
  H  H440  1  0.664600  0.509100  0.543300  1.0
  H  H441  1  0.259100  0.585400  0.706700  1.0
  H  H442  1  0.240900  0.414600  0.206700  1.0
  H  H443  1  0.664600  0.009100  0.456700  1.0
  H  H444  1  0.835400  0.990900  0.956700  1.0
  H  H445  1  0.759100  0.085400  0.206700  1.0
  H  H446  1  0.740900  0.914600  0.706700  1.0
  H  H447  1  0.164600  0.509100  0.956700  1.0
  H  H448  1  0.335400  0.490900  0.456700  1.0
  H  H449  1  0.328600  0.671300  0.351200  1.0
  H  H450  1  0.171400  0.328700  0.851200  1.0
  H  H451  1  0.078700  0.578600  0.601200  1.0
  H  H452  1  0.421300  0.421400  0.101200  1.0
  H  H453  1  0.828600  0.171300  0.851200  1.0
  H  H454  1  0.671400  0.828700  0.351200  1.0
  H  H455  1  0.578700  0.078600  0.101200  1.0
  H  H456  1  0.921300  0.921400  0.601200  1.0
  H  H457  1  0.671400  0.328700  0.648800  1.0
  H  H458  1  0.828600  0.671300  0.148800  1.0
  H  H459  1  0.921300  0.421400  0.398800  1.0
  H  H460  1  0.578700  0.578600  0.898800  1.0
  H  H461  1  0.171400  0.828700  0.148800  1.0
  H  H462  1  0.328600  0.171300  0.648800  1.0
  H  H463  1  0.421300  0.921400  0.898800  1.0
  H  H464  1  0.078700  0.078600  0.398800  1.0
  H  H465  1  0.361500  0.621900  0.337300  1.0
  H  H466  1  0.138500  0.378100  0.837300  1.0
  H  H467  1  0.128100  0.611500  0.587300  1.0
  H  H468  1  0.371900  0.388500  0.087300  1.0
  H  H469  1  0.861500  0.121900  0.837300  1.0
  H  H470  1  0.638500  0.878100  0.337300  1.0
  H  H471  1  0.628100  0.111500  0.087300  1.0
  H  H472  1  0.871900  0.888500  0.587300  1.0
  H  H473  1  0.638500  0.378100  0.662700  1.0
  H  H474  1  0.861500  0.621900  0.162700  1.0
  H  H475  1  0.871900  0.388500  0.412700  1.0
  H  H476  1  0.628100  0.611500  0.912700  1.0
  H  H477  1  0.138500  0.878100  0.162700  1.0
  H  H478  1  0.361500  0.121900  0.662700  1.0
  H  H479  1  0.371900  0.888500  0.912700  1.0
  H  H480  1  0.128100  0.111500  0.412700  1.0
  H  H481  1  0.346100  0.629800  0.385800  1.0
  H  H482  1  0.153900  0.370200  0.885800  1.0
  H  H483  1  0.120200  0.596100  0.635800  1.0
  H  H484  1  0.379800  0.403900  0.135800  1.0
  H  H485  1  0.846100  0.129800  0.885800  1.0
  H  H486  1  0.653900  0.870200  0.385800  1.0
  H  H487  1  0.620200  0.096100  0.135800  1.0
  H  H488  1  0.879800  0.903900  0.635800  1.0
  H  H489  1  0.653900  0.370200  0.614200  1.0
  H  H490  1  0.846100  0.629800  0.114200  1.0
  H  H491  1  0.879800  0.403900  0.364200  1.0
  H  H492  1  0.620200  0.596100  0.864200  1.0
  H  H493  1  0.153900  0.870200  0.114200  1.0
  H  H494  1  0.346100  0.129800  0.614200  1.0
  H  H495  1  0.379800  0.903900  0.864200  1.0
  H  H496  1  0.120200  0.096100  0.364200  1.0
  H  H497  1  0.284500  0.633500  0.287900  1.0
  H  H498  1  0.215500  0.366500  0.787900  1.0
  H  H499  1  0.116500  0.534500  0.537900  1.0
  H  H500  1  0.383500  0.465500  0.037900  1.0
  H  H501  1  0.784500  0.133500  0.787900  1.0
  H  H502  1  0.715500  0.866500  0.287900  1.0
  H  H503  1  0.616500  0.034500  0.037900  1.0
  H  H504  1  0.883500  0.965500  0.537900  1.0
  H  H505  1  0.715500  0.366500  0.712100  1.0
  H  H506  1  0.784500  0.633500  0.212100  1.0
  H  H507  1  0.883500  0.465500  0.462100  1.0
  H  H508  1  0.616500  0.534500  0.962100  1.0
  H  H509  1  0.215500  0.866500  0.212100  1.0
  H  H510  1  0.284500  0.133500  0.712100  1.0
  H  H511  1  0.383500  0.965500  0.962100  1.0
  H  H512  1  0.116500  0.034500  0.462100  1.0
  H  H513  1  0.275200  0.572600  0.290800  1.0
  H  H514  1  0.224800  0.427400  0.790800  1.0
  H  H515  1  0.177400  0.525200  0.540800  1.0
  H  H516  1  0.322600  0.474800  0.040800  1.0
  H  H517  1  0.775200  0.072600  0.790800  1.0
  H  H518  1  0.724800  0.927400  0.290800  1.0
  H  H519  1  0.677400  0.025200  0.040800  1.0
  H  H520  1  0.822600  0.974800  0.540800  1.0
  H  H521  1  0.724800  0.427400  0.709200  1.0
  H  H522  1  0.775200  0.572600  0.209200  1.0
  H  H523  1  0.822600  0.474800  0.459200  1.0
  H  H524  1  0.677400  0.525200  0.959200  1.0
  H  H525  1  0.224800  0.927400  0.209200  1.0
  H  H526  1  0.275200  0.072600  0.709200  1.0
  H  H527  1  0.322600  0.974800  0.959200  1.0
  H  H528  1  0.177400  0.025200  0.459200  1.0
  H  H529  1  0.332200  0.595500  0.295500  1.0
  H  H530  1  0.167800  0.404500  0.795500  1.0
  H  H531  1  0.154500  0.582200  0.545500  1.0
  H  H532  1  0.345500  0.417800  0.045500  1.0
  H  H533  1  0.832200  0.095500  0.795500  1.0
  H  H534  1  0.667800  0.904500  0.295500  1.0
  H  H535  1  0.654500  0.082200  0.045500  1.0
  H  H536  1  0.845500  0.917800  0.545500  1.0
  H  H537  1  0.667800  0.404500  0.704500  1.0
  H  H538  1  0.832200  0.595500  0.204500  1.0
  H  H539  1  0.845500  0.417800  0.454500  1.0
  H  H540  1  0.654500  0.582200  0.954500  1.0
  H  H541  1  0.167800  0.904500  0.204500  1.0
  H  H542  1  0.332200  0.095500  0.704500  1.0
  H  H543  1  0.345500  0.917800  0.954500  1.0
  H  H544  1  0.154500  0.082200  0.454500  1.0
  H  H545  1  0.212000  0.611400  0.336600  1.0
  H  H546  1  0.288000  0.388600  0.836600  1.0
  H  H547  1  0.138600  0.462000  0.586600  1.0
  H  H548  1  0.361400  0.538000  0.086600  1.0
  H  H549  1  0.712000  0.111400  0.836600  1.0
  H  H550  1  0.788000  0.888600  0.336600  1.0
  H  H551  1  0.638600  0.962000  0.086600  1.0
  H  H552  1  0.861400  0.038000  0.586600  1.0
  H  H553  1  0.788000  0.388600  0.663400  1.0
  H  H554  1  0.712000  0.611400  0.163400  1.0
  H  H555  1  0.861400  0.538000  0.413400  1.0
  H  H556  1  0.638600  0.462000  0.913400  1.0
  H  H557  1  0.288000  0.888600  0.163400  1.0
  H  H558  1  0.212000  0.111400  0.663400  1.0
  H  H559  1  0.361400  0.038000  0.913400  1.0
  H  H560  1  0.138600  0.962000  0.413400  1.0
  H  H561  1  0.238500  0.666000  0.347400  1.0
  H  H562  1  0.261500  0.334000  0.847400  1.0
  H  H563  1  0.084000  0.488500  0.597400  1.0
  H  H564  1  0.416000  0.511500  0.097400  1.0
  H  H565  1  0.738500  0.166000  0.847400  1.0
  H  H566  1  0.761500  0.834000  0.347400  1.0
  H  H567  1  0.584000  0.988500  0.097400  1.0
  H  H568  1  0.916000  0.011500  0.597400  1.0
  H  H569  1  0.761500  0.334000  0.652600  1.0
  H  H570  1  0.738500  0.666000  0.152600  1.0
  H  H571  1  0.916000  0.511500  0.402600  1.0
  H  H572  1  0.584000  0.488500  0.902600  1.0
  H  H573  1  0.261500  0.834000  0.152600  1.0
  H  H574  1  0.238500  0.166000  0.652600  1.0
  H  H575  1  0.416000  0.011500  0.902600  1.0
  H  H576  1  0.084000  0.988500  0.402600  1.0
  H  H577  1  0.190500  0.637100  0.405400  1.0
  H  H578  1  0.309500  0.362900  0.905400  1.0
  H  H579  1  0.112900  0.440500  0.655400  1.0
  H  H580  1  0.387100  0.559500  0.155400  1.0
  H  H581  1  0.690500  0.137100  0.905400  1.0
  H  H582  1  0.809500  0.862900  0.405400  1.0
  H  H583  1  0.612900  0.940500  0.155400  1.0
  H  H584  1  0.887100  0.059500  0.655400  1.0
  H  H585  1  0.809500  0.362900  0.594600  1.0
  H  H586  1  0.690500  0.637100  0.094600  1.0
  H  H587  1  0.887100  0.559500  0.344600  1.0
  H  H588  1  0.612900  0.440500  0.844600  1.0
  H  H589  1  0.309500  0.862900  0.094600  1.0
  H  H590  1  0.190500  0.137100  0.594600  1.0
  H  H591  1  0.387100  0.059500  0.844600  1.0
  H  H592  1  0.112900  0.940500  0.344600  1.0
  H  H593  1  0.250500  0.640500  0.417200  1.0
  H  H594  1  0.249500  0.359500  0.917200  1.0
  H  H595  1  0.109500  0.500500  0.667200  1.0
  H  H596  1  0.390500  0.499500  0.167200  1.0
  H  H597  1  0.750500  0.140500  0.917200  1.0
  H  H598  1  0.749500  0.859500  0.417200  1.0
  H  H599  1  0.609500  0.000500  0.167200  1.0
  H  H600  1  0.890500  0.999500  0.667200  1.0
  H  H601  1  0.749500  0.359500  0.582800  1.0
  H  H602  1  0.750500  0.640500  0.082800  1.0
  H  H603  1  0.890500  0.499500  0.332800  1.0
  H  H604  1  0.609500  0.500500  0.832800  1.0
  H  H605  1  0.249500  0.859500  0.082800  1.0
  H  H606  1  0.250500  0.140500  0.582800  1.0
  H  H607  1  0.390500  0.999500  0.832800  1.0
  H  H608  1  0.109500  0.000500  0.332800  1.0
  H  H609  1  0.204400  0.579600  0.472200  1.0
  H  H610  1  0.295600  0.420400  0.972200  1.0
  H  H611  1  0.170400  0.454400  0.722200  1.0
  H  H612  1  0.329600  0.545600  0.222200  1.0
  H  H613  1  0.704400  0.079600  0.972200  1.0
  H  H614  1  0.795600  0.920400  0.472200  1.0
  H  H615  1  0.670400  0.954400  0.222200  1.0
  H  H616  1  0.829600  0.045600  0.722200  1.0
  H  H617  1  0.795600  0.420400  0.527800  1.0
  H  H618  1  0.704400  0.579600  0.027800  1.0
  H  H619  1  0.829600  0.545600  0.277800  1.0
  H  H620  1  0.670400  0.454400  0.777800  1.0
  H  H621  1  0.295600  0.920400  0.027800  1.0
  H  H622  1  0.204400  0.079600  0.527800  1.0
  H  H623  1  0.329600  0.045600  0.777800  1.0
  H  H624  1  0.170400  0.954400  0.277800  1.0
  H  H625  1  0.264700  0.568400  0.466500  1.0
  H  H626  1  0.235300  0.431600  0.966500  1.0
  H  H627  1  0.181600  0.514700  0.716500  1.0
  H  H628  1  0.318400  0.485300  0.216500  1.0
  H  H629  1  0.764700  0.068400  0.966500  1.0
  H  H630  1  0.735300  0.931600  0.466500  1.0
  H  H631  1  0.681600  0.014700  0.216500  1.0
  H  H632  1  0.818400  0.985300  0.716500  1.0
  H  H633  1  0.735300  0.431600  0.533500  1.0
  H  H634  1  0.764700  0.568400  0.033500  1.0
  H  H635  1  0.818400  0.485300  0.283500  1.0
  H  H636  1  0.681600  0.514700  0.783500  1.0
  H  H637  1  0.235300  0.931600  0.033500  1.0
  H  H638  1  0.264700  0.068400  0.533500  1.0
  H  H639  1  0.318400  0.985300  0.783500  1.0
  H  H640  1  0.181600  0.014700  0.283500  1.0
  H  H641  1  0.224400  0.521700  0.465800  1.0
  H  H642  1  0.275600  0.478300  0.965800  1.0
  H  H643  1  0.228300  0.474400  0.715800  1.0
  H  H644  1  0.271700  0.525600  0.215800  1.0
  H  H645  1  0.724400  0.021700  0.965800  1.0
  H  H646  1  0.775600  0.978300  0.465800  1.0
  H  H647  1  0.728300  0.974400  0.215800  1.0
  H  H648  1  0.771700  0.025600  0.715800  1.0
  H  H649  1  0.775600  0.478300  0.534200  1.0
  H  H650  1  0.724400  0.521700  0.034200  1.0
  H  H651  1  0.771700  0.525600  0.284200  1.0
  H  H652  1  0.728300  0.474400  0.784200  1.0
  H  H653  1  0.275600  0.978300  0.034200  1.0
  H  H654  1  0.224400  0.021700  0.534200  1.0
  H  H655  1  0.271700  0.025600  0.784200  1.0
  H  H656  1  0.228300  0.974400  0.284200  1.0
  H  H657  1  0.147400  0.558400  0.405600  1.0
  H  H658  1  0.352600  0.441600  0.905600  1.0
  H  H659  1  0.191600  0.397400  0.655600  1.0
  H  H660  1  0.308400  0.602600  0.155600  1.0
  H  H661  1  0.647400  0.058400  0.905600  1.0
  H  H662  1  0.852600  0.941600  0.405600  1.0
  H  H663  1  0.691600  0.897400  0.155600  1.0
  H  H664  1  0.808400  0.102600  0.655600  1.0
  H  H665  1  0.852600  0.441600  0.594400  1.0
  H  H666  1  0.647400  0.558400  0.094400  1.0
  H  H667  1  0.808400  0.602600  0.344400  1.0
  H  H668  1  0.691600  0.397400  0.844400  1.0
  H  H669  1  0.352600  0.941600  0.094400  1.0
  H  H670  1  0.147400  0.058400  0.594400  1.0
  H  H671  1  0.308400  0.102600  0.844400  1.0
  H  H672  1  0.191600  0.897400  0.344400  1.0
  H  H673  1  0.175600  0.503500  0.406500  1.0
  H  H674  1  0.324400  0.496500  0.906500  1.0
  H  H675  1  0.246500  0.425600  0.656500  1.0
  H  H676  1  0.253500  0.574400  0.156500  1.0
  H  H677  1  0.675600  0.003500  0.906500  1.0
  H  H678  1  0.824400  0.996500  0.406500  1.0
  H  H679  1  0.746500  0.925600  0.156500  1.0
  H  H680  1  0.753500  0.074400  0.656500  1.0
  H  H681  1  0.824400  0.496500  0.593500  1.0
  H  H682  1  0.675600  0.503500  0.093500  1.0
  H  H683  1  0.753500  0.574400  0.343500  1.0
  H  H684  1  0.746500  0.425600  0.843500  1.0
  H  H685  1  0.324400  0.996500  0.093500  1.0
  H  H686  1  0.175600  0.003500  0.593500  1.0
  H  H687  1  0.253500  0.074400  0.843500  1.0
  H  H688  1  0.246500  0.925600  0.343500  1.0
  H  H689  1  0.178500  0.538600  0.365000  1.0
  H  H690  1  0.321500  0.461400  0.865000  1.0
  H  H691  1  0.211400  0.428500  0.615000  1.0
  H  H692  1  0.288600  0.571500  0.115000  1.0
  H  H693  1  0.678500  0.038600  0.865000  1.0
  H  H694  1  0.821500  0.961400  0.365000  1.0
  H  H695  1  0.711400  0.928500  0.115000  1.0
  H  H696  1  0.788600  0.071500  0.615000  1.0
  H  H697  1  0.821500  0.461400  0.635000  1.0
  H  H698  1  0.678500  0.538600  0.135000  1.0
  H  H699  1  0.788600  0.571500  0.385000  1.0
  H  H700  1  0.711400  0.428500  0.885000  1.0
  H  H701  1  0.321500  0.961400  0.135000  1.0
  H  H702  1  0.178500  0.038600  0.635000  1.0
  H  H703  1  0.288600  0.071500  0.885000  1.0
  H  H704  1  0.211400  0.928500  0.385000  1.0
  H  H705  1  0.477900  0.371700  0.015100  1.0
  H  H706  1  0.022100  0.628300  0.515100  1.0
  H  H707  1  0.378300  0.727900  0.265100  1.0
  H  H708  1  0.121700  0.272100  0.765100  1.0
  H  H709  1  0.977900  0.871700  0.515100  1.0
  H  H710  1  0.522100  0.128300  0.015100  1.0
  H  H711  1  0.878300  0.227900  0.765100  1.0
  H  H712  1  0.621700  0.772100  0.265100  1.0
  H  H713  1  0.522100  0.628300  0.984900  1.0
  H  H714  1  0.977900  0.371700  0.484900  1.0
  H  H715  1  0.621700  0.272100  0.734900  1.0
  H  H716  1  0.878300  0.727900  0.234900  1.0
  H  H717  1  0.022100  0.128300  0.484900  1.0
  H  H718  1  0.477900  0.871700  0.984900  1.0
  H  H719  1  0.121700  0.772100  0.234900  1.0
  H  H720  1  0.378300  0.227900  0.734900  1.0
  H  H721  1  0.491100  0.369900  0.064400  1.0
  H  H722  1  0.008900  0.630100  0.564400  1.0
  H  H723  1  0.380100  0.741100  0.314400  1.0
  H  H724  1  0.119900  0.258900  0.814400  1.0
  H  H725  1  0.991100  0.869900  0.564400  1.0
  H  H726  1  0.508900  0.130100  0.064400  1.0
  H  H727  1  0.880100  0.241100  0.814400  1.0
  H  H728  1  0.619900  0.758900  0.314400  1.0
  H  H729  1  0.508900  0.630100  0.935600  1.0
  H  H730  1  0.991100  0.369900  0.435600  1.0
  H  H731  1  0.619900  0.258900  0.685600  1.0
  H  H732  1  0.880100  0.741100  0.185600  1.0
  H  H733  1  0.008900  0.130100  0.435600  1.0
  H  H734  1  0.491100  0.869900  0.935600  1.0
  H  H735  1  0.119900  0.758900  0.185600  1.0
  H  H736  1  0.380100  0.241100  0.685600  1.0
  H  H737  1  0.441300  0.340500  0.046700  1.0
  H  H738  1  0.058700  0.659500  0.546700  1.0
  H  H739  1  0.409500  0.691300  0.296700  1.0
  H  H740  1  0.090500  0.308700  0.796700  1.0
  H  H741  1  0.941300  0.840500  0.546700  1.0
  H  H742  1  0.558700  0.159500  0.046700  1.0
  H  H743  1  0.909500  0.191300  0.796700  1.0
  H  H744  1  0.590500  0.808700  0.296700  1.0
  H  H745  1  0.558700  0.659500  0.953300  1.0
  H  H746  1  0.941300  0.340500  0.453300  1.0
  H  H747  1  0.590500  0.308700  0.703300  1.0
  H  H748  1  0.909500  0.691300  0.203300  1.0
  H  H749  1  0.058700  0.159500  0.453300  1.0
  H  H750  1  0.441300  0.840500  0.953300  1.0
  H  H751  1  0.090500  0.808700  0.203300  1.0
  H  H752  1  0.409500  0.191300  0.703300  1.0
  H  H753  1  0.566800  0.340000  0.004600  1.0
  H  H754  1  0.933200  0.660000  0.504600  1.0
  H  H755  1  0.410000  0.816800  0.254600  1.0
  H  H756  1  0.090000  0.183200  0.754600  1.0
  H  H757  1  0.066800  0.840000  0.504600  1.0
  H  H758  1  0.433200  0.160000  0.004600  1.0
  H  H759  1  0.910000  0.316800  0.754600  1.0
  H  H760  1  0.590000  0.683200  0.254600  1.0
  H  H761  1  0.433200  0.660000  0.995400  1.0
  H  H762  1  0.066800  0.340000  0.495400  1.0
  H  H763  1  0.590000  0.183200  0.745400  1.0
  H  H764  1  0.910000  0.816800  0.245400  1.0
  H  H765  1  0.933200  0.160000  0.495400  1.0
  H  H766  1  0.566800  0.840000  0.995400  1.0
  H  H767  1  0.090000  0.683200  0.245400  1.0
  H  H768  1  0.410000  0.316800  0.745400  1.0
  H  H769  1  0.584100  0.287100  0.026400  1.0
  H  H770  1  0.915900  0.712900  0.526400  1.0
  H  H771  1  0.462900  0.834100  0.276400  1.0
  H  H772  1  0.037100  0.165900  0.776400  1.0
  H  H773  1  0.084100  0.787100  0.526400  1.0
  H  H774  1  0.415900  0.212900  0.026400  1.0
  H  H775  1  0.962900  0.334100  0.776400  1.0
  H  H776  1  0.537100  0.665900  0.276400  1.0
  H  H777  1  0.415900  0.712900  0.973600  1.0
  H  H778  1  0.084100  0.287100  0.473600  1.0
  H  H779  1  0.537100  0.165900  0.723600  1.0
  H  H780  1  0.962900  0.834100  0.223600  1.0
  H  H781  1  0.915900  0.212900  0.473600  1.0
  H  H782  1  0.584100  0.787100  0.973600  1.0
  H  H783  1  0.037100  0.665900  0.223600  1.0
  H  H784  1  0.462900  0.334100  0.723600  1.0
  H  H785  1  0.573500  0.337000  0.054800  1.0
  H  H786  1  0.926500  0.663000  0.554800  1.0
  H  H787  1  0.413000  0.823500  0.304800  1.0
  H  H788  1  0.087000  0.176500  0.804800  1.0
  H  H789  1  0.073500  0.837000  0.554800  1.0
  H  H790  1  0.426500  0.163000  0.054800  1.0
  H  H791  1  0.913000  0.323500  0.804800  1.0
  H  H792  1  0.587000  0.676500  0.304800  1.0
  H  H793  1  0.426500  0.663000  0.945200  1.0
  H  H794  1  0.073500  0.337000  0.445200  1.0
  H  H795  1  0.587000  0.176500  0.695200  1.0
  H  H796  1  0.913000  0.823500  0.195200  1.0
  H  H797  1  0.926500  0.163000  0.445200  1.0
  H  H798  1  0.573500  0.837000  0.945200  1.0
  H  H799  1  0.087000  0.676500  0.195200  1.0
  H  H800  1  0.413000  0.323500  0.695200  1.0
  H  H801  1  0.504900  0.296000  0.969700  1.0
  H  H802  1  0.995100  0.704000  0.469700  1.0
  H  H803  1  0.454000  0.754900  0.219700  1.0
  H  H804  1  0.046000  0.245100  0.719700  1.0
  H  H805  1  0.004900  0.796000  0.469700  1.0
  H  H806  1  0.495100  0.204000  0.969700  1.0
  H  H807  1  0.954000  0.254900  0.719700  1.0
  H  H808  1  0.546000  0.745100  0.219700  1.0
  H  H809  1  0.495100  0.704000  0.030300  1.0
  H  H810  1  0.004900  0.296000  0.530300  1.0
  H  H811  1  0.546000  0.245100  0.780300  1.0
  H  H812  1  0.954000  0.754900  0.280300  1.0
  H  H813  1  0.995100  0.204000  0.530300  1.0
  H  H814  1  0.504900  0.796000  0.030300  1.0
  H  H815  1  0.046000  0.745100  0.280300  1.0
  H  H816  1  0.454000  0.254900  0.780300  1.0
  H  H817  1  0.452800  0.278800  0.993000  1.0
  H  H818  1  0.047200  0.721200  0.493000  1.0
  H  H819  1  0.471200  0.702800  0.243000  1.0
  H  H820  1  0.028800  0.297200  0.743000  1.0
  H  H821  1  0.952800  0.778800  0.493000  1.0
  H  H822  1  0.547200  0.221200  0.993000  1.0
  H  H823  1  0.971200  0.202800  0.743000  1.0
  H  H824  1  0.528800  0.797200  0.243000  1.0
  H  H825  1  0.547200  0.721200  0.007000  1.0
  H  H826  1  0.952800  0.278800  0.507000  1.0
  H  H827  1  0.528800  0.297200  0.757000  1.0
  H  H828  1  0.971200  0.702800  0.257000  1.0
  H  H829  1  0.047200  0.221200  0.507000  1.0
  H  H830  1  0.452800  0.778800  0.007000  1.0
  H  H831  1  0.028800  0.797200  0.257000  1.0
  H  H832  1  0.471200  0.202800  0.757000  1.0
  Pd  Pd833  1  0.500000  0.250000  0.081800  1.0
  Pd  Pd834  1  0.000000  0.750000  0.581800  1.0
  Pd  Pd835  1  0.500000  0.750000  0.331800  1.0
  Pd  Pd836  1  0.000000  0.250000  0.831800  1.0
  Pd  Pd837  1  0.500000  0.750000  0.918200  1.0
  Pd  Pd838  1  0.000000  0.250000  0.418200  1.0
  Pd  Pd839  1  0.500000  0.250000  0.668200  1.0
  Pd  Pd840  1  0.000000  0.750000  0.168200  1.0
  Pd  Pd841  1  0.287747  0.536195  0.380226  1.0
  Pd  Pd842  1  0.212253  0.463805  0.880226  1.0
  Pd  Pd843  1  0.213805  0.537747  0.630226  1.0
  Pd  Pd844  1  0.286195  0.462253  0.130226  1.0
  Pd  Pd845  1  0.787747  0.036195  0.880226  1.0
  Pd  Pd846  1  0.712253  0.963805  0.380226  1.0
  Pd  Pd847  1  0.713805  0.037747  0.130226  1.0
  Pd  Pd848  1  0.786195  0.962253  0.630226  1.0
  Pd  Pd849  1  0.712253  0.463805  0.619774  1.0
  Pd  Pd850  1  0.787747  0.536195  0.119774  1.0
  Pd  Pd851  1  0.786195  0.462253  0.369774  1.0
  Pd  Pd852  1  0.713805  0.537747  0.869774  1.0
  Pd  Pd853  1  0.212253  0.963805  0.119774  1.0
  Pd  Pd854  1  0.287747  0.036195  0.619774  1.0
  Pd  Pd855  1  0.286195  0.962253  0.869774  1.0
  Pd  Pd856  1  0.213805  0.037747  0.369774  1.0
  C  C857  1  0.500000  0.250000  0.266800  1
  C  C858  1  0.000000  0.750000  0.766800  1
  C  C859  1  0.500000  0.750000  0.516800  1
  C  C860  1  0.000000  0.250000  0.016800  1
  C  C861  1  0.500000  0.750000  0.733200  1
  C  C862  1  0.000000  0.250000  0.233200  1
  C  C863  1  0.500000  0.250000  0.483200  1
  C  C864  1  0.000000  0.750000  0.983200  1
  C  C865  1  0.329700  0.639900  0.367600  1
  C  C866  1  0.170300  0.360100  0.867600  1
  C  C867  1  0.110100  0.579700  0.617600  1
  C  C868  1  0.389900  0.420300  0.117600  1
  C  C869  1  0.829700  0.139900  0.867600  1
  C  C870  1  0.670300  0.860100  0.367600  1
  C  C871  1  0.610100  0.079700  0.117600  1
  C  C872  1  0.889900  0.920300  0.617600  1
  C  C873  1  0.670300  0.360100  0.632400  1
  C  C874  1  0.829700  0.639900  0.132400  1
  C  C875  1  0.889900  0.420300  0.382400  1
  C  C876  1  0.610100  0.579700  0.882400  1
  C  C877  1  0.170300  0.860100  0.132400  1
  C  C878  1  0.329700  0.139900  0.632400  1
  C  C879  1  0.389900  0.920300  0.882400  1
  C  C880  1  0.110100  0.079700  0.382400  1
  C  C881  1  0.268000  0.599900  0.307800  1
  C  C882  1  0.232000  0.400100  0.807800  1
  C  C883  1  0.150100  0.518000  0.557800  1
  C  C884  1  0.349900  0.482000  0.057800  1
  C  C885  1  0.768000  0.099900  0.807800  1
  C  C886  1  0.732000  0.900100  0.307800  1
  C  C887  1  0.650100  0.018000  0.057800  1
  C  C888  1  0.849900  0.982000  0.557800  1
  C  C889  1  0.732000  0.400100  0.692200  1
  C  C890  1  0.768000  0.599900  0.192200  1
  C  C891  1  0.849900  0.482000  0.442200  1
  C  C892  1  0.650100  0.518000  0.942200  1
  C  C893  1  0.232000  0.900100  0.192200  1
  C  C894  1  0.268000  0.099900  0.692200  1
  C  C895  1  0.349900  0.982000  0.942200  1
  C  C896  1  0.150100  0.018000  0.442200  1
  C  C897  1  0.244900  0.638700  0.374600  1
  C  C898  1  0.255100  0.361300  0.874600  1
  C  C899  1  0.111300  0.494900  0.624600  1
  C  C900  1  0.388700  0.505100  0.124600  1
  C  C901  1  0.744900  0.138700  0.874600  1
  C  C902  1  0.755100  0.861300  0.374600  1
  C  C903  1  0.611300  0.994900  0.124600  1
  C  C904  1  0.888700  0.005100  0.624600  1
  C  C905  1  0.755100  0.361300  0.625400  1
  C  C906  1  0.744900  0.638700  0.125400  1
  C  C907  1  0.888700  0.505100  0.375400  1
  C  C908  1  0.611300  0.494900  0.875400  1
  C  C909  1  0.255100  0.861300  0.125400  1
  C  C910  1  0.244900  0.138700  0.625400  1
  C  C911  1  0.388700  0.005100  0.875400  1
  C  C912  1  0.111300  0.994900  0.375400  1
  C  C913  1  0.203600  0.604800  0.389900  1
  C  C914  1  0.296400  0.395200  0.889900  1
  C  C915  1  0.145200  0.453600  0.639900  1
  C  C916  1  0.354800  0.546400  0.139900  1
  C  C917  1  0.703600  0.104800  0.889900  1
  C  C918  1  0.796400  0.895200  0.389900  1
  C  C919  1  0.645200  0.953600  0.139900  1
  C  C920  1  0.854800  0.046400  0.639900  1
  C  C921  1  0.796400  0.395200  0.610100  1
  C  C922  1  0.703600  0.604800  0.110100  1
  C  C923  1  0.854800  0.546400  0.360100  1
  C  C924  1  0.645200  0.453600  0.860100  1
  C  C925  1  0.296400  0.895200  0.110100  1
  C  C926  1  0.203600  0.104800  0.610100  1
  C  C927  1  0.354800  0.046400  0.860100  1
  C  C928  1  0.145200  0.953600  0.360100  1
  C  C929  1  0.235900  0.575800  0.455900  1
  C  C930  1  0.264100  0.424200  0.955900  1
  C  C931  1  0.174200  0.485900  0.705900  1
  C  C932  1  0.325800  0.514100  0.205900  1
  C  C933  1  0.735900  0.075800  0.955900  1
  C  C934  1  0.764100  0.924200  0.455900  1
  C  C935  1  0.674200  0.985900  0.205900  1
  C  C936  1  0.825800  0.014100  0.705900  1
  C  C937  1  0.764100  0.424200  0.544100  1
  C  C938  1  0.735900  0.575800  0.044100  1
  C  C939  1  0.825800  0.514100  0.294100  1
  C  C940  1  0.674200  0.485900  0.794100  1
  C  C941  1  0.264100  0.924200  0.044100  1
  C  C942  1  0.235900  0.075800  0.544100  1
  C  C943  1  0.325800  0.014100  0.794100  1
  C  C944  1  0.174200  0.985900  0.294100  1
  C  C945  1  0.177900  0.520900  0.417800  1
  C  C946  1  0.322100  0.479100  0.917800  1
  C  C947  1  0.229100  0.427900  0.667800  1
  C  C948  1  0.270900  0.572100  0.167800  1
  C  C949  1  0.677900  0.020900  0.917800  1
  C  C950  1  0.822100  0.979100  0.417800  1
  C  C951  1  0.729100  0.927900  0.167800  1
  C  C952  1  0.770900  0.072100  0.667800  1
  C  C953  1  0.822100  0.479100  0.582200  1
  C  C954  1  0.677900  0.520900  0.082200  1
  C  C955  1  0.770900  0.572100  0.332200  1
  C  C956  1  0.729100  0.427900  0.832200  1
  C  C957  1  0.322100  0.979100  0.082200  1
  C  C958  1  0.177900  0.020900  0.582200  1
  C  C959  1  0.270900  0.072100  0.832200  1
  C  C960  1  0.229100  0.927900  0.332200  1
  C  C961  1  0.452700  0.264900  0.291700  1.0
  C  C962  1  0.047300  0.735100  0.791700  1.0
  C  C963  1  0.485100  0.702700  0.541700  1.0
  C  C964  1  0.014900  0.297300  0.041700  1.0
  C  C965  1  0.952700  0.764900  0.791700  1.0
  C  C966  1  0.547300  0.235100  0.291700  1.0
  C  C967  1  0.985100  0.202700  0.041700  1.0
  C  C968  1  0.514900  0.797300  0.541700  1.0
  C  C969  1  0.547300  0.735100  0.708300  1.0
  C  C970  1  0.952700  0.264900  0.208300  1.0
  C  C971  1  0.514900  0.297300  0.458300  1.0
  C  C972  1  0.985100  0.702700  0.958300  1.0
  C  C973  1  0.047300  0.235100  0.208300  1.0
  C  C974  1  0.452700  0.764900  0.708300  1.0
  C  C975  1  0.014900  0.797300  0.958300  1.0
  C  C976  1  0.485100  0.202700  0.458300  1.0
  C  C977  1  0.453400  0.304600  0.320000  1.0
  C  C978  1  0.046600  0.695400  0.820000  1.0
  C  C979  1  0.445400  0.703400  0.570000  1.0
  C  C980  1  0.054600  0.296600  0.070000  1.0
  C  C981  1  0.953400  0.804600  0.820000  1.0
  C  C982  1  0.546600  0.195400  0.320000  1.0
  C  C983  1  0.945400  0.203400  0.070000  1.0
  C  C984  1  0.554600  0.796600  0.570000  1.0
  C  C985  1  0.546600  0.695400  0.680000  1.0
  C  C986  1  0.953400  0.304600  0.180000  1.0
  C  C987  1  0.554600  0.296600  0.430000  1.0
  C  C988  1  0.945400  0.703400  0.930000  1.0
  C  C989  1  0.046600  0.195400  0.180000  1.0
  C  C990  1  0.453400  0.804600  0.680000  1.0
  C  C991  1  0.054600  0.796600  0.930000  1.0
  C  C992  1  0.445400  0.203400  0.430000  1.0
  C  C993  1  0.411800  0.320700  0.341900  1.0
  C  C994  1  0.088200  0.679300  0.841900  1.0
  C  C995  1  0.429300  0.661800  0.591900  1.0
  C  C996  1  0.070700  0.338200  0.091900  1.0
  C  C997  1  0.911800  0.820700  0.841900  1.0
  C  C998  1  0.588200  0.179300  0.341900  1.0
  C  C999  1  0.929300  0.161800  0.091900  1.0
  C  C1000  1  0.570700  0.838200  0.591900  1.0
  C  C1001  1  0.588200  0.679300  0.658100  1.0
  C  C1002  1  0.911800  0.320700  0.158100  1.0
  C  C1003  1  0.570700  0.338200  0.408100  1.0
  C  C1004  1  0.929300  0.661800  0.908100  1.0
  C  C1005  1  0.088200  0.179300  0.158100  1.0
  C  C1006  1  0.411800  0.820700  0.658100  1.0
  C  C1007  1  0.070700  0.838200  0.908100  1.0
  C  C1008  1  0.429300  0.161800  0.408100  1.0
  C  C1009  1  0.365300  0.295700  0.335000  1.0
  C  C1010  1  0.134700  0.704300  0.835000  1.0
  C  C1011  1  0.454300  0.615300  0.585000  1.0
  C  C1012  1  0.045700  0.384700  0.085000  1.0
  C  C1013  1  0.865300  0.795700  0.835000  1.0
  C  C1014  1  0.634700  0.204300  0.335000  1.0
  C  C1015  1  0.954300  0.115300  0.085000  1.0
  C  C1016  1  0.545700  0.884700  0.585000  1.0
  C  C1017  1  0.634700  0.704300  0.665000  1.0
  C  C1018  1  0.865300  0.295700  0.165000  1.0
  C  C1019  1  0.545700  0.384700  0.415000  1.0
  C  C1020  1  0.954300  0.615300  0.915000  1.0
  C  C1021  1  0.134700  0.204300  0.165000  1.0
  C  C1022  1  0.365300  0.795700  0.665000  1.0
  C  C1023  1  0.045700  0.884700  0.915000  1.0
  C  C1024  1  0.454300  0.115300  0.415000  1.0
  C  C1025  1  0.362700  0.255000  0.308000  1.0
  C  C1026  1  0.137300  0.745000  0.808000  1.0
  C  C1027  1  0.495000  0.612700  0.558000  1.0
  C  C1028  1  0.005000  0.387300  0.058000  1.0
  C  C1029  1  0.862700  0.755000  0.808000  1.0
  C  C1030  1  0.637300  0.245000  0.308000  1.0
  C  C1031  1  0.995000  0.112700  0.058000  1.0
  C  C1032  1  0.505000  0.887300  0.558000  1.0
  C  C1033  1  0.637300  0.745000  0.692000  1.0
  C  C1034  1  0.862700  0.255000  0.192000  1.0
  C  C1035  1  0.505000  0.387300  0.442000  1.0
  C  C1036  1  0.995000  0.612700  0.942000  1.0
  C  C1037  1  0.137300  0.245000  0.192000  1.0
  C  C1038  1  0.362700  0.755000  0.692000  1.0
  C  C1039  1  0.005000  0.887300  0.942000  1.0
  C  C1040  1  0.495000  0.112700  0.442000  1.0
  C  C1041  1  0.405900  0.240500  0.285800  1.0
  C  C1042  1  0.094100  0.759500  0.785800  1.0
  C  C1043  1  0.509500  0.655900  0.535800  1.0
  C  C1044  1  0.990500  0.344100  0.035800  1.0
  C  C1045  1  0.905900  0.740500  0.785800  1.0
  C  C1046  1  0.594100  0.259500  0.285800  1.0
  C  C1047  1  0.009500  0.155900  0.035800  1.0
  C  C1048  1  0.490500  0.844100  0.535800  1.0
  C  C1049  1  0.594100  0.759500  0.714200  1.0
  C  C1050  1  0.905900  0.240500  0.214200  1.0
  C  C1051  1  0.490500  0.344100  0.464200  1.0
  C  C1052  1  0.009500  0.655900  0.964200  1.0
  C  C1053  1  0.094100  0.259500  0.214200  1.0
  C  C1054  1  0.405900  0.740500  0.714200  1.0
  C  C1055  1  0.990500  0.844100  0.964200  1.0
  C  C1056  1  0.509500  0.155900  0.464200  1.0
  C  C1057  1  0.345900  0.480000  0.314900  1.0
  C  C1058  1  0.154100  0.520000  0.814900  1.0
  C  C1059  1  0.270000  0.595900  0.564900  1.0
  C  C1060  1  0.230000  0.404100  0.064900  1.0
  C  C1061  1  0.845900  0.980000  0.814900  1.0
  C  C1062  1  0.654100  0.020000  0.314900  1.0
  C  C1063  1  0.770000  0.095900  0.064900  1.0
  C  C1064  1  0.730000  0.904100  0.564900  1.0
  C  C1065  1  0.654100  0.520000  0.685100  1.0
  C  C1066  1  0.845900  0.480000  0.185100  1.0
  C  C1067  1  0.730000  0.404100  0.435100  1.0
  C  C1068  1  0.770000  0.595900  0.935100  1.0
  C  C1069  1  0.154100  0.020000  0.185100  1.0
  C  C1070  1  0.345900  0.980000  0.685100  1.0
  C  C1071  1  0.230000  0.904100  0.935100  1.0
  C  C1072  1  0.270000  0.095900  0.435100  1.0
  C  C1073  1  0.387900  0.459000  0.293800  1.0
  C  C1074  1  0.112100  0.541000  0.793800  1.0
  C  C1075  1  0.291000  0.637900  0.543800  1.0
  C  C1076  1  0.209000  0.362100  0.043800  1.0
  C  C1077  1  0.887900  0.959000  0.793800  1.0
  C  C1078  1  0.612100  0.041000  0.293800  1.0
  C  C1079  1  0.791000  0.137900  0.043800  1.0
  C  C1080  1  0.709000  0.862100  0.543800  1.0
  C  C1081  1  0.612100  0.541000  0.706200  1.0
  C  C1082  1  0.887900  0.459000  0.206200  1.0
  C  C1083  1  0.709000  0.362100  0.456200  1.0
  C  C1084  1  0.791000  0.637900  0.956200  1.0
  C  C1085  1  0.112100  0.041000  0.206200  1.0
  C  C1086  1  0.387900  0.959000  0.706200  1.0
  C  C1087  1  0.209000  0.862100  0.956200  1.0
  C  C1088  1  0.291000  0.137900  0.456200  1.0
  C  C1089  1  0.437400  0.468900  0.309800  1.0
  C  C1090  1  0.062600  0.531100  0.809800  1.0
  C  C1091  1  0.281100  0.687400  0.559800  1.0
  C  C1092  1  0.218900  0.312600  0.059800  1.0
  C  C1093  1  0.937400  0.968900  0.809800  1.0
  C  C1094  1  0.562600  0.031100  0.309800  1.0
  C  C1095  1  0.781100  0.187400  0.059800  1.0
  C  C1096  1  0.718900  0.812600  0.559800  1.0
  C  C1097  1  0.562600  0.531100  0.690200  1.0
  C  C1098  1  0.937400  0.468900  0.190200  1.0
  C  C1099  1  0.718900  0.312600  0.440200  1.0
  C  C1100  1  0.781100  0.687400  0.940200  1.0
  C  C1101  1  0.062600  0.031100  0.190200  1.0
  C  C1102  1  0.437400  0.968900  0.690200  1.0
  C  C1103  1  0.218900  0.812600  0.940200  1.0
  C  C1104  1  0.281100  0.187400  0.440200  1.0
  C  C1105  1  0.442000  0.498000  0.346000  1.0
  C  C1106  1  0.058000  0.502000  0.846000  1.0
  C  C1107  1  0.252000  0.692000  0.596000  1.0
  C  C1108  1  0.248000  0.308000  0.096000  1.0
  C  C1109  1  0.942000  0.998000  0.846000  1.0
  C  C1110  1  0.558000  0.002000  0.346000  1.0
  C  C1111  1  0.752000  0.192000  0.096000  1.0
  C  C1112  1  0.748000  0.808000  0.596000  1.0
  C  C1113  1  0.558000  0.502000  0.654000  1.0
  C  C1114  1  0.942000  0.498000  0.154000  1.0
  C  C1115  1  0.748000  0.308000  0.404000  1.0
  C  C1116  1  0.752000  0.692000  0.904000  1.0
  C  C1117  1  0.058000  0.002000  0.154000  1.0
  C  C1118  1  0.442000  0.998000  0.654000  1.0
  C  C1119  1  0.248000  0.808000  0.904000  1.0
  C  C1120  1  0.252000  0.192000  0.404000  1.0
  C  C1121  1  0.398500  0.518000  0.364900  1.0
  C  C1122  1  0.101500  0.482000  0.864900  1.0
  C  C1123  1  0.232000  0.648500  0.614900  1.0
  C  C1124  1  0.268000  0.351500  0.114900  1.0
  C  C1125  1  0.898500  0.018000  0.864900  1.0
  C  C1126  1  0.601500  0.982000  0.364900  1.0
  C  C1127  1  0.732000  0.148500  0.114900  1.0
  C  C1128  1  0.768000  0.851500  0.614900  1.0
  C  C1129  1  0.601500  0.482000  0.635100  1.0
  C  C1130  1  0.898500  0.518000  0.135100  1.0
  C  C1131  1  0.768000  0.351500  0.385100  1.0
  C  C1132  1  0.732000  0.648500  0.885100  1.0
  C  C1133  1  0.101500  0.982000  0.135100  1.0
  C  C1134  1  0.398500  0.018000  0.635100  1.0
  C  C1135  1  0.268000  0.851500  0.885100  1.0
  C  C1136  1  0.232000  0.148500  0.385100  1.0
  C  C1137  1  0.483700  0.448300  0.287900  1.0
  C  C1138  1  0.016300  0.551700  0.787900  1.0
  C  C1139  1  0.301700  0.733700  0.537900  1.0
  C  C1140  1  0.198300  0.266300  0.037900  1.0
  C  C1141  1  0.983700  0.948300  0.787900  1.0
  C  C1142  1  0.516300  0.051700  0.287900  1.0
  C  C1143  1  0.801700  0.233700  0.037900  1.0
  C  C1144  1  0.698300  0.766300  0.537900  1.0
  C  C1145  1  0.516300  0.551700  0.712100  1.0
  C  C1146  1  0.983700  0.448300  0.212100  1.0
  C  C1147  1  0.698300  0.266300  0.462100  1.0
  C  C1148  1  0.801700  0.733700  0.962100  1.0
  C  C1149  1  0.016300  0.051700  0.212100  1.0
  C  C1150  1  0.483700  0.948300  0.712100  1.0
  C  C1151  1  0.198300  0.766300  0.962100  1.0
  C  C1152  1  0.301700  0.233700  0.462100  1.0
  C  C1153  1  0.552800  0.316800  0.143800  1.0
  C  C1154  1  0.947200  0.683200  0.643800  1.0
  C  C1155  1  0.433200  0.802800  0.393800  1.0
  C  C1156  1  0.066800  0.197200  0.893800  1.0
  C  C1157  1  0.052800  0.816800  0.643800  1.0
  C  C1158  1  0.447200  0.183200  0.143800  1.0
  C  C1159  1  0.933200  0.302800  0.893800  1.0
  C  C1160  1  0.566800  0.697200  0.393800  1.0
  C  C1161  1  0.447200  0.683200  0.856200  1.0
  C  C1162  1  0.052800  0.316800  0.356200  1.0
  C  C1163  1  0.566800  0.197200  0.606200  1.0
  C  C1164  1  0.933200  0.802800  0.106200  1.0
  C  C1165  1  0.947200  0.183200  0.356200  1.0
  C  C1166  1  0.552800  0.816800  0.856200  1.0
  C  C1167  1  0.066800  0.697200  0.106200  1.0
  C  C1168  1  0.433200  0.302800  0.606200  1.0
  C  C1169  1  0.558800  0.350100  0.177600  1.0
  C  C1170  1  0.941200  0.649900  0.677600  1.0
  C  C1171  1  0.399900  0.808800  0.427600  1.0
  C  C1172  1  0.100100  0.191200  0.927600  1.0
  C  C1173  1  0.058800  0.850100  0.677600  1.0
  C  C1174  1  0.441200  0.149900  0.177600  1.0
  C  C1175  1  0.899900  0.308800  0.927600  1.0
  C  C1176  1  0.600100  0.691200  0.427600  1.0
  C  C1177  1  0.441200  0.649900  0.822400  1.0
  C  C1178  1  0.058800  0.350100  0.322400  1.0
  C  C1179  1  0.600100  0.191200  0.572400  1.0
  C  C1180  1  0.899900  0.808800  0.072400  1.0
  C  C1181  1  0.941200  0.149900  0.322400  1.0
  C  C1182  1  0.558800  0.850100  0.822400  1.0
  C  C1183  1  0.100100  0.691200  0.072400  1.0
  C  C1184  1  0.399900  0.308800  0.572400  1.0
  C  C1185  1  0.514600  0.368100  0.197900  1.0
  C  C1186  1  0.985400  0.631900  0.697900  1.0
  C  C1187  1  0.381900  0.764600  0.447900  1.0
  C  C1188  1  0.118100  0.235400  0.947900  1.0
  C  C1189  1  0.014600  0.868100  0.697900  1.0
  C  C1190  1  0.485400  0.131900  0.197900  1.0
  C  C1191  1  0.881900  0.264600  0.947900  1.0
  C  C1192  1  0.618100  0.735400  0.447900  1.0
  C  C1193  1  0.485400  0.631900  0.802100  1.0
  C  C1194  1  0.014600  0.368100  0.302100  1.0
  C  C1195  1  0.618100  0.235400  0.552100  1.0
  C  C1196  1  0.881900  0.764600  0.052100  1.0
  C  C1197  1  0.985400  0.131900  0.302100  1.0
  C  C1198  1  0.514600  0.868100  0.802100  1.0
  C  C1199  1  0.118100  0.735400  0.052100  1.0
  C  C1200  1  0.381900  0.264600  0.552100  1.0
  C  C1201  1  0.467000  0.352600  0.182800  1.0
  C  C1202  1  0.033000  0.647400  0.682800  1.0
  C  C1203  1  0.397400  0.717000  0.432800  1.0
  C  C1204  1  0.102600  0.283000  0.932800  1.0
  C  C1205  1  0.967000  0.852600  0.682800  1.0
  C  C1206  1  0.533000  0.147400  0.182800  1.0
  C  C1207  1  0.897400  0.217000  0.932800  1.0
  C  C1208  1  0.602600  0.783000  0.432800  1.0
  C  C1209  1  0.533000  0.647400  0.817200  1.0
  C  C1210  1  0.967000  0.352600  0.317200  1.0
  C  C1211  1  0.602600  0.283000  0.567200  1.0
  C  C1212  1  0.897400  0.717000  0.067200  1.0
  C  C1213  1  0.033000  0.147400  0.317200  1.0
  C  C1214  1  0.467000  0.852600  0.817200  1.0
  C  C1215  1  0.102600  0.783000  0.067200  1.0
  C  C1216  1  0.397400  0.217000  0.567200  1.0
  C  C1217  1  0.463900  0.321100  0.148400  1.0
  C  C1218  1  0.036100  0.678900  0.648400  1.0
  C  C1219  1  0.428900  0.713900  0.398400  1.0
  C  C1220  1  0.071100  0.286100  0.898400  1.0
  C  C1221  1  0.963900  0.821100  0.648400  1.0
  C  C1222  1  0.536100  0.178900  0.148400  1.0
  C  C1223  1  0.928900  0.213900  0.898400  1.0
  C  C1224  1  0.571100  0.786100  0.398400  1.0
  C  C1225  1  0.536100  0.678900  0.851600  1.0
  C  C1226  1  0.963900  0.321100  0.351600  1.0
  C  C1227  1  0.571100  0.286100  0.601600  1.0
  C  C1228  1  0.928900  0.713900  0.101600  1.0
  C  C1229  1  0.036100  0.178900  0.351600  1.0
  C  C1230  1  0.463900  0.821100  0.851600  1.0
  C  C1231  1  0.071100  0.786100  0.101600  1.0
  C  C1232  1  0.428900  0.213900  0.601600  1.0
  C  C1233  1  0.519400  0.401300  0.236100  1.0
  C  C1234  1  0.980600  0.598700  0.736100  1.0
  C  C1235  1  0.348700  0.769400  0.486100  1.0
  C  C1236  1  0.151300  0.230600  0.986100  1.0
  C  C1237  1  0.019400  0.901300  0.736100  1.0
  C  C1238  1  0.480600  0.098700  0.236100  1.0
  C  C1239  1  0.848700  0.269400  0.986100  1.0
  C  C1240  1  0.651300  0.730600  0.486100  1.0
  C  C1241  1  0.480600  0.598700  0.763900  1.0
  C  C1242  1  0.019400  0.401300  0.263900  1.0
  C  C1243  1  0.651300  0.230600  0.513900  1.0
  C  C1244  1  0.848700  0.769400  0.013900  1.0
  C  C1245  1  0.980600  0.098700  0.263900  1.0
  C  C1246  1  0.519400  0.901300  0.763900  1.0
  C  C1247  1  0.151300  0.730600  0.013900  1.0
  C  C1248  1  0.348700  0.269400  0.513900  1.0
  C  C1249  1  0.676900  0.486800  0.353700  1.0
  C  C1250  1  0.823100  0.513200  0.853700  1.0
  C  C1251  1  0.263200  0.926900  0.603700  1.0
  C  C1252  1  0.236800  0.073100  0.103700  1.0
  C  C1253  1  0.176900  0.986800  0.853700  1.0
  C  C1254  1  0.323100  0.013200  0.353700  1.0
  C  C1255  1  0.763200  0.426900  0.103700  1.0
  C  C1256  1  0.736800  0.573100  0.603700  1.0
  C  C1257  1  0.323100  0.513200  0.646300  1.0
  C  C1258  1  0.176900  0.486800  0.146300  1.0
  C  C1259  1  0.736800  0.073100  0.396300  1.0
  C  C1260  1  0.763200  0.926900  0.896300  1.0
  C  C1261  1  0.823100  0.013200  0.146300  1.0
  C  C1262  1  0.676900  0.986800  0.646300  1.0
  C  C1263  1  0.236800  0.573100  0.896300  1.0
  C  C1264  1  0.263200  0.426900  0.396300  1.0
  C  C1265  1  0.628300  0.482000  0.336300  1.0
  C  C1266  1  0.871700  0.518000  0.836300  1.0
  C  C1267  1  0.268000  0.878300  0.586300  1.0
  C  C1268  1  0.232000  0.121700  0.086300  1.0
  C  C1269  1  0.128300  0.982000  0.836300  1.0
  C  C1270  1  0.371700  0.018000  0.336300  1.0
  C  C1271  1  0.768000  0.378300  0.086300  1.0
  C  C1272  1  0.732000  0.621700  0.586300  1.0
  C  C1273  1  0.371700  0.518000  0.663700  1.0
  C  C1274  1  0.128300  0.482000  0.163700  1.0
  C  C1275  1  0.732000  0.121700  0.413700  1.0
  C  C1276  1  0.768000  0.878300  0.913700  1.0
  C  C1277  1  0.871700  0.018000  0.163700  1.0
  C  C1278  1  0.628300  0.982000  0.663700  1.0
  C  C1279  1  0.232000  0.621700  0.913700  1.0
  C  C1280  1  0.268000  0.378300  0.413700  1.0
  C  C1281  1  0.621100  0.449100  0.302400  1.0
  C  C1282  1  0.878900  0.550900  0.802400  1.0
  C  C1283  1  0.300900  0.871100  0.552400  1.0
  C  C1284  1  0.199100  0.128900  0.052400  1.0
  C  C1285  1  0.121100  0.949100  0.802400  1.0
  C  C1286  1  0.378900  0.050900  0.302400  1.0
  C  C1287  1  0.800900  0.371100  0.052400  1.0
  C  C1288  1  0.699100  0.628900  0.552400  1.0
  C  C1289  1  0.378900  0.550900  0.697600  1.0
  C  C1290  1  0.121100  0.449100  0.197600  1.0
  C  C1291  1  0.699100  0.128900  0.447600  1.0
  C  C1292  1  0.800900  0.871100  0.947600  1.0
  C  C1293  1  0.878900  0.050900  0.197600  1.0
  C  C1294  1  0.621100  0.949100  0.697600  1.0
  C  C1295  1  0.199100  0.628900  0.947600  1.0
  C  C1296  1  0.300900  0.371100  0.447600  1.0
  C  C1297  1  0.664200  0.423400  0.286400  1.0
  C  C1298  1  0.835800  0.576600  0.786400  1.0
  C  C1299  1  0.326600  0.914200  0.536400  1.0
  C  C1300  1  0.173400  0.085800  0.036400  1.0
  C  C1301  1  0.164200  0.923400  0.786400  1.0
  C  C1302  1  0.335800  0.076600  0.286400  1.0
  C  C1303  1  0.826600  0.414200  0.036400  1.0
  C  C1304  1  0.673400  0.585800  0.536400  1.0
  C  C1305  1  0.335800  0.576600  0.713600  1.0
  C  C1306  1  0.164200  0.423400  0.213600  1.0
  C  C1307  1  0.673400  0.085800  0.463600  1.0
  C  C1308  1  0.826600  0.914200  0.963600  1.0
  C  C1309  1  0.835800  0.076600  0.213600  1.0
  C  C1310  1  0.664200  0.923400  0.713600  1.0
  C  C1311  1  0.173400  0.585800  0.963600  1.0
  C  C1312  1  0.326600  0.414200  0.463600  1.0
  C  C1313  1  0.711600  0.431300  0.304900  1.0
  C  C1314  1  0.788400  0.568700  0.804900  1.0
  C  C1315  1  0.318700  0.961600  0.554900  1.0
  C  C1316  1  0.181300  0.038400  0.054900  1.0
  C  C1317  1  0.211600  0.931300  0.804900  1.0
  C  C1318  1  0.288400  0.068700  0.304900  1.0
  C  C1319  1  0.818700  0.461600  0.054900  1.0
  C  C1320  1  0.681300  0.538400  0.554900  1.0
  C  C1321  1  0.288400  0.568700  0.695100  1.0
  C  C1322  1  0.211600  0.431300  0.195100  1.0
  C  C1323  1  0.681300  0.038400  0.445100  1.0
  C  C1324  1  0.818700  0.961600  0.945100  1.0
  C  C1325  1  0.788400  0.068700  0.195100  1.0
  C  C1326  1  0.711600  0.931300  0.695100  1.0
  C  C1327  1  0.181300  0.538400  0.945100  1.0
  C  C1328  1  0.318700  0.461600  0.445100  1.0
  C  C1329  1  0.569500  0.439800  0.284500  1.0
  C  C1330  1  0.930500  0.560200  0.784500  1.0
  C  C1331  1  0.310200  0.819500  0.534500  1.0
  C  C1332  1  0.189800  0.180500  0.034500  1.0
  C  C1333  1  0.069500  0.939800  0.784500  1.0
  C  C1334  1  0.430500  0.060200  0.284500  1.0
  C  C1335  1  0.810200  0.319500  0.034500  1.0
  C  C1336  1  0.689800  0.680500  0.534500  1.0
  C  C1337  1  0.430500  0.560200  0.715500  1.0
  C  C1338  1  0.069500  0.439800  0.215500  1.0
  C  C1339  1  0.689800  0.180500  0.465500  1.0
  C  C1340  1  0.810200  0.819500  0.965500  1.0
  C  C1341  1  0.930500  0.060200  0.215500  1.0
  C  C1342  1  0.569500  0.939800  0.715500  1.0
  C  C1343  1  0.189800  0.680500  0.965500  1.0
  C  C1344  1  0.310200  0.319500  0.465500  1.0
  C  C1345  1  0.334700  0.634500  0.356500  1.0
  C  C1346  1  0.165300  0.365500  0.856500  1.0
  C  C1347  1  0.115500  0.584700  0.606500  1.0
  C  C1348  1  0.384500  0.415300  0.106500  1.0
  C  C1349  1  0.834700  0.134500  0.856500  1.0
  C  C1350  1  0.665300  0.865500  0.356500  1.0
  C  C1351  1  0.615500  0.084700  0.106500  1.0
  C  C1352  1  0.884500  0.915300  0.606500  1.0
  C  C1353  1  0.665300  0.365500  0.643500  1.0
  C  C1354  1  0.834700  0.634500  0.143500  1.0
  C  C1355  1  0.884500  0.415300  0.393500  1.0
  C  C1356  1  0.615500  0.584700  0.893500  1.0
  C  C1357  1  0.165300  0.865500  0.143500  1.0
  C  C1358  1  0.334700  0.134500  0.643500  1.0
  C  C1359  1  0.384500  0.915300  0.893500  1.0
  C  C1360  1  0.115500  0.084700  0.393500  1.0
  C  C1361  1  0.295600  0.601500  0.301600  1.0
  C  C1362  1  0.204400  0.398500  0.801600  1.0
  C  C1363  1  0.148500  0.545600  0.551600  1.0
  C  C1364  1  0.351500  0.454400  0.051600  1.0
  C  C1365  1  0.795600  0.101500  0.801600  1.0
  C  C1366  1  0.704400  0.898500  0.301600  1.0
  C  C1367  1  0.648500  0.045600  0.051600  1.0
  C  C1368  1  0.851500  0.954400  0.551600  1.0
  C  C1369  1  0.704400  0.398500  0.698400  1.0
  C  C1370  1  0.795600  0.601500  0.198400  1.0
  C  C1371  1  0.851500  0.454400  0.448400  1.0
  C  C1372  1  0.648500  0.545600  0.948400  1.0
  C  C1373  1  0.204400  0.898500  0.198400  1.0
  C  C1374  1  0.295600  0.101500  0.698400  1.0
  C  C1375  1  0.351500  0.954400  0.948400  1.0
  C  C1376  1  0.148500  0.045600  0.448400  1.0
  C  C1377  1  0.237700  0.629000  0.354800  1.0
  C  C1378  1  0.262300  0.371000  0.854800  1.0
  C  C1379  1  0.121000  0.487700  0.604800  1.0
  C  C1380  1  0.379000  0.512300  0.104800  1.0
  C  C1381  1  0.737700  0.129000  0.854800  1.0
  C  C1382  1  0.762300  0.871000  0.354800  1.0
  C  C1383  1  0.621000  0.987700  0.104800  1.0
  C  C1384  1  0.879000  0.012300  0.604800  1.0
  C  C1385  1  0.762300  0.371000  0.645200  1.0
  C  C1386  1  0.737700  0.629000  0.145200  1.0
  C  C1387  1  0.879000  0.512300  0.395200  1.0
  C  C1388  1  0.621000  0.487700  0.895200  1.0
  C  C1389  1  0.262300  0.871000  0.145200  1.0
  C  C1390  1  0.237700  0.129000  0.645200  1.0
  C  C1391  1  0.379000  0.012300  0.895200  1.0
  C  C1392  1  0.121000  0.987700  0.395200  1.0
  C  C1393  1  0.224900  0.622000  0.399700  1.0
  C  C1394  1  0.275100  0.378000  0.899700  1.0
  C  C1395  1  0.128000  0.474900  0.649700  1.0
  C  C1396  1  0.372000  0.525100  0.149700  1.0
  C  C1397  1  0.724900  0.122000  0.899700  1.0
  C  C1398  1  0.775100  0.878000  0.399700  1.0
  C  C1399  1  0.628000  0.974900  0.149700  1.0
  C  C1400  1  0.872000  0.025100  0.649700  1.0
  C  C1401  1  0.775100  0.378000  0.600300  1.0
  C  C1402  1  0.724900  0.622000  0.100300  1.0
  C  C1403  1  0.872000  0.525100  0.350300  1.0
  C  C1404  1  0.628000  0.474900  0.850300  1.0
  C  C1405  1  0.275100  0.878000  0.100300  1.0
  C  C1406  1  0.224900  0.122000  0.600300  1.0
  C  C1407  1  0.372000  0.025100  0.850300  1.0
  C  C1408  1  0.128000  0.974900  0.350300  1.0
  C  C1409  1  0.229900  0.557900  0.457900  1.0
  C  C1410  1  0.270100  0.442100  0.957900  1.0
  C  C1411  1  0.192100  0.479900  0.707900  1.0
  C  C1412  1  0.307900  0.520100  0.207900  1.0
  C  C1413  1  0.729900  0.057900  0.957900  1.0
  C  C1414  1  0.770100  0.942100  0.457900  1.0
  C  C1415  1  0.692100  0.979900  0.207900  1.0
  C  C1416  1  0.807900  0.020100  0.707900  1.0
  C  C1417  1  0.770100  0.442100  0.542100  1.0
  C  C1418  1  0.729900  0.557900  0.042100  1.0
  C  C1419  1  0.807900  0.520100  0.292100  1.0
  C  C1420  1  0.692100  0.479900  0.792100  1.0
  C  C1421  1  0.270100  0.942100  0.042100  1.0
  C  C1422  1  0.229900  0.057900  0.542100  1.0
  C  C1423  1  0.307900  0.020100  0.792100  1.0
  C  C1424  1  0.192100  0.979900  0.292100  1.0
  C  C1425  1  0.177600  0.539000  0.396000  1.0
  C  C1426  1  0.322400  0.461000  0.896000  1.0
  C  C1427  1  0.211000  0.427600  0.646000  1.0
  C  C1428  1  0.289000  0.572400  0.146000  1.0
  C  C1429  1  0.677600  0.039000  0.896000  1.0
  C  C1430  1  0.822400  0.961000  0.396000  1.0
  C  C1431  1  0.711000  0.927600  0.146000  1.0
  C  C1432  1  0.789000  0.072400  0.646000  1.0
  C  C1433  1  0.822400  0.461000  0.604000  1.0
  C  C1434  1  0.677600  0.539000  0.104000  1.0
  C  C1435  1  0.789000  0.572400  0.354000  1.0
  C  C1436  1  0.711000  0.427600  0.854000  1.0
  C  C1437  1  0.322400  0.961000  0.104000  1.0
  C  C1438  1  0.177600  0.039000  0.604000  1.0
  C  C1439  1  0.289000  0.072400  0.854000  1.0
  C  C1440  1  0.211000  0.927600  0.354000  1.0
  C  C1441  1  0.477000  0.350400  0.040600  1.0
  C  C1442  1  0.023000  0.649600  0.540600  1.0
  C  C1443  1  0.399600  0.727000  0.290600  1.0
  C  C1444  1  0.100400  0.273000  0.790600  1.0
  C  C1445  1  0.977000  0.850400  0.540600  1.0
  C  C1446  1  0.523000  0.149600  0.040600  1.0
  C  C1447  1  0.899600  0.227000  0.790600  1.0
  C  C1448  1  0.600400  0.773000  0.290600  1.0
  C  C1449  1  0.523000  0.649600  0.959400  1.0
  C  C1450  1  0.977000  0.350400  0.459400  1.0
  C  C1451  1  0.600400  0.273000  0.709400  1.0
  C  C1452  1  0.899600  0.727000  0.209400  1.0
  C  C1453  1  0.023000  0.149600  0.459400  1.0
  C  C1454  1  0.477000  0.850400  0.959400  1.0
  C  C1455  1  0.100400  0.773000  0.209400  1.0
  C  C1456  1  0.399600  0.227000  0.709400  1.0
  C  C1457  1  0.562700  0.318000  0.029600  1.0
  C  C1458  1  0.937300  0.682000  0.529600  1.0
  C  C1459  1  0.432000  0.812700  0.279600  1.0
  C  C1460  1  0.068000  0.187300  0.779600  1.0
  C  C1461  1  0.062700  0.818000  0.529600  1.0
  C  C1462  1  0.437300  0.182000  0.029600  1.0
  C  C1463  1  0.932000  0.312700  0.779600  1.0
  C  C1464  1  0.568000  0.687300  0.279600  1.0
  C  C1465  1  0.437300  0.682000  0.970400  1.0
  C  C1466  1  0.062700  0.318000  0.470400  1.0
  C  C1467  1  0.568000  0.187300  0.720400  1.0
  C  C1468  1  0.932000  0.812700  0.220400  1.0
  C  C1469  1  0.937300  0.182000  0.470400  1.0
  C  C1470  1  0.562700  0.818000  0.970400  1.0
  C  C1471  1  0.068000  0.687300  0.220400  1.0
  C  C1472  1  0.432000  0.312700  0.720400  1.0
  C  C1473  1  0.490900  0.277700  0.994600  1.0
  C  C1474  1  0.009100  0.722300  0.494600  1.0
  C  C1475  1  0.472300  0.740900  0.244600  1.0
  C  C1476  1  0.027700  0.259100  0.744600  1.0
  C  C1477  1  0.990900  0.777700  0.494600  1.0
  C  C1478  1  0.509100  0.222300  0.994600  1.0
  C  C1479  1  0.972300  0.240900  0.744600  1.0
  C  C1480  1  0.527700  0.759100  0.244600  1.0
  C  C1481  1  0.509100  0.722300  0.005400  1.0
  C  C1482  1  0.990900  0.277700  0.505400  1.0
  C  C1483  1  0.527700  0.259100  0.755400  1.0
  C  C1484  1  0.972300  0.740900  0.255400  1.0
  C  C1485  1  0.009100  0.222300  0.505400  1.0
  C  C1486  1  0.490900  0.777700  0.005400  1.0
  C  C1487  1  0.027700  0.759100  0.255400  1.0
  C  C1488  1  0.472300  0.240900  0.755400  1.0
  N  N1489  1  0.325300  0.358400  0.230800  1
  N  N1490  1  0.174700  0.641600  0.730800  1
  N  N1491  1  0.391600  0.575300  0.480800  1
  N  N1492  1  0.108400  0.424700  0.980800  1
  N  N1493  1  0.825300  0.858400  0.730800  1
  N  N1494  1  0.674700  0.141600  0.230800  1
  N  N1495  1  0.891600  0.075300  0.980800  1
  N  N1496  1  0.608400  0.924700  0.480800  1
  N  N1497  1  0.674700  0.641600  0.769200  1
  N  N1498  1  0.825300  0.358400  0.269200  1
  N  N1499  1  0.608400  0.424700  0.519200  1
  N  N1500  1  0.891600  0.575300  0.019200  1
  N  N1501  1  0.174700  0.141600  0.269200  1
  N  N1502  1  0.325300  0.858400  0.769200  1
  N  N1503  1  0.108400  0.924700  0.019200  1
  N  N1504  1  0.391600  0.075300  0.519200  1
  N  N1505  1  0.673900  0.479500  0.194600  1
  N  N1506  1  0.826100  0.520500  0.694600  1
  N  N1507  1  0.270500  0.923900  0.444600  1
  N  N1508  1  0.229500  0.076100  0.944600  1
  N  N1509  1  0.173900  0.979500  0.694600  1
  N  N1510  1  0.326100  0.020500  0.194600  1
  N  N1511  1  0.770500  0.423900  0.944600  1
  N  N1512  1  0.729500  0.576100  0.444600  1
  N  N1513  1  0.326100  0.520500  0.805400  1
  N  N1514  1  0.173900  0.479500  0.305400  1
  N  N1515  1  0.729500  0.076100  0.555400  1
  N  N1516  1  0.770500  0.923900  0.055400  1
  N  N1517  1  0.826100  0.020500  0.305400  1
  N  N1518  1  0.673900  0.979500  0.805400  1
  N  N1519  1  0.229500  0.576100  0.055400  1
  N  N1520  1  0.270500  0.423900  0.555400  1
  N  N1521  1  0.457300  0.579000  0.242900  1
  N  N1522  1  0.042700  0.421000  0.742900  1
  N  N1523  1  0.171000  0.707300  0.492900  1
  N  N1524  1  0.329000  0.292700  0.992900  1
  N  N1525  1  0.957300  0.079000  0.742900  1
  N  N1526  1  0.542700  0.921000  0.242900  1
  N  N1527  1  0.671000  0.207300  0.992900  1
  N  N1528  1  0.829000  0.792700  0.492900  1
  N  N1529  1  0.542700  0.421000  0.757100  1
  N  N1530  1  0.957300  0.579000  0.257100  1
  N  N1531  1  0.829000  0.292700  0.507100  1
  N  N1532  1  0.671000  0.707300  0.007100  1
  N  N1533  1  0.042700  0.921000  0.257100  1
  N  N1534  1  0.457300  0.079000  0.757100  1
  N  N1535  1  0.329000  0.792700  0.007100  1
  N  N1536  1  0.171000  0.207300  0.507100  1
  N  N1537  1  0.524700  0.468500  0.138700  1
  N  N1538  1  0.975300  0.531500  0.638700  1
  N  N1539  1  0.281500  0.774700  0.388700  1
  N  N1540  1  0.218500  0.225300  0.888700  1
  N  N1541  1  0.024700  0.968500  0.638700  1
  N  N1542  1  0.475300  0.031500  0.138700  1
  N  N1543  1  0.781500  0.274700  0.888700  1
  N  N1544  1  0.718500  0.725300  0.388700  1
  N  N1545  1  0.475300  0.531500  0.861300  1
  N  N1546  1  0.024700  0.468500  0.361300  1
  N  N1547  1  0.718500  0.225300  0.611300  1
  N  N1548  1  0.781500  0.774700  0.111300  1
  N  N1549  1  0.975300  0.031500  0.361300  1
  N  N1550  1  0.524700  0.968500  0.861300  1
  N  N1551  1  0.218500  0.725300  0.111300  1
  N  N1552  1  0.281500  0.274700  0.611300  1
  N  N1553  1  0.350800  0.509500  0.349010  1.0
  N  N1554  1  0.149200  0.490500  0.849010  1.0
  N  N1555  1  0.240500  0.600800  0.599010  1.0
  N  N1556  1  0.259500  0.399200  0.099010  1.0
  N  N1557  1  0.850800  0.009500  0.849010  1.0
  N  N1558  1  0.649200  0.990500  0.349010  1.0
  N  N1559  1  0.740500  0.100800  0.099010  1.0
  N  N1560  1  0.759500  0.899200  0.599010  1.0
  N  N1561  1  0.649200  0.490500  0.650990  1.0
  N  N1562  1  0.850800  0.509500  0.150990  1.0
  N  N1563  1  0.759500  0.399200  0.400990  1.0
  N  N1564  1  0.740500  0.600800  0.900990  1.0
  N  N1565  1  0.149200  0.990500  0.150990  1.0
  N  N1566  1  0.350800  0.009500  0.650990  1.0
  N  N1567  1  0.259500  0.899200  0.900990  1.0
  N  N1568  1  0.240500  0.100800  0.400990  1.0
  N  N1569  1  0.506900  0.302800  0.128820  1.0
  N  N1570  1  0.993100  0.697200  0.628820  1.0
  N  N1571  1  0.447200  0.756900  0.378820  1.0
  N  N1572  1  0.052800  0.243100  0.878820  1.0
  N  N1573  1  0.006900  0.802800  0.628820  1.0
  N  N1574  1  0.493100  0.197200  0.128820  1.0
  N  N1575  1  0.947200  0.256900  0.878820  1.0
  N  N1576  1  0.552800  0.743100  0.378820  1.0
  N  N1577  1  0.493100  0.697200  0.871180  1.0
  N  N1578  1  0.006900  0.302800  0.371180  1.0
  N  N1579  1  0.552800  0.243100  0.621180  1.0
  N  N1580  1  0.947200  0.756900  0.121180  1.0
  N  N1581  1  0.993100  0.197200  0.371180  1.0
  N  N1582  1  0.506900  0.802800  0.871180  1.0
  N  N1583  1  0.052800  0.743100  0.121180  1.0
  N  N1584  1  0.447200  0.256900  0.621180  1.0
  N  N1585  1  0.717600  0.461600  0.338630  1.0
  N  N1586  1  0.782400  0.538400  0.838630  1.0
  N  N1587  1  0.288400  0.967600  0.588630  1.0
  N  N1588  1  0.211600  0.032400  0.088630  1.0
  N  N1589  1  0.217600  0.961600  0.838630  1.0
  N  N1590  1  0.282400  0.038400  0.338630  1.0
  N  N1591  1  0.788400  0.467600  0.088630  1.0
  N  N1592  1  0.711600  0.532400  0.588630  1.0
  N  N1593  1  0.282400  0.538400  0.661370  1.0
  N  N1594  1  0.217600  0.461600  0.161370  1.0
  N  N1595  1  0.711600  0.032400  0.411370  1.0
  N  N1596  1  0.788400  0.967600  0.911370  1.0
  N  N1597  1  0.782400  0.038400  0.161370  1.0
  N  N1598  1  0.717600  0.961600  0.661370  1.0
  N  N1599  1  0.211600  0.532400  0.911370  1.0
  N  N1600  1  0.288400  0.467600  0.411370  1.0
  N  N1601  1  0.476100  0.418400  0.253570  1.0
  N  N1602  1  0.023900  0.581600  0.753570  1.0
  N  N1603  1  0.331600  0.726100  0.503570  1.0
  N  N1604  1  0.168400  0.273900  0.003570  1.0
  N  N1605  1  0.976100  0.918400  0.753570  1.0
  N  N1606  1  0.523900  0.081600  0.253570  1.0
  N  N1607  1  0.831600  0.226100  0.003570  1.0
  N  N1608  1  0.668400  0.773900  0.503570  1.0
  N  N1609  1  0.523900  0.581600  0.746430  1.0
  N  N1610  1  0.976100  0.418400  0.246430  1.0
  N  N1611  1  0.668400  0.273900  0.496430  1.0
  N  N1612  1  0.831600  0.726100  0.996430  1.0
  N  N1613  1  0.023900  0.081600  0.246430  1.0
  N  N1614  1  0.476100  0.918400  0.746430  1.0
  N  N1615  1  0.168400  0.773900  0.996430  1.0
  N  N1616  1  0.331600  0.226100  0.496430  1.0
  N  N1617  1  0.566700  0.410500  0.249800  1.0
  N  N1618  1  0.933300  0.589500  0.749800  1.0
  N  N1619  1  0.339500  0.816700  0.499800  1.0
  N  N1620  1  0.160500  0.183300  0.999800  1.0
  N  N1621  1  0.066700  0.910500  0.749800  1.0
  N  N1622  1  0.433300  0.089500  0.249800  1.0
  N  N1623  1  0.839500  0.316700  0.999800  1.0
  N  N1624  1  0.660500  0.683300  0.499800  1.0
  N  N1625  1  0.433300  0.589500  0.750200  1.0
  N  N1626  1  0.066700  0.410500  0.250200  1.0
  N  N1627  1  0.660500  0.183300  0.500200  1.0
  N  N1628  1  0.839500  0.816700  0.000200  1.0
  N  N1629  1  0.933300  0.089500  0.250200  1.0
  N  N1630  1  0.566700  0.910500  0.750200  1.0
  N  N1631  1  0.160500  0.683300  0.000200  1.0
  N  N1632  1  0.339500  0.316700  0.500200  1.0
  N  N1633  1  0.529200  0.460000  0.304510  1.0
  N  N1634  1  0.970800  0.540000  0.804510  1.0
  N  N1635  1  0.290000  0.779200  0.554510  1.0
  N  N1636  1  0.210000  0.220800  0.054510  1.0
  N  N1637  1  0.029200  0.960000  0.804510  1.0
  N  N1638  1  0.470800  0.040000  0.304510  1.0
  N  N1639  1  0.790000  0.279200  0.054510  1.0
  N  N1640  1  0.710000  0.720800  0.554510  1.0
  N  N1641  1  0.470800  0.540000  0.695490  1.0
  N  N1642  1  0.029200  0.460000  0.195490  1.0
  N  N1643  1  0.710000  0.220800  0.445490  1.0
  N  N1644  1  0.790000  0.779200  0.945490  1.0
  N  N1645  1  0.970800  0.040000  0.195490  1.0
  N  N1646  1  0.529200  0.960000  0.695490  1.0
  N  N1647  1  0.210000  0.720800  0.945490  1.0
  N  N1648  1  0.290000  0.279200  0.445490  1.0
  N  N1649  1  0.508600  0.303000  0.033750  1.0
  N  N1650  1  0.991400  0.697000  0.533750  1.0
  N  N1651  1  0.447000  0.758600  0.283750  1.0
  N  N1652  1  0.053000  0.241400  0.783750  1.0
  N  N1653  1  0.008600  0.803000  0.533750  1.0
  N  N1654  1  0.491400  0.197000  0.033750  1.0
  N  N1655  1  0.947000  0.258600  0.783750  1.0
  N  N1656  1  0.553000  0.741400  0.283750  1.0
  N  N1657  1  0.491400  0.697000  0.966250  1.0
  N  N1658  1  0.008600  0.303000  0.466250  1.0
  N  N1659  1  0.553000  0.241400  0.716250  1.0
  N  N1660  1  0.947000  0.758600  0.216250  1.0
  N  N1661  1  0.991400  0.197000  0.466250  1.0
  N  N1662  1  0.508600  0.803000  0.966250  1.0
  N  N1663  1  0.053000  0.741400  0.216250  1.0
  N  N1664  1  0.447000  0.258600  0.716250  1.0
  N  N1665  1  0.287800  0.606200  0.349650  1.0
  N  N1666  1  0.212200  0.393800  0.849650  1.0
  N  N1667  1  0.143800  0.537800  0.599650  1.0
  N  N1668  1  0.356200  0.462200  0.099650  1.0
  N  N1669  1  0.787800  0.106200  0.849650  1.0
  N  N1670  1  0.712200  0.893800  0.349650  1.0
  N  N1671  1  0.643800  0.037800  0.099650  1.0
  N  N1672  1  0.856200  0.962200  0.599650  1.0
  N  N1673  1  0.712200  0.393800  0.650350  1.0
  N  N1674  1  0.787800  0.606200  0.150350  1.0
  N  N1675  1  0.856200  0.462200  0.400350  1.0
  N  N1676  1  0.643800  0.537800  0.900350  1.0
  N  N1677  1  0.212200  0.893800  0.150350  1.0
  N  N1678  1  0.287800  0.106200  0.650350  1.0
  N  N1679  1  0.356200  0.962200  0.900350  1.0
  N  N1680  1  0.143800  0.037800  0.400350  1.0
  N  N1681  1  0.224600  0.563600  0.412100  1.0
  N  N1682  1  0.275400  0.436400  0.912100  1.0
  N  N1683  1  0.186400  0.474600  0.662100  1.0
  N  N1684  1  0.313600  0.525400  0.162100  1.0
  N  N1685  1  0.724600  0.063600  0.912100  1.0
  N  N1686  1  0.775400  0.936400  0.412100  1.0
  N  N1687  1  0.686400  0.974600  0.162100  1.0
  N  N1688  1  0.813600  0.025400  0.662100  1.0
  N  N1689  1  0.775400  0.436400  0.587900  1.0
  N  N1690  1  0.724600  0.563600  0.087900  1.0
  N  N1691  1  0.813600  0.525400  0.337900  1.0
  N  N1692  1  0.686400  0.474600  0.837900  1.0
  N  N1693  1  0.275400  0.936400  0.087900  1.0
  N  N1694  1  0.224600  0.063600  0.587900  1.0
  N  N1695  1  0.313600  0.025400  0.837900  1.0
  N  N1696  1  0.186400  0.974600  0.337900  1.0
  O  O1697  1  0.500000  0.250000  0.229200  1
  O  O1698  1  0.000000  0.750000  0.729200  1
  O  O1699  1  0.500000  0.750000  0.479200  1
  O  O1700  1  0.000000  0.250000  0.979200  1
  O  O1701  1  0.500000  0.750000  0.770800  1
  O  O1702  1  0.000000  0.250000  0.270800  1
  O  O1703  1  0.500000  0.250000  0.520800  1
  O  O1704  1  0.000000  0.750000  0.020800  1
  O  O1705  1  0.336700  0.384400  0.203700  1
  O  O1706  1  0.163300  0.615600  0.703700  1
  O  O1707  1  0.365600  0.586700  0.453700  1
  O  O1708  1  0.134400  0.413300  0.953700  1
  O  O1709  1  0.836700  0.884400  0.703700  1
  O  O1710  1  0.663300  0.115600  0.203700  1
  O  O1711  1  0.865600  0.086700  0.953700  1
  O  O1712  1  0.634400  0.913300  0.453700  1
  O  O1713  1  0.663300  0.615600  0.796300  1
  O  O1714  1  0.836700  0.384400  0.296300  1
  O  O1715  1  0.634400  0.413300  0.546300  1
  O  O1716  1  0.865600  0.586700  0.046300  1
  O  O1717  1  0.163300  0.115600  0.296300  1
  O  O1718  1  0.336700  0.884400  0.796300  1
  O  O1719  1  0.134400  0.913300  0.046300  1
  O  O1720  1  0.365600  0.086700  0.546300  1
  O  O1721  1  0.304800  0.376500  0.263300  1
  O  O1722  1  0.195200  0.623500  0.763300  1
  O  O1723  1  0.373500  0.554800  0.513300  1
  O  O1724  1  0.126500  0.445200  0.013300  1
  O  O1725  1  0.804800  0.876500  0.763300  1
  O  O1726  1  0.695200  0.123500  0.263300  1
  O  O1727  1  0.873500  0.054800  0.013300  1
  O  O1728  1  0.626500  0.945200  0.513300  1
  O  O1729  1  0.695200  0.623500  0.736700  1
  O  O1730  1  0.804800  0.376500  0.236700  1
  O  O1731  1  0.626500  0.445200  0.486700  1
  O  O1732  1  0.873500  0.554800  0.986700  1
  O  O1733  1  0.195200  0.123500  0.236700  1
  O  O1734  1  0.304800  0.876500  0.736700  1
  O  O1735  1  0.126500  0.945200  0.986700  1
  O  O1736  1  0.373500  0.054800  0.486700  1
  O  O1737  1  0.335700  0.313900  0.229300  1
  O  O1738  1  0.164300  0.686100  0.729300  1
  O  O1739  1  0.436100  0.585700  0.479300  1
  O  O1740  1  0.063900  0.414300  0.979300  1
  O  O1741  1  0.835700  0.813900  0.729300  1
  O  O1742  1  0.664300  0.186100  0.229300  1
  O  O1743  1  0.936100  0.085700  0.979300  1
  O  O1744  1  0.563900  0.914300  0.479300  1
  O  O1745  1  0.664300  0.686100  0.770700  1
  O  O1746  1  0.835700  0.313900  0.270700  1
  O  O1747  1  0.563900  0.414300  0.520700  1
  O  O1748  1  0.936100  0.585700  0.020700  1
  O  O1749  1  0.164300  0.186100  0.270700  1
  O  O1750  1  0.335700  0.813900  0.770700  1
  O  O1751  1  0.063900  0.914300  0.020700  1
  O  O1752  1  0.436100  0.085700  0.520700  1
  O  O1753  1  0.642100  0.513000  0.207700  1
  O  O1754  1  0.857900  0.487000  0.707700  1
  O  O1755  1  0.237000  0.892100  0.457700  1
  O  O1756  1  0.263000  0.107900  0.957700  1
  O  O1757  1  0.142100  0.013000  0.707700  1
  O  O1758  1  0.357900  0.987000  0.207700  1
  O  O1759  1  0.737000  0.392100  0.957700  1
  O  O1760  1  0.763000  0.607900  0.457700  1
  O  O1761  1  0.357900  0.487000  0.792300  1
  O  O1762  1  0.142100  0.513000  0.292300  1
  O  O1763  1  0.763000  0.107900  0.542300  1
  O  O1764  1  0.737000  0.892100  0.042300  1
  O  O1765  1  0.857900  0.987000  0.292300  1
  O  O1766  1  0.642100  0.013000  0.792300  1
  O  O1767  1  0.263000  0.607900  0.042300  1
  O  O1768  1  0.237000  0.392100  0.542300  1
  O  O1769  1  0.659800  0.441200  0.175200  1
  O  O1770  1  0.840200  0.558800  0.675200  1
  O  O1771  1  0.308800  0.909800  0.425200  1
  O  O1772  1  0.191200  0.090200  0.925200  1
  O  O1773  1  0.159800  0.941200  0.675200  1
  O  O1774  1  0.340200  0.058800  0.175200  1
  O  O1775  1  0.808800  0.409800  0.925200  1
  O  O1776  1  0.691200  0.590200  0.425200  1
  O  O1777  1  0.340200  0.558800  0.824800  1
  O  O1778  1  0.159800  0.441200  0.324800  1
  O  O1779  1  0.691200  0.090200  0.574800  1
  O  O1780  1  0.808800  0.909800  0.074800  1
  O  O1781  1  0.840200  0.058800  0.324800  1
  O  O1782  1  0.659800  0.941200  0.824800  1
  O  O1783  1  0.191200  0.590200  0.074800  1
  O  O1784  1  0.308800  0.409800  0.574800  1
  O  O1785  1  0.719400  0.485100  0.201600  1
  O  O1786  1  0.780600  0.514900  0.701600  1
  O  O1787  1  0.264900  0.969400  0.451600  1
  O  O1788  1  0.235100  0.030600  0.951600  1
  O  O1789  1  0.219400  0.985100  0.701600  1
  O  O1790  1  0.280600  0.014900  0.201600  1
  O  O1791  1  0.764900  0.469400  0.951600  1
  O  O1792  1  0.735100  0.530600  0.451600  1
  O  O1793  1  0.280600  0.514900  0.798400  1
  O  O1794  1  0.219400  0.485100  0.298400  1
  O  O1795  1  0.735100  0.030600  0.548400  1
  O  O1796  1  0.764900  0.969400  0.048400  1
  O  O1797  1  0.780600  0.014900  0.298400  1
  O  O1798  1  0.719400  0.985100  0.798400  1
  O  O1799  1  0.235100  0.530600  0.048400  1
  O  O1800  1  0.264900  0.469400  0.548400  1
  O  O1801  1  0.341700  0.873800  0.341900  1
  O  O1802  1  0.158300  0.126200  0.841900  1
  O  O1803  1  0.876200  0.591700  0.591900  1
  O  O1804  1  0.623800  0.408300  0.091900  1
  O  O1805  1  0.841700  0.373800  0.841900  1
  O  O1806  1  0.658300  0.626200  0.341900  1
  O  O1807  1  0.376200  0.091700  0.091900  1
  O  O1808  1  0.123800  0.908300  0.591900  1
  O  O1809  1  0.658300  0.126200  0.658100  1
  O  O1810  1  0.841700  0.873800  0.158100  1
  O  O1811  1  0.123800  0.408300  0.408100  1
  O  O1812  1  0.376200  0.591700  0.908100  1
  O  O1813  1  0.158300  0.626200  0.158100  1
  O  O1814  1  0.341700  0.373800  0.658100  1
  O  O1815  1  0.623800  0.908300  0.908100  1
  O  O1816  1  0.876200  0.091700  0.408100  1
  O  O1817  1  0.423700  0.601000  0.249000  1
  O  O1818  1  0.076300  0.399000  0.749000  1
  O  O1819  1  0.149000  0.673700  0.499000  1
  O  O1820  1  0.351000  0.326300  0.999000  1
  O  O1821  1  0.923700  0.101000  0.749000  1
  O  O1822  1  0.576300  0.899000  0.249000  1
  O  O1823  1  0.649000  0.173700  0.999000  1
  O  O1824  1  0.851000  0.826300  0.499000  1
  O  O1825  1  0.576300  0.399000  0.751000  1
  O  O1826  1  0.923700  0.601000  0.251000  1
  O  O1827  1  0.851000  0.326300  0.501000  1
  O  O1828  1  0.649000  0.673700  0.001000  1
  O  O1829  1  0.076300  0.899000  0.251000  1
  O  O1830  1  0.423700  0.101000  0.751000  1
  O  O1831  1  0.351000  0.826300  0.001000  1
  O  O1832  1  0.149000  0.173700  0.501000  1
  O  O1833  1  0.491200  0.568600  0.262000  1
  O  O1834  1  0.008800  0.431400  0.762000  1
  O  O1835  1  0.181400  0.741200  0.512000  1
  O  O1836  1  0.318600  0.258800  0.012000  1
  O  O1837  1  0.991200  0.068600  0.762000  1
  O  O1838  1  0.508800  0.931400  0.262000  1
  O  O1839  1  0.681400  0.241200  0.012000  1
  O  O1840  1  0.818600  0.758800  0.512000  1
  O  O1841  1  0.508800  0.431400  0.738000  1
  O  O1842  1  0.991200  0.568600  0.238000  1
  O  O1843  1  0.818600  0.258800  0.488000  1
  O  O1844  1  0.681400  0.741200  0.988000  1
  O  O1845  1  0.008800  0.931400  0.238000  1
  O  O1846  1  0.491200  0.068600  0.738000  1
  O  O1847  1  0.318600  0.758800  0.988000  1
  O  O1848  1  0.181400  0.241200  0.488000  1
  O  O1849  1  0.458200  0.553600  0.204000  1
  O  O1850  1  0.041800  0.446400  0.704000  1
  O  O1851  1  0.196400  0.708200  0.454000  1
  O  O1852  1  0.303600  0.291800  0.954000  1
  O  O1853  1  0.958200  0.053600  0.704000  1
  O  O1854  1  0.541800  0.946400  0.204000  1
  O  O1855  1  0.696400  0.208200  0.954000  1
  O  O1856  1  0.803600  0.791800  0.454000  1
  O  O1857  1  0.541800  0.446400  0.796000  1
  O  O1858  1  0.958200  0.553600  0.296000  1
  O  O1859  1  0.803600  0.291800  0.546000  1
  O  O1860  1  0.696400  0.708200  0.046000  1
  O  O1861  1  0.041800  0.946400  0.296000  1
  O  O1862  1  0.458200  0.053600  0.796000  1
  O  O1863  1  0.303600  0.791800  0.046000  1
  O  O1864  1  0.196400  0.208200  0.546000  1
  O  O1865  1  0.572700  0.407400  0.947700  1
  O  O1866  1  0.927300  0.592600  0.447700  1
  O  O1867  1  0.342600  0.822700  0.197700  1
  O  O1868  1  0.157400  0.177300  0.697700  1
  O  O1869  1  0.072700  0.907400  0.447700  1
  O  O1870  1  0.427300  0.092600  0.947700  1
  O  O1871  1  0.842600  0.322700  0.697700  1
  O  O1872  1  0.657400  0.677300  0.197700  1
  O  O1873  1  0.427300  0.592600  0.052300  1
  O  O1874  1  0.072700  0.407400  0.552300  1
  O  O1875  1  0.657400  0.177300  0.802300  1
  O  O1876  1  0.842600  0.822700  0.302300  1
  O  O1877  1  0.927300  0.092600  0.552300  1
  O  O1878  1  0.572700  0.907400  0.052300  1
  O  O1879  1  0.157400  0.677300  0.302300  1
  O  O1880  1  0.342600  0.322700  0.802300  1
  O  O1881  1  0.579000  0.326000  0.893000  1
  O  O1882  1  0.921000  0.674000  0.393000  1
  O  O1883  1  0.424000  0.829000  0.143000  1
  O  O1884  1  0.076000  0.171000  0.643000  1
  O  O1885  1  0.079000  0.826000  0.393000  1
  O  O1886  1  0.421000  0.174000  0.893000  1
  O  O1887  1  0.924000  0.329000  0.643000  1
  O  O1888  1  0.576000  0.671000  0.143000  1
  O  O1889  1  0.421000  0.674000  0.107000  1
  O  O1890  1  0.079000  0.326000  0.607000  1
  O  O1891  1  0.576000  0.171000  0.857000  1
  O  O1892  1  0.924000  0.829000  0.357000  1
  O  O1893  1  0.921000  0.174000  0.607000  1
  O  O1894  1  0.579000  0.826000  0.107000  1
  O  O1895  1  0.076000  0.671000  0.357000  1
  O  O1896  1  0.424000  0.329000  0.857000  1
  O  O1897  1  0.600100  0.534100  0.441400  1
  O  O1898  1  0.899900  0.465900  0.941400  1
  O  O1899  1  0.215900  0.850100  0.691400  1
  O  O1900  1  0.284100  0.149900  0.191400  1
  O  O1901  1  0.100100  0.034100  0.941400  1
  O  O1902  1  0.399900  0.965900  0.441400  1
  O  O1903  1  0.715900  0.350100  0.191400  1
  O  O1904  1  0.784100  0.649900  0.691400  1
  O  O1905  1  0.399900  0.465900  0.558600  1
  O  O1906  1  0.100100  0.534100  0.058600  1
  O  O1907  1  0.784100  0.149900  0.308600  1
  O  O1908  1  0.715900  0.850100  0.808600  1
  O  O1909  1  0.899900  0.965900  0.058600  1
  O  O1910  1  0.600100  0.034100  0.558600  1
  O  O1911  1  0.284100  0.649900  0.808600  1
  O  O1912  1  0.215900  0.350100  0.308600  1
  O  O1913  1  0.536200  0.500300  0.177200  1
  O  O1914  1  0.963800  0.499700  0.677200  1
  O  O1915  1  0.249700  0.786200  0.427200  1
  O  O1916  1  0.250300  0.213800  0.927200  1
  O  O1917  1  0.036200  0.000300  0.677200  1
  O  O1918  1  0.463800  0.999700  0.177200  1
  O  O1919  1  0.749700  0.286200  0.927200  1
  O  O1920  1  0.750300  0.713800  0.427200  1
  O  O1921  1  0.463800  0.499700  0.822800  1
  O  O1922  1  0.036200  0.500300  0.322800  1
  O  O1923  1  0.750300  0.213800  0.572800  1
  O  O1924  1  0.749700  0.786200  0.072800  1
  O  O1925  1  0.963800  0.999700  0.322800  1
  O  O1926  1  0.536200  0.000300  0.822800  1
  O  O1927  1  0.250300  0.713800  0.072800  1
  O  O1928  1  0.249700  0.286200  0.572800  1
  O  O1929  1  0.530800  0.445900  0.101900  1
  O  O1930  1  0.969200  0.554100  0.601900  1
  O  O1931  1  0.304100  0.780800  0.351900  1
  O  O1932  1  0.195900  0.219200  0.851900  1
  O  O1933  1  0.030800  0.945900  0.601900  1
  O  O1934  1  0.469200  0.054100  0.101900  1
  O  O1935  1  0.804100  0.280800  0.851900  1
  O  O1936  1  0.695900  0.719200  0.351900  1
  O  O1937  1  0.469200  0.554100  0.898100  1
  O  O1938  1  0.030800  0.445900  0.398100  1
  O  O1939  1  0.695900  0.219200  0.648100  1
  O  O1940  1  0.804100  0.780800  0.148100  1
  O  O1941  1  0.969200  0.054100  0.398100  1
  O  O1942  1  0.530800  0.945900  0.898100  1
  O  O1943  1  0.195900  0.719200  0.148100  1
  O  O1944  1  0.304100  0.280800  0.648100  1
  O  O1945  1  0.672700  0.585900  0.261400  1
  O  O1946  1  0.827300  0.414100  0.761400  1
  O  O1947  1  0.164100  0.922700  0.511400  1
  O  O1948  1  0.335900  0.077300  0.011400  1
  O  O1949  1  0.172700  0.085900  0.761400  1
  O  O1950  1  0.327300  0.914100  0.261400  1
  O  O1951  1  0.664100  0.422700  0.011400  1
  O  O1952  1  0.835900  0.577300  0.511400  1
  O  O1953  1  0.327300  0.414100  0.738600  1
  O  O1954  1  0.172700  0.585900  0.238600  1
  O  O1955  1  0.835900  0.077300  0.488600  1
  O  O1956  1  0.664100  0.922700  0.988600  1
  O  O1957  1  0.827300  0.914100  0.238600  1
  O  O1958  1  0.672700  0.085900  0.738600  1
  O  O1959  1  0.335900  0.577300  0.988600  1
  O  O1960  1  0.164100  0.422700  0.488600  1
  O  O1961  1  0.477200  0.623200  0.339900  1
  O  O1962  1  0.022800  0.376800  0.839900  1
  O  O1963  1  0.126800  0.727200  0.589900  1
  O  O1964  1  0.373200  0.272800  0.089900  1
  O  O1965  1  0.977200  0.123200  0.839900  1
  O  O1966  1  0.522800  0.876800  0.339900  1
  O  O1967  1  0.626800  0.227200  0.089900  1
  O  O1968  1  0.873200  0.772800  0.589900  1
  O  O1969  1  0.522800  0.376800  0.660100  1
  O  O1970  1  0.977200  0.623200  0.160100  1
  O  O1971  1  0.873200  0.272800  0.410100  1
  O  O1972  1  0.626800  0.727200  0.910100  1
  O  O1973  1  0.022800  0.876800  0.160100  1
  O  O1974  1  0.477200  0.123200  0.660100  1
  O  O1975  1  0.373200  0.772800  0.910100  1
  O  O1976  1  0.126800  0.227200  0.410100  1
  O  O1977  1  0.500000  0.250000  0.875000  1
  O  O1978  1  0.000000  0.750000  0.375000  1
  O  O1979  1  0.500000  0.750000  0.125000  1
  O  O1980  1  0.000000  0.250000  0.625000  1
  O  O1981  1  0.082200  0.610700  0.446000  1
  O  O1982  1  0.417800  0.389300  0.946000  1
  O  O1983  1  0.139300  0.332200  0.696000  1
  O  O1984  1  0.360700  0.667800  0.196000  1
  O  O1985  1  0.582200  0.110700  0.946000  1
  O  O1986  1  0.917800  0.889300  0.446000  1
  O  O1987  1  0.639300  0.832200  0.196000  1
  O  O1988  1  0.860700  0.167800  0.696000  1
  O  O1989  1  0.917800  0.389300  0.554000  1
  O  O1990  1  0.582200  0.610700  0.054000  1
  O  O1991  1  0.860700  0.667800  0.304000  1
  O  O1992  1  0.639300  0.332200  0.804000  1
  O  O1993  1  0.417800  0.889300  0.054000  1
  O  O1994  1  0.082200  0.110700  0.554000  1
  O  O1995  1  0.360700  0.167800  0.804000  1
  O  O1996  1  0.139300  0.832200  0.304000  1
  O  O1997  1  0.003500  0.520100  0.462500  1
  O  O1998  1  0.496500  0.479900  0.962500  1
  O  O1999  1  0.229900  0.253500  0.712500  1
  O  O2000  1  0.270100  0.746500  0.212500  1
  O  O2001  1  0.503500  0.020100  0.962500  1
  O  O2002  1  0.996500  0.979900  0.462500  1
  O  O2003  1  0.729900  0.753500  0.212500  1
  O  O2004  1  0.770100  0.246500  0.712500  1
  O  O2005  1  0.996500  0.479900  0.537500  1
  O  O2006  1  0.503500  0.520100  0.037500  1
  O  O2007  1  0.770100  0.746500  0.287500  1
  O  O2008  1  0.729900  0.253500  0.787500  1
  O  O2009  1  0.496500  0.979900  0.037500  1
  O  O2010  1  0.003500  0.020100  0.537500  1
  O  O2011  1  0.270100  0.246500  0.787500  1
  O  O2012  1  0.229900  0.753500  0.287500  1
  O  O2013  1  0.507400  0.573600  0.414500  1
  O  O2014  1  0.992600  0.426400  0.914500  1
  O  O2015  1  0.176400  0.757400  0.664500  1
  O  O2016  1  0.323600  0.242600  0.164500  1
  O  O2017  1  0.007400  0.073600  0.914500  1
  O  O2018  1  0.492600  0.926400  0.414500  1
  O  O2019  1  0.676400  0.257400  0.164500  1
  O  O2020  1  0.823600  0.742600  0.664500  1
  O  O2021  1  0.492600  0.426400  0.585500  1
  O  O2022  1  0.007400  0.573600  0.085500  1
  O  O2023  1  0.823600  0.242600  0.335500  1
  O  O2024  1  0.676400  0.757400  0.835500  1
  O  O2025  1  0.992600  0.926400  0.085500  1
  O  O2026  1  0.507400  0.073600  0.585500  1
  O  O2027  1  0.323600  0.742600  0.835500  1
  O  O2028  1  0.176400  0.257400  0.335500  1
  O  O2029  1  0.072000  0.481000  0.475600  1
  O  O2030  1  0.428000  0.519000  0.975600  1
  O  O2031  1  0.269000  0.322000  0.725600  1
  O  O2032  1  0.231000  0.678000  0.225600  1
  O  O2033  1  0.572000  0.981000  0.975600  1
  O  O2034  1  0.928000  0.019000  0.475600  1
  O  O2035  1  0.769000  0.822000  0.225600  1
  O  O2036  1  0.731000  0.178000  0.725600  1
  O  O2037  1  0.928000  0.519000  0.524400  1
  O  O2038  1  0.572000  0.481000  0.024400  1
  O  O2039  1  0.731000  0.678000  0.274400  1
  O  O2040  1  0.769000  0.322000  0.774400  1
  O  O2041  1  0.428000  0.019000  0.024400  1
  O  O2042  1  0.072000  0.981000  0.524400  1
  O  O2043  1  0.231000  0.178000  0.774400  1
  O  O2044  1  0.269000  0.822000  0.274400  1
  O  O2045  1  0.296300  0.314200  0.236400  1
  O  O2046  1  0.203700  0.685800  0.736400  1
  O  O2047  1  0.435800  0.546300  0.486400  1
  O  O2048  1  0.064200  0.453700  0.986400  1
  O  O2049  1  0.796300  0.814200  0.736400  1
  O  O2050  1  0.703700  0.185800  0.236400  1
  O  O2051  1  0.935800  0.046300  0.986400  1
  O  O2052  1  0.564200  0.953700  0.486400  1
  O  O2053  1  0.703700  0.685800  0.763600  1
  O  O2054  1  0.796300  0.314200  0.263600  1
  O  O2055  1  0.564200  0.453700  0.513600  1
  O  O2056  1  0.935800  0.546300  0.013600  1
  O  O2057  1  0.203700  0.185800  0.263600  1
  O  O2058  1  0.296300  0.814200  0.763600  1
  O  O2059  1  0.064200  0.953700  0.013600  1
  O  O2060  1  0.435800  0.046300  0.513600  1
  O  O2061  1  0.722300  0.513000  0.218600  1
  O  O2062  1  0.777700  0.487000  0.718600  1
  O  O2063  1  0.237000  0.972300  0.468600  1
  O  O2064  1  0.263000  0.027700  0.968600  1
  O  O2065  1  0.222300  0.013000  0.718600  1
  O  O2066  1  0.277700  0.987000  0.218600  1
  O  O2067  1  0.737000  0.472300  0.968600  1
  O  O2068  1  0.763000  0.527700  0.468600  1
  O  O2069  1  0.277700  0.487000  0.781400  1
  O  O2070  1  0.222300  0.513000  0.281400  1
  O  O2071  1  0.763000  0.027700  0.531400  1
  O  O2072  1  0.737000  0.972300  0.031400  1
  O  O2073  1  0.777700  0.987000  0.281400  1
  O  O2074  1  0.722300  0.013000  0.781400  1
  O  O2075  1  0.263000  0.527700  0.031400  1
  O  O2076  1  0.237000  0.472300  0.531400  1
  O  O2077  1  0.344900  0.888900  0.371000  1
  O  O2078  1  0.155100  0.111100  0.871000  1
  O  O2079  1  0.861100  0.594900  0.621000  1
  O  O2080  1  0.638900  0.405100  0.121000  1
  O  O2081  1  0.844900  0.388900  0.871000  1
  O  O2082  1  0.655100  0.611100  0.371000  1
  O  O2083  1  0.361100  0.094900  0.121000  1
  O  O2084  1  0.138900  0.905100  0.621000  1
  O  O2085  1  0.655100  0.111100  0.629000  1
  O  O2086  1  0.844900  0.888900  0.129000  1
  O  O2087  1  0.138900  0.405100  0.379000  1
  O  O2088  1  0.361100  0.594900  0.879000  1
  O  O2089  1  0.155100  0.611100  0.129000  1
  O  O2090  1  0.344900  0.388900  0.629000  1
  O  O2091  1  0.638900  0.905100  0.879000  1
  O  O2092  1  0.861100  0.094900  0.379000  1
  O  O2093  1  0.434100  0.613900  0.211000  1
  O  O2094  1  0.065900  0.386100  0.711000  1
  O  O2095  1  0.136100  0.684100  0.461000  1
  O  O2096  1  0.363900  0.315900  0.961000  1
  O  O2097  1  0.934100  0.113900  0.711000  1
  O  O2098  1  0.565900  0.886100  0.211000  1
  O  O2099  1  0.636100  0.184100  0.961000  1
  O  O2100  1  0.863900  0.815900  0.461000  1
  O  O2101  1  0.565900  0.386100  0.789000  1
  O  O2102  1  0.934100  0.613900  0.289000  1
  O  O2103  1  0.863900  0.315900  0.539000  1
  O  O2104  1  0.636100  0.684100  0.039000  1
  O  O2105  1  0.065900  0.886100  0.289000  1
  O  O2106  1  0.434100  0.113900  0.789000  1
  O  O2107  1  0.363900  0.815900  0.039000  1
  O  O2108  1  0.136100  0.184100  0.539000  1
  O  O2109  1  0.403600  0.592500  0.265400  1
  O  O2110  1  0.096400  0.407500  0.765400  1
  O  O2111  1  0.157500  0.653600  0.515400  1
  O  O2112  1  0.342500  0.346400  0.015400  1
  O  O2113  1  0.903600  0.092500  0.765400  1
  O  O2114  1  0.596400  0.907500  0.265400  1
  O  O2115  1  0.657500  0.153600  0.015400  1
  O  O2116  1  0.842500  0.846400  0.515400  1
  O  O2117  1  0.596400  0.407500  0.734600  1
  O  O2118  1  0.903600  0.592500  0.234600  1
  O  O2119  1  0.842500  0.346400  0.484600  1
  O  O2120  1  0.657500  0.653600  0.984600  1
  O  O2121  1  0.096400  0.907500  0.234600  1
  O  O2122  1  0.403600  0.092500  0.734600  1
  O  O2123  1  0.342500  0.846400  0.984600  1
  O  O2124  1  0.157500  0.153600  0.484600  1
  O  O2125  1  0.459000  0.597000  0.282000  1
  O  O2126  1  0.041000  0.403000  0.782000  1
  O  O2127  1  0.153000  0.709000  0.532000  1
  O  O2128  1  0.347000  0.291000  0.032000  1
  O  O2129  1  0.959000  0.097000  0.782000  1
  O  O2130  1  0.541000  0.903000  0.282000  1
  O  O2131  1  0.653000  0.209000  0.032000  1
  O  O2132  1  0.847000  0.791000  0.532000  1
  O  O2133  1  0.541000  0.403000  0.718000  1
  O  O2134  1  0.959000  0.597000  0.218000  1
  O  O2135  1  0.847000  0.291000  0.468000  1
  O  O2136  1  0.653000  0.709000  0.968000  1
  O  O2137  1  0.041000  0.903000  0.218000  1
  O  O2138  1  0.459000  0.097000  0.718000  1
  O  O2139  1  0.347000  0.791000  0.968000  1
  O  O2140  1  0.153000  0.209000  0.468000  1
  O  O2141  1  0.517000  0.411000  0.932700  1
  O  O2142  1  0.983000  0.589000  0.432700  1
  O  O2143  1  0.339000  0.767000  0.182700  1
  O  O2144  1  0.161000  0.233000  0.682700  1
  O  O2145  1  0.017000  0.911000  0.432700  1
  O  O2146  1  0.483000  0.089000  0.932700  1
  O  O2147  1  0.839000  0.267000  0.682700  1
  O  O2148  1  0.661000  0.733000  0.182700  1
  O  O2149  1  0.483000  0.589000  0.067300  1
  O  O2150  1  0.017000  0.411000  0.567300  1
  O  O2151  1  0.661000  0.233000  0.817300  1
  O  O2152  1  0.839000  0.767000  0.317300  1
  O  O2153  1  0.983000  0.089000  0.567300  1
  O  O2154  1  0.517000  0.911000  0.067300  1
  O  O2155  1  0.161000  0.733000  0.317300  1
  O  O2156  1  0.339000  0.267000  0.817300  1
  O  O2157  1  0.594200  0.369800  0.928200  1
  O  O2158  1  0.905800  0.630200  0.428200  1
  O  O2159  1  0.380200  0.844200  0.178200  1
  O  O2160  1  0.119800  0.155800  0.678200  1
  O  O2161  1  0.094200  0.869800  0.428200  1
  O  O2162  1  0.405800  0.130200  0.928200  1
  O  O2163  1  0.880200  0.344200  0.678200  1
  O  O2164  1  0.619800  0.655800  0.178200  1
  O  O2165  1  0.405800  0.630200  0.071800  1
  O  O2166  1  0.094200  0.369800  0.571800  1
  O  O2167  1  0.619800  0.155800  0.821800  1
  O  O2168  1  0.880200  0.844200  0.321800  1
  O  O2169  1  0.905800  0.130200  0.571800  1
  O  O2170  1  0.594200  0.869800  0.071800  1
  O  O2171  1  0.119800  0.655800  0.321800  1
  O  O2172  1  0.380200  0.344200  0.821800  1
  O  O2173  1  0.558000  0.542000  0.459600  1
  O  O2174  1  0.942000  0.458000  0.959600  1
  O  O2175  1  0.208000  0.808000  0.709600  1
  O  O2176  1  0.292000  0.192000  0.209600  1
  O  O2177  1  0.058000  0.042000  0.959600  1
  O  O2178  1  0.442000  0.958000  0.459600  1
  O  O2179  1  0.708000  0.308000  0.209600  1
  O  O2180  1  0.792000  0.692000  0.709600  1
  O  O2181  1  0.442000  0.458000  0.540400  1
  O  O2182  1  0.058000  0.542000  0.040400  1
  O  O2183  1  0.792000  0.192000  0.290400  1
  O  O2184  1  0.708000  0.808000  0.790400  1
  O  O2185  1  0.942000  0.958000  0.040400  1
  O  O2186  1  0.558000  0.042000  0.540400  1
  O  O2187  1  0.292000  0.692000  0.790400  1
  O  O2188  1  0.208000  0.308000  0.290400  1
  O  O2189  1  0.515500  0.457100  0.099700  1
  O  O2190  1  0.984500  0.542900  0.599700  1
  O  O2191  1  0.292900  0.765500  0.349700  1
  O  O2192  1  0.207100  0.234500  0.849700  1
  O  O2193  1  0.015500  0.957100  0.599700  1
  O  O2194  1  0.484500  0.042900  0.099700  1
  O  O2195  1  0.792900  0.265500  0.849700  1
  O  O2196  1  0.707100  0.734500  0.349700  1
  O  O2197  1  0.484500  0.542900  0.900300  1
  O  O2198  1  0.015500  0.457100  0.400300  1
  O  O2199  1  0.707100  0.234500  0.650300  1
  O  O2200  1  0.792900  0.765500  0.150300  1
  O  O2201  1  0.984500  0.042900  0.400300  1
  O  O2202  1  0.515500  0.957100  0.900300  1
  O  O2203  1  0.207100  0.734500  0.150300  1
  O  O2204  1  0.292900  0.265500  0.650300  1
  O  O2205  1  0.493500  0.492400  0.158500  1
  O  O2206  1  0.006500  0.507600  0.658500  1
  O  O2207  1  0.257600  0.743500  0.408500  1
  O  O2208  1  0.242400  0.256500  0.908500  1
  O  O2209  1  0.993500  0.992400  0.658500  1
  O  O2210  1  0.506500  0.007600  0.158500  1
  O  O2211  1  0.757600  0.243500  0.908500  1
  O  O2212  1  0.742400  0.756500  0.408500  1
  O  O2213  1  0.506500  0.507600  0.841500  1
  O  O2214  1  0.993500  0.492400  0.341500  1
  O  O2215  1  0.742400  0.256500  0.591500  1
  O  O2216  1  0.757600  0.743500  0.091500  1
  O  O2217  1  0.006500  0.007600  0.341500  1
  O  O2218  1  0.493500  0.992400  0.841500  1
  O  O2219  1  0.242400  0.756500  0.091500  1
  O  O2220  1  0.257600  0.243500  0.591500  1
  O  O2221  1  0.577000  0.477800  0.148100  1
  O  O2222  1  0.923000  0.522200  0.648100  1
  O  O2223  1  0.272200  0.827000  0.398100  1
  O  O2224  1  0.227800  0.173000  0.898100  1
  O  O2225  1  0.077000  0.977800  0.648100  1
  O  O2226  1  0.423000  0.022200  0.148100  1
  O  O2227  1  0.772200  0.327000  0.898100  1
  O  O2228  1  0.727800  0.673000  0.398100  1
  O  O2229  1  0.423000  0.522200  0.851900  1
  O  O2230  1  0.077000  0.477800  0.351900  1
  O  O2231  1  0.727800  0.173000  0.601900  1
  O  O2232  1  0.772200  0.827000  0.101900  1
  O  O2233  1  0.923000  0.022200  0.351900  1
  O  O2234  1  0.577000  0.977800  0.851900  1
  O  O2235  1  0.227800  0.673000  0.101900  1
  O  O2236  1  0.272200  0.327000  0.601900  1
  O  O2237  1  0.564000  0.541000  0.222800  1
  O  O2238  1  0.936000  0.459000  0.722800  1
  O  O2239  1  0.209000  0.814000  0.472800  1
  O  O2240  1  0.291000  0.186000  0.972800  1
  O  O2241  1  0.064000  0.041000  0.722800  1
  O  O2242  1  0.436000  0.959000  0.222800  1
  O  O2243  1  0.709000  0.314000  0.972800  1
  O  O2244  1  0.791000  0.686000  0.472800  1
  O  O2245  1  0.436000  0.459000  0.777200  1
  O  O2246  1  0.064000  0.541000  0.277200  1
  O  O2247  1  0.791000  0.186000  0.527200  1
  O  O2248  1  0.709000  0.814000  0.027200  1
  O  O2249  1  0.936000  0.959000  0.277200  1
  O  O2250  1  0.564000  0.041000  0.777200  1
  O  O2251  1  0.291000  0.686000  0.027200  1
  O  O2252  1  0.209000  0.314000  0.527200  1
  O  O2253  1  0.498000  0.346000  0.843000  1
  O  O2254  1  0.002000  0.654000  0.343000  1
  O  O2255  1  0.404000  0.748000  0.093000  1
  O  O2256  1  0.096000  0.252000  0.593000  1
  O  O2257  1  0.998000  0.846000  0.343000  1
  O  O2258  1  0.502000  0.154000  0.843000  1
  O  O2259  1  0.904000  0.248000  0.593000  1
  O  O2260  1  0.596000  0.752000  0.093000  1
  O  O2261  1  0.502000  0.654000  0.157000  1
  O  O2262  1  0.998000  0.346000  0.657000  1
  O  O2263  1  0.596000  0.252000  0.907000  1
  O  O2264  1  0.904000  0.748000  0.407000  1
  O  O2265  1  0.002000  0.154000  0.657000  1
  O  O2266  1  0.498000  0.846000  0.157000  1
  O  O2267  1  0.096000  0.752000  0.407000  1
  O  O2268  1  0.404000  0.248000  0.907000  1
  O  O2269  1  0.690400  0.586800  0.284500  1
  O  O2270  1  0.809600  0.413200  0.784500  1
  O  O2271  1  0.163200  0.940400  0.534500  1
  O  O2272  1  0.336800  0.059600  0.034500  1
  O  O2273  1  0.190400  0.086800  0.784500  1
  O  O2274  1  0.309600  0.913200  0.284500  1
  O  O2275  1  0.663200  0.440400  0.034500  1
  O  O2276  1  0.836800  0.559600  0.534500  1
  O  O2277  1  0.309600  0.413200  0.715500  1
  O  O2278  1  0.190400  0.586800  0.215500  1
  O  O2279  1  0.836800  0.059600  0.465500  1
  O  O2280  1  0.663200  0.940400  0.965500  1
  O  O2281  1  0.809600  0.913200  0.215500  1
  O  O2282  1  0.690400  0.086800  0.715500  1
  O  O2283  1  0.336800  0.559600  0.965500  1
  O  O2284  1  0.163200  0.440400  0.465500  1
  F  F2285  1  0.498800  0.330300  0.327300  1.0
  F  F2286  1  0.001200  0.669700  0.827300  1.0
  F  F2287  1  0.419700  0.748800  0.577300  1.0
  F  F2288  1  0.080300  0.251200  0.077300  1.0
  F  F2289  1  0.998800  0.830300  0.827300  1.0
  F  F2290  1  0.501200  0.169700  0.327300  1.0
  F  F2291  1  0.919700  0.248800  0.077300  1.0
  F  F2292  1  0.580300  0.751200  0.577300  1.0
  F  F2293  1  0.501200  0.669700  0.672700  1.0
  F  F2294  1  0.998800  0.330300  0.172700  1.0
  F  F2295  1  0.580300  0.251200  0.422700  1.0
  F  F2296  1  0.919700  0.748800  0.922700  1.0
  F  F2297  1  0.001200  0.169700  0.172700  1.0
  F  F2298  1  0.498800  0.830300  0.672700  1.0
  F  F2299  1  0.080300  0.751200  0.922700  1.0
  F  F2300  1  0.419700  0.248800  0.422700  1.0
  F  F2301  1  0.414400  0.360800  0.368500  1.0
  F  F2302  1  0.085600  0.639200  0.868500  1.0
  F  F2303  1  0.389200  0.664400  0.618500  1.0
  F  F2304  1  0.110800  0.335600  0.118500  1.0
  F  F2305  1  0.914400  0.860800  0.868500  1.0
  F  F2306  1  0.585600  0.139200  0.368500  1.0
  F  F2307  1  0.889200  0.164400  0.118500  1.0
  F  F2308  1  0.610800  0.835600  0.618500  1.0
  F  F2309  1  0.585600  0.639200  0.631500  1.0
  F  F2310  1  0.914400  0.360800  0.131500  1.0
  F  F2311  1  0.610800  0.335600  0.381500  1.0
  F  F2312  1  0.889200  0.664400  0.881500  1.0
  F  F2313  1  0.085600  0.139200  0.131500  1.0
  F  F2314  1  0.414400  0.860800  0.631500  1.0
  F  F2315  1  0.110800  0.835600  0.881500  1.0
  F  F2316  1  0.389200  0.164400  0.381500  1.0
  F  F2317  1  0.322600  0.308600  0.355300  1.0
  F  F2318  1  0.177400  0.691400  0.855300  1.0
  F  F2319  1  0.441400  0.572600  0.605300  1.0
  F  F2320  1  0.058600  0.427400  0.105300  1.0
  F  F2321  1  0.822600  0.808600  0.855300  1.0
  F  F2322  1  0.677400  0.191400  0.355300  1.0
  F  F2323  1  0.941400  0.072600  0.105300  1.0
  F  F2324  1  0.558600  0.927400  0.605300  1.0
  F  F2325  1  0.677400  0.691400  0.644700  1.0
  F  F2326  1  0.822600  0.308600  0.144700  1.0
  F  F2327  1  0.558600  0.427400  0.394700  1.0
  F  F2328  1  0.941400  0.572600  0.894700  1.0
  F  F2329  1  0.177400  0.191400  0.144700  1.0
  F  F2330  1  0.322600  0.808600  0.644700  1.0
  F  F2331  1  0.058600  0.927400  0.894700  1.0
  F  F2332  1  0.441400  0.072600  0.394700  1.0
  F  F2333  1  0.317500  0.229400  0.301100  1.0
  F  F2334  1  0.182500  0.770600  0.801100  1.0
  F  F2335  1  0.520600  0.567500  0.551100  1.0
  F  F2336  1  0.979400  0.432500  0.051100  1.0
  F  F2337  1  0.817500  0.729400  0.801100  1.0
  F  F2338  1  0.682500  0.270600  0.301100  1.0
  F  F2339  1  0.020600  0.067500  0.051100  1.0
  F  F2340  1  0.479400  0.932500  0.551100  1.0
  F  F2341  1  0.682500  0.770600  0.698900  1.0
  F  F2342  1  0.817500  0.229400  0.198900  1.0
  F  F2343  1  0.479400  0.432500  0.448900  1.0
  F  F2344  1  0.020600  0.567500  0.948900  1.0
  F  F2345  1  0.182500  0.270600  0.198900  1.0
  F  F2346  1  0.317500  0.729400  0.698900  1.0
  F  F2347  1  0.979400  0.932500  0.948900  1.0
  F  F2348  1  0.520600  0.067500  0.448900  1.0
  F  F2349  1  0.402500  0.201200  0.258800  1.0
  F  F2350  1  0.097500  0.798800  0.758800  1.0
  F  F2351  1  0.548800  0.652500  0.508800  1.0
  F  F2352  1  0.951200  0.347500  0.008800  1.0
  F  F2353  1  0.902500  0.701200  0.758800  1.0
  F  F2354  1  0.597500  0.298800  0.258800  1.0
  F  F2355  1  0.048800  0.152500  0.008800  1.0
  F  F2356  1  0.451200  0.847500  0.508800  1.0
  F  F2357  1  0.597500  0.798800  0.741200  1.0
  F  F2358  1  0.902500  0.201200  0.241200  1.0
  F  F2359  1  0.451200  0.347500  0.491200  1.0
  F  F2360  1  0.048800  0.652500  0.991200  1.0
  F  F2361  1  0.097500  0.298800  0.241200  1.0
  F  F2362  1  0.402500  0.701200  0.741200  1.0
  F  F2363  1  0.951200  0.847500  0.991200  1.0
  F  F2364  1  0.548800  0.152500  0.491200  1.0
