
#######################################################################
#
#                 Cambridge Crystallographic Data Centre
#                                CCDC 
#
#######################################################################
#
# If this CIF has been generated from an entry in the Cambridge 
# Structural Database, then it will include bibliographic, chemical, 
# crystal, experimental, refinement or atomic coordinate data resulting 
# from the CCDC's data processing and validation procedures.
#
#######################################################################

data_UQABOF
_chemical_formula_moiety         
'C108 H144 N36 Pd6 12+,12(N1 O3 1-),x(H2 O1),2(C13 F10 O1)'
_chemical_name_systematic        
"tetrakis(\m-2,4,6-tris(pyridin-4-yl)-1,3,5-triazine)-hexakis(N,N,N',N'-tetramethylethane-1,2-diamine)-hexa-palladium dodecanitrate bis(bis(pentafluorophenyl)methanone) clathrate hydrate"
_symmetry_cell_setting           tetragonal
_symmetry_space_group_name_H-M   'I 41/a'
_symmetry_Int_Tables_number      88
_space_group_name_Hall           '-I 4ad'
loop_
_symmetry_equiv_pos_site_id
_symmetry_equiv_pos_as_xyz
1 x,y,z
2 1/2-x,-y,1/2+z
3 3/4-y,1/4+x,1/4+z
4 3/4+y,3/4-x,3/4+z
5 1/2+x,1/2+y,1/2+z
6 -x,1/2-y,z
7 1/4-y,3/4+x,3/4+z
8 1/4+y,1/4-x,1/4+z
9 -x,-y,-z
10 1/2+x,y,1/2-z
11 1/4+y,3/4-x,3/4-z
12 1/4-y,1/4+x,1/4-z
13 1/2-x,1/2-y,1/2-z
14 x,1/2+y,-z
15 3/4+y,1/4-x,1/4-z
16 3/4-y,3/4+x,3/4-z
_cell_length_a                   25.941(5)
_cell_length_b                   25.941(5)
_cell_length_c                   31.667(6)
_cell_angle_alpha                90
_cell_angle_beta                 90
_cell_angle_gamma                90
_cell_volume                     21309.8
_exptl_crystal_colour            colorless
_exptl_crystal_description       Block
_cell_formula_units_Z            4
loop_
_atom_site_label
_atom_site_type_symbol
_atom_site_fract_x
_atom_site_fract_y
_atom_site_fract_z
Pd1 Pd 0.5000 0.2500 0.08180(2)
Pd2 Pd 0.287747(19) 0.536195(19) 0.380226(15)
N1 N 0.3508(2) 0.5095(2) 0.34901(16)
N2 N 0.5069(2) 0.3028(2) 0.12882(16)
N3 N 0.7176(2) 0.4616(2) 0.33863(17)
N4 N 0.4761(2) 0.4184(2) 0.25357(17)
N5 N 0.5667(2) 0.4105(2) 0.24980(18)
N6 N 0.5292(2) 0.4600(2) 0.30451(18)
N7 N 0.5086(3) 0.3030(3) 0.03375(18)
C1 C 0.3459(3) 0.4800(3) 0.3149(2)
H1 H 0.3123 0.4729 0.3045
C2 C 0.3879(3) 0.4590(3) 0.2938(2)
H2 H 0.3833 0.4385 0.2693
C3 C 0.4374(2) 0.4689(2) 0.3098(2)
C4 C 0.4420(3) 0.4980(3) 0.3460(2)
H3 H 0.4750 0.5043 0.3578
C5 C 0.3985(3) 0.5180(3) 0.3649(2)
H4 H 0.4021 0.5382 0.3898
C6 C 0.4837(3) 0.4483(3) 0.2879(2)
C7 C 0.5528(3) 0.3168(3) 0.1438(2)
H5 H 0.5828 0.3032 0.1307
C8 C 0.5588(3) 0.3501(3) 0.1776(2)
H6 H 0.5921 0.3605 0.1867
C9 C 0.5146(3) 0.3681(3) 0.1979(2)
C10 C 0.4670(3) 0.3526(3) 0.1828(2)
H7 H 0.4363 0.3639 0.1964
C11 C 0.4639(3) 0.3211(3) 0.1484(2)
H8 H 0.4309 0.3117 0.1379
C12 C 0.5194(3) 0.4013(3) 0.2361(2)
C13 C 0.6769(3) 0.4868(3) 0.3537(2)
H9 H 0.6814 0.5089 0.3774
C14 C 0.6283(3) 0.4820(3) 0.3363(2)
H10 H 0.6001 0.5010 0.3474
C15 C 0.6211(3) 0.4491(3) 0.3024(2)
C16 C 0.6642(3) 0.4234(3) 0.2864(2)
H11 H 0.6609 0.4007 0.2630
C17 C 0.7116(3) 0.4313(3) 0.3049(2)
H12 H 0.7409 0.4146 0.2933
C18 C 0.5695(3) 0.4398(3) 0.2845(2)
N8 N 0.2878(3) 0.6062(2) 0.34965(19)
N9 N 0.2246(2) 0.5636(2) 0.4121(2)
C19 C 0.3347(9) 0.6345(10) 0.3565(7)
H13 H 0.3286 0.6713 0.3512
H14 H 0.3615 0.6219 0.3373
H15 H 0.3461 0.6298 0.3858
C20 C 0.2956(8) 0.6015(6) 0.3016(4)
H16 H 0.2845 0.6335 0.2879
H17 H 0.2752 0.5726 0.2908
H18 H 0.3322 0.5955 0.2955
C21 C 0.2377(8) 0.6290(7) 0.3548(7)
H19 H 0.2120 0.6114 0.3366
H20 H 0.2385 0.6660 0.3474
C22 C 0.2249(8) 0.6220(7) 0.3997(7)
H21 H 0.1905 0.6371 0.4054
H22 H 0.2505 0.6405 0.4172
C23 C 0.2299(7) 0.5579(8) 0.4579(6)
H23 H 0.2044 0.5796 0.4722
H24 H 0.2647 0.5684 0.4665
H25 H 0.2244 0.5217 0.4658
C24 C 0.1776(5) 0.5390(7) 0.3960(6)
H26 H 0.1474 0.5584 0.4056
H27 H 0.1756 0.5035 0.4065
H28 H 0.1785 0.5386 0.3650
C25 C 0.4770(4) 0.3504(3) 0.0406(3)
H29 H 0.4779 0.3717 0.0151
H30 H 0.4911 0.3699 0.0644
H31 H 0.4413 0.3405 0.0467
C26 C 0.5627(4) 0.3180(5) 0.0296(3)
H32 H 0.5668 0.3400 0.0046
H33 H 0.5841 0.2871 0.0264
H34 H 0.5735 0.3370 0.0548
C27 C 0.4909(4) 0.2777(4) -0.0054(2)
H35 H 0.5049 0.2960 -0.0303
H36 H 0.4528 0.2788 -0.0070
N7E N 0.4914(3) 0.1970(3) 0.03375(18)
C25E C 0.5230(4) 0.1496(3) 0.0406(3)
H29E H 0.5221 0.1283 0.0151
H30E H 0.5089 0.1301 0.0644
H31E H 0.5587 0.1595 0.0467
C26E C 0.4373(4) 0.1820(5) 0.0296(3)
H32E H 0.4332 0.1600 0.0046
H33E H 0.4159 0.2129 0.0264
H34E H 0.4265 0.1630 0.0548
C27E C 0.5091(4) 0.2223(4) -0.0054(2)
H35E H 0.4951 0.2040 -0.0303
H36E H 0.5472 0.2212 -0.0070
Pd2E Pd 0.712253(19) -0.036195(19) 0.380226(15)
N1E N 0.6492(2) -0.0095(2) 0.34901(16)
N2E N 0.4931(2) 0.1972(2) 0.12882(16)
N3E N 0.2824(2) 0.0384(2) 0.33863(17)
N4E N 0.5239(2) 0.0816(2) 0.25357(17)
N5E N 0.4333(2) 0.0895(2) 0.24980(18)
N6E N 0.4708(2) 0.0400(2) 0.30451(18)
C1E C 0.6541(3) 0.0200(3) 0.3149(2)
H1E H 0.6877 0.0271 0.3045
C2E C 0.6121(3) 0.0410(3) 0.2938(2)
H2E H 0.6167 0.0615 0.2693
C3E C 0.5626(2) 0.0311(2) 0.3098(2)
C4E C 0.5580(3) 0.0020(3) 0.3460(2)
H3E H 0.5250 -0.0043 0.3578
C5E C 0.6015(3) -0.0180(3) 0.3649(2)
H4E H 0.5979 -0.0382 0.3898
C6E C 0.5163(3) 0.0517(3) 0.2879(2)
C7E C 0.4472(3) 0.1832(3) 0.1438(2)
H5E H 0.4172 0.1968 0.1307
C8E C 0.4412(3) 0.1499(3) 0.1776(2)
H6E H 0.4079 0.1395 0.1867
C9E C 0.4854(3) 0.1319(3) 0.1979(2)
C10E C 0.5330(3) 0.1474(3) 0.1828(2)
H7E H 0.5637 0.1361 0.1964
C11E C 0.5361(3) 0.1789(3) 0.1484(2)
H8E H 0.5691 0.1883 0.1379
C12E C 0.4806(3) 0.0987(3) 0.2361(2)
C13E C 0.3231(3) 0.0132(3) 0.3537(2)
H9E H 0.3186 -0.0089 0.3774
C14E C 0.3717(3) 0.0180(3) 0.3363(2)
H10E H 0.3999 -0.0010 0.3474
C15E C 0.3789(3) 0.0509(3) 0.3024(2)
C16E C 0.3358(3) 0.0766(3) 0.2864(2)
H11E H 0.3391 0.0993 0.2630
C17E C 0.2884(3) 0.0687(3) 0.3049(2)
H12E H 0.2591 0.0854 0.2933
C18E C 0.4305(3) 0.0602(3) 0.2845(2)
N8E N 0.7122(3) -0.1062(2) 0.34965(19)
N9E N 0.7754(2) -0.0636(2) 0.4121(2)
C19E C 0.6653(9) -0.1345(10) 0.3565(7)
H13E H 0.6714 -0.1713 0.3512
H14E H 0.6385 -0.1219 0.3373
H15E H 0.6539 -0.1298 0.3858
C20E C 0.7044(8) -0.1015(6) 0.3016(4)
H16E H 0.7155 -0.1335 0.2879
H17E H 0.7248 -0.0726 0.2908
H18E H 0.6678 -0.0955 0.2955
C21E C 0.7623(8) -0.1290(7) 0.3548(7)
H19E H 0.7880 -0.1114 0.3366
H20E H 0.7615 -0.1660 0.3474
C22E C 0.7751(8) -0.1220(7) 0.3997(7)
H21E H 0.8095 -0.1371 0.4054
H22E H 0.7495 -0.1405 0.4172
C23E C 0.7701(7) -0.0579(8) 0.4579(6)
H23E H 0.7956 -0.0796 0.4722
H24E H 0.7353 -0.0684 0.4665
H25E H 0.7756 -0.0217 0.4658
C24E C 0.8224(5) -0.0390(7) 0.3960(6)
H26E H 0.8526 -0.0584 0.4056
H27E H 0.8244 -0.0035 0.4065
H28E H 0.8215 -0.0386 0.3650
Pd1J Pd 0.5000 0.2500 0.66820(2)
Pd2J Pd 0.786195(19) 0.462253(19) 0.369774(15)
N1J N 0.7595(2) 0.3992(2) 0.40099(16)
N2J N 0.5528(2) 0.2431(2) 0.62118(16)
N3J N 0.7116(2) 0.0324(2) 0.41137(17)
N4J N 0.6684(2) 0.2739(2) 0.49643(17)
N5J N 0.6605(2) 0.1833(2) 0.50020(18)
N6J N 0.7100(2) 0.2208(2) 0.44549(18)
N7J N 0.5530(3) 0.2414(3) 0.71625(18)
C1J C 0.7300(3) 0.4041(3) 0.4351(2)
H1J H 0.7229 0.4377 0.4455
C2J C 0.7090(3) 0.3621(3) 0.4562(2)
H2J H 0.6885 0.3667 0.4807
C3J C 0.7189(2) 0.3126(2) 0.4402(2)
C4J C 0.7480(3) 0.3080(3) 0.4040(2)
H3J H 0.7543 0.2750 0.3922
C5J C 0.7680(3) 0.3515(3) 0.3851(2)
H4J H 0.7882 0.3479 0.3602
C6J C 0.6983(3) 0.2663(3) 0.4621(2)
C7J C 0.5668(3) 0.1972(3) 0.6062(2)
H5J H 0.5532 0.1672 0.6193
C8J C 0.6001(3) 0.1912(3) 0.5724(2)
H6J H 0.6105 0.1579 0.5633
C9J C 0.6181(3) 0.2354(3) 0.5521(2)
C10J C 0.6026(3) 0.2830(3) 0.5672(2)
H7J H 0.6139 0.3137 0.5536
C11J C 0.5711(3) 0.2861(3) 0.6016(2)
H8J H 0.5617 0.3191 0.6121
C12J C 0.6513(3) 0.2306(3) 0.5139(2)
C13J C 0.7368(3) 0.0731(3) 0.3963(2)
H9J H 0.7589 0.0686 0.3726
C14J C 0.7320(3) 0.1217(3) 0.4137(2)
H10J H 0.7510 0.1499 0.4026
C15J C 0.6991(3) 0.1289(3) 0.4476(2)
C16J C 0.6734(3) 0.0858(3) 0.4636(2)
H11J H 0.6507 0.0891 0.4870
C17J C 0.6813(3) 0.0384(3) 0.4451(2)
H12J H 0.6646 0.0091 0.4567
C18J C 0.6898(3) 0.1805(3) 0.4655(2)
N8J N 0.8562(2) 0.4622(3) 0.40035(19)
N9J N 0.8136(2) 0.5254(2) 0.3379(2)
C19J C 0.8845(10) 0.4153(9) 0.3935(7)
H13J H 0.9213 0.4214 0.3988
H14J H 0.8719 0.3885 0.4127
H15J H 0.8798 0.4039 0.3642
C20J C 0.8515(6) 0.4544(8) 0.4484(4)
H16J H 0.8835 0.4655 0.4621
H17J H 0.8226 0.4748 0.4592
H18J H 0.8455 0.4178 0.4545
C21J C 0.8790(7) 0.5123(8) 0.3952(7)
H19J H 0.8614 0.5380 0.4134
H20J H 0.9160 0.5115 0.4026
C22J C 0.8720(7) 0.5251(8) 0.3503(7)
H21J H 0.8871 0.5595 0.3446
H22J H 0.8905 0.4995 0.3328
C23J C 0.8079(8) 0.5201(7) 0.2921(6)
H23J H 0.8296 0.5456 0.2778
H24J H 0.8184 0.4853 0.2835
H25J H 0.7717 0.5256 0.2842
C24J C 0.7890(7) 0.5724(5) 0.3540(6)
H26J H 0.8084 0.6026 0.3444
H27J H 0.7535 0.5744 0.3435
H28J H 0.7886 0.5715 0.3850
C25J C 0.6004(3) 0.2730(4) 0.7094(3)
H29J H 0.6217 0.2721 0.7349
H30J H 0.6199 0.2589 0.6856
H31J H 0.5905 0.3087 0.7033
C26J C 0.5680(5) 0.1873(4) 0.7204(3)
H32J H 0.5900 0.1832 0.7454
H33J H 0.5371 0.1659 0.7236
H34J H 0.5870 0.1765 0.6952
C27J C 0.5277(4) 0.2591(4) 0.7554(2)
H35J H 0.5460 0.2451 0.7803
H36J H 0.5288 0.2972 0.7570
N7O N 0.4470(3) 0.2586(3) 0.71625(18)
C25O C 0.3996(3) 0.2270(4) 0.7094(3)
H29O H 0.3783 0.2279 0.7349
H30O H 0.3801 0.2411 0.6856
H31O H 0.4095 0.1913 0.7033
C26O C 0.4320(5) 0.3127(4) 0.7204(3)
H32O H 0.4100 0.3168 0.7454
H33O H 0.4629 0.3341 0.7236
H34O H 0.4130 0.3235 0.6952
C27O C 0.4723(4) 0.2409(4) 0.7554(2)
H35O H 0.4540 0.2549 0.7803
H36O H 0.4712 0.2028 0.7570
Pd2O Pd 0.213805(19) 0.037747(19) 0.369774(15)
N1O N 0.2405(2) 0.1008(2) 0.40099(16)
N2O N 0.4472(2) 0.2569(2) 0.62118(16)
N3O N 0.2884(2) 0.4676(2) 0.41137(17)
N4O N 0.3316(2) 0.2261(2) 0.49643(17)
N5O N 0.3395(2) 0.3167(2) 0.50020(18)
N6O N 0.2900(2) 0.2792(2) 0.44549(18)
C1O C 0.2700(3) 0.0959(3) 0.4351(2)
H1O H 0.2771 0.0623 0.4455
C2O C 0.2910(3) 0.1379(3) 0.4562(2)
H2O H 0.3115 0.1333 0.4807
C3O C 0.2811(2) 0.1874(2) 0.4402(2)
C4O C 0.2520(3) 0.1920(3) 0.4040(2)
H3O H 0.2457 0.2250 0.3922
C5O C 0.2320(3) 0.1485(3) 0.3851(2)
H4O H 0.2118 0.1521 0.3602
C6O C 0.3017(3) 0.2337(3) 0.4621(2)
C7O C 0.4332(3) 0.3028(3) 0.6062(2)
H5O H 0.4468 0.3328 0.6193
C8O C 0.3999(3) 0.3088(3) 0.5724(2)
H6O H 0.3895 0.3421 0.5633
C9O C 0.3819(3) 0.2646(3) 0.5521(2)
C10O C 0.3974(3) 0.2170(3) 0.5672(2)
H7O H 0.3861 0.1863 0.5536
C11O C 0.4289(3) 0.2139(3) 0.6016(2)
H8O H 0.4383 0.1809 0.6121
C12O C 0.3487(3) 0.2694(3) 0.5139(2)
C13O C 0.2632(3) 0.4269(3) 0.3963(2)
H9O H 0.2411 0.4314 0.3726
C14O C 0.2680(3) 0.3783(3) 0.4137(2)
H10O H 0.2490 0.3501 0.4026
C15O C 0.3009(3) 0.3711(3) 0.4476(2)
C16O C 0.3266(3) 0.4142(3) 0.4636(2)
H11O H 0.3493 0.4109 0.4870
C17O C 0.3187(3) 0.4616(3) 0.4451(2)
H12O H 0.3354 0.4909 0.4567
C18O C 0.3102(3) 0.3195(3) 0.4655(2)
N8O N 0.1438(2) 0.0378(3) 0.40035(19)
N9O N 0.1864(2) -0.0254(2) 0.3379(2)
C19O C 0.1155(10) 0.0847(9) 0.3935(7)
H13O H 0.0787 0.0786 0.3988
H14O H 0.1281 0.1115 0.4127
H15O H 0.1202 0.0961 0.3642
C20O C 0.1485(6) 0.0456(8) 0.4484(4)
H16O H 0.1165 0.0345 0.4621
H17O H 0.1774 0.0252 0.4592
H18O H 0.1545 0.0822 0.4545
C21O C 0.1210(7) -0.0123(8) 0.3952(7)
H19O H 0.1386 -0.0380 0.4134
H20O H 0.0840 -0.0115 0.4026
C22O C 0.1280(7) -0.0251(8) 0.3503(7)
H21O H 0.1129 -0.0595 0.3446
H22O H 0.1095 0.0005 0.3328
C23O C 0.1921(8) -0.0201(7) 0.2921(6)
H23O H 0.1704 -0.0456 0.2778
H24O H 0.1816 0.0147 0.2835
H25O H 0.2283 -0.0256 0.2842
C24O C 0.2110(7) -0.0724(5) 0.3540(6)
H26O H 0.1916 -0.1026 0.3444
H27O H 0.2465 -0.0744 0.3435
H28O H 0.2114 -0.0715 0.3850
O1 O 0.5000 0.2500 0.2292(3)
C34 C 0.4527(5) 0.2649(4) 0.2917(3)
C35 C 0.4534(6) 0.3046(4) 0.3200(3)
C36 C 0.4118(8) 0.3207(5) 0.3419(3)
C37 C 0.3653(7) 0.2957(6) 0.3350(4)
C38 C 0.3627(7) 0.2550(5) 0.3080(4)
C39 C 0.4059(5) 0.2405(4) 0.2858(3)
C40 C 0.5000 0.2500 0.2668(4)
F1 F 0.4988(4) 0.3303(3) 0.32730(19)
F2 F 0.4144(4) 0.3608(3) 0.3685(2)
F3 F 0.3226(4) 0.3086(3) 0.3553(3)
F4 F 0.3175(4) 0.2294(3) 0.3011(3)
F5 F 0.4025(3) 0.2012(3) 0.2588(3)
C34E C 0.5473(5) 0.2351(4) 0.2917(3)
C35E C 0.5466(6) 0.1954(4) 0.3200(3)
C36E C 0.5882(8) 0.1793(5) 0.3419(3)
C37E C 0.6347(7) 0.2043(6) 0.3350(4)
C38E C 0.6373(7) 0.2450(5) 0.3080(4)
C39E C 0.5941(5) 0.2595(4) 0.2858(3)
F1E F 0.5012(4) 0.1697(3) 0.32730(19)
F2E F 0.5856(4) 0.1392(3) 0.3685(2)
F3E F 0.6774(4) 0.1914(3) 0.3553(3)
F4E F 0.6825(4) 0.2706(3) 0.3011(3)
F5E F 0.5975(3) 0.2988(3) 0.2588(3)
N10 N 0.3253(4) 0.3584(4) 0.2308(3)
O2 O 0.3367(3) 0.3844(3) 0.2037(2)
O3 O 0.3048(4) 0.3765(4) 0.2633(3)
O4 O 0.3357(8) 0.3139(8) 0.2293(6)
N11 N 0.6739(5) 0.4795(5) 0.1946(4)
O6 O 0.6421(5) 0.5130(5) 0.2077(4)
O7 O 0.6598(4) 0.4412(4) 0.1752(3)
O8 O 0.7194(4) 0.4851(4) 0.2016(3)
O10 O 0.3417(5) 0.8738(6) 0.3419(5)
N12 N 0.4573(8) 0.5790(8) 0.2429(6)
O12 O 0.4237(8) 0.6010(7) 0.2490(6)
O13 O 0.4912(6) 0.5686(6) 0.2620(5)
O14 O 0.4582(11) 0.5536(11) 0.2040(9)
O18 O 0.5727(13) 0.4074(12) -0.0523(10)
O19 O 0.579(3) 0.326(3) -0.107(2)
O22 O 0.6001(5) 0.5341(5) 0.4414(4)
O24 O 0.5362(6) 0.5003(6) 0.1772(5)
O25 O 0.5308(8) 0.4459(8) 0.1019(6)
O32 O 0.6727(8) 0.5859(8) 0.2614(7)
O33 O 0.4772(3) 0.6232(3) 0.3399(2)
O34 O 0.5000 0.2500 -0.1250
O35 O 0.0822(8) 0.6107(8) 0.4460(6)
O36 O 0.0035(11) 0.5201(11) 0.4625(8)
O37 O 0.5074(4) 0.5736(4) 0.4145(3)
O38 O 0.072(2) 0.481(2) 0.4756(17)
C28? C 0.3297(13) 0.6399(14) 0.3676(9)
H37? H 0.3251 0.6753 0.3575
H38? H 0.3634 0.6270 0.3584
H39? H 0.3279 0.6393 0.3985
C29? C 0.2680(13) 0.5999(11) 0.3078(8)
H40? H 0.2698 0.6329 0.2928
H41? H 0.2320 0.5885 0.3093
H42? H 0.2885 0.5741 0.2927
C30? C 0.2449(11) 0.6387(10) 0.3746(10)
H43? H 0.2611 0.6566 0.3989
H44? H 0.2301 0.6652 0.3556
C31? C 0.2036(13) 0.6048(12) 0.3899(10)
H45? H 0.1801 0.6244 0.4085
H46? H 0.1834 0.5917 0.3657
C32? C 0.2359(14) 0.5758(13) 0.4559(11)
H47? H 0.2060 0.5671 0.4735
H48? H 0.2433 0.6127 0.4586
H49? H 0.2659 0.5559 0.4653
C33? C 0.1779(10) 0.5209(11) 0.4178(10)
H50? H 0.1455 0.5388 0.4241
H51? H 0.1864 0.4975 0.4411
H52? H 0.1741 0.5011 0.3917
O5? O 0.2963(15) 0.3142(14) 0.2364(11)
O9? O 0.7223(15) 0.5130(17) 0.2186(13)
O11? O 0.3449(15) 0.8889(15) 0.3710(12)
O15? O 0.4341(14) 0.6139(15) 0.2110(12)
O16? O 0.4036(11) 0.5925(10) 0.2654(9)
O17? O 0.459(3) 0.597(3) 0.282(2)
O20? O 0.517(2) 0.411(2) -0.0673(19)
O21? O 0.5942(14) 0.3698(14) -0.0718(11)
O23? O 0.558(2) 0.542(2) 0.4596(17)
N13? N 0.5247(17) 0.4685(16) 0.1387(13)
O26? O 0.5155(13) 0.4571(13) 0.0997(10)
O27? O 0.4935(19) 0.4924(18) 0.1585(14)
O28? O 0.5770(18) 0.4778(17) 0.1481(14)
O29? O 0.564(2) 0.541(2) 0.2228(19)
O30? O 0.498(3) 0.346(3) -0.157(2)
O31? O 0.6904(15) 0.5868(15) 0.2845(13)
loop_
_geom_bond_atom_site_label_1
_geom_bond_atom_site_label_2
_geom_bond_site_symmetry_1
_geom_bond_site_symmetry_2
Pd1 N2 1_555 1_555
Pd2 N1 1_555 1_555
N1 C1 1_555 1_555
N2 C7 1_555 1_555
N3 C13 1_555 1_555
N4 C6 1_555 1_555
N5 C12 1_555 1_555
N6 C6 1_555 1_555
N7 Pd1 1_555 1_555
C1 H1 1_555 1_555
C2 C1 1_555 1_555
H2 C2 1_555 1_555
C3 C2 1_555 1_555
C4 C3 1_555 1_555
H3 C4 1_555 1_555
C5 N1 1_555 1_555
H4 C5 1_555 1_555
C6 C3 1_555 1_555
C7 H5 1_555 1_555
C8 C7 1_555 1_555
H6 C8 1_555 1_555
C9 C8 1_555 1_555
C10 C9 1_555 1_555
H7 C10 1_555 1_555
C11 N2 1_555 1_555
H8 C11 1_555 1_555
C12 N4 1_555 1_555
C13 H9 1_555 1_555
C14 C13 1_555 1_555
H10 C14 1_555 1_555
C15 C14 1_555 1_555
C16 C15 1_555 1_555
H11 C16 1_555 1_555
C17 N3 1_555 1_555
H12 C17 1_555 1_555
C18 N5 1_555 1_555
N8 Pd2 1_555 1_555
N9 Pd2 1_555 1_555
C19 N8 1_555 1_555
H13 C19 1_555 1_555
H14 C19 1_555 1_555
H15 C19 1_555 1_555
C20 N8 1_555 1_555
H16 C20 1_555 1_555
H17 C20 1_555 1_555
H18 C20 1_555 1_555
C21 N8 1_555 1_555
H19 C21 1_555 1_555
H20 C21 1_555 1_555
C22 N9 1_555 1_555
H21 C22 1_555 1_555
H22 C22 1_555 1_555
C23 N9 1_555 1_555
H23 C23 1_555 1_555
H24 C23 1_555 1_555
H25 C23 1_555 1_555
C24 N9 1_555 1_555
H26 C24 1_555 1_555
H27 C24 1_555 1_555
H28 C24 1_555 1_555
C25 N7 1_555 1_555
H29 C25 1_555 1_555
H30 C25 1_555 1_555
H31 C25 1_555 1_555
C26 N7 1_555 1_555
H32 C26 1_555 1_555
H33 C26 1_555 1_555
H34 C26 1_555 1_555
C27 N7 1_555 1_555
H35 C27 1_555 1_555
H36 C27 1_555 1_555
O1 C40 1_555 1_555
C34 C35 1_555 1_555
C35 C36 1_555 1_555
C36 C37 1_555 1_555
C37 C38 1_555 1_555
C38 C39 1_555 1_555
C39 C34 1_555 1_555
C40 C34 1_555 1_555
F1 C35 1_555 1_555
F2 C36 1_555 1_555
F3 C37 1_555 1_555
F4 C38 1_555 1_555
F5 C39 1_555 1_555
N10 O2 1_555 1_555
O3 N10 1_555 1_555
O4 N10 1_555 1_555
N11 O6 1_555 1_555
O7 N11 1_555 1_555
O8 N11 1_555 1_555
N12 O12 1_555 1_555
O13 N12 1_555 1_555
O14 N12 1_555 1_555
N7E Pd1 1_555 1_555
C25E N7E 1_555 1_555
H29E C25E 1_555 1_555
H30E C25E 1_555 1_555
H31E C25E 1_555 1_555
C26E N7E 1_555 1_555
H32E C26E 1_555 1_555
H33E C26E 1_555 1_555
H34E C26E 1_555 1_555
C27E C27 1_555 1_555
H35E C27E 1_555 1_555
H36E C27E 1_555 1_555
Pd2E N1E 1_555 1_555
N1E C1E 1_555 1_555
N2E Pd1 1_555 1_555
N3E C13E 1_555 1_555
N4E C6E 1_555 1_555
N5E C12E 1_555 1_555
N6E C6E 1_555 1_555
C1E H1E 1_555 1_555
C2E C1E 1_555 1_555
H2E C2E 1_555 1_555
C3E C2E 1_555 1_555
C4E C3E 1_555 1_555
H3E C4E 1_555 1_555
C5E N1E 1_555 1_555
H4E C5E 1_555 1_555
C6E C3E 1_555 1_555
C7E N2E 1_555 1_555
H5E C7E 1_555 1_555
C8E C7E 1_555 1_555
H6E C8E 1_555 1_555
C9E C8E 1_555 1_555
C10E C9E 1_555 1_555
H7E C10E 1_555 1_555
C11E N2E 1_555 1_555
H8E C11E 1_555 1_555
C12E N4E 1_555 1_555
C13E H9E 1_555 1_555
C14E C13E 1_555 1_555
H10E C14E 1_555 1_555
C15E C14E 1_555 1_555
C16E C15E 1_555 1_555
H11E C16E 1_555 1_555
C17E N3E 1_555 1_555
H12E C17E 1_555 1_555
C18E N5E 1_555 1_555
N8E Pd2E 1_555 1_555
N9E Pd2E 1_555 1_555
C19E N8E 1_555 1_555
H13E C19E 1_555 1_555
H14E C19E 1_555 1_555
H15E C19E 1_555 1_555
C20E N8E 1_555 1_555
H16E C20E 1_555 1_555
H17E C20E 1_555 1_555
H18E C20E 1_555 1_555
C21E N8E 1_555 1_555
H19E C21E 1_555 1_555
H20E C21E 1_555 1_555
C22E N9E 1_555 1_555
H21E C22E 1_555 1_555
H22E C22E 1_555 1_555
C23E N9E 1_555 1_555
H23E C23E 1_555 1_555
H24E C23E 1_555 1_555
H25E C23E 1_555 1_555
C24E N9E 1_555 1_555
H26E C24E 1_555 1_555
H27E C24E 1_555 1_555
H28E C24E 1_555 1_555
Pd1J N2J 1_555 1_555
Pd2J N3 1_555 1_555
N1J Pd2J 1_555 1_555
N2J C7J 1_555 1_555
N3J Pd2E 1_555 1_555
N4J C6J 1_555 1_555
N5J C12J 1_555 1_555
N6J C6J 1_555 1_555
N7J Pd1J 1_555 1_555
C1J N1J 1_555 1_555
H1J C1J 1_555 1_555
C2J C1J 1_555 1_555
H2J C2J 1_555 1_555
C3J C2J 1_555 1_555
C4J C3J 1_555 1_555
H3J C4J 1_555 1_555
C5J N1J 1_555 1_555
H4J C5J 1_555 1_555
C6J C3J 1_555 1_555
C7J H5J 1_555 1_555
C8J C7J 1_555 1_555
H6J C8J 1_555 1_555
C9J C8J 1_555 1_555
C10J C9J 1_555 1_555
H7J C10J 1_555 1_555
C11J N2J 1_555 1_555
H8J C11J 1_555 1_555
C12J N4J 1_555 1_555
C13J N3J 1_555 1_555
H9J C13J 1_555 1_555
C14J C13J 1_555 1_555
H10J C14J 1_555 1_555
C15J C14J 1_555 1_555
C16J C15J 1_555 1_555
H11J C16J 1_555 1_555
C17J N3J 1_555 1_555
H12J C17J 1_555 1_555
C18J N5J 1_555 1_555
N8J Pd2J 1_555 1_555
N9J Pd2J 1_555 1_555
C19J N8J 1_555 1_555
H13J C19J 1_555 1_555
H14J C19J 1_555 1_555
H15J C19J 1_555 1_555
C20J N8J 1_555 1_555
H16J C20J 1_555 1_555
H17J C20J 1_555 1_555
H18J C20J 1_555 1_555
C21J N8J 1_555 1_555
H19J C21J 1_555 1_555
H20J C21J 1_555 1_555
C22J N9J 1_555 1_555
H21J C22J 1_555 1_555
H22J C22J 1_555 1_555
C23J N9J 1_555 1_555
H23J C23J 1_555 1_555
H24J C23J 1_555 1_555
H25J C23J 1_555 1_555
C24J N9J 1_555 1_555
H26J C24J 1_555 1_555
H27J C24J 1_555 1_555
H28J C24J 1_555 1_555
C25J N7J 1_555 1_555
H29J C25J 1_555 1_555
H30J C25J 1_555 1_555
H31J C25J 1_555 1_555
C26J N7J 1_555 1_555
H32J C26J 1_555 1_555
H33J C26J 1_555 1_555
H34J C26J 1_555 1_555
C27J N7J 1_555 1_555
H35J C27J 1_555 1_555
H36J C27J 1_555 1_555
N7O Pd1J 1_555 1_555
C25O N7O 1_555 1_555
H29O C25O 1_555 1_555
H30O C25O 1_555 1_555
H31O C25O 1_555 1_555
C26O N7O 1_555 1_555
H32O C26O 1_555 1_555
H33O C26O 1_555 1_555
H34O C26O 1_555 1_555
C27O C27J 1_555 1_555
H35O C27O 1_555 1_555
H36O C27O 1_555 1_555
Pd2O N3E 1_555 1_555
N1O Pd2O 1_555 1_555
N2O Pd1J 1_555 1_555
N3O Pd2 1_555 1_555
N4O C6O 1_555 1_555
N5O C12O 1_555 1_555
N6O C6O 1_555 1_555
C1O N1O 1_555 1_555
H1O C1O 1_555 1_555
C2O C1O 1_555 1_555
H2O C2O 1_555 1_555
C3O C2O 1_555 1_555
C4O C3O 1_555 1_555
H3O C4O 1_555 1_555
C5O N1O 1_555 1_555
H4O C5O 1_555 1_555
C6O C3O 1_555 1_555
C7O N2O 1_555 1_555
H5O C7O 1_555 1_555
C8O C7O 1_555 1_555
H6O C8O 1_555 1_555
C9O C8O 1_555 1_555
C10O C9O 1_555 1_555
H7O C10O 1_555 1_555
C11O N2O 1_555 1_555
H8O C11O 1_555 1_555
C12O N4O 1_555 1_555
C13O N3O 1_555 1_555
H9O C13O 1_555 1_555
C14O C13O 1_555 1_555
H10O C14O 1_555 1_555
C15O C14O 1_555 1_555
C16O C15O 1_555 1_555
H11O C16O 1_555 1_555
C17O N3O 1_555 1_555
H12O C17O 1_555 1_555
C18O N5O 1_555 1_555
N8O Pd2O 1_555 1_555
N9O Pd2O 1_555 1_555
C19O N8O 1_555 1_555
H13O C19O 1_555 1_555
H14O C19O 1_555 1_555
H15O C19O 1_555 1_555
C20O N8O 1_555 1_555
H16O C20O 1_555 1_555
H17O C20O 1_555 1_555
H18O C20O 1_555 1_555
C21O N8O 1_555 1_555
H19O C21O 1_555 1_555
H20O C21O 1_555 1_555
C22O N9O 1_555 1_555
H21O C22O 1_555 1_555
H22O C22O 1_555 1_555
C23O N9O 1_555 1_555
H23O C23O 1_555 1_555
H24O C23O 1_555 1_555
H25O C23O 1_555 1_555
C24O N9O 1_555 1_555
H26O C24O 1_555 1_555
H27O C24O 1_555 1_555
H28O C24O 1_555 1_555
C34E C40 1_555 1_555
C35E C34E 1_555 1_555
C36E C35E 1_555 1_555
C37E C36E 1_555 1_555
C38E C37E 1_555 1_555
C39E C34E 1_555 1_555
F1E C35E 1_555 1_555
F2E C36E 1_555 1_555
F3E C37E 1_555 1_555
F4E C38E 1_555 1_555
F5E C39E 1_555 1_555
N6 C18 1_555 1_555
C4 C5 1_555 1_555
C9 C12 1_555 1_555
C10 C11 1_555 1_555
C15 C18 1_555 1_555
C16 C17 1_555 1_555
C21 C22 1_555 1_555
N7E C27E 1_555 1_555
N6E C18E 1_555 1_555
C4E C5E 1_555 1_555
C9E C12E 1_555 1_555
C10E C11E 1_555 1_555
C15E C18E 1_555 1_555
C16E C17E 1_555 1_555
C21E C22E 1_555 1_555
N6J C18J 1_555 1_555
C4J C5J 1_555 1_555
C9J C12J 1_555 1_555
C10J C11J 1_555 1_555
C15J C18J 1_555 1_555
C16J C17J 1_555 1_555
C21J C22J 1_555 1_555
N7O C27O 1_555 1_555
N6O C18O 1_555 1_555
C4O C5O 1_555 1_555
C9O C12O 1_555 1_555
C10O C11O 1_555 1_555
C15O C18O 1_555 1_555
C16O C17O 1_555 1_555
C21O C22O 1_555 1_555
C38E C39E 1_555 1_555

#END
