
#######################################################################
#
#                 Cambridge Crystallographic Data Centre
#                                CCDC 
#
#######################################################################
#
# If this CIF has been generated from an entry in the Cambridge 
# Structural Database, then it will include bibliographic, chemical, 
# crystal, experimental, refinement or atomic coordinate data resulting 
# from the CCDC's data processing and validation procedures.
#
#######################################################################

data_UQABIZ
_chemical_formula_moiety         
'C108 H144 N36 Pd6 12+,12(N1 O3 1-),x(H2 O1),4(C6 H3 F3)'
_chemical_name_systematic        
"tetrakis(\m-2,4,6-tris(pyridin-4-yl)-1,3,5-triazine)-hexakis(N,N,N',N'-tetramethylethane-1,2-diamine)-hexa-palladium dodecanitrate tetrakis(1,3,5-trifluorobenzene) clathrate hydrate"
_symmetry_cell_setting           tetragonal
_symmetry_space_group_name_H-M   'I 41/a'
_symmetry_Int_Tables_number      88
_space_group_name_Hall           '-I 4ad'
loop_
_symmetry_equiv_pos_site_id
_symmetry_equiv_pos_as_xyz
1 x,y,z
2 1/2-x,-y,1/2+z
3 3/4-y,1/4+x,1/4+z
4 3/4+y,3/4-x,3/4+z
5 1/2+x,1/2+y,1/2+z
6 -x,1/2-y,z
7 1/4-y,3/4+x,3/4+z
8 1/4+y,1/4-x,1/4+z
9 -x,-y,-z
10 1/2+x,y,1/2-z
11 1/4+y,3/4-x,3/4-z
12 1/4-y,1/4+x,1/4-z
13 1/2-x,1/2-y,1/2-z
14 x,1/2+y,-z
15 3/4+y,1/4-x,1/4-z
16 3/4-y,3/4+x,3/4-z
_cell_length_a                   26.059(2)
_cell_length_b                   26.059(2)
_cell_length_c                   31.879(3)
_cell_angle_alpha                90
_cell_angle_beta                 90
_cell_angle_gamma                90
_cell_volume                     21648.1
_exptl_crystal_colour            colorless
_exptl_crystal_description       Block
_cell_formula_units_Z            4
loop_
_atom_site_label
_atom_site_type_symbol
_atom_site_fract_x
_atom_site_fract_y
_atom_site_fract_z
Pd1 Pd 0.5000 0.2500 0.086662(13)
Pd2 Pd 0.714538(12) -0.035446(12) 0.376514(9)
N1 N 0.65062(14) -0.01176(14) 0.34560(11)
N2 N 0.28400(13) 0.03797(14) 0.34443(11)
N3 N 0.77868(16) -0.06001(16) 0.40822(13)
N4 N 0.71531(19) -0.10665(17) 0.34857(14)
N5 N 0.47155(15) 0.04007(16) 0.30753(13)
N6 N 0.43242(14) 0.09150(16) 0.25534(12)
N7 N 0.49232(14) 0.19758(14) 0.13361(12)
N8 N 0.49138(18) 0.19692(19) 0.03943(13)
N9 N 0.52274(14) 0.08023(16) 0.25545(12)
C1 C 0.60407(18) -0.02105(18) 0.36198(15)
H1 H 0.6015 -0.0419 0.3864
C2 C 0.55986(18) -0.00137(18) 0.34453(15)
H2 H 0.5274 -0.0082 0.3569
C3 C 0.56350(17) 0.02862(18) 0.30855(14)
C4 C 0.61147(18) 0.03787(19) 0.29150(14)
H3 H 0.6149 0.0581 0.2669
C5 C 0.65435(17) 0.01735(18) 0.31074(13)
H4 H 0.6873 0.0239 0.2991
C6 C 0.51636(17) 0.05054(18) 0.28944(14)
C7 C 0.7731(8) -0.0563(7) 0.4532(8)
H5 H 0.7994 -0.0774 0.4669
H6 H 0.7390 -0.0686 0.4613
H7 H 0.7771 -0.0205 0.4619
C8 C 0.7646(4) -0.1282(4) 0.3530(5)
H8 H 0.7893 -0.1112 0.3339
H9 H 0.7640 -0.1654 0.3467
C9 C 0.6706(9) -0.1387(9) 0.3611(7)
H10 H 0.6766 -0.1744 0.3528
H11 H 0.6396 -0.1259 0.3471
H12 H 0.6660 -0.1368 0.3916
C10 C 0.7790(5) -0.1187(4) 0.3985(4)
H13 H 0.8136 -0.1329 0.4041
H14 H 0.7542 -0.1364 0.4171
C11 C 0.7031(6) -0.1023(4) 0.2996(3)
H15 H 0.7033 -0.1367 0.2870
H16 H 0.7293 -0.0810 0.2860
H17 H 0.6693 -0.0867 0.2956
C12 C 0.8230(3) -0.0358(5) 0.3904(4)
H18 H 0.8540 -0.0498 0.4035
H19 H 0.8213 0.0013 0.3955
H20 H 0.8239 -0.0423 0.3602
C13 C 0.32577(18) 0.01712(19) 0.36161(15)
H21 H 0.3224 -0.0024 0.3866
C14 C 0.37381(19) 0.0231(2) 0.34400(16)
H22 H 0.4028 0.0072 0.3565
C15 C 0.37953(17) 0.05237(18) 0.30830(14)
C16 C 0.33612(18) 0.0734(2) 0.29041(15)
H23 H 0.3387 0.0936 0.2657
C17 C 0.28888(18) 0.0649(2) 0.30874(16)
H24 H 0.2590 0.0785 0.2957
C18 C 0.43093(17) 0.06194(19) 0.28929(14)
C19 C 0.44634(17) 0.18578(19) 0.14951(16)
H25 H 0.4165 0.2000 0.1369
C20 C 0.5098(3) 0.2228(3) 0.00005(17)
H26 H 0.4969 0.2043 -0.0249
H27 H 0.5478 0.2227 -0.0009
C21 C 0.5230(2) 0.1501(2) 0.04589(18)
H28 H 0.5202 0.1279 0.0212
H29 H 0.5106 0.1316 0.0707
H30 H 0.5589 0.1599 0.0501
C22 C 0.4361(3) 0.1817(3) 0.0358(2)
H31 H 0.4314 0.1602 0.0109
H32 H 0.4148 0.2125 0.0335
H33 H 0.4260 0.1623 0.0609
C23 C 0.44069(18) 0.1537(2) 0.18352(17)
H34 H 0.4075 0.1458 0.1939
C24 C 0.48358(17) 0.13338(18) 0.20227(14)
C25 C 0.53148(17) 0.14506(19) 0.18583(14)
H35 H 0.5617 0.1312 0.1980
C26 C 0.53430(16) 0.17719(18) 0.15155(13)
H36 H 0.5671 0.1852 0.1402
C27 C 0.47928(17) 0.09969(18) 0.23959(14)
N8E N 0.50862(18) 0.30308(19) 0.03943(13)
C20E C 0.4902(3) 0.2772(3) 0.00005(17)
H26E H 0.5031 0.2957 -0.0249
H27E H 0.4522 0.2773 -0.0009
C21E C 0.4770(2) 0.3499(2) 0.04589(18)
H28E H 0.4798 0.3721 0.0212
H29E H 0.4894 0.3684 0.0707
H30E H 0.4411 0.3401 0.0501
C22E C 0.5639(3) 0.3183(3) 0.0358(2)
H31E H 0.5686 0.3398 0.0109
H32E H 0.5852 0.2875 0.0335
H33E H 0.5740 0.3377 0.0609
Pd2E Pd 0.285462(12) 0.535446(12) 0.376514(9)
N1E N 0.34938(14) 0.51176(14) 0.34560(11)
N2E N 0.71600(13) 0.46203(14) 0.34443(11)
N3E N 0.22132(16) 0.56001(16) 0.40822(13)
N4E N 0.28469(19) 0.60665(17) 0.34857(14)
N5E N 0.52845(15) 0.45993(16) 0.30753(13)
N6E N 0.56758(14) 0.40850(16) 0.25534(12)
N7E N 0.50768(14) 0.30242(14) 0.13361(12)
N9E N 0.47726(14) 0.41977(16) 0.25545(12)
C1E C 0.39593(18) 0.52105(18) 0.36198(15)
H1E H 0.3985 0.5419 0.3864
C2E C 0.44014(18) 0.50137(18) 0.34453(15)
H2E H 0.4726 0.5082 0.3569
C3E C 0.43650(17) 0.47138(18) 0.30855(14)
C4E C 0.38853(18) 0.46213(19) 0.29150(14)
H3E H 0.3851 0.4419 0.2669
C5E C 0.34565(17) 0.48265(18) 0.31074(13)
H4E H 0.3127 0.4761 0.2991
C6E C 0.48364(17) 0.44946(18) 0.28944(14)
C7E C 0.2269(8) 0.5563(7) 0.4532(8)
H5E H 0.2006 0.5774 0.4669
H6E H 0.2610 0.5686 0.4613
H7E H 0.2229 0.5205 0.4619
C8E C 0.2354(4) 0.6282(4) 0.3530(5)
H8E H 0.2107 0.6112 0.3339
H9E H 0.2360 0.6654 0.3467
C9E C 0.3294(9) 0.6387(9) 0.3611(7)
H10E H 0.3234 0.6744 0.3528
H11E H 0.3604 0.6259 0.3471
H12E H 0.3340 0.6368 0.3916
C10E C 0.2210(5) 0.6187(4) 0.3985(4)
H13E H 0.1864 0.6329 0.4041
H14E H 0.2458 0.6364 0.4171
C11E C 0.2969(6) 0.6023(4) 0.2996(3)
H15E H 0.2967 0.6367 0.2870
H16E H 0.2707 0.5810 0.2860
H17E H 0.3307 0.5867 0.2956
C12E C 0.1770(3) 0.5358(5) 0.3904(4)
H18E H 0.1460 0.5498 0.4035
H19E H 0.1787 0.4987 0.3955
H20E H 0.1761 0.5423 0.3602
C13E C 0.67423(18) 0.48288(19) 0.36161(15)
H21E H 0.6776 0.5024 0.3866
C14E C 0.62619(19) 0.4769(2) 0.34400(16)
H22E H 0.5972 0.4928 0.3565
C15E C 0.62047(17) 0.44763(18) 0.30830(14)
C16E C 0.66388(18) 0.4266(2) 0.29041(15)
H23E H 0.6613 0.4064 0.2657
C17E C 0.71112(18) 0.4351(2) 0.30874(16)
H24E H 0.7410 0.4215 0.2957
C18E C 0.56907(17) 0.43806(19) 0.28929(14)
C19E C 0.55366(17) 0.31422(19) 0.14951(16)
H25E H 0.5835 0.3000 0.1369
C23E C 0.55931(18) 0.3463(2) 0.18352(17)
H34E H 0.5925 0.3542 0.1939
C24E C 0.51642(17) 0.36662(18) 0.20227(14)
C25E C 0.46852(17) 0.35494(19) 0.18583(14)
H35E H 0.4383 0.3688 0.1980
C26E C 0.46570(16) 0.32281(18) 0.15155(13)
H36E H 0.4329 0.3148 0.1402
C27E C 0.52072(17) 0.40031(18) 0.23959(14)
Pd1J Pd 0.5000 0.2500 0.663338(13)
Pd2J Pd 0.214554(12) 0.035462(12) 0.373486(9)
N1J N 0.23824(14) 0.09938(14) 0.40440(11)
N2J N 0.28797(14) 0.46600(13) 0.40557(11)
N3J N 0.18999(16) -0.02868(16) 0.34178(13)
N4J N 0.14335(17) 0.03469(19) 0.40143(14)
N5J N 0.29007(16) 0.27845(15) 0.44247(13)
N6J N 0.34150(16) 0.31758(14) 0.49466(12)
N7J N 0.44758(14) 0.25768(14) 0.61639(12)
N8J N 0.44692(19) 0.25862(18) 0.71057(13)
N9J N 0.33023(16) 0.22726(14) 0.49455(12)
C1J C 0.22895(18) 0.14593(18) 0.38802(15)
H1J H 0.2081 0.1485 0.3636
C2J C 0.24863(18) 0.19014(18) 0.40547(15)
H2J H 0.2418 0.2226 0.3931
C3J C 0.27862(18) 0.18650(17) 0.44145(14)
C4J C 0.28787(19) 0.13853(18) 0.45850(14)
H3J H 0.3081 0.1351 0.4831
C5J C 0.26735(18) 0.09565(17) 0.43926(13)
H4J H 0.2739 0.0627 0.4509
C6J C 0.30054(18) 0.23364(17) 0.46056(14)
C7J C 0.1937(7) -0.0231(8) 0.2968(8)
H5J H 0.1726 -0.0494 0.2831
H6J H 0.1814 0.0110 0.2887
H7J H 0.2295 -0.0271 0.2881
C8J C 0.1218(4) -0.0146(4) 0.3970(5)
H8J H 0.1388 -0.0393 0.4161
H9J H 0.0846 -0.0140 0.4033
C9J C 0.1113(9) 0.0794(9) 0.3889(7)
H10J H 0.0756 0.0734 0.3972
H11J H 0.1241 0.1104 0.4029
H12J H 0.1132 0.0840 0.3584
C10J C 0.1313(4) -0.0290(5) 0.3515(4)
H13J H 0.1171 -0.0636 0.3459
H14J H 0.1136 -0.0042 0.3329
C11J C 0.1477(4) 0.0469(6) 0.4504(3)
H15J H 0.1133 0.0467 0.4630
H16J H 0.1690 0.0207 0.4640
H17J H 0.1633 0.0807 0.4544
C12J C 0.2142(5) -0.0730(3) 0.3596(4)
H18J H 0.2002 -0.1040 0.3465
H19J H 0.2513 -0.0713 0.3545
H20J H 0.2077 -0.0739 0.3898
C13J C 0.26712(19) 0.42423(18) 0.38839(15)
H21J H 0.2476 0.4276 0.3634
C14J C 0.2731(2) 0.37619(19) 0.40600(16)
H22J H 0.2572 0.3472 0.3935
C15J C 0.30237(18) 0.37047(17) 0.44170(14)
C16J C 0.3234(2) 0.41388(18) 0.45959(15)
H23J H 0.3436 0.4113 0.4843
C17J C 0.3149(2) 0.46112(18) 0.44126(16)
H24J H 0.3285 0.4910 0.4543
C18J C 0.31194(19) 0.31907(17) 0.46071(14)
C19J C 0.43578(19) 0.30366(17) 0.60049(16)
H25J H 0.4500 0.3335 0.6131
C20J C 0.4728(3) 0.2402(3) 0.74995(17)
H26J H 0.4543 0.2531 0.7749
H27J H 0.4727 0.2022 0.7509
C21J C 0.4001(2) 0.2270(2) 0.70411(18)
H28J H 0.3779 0.2298 0.7288
H29J H 0.3816 0.2394 0.6793
H30J H 0.4099 0.1911 0.6999
C22J C 0.4317(3) 0.3139(3) 0.7142(2)
H31J H 0.4102 0.3186 0.7391
H32J H 0.4625 0.3352 0.7165
H33J H 0.4123 0.3240 0.6891
C23J C 0.4037(2) 0.30931(18) 0.56648(17)
H34J H 0.3958 0.3425 0.5561
C24J C 0.38338(18) 0.26642(17) 0.54773(14)
C25J C 0.39506(19) 0.21852(17) 0.56417(14)
H35J H 0.3812 0.1883 0.5520
C26J C 0.42719(18) 0.21570(16) 0.59845(13)
H36J H 0.4352 0.1829 0.6098
C27J C 0.34969(18) 0.27072(17) 0.51041(14)
N8O N 0.55308(19) 0.24138(18) 0.71057(13)
C20O C 0.5272(3) 0.2598(3) 0.74995(17)
H26O H 0.5457 0.2469 0.7749
H27O H 0.5273 0.2978 0.7509
C21O C 0.5999(2) 0.2730(2) 0.70411(18)
H28O H 0.6221 0.2702 0.7288
H29O H 0.6184 0.2606 0.6793
H30O H 0.5901 0.3089 0.6999
C22O C 0.5683(3) 0.1861(3) 0.7142(2)
H31O H 0.5898 0.1814 0.7391
H32O H 0.5375 0.1648 0.7165
H33O H 0.5877 0.1760 0.6891
Pd2O Pd 0.785446(12) 0.464538(12) 0.373486(9)
N1O N 0.76176(14) 0.40062(14) 0.40440(11)
N2O N 0.71203(14) 0.03400(13) 0.40557(11)
N3O N 0.81001(16) 0.52868(16) 0.34178(13)
N4O N 0.85665(17) 0.46531(19) 0.40143(14)
N5O N 0.70993(16) 0.22155(15) 0.44247(13)
N6O N 0.65850(16) 0.18242(14) 0.49466(12)
N7O N 0.55242(14) 0.24232(14) 0.61639(12)
N9O N 0.66977(16) 0.27274(14) 0.49455(12)
C1O C 0.77105(18) 0.35407(18) 0.38802(15)
H1O H 0.7919 0.3515 0.3636
C2O C 0.75137(18) 0.30986(18) 0.40547(15)
H2O H 0.7582 0.2774 0.3931
C3O C 0.72138(18) 0.31350(17) 0.44145(14)
C4O C 0.71213(19) 0.36147(18) 0.45850(14)
H3O H 0.6919 0.3649 0.4831
C5O C 0.73265(18) 0.40435(17) 0.43926(13)
H4O H 0.7261 0.4373 0.4509
C6O C 0.69946(18) 0.26636(17) 0.46056(14)
C7O C 0.8063(7) 0.5231(8) 0.2968(8)
H5O H 0.8274 0.5494 0.2831
H6O H 0.8186 0.4890 0.2887
H7O H 0.7705 0.5271 0.2881
C8O C 0.8782(4) 0.5146(4) 0.3970(5)
H8O H 0.8612 0.5393 0.4161
H9O H 0.9154 0.5140 0.4033
C9O C 0.8887(9) 0.4206(9) 0.3889(7)
H10O H 0.9244 0.4266 0.3972
H11O H 0.8759 0.3896 0.4029
H12O H 0.8868 0.4160 0.3584
C10O C 0.8687(4) 0.5290(5) 0.3515(4)
H13O H 0.8829 0.5636 0.3459
H14O H 0.8864 0.5042 0.3329
C11O C 0.8523(4) 0.4531(6) 0.4504(3)
H15O H 0.8867 0.4533 0.4630
H16O H 0.8310 0.4793 0.4640
H17O H 0.8367 0.4193 0.4544
C12O C 0.7858(5) 0.5730(3) 0.3596(4)
H18O H 0.7998 0.6040 0.3465
H19O H 0.7487 0.5713 0.3545
H20O H 0.7923 0.5739 0.3898
C13O C 0.73288(19) 0.07577(18) 0.38839(15)
H21O H 0.7524 0.0724 0.3634
C14O C 0.7269(2) 0.12381(19) 0.40600(16)
H22O H 0.7428 0.1528 0.3935
C15O C 0.69763(18) 0.12953(17) 0.44170(14)
C16O C 0.6766(2) 0.08612(18) 0.45959(15)
H23O H 0.6564 0.0887 0.4843
C17O C 0.6851(2) 0.03888(18) 0.44126(16)
H24O H 0.6715 0.0090 0.4543
C18O C 0.68806(19) 0.18093(17) 0.46071(14)
C19O C 0.56422(19) 0.19634(17) 0.60049(16)
H25O H 0.5500 0.1665 0.6131
C23O C 0.5963(2) 0.19069(18) 0.56648(17)
H34O H 0.6042 0.1575 0.5561
C24O C 0.61662(18) 0.23358(17) 0.54773(14)
C25O C 0.60494(19) 0.28148(17) 0.56417(14)
H35O H 0.6188 0.3117 0.5520
C26O C 0.57281(18) 0.28430(16) 0.59845(13)
H36O H 0.5648 0.3171 0.6098
C27O C 0.65031(18) 0.22928(17) 0.51041(14)
C34 C 0.6409(5) 0.1904(4) 0.3170(4)
C35 C 0.6053(4) 0.1937(4) 0.2855(3)
H53 H 0.5827 0.1662 0.2790
C36 C 0.6042(5) 0.2391(5) 0.2638(3)
C37 C 0.6390(5) 0.2783(4) 0.2700(4)
H54 H 0.6381 0.3087 0.2535
C38 C 0.6751(6) 0.2714(5) 0.3010(5)
C39 C 0.6753(6) 0.2269(4) 0.3256(4)
H55 H 0.6994 0.2227 0.3478
F1 F 0.6416(4) 0.1449(3) 0.3391(2)
F2 F 0.5684(3) 0.2450(3) 0.2332(3)
F3 F 0.7075(5) 0.3080(3) 0.3088(4)
N10 N 0.8541(4) -0.1741(4) 0.4971(3)
O1 O 0.8459(5) -0.1433(7) 0.5164(4)
O2 O 0.8739(6) -0.1700(7) 0.4598(4)
O3 O 0.8337(6) -0.2144(5) 0.5046(5)
O4 O 0.9324(6) -0.0814(7) 0.4502(5)
N11 N 0.7181(11) -0.2794(8) 0.3869(9)
O8 O 0.7443(8) -0.2433(6) 0.4013(7)
O9 O 0.6932(9) -0.2747(9) 0.3541(6)
O10 O 0.7185(11) -0.3256(9) 0.3990(12)
O11 O 0.7779(7) -0.2885(7) 0.4713(6)
N12 N 0.8255(5) 0.0206(7) 0.3019(6)
O14 O 0.7785(5) 0.0120(11) 0.2960(7)
O15 O 0.8406(6) 0.0621(7) 0.3210(5)
O16 O 0.8589(5) -0.0112(7) 0.2877(5)
O17 O 0.8435(15) -0.0899(14) 0.2421(12)
N13 N 0.6121(3) -0.0640(3) 0.4764(3)
O21 O 0.6296(4) -0.0908(3) 0.4522(3)
O22 O 0.5735(4) -0.0378(4) 0.4742(3)
O23 O 0.6401(3) -0.0472(3) 0.5080(2)
O24 O 0.6030(5) 0.0390(5) 0.5519(4)
O28 O 0.8621(7) 0.1051(7) 0.3867(5)
O29 O 0.8195(3) 0.2441(3) 0.3350(3)
O31 O 0.4125(8) 0.2492(8) -0.0844(7)
O33 O 0.8846(5) -0.1535(5) 0.3201(4)
O34 O 0.87630(16) -0.2249(2) 0.59369(15)
O35 O 0.3471(11) 0.2026(10) -0.1133(9)
O36 O 0.8465(15) -0.2364(15) 0.3392(12)
O37 O 0.5000 0.2500 -0.1250
O38 O 0.9249(5) 0.0275(5) 0.4658(4)
O39 O 0.8154(7) -0.2108(7) 0.2864(6)
loop_
_geom_bond_atom_site_label_1
_geom_bond_atom_site_label_2
_geom_bond_site_symmetry_1
_geom_bond_site_symmetry_2
Pd1 N7 1_555 1_555
Pd2 N1 1_555 1_555
N1 C1 1_555 1_555
N2 C13 1_555 1_555
N3 Pd2 1_555 1_555
N4 Pd2 1_555 1_555
N5 C6 1_555 1_555
N6 C18 1_555 1_555
N7 C19 1_555 1_555
N8 Pd1 1_555 1_555
N9 C6 1_555 1_555
C1 H1 1_555 1_555
C2 C1 1_555 1_555
H2 C2 1_555 1_555
C3 C2 1_555 1_555
C4 C3 1_555 1_555
H3 C4 1_555 1_555
C5 N1 1_555 1_555
H4 C5 1_555 1_555
C6 C3 1_555 1_555
C7 N3 1_555 1_555
H5 C7 1_555 1_555
H6 C7 1_555 1_555
H7 C7 1_555 1_555
C8 N4 1_555 1_555
H8 C8 1_555 1_555
H9 C8 1_555 1_555
C9 N4 1_555 1_555
H10 C9 1_555 1_555
H11 C9 1_555 1_555
H12 C9 1_555 1_555
C10 N3 1_555 1_555
H13 C10 1_555 1_555
H14 C10 1_555 1_555
C11 N4 1_555 1_555
H15 C11 1_555 1_555
H16 C11 1_555 1_555
H17 C11 1_555 1_555
C12 N3 1_555 1_555
H18 C12 1_555 1_555
H19 C12 1_555 1_555
H20 C12 1_555 1_555
C13 H21 1_555 1_555
C14 C13 1_555 1_555
H22 C14 1_555 1_555
C15 C14 1_555 1_555
C16 C15 1_555 1_555
H23 C16 1_555 1_555
C17 N2 1_555 1_555
H24 C17 1_555 1_555
C18 N5 1_555 1_555
C19 H25 1_555 1_555
C20 N8 1_555 1_555
H26 C20 1_555 1_555
H27 C20 1_555 1_555
C21 N8 1_555 1_555
H28 C21 1_555 1_555
H29 C21 1_555 1_555
H30 C21 1_555 1_555
C22 N8 1_555 1_555
H31 C22 1_555 1_555
H32 C22 1_555 1_555
H33 C22 1_555 1_555
C23 C19 1_555 1_555
H34 C23 1_555 1_555
C24 C23 1_555 1_555
C25 C24 1_555 1_555
H35 C25 1_555 1_555
C26 N7 1_555 1_555
H36 C26 1_555 1_555
C27 N6 1_555 1_555
C34 C35 1_555 1_555
C35 H53 1_555 1_555
C36 C35 1_555 1_555
C37 C36 1_555 1_555
H54 C37 1_555 1_555
C38 C37 1_555 1_555
C39 C34 1_555 1_555
H55 C39 1_555 1_555
F1 C34 1_555 1_555
F2 C36 1_555 1_555
F3 C38 1_555 1_555
N10 O1 1_555 1_555
O2 N10 1_555 1_555
O3 N10 1_555 1_555
N11 O8 1_555 1_555
O9 N11 1_555 1_555
O10 N11 1_555 1_555
N12 O14 1_555 1_555
O15 N12 1_555 1_555
O16 N12 1_555 1_555
N13 O21 1_555 1_555
O22 N13 1_555 1_555
O23 N13 1_555 1_555
N8E Pd1 1_555 1_555
C20E C20 1_555 1_555
H26E C20E 1_555 1_555
H27E C20E 1_555 1_555
C21E N8E 1_555 1_555
H28E C21E 1_555 1_555
H29E C21E 1_555 1_555
H30E C21E 1_555 1_555
C22E N8E 1_555 1_555
H31E C22E 1_555 1_555
H32E C22E 1_555 1_555
H33E C22E 1_555 1_555
Pd2E N1E 1_555 1_555
N1E C1E 1_555 1_555
N2E C13E 1_555 1_555
N3E Pd2E 1_555 1_555
N4E Pd2E 1_555 1_555
N5E C6E 1_555 1_555
N6E C18E 1_555 1_555
N7E Pd1 1_555 1_555
N9E C6E 1_555 1_555
C1E H1E 1_555 1_555
C2E C1E 1_555 1_555
H2E C2E 1_555 1_555
C3E C2E 1_555 1_555
C4E C3E 1_555 1_555
H3E C4E 1_555 1_555
C5E N1E 1_555 1_555
H4E C5E 1_555 1_555
C6E C3E 1_555 1_555
C7E N3E 1_555 1_555
H5E C7E 1_555 1_555
H6E C7E 1_555 1_555
H7E C7E 1_555 1_555
C8E N4E 1_555 1_555
H8E C8E 1_555 1_555
H9E C8E 1_555 1_555
C9E N4E 1_555 1_555
H10E C9E 1_555 1_555
H11E C9E 1_555 1_555
H12E C9E 1_555 1_555
C10E N3E 1_555 1_555
H13E C10E 1_555 1_555
H14E C10E 1_555 1_555
C11E N4E 1_555 1_555
H15E C11E 1_555 1_555
H16E C11E 1_555 1_555
H17E C11E 1_555 1_555
C12E N3E 1_555 1_555
H18E C12E 1_555 1_555
H19E C12E 1_555 1_555
H20E C12E 1_555 1_555
C13E H21E 1_555 1_555
C14E C13E 1_555 1_555
H22E C14E 1_555 1_555
C15E C14E 1_555 1_555
C16E C15E 1_555 1_555
H23E C16E 1_555 1_555
C17E N2E 1_555 1_555
H24E C17E 1_555 1_555
C18E N5E 1_555 1_555
C19E N7E 1_555 1_555
H25E C19E 1_555 1_555
C23E C19E 1_555 1_555
H34E C23E 1_555 1_555
C24E C23E 1_555 1_555
C25E C24E 1_555 1_555
H35E C25E 1_555 1_555
C26E N7E 1_555 1_555
H36E C26E 1_555 1_555
C27E N6E 1_555 1_555
Pd1J N7J 1_555 1_555
Pd2J N2 1_555 1_555
N1J Pd2J 1_555 1_555
N2J Pd2E 1_555 1_555
N3J Pd2J 1_555 1_555
N4J Pd2J 1_555 1_555
N5J C6J 1_555 1_555
N6J C18J 1_555 1_555
N7J C19J 1_555 1_555
N8J Pd1J 1_555 1_555
N9J C6J 1_555 1_555
C1J N1J 1_555 1_555
H1J C1J 1_555 1_555
C2J C1J 1_555 1_555
H2J C2J 1_555 1_555
C3J C2J 1_555 1_555
C4J C3J 1_555 1_555
H3J C4J 1_555 1_555
C5J N1J 1_555 1_555
H4J C5J 1_555 1_555
C6J C3J 1_555 1_555
C7J N3J 1_555 1_555
H5J C7J 1_555 1_555
H6J C7J 1_555 1_555
H7J C7J 1_555 1_555
C8J N4J 1_555 1_555
H8J C8J 1_555 1_555
H9J C8J 1_555 1_555
C9J N4J 1_555 1_555
H10J C9J 1_555 1_555
H11J C9J 1_555 1_555
H12J C9J 1_555 1_555
C10J N3J 1_555 1_555
H13J C10J 1_555 1_555
H14J C10J 1_555 1_555
C11J N4J 1_555 1_555
H15J C11J 1_555 1_555
H16J C11J 1_555 1_555
H17J C11J 1_555 1_555
C12J N3J 1_555 1_555
H18J C12J 1_555 1_555
H19J C12J 1_555 1_555
H20J C12J 1_555 1_555
C13J N2J 1_555 1_555
H21J C13J 1_555 1_555
C14J C13J 1_555 1_555
H22J C14J 1_555 1_555
C15J C14J 1_555 1_555
C16J C15J 1_555 1_555
H23J C16J 1_555 1_555
C17J N2J 1_555 1_555
H24J C17J 1_555 1_555
C18J N5J 1_555 1_555
C19J H25J 1_555 1_555
C20J N8J 1_555 1_555
H26J C20J 1_555 1_555
H27J C20J 1_555 1_555
C21J N8J 1_555 1_555
H28J C21J 1_555 1_555
H29J C21J 1_555 1_555
H30J C21J 1_555 1_555
C22J N8J 1_555 1_555
H31J C22J 1_555 1_555
H32J C22J 1_555 1_555
H33J C22J 1_555 1_555
C23J C19J 1_555 1_555
H34J C23J 1_555 1_555
C24J C23J 1_555 1_555
C25J C24J 1_555 1_555
H35J C25J 1_555 1_555
C26J N7J 1_555 1_555
H36J C26J 1_555 1_555
C27J N6J 1_555 1_555
N8O Pd1J 1_555 1_555
C20O C20J 1_555 1_555
H26O C20O 1_555 1_555
H27O C20O 1_555 1_555
C21O N8O 1_555 1_555
H28O C21O 1_555 1_555
H29O C21O 1_555 1_555
H30O C21O 1_555 1_555
C22O N8O 1_555 1_555
H31O C22O 1_555 1_555
H32O C22O 1_555 1_555
H33O C22O 1_555 1_555
Pd2O N2E 1_555 1_555
N1O Pd2O 1_555 1_555
N2O Pd2 1_555 1_555
N3O Pd2O 1_555 1_555
N4O Pd2O 1_555 1_555
N5O C6O 1_555 1_555
N6O C18O 1_555 1_555
N7O Pd1J 1_555 1_555
N9O C6O 1_555 1_555
C1O N1O 1_555 1_555
H1O C1O 1_555 1_555
C2O C1O 1_555 1_555
H2O C2O 1_555 1_555
C3O C2O 1_555 1_555
C4O C3O 1_555 1_555
H3O C4O 1_555 1_555
C5O N1O 1_555 1_555
H4O C5O 1_555 1_555
C6O C3O 1_555 1_555
C7O N3O 1_555 1_555
H5O C7O 1_555 1_555
H6O C7O 1_555 1_555
H7O C7O 1_555 1_555
C8O N4O 1_555 1_555
H8O C8O 1_555 1_555
H9O C8O 1_555 1_555
C9O N4O 1_555 1_555
H10O C9O 1_555 1_555
H11O C9O 1_555 1_555
H12O C9O 1_555 1_555
C10O N3O 1_555 1_555
H13O C10O 1_555 1_555
H14O C10O 1_555 1_555
C11O N4O 1_555 1_555
H15O C11O 1_555 1_555
H16O C11O 1_555 1_555
H17O C11O 1_555 1_555
C12O N3O 1_555 1_555
H18O C12O 1_555 1_555
H19O C12O 1_555 1_555
H20O C12O 1_555 1_555
C13O N2O 1_555 1_555
H21O C13O 1_555 1_555
C14O C13O 1_555 1_555
H22O C14O 1_555 1_555
C15O C14O 1_555 1_555
C16O C15O 1_555 1_555
H23O C16O 1_555 1_555
C17O N2O 1_555 1_555
H24O C17O 1_555 1_555
C18O N5O 1_555 1_555
C19O N7O 1_555 1_555
H25O C19O 1_555 1_555
C23O C19O 1_555 1_555
H34O C23O 1_555 1_555
C24O C23O 1_555 1_555
C25O C24O 1_555 1_555
H35O C25O 1_555 1_555
C26O N7O 1_555 1_555
H36O C26O 1_555 1_555
C27O N6O 1_555 1_555
N9 C27 1_555 1_555
C4 C5 1_555 1_555
C8 C10 1_555 1_555
C15 C18 1_555 1_555
C16 C17 1_555 1_555
C24 C27 1_555 1_555
C25 C26 1_555 1_555
C38 C39 1_555 1_555
N8E C20E 1_555 1_555
N9E C27E 1_555 1_555
C4E C5E 1_555 1_555
C8E C10E 1_555 1_555
C15E C18E 1_555 1_555
C16E C17E 1_555 1_555
C24E C27E 1_555 1_555
C25E C26E 1_555 1_555
N9J C27J 1_555 1_555
C4J C5J 1_555 1_555
C8J C10J 1_555 1_555
C15J C18J 1_555 1_555
C16J C17J 1_555 1_555
C24J C27J 1_555 1_555
C25J C26J 1_555 1_555
N8O C20O 1_555 1_555
N9O C27O 1_555 1_555
C4O C5O 1_555 1_555
C8O C10O 1_555 1_555
C15O C18O 1_555 1_555
C16O C17O 1_555 1_555
C24O C27O 1_555 1_555
C25O C26O 1_555 1_555

#END
