# generated using pymatgen
data_H208Pd6C184N56O157F48
_symmetry_space_group_name_H-M   'P 1'
_cell_length_a   26.03700000
_cell_length_b   26.03700000
_cell_length_c   31.48400000
_cell_angle_alpha   90.00000000
_cell_angle_beta   90.00000000
_cell_angle_gamma   90.00000000
_symmetry_Int_Tables_number   1
_chemical_formula_structural   H208Pd6C184N56O157F48
_chemical_formula_sum   'H832 Pd24 C736 N224 O628 F192'
_cell_volume   21343.80231760
_cell_formula_units_Z   4
loop_
 _symmetry_equiv_pos_site_id
 _symmetry_equiv_pos_as_xyz
  1  'x, y, z'
loop_
 _atom_site_type_symbol
 _atom_site_label
 _atom_site_symmetry_multiplicity
 _atom_site_fract_x
 _atom_site_fract_y
 _atom_site_fract_z
 _atom_site_occupancy
  H  H1  1  0.675600  0.118700  0.402200  1
  H  H2  1  0.824400  0.881300  0.902200  1
  H  H3  1  0.631300  0.925600  0.652200  1
  H  H4  1  0.868700  0.074400  0.152200  1
  H  H5  1  0.175600  0.618700  0.902200  1
  H  H6  1  0.324400  0.381300  0.402200  1
  H  H7  1  0.131300  0.425600  0.152200  1
  H  H8  1  0.368700  0.574400  0.652200  1
  H  H9  1  0.324400  0.881300  0.597800  1
  H  H10  1  0.175600  0.118700  0.097800  1
  H  H11  1  0.368700  0.074400  0.347800  1
  H  H12  1  0.131300  0.925600  0.847800  1
  H  H13  1  0.824400  0.381300  0.097800  1
  H  H14  1  0.675600  0.618700  0.597800  1
  H  H15  1  0.868700  0.574400  0.847800  1
  H  H16  1  0.631300  0.425600  0.347800  1
  H  H17  1  0.685900  0.086700  0.359300  1
  H  H18  1  0.814100  0.913300  0.859300  1
  H  H19  1  0.663300  0.935900  0.609300  1
  H  H20  1  0.836700  0.064100  0.109300  1
  H  H21  1  0.185900  0.586700  0.859300  1
  H  H22  1  0.314100  0.413300  0.359300  1
  H  H23  1  0.163300  0.435900  0.109300  1
  H  H24  1  0.336700  0.564100  0.609300  1
  H  H25  1  0.314100  0.913300  0.640700  1
  H  H26  1  0.185900  0.086700  0.140700  1
  H  H27  1  0.336700  0.064100  0.390700  1
  H  H28  1  0.163300  0.935900  0.890700  1
  H  H29  1  0.814100  0.413300  0.140700  1
  H  H30  1  0.685900  0.586700  0.640700  1
  H  H31  1  0.836700  0.564100  0.890700  1
  H  H32  1  0.663300  0.435900  0.390700  1
  H  H33  1  0.760000  0.149600  0.401000  1
  H  H34  1  0.740000  0.850400  0.901000  1
  H  H35  1  0.600400  0.010000  0.651000  1
  H  H36  1  0.899600  0.990000  0.151000  1
  H  H37  1  0.260000  0.649600  0.901000  1
  H  H38  1  0.240000  0.350400  0.401000  1
  H  H39  1  0.100400  0.510000  0.151000  1
  H  H40  1  0.399600  0.490000  0.651000  1
  H  H41  1  0.240000  0.850400  0.599000  1
  H  H42  1  0.260000  0.149600  0.099000  1
  H  H43  1  0.399600  0.990000  0.349000  1
  H  H44  1  0.100400  0.010000  0.849000  1
  H  H45  1  0.740000  0.350400  0.099000  1
  H  H46  1  0.760000  0.649600  0.599000  1
  H  H47  1  0.899600  0.490000  0.849000  1
  H  H48  1  0.600400  0.510000  0.349000  1
  H  H49  1  0.731900  0.164500  0.357400  1
  H  H50  1  0.768100  0.835500  0.857400  1
  H  H51  1  0.585500  0.981900  0.607400  1
  H  H52  1  0.914500  0.018100  0.107400  1
  H  H53  1  0.231900  0.664500  0.857400  1
  H  H54  1  0.268100  0.335500  0.357400  1
  H  H55  1  0.085500  0.481900  0.107400  1
  H  H56  1  0.414500  0.518100  0.607400  1
  H  H57  1  0.268100  0.835500  0.642600  1
  H  H58  1  0.231900  0.164500  0.142600  1
  H  H59  1  0.414500  0.018100  0.392600  1
  H  H60  1  0.085500  0.981900  0.892600  1
  H  H61  1  0.768100  0.335500  0.142600  1
  H  H62  1  0.731900  0.664500  0.642600  1
  H  H63  1  0.914500  0.518100  0.892600  1
  H  H64  1  0.585500  0.481900  0.392600  1
  H  H65  1  0.672000  0.000500  0.387900  1
  H  H66  1  0.828000  0.999500  0.887900  1
  H  H67  1  0.749500  0.922000  0.637900  1
  H  H68  1  0.750500  0.078000  0.137900  1
  H  H69  1  0.172000  0.500500  0.887900  1
  H  H70  1  0.328000  0.499500  0.387900  1
  H  H71  1  0.249500  0.422000  0.137900  1
  H  H72  1  0.250500  0.578000  0.637900  1
  H  H73  1  0.328000  0.999500  0.612100  1
  H  H74  1  0.172000  0.000500  0.112100  1
  H  H75  1  0.250500  0.078000  0.362100  1
  H  H76  1  0.249500  0.922000  0.862100  1
  H  H77  1  0.828000  0.499500  0.112100  1
  H  H78  1  0.672000  0.500500  0.612100  1
  H  H79  1  0.750500  0.578000  0.862100  1
  H  H80  1  0.749500  0.422000  0.362100  1
  H  H81  1  0.651600  0.027800  0.430200  1
  H  H82  1  0.848400  0.972200  0.930200  1
  H  H83  1  0.722200  0.901600  0.680200  1
  H  H84  1  0.777800  0.098400  0.180200  1
  H  H85  1  0.151600  0.527800  0.930200  1
  H  H86  1  0.348400  0.472200  0.430200  1
  H  H87  1  0.222200  0.401600  0.180200  1
  H  H88  1  0.277800  0.598400  0.680200  1
  H  H89  1  0.348400  0.972200  0.569800  1
  H  H90  1  0.151600  0.027800  0.069800  1
  H  H91  1  0.277800  0.098400  0.319800  1
  H  H92  1  0.222200  0.901600  0.819800  1
  H  H93  1  0.848400  0.472200  0.069800  1
  H  H94  1  0.651600  0.527800  0.569800  1
  H  H95  1  0.777800  0.598400  0.819800  1
  H  H96  1  0.722200  0.401600  0.319800  1
  H  H97  1  0.697100  0.986600  0.432900  1
  H  H98  1  0.802900  0.013400  0.932900  1
  H  H99  1  0.763400  0.947100  0.682900  1
  H  H100  1  0.736600  0.052900  0.182900  1
  H  H101  1  0.197100  0.486600  0.932900  1
  H  H102  1  0.302900  0.513400  0.432900  1
  H  H103  1  0.263400  0.447100  0.182900  1
  H  H104  1  0.236600  0.552900  0.682900  1
  H  H105  1  0.302900  0.013400  0.567100  1
  H  H106  1  0.197100  0.986600  0.067100  1
  H  H107  1  0.236600  0.052900  0.317100  1
  H  H108  1  0.263400  0.947100  0.817100  1
  H  H109  1  0.802900  0.513400  0.067100  1
  H  H110  1  0.697100  0.486600  0.567100  1
  H  H111  1  0.736600  0.552900  0.817100  1
  H  H112  1  0.763400  0.447100  0.317100  1
  H  H113  1  0.750200  0.044700  0.468600  1
  H  H114  1  0.749800  0.955300  0.968600  1
  H  H115  1  0.705300  0.000200  0.718600  1
  H  H116  1  0.794700  0.999800  0.218600  1
  H  H117  1  0.250200  0.544700  0.968600  1
  H  H118  1  0.249800  0.455300  0.468600  1
  H  H119  1  0.205300  0.500200  0.218600  1
  H  H120  1  0.294700  0.499800  0.718600  1
  H  H121  1  0.249800  0.955300  0.531400  1
  H  H122  1  0.250200  0.044700  0.031400  1
  H  H123  1  0.294700  0.999800  0.281400  1
  H  H124  1  0.205300  0.000200  0.781400  1
  H  H125  1  0.749800  0.455300  0.031400  1
  H  H126  1  0.750200  0.544700  0.531400  1
  H  H127  1  0.794700  0.499800  0.781400  1
  H  H128  1  0.705300  0.500200  0.281400  1
  H  H129  1  0.702100  0.083000  0.468000  1
  H  H130  1  0.797900  0.917000  0.968000  1
  H  H131  1  0.667000  0.952100  0.718000  1
  H  H132  1  0.833000  0.047900  0.218000  1
  H  H133  1  0.202100  0.583000  0.968000  1
  H  H134  1  0.297900  0.417000  0.468000  1
  H  H135  1  0.167000  0.452100  0.218000  1
  H  H136  1  0.333000  0.547900  0.718000  1
  H  H137  1  0.297900  0.917000  0.532000  1
  H  H138  1  0.202100  0.083000  0.032000  1
  H  H139  1  0.333000  0.047900  0.282000  1
  H  H140  1  0.167000  0.952100  0.782000  1
  H  H141  1  0.797900  0.417000  0.032000  1
  H  H142  1  0.702100  0.583000  0.532000  1
  H  H143  1  0.833000  0.547900  0.782000  1
  H  H144  1  0.667000  0.452100  0.282000  1
  H  H145  1  0.757900  0.103500  0.455300  1
  H  H146  1  0.742100  0.896500  0.955300  1
  H  H147  1  0.646500  0.007900  0.705300  1
  H  H148  1  0.853500  0.992100  0.205300  1
  H  H149  1  0.257900  0.603500  0.955300  1
  H  H150  1  0.242100  0.396500  0.455300  1
  H  H151  1  0.146500  0.507900  0.205300  1
  H  H152  1  0.353500  0.492100  0.705300  1
  H  H153  1  0.242100  0.896500  0.544700  1
  H  H154  1  0.257900  0.103500  0.044700  1
  H  H155  1  0.353500  0.992100  0.294700  1
  H  H156  1  0.146500  0.007900  0.794700  1
  H  H157  1  0.742100  0.396500  0.044700  1
  H  H158  1  0.757900  0.603500  0.544700  1
  H  H159  1  0.853500  0.492100  0.794700  1
  H  H160  1  0.646500  0.507900  0.294700  1
  H  H161  1  0.732200  0.092600  0.306100  1
  H  H162  1  0.767800  0.907400  0.806100  1
  H  H163  1  0.657400  0.982200  0.556100  1
  H  H164  1  0.842600  0.017800  0.056100  1
  H  H165  1  0.232200  0.592600  0.806100  1
  H  H166  1  0.267800  0.407400  0.306100  1
  H  H167  1  0.157400  0.482200  0.056100  1
  H  H168  1  0.342600  0.517800  0.556100  1
  H  H169  1  0.267800  0.907400  0.693900  1
  H  H170  1  0.232200  0.092600  0.193900  1
  H  H171  1  0.342600  0.017800  0.443900  1
  H  H172  1  0.157400  0.982200  0.943900  1
  H  H173  1  0.767800  0.407400  0.193900  1
  H  H174  1  0.732200  0.592600  0.693900  1
  H  H175  1  0.842600  0.517800  0.943900  1
  H  H176  1  0.657400  0.482200  0.443900  1
  H  H177  1  0.787100  0.071500  0.291500  1
  H  H178  1  0.712900  0.928500  0.791500  1
  H  H179  1  0.678500  0.037100  0.541500  1
  H  H180  1  0.821500  0.962900  0.041500  1
  H  H181  1  0.287100  0.571500  0.791500  1
  H  H182  1  0.212900  0.428500  0.291500  1
  H  H183  1  0.178500  0.537100  0.041500  1
  H  H184  1  0.321500  0.462900  0.541500  1
  H  H185  1  0.212900  0.928500  0.708500  1
  H  H186  1  0.287100  0.071500  0.208500  1
  H  H187  1  0.321500  0.962900  0.458500  1
  H  H188  1  0.178500  0.037100  0.958500  1
  H  H189  1  0.712900  0.428500  0.208500  1
  H  H190  1  0.787100  0.571500  0.708500  1
  H  H191  1  0.821500  0.462900  0.958500  1
  H  H192  1  0.678500  0.537100  0.458500  1
  H  H193  1  0.775000  0.131700  0.289300  1
  H  H194  1  0.725000  0.868300  0.789300  1
  H  H195  1  0.618300  0.025000  0.539300  1
  H  H196  1  0.881700  0.975000  0.039300  1
  H  H197  1  0.275000  0.631700  0.789300  1
  H  H198  1  0.225000  0.368300  0.289300  1
  H  H199  1  0.118300  0.525000  0.039300  1
  H  H200  1  0.381700  0.475000  0.539300  1
  H  H201  1  0.225000  0.868300  0.710700  1
  H  H202  1  0.275000  0.131700  0.210700  1
  H  H203  1  0.381700  0.975000  0.460700  1
  H  H204  1  0.118300  0.025000  0.960700  1
  H  H205  1  0.725000  0.368300  0.210700  1
  H  H206  1  0.775000  0.631700  0.710700  1
  H  H207  1  0.881700  0.475000  0.960700  1
  H  H208  1  0.618300  0.525000  0.460700  1
  H  H209  1  0.845400  0.125700  0.382900  1
  H  H210  1  0.654600  0.874300  0.882900  1
  H  H211  1  0.624300  0.095400  0.632900  1
  H  H212  1  0.875700  0.904600  0.132900  1
  H  H213  1  0.345400  0.625700  0.882900  1
  H  H214  1  0.154600  0.374300  0.382900  1
  H  H215  1  0.124300  0.595400  0.132900  1
  H  H216  1  0.375700  0.404600  0.632900  1
  H  H217  1  0.154600  0.874300  0.617100  1
  H  H218  1  0.345400  0.125700  0.117100  1
  H  H219  1  0.375700  0.904600  0.367100  1
  H  H220  1  0.124300  0.095400  0.867100  1
  H  H221  1  0.654600  0.374300  0.117100  1
  H  H222  1  0.845400  0.625700  0.617100  1
  H  H223  1  0.875700  0.404600  0.867100  1
  H  H224  1  0.624300  0.595400  0.367100  1
  H  H225  1  0.827100  0.168200  0.349400  1
  H  H226  1  0.672900  0.831800  0.849400  1
  H  H227  1  0.581800  0.077100  0.599400  1
  H  H228  1  0.918200  0.922900  0.099400  1
  H  H229  1  0.327100  0.668200  0.849400  1
  H  H230  1  0.172900  0.331800  0.349400  1
  H  H231  1  0.081800  0.577100  0.099400  1
  H  H232  1  0.418200  0.422900  0.599400  1
  H  H233  1  0.172900  0.831800  0.650600  1
  H  H234  1  0.327100  0.168200  0.150600  1
  H  H235  1  0.418200  0.922900  0.400600  1
  H  H236  1  0.081800  0.077100  0.900600  1
  H  H237  1  0.672900  0.331800  0.150600  1
  H  H238  1  0.827100  0.668200  0.650600  1
  H  H239  1  0.918200  0.422900  0.900600  1
  H  H240  1  0.581800  0.577100  0.400600  1
  H  H241  1  0.858100  0.118700  0.333500  1
  H  H242  1  0.641900  0.881300  0.833500  1
  H  H243  1  0.631300  0.108100  0.583500  1
  H  H244  1  0.868700  0.891900  0.083500  1
  H  H245  1  0.358100  0.618700  0.833500  1
  H  H246  1  0.141900  0.381300  0.333500  1
  H  H247  1  0.131300  0.608100  0.083500  1
  H  H248  1  0.368700  0.391900  0.583500  1
  H  H249  1  0.141900  0.881300  0.666500  1
  H  H250  1  0.358100  0.118700  0.166500  1
  H  H251  1  0.368700  0.891900  0.416500  1
  H  H252  1  0.131300  0.108100  0.916500  1
  H  H253  1  0.641900  0.381300  0.166500  1
  H  H254  1  0.858100  0.618700  0.666500  1
  H  H255  1  0.868700  0.391900  0.916500  1
  H  H256  1  0.631300  0.608100  0.416500  1
  H  H257  1  0.689700  0.134300  0.403700  1.0
  H  H258  1  0.810300  0.865700  0.903700  1.0
  H  H259  1  0.615700  0.939700  0.653700  1.0
  H  H260  1  0.884300  0.060300  0.153700  1.0
  H  H261  1  0.189700  0.634300  0.903700  1.0
  H  H262  1  0.310300  0.365700  0.403700  1.0
  H  H263  1  0.115700  0.439700  0.153700  1.0
  H  H264  1  0.384300  0.560300  0.653700  1.0
  H  H265  1  0.310300  0.865700  0.596300  1.0
  H  H266  1  0.189700  0.134300  0.096300  1.0
  H  H267  1  0.384300  0.060300  0.346300  1.0
  H  H268  1  0.115700  0.939700  0.846300  1.0
  H  H269  1  0.810300  0.365700  0.096300  1.0
  H  H270  1  0.689700  0.634300  0.596300  1.0
  H  H271  1  0.884300  0.560300  0.846300  1.0
  H  H272  1  0.615700  0.439700  0.346300  1.0
  H  H273  1  0.748900  0.138100  0.417300  1.0
  H  H274  1  0.751100  0.861900  0.917300  1.0
  H  H275  1  0.611900  0.998900  0.667300  1.0
  H  H276  1  0.888100  0.001100  0.167300  1.0
  H  H277  1  0.248900  0.638100  0.917300  1.0
  H  H278  1  0.251100  0.361900  0.417300  1.0
  H  H279  1  0.111900  0.498900  0.167300  1.0
  H  H280  1  0.388100  0.501100  0.667300  1.0
  H  H281  1  0.251100  0.861900  0.582700  1.0
  H  H282  1  0.248900  0.138100  0.082700  1.0
  H  H283  1  0.388100  0.001100  0.332700  1.0
  H  H284  1  0.111900  0.998900  0.832700  1.0
  H  H285  1  0.751100  0.361900  0.082700  1.0
  H  H286  1  0.748900  0.638100  0.582700  1.0
  H  H287  1  0.888100  0.501100  0.832700  1.0
  H  H288  1  0.611900  0.498900  0.332700  1.0
  H  H289  1  0.713200  0.112600  0.335200  1.0
  H  H290  1  0.786800  0.887400  0.835200  1.0
  H  H291  1  0.637400  0.963200  0.585200  1.0
  H  H292  1  0.862600  0.036800  0.085200  1.0
  H  H293  1  0.213200  0.612600  0.835200  1.0
  H  H294  1  0.286800  0.387400  0.335200  1.0
  H  H295  1  0.137400  0.463200  0.085200  1.0
  H  H296  1  0.362600  0.536800  0.585200  1.0
  H  H297  1  0.286800  0.887400  0.664800  1.0
  H  H298  1  0.213200  0.112600  0.164800  1.0
  H  H299  1  0.362600  0.036800  0.414800  1.0
  H  H300  1  0.137400  0.963200  0.914800  1.0
  H  H301  1  0.786800  0.387400  0.164800  1.0
  H  H302  1  0.713200  0.612600  0.664800  1.0
  H  H303  1  0.862600  0.536800  0.914800  1.0
  H  H304  1  0.637400  0.463200  0.414800  1.0
  H  H305  1  0.739800  0.166000  0.348300  1.0
  H  H306  1  0.760200  0.834000  0.848300  1.0
  H  H307  1  0.584000  0.989800  0.598300  1.0
  H  H308  1  0.916000  0.010200  0.098300  1.0
  H  H309  1  0.239800  0.666000  0.848300  1.0
  H  H310  1  0.260200  0.334000  0.348300  1.0
  H  H311  1  0.084000  0.489800  0.098300  1.0
  H  H312  1  0.416000  0.510200  0.598300  1.0
  H  H313  1  0.260200  0.834000  0.651700  1.0
  H  H314  1  0.239800  0.166000  0.151700  1.0
  H  H315  1  0.416000  0.010200  0.401700  1.0
  H  H316  1  0.084000  0.989800  0.901700  1.0
  H  H317  1  0.760200  0.334000  0.151700  1.0
  H  H318  1  0.739800  0.666000  0.651700  1.0
  H  H319  1  0.916000  0.510200  0.901700  1.0
  H  H320  1  0.584000  0.489800  0.401700  1.0
  H  H321  1  0.650600  0.048000  0.410400  1.0
  H  H322  1  0.849400  0.952000  0.910400  1.0
  H  H323  1  0.702000  0.900600  0.660400  1.0
  H  H324  1  0.798000  0.099400  0.160400  1.0
  H  H325  1  0.150600  0.548000  0.910400  1.0
  H  H326  1  0.349400  0.452000  0.410400  1.0
  H  H327  1  0.202000  0.400600  0.160400  1.0
  H  H328  1  0.298000  0.599400  0.660400  1.0
  H  H329  1  0.349400  0.952000  0.589600  1.0
  H  H330  1  0.150600  0.048000  0.089600  1.0
  H  H331  1  0.298000  0.099400  0.339600  1.0
  H  H332  1  0.202000  0.900600  0.839600  1.0
  H  H333  1  0.849400  0.452000  0.089600  1.0
  H  H334  1  0.650600  0.548000  0.589600  1.0
  H  H335  1  0.798000  0.599400  0.839600  1.0
  H  H336  1  0.702000  0.400600  0.339600  1.0
  H  H337  1  0.684000  0.999700  0.395400  1.0
  H  H338  1  0.816000  0.000300  0.895400  1.0
  H  H339  1  0.750300  0.934000  0.645400  1.0
  H  H340  1  0.749700  0.066000  0.145400  1.0
  H  H341  1  0.184000  0.499700  0.895400  1.0
  H  H342  1  0.316000  0.500300  0.395400  1.0
  H  H343  1  0.250300  0.434000  0.145400  1.0
  H  H344  1  0.249700  0.566000  0.645400  1.0
  H  H345  1  0.316000  0.000300  0.604600  1.0
  H  H346  1  0.184000  0.999700  0.104600  1.0
  H  H347  1  0.249700  0.066000  0.354600  1.0
  H  H348  1  0.250300  0.934000  0.854600  1.0
  H  H349  1  0.816000  0.500300  0.104600  1.0
  H  H350  1  0.684000  0.499700  0.604600  1.0
  H  H351  1  0.749700  0.566000  0.854600  1.0
  H  H352  1  0.750300  0.434000  0.354600  1.0
  H  H353  1  0.675200  0.047100  0.363900  1.0
  H  H354  1  0.824800  0.952900  0.863900  1.0
  H  H355  1  0.702900  0.925200  0.613900  1.0
  H  H356  1  0.797100  0.074800  0.113900  1.0
  H  H357  1  0.175200  0.547100  0.863900  1.0
  H  H358  1  0.324800  0.452900  0.363900  1.0
  H  H359  1  0.202900  0.425200  0.113900  1.0
  H  H360  1  0.297100  0.574800  0.613900  1.0
  H  H361  1  0.324800  0.952900  0.636100  1.0
  H  H362  1  0.175200  0.047100  0.136100  1.0
  H  H363  1  0.297100  0.074800  0.386100  1.0
  H  H364  1  0.202900  0.925200  0.886100  1.0
  H  H365  1  0.824800  0.452900  0.136100  1.0
  H  H366  1  0.675200  0.547100  0.636100  1.0
  H  H367  1  0.797100  0.574800  0.886100  1.0
  H  H368  1  0.702900  0.425200  0.386100  1.0
  H  H369  1  0.735300  0.020600  0.463700  1.0
  H  H370  1  0.764700  0.979400  0.963700  1.0
  H  H371  1  0.729400  0.985300  0.713700  1.0
  H  H372  1  0.770600  0.014700  0.213700  1.0
  H  H373  1  0.235300  0.520600  0.963700  1.0
  H  H374  1  0.264700  0.479400  0.463700  1.0
  H  H375  1  0.229400  0.485300  0.213700  1.0
  H  H376  1  0.270600  0.514700  0.713700  1.0
  H  H377  1  0.264700  0.979400  0.536300  1.0
  H  H378  1  0.235300  0.020600  0.036300  1.0
  H  H379  1  0.270600  0.014700  0.286300  1.0
  H  H380  1  0.229400  0.985300  0.786300  1.0
  H  H381  1  0.764700  0.479400  0.036300  1.0
  H  H382  1  0.735300  0.520600  0.536300  1.0
  H  H383  1  0.770600  0.514700  0.786300  1.0
  H  H384  1  0.729400  0.485300  0.286300  1.0
  H  H385  1  0.701000  0.071100  0.469900  1.0
  H  H386  1  0.799000  0.928900  0.969900  1.0
  H  H387  1  0.678900  0.951000  0.719900  1.0
  H  H388  1  0.821100  0.049000  0.219900  1.0
  H  H389  1  0.201000  0.571100  0.969900  1.0
  H  H390  1  0.299000  0.428900  0.469900  1.0
  H  H391  1  0.178900  0.451000  0.219900  1.0
  H  H392  1  0.321100  0.549000  0.719900  1.0
  H  H393  1  0.299000  0.928900  0.530100  1.0
  H  H394  1  0.201000  0.071100  0.030100  1.0
  H  H395  1  0.321100  0.049000  0.280100  1.0
  H  H396  1  0.178900  0.951000  0.780100  1.0
  H  H397  1  0.799000  0.428900  0.030100  1.0
  H  H398  1  0.701000  0.571100  0.530100  1.0
  H  H399  1  0.821100  0.549000  0.780100  1.0
  H  H400  1  0.678900  0.451000  0.280100  1.0
  H  H401  1  0.761900  0.076000  0.464300  1.0
  H  H402  1  0.738100  0.924000  0.964300  1.0
  H  H403  1  0.674000  0.011900  0.714300  1.0
  H  H404  1  0.826000  0.988100  0.214300  1.0
  H  H405  1  0.261900  0.576000  0.964300  1.0
  H  H406  1  0.238100  0.424000  0.464300  1.0
  H  H407  1  0.174000  0.511900  0.214300  1.0
  H  H408  1  0.326000  0.488100  0.714300  1.0
  H  H409  1  0.238100  0.924000  0.535700  1.0
  H  H410  1  0.261900  0.076000  0.035700  1.0
  H  H411  1  0.326000  0.988100  0.285700  1.0
  H  H412  1  0.174000  0.011900  0.785700  1.0
  H  H413  1  0.738100  0.424000  0.035700  1.0
  H  H414  1  0.761900  0.576000  0.535700  1.0
  H  H415  1  0.826000  0.488100  0.785700  1.0
  H  H416  1  0.674000  0.511900  0.285700  1.0
  H  H417  1  0.792200  0.135000  0.285900  1.0
  H  H418  1  0.707800  0.865000  0.785900  1.0
  H  H419  1  0.615000  0.042200  0.535900  1.0
  H  H420  1  0.885000  0.957800  0.035900  1.0
  H  H421  1  0.292200  0.635000  0.785900  1.0
  H  H422  1  0.207800  0.365000  0.285900  1.0
  H  H423  1  0.115000  0.542200  0.035900  1.0
  H  H424  1  0.385000  0.457800  0.535900  1.0
  H  H425  1  0.207800  0.865000  0.714100  1.0
  H  H426  1  0.292200  0.135000  0.214100  1.0
  H  H427  1  0.385000  0.957800  0.464100  1.0
  H  H428  1  0.115000  0.042200  0.964100  1.0
  H  H429  1  0.707800  0.365000  0.214100  1.0
  H  H430  1  0.792200  0.635000  0.714100  1.0
  H  H431  1  0.885000  0.457800  0.964100  1.0
  H  H432  1  0.615000  0.542200  0.464100  1.0
  H  H433  1  0.775800  0.075800  0.287100  1.0
  H  H434  1  0.724200  0.924200  0.787100  1.0
  H  H435  1  0.674200  0.025800  0.537100  1.0
  H  H436  1  0.825800  0.974200  0.037100  1.0
  H  H437  1  0.275800  0.575800  0.787100  1.0
  H  H438  1  0.224200  0.424200  0.287100  1.0
  H  H439  1  0.174200  0.525800  0.037100  1.0
  H  H440  1  0.325800  0.474200  0.537100  1.0
  H  H441  1  0.224200  0.924200  0.712900  1.0
  H  H442  1  0.275800  0.075800  0.212900  1.0
  H  H443  1  0.325800  0.974200  0.462900  1.0
  H  H444  1  0.174200  0.025800  0.962900  1.0
  H  H445  1  0.724200  0.424200  0.212900  1.0
  H  H446  1  0.775800  0.575800  0.712900  1.0
  H  H447  1  0.825800  0.474200  0.962900  1.0
  H  H448  1  0.674200  0.525800  0.462900  1.0
  H  H449  1  0.834500  0.091600  0.294600  1.0
  H  H450  1  0.665500  0.908400  0.794600  1.0
  H  H451  1  0.658400  0.084500  0.544600  1.0
  H  H452  1  0.841600  0.915500  0.044600  1.0
  H  H453  1  0.334500  0.591600  0.794600  1.0
  H  H454  1  0.165500  0.408400  0.294600  1.0
  H  H455  1  0.158400  0.584500  0.044600  1.0
  H  H456  1  0.341600  0.415500  0.544600  1.0
  H  H457  1  0.165500  0.908400  0.705400  1.0
  H  H458  1  0.334500  0.091600  0.205400  1.0
  H  H459  1  0.341600  0.915500  0.455400  1.0
  H  H460  1  0.158400  0.084500  0.955400  1.0
  H  H461  1  0.665500  0.408400  0.205400  1.0
  H  H462  1  0.834500  0.591600  0.705400  1.0
  H  H463  1  0.841600  0.415500  0.955400  1.0
  H  H464  1  0.658400  0.584500  0.455400  1.0
  H  H465  1  0.863700  0.125100  0.348400  1.0
  H  H466  1  0.636300  0.874900  0.848400  1.0
  H  H467  1  0.624900  0.113700  0.598400  1.0
  H  H468  1  0.875100  0.886300  0.098400  1.0
  H  H469  1  0.363700  0.625100  0.848400  1.0
  H  H470  1  0.136300  0.374900  0.348400  1.0
  H  H471  1  0.124900  0.613700  0.098400  1.0
  H  H472  1  0.375100  0.386300  0.598400  1.0
  H  H473  1  0.136300  0.874900  0.651600  1.0
  H  H474  1  0.363700  0.125100  0.151600  1.0
  H  H475  1  0.375100  0.886300  0.401600  1.0
  H  H476  1  0.124900  0.113700  0.901600  1.0
  H  H477  1  0.636300  0.374900  0.151600  1.0
  H  H478  1  0.863700  0.625100  0.651600  1.0
  H  H479  1  0.875100  0.386300  0.901600  1.0
  H  H480  1  0.624900  0.613700  0.401600  1.0
  H  H481  1  0.836500  0.134400  0.393300  1.0
  H  H482  1  0.663500  0.865600  0.893300  1.0
  H  H483  1  0.615600  0.086500  0.643300  1.0
  H  H484  1  0.884400  0.913500  0.143300  1.0
  H  H485  1  0.336500  0.634400  0.893300  1.0
  H  H486  1  0.163500  0.365600  0.393300  1.0
  H  H487  1  0.115600  0.586500  0.143300  1.0
  H  H488  1  0.384400  0.413500  0.643300  1.0
  H  H489  1  0.163500  0.865600  0.606700  1.0
  H  H490  1  0.336500  0.134400  0.106700  1.0
  H  H491  1  0.384400  0.913500  0.356700  1.0
  H  H492  1  0.115600  0.086500  0.856700  1.0
  H  H493  1  0.663500  0.365600  0.106700  1.0
  H  H494  1  0.836500  0.634400  0.606700  1.0
  H  H495  1  0.884400  0.413500  0.856700  1.0
  H  H496  1  0.615600  0.586500  0.356700  1.0
  H  H497  1  0.826500  0.173400  0.354900  1.0
  H  H498  1  0.673500  0.826600  0.854900  1.0
  H  H499  1  0.576600  0.076500  0.604900  1.0
  H  H500  1  0.923400  0.923500  0.104900  1.0
  H  H501  1  0.326500  0.673400  0.854900  1.0
  H  H502  1  0.173500  0.326600  0.354900  1.0
  H  H503  1  0.076600  0.576500  0.104900  1.0
  H  H504  1  0.423400  0.423500  0.604900  1.0
  H  H505  1  0.173500  0.826600  0.645100  1.0
  H  H506  1  0.326500  0.173400  0.145100  1.0
  H  H507  1  0.423400  0.923500  0.395100  1.0
  H  H508  1  0.076600  0.076500  0.895100  1.0
  H  H509  1  0.673500  0.326600  0.145100  1.0
  H  H510  1  0.826500  0.673400  0.645100  1.0
  H  H511  1  0.923400  0.423500  0.895100  1.0
  H  H512  1  0.576600  0.576500  0.395100  1.0
  H  H513  1  0.178800  0.000600  0.383700  1.0
  H  H514  1  0.321200  0.999400  0.883700  1.0
  H  H515  1  0.749400  0.428800  0.633700  1.0
  H  H516  1  0.750600  0.571200  0.133700  1.0
  H  H517  1  0.678800  0.500600  0.883700  1.0
  H  H518  1  0.821200  0.499400  0.383700  1.0
  H  H519  1  0.249400  0.928800  0.133700  1.0
  H  H520  1  0.250600  0.071200  0.633700  1.0
  H  H521  1  0.821200  0.999400  0.616300  1.0
  H  H522  1  0.678800  0.000600  0.116300  1.0
  H  H523  1  0.250600  0.571200  0.366300  1.0
  H  H524  1  0.249400  0.428800  0.866300  1.0
  H  H525  1  0.321200  0.499400  0.116300  1.0
  H  H526  1  0.178800  0.500600  0.616300  1.0
  H  H527  1  0.750600  0.071200  0.866300  1.0
  H  H528  1  0.749400  0.928800  0.366300  1.0
  H  H529  1  0.098300  0.992400  0.352800  1.0
  H  H530  1  0.401700  0.007600  0.852800  1.0
  H  H531  1  0.757600  0.348300  0.602800  1.0
  H  H532  1  0.742400  0.651700  0.102800  1.0
  H  H533  1  0.598300  0.492400  0.852800  1.0
  H  H534  1  0.901700  0.507600  0.352800  1.0
  H  H535  1  0.257600  0.848300  0.102800  1.0
  H  H536  1  0.242400  0.151700  0.602800  1.0
  H  H537  1  0.901700  0.007600  0.647200  1.0
  H  H538  1  0.598300  0.992400  0.147200  1.0
  H  H539  1  0.242400  0.651700  0.397200  1.0
  H  H540  1  0.257600  0.348300  0.897200  1.0
  H  H541  1  0.401700  0.507600  0.147200  1.0
  H  H542  1  0.098300  0.492400  0.647200  1.0
  H  H543  1  0.742400  0.151700  0.897200  1.0
  H  H544  1  0.757600  0.848300  0.397200  1.0
  H  H545  1  0.162300  0.902600  0.262700  1.0
  H  H546  1  0.337700  0.097400  0.762700  1.0
  H  H547  1  0.847400  0.412300  0.512700  1.0
  H  H548  1  0.652600  0.587700  0.012700  1.0
  H  H549  1  0.662300  0.402600  0.762700  1.0
  H  H550  1  0.837700  0.597400  0.262700  1.0
  H  H551  1  0.347400  0.912300  0.012700  1.0
  H  H552  1  0.152600  0.087700  0.512700  1.0
  H  H553  1  0.837700  0.097400  0.737300  1.0
  H  H554  1  0.662300  0.902600  0.237300  1.0
  H  H555  1  0.152600  0.587700  0.487300  1.0
  H  H556  1  0.347400  0.412300  0.987300  1.0
  H  H557  1  0.337700  0.597400  0.237300  1.0
  H  H558  1  0.162300  0.402600  0.737300  1.0
  H  H559  1  0.652600  0.087700  0.987300  1.0
  H  H560  1  0.847400  0.912300  0.487300  1.0
  H  H561  1  0.241300  0.916900  0.293700  1.0
  H  H562  1  0.258700  0.083100  0.793700  1.0
  H  H563  1  0.833100  0.491300  0.543700  1.0
  H  H564  1  0.666900  0.508700  0.043700  1.0
  H  H565  1  0.741300  0.416900  0.793700  1.0
  H  H566  1  0.758700  0.583100  0.293700  1.0
  H  H567  1  0.333100  0.991300  0.043700  1.0
  H  H568  1  0.166900  0.008700  0.543700  1.0
  H  H569  1  0.758700  0.083100  0.706300  1.0
  H  H570  1  0.741300  0.916900  0.206300  1.0
  H  H571  1  0.166900  0.508700  0.456300  1.0
  H  H572  1  0.333100  0.491300  0.956300  1.0
  H  H573  1  0.258700  0.583100  0.206300  1.0
  H  H574  1  0.241300  0.416900  0.706300  1.0
  H  H575  1  0.666900  0.008700  0.956300  1.0
  H  H576  1  0.833100  0.991300  0.456300  1.0
  H  H577  1  0.814300  0.974100  0.301300  1.0
  H  H578  1  0.685700  0.025900  0.801300  1.0
  H  H579  1  0.775900  0.064300  0.551300  1.0
  H  H580  1  0.724100  0.935700  0.051300  1.0
  H  H581  1  0.314300  0.474100  0.801300  1.0
  H  H582  1  0.185700  0.525900  0.301300  1.0
  H  H583  1  0.275900  0.564300  0.051300  1.0
  H  H584  1  0.224100  0.435700  0.551300  1.0
  H  H585  1  0.185700  0.025900  0.698700  1.0
  H  H586  1  0.314300  0.974100  0.198700  1.0
  H  H587  1  0.224100  0.935700  0.448700  1.0
  H  H588  1  0.275900  0.064300  0.948700  1.0
  H  H589  1  0.685700  0.525900  0.198700  1.0
  H  H590  1  0.814300  0.474100  0.698700  1.0
  H  H591  1  0.724100  0.435700  0.948700  1.0
  H  H592  1  0.775900  0.564300  0.448700  1.0
  H  H593  1  0.886000  0.940700  0.266300  1.0
  H  H594  1  0.614000  0.059300  0.766300  1.0
  H  H595  1  0.809300  0.136000  0.516300  1.0
  H  H596  1  0.690700  0.864000  0.016300  1.0
  H  H597  1  0.386000  0.440700  0.766300  1.0
  H  H598  1  0.114000  0.559300  0.266300  1.0
  H  H599  1  0.309300  0.636000  0.016300  1.0
  H  H600  1  0.190700  0.364000  0.516300  1.0
  H  H601  1  0.114000  0.059300  0.733700  1.0
  H  H602  1  0.386000  0.940700  0.233700  1.0
  H  H603  1  0.190700  0.864000  0.483700  1.0
  H  H604  1  0.309300  0.136000  0.983700  1.0
  H  H605  1  0.614000  0.559300  0.233700  1.0
  H  H606  1  0.886000  0.440700  0.733700  1.0
  H  H607  1  0.690700  0.364000  0.983700  1.0
  H  H608  1  0.809300  0.636000  0.483700  1.0
  H  H609  1  0.975400  0.008800  0.354700  1.0
  H  H610  1  0.524600  0.991200  0.854700  1.0
  H  H611  1  0.741200  0.225400  0.604700  1.0
  H  H612  1  0.758800  0.774600  0.104700  1.0
  H  H613  1  0.475400  0.508800  0.854700  1.0
  H  H614  1  0.024600  0.491200  0.354700  1.0
  H  H615  1  0.241200  0.725400  0.104700  1.0
  H  H616  1  0.258800  0.274600  0.604700  1.0
  H  H617  1  0.024600  0.991200  0.645300  1.0
  H  H618  1  0.475400  0.008800  0.145300  1.0
  H  H619  1  0.258800  0.774600  0.395300  1.0
  H  H620  1  0.241200  0.225400  0.895300  1.0
  H  H621  1  0.524600  0.491200  0.145300  1.0
  H  H622  1  0.975400  0.508800  0.645300  1.0
  H  H623  1  0.758800  0.274600  0.895300  1.0
  H  H624  1  0.741200  0.725400  0.395300  1.0
  H  H625  1  0.902800  0.041100  0.386700  1.0
  H  H626  1  0.597200  0.958900  0.886700  1.0
  H  H627  1  0.708900  0.152800  0.636700  1.0
  H  H628  1  0.791100  0.847200  0.136700  1.0
  H  H629  1  0.402800  0.541100  0.886700  1.0
  H  H630  1  0.097200  0.458900  0.386700  1.0
  H  H631  1  0.208900  0.652800  0.136700  1.0
  H  H632  1  0.291100  0.347200  0.636700  1.0
  H  H633  1  0.097200  0.958900  0.613300  1.0
  H  H634  1  0.402800  0.041100  0.113300  1.0
  H  H635  1  0.291100  0.847200  0.363300  1.0
  H  H636  1  0.208900  0.152800  0.863300  1.0
  H  H637  1  0.597200  0.458900  0.113300  1.0
  H  H638  1  0.902800  0.541100  0.613300  1.0
  H  H639  1  0.791100  0.347200  0.863300  1.0
  H  H640  1  0.708900  0.652800  0.363300  1.0
  H  H641  1  0.938300  0.866100  0.195000  1.0
  H  H642  1  0.561700  0.133900  0.695000  1.0
  H  H643  1  0.883900  0.188300  0.445000  1.0
  H  H644  1  0.616100  0.811700  0.945000  1.0
  H  H645  1  0.438300  0.366100  0.695000  1.0
  H  H646  1  0.061700  0.633900  0.195000  1.0
  H  H647  1  0.383900  0.688300  0.945000  1.0
  H  H648  1  0.116100  0.311700  0.445000  1.0
  H  H649  1  0.061700  0.133900  0.805000  1.0
  H  H650  1  0.438300  0.866100  0.305000  1.0
  H  H651  1  0.116100  0.811700  0.555000  1.0
  H  H652  1  0.383900  0.188300  0.055000  1.0
  H  H653  1  0.561700  0.633900  0.305000  1.0
  H  H654  1  0.938300  0.366100  0.805000  1.0
  H  H655  1  0.616100  0.311700  0.055000  1.0
  H  H656  1  0.883900  0.688300  0.555000  1.0
  H  H657  1  0.932700  0.812300  0.137000  1.0
  H  H658  1  0.567300  0.187700  0.637000  1.0
  H  H659  1  0.937700  0.182700  0.387000  1.0
  H  H660  1  0.562300  0.817300  0.887000  1.0
  H  H661  1  0.432700  0.312300  0.637000  1.0
  H  H662  1  0.067300  0.687700  0.137000  1.0
  H  H663  1  0.437700  0.682700  0.887000  1.0
  H  H664  1  0.062300  0.317300  0.387000  1.0
  H  H665  1  0.067300  0.187700  0.863000  1.0
  H  H666  1  0.432700  0.812300  0.363000  1.0
  H  H667  1  0.062300  0.817300  0.613000  1.0
  H  H668  1  0.437700  0.182700  0.113000  1.0
  H  H669  1  0.567300  0.687700  0.363000  1.0
  H  H670  1  0.932700  0.312300  0.863000  1.0
  H  H671  1  0.562300  0.317300  0.113000  1.0
  H  H672  1  0.937700  0.682700  0.613000  1.0
  H  H673  1  0.092700  0.858400  0.186700  1.0
  H  H674  1  0.407300  0.141600  0.686700  1.0
  H  H675  1  0.891600  0.342700  0.436700  1.0
  H  H676  1  0.608400  0.657300  0.936700  1.0
  H  H677  1  0.592700  0.358400  0.686700  1.0
  H  H678  1  0.907300  0.641600  0.186700  1.0
  H  H679  1  0.391600  0.842700  0.936700  1.0
  H  H680  1  0.108400  0.157300  0.436700  1.0
  H  H681  1  0.907300  0.141600  0.813300  1.0
  H  H682  1  0.592700  0.858400  0.313300  1.0
  H  H683  1  0.108400  0.657300  0.563300  1.0
  H  H684  1  0.391600  0.342700  0.063300  1.0
  H  H685  1  0.407300  0.641600  0.313300  1.0
  H  H686  1  0.092700  0.358400  0.813300  1.0
  H  H687  1  0.608400  0.157300  0.063300  1.0
  H  H688  1  0.891600  0.842700  0.563300  1.0
  H  H689  1  0.083600  0.802800  0.130000  1.0
  H  H690  1  0.416400  0.197200  0.630000  1.0
  H  H691  1  0.947200  0.333600  0.380000  1.0
  H  H692  1  0.552800  0.666400  0.880000  1.0
  H  H693  1  0.583600  0.302800  0.630000  1.0
  H  H694  1  0.916400  0.697200  0.130000  1.0
  H  H695  1  0.447200  0.833600  0.880000  1.0
  H  H696  1  0.052800  0.166400  0.380000  1.0
  H  H697  1  0.916400  0.197200  0.870000  1.0
  H  H698  1  0.583600  0.802800  0.370000  1.0
  H  H699  1  0.052800  0.666400  0.620000  1.0
  H  H700  1  0.447200  0.333600  0.120000  1.0
  H  H701  1  0.416400  0.697200  0.370000  1.0
  H  H702  1  0.083600  0.302800  0.870000  1.0
  H  H703  1  0.552800  0.166400  0.120000  1.0
  H  H704  1  0.947200  0.833600  0.620000  1.0
  H  H705  1  0.004600  0.795800  0.968500  1.0
  H  H706  1  0.495400  0.204200  0.468500  1.0
  H  H707  1  0.954200  0.254600  0.218500  1.0
  H  H708  1  0.545800  0.745400  0.718500  1.0
  H  H709  1  0.504600  0.295800  0.468500  1.0
  H  H710  1  0.995400  0.704200  0.968500  1.0
  H  H711  1  0.454200  0.754600  0.718500  1.0
  H  H712  1  0.045800  0.245400  0.218500  1.0
  H  H713  1  0.995400  0.204200  0.031500  1.0
  H  H714  1  0.504600  0.795800  0.531500  1.0
  H  H715  1  0.045800  0.745400  0.781500  1.0
  H  H716  1  0.454200  0.254600  0.281500  1.0
  H  H717  1  0.495400  0.704200  0.531500  1.0
  H  H718  1  0.004600  0.295800  0.031500  1.0
  H  H719  1  0.545800  0.245400  0.281500  1.0
  H  H720  1  0.954200  0.754600  0.781500  1.0
  H  H721  1  0.952800  0.778400  0.992100  1.0
  H  H722  1  0.547200  0.221600  0.492100  1.0
  H  H723  1  0.971600  0.202800  0.242100  1.0
  H  H724  1  0.528400  0.797200  0.742100  1.0
  H  H725  1  0.452800  0.278400  0.492100  1.0
  H  H726  1  0.047200  0.721600  0.992100  1.0
  H  H727  1  0.471600  0.702800  0.742100  1.0
  H  H728  1  0.028400  0.297200  0.242100  1.0
  H  H729  1  0.047200  0.221600  0.007900  1.0
  H  H730  1  0.452800  0.778400  0.507900  1.0
  H  H731  1  0.028400  0.797200  0.757900  1.0
  H  H732  1  0.471600  0.202800  0.257900  1.0
  H  H733  1  0.547200  0.721600  0.507900  1.0
  H  H734  1  0.952800  0.278400  0.007900  1.0
  H  H735  1  0.528400  0.297200  0.257900  1.0
  H  H736  1  0.971600  0.702800  0.757900  1.0
  H  H737  1  0.981400  0.872700  0.015000  1.0
  H  H738  1  0.518600  0.127300  0.515000  1.0
  H  H739  1  0.877300  0.231400  0.265000  1.0
  H  H740  1  0.622700  0.768600  0.765000  1.0
  H  H741  1  0.481400  0.372700  0.515000  1.0
  H  H742  1  0.018600  0.627300  0.015000  1.0
  H  H743  1  0.377300  0.731400  0.765000  1.0
  H  H744  1  0.122700  0.268600  0.265000  1.0
  H  H745  1  0.018600  0.127300  0.985000  1.0
  H  H746  1  0.481400  0.872700  0.485000  1.0
  H  H747  1  0.122700  0.768600  0.735000  1.0
  H  H748  1  0.377300  0.231400  0.235000  1.0
  H  H749  1  0.518600  0.627300  0.485000  1.0
  H  H750  1  0.981400  0.372700  0.985000  1.0
  H  H751  1  0.622700  0.268600  0.235000  1.0
  H  H752  1  0.877300  0.731400  0.735000  1.0
  H  H753  1  0.989300  0.867900  0.065200  1.0
  H  H754  1  0.510700  0.132100  0.565200  1.0
  H  H755  1  0.882100  0.239300  0.315200  1.0
  H  H756  1  0.617900  0.760700  0.815200  1.0
  H  H757  1  0.489300  0.367900  0.565200  1.0
  H  H758  1  0.010700  0.632100  0.065200  1.0
  H  H759  1  0.382100  0.739300  0.815200  1.0
  H  H760  1  0.117900  0.260700  0.315200  1.0
  H  H761  1  0.010700  0.132100  0.934800  1.0
  H  H762  1  0.489300  0.867900  0.434800  1.0
  H  H763  1  0.117900  0.760700  0.684800  1.0
  H  H764  1  0.382100  0.239300  0.184800  1.0
  H  H765  1  0.510700  0.632100  0.434800  1.0
  H  H766  1  0.989300  0.367900  0.934800  1.0
  H  H767  1  0.617900  0.260700  0.184800  1.0
  H  H768  1  0.882100  0.739300  0.684800  1.0
  H  H769  1  0.941300  0.840700  0.042900  1.0
  H  H770  1  0.558700  0.159300  0.542900  1.0
  H  H771  1  0.909300  0.191300  0.292900  1.0
  H  H772  1  0.590700  0.808700  0.792900  1.0
  H  H773  1  0.441300  0.340700  0.542900  1.0
  H  H774  1  0.058700  0.659300  0.042900  1.0
  H  H775  1  0.409300  0.691300  0.792900  1.0
  H  H776  1  0.090700  0.308700  0.292900  1.0
  H  H777  1  0.058700  0.159300  0.957100  1.0
  H  H778  1  0.441300  0.840700  0.457100  1.0
  H  H779  1  0.090700  0.808700  0.707100  1.0
  H  H780  1  0.409300  0.191300  0.207100  1.0
  H  H781  1  0.558700  0.659300  0.457100  1.0
  H  H782  1  0.941300  0.340700  0.957100  1.0
  H  H783  1  0.590700  0.308700  0.207100  1.0
  H  H784  1  0.909300  0.691300  0.707100  1.0
  H  H785  1  0.083600  0.786500  0.022900  1.0
  H  H786  1  0.416400  0.213500  0.522900  1.0
  H  H787  1  0.963500  0.333600  0.272900  1.0
  H  H788  1  0.536500  0.666400  0.772900  1.0
  H  H789  1  0.583600  0.286500  0.522900  1.0
  H  H790  1  0.916400  0.713500  0.022900  1.0
  H  H791  1  0.463500  0.833600  0.772900  1.0
  H  H792  1  0.036500  0.166400  0.272900  1.0
  H  H793  1  0.916400  0.213500  0.977100  1.0
  H  H794  1  0.583600  0.786500  0.477100  1.0
  H  H795  1  0.036500  0.666400  0.727100  1.0
  H  H796  1  0.463500  0.333600  0.227100  1.0
  H  H797  1  0.416400  0.713500  0.477100  1.0
  H  H798  1  0.083600  0.286500  0.977100  1.0
  H  H799  1  0.536500  0.166400  0.227100  1.0
  H  H800  1  0.963500  0.833600  0.727100  1.0
  H  H801  1  0.075000  0.832800  0.055600  1.0
  H  H802  1  0.425000  0.167200  0.555600  1.0
  H  H803  1  0.917200  0.325000  0.305600  1.0
  H  H804  1  0.582800  0.675000  0.805600  1.0
  H  H805  1  0.575000  0.332800  0.555600  1.0
  H  H806  1  0.925000  0.667200  0.055600  1.0
  H  H807  1  0.417200  0.825000  0.805600  1.0
  H  H808  1  0.082800  0.175000  0.305600  1.0
  H  H809  1  0.925000  0.167200  0.944400  1.0
  H  H810  1  0.575000  0.832800  0.444400  1.0
  H  H811  1  0.082800  0.675000  0.694400  1.0
  H  H812  1  0.417200  0.325000  0.194400  1.0
  H  H813  1  0.425000  0.667200  0.444400  1.0
  H  H814  1  0.075000  0.332800  0.944400  1.0
  H  H815  1  0.582800  0.175000  0.194400  1.0
  H  H816  1  0.917200  0.825000  0.694400  1.0
  H  H817  1  0.067000  0.842000  0.005800  1.0
  H  H818  1  0.433000  0.158000  0.505800  1.0
  H  H819  1  0.908000  0.317000  0.255800  1.0
  H  H820  1  0.592000  0.683000  0.755800  1.0
  H  H821  1  0.567000  0.342000  0.505800  1.0
  H  H822  1  0.933000  0.658000  0.005800  1.0
  H  H823  1  0.408000  0.817000  0.755800  1.0
  H  H824  1  0.092000  0.183000  0.255800  1.0
  H  H825  1  0.933000  0.158000  0.994200  1.0
  H  H826  1  0.567000  0.842000  0.494200  1.0
  H  H827  1  0.092000  0.683000  0.744200  1.0
  H  H828  1  0.408000  0.317000  0.244200  1.0
  H  H829  1  0.433000  0.658000  0.494200  1.0
  H  H830  1  0.067000  0.342000  0.994200  1.0
  H  H831  1  0.592000  0.183000  0.244200  1.0
  H  H832  1  0.908000  0.817000  0.744200  1.0
  Pd  Pd833  1  0.000000  0.750000  0.081211  1.0
  Pd  Pd834  1  0.500000  0.250000  0.581211  1.0
  Pd  Pd835  1  0.000000  0.250000  0.331211  1.0
  Pd  Pd836  1  0.500000  0.750000  0.831211  1.0
  Pd  Pd837  1  0.000000  0.250000  0.918789  1.0
  Pd  Pd838  1  0.500000  0.750000  0.418789  1.0
  Pd  Pd839  1  0.000000  0.750000  0.668789  1.0
  Pd  Pd840  1  0.500000  0.250000  0.168789  1.0
  Pd  Pd841  1  0.788979  0.035415  0.377725  1.0
  Pd  Pd842  1  0.711021  0.964585  0.877725  1.0
  Pd  Pd843  1  0.714585  0.038979  0.627725  1.0
  Pd  Pd844  1  0.785415  0.961021  0.127725  1.0
  Pd  Pd845  1  0.288979  0.535415  0.877725  1.0
  Pd  Pd846  1  0.211021  0.464585  0.377725  1.0
  Pd  Pd847  1  0.214585  0.538979  0.127725  1.0
  Pd  Pd848  1  0.285415  0.461021  0.627725  1.0
  Pd  Pd849  1  0.211021  0.964585  0.622275  1.0
  Pd  Pd850  1  0.288979  0.035415  0.122275  1.0
  Pd  Pd851  1  0.285415  0.961021  0.372275  1.0
  Pd  Pd852  1  0.214585  0.038979  0.872275  1.0
  Pd  Pd853  1  0.711021  0.464585  0.122275  1.0
  Pd  Pd854  1  0.788979  0.535415  0.622275  1.0
  Pd  Pd855  1  0.785415  0.461021  0.872275  1.0
  Pd  Pd856  1  0.714585  0.538979  0.372275  1.0
  C  C857  1  0.070500  0.816200  0.419700  1
  C  C858  1  0.429500  0.183800  0.919700  1
  C  C859  1  0.933800  0.320500  0.669700  1
  C  C860  1  0.566200  0.679500  0.169700  1
  C  C861  1  0.570500  0.316200  0.919700  1
  C  C862  1  0.929500  0.683800  0.419700  1
  C  C863  1  0.433800  0.820500  0.169700  1
  C  C864  1  0.066200  0.179500  0.669700  1
  C  C865  1  0.929500  0.183800  0.580300  1
  C  C866  1  0.570500  0.816200  0.080300  1
  C  C867  1  0.066200  0.679500  0.330300  1
  C  C868  1  0.433800  0.320500  0.830300  1
  C  C869  1  0.429500  0.683800  0.080300  1
  C  C870  1  0.070500  0.316200  0.580300  1
  C  C871  1  0.566200  0.179500  0.830300  1
  C  C872  1  0.933800  0.820500  0.330300  1
  C  C873  1  0.042500  0.797300  0.452100  1
  C  C874  1  0.457500  0.202700  0.952100  1
  C  C875  1  0.952700  0.292500  0.702100  1
  C  C876  1  0.547300  0.707500  0.202100  1
  C  C877  1  0.542500  0.297300  0.952100  1
  C  C878  1  0.957500  0.702700  0.452100  1
  C  C879  1  0.452700  0.792500  0.202100  1
  C  C880  1  0.047300  0.207500  0.702100  1
  C  C881  1  0.957500  0.202700  0.547900  1
  C  C882  1  0.542500  0.797300  0.047900  1
  C  C883  1  0.047300  0.707500  0.297900  1
  C  C884  1  0.452700  0.292500  0.797900  1
  C  C885  1  0.457500  0.702700  0.047900  1
  C  C886  1  0.042500  0.297300  0.547900  1
  C  C887  1  0.547300  0.207500  0.797900  1
  C  C888  1  0.952700  0.792500  0.297900  1
  C  C889  1  0.005700  0.822700  0.474000  1
  C  C890  1  0.494300  0.177300  0.974000  1
  C  C891  1  0.927300  0.255700  0.724000  1
  C  C892  1  0.572700  0.744300  0.224000  1
  C  C893  1  0.505700  0.322700  0.974000  1
  C  C894  1  0.994300  0.677300  0.474000  1
  C  C895  1  0.427300  0.755700  0.224000  1
  C  C896  1  0.072700  0.244300  0.724000  1
  C  C897  1  0.994300  0.177300  0.526000  1
  C  C898  1  0.505700  0.822700  0.026000  1
  C  C899  1  0.072700  0.744300  0.276000  1
  C  C900  1  0.427300  0.255700  0.776000  1
  C  C901  1  0.494300  0.677300  0.026000  1
  C  C902  1  0.005700  0.322700  0.526000  1
  C  C903  1  0.572700  0.244300  0.776000  1
  C  C904  1  0.927300  0.755700  0.276000  1
  C  C905  1  0.990200  0.870700  0.462800  1
  C  C906  1  0.509800  0.129300  0.962800  1
  C  C907  1  0.879300  0.240200  0.712800  1
  C  C908  1  0.620700  0.759800  0.212800  1
  C  C909  1  0.490200  0.370700  0.962800  1
  C  C910  1  0.009800  0.629300  0.462800  1
  C  C911  1  0.379300  0.740200  0.212800  1
  C  C912  1  0.120700  0.259800  0.712800  1
  C  C913  1  0.009800  0.129300  0.537200  1
  C  C914  1  0.490200  0.870700  0.037200  1
  C  C915  1  0.120700  0.759800  0.287200  1
  C  C916  1  0.379300  0.240200  0.787200  1
  C  C917  1  0.509800  0.629300  0.037200  1
  C  C918  1  0.990200  0.370700  0.537200  1
  C  C919  1  0.620700  0.259800  0.787200  1
  C  C920  1  0.879300  0.740200  0.287200  1
  C  C921  1  0.017600  0.891400  0.429600  1
  C  C922  1  0.482400  0.108600  0.929600  1
  C  C923  1  0.858600  0.267600  0.679600  1
  C  C924  1  0.641400  0.732400  0.179600  1
  C  C925  1  0.517600  0.391400  0.929600  1
  C  C926  1  0.982400  0.608600  0.429600  1
  C  C927  1  0.358600  0.767600  0.179600  1
  C  C928  1  0.141400  0.232400  0.679600  1
  C  C929  1  0.982400  0.108600  0.570400  1
  C  C930  1  0.517600  0.891400  0.070400  1
  C  C931  1  0.141400  0.732400  0.320400  1
  C  C932  1  0.358600  0.267600  0.820400  1
  C  C933  1  0.482400  0.608600  0.070400  1
  C  C934  1  0.017600  0.391400  0.570400  1
  C  C935  1  0.641400  0.232400  0.820400  1
  C  C936  1  0.858600  0.767600  0.320400  1
  C  C937  1  0.055300  0.864500  0.408900  1
  C  C938  1  0.444700  0.135500  0.908900  1
  C  C939  1  0.885500  0.305300  0.658900  1
  C  C940  1  0.614500  0.694700  0.158900  1
  C  C941  1  0.555300  0.364500  0.908900  1
  C  C942  1  0.944700  0.635500  0.408900  1
  C  C943  1  0.385500  0.805300  0.158900  1
  C  C944  1  0.114500  0.194700  0.658900  1
  C  C945  1  0.944700  0.135500  0.591100  1
  C  C946  1  0.555300  0.864500  0.091100  1
  C  C947  1  0.114500  0.694700  0.341100  1
  C  C948  1  0.385500  0.305300  0.841100  1
  C  C949  1  0.444700  0.635500  0.091100  1
  C  C950  1  0.055300  0.364500  0.591100  1
  C  C951  1  0.614500  0.194700  0.841100  1
  C  C952  1  0.885500  0.805300  0.341100  1
  C  C953  1  0.051700  0.868500  0.427500  1
  C  C954  1  0.448300  0.131500  0.927500  1
  C  C955  1  0.881500  0.301700  0.677500  1
  C  C956  1  0.618500  0.698300  0.177500  1
  C  C957  1  0.551700  0.368500  0.927500  1
  C  C958  1  0.948300  0.631500  0.427500  1
  C  C959  1  0.381500  0.801700  0.177500  1
  C  C960  1  0.118500  0.198300  0.677500  1
  C  C961  1  0.948300  0.131500  0.572500  1
  C  C962  1  0.551700  0.868500  0.072500  1
  C  C963  1  0.118500  0.698300  0.322500  1
  C  C964  1  0.381500  0.301700  0.822500  1
  C  C965  1  0.448300  0.631500  0.072500  1
  C  C966  1  0.051700  0.368500  0.572500  1
  C  C967  1  0.618500  0.198300  0.822500  1
  C  C968  1  0.881500  0.801700  0.322500  1
  C  C969  1  0.046800  0.836200  0.461600  1
  C  C970  1  0.453200  0.163800  0.961600  1
  C  C971  1  0.913800  0.296800  0.711600  1
  C  C972  1  0.586200  0.703200  0.211600  1
  C  C973  1  0.546800  0.336200  0.961600  1
  C  C974  1  0.953200  0.663800  0.461600  1
  C  C975  1  0.413800  0.796800  0.211600  1
  C  C976  1  0.086200  0.203200  0.711600  1
  C  C977  1  0.953200  0.163800  0.538400  1
  C  C978  1  0.546800  0.836200  0.038400  1
  C  C979  1  0.086200  0.703200  0.288400  1
  C  C980  1  0.413800  0.296800  0.788400  1
  C  C981  1  0.453200  0.663800  0.038400  1
  C  C982  1  0.046800  0.336200  0.538400  1
  C  C983  1  0.586200  0.203200  0.788400  1
  C  C984  1  0.913800  0.796800  0.288400  1
  C  C985  1  0.007900  0.848000  0.489400  1
  C  C986  1  0.492100  0.152000  0.989400  1
  C  C987  1  0.902000  0.257900  0.739400  1
  C  C988  1  0.598000  0.742100  0.239400  1
  C  C989  1  0.507900  0.348000  0.989400  1
  C  C990  1  0.992100  0.652000  0.489400  1
  C  C991  1  0.402000  0.757900  0.239400  1
  C  C992  1  0.098000  0.242100  0.739400  1
  C  C993  1  0.992100  0.152000  0.510600  1
  C  C994  1  0.507900  0.848000  0.010600  1
  C  C995  1  0.098000  0.742100  0.260600  1
  C  C996  1  0.402000  0.257900  0.760600  1
  C  C997  1  0.492100  0.652000  0.010600  1
  C  C998  1  0.007900  0.348000  0.510600  1
  C  C999  1  0.598000  0.242100  0.760600  1
  C  C1000  1  0.902000  0.757900  0.260600  1
  C  C1001  1  0.973200  0.887700  0.486500  1
  C  C1002  1  0.526800  0.112300  0.986500  1
  C  C1003  1  0.862300  0.223200  0.736500  1
  C  C1004  1  0.637700  0.776800  0.236500  1
  C  C1005  1  0.473200  0.387700  0.986500  1
  C  C1006  1  0.026800  0.612300  0.486500  1
  C  C1007  1  0.362300  0.723200  0.236500  1
  C  C1008  1  0.137700  0.276800  0.736500  1
  C  C1009  1  0.026800  0.112300  0.513500  1
  C  C1010  1  0.473200  0.887700  0.013500  1
  C  C1011  1  0.137700  0.776800  0.263500  1
  C  C1012  1  0.362300  0.223200  0.763500  1
  C  C1013  1  0.526800  0.612300  0.013500  1
  C  C1014  1  0.973200  0.387700  0.513500  1
  C  C1015  1  0.637700  0.276800  0.763500  1
  C  C1016  1  0.862300  0.723200  0.263500  1
  C  C1017  1  0.977900  0.919800  0.451700  1
  C  C1018  1  0.522100  0.080200  0.951700  1
  C  C1019  1  0.830200  0.227900  0.701700  1
  C  C1020  1  0.669800  0.772100  0.201700  1
  C  C1021  1  0.477900  0.419800  0.951700  1
  C  C1022  1  0.022100  0.580200  0.451700  1
  C  C1023  1  0.330200  0.727900  0.201700  1
  C  C1024  1  0.169800  0.272100  0.701700  1
  C  C1025  1  0.022100  0.080200  0.548300  1
  C  C1026  1  0.477900  0.919800  0.048300  1
  C  C1027  1  0.169800  0.772100  0.298300  1
  C  C1028  1  0.330200  0.227900  0.798300  1
  C  C1029  1  0.522100  0.580200  0.048300  1
  C  C1030  1  0.977900  0.419800  0.548300  1
  C  C1031  1  0.669800  0.272100  0.798300  1
  C  C1032  1  0.830200  0.727900  0.298300  1
  C  C1033  1  0.019400  0.909900  0.424200  1
  C  C1034  1  0.480600  0.090100  0.924200  1
  C  C1035  1  0.840100  0.269400  0.674200  1
  C  C1036  1  0.659900  0.730600  0.174200  1
  C  C1037  1  0.519400  0.409900  0.924200  1
  C  C1038  1  0.980600  0.590100  0.424200  1
  C  C1039  1  0.340100  0.769400  0.174200  1
  C  C1040  1  0.159900  0.230600  0.674200  1
  C  C1041  1  0.980600  0.090100  0.575800  1
  C  C1042  1  0.519400  0.909900  0.075800  1
  C  C1043  1  0.159900  0.730600  0.325800  1
  C  C1044  1  0.340100  0.269400  0.825800  1
  C  C1045  1  0.480600  0.590100  0.075800  1
  C  C1046  1  0.019400  0.409900  0.575800  1
  C  C1047  1  0.659900  0.230600  0.825800  1
  C  C1048  1  0.840100  0.769400  0.325800  1
  C  C1049  1  0.702000  0.100500  0.385300  1
  C  C1050  1  0.798000  0.899500  0.885300  1
  C  C1051  1  0.649500  0.952000  0.635300  1
  C  C1052  1  0.850500  0.048000  0.135300  1
  C  C1053  1  0.202000  0.600500  0.885300  1
  C  C1054  1  0.298000  0.399500  0.385300  1
  C  C1055  1  0.149500  0.452000  0.135300  1
  C  C1056  1  0.350500  0.548000  0.635300  1
  C  C1057  1  0.298000  0.899500  0.614700  1
  C  C1058  1  0.202000  0.100500  0.114700  1
  C  C1059  1  0.350500  0.048000  0.364700  1
  C  C1060  1  0.149500  0.952000  0.864700  1
  C  C1061  1  0.798000  0.399500  0.114700  1
  C  C1062  1  0.702000  0.600500  0.614700  1
  C  C1063  1  0.850500  0.548000  0.864700  1
  C  C1064  1  0.649500  0.452000  0.364700  1
  C  C1065  1  0.745000  0.135400  0.374600  1
  C  C1066  1  0.755000  0.864600  0.874600  1
  C  C1067  1  0.614600  0.995000  0.624600  1
  C  C1068  1  0.885400  0.005000  0.124600  1
  C  C1069  1  0.245000  0.635400  0.874600  1
  C  C1070  1  0.255000  0.364600  0.374600  1
  C  C1071  1  0.114600  0.495000  0.124600  1
  C  C1072  1  0.385400  0.505000  0.624600  1
  C  C1073  1  0.255000  0.864600  0.625400  1
  C  C1074  1  0.245000  0.135400  0.125400  1
  C  C1075  1  0.385400  0.005000  0.375400  1
  C  C1076  1  0.114600  0.995000  0.875400  1
  C  C1077  1  0.755000  0.364600  0.125400  1
  C  C1078  1  0.745000  0.635400  0.625400  1
  C  C1079  1  0.885400  0.505000  0.875400  1
  C  C1080  1  0.614600  0.495000  0.375400  1
  C  C1081  1  0.682000  0.014100  0.415700  1
  C  C1082  1  0.818000  0.985900  0.915700  1
  C  C1083  1  0.735900  0.932000  0.665700  1
  C  C1084  1  0.764100  0.068000  0.165700  1
  C  C1085  1  0.182000  0.514100  0.915700  1
  C  C1086  1  0.318000  0.485900  0.415700  1
  C  C1087  1  0.235900  0.432000  0.165700  1
  C  C1088  1  0.264100  0.568000  0.665700  1
  C  C1089  1  0.318000  0.985900  0.584300  1
  C  C1090  1  0.182000  0.014100  0.084300  1
  C  C1091  1  0.264100  0.068000  0.334300  1
  C  C1092  1  0.235900  0.932000  0.834300  1
  C  C1093  1  0.818000  0.485900  0.084300  1
  C  C1094  1  0.682000  0.514100  0.584300  1
  C  C1095  1  0.764100  0.568000  0.834300  1
  C  C1096  1  0.735900  0.432000  0.334300  1
  C  C1097  1  0.734500  0.074100  0.454000  1
  C  C1098  1  0.765500  0.925900  0.954000  1
  C  C1099  1  0.675900  0.984500  0.704000  1
  C  C1100  1  0.824100  0.015500  0.204000  1
  C  C1101  1  0.234500  0.574100  0.954000  1
  C  C1102  1  0.265500  0.425900  0.454000  1
  C  C1103  1  0.175900  0.484500  0.204000  1
  C  C1104  1  0.324100  0.515500  0.704000  1
  C  C1105  1  0.265500  0.925900  0.546000  1
  C  C1106  1  0.234500  0.074100  0.046000  1
  C  C1107  1  0.324100  0.015500  0.296000  1
  C  C1108  1  0.175900  0.984500  0.796000  1
  C  C1109  1  0.765500  0.425900  0.046000  1
  C  C1110  1  0.734500  0.574100  0.546000  1
  C  C1111  1  0.824100  0.515500  0.796000  1
  C  C1112  1  0.675900  0.484500  0.296000  1
  C  C1113  1  0.769100  0.100000  0.305300  1
  C  C1114  1  0.730900  0.900000  0.805300  1
  C  C1115  1  0.650000  0.019100  0.555300  1
  C  C1116  1  0.850000  0.980900  0.055300  1
  C  C1117  1  0.269100  0.600000  0.805300  1
  C  C1118  1  0.230900  0.400000  0.305300  1
  C  C1119  1  0.150000  0.519100  0.055300  1
  C  C1120  1  0.350000  0.480900  0.555300  1
  C  C1121  1  0.230900  0.900000  0.694700  1
  C  C1122  1  0.269100  0.100000  0.194700  1
  C  C1123  1  0.350000  0.980900  0.444700  1
  C  C1124  1  0.150000  0.019100  0.944700  1
  C  C1125  1  0.730900  0.400000  0.194700  1
  C  C1126  1  0.769100  0.600000  0.694700  1
  C  C1127  1  0.850000  0.480900  0.944700  1
  C  C1128  1  0.650000  0.519100  0.444700  1
  C  C1129  1  0.833000  0.131000  0.354000  1
  C  C1130  1  0.667000  0.869000  0.854000  1
  C  C1131  1  0.619000  0.083000  0.604000  1
  C  C1132  1  0.881000  0.917000  0.104000  1
  C  C1133  1  0.333000  0.631000  0.854000  1
  C  C1134  1  0.167000  0.369000  0.354000  1
  C  C1135  1  0.119000  0.583000  0.104000  1
  C  C1136  1  0.381000  0.417000  0.604000  1
  C  C1137  1  0.167000  0.869000  0.646000  1
  C  C1138  1  0.333000  0.131000  0.146000  1
  C  C1139  1  0.381000  0.917000  0.396000  1
  C  C1140  1  0.119000  0.083000  0.896000  1
  C  C1141  1  0.667000  0.369000  0.146000  1
  C  C1142  1  0.833000  0.631000  0.646000  1
  C  C1143  1  0.881000  0.417000  0.896000  1
  C  C1144  1  0.619000  0.583000  0.396000  1
  C  C1145  1  0.643100  0.982100  0.309800  1
  C  C1146  1  0.856900  0.017900  0.809800  1
  C  C1147  1  0.767900  0.893100  0.559800  1
  C  C1148  1  0.732100  0.106900  0.059800  1
  C  C1149  1  0.143100  0.482100  0.809800  1
  C  C1150  1  0.356900  0.517900  0.309800  1
  C  C1151  1  0.267900  0.393100  0.059800  1
  C  C1152  1  0.232100  0.606900  0.559800  1
  C  C1153  1  0.356900  0.017900  0.690200  1
  C  C1154  1  0.143100  0.982100  0.190200  1
  C  C1155  1  0.232100  0.106900  0.440200  1
  C  C1156  1  0.267900  0.893100  0.940200  1
  C  C1157  1  0.856900  0.517900  0.190200  1
  C  C1158  1  0.643100  0.482100  0.690200  1
  C  C1159  1  0.732100  0.606900  0.940200  1
  C  C1160  1  0.767900  0.393100  0.440200  1
  C  C1161  1  0.724400  0.120100  0.398500  1.0
  C  C1162  1  0.775600  0.879900  0.898500  1.0
  C  C1163  1  0.629900  0.974400  0.648500  1.0
  C  C1164  1  0.870100  0.025600  0.148500  1.0
  C  C1165  1  0.224400  0.620100  0.898500  1.0
  C  C1166  1  0.275600  0.379900  0.398500  1.0
  C  C1167  1  0.129900  0.474400  0.148500  1.0
  C  C1168  1  0.370100  0.525600  0.648500  1.0
  C  C1169  1  0.275600  0.879900  0.601500  1.0
  C  C1170  1  0.224400  0.120100  0.101500  1.0
  C  C1171  1  0.370100  0.025600  0.351500  1.0
  C  C1172  1  0.129900  0.974400  0.851500  1.0
  C  C1173  1  0.775600  0.379900  0.101500  1.0
  C  C1174  1  0.724400  0.620100  0.601500  1.0
  C  C1175  1  0.870100  0.525600  0.851500  1.0
  C  C1176  1  0.629900  0.474400  0.351500  1.0
  C  C1177  1  0.738600  0.128800  0.354400  1.0
  C  C1178  1  0.761400  0.871200  0.854400  1.0
  C  C1179  1  0.621200  0.988600  0.604400  1.0
  C  C1180  1  0.878800  0.011400  0.104400  1.0
  C  C1181  1  0.238600  0.628800  0.854400  1.0
  C  C1182  1  0.261400  0.371200  0.354400  1.0
  C  C1183  1  0.121200  0.488600  0.104400  1.0
  C  C1184  1  0.378800  0.511400  0.604400  1.0
  C  C1185  1  0.261400  0.871200  0.645600  1.0
  C  C1186  1  0.238600  0.128800  0.145600  1.0
  C  C1187  1  0.378800  0.011400  0.395600  1.0
  C  C1188  1  0.121200  0.988600  0.895600  1.0
  C  C1189  1  0.761400  0.371200  0.145600  1.0
  C  C1190  1  0.738600  0.628800  0.645600  1.0
  C  C1191  1  0.878800  0.511400  0.895600  1.0
  C  C1192  1  0.621200  0.488600  0.395600  1.0
  C  C1193  1  0.680300  0.037100  0.393600  1.0
  C  C1194  1  0.819700  0.962900  0.893600  1.0
  C  C1195  1  0.712900  0.930300  0.643600  1.0
  C  C1196  1  0.787100  0.069700  0.143600  1.0
  C  C1197  1  0.180300  0.537100  0.893600  1.0
  C  C1198  1  0.319700  0.462900  0.393600  1.0
  C  C1199  1  0.212900  0.430300  0.143600  1.0
  C  C1200  1  0.287100  0.569700  0.643600  1.0
  C  C1201  1  0.319700  0.962900  0.606400  1.0
  C  C1202  1  0.180300  0.037100  0.106400  1.0
  C  C1203  1  0.287100  0.069700  0.356400  1.0
  C  C1204  1  0.212900  0.930300  0.856400  1.0
  C  C1205  1  0.819700  0.462900  0.106400  1.0
  C  C1206  1  0.680300  0.537100  0.606400  1.0
  C  C1207  1  0.787100  0.569700  0.856400  1.0
  C  C1208  1  0.712900  0.430300  0.356400  1.0
  C  C1209  1  0.731300  0.056800  0.455700  1.0
  C  C1210  1  0.768700  0.943200  0.955700  1.0
  C  C1211  1  0.693200  0.981300  0.705700  1.0
  C  C1212  1  0.806800  0.018700  0.205700  1.0
  C  C1213  1  0.231300  0.556800  0.955700  1.0
  C  C1214  1  0.268700  0.443200  0.455700  1.0
  C  C1215  1  0.193200  0.481300  0.205700  1.0
  C  C1216  1  0.306800  0.518700  0.705700  1.0
  C  C1217  1  0.268700  0.943200  0.544300  1.0
  C  C1218  1  0.231300  0.056800  0.044300  1.0
  C  C1219  1  0.306800  0.018700  0.294300  1.0
  C  C1220  1  0.193200  0.981300  0.794300  1.0
  C  C1221  1  0.768700  0.443200  0.044300  1.0
  C  C1222  1  0.731300  0.556800  0.544300  1.0
  C  C1223  1  0.806800  0.518700  0.794300  1.0
  C  C1224  1  0.693200  0.481300  0.294300  1.0
  C  C1225  1  0.798700  0.101700  0.299400  1.0
  C  C1226  1  0.701300  0.898300  0.799400  1.0
  C  C1227  1  0.648300  0.048700  0.549400  1.0
  C  C1228  1  0.851700  0.951300  0.049400  1.0
  C  C1229  1  0.298700  0.601700  0.799400  1.0
  C  C1230  1  0.201300  0.398300  0.299400  1.0
  C  C1231  1  0.148300  0.548700  0.049400  1.0
  C  C1232  1  0.351700  0.451300  0.549400  1.0
  C  C1233  1  0.201300  0.898300  0.700600  1.0
  C  C1234  1  0.298700  0.101700  0.200600  1.0
  C  C1235  1  0.351700  0.951300  0.450600  1.0
  C  C1236  1  0.148300  0.048700  0.950600  1.0
  C  C1237  1  0.701300  0.398300  0.200600  1.0
  C  C1238  1  0.798700  0.601700  0.700600  1.0
  C  C1239  1  0.851700  0.451300  0.950600  1.0
  C  C1240  1  0.648300  0.548700  0.450600  1.0
  C  C1241  1  0.832400  0.137300  0.362400  1.0
  C  C1242  1  0.667600  0.862700  0.862400  1.0
  C  C1243  1  0.612700  0.082400  0.612400  1.0
  C  C1244  1  0.887300  0.917600  0.112400  1.0
  C  C1245  1  0.332400  0.637300  0.862400  1.0
  C  C1246  1  0.167600  0.362700  0.362400  1.0
  C  C1247  1  0.112700  0.582400  0.112400  1.0
  C  C1248  1  0.387300  0.417600  0.612400  1.0
  C  C1249  1  0.167600  0.862700  0.637600  1.0
  C  C1250  1  0.332400  0.137300  0.137600  1.0
  C  C1251  1  0.387300  0.917600  0.387600  1.0
  C  C1252  1  0.112700  0.082400  0.887600  1.0
  C  C1253  1  0.667600  0.362700  0.137600  1.0
  C  C1254  1  0.832400  0.637300  0.637600  1.0
  C  C1255  1  0.887300  0.417600  0.887600  1.0
  C  C1256  1  0.612700  0.582400  0.387600  1.0
  C  C1257  1  0.175200  0.980800  0.358500  1.0
  C  C1258  1  0.324800  0.019200  0.858500  1.0
  C  C1259  1  0.769200  0.425200  0.608500  1.0
  C  C1260  1  0.730800  0.574800  0.108500  1.0
  C  C1261  1  0.675200  0.480800  0.858500  1.0
  C  C1262  1  0.824800  0.519200  0.358500  1.0
  C  C1263  1  0.269200  0.925200  0.108500  1.0
  C  C1264  1  0.230800  0.074800  0.608500  1.0
  C  C1265  1  0.824800  0.019200  0.641500  1.0
  C  C1266  1  0.675200  0.980800  0.141500  1.0
  C  C1267  1  0.230800  0.574800  0.391500  1.0
  C  C1268  1  0.269200  0.425200  0.891500  1.0
  C  C1269  1  0.324800  0.519200  0.141500  1.0
  C  C1270  1  0.175200  0.480800  0.641500  1.0
  C  C1271  1  0.730800  0.074800  0.891500  1.0
  C  C1272  1  0.769200  0.925200  0.391500  1.0
  C  C1273  1  0.127200  0.975700  0.340500  1.0
  C  C1274  1  0.372800  0.024300  0.840500  1.0
  C  C1275  1  0.774300  0.377200  0.590500  1.0
  C  C1276  1  0.725700  0.622800  0.090500  1.0
  C  C1277  1  0.627200  0.475700  0.840500  1.0
  C  C1278  1  0.872800  0.524300  0.340500  1.0
  C  C1279  1  0.274300  0.877200  0.090500  1.0
  C  C1280  1  0.225700  0.122800  0.590500  1.0
  C  C1281  1  0.872800  0.024300  0.659500  1.0
  C  C1282  1  0.627200  0.975700  0.159500  1.0
  C  C1283  1  0.225700  0.622800  0.409500  1.0
  C  C1284  1  0.274300  0.377200  0.909500  1.0
  C  C1285  1  0.372800  0.524300  0.159500  1.0
  C  C1286  1  0.127200  0.475700  0.659500  1.0
  C  C1287  1  0.725700  0.122800  0.909500  1.0
  C  C1288  1  0.774300  0.877200  0.409500  1.0
  C  C1289  1  0.121500  0.946100  0.304340  1.0
  C  C1290  1  0.378500  0.053900  0.804340  1.0
  C  C1291  1  0.803900  0.371500  0.554340  1.0
  C  C1292  1  0.696100  0.628500  0.054340  1.0
  C  C1293  1  0.621500  0.446100  0.804340  1.0
  C  C1294  1  0.878500  0.553900  0.304340  1.0
  C  C1295  1  0.303900  0.871500  0.054340  1.0
  C  C1296  1  0.196100  0.128500  0.554340  1.0
  C  C1297  1  0.878500  0.053900  0.695660  1.0
  C  C1298  1  0.621500  0.946100  0.195660  1.0
  C  C1299  1  0.196100  0.628500  0.445660  1.0
  C  C1300  1  0.303900  0.371500  0.945660  1.0
  C  C1301  1  0.378500  0.553900  0.195660  1.0
  C  C1302  1  0.121500  0.446100  0.695660  1.0
  C  C1303  1  0.696100  0.128500  0.945660  1.0
  C  C1304  1  0.803900  0.871500  0.445660  1.0
  C  C1305  1  0.164800  0.923500  0.287320  1.0
  C  C1306  1  0.335200  0.076500  0.787320  1.0
  C  C1307  1  0.826500  0.414800  0.537320  1.0
  C  C1308  1  0.673500  0.585200  0.037320  1.0
  C  C1309  1  0.664800  0.423500  0.787320  1.0
  C  C1310  1  0.835200  0.576500  0.287320  1.0
  C  C1311  1  0.326500  0.914800  0.037320  1.0
  C  C1312  1  0.173500  0.085200  0.537320  1.0
  C  C1313  1  0.835200  0.076500  0.712680  1.0
  C  C1314  1  0.664800  0.923500  0.212680  1.0
  C  C1315  1  0.173500  0.585200  0.462680  1.0
  C  C1316  1  0.326500  0.414800  0.962680  1.0
  C  C1317  1  0.335200  0.576500  0.212680  1.0
  C  C1318  1  0.164800  0.423500  0.712680  1.0
  C  C1319  1  0.673500  0.085200  0.962680  1.0
  C  C1320  1  0.826500  0.914800  0.462680  1.0
  C  C1321  1  0.211500  0.931500  0.306270  1.0
  C  C1322  1  0.288500  0.068500  0.806270  1.0
  C  C1323  1  0.818500  0.461500  0.556270  1.0
  C  C1324  1  0.681500  0.538500  0.056270  1.0
  C  C1325  1  0.711500  0.431500  0.806270  1.0
  C  C1326  1  0.788500  0.568500  0.306270  1.0
  C  C1327  1  0.318500  0.961500  0.056270  1.0
  C  C1328  1  0.181500  0.038500  0.556270  1.0
  C  C1329  1  0.788500  0.068500  0.693730  1.0
  C  C1330  1  0.711500  0.931500  0.193730  1.0
  C  C1331  1  0.181500  0.538500  0.443730  1.0
  C  C1332  1  0.318500  0.461500  0.943730  1.0
  C  C1333  1  0.288500  0.568500  0.193730  1.0
  C  C1334  1  0.211500  0.431500  0.693730  1.0
  C  C1335  1  0.681500  0.038500  0.943730  1.0
  C  C1336  1  0.818500  0.961500  0.443730  1.0
  C  C1337  1  0.847700  0.981400  0.311990  1.0
  C  C1338  1  0.652300  0.018600  0.811990  1.0
  C  C1339  1  0.768600  0.097700  0.561990  1.0
  C  C1340  1  0.731400  0.902300  0.061990  1.0
  C  C1341  1  0.347700  0.481400  0.811990  1.0
  C  C1342  1  0.152300  0.518600  0.311990  1.0
  C  C1343  1  0.268600  0.597700  0.061990  1.0
  C  C1344  1  0.231400  0.402300  0.561990  1.0
  C  C1345  1  0.152300  0.018600  0.688010  1.0
  C  C1346  1  0.347700  0.981400  0.188010  1.0
  C  C1347  1  0.231400  0.902300  0.438010  1.0
  C  C1348  1  0.268600  0.097700  0.938010  1.0
  C  C1349  1  0.652300  0.518600  0.188010  1.0
  C  C1350  1  0.847700  0.481400  0.688010  1.0
  C  C1351  1  0.731400  0.402300  0.938010  1.0
  C  C1352  1  0.768600  0.597700  0.438010  1.0
  C  C1353  1  0.890200  0.961000  0.291050  1.0
  C  C1354  1  0.609800  0.039000  0.791050  1.0
  C  C1355  1  0.789000  0.140200  0.541050  1.0
  C  C1356  1  0.711000  0.859800  0.041050  1.0
  C  C1357  1  0.390200  0.461000  0.791050  1.0
  C  C1358  1  0.109800  0.539000  0.291050  1.0
  C  C1359  1  0.289000  0.640200  0.041050  1.0
  C  C1360  1  0.211000  0.359800  0.541050  1.0
  C  C1361  1  0.109800  0.039000  0.708950  1.0
  C  C1362  1  0.390200  0.961000  0.208950  1.0
  C  C1363  1  0.211000  0.859800  0.458950  1.0
  C  C1364  1  0.289000  0.140200  0.958950  1.0
  C  C1365  1  0.609800  0.539000  0.208950  1.0
  C  C1366  1  0.890200  0.461000  0.708950  1.0
  C  C1367  1  0.711000  0.359800  0.958950  1.0
  C  C1368  1  0.789000  0.640200  0.458950  1.0
  C  C1369  1  0.938600  0.970900  0.306830  1.0
  C  C1370  1  0.561400  0.029100  0.806830  1.0
  C  C1371  1  0.779100  0.188600  0.556830  1.0
  C  C1372  1  0.720900  0.811400  0.056830  1.0
  C  C1373  1  0.438600  0.470900  0.806830  1.0
  C  C1374  1  0.061400  0.529100  0.306830  1.0
  C  C1375  1  0.279100  0.688600  0.056830  1.0
  C  C1376  1  0.220900  0.311400  0.556830  1.0
  C  C1377  1  0.061400  0.029100  0.693170  1.0
  C  C1378  1  0.438600  0.970900  0.193170  1.0
  C  C1379  1  0.220900  0.811400  0.443170  1.0
  C  C1380  1  0.279100  0.188600  0.943170  1.0
  C  C1381  1  0.561400  0.529100  0.193170  1.0
  C  C1382  1  0.938600  0.470900  0.693170  1.0
  C  C1383  1  0.720900  0.311400  0.943170  1.0
  C  C1384  1  0.779100  0.688600  0.443170  1.0
  C  C1385  1  0.942500  0.001300  0.343110  1.0
  C  C1386  1  0.557500  0.998700  0.843110  1.0
  C  C1387  1  0.748700  0.192500  0.593110  1.0
  C  C1388  1  0.751300  0.807500  0.093110  1.0
  C  C1389  1  0.442500  0.501300  0.843110  1.0
  C  C1390  1  0.057500  0.498700  0.343110  1.0
  C  C1391  1  0.248700  0.692500  0.093110  1.0
  C  C1392  1  0.251300  0.307500  0.593110  1.0
  C  C1393  1  0.057500  0.998700  0.656890  1.0
  C  C1394  1  0.442500  0.001300  0.156890  1.0
  C  C1395  1  0.251300  0.807500  0.406890  1.0
  C  C1396  1  0.248700  0.192500  0.906890  1.0
  C  C1397  1  0.557500  0.498700  0.156890  1.0
  C  C1398  1  0.942500  0.501300  0.656890  1.0
  C  C1399  1  0.751300  0.307500  0.906890  1.0
  C  C1400  1  0.748700  0.692500  0.406890  1.0
  C  C1401  1  0.899500  0.020500  0.361960  1.0
  C  C1402  1  0.600500  0.979500  0.861960  1.0
  C  C1403  1  0.729500  0.149500  0.611960  1.0
  C  C1404  1  0.770500  0.850500  0.111960  1.0
  C  C1405  1  0.399500  0.520500  0.861960  1.0
  C  C1406  1  0.100500  0.479500  0.361960  1.0
  C  C1407  1  0.229500  0.649500  0.111960  1.0
  C  C1408  1  0.270500  0.350500  0.611960  1.0
  C  C1409  1  0.100500  0.979500  0.638040  1.0
  C  C1410  1  0.399500  0.020500  0.138040  1.0
  C  C1411  1  0.270500  0.850500  0.388040  1.0
  C  C1412  1  0.229500  0.149500  0.888040  1.0
  C  C1413  1  0.600500  0.479500  0.138040  1.0
  C  C1414  1  0.899500  0.520500  0.638040  1.0
  C  C1415  1  0.770500  0.350500  0.888040  1.0
  C  C1416  1  0.729500  0.649500  0.388040  1.0
  C  C1417  1  0.985200  0.950200  0.285900  1.0
  C  C1418  1  0.514800  0.049800  0.785900  1.0
  C  C1419  1  0.799800  0.235200  0.535900  1.0
  C  C1420  1  0.700200  0.764800  0.035900  1.0
  C  C1421  1  0.485200  0.450200  0.785900  1.0
  C  C1422  1  0.014800  0.549800  0.285900  1.0
  C  C1423  1  0.299800  0.735200  0.035900  1.0
  C  C1424  1  0.200200  0.264800  0.535900  1.0
  C  C1425  1  0.014800  0.049800  0.714100  1.0
  C  C1426  1  0.485200  0.950200  0.214100  1.0
  C  C1427  1  0.200200  0.764800  0.464100  1.0
  C  C1428  1  0.299800  0.235200  0.964100  1.0
  C  C1429  1  0.514800  0.549800  0.214100  1.0
  C  C1430  1  0.985200  0.450200  0.714100  1.0
  C  C1431  1  0.700200  0.264800  0.964100  1.0
  C  C1432  1  0.799800  0.735200  0.464100  1.0
  C  C1433  1  0.070400  0.937900  0.285110  1.0
  C  C1434  1  0.429600  0.062100  0.785110  1.0
  C  C1435  1  0.812100  0.320400  0.535110  1.0
  C  C1436  1  0.687900  0.679600  0.035110  1.0
  C  C1437  1  0.570400  0.437900  0.785110  1.0
  C  C1438  1  0.929600  0.562100  0.285110  1.0
  C  C1439  1  0.312100  0.820400  0.035110  1.0
  C  C1440  1  0.187900  0.179600  0.535110  1.0
  C  C1441  1  0.929600  0.062100  0.714890  1.0
  C  C1442  1  0.570400  0.937900  0.214890  1.0
  C  C1443  1  0.187900  0.679600  0.464890  1.0
  C  C1444  1  0.312100  0.320400  0.964890  1.0
  C  C1445  1  0.429600  0.562100  0.214890  1.0
  C  C1446  1  0.070400  0.437900  0.714890  1.0
  C  C1447  1  0.687900  0.179600  0.964890  1.0
  C  C1448  1  0.812100  0.820400  0.464890  1.0
  C  C1449  1  0.020900  0.900900  0.235110  1.0
  C  C1450  1  0.479100  0.099100  0.735110  1.0
  C  C1451  1  0.849100  0.270900  0.485110  1.0
  C  C1452  1  0.650900  0.729100  0.985110  1.0
  C  C1453  1  0.520900  0.400900  0.735110  1.0
  C  C1454  1  0.979100  0.599100  0.235110  1.0
  C  C1455  1  0.349100  0.770900  0.985110  1.0
  C  C1456  1  0.150900  0.229100  0.485110  1.0
  C  C1457  1  0.979100  0.099100  0.764890  1.0
  C  C1458  1  0.520900  0.900900  0.264890  1.0
  C  C1459  1  0.150900  0.729100  0.514890  1.0
  C  C1460  1  0.349100  0.270900  0.014890  1.0
  C  C1461  1  0.479100  0.599100  0.264890  1.0
  C  C1462  1  0.020900  0.400900  0.764890  1.0
  C  C1463  1  0.650900  0.229100  0.014890  1.0
  C  C1464  1  0.849100  0.770900  0.514890  1.0
  C  C1465  1  0.016000  0.867600  0.197520  1.0
  C  C1466  1  0.484000  0.132400  0.697520  1.0
  C  C1467  1  0.882400  0.266000  0.447520  1.0
  C  C1468  1  0.617600  0.734000  0.947520  1.0
  C  C1469  1  0.516000  0.367600  0.697520  1.0
  C  C1470  1  0.984000  0.632400  0.197520  1.0
  C  C1471  1  0.382400  0.766000  0.947520  1.0
  C  C1472  1  0.117600  0.234000  0.447520  1.0
  C  C1473  1  0.984000  0.132400  0.802480  1.0
  C  C1474  1  0.516000  0.867600  0.302480  1.0
  C  C1475  1  0.117600  0.734000  0.552480  1.0
  C  C1476  1  0.382400  0.266000  0.052480  1.0
  C  C1477  1  0.484000  0.632400  0.302480  1.0
  C  C1478  1  0.016000  0.367600  0.802480  1.0
  C  C1479  1  0.617600  0.234000  0.052480  1.0
  C  C1480  1  0.882400  0.766000  0.552480  1.0
  C  C1481  1  0.968700  0.853600  0.181960  1.0
  C  C1482  1  0.531300  0.146400  0.681960  1.0
  C  C1483  1  0.896400  0.218700  0.431960  1.0
  C  C1484  1  0.603600  0.781300  0.931960  1.0
  C  C1485  1  0.468700  0.353600  0.681960  1.0
  C  C1486  1  0.031300  0.646400  0.181960  1.0
  C  C1487  1  0.396400  0.718700  0.931960  1.0
  C  C1488  1  0.103600  0.281300  0.431960  1.0
  C  C1489  1  0.031300  0.146400  0.818040  1.0
  C  C1490  1  0.468700  0.853600  0.318040  1.0
  C  C1491  1  0.103600  0.781300  0.568040  1.0
  C  C1492  1  0.396400  0.218700  0.068040  1.0
  C  C1493  1  0.531300  0.646400  0.318040  1.0
  C  C1494  1  0.968700  0.353600  0.818040  1.0
  C  C1495  1  0.603600  0.281300  0.068040  1.0
  C  C1496  1  0.896400  0.718700  0.568040  1.0
  C  C1497  1  0.965600  0.821400  0.147590  1.0
  C  C1498  1  0.534400  0.178600  0.647590  1.0
  C  C1499  1  0.928600  0.215600  0.397590  1.0
  C  C1500  1  0.571400  0.784400  0.897590  1.0
  C  C1501  1  0.465600  0.321400  0.647590  1.0
  C  C1502  1  0.034400  0.678600  0.147590  1.0
  C  C1503  1  0.428600  0.715600  0.897590  1.0
  C  C1504  1  0.071400  0.284400  0.397590  1.0
  C  C1505  1  0.034400  0.178600  0.852410  1.0
  C  C1506  1  0.465600  0.821400  0.352410  1.0
  C  C1507  1  0.071400  0.784400  0.602410  1.0
  C  C1508  1  0.428600  0.215600  0.102410  1.0
  C  C1509  1  0.534400  0.678600  0.352410  1.0
  C  C1510  1  0.965600  0.321400  0.852410  1.0
  C  C1511  1  0.571400  0.284400  0.102410  1.0
  C  C1512  1  0.928600  0.715600  0.602410  1.0
  C  C1513  1  0.059400  0.848800  0.177260  1.0
  C  C1514  1  0.440600  0.151200  0.677260  1.0
  C  C1515  1  0.901200  0.309400  0.427260  1.0
  C  C1516  1  0.598800  0.690600  0.927260  1.0
  C  C1517  1  0.559400  0.348800  0.677260  1.0
  C  C1518  1  0.940600  0.651200  0.177260  1.0
  C  C1519  1  0.401200  0.809400  0.927260  1.0
  C  C1520  1  0.098800  0.190600  0.427260  1.0
  C  C1521  1  0.940600  0.151200  0.822740  1.0
  C  C1522  1  0.559400  0.848800  0.322740  1.0
  C  C1523  1  0.098800  0.690600  0.572740  1.0
  C  C1524  1  0.401200  0.309400  0.072740  1.0
  C  C1525  1  0.440600  0.651200  0.322740  1.0
  C  C1526  1  0.059400  0.348800  0.822740  1.0
  C  C1527  1  0.598800  0.190600  0.072740  1.0
  C  C1528  1  0.901200  0.809400  0.572740  1.0
  C  C1529  1  0.053700  0.816100  0.143310  1.0
  C  C1530  1  0.446300  0.183900  0.643310  1.0
  C  C1531  1  0.933900  0.303700  0.393310  1.0
  C  C1532  1  0.566100  0.696300  0.893310  1.0
  C  C1533  1  0.553700  0.316100  0.643310  1.0
  C  C1534  1  0.946300  0.683900  0.143310  1.0
  C  C1535  1  0.433900  0.803700  0.893310  1.0
  C  C1536  1  0.066100  0.196300  0.393310  1.0
  C  C1537  1  0.946300  0.183900  0.856690  1.0
  C  C1538  1  0.553700  0.816100  0.356690  1.0
  C  C1539  1  0.066100  0.696300  0.606690  1.0
  C  C1540  1  0.433900  0.303700  0.106690  1.0
  C  C1541  1  0.446300  0.683900  0.356690  1.0
  C  C1542  1  0.053700  0.316100  0.856690  1.0
  C  C1543  1  0.566100  0.196300  0.106690  1.0
  C  C1544  1  0.933900  0.803700  0.606690  1.0
  C  C1545  1  0.990800  0.777500  0.993600  1.0
  C  C1546  1  0.509200  0.222500  0.493600  1.0
  C  C1547  1  0.972500  0.240800  0.243600  1.0
  C  C1548  1  0.527500  0.759200  0.743600  1.0
  C  C1549  1  0.490800  0.277500  0.493600  1.0
  C  C1550  1  0.009200  0.722500  0.993600  1.0
  C  C1551  1  0.472500  0.740800  0.743600  1.0
  C  C1552  1  0.027500  0.259200  0.243600  1.0
  C  C1553  1  0.009200  0.222500  0.006400  1.0
  C  C1554  1  0.490800  0.777500  0.506400  1.0
  C  C1555  1  0.027500  0.759200  0.756400  1.0
  C  C1556  1  0.472500  0.240800  0.256400  1.0
  C  C1557  1  0.509200  0.722500  0.506400  1.0
  C  C1558  1  0.990800  0.277500  0.006400  1.0
  C  C1559  1  0.527500  0.259200  0.256400  1.0
  C  C1560  1  0.972500  0.740800  0.756400  1.0
  C  C1561  1  0.977500  0.850100  0.039600  1.0
  C  C1562  1  0.522500  0.149900  0.539600  1.0
  C  C1563  1  0.899900  0.227500  0.289600  1.0
  C  C1564  1  0.600100  0.772500  0.789600  1.0
  C  C1565  1  0.477500  0.350100  0.539600  1.0
  C  C1566  1  0.022500  0.649900  0.039600  1.0
  C  C1567  1  0.399900  0.727500  0.789600  1.0
  C  C1568  1  0.100100  0.272500  0.289600  1.0
  C  C1569  1  0.022500  0.149900  0.960400  1.0
  C  C1570  1  0.477500  0.850100  0.460400  1.0
  C  C1571  1  0.100100  0.772500  0.710400  1.0
  C  C1572  1  0.399900  0.227500  0.210400  1.0
  C  C1573  1  0.522500  0.649900  0.460400  1.0
  C  C1574  1  0.977500  0.350100  0.960400  1.0
  C  C1575  1  0.600100  0.272500  0.210400  1.0
  C  C1576  1  0.899900  0.727500  0.710400  1.0
  C  C1577  1  0.063100  0.817200  0.029000  1.0
  C  C1578  1  0.436900  0.182800  0.529000  1.0
  C  C1579  1  0.932800  0.313100  0.279000  1.0
  C  C1580  1  0.567200  0.686900  0.779000  1.0
  C  C1581  1  0.563100  0.317200  0.529000  1.0
  C  C1582  1  0.936900  0.682800  0.029000  1.0
  C  C1583  1  0.432800  0.813100  0.779000  1.0
  C  C1584  1  0.067200  0.186900  0.279000  1.0
  C  C1585  1  0.936900  0.182800  0.971000  1.0
  C  C1586  1  0.563100  0.817200  0.471000  1.0
  C  C1587  1  0.067200  0.686900  0.721000  1.0
  C  C1588  1  0.432800  0.313100  0.221000  1.0
  C  C1589  1  0.436900  0.682800  0.471000  1.0
  C  C1590  1  0.063100  0.317200  0.971000  1.0
  C  C1591  1  0.567200  0.186900  0.221000  1.0
  C  C1592  1  0.932800  0.813100  0.721000  1.0
  N  N1593  1  0.890000  0.069800  0.481100  1
  N  N1594  1  0.610000  0.930200  0.981100  1
  N  N1595  1  0.680200  0.140000  0.731100  1
  N  N1596  1  0.819800  0.860000  0.231100  1
  N  N1597  1  0.390000  0.569800  0.981100  1
  N  N1598  1  0.110000  0.430200  0.481100  1
  N  N1599  1  0.180200  0.640000  0.231100  1
  N  N1600  1  0.319800  0.360000  0.731100  1
  N  N1601  1  0.110000  0.930200  0.518900  1
  N  N1602  1  0.390000  0.069800  0.018900  1
  N  N1603  1  0.319800  0.860000  0.268900  1
  N  N1604  1  0.180200  0.140000  0.768900  1
  N  N1605  1  0.610000  0.430200  0.018900  1
  N  N1606  1  0.890000  0.569800  0.518900  1
  N  N1607  1  0.819800  0.360000  0.768900  1
  N  N1608  1  0.680200  0.640000  0.268900  1
  N  N1609  1  0.672600  0.205100  0.489700  1
  N  N1610  1  0.827400  0.794900  0.989700  1
  N  N1611  1  0.544900  0.922600  0.739700  1
  N  N1612  1  0.955100  0.077400  0.239700  1
  N  N1613  1  0.172600  0.705100  0.989700  1
  N  N1614  1  0.327400  0.294900  0.489700  1
  N  N1615  1  0.044900  0.422600  0.239700  1
  N  N1616  1  0.455100  0.577400  0.739700  1
  N  N1617  1  0.327400  0.794900  0.510300  1
  N  N1618  1  0.172600  0.205100  0.010300  1
  N  N1619  1  0.455100  0.077400  0.260300  1
  N  N1620  1  0.044900  0.922600  0.760300  1
  N  N1621  1  0.827400  0.294900  0.010300  1
  N  N1622  1  0.672600  0.705100  0.510300  1
  N  N1623  1  0.955100  0.577400  0.760300  1
  N  N1624  1  0.544900  0.422600  0.260300  1
  N  N1625  1  0.904000  0.082200  0.462800  1
  N  N1626  1  0.596000  0.917800  0.962800  1
  N  N1627  1  0.667800  0.154000  0.712800  1
  N  N1628  1  0.832200  0.846000  0.212800  1
  N  N1629  1  0.404000  0.582200  0.962800  1
  N  N1630  1  0.096000  0.417800  0.462800  1
  N  N1631  1  0.167800  0.654000  0.212800  1
  N  N1632  1  0.332200  0.346000  0.712800  1
  N  N1633  1  0.096000  0.917800  0.537200  1
  N  N1634  1  0.404000  0.082200  0.037200  1
  N  N1635  1  0.332200  0.846000  0.287200  1
  N  N1636  1  0.167800  0.154000  0.787200  1
  N  N1637  1  0.596000  0.417800  0.037200  1
  N  N1638  1  0.904000  0.582200  0.537200  1
  N  N1639  1  0.832200  0.346000  0.787200  1
  N  N1640  1  0.667800  0.654000  0.287200  1
  N  N1641  1  0.676900  0.979400  0.301600  1
  N  N1642  1  0.823100  0.020600  0.801600  1
  N  N1643  1  0.770600  0.926900  0.551600  1
  N  N1644  1  0.729400  0.073100  0.051600  1
  N  N1645  1  0.176900  0.479400  0.801600  1
  N  N1646  1  0.323100  0.520600  0.301600  1
  N  N1647  1  0.270600  0.426900  0.051600  1
  N  N1648  1  0.229400  0.573100  0.551600  1
  N  N1649  1  0.323100  0.020600  0.698400  1
  N  N1650  1  0.176900  0.979400  0.198400  1
  N  N1651  1  0.229400  0.073100  0.448400  1
  N  N1652  1  0.270600  0.926900  0.948400  1
  N  N1653  1  0.823100  0.520600  0.198400  1
  N  N1654  1  0.676900  0.479400  0.698400  1
  N  N1655  1  0.729400  0.573100  0.948400  1
  N  N1656  1  0.770600  0.426900  0.448400  1
  N  N1657  1  0.031400  0.967900  0.139000  1
  N  N1658  1  0.468600  0.032100  0.639000  1
  N  N1659  1  0.782100  0.281400  0.389000  1
  N  N1660  1  0.717900  0.718600  0.889000  1
  N  N1661  1  0.531400  0.467900  0.639000  1
  N  N1662  1  0.968600  0.532100  0.139000  1
  N  N1663  1  0.282100  0.781400  0.889000  1
  N  N1664  1  0.217900  0.218600  0.389000  1
  N  N1665  1  0.968600  0.032100  0.861000  1
  N  N1666  1  0.531400  0.967900  0.361000  1
  N  N1667  1  0.217900  0.718600  0.611000  1
  N  N1668  1  0.282100  0.281400  0.111000  1
  N  N1669  1  0.468600  0.532100  0.361000  1
  N  N1670  1  0.031400  0.467900  0.861000  1
  N  N1671  1  0.717900  0.218600  0.111000  1
  N  N1672  1  0.782100  0.781400  0.611000  1
  N  N1673  1  0.852230  0.010750  0.346320  1.0
  N  N1674  1  0.647770  0.989250  0.846320  1.0
  N  N1675  1  0.739250  0.102230  0.596320  1.0
  N  N1676  1  0.760750  0.897770  0.096320  1.0
  N  N1677  1  0.352230  0.510750  0.846320  1.0
  N  N1678  1  0.147770  0.489250  0.346320  1.0
  N  N1679  1  0.239250  0.602230  0.096320  1.0
  N  N1680  1  0.260750  0.397770  0.596320  1.0
  N  N1681  1  0.147770  0.989250  0.653680  1.0
  N  N1682  1  0.352230  0.010750  0.153680  1.0
  N  N1683  1  0.260750  0.897770  0.403680  1.0
  N  N1684  1  0.239250  0.102230  0.903680  1.0
  N  N1685  1  0.647770  0.489250  0.153680  1.0
  N  N1686  1  0.852230  0.510750  0.653680  1.0
  N  N1687  1  0.760750  0.397770  0.903680  1.0
  N  N1688  1  0.739250  0.602230  0.403680  1.0
  N  N1689  1  0.977910  0.921400  0.251380  1.0
  N  N1690  1  0.522090  0.078600  0.751380  1.0
  N  N1691  1  0.828600  0.227910  0.501380  1.0
  N  N1692  1  0.671400  0.772090  0.001380  1.0
  N  N1693  1  0.477910  0.421400  0.751380  1.0
  N  N1694  1  0.022090  0.578600  0.251380  1.0
  N  N1695  1  0.328600  0.727910  0.001380  1.0
  N  N1696  1  0.171400  0.272090  0.501380  1.0
  N  N1697  1  0.022090  0.078600  0.748620  1.0
  N  N1698  1  0.477910  0.921400  0.248620  1.0
  N  N1699  1  0.171400  0.772090  0.498620  1.0
  N  N1700  1  0.328600  0.227910  0.998620  1.0
  N  N1701  1  0.522090  0.578600  0.248620  1.0
  N  N1702  1  0.977910  0.421400  0.748620  1.0
  N  N1703  1  0.671400  0.272090  0.998620  1.0
  N  N1704  1  0.828600  0.727910  0.498620  1.0
  N  N1705  1  0.030150  0.960340  0.303890  1.0
  N  N1706  1  0.469850  0.039660  0.803890  1.0
  N  N1707  1  0.789660  0.280150  0.553890  1.0
  N  N1708  1  0.710340  0.719850  0.053890  1.0
  N  N1709  1  0.530150  0.460340  0.803890  1.0
  N  N1710  1  0.969850  0.539660  0.303890  1.0
  N  N1711  1  0.289660  0.780150  0.053890  1.0
  N  N1712  1  0.210340  0.219850  0.553890  1.0
  N  N1713  1  0.969850  0.039660  0.696110  1.0
  N  N1714  1  0.530150  0.960340  0.196110  1.0
  N  N1715  1  0.210340  0.719850  0.446110  1.0
  N  N1716  1  0.289660  0.280150  0.946110  1.0
  N  N1717  1  0.469850  0.539660  0.196110  1.0
  N  N1718  1  0.030150  0.460340  0.696110  1.0
  N  N1719  1  0.710340  0.219850  0.946110  1.0
  N  N1720  1  0.789660  0.780150  0.446110  1.0
  N  N1721  1  0.068140  0.908330  0.250980  1.0
  N  N1722  1  0.431860  0.091670  0.750980  1.0
  N  N1723  1  0.841670  0.318140  0.500980  1.0
  N  N1724  1  0.658330  0.681860  0.000980  1.0
  N  N1725  1  0.568140  0.408330  0.750980  1.0
  N  N1726  1  0.931860  0.591670  0.250980  1.0
  N  N1727  1  0.341670  0.818140  0.000980  1.0
  N  N1728  1  0.158330  0.181860  0.500980  1.0
  N  N1729  1  0.931860  0.091670  0.749020  1.0
  N  N1730  1  0.568140  0.908330  0.249020  1.0
  N  N1731  1  0.158330  0.681860  0.499020  1.0
  N  N1732  1  0.341670  0.318140  0.999020  1.0
  N  N1733  1  0.431860  0.591670  0.249020  1.0
  N  N1734  1  0.068140  0.408330  0.749020  1.0
  N  N1735  1  0.658330  0.181860  0.999020  1.0
  N  N1736  1  0.841670  0.818140  0.499020  1.0
  N  N1737  1  0.007680  0.802400  0.128310  1.0
  N  N1738  1  0.492320  0.197600  0.628310  1.0
  N  N1739  1  0.947600  0.257680  0.378310  1.0
  N  N1740  1  0.552400  0.742320  0.878310  1.0
  N  N1741  1  0.507680  0.302400  0.628310  1.0
  N  N1742  1  0.992320  0.697600  0.128310  1.0
  N  N1743  1  0.447600  0.757680  0.878310  1.0
  N  N1744  1  0.052400  0.242320  0.378310  1.0
  N  N1745  1  0.992320  0.197600  0.871690  1.0
  N  N1746  1  0.507680  0.802400  0.371690  1.0
  N  N1747  1  0.052400  0.742320  0.621690  1.0
  N  N1748  1  0.447600  0.257680  0.121690  1.0
  N  N1749  1  0.492320  0.697600  0.371690  1.0
  N  N1750  1  0.007680  0.302400  0.871690  1.0
  N  N1751  1  0.552400  0.242320  0.121690  1.0
  N  N1752  1  0.947600  0.757680  0.621690  1.0
  N  N1753  1  0.008700  0.802800  0.033200  1.0
  N  N1754  1  0.491300  0.197200  0.533200  1.0
  N  N1755  1  0.947200  0.258700  0.283200  1.0
  N  N1756  1  0.552800  0.741300  0.783200  1.0
  N  N1757  1  0.508700  0.302800  0.533200  1.0
  N  N1758  1  0.991300  0.697200  0.033200  1.0
  N  N1759  1  0.447200  0.758700  0.783200  1.0
  N  N1760  1  0.052800  0.241300  0.283200  1.0
  N  N1761  1  0.991300  0.197200  0.966800  1.0
  N  N1762  1  0.508700  0.802800  0.466800  1.0
  N  N1763  1  0.052800  0.741300  0.716800  1.0
  N  N1764  1  0.447200  0.258700  0.216800  1.0
  N  N1765  1  0.491300  0.697200  0.466800  1.0
  N  N1766  1  0.008700  0.302800  0.966800  1.0
  N  N1767  1  0.552800  0.241300  0.216800  1.0
  N  N1768  1  0.947200  0.758700  0.716800  1.0
  N  N1769  1  0.216510  0.958930  0.341690  1.0
  N  N1770  1  0.283490  0.041070  0.841690  1.0
  N  N1771  1  0.791070  0.466510  0.591690  1.0
  N  N1772  1  0.708930  0.533490  0.091690  1.0
  N  N1773  1  0.716510  0.458930  0.841690  1.0
  N  N1774  1  0.783490  0.541070  0.341690  1.0
  N  N1775  1  0.291070  0.966510  0.091690  1.0
  N  N1776  1  0.208930  0.033490  0.591690  1.0
  N  N1777  1  0.783490  0.041070  0.658310  1.0
  N  N1778  1  0.716510  0.958930  0.158310  1.0
  N  N1779  1  0.208930  0.533490  0.408310  1.0
  N  N1780  1  0.291070  0.466510  0.908310  1.0
  N  N1781  1  0.283490  0.541070  0.158310  1.0
  N  N1782  1  0.216510  0.458930  0.658310  1.0
  N  N1783  1  0.708930  0.033490  0.908310  1.0
  N  N1784  1  0.791070  0.966510  0.408310  1.0
  N  N1785  1  0.724670  0.060700  0.409300  1.0
  N  N1786  1  0.775330  0.939300  0.909300  1.0
  N  N1787  1  0.689300  0.974670  0.659300  1.0
  N  N1788  1  0.810700  0.025330  0.159300  1.0
  N  N1789  1  0.224670  0.560700  0.909300  1.0
  N  N1790  1  0.275330  0.439300  0.409300  1.0
  N  N1791  1  0.189300  0.474670  0.159300  1.0
  N  N1792  1  0.310700  0.525330  0.659300  1.0
  N  N1793  1  0.275330  0.939300  0.590700  1.0
  N  N1794  1  0.224670  0.060700  0.090700  1.0
  N  N1795  1  0.310700  0.025330  0.340700  1.0
  N  N1796  1  0.189300  0.974670  0.840700  1.0
  N  N1797  1  0.775330  0.439300  0.090700  1.0
  N  N1798  1  0.724670  0.560700  0.590700  1.0
  N  N1799  1  0.810700  0.525330  0.840700  1.0
  N  N1800  1  0.689300  0.474670  0.340700  1.0
  N  N1801  1  0.788300  0.106090  0.348560  1.0
  N  N1802  1  0.711700  0.893910  0.848560  1.0
  N  N1803  1  0.643910  0.038300  0.598560  1.0
  N  N1804  1  0.856090  0.961700  0.098560  1.0
  N  N1805  1  0.288300  0.606090  0.848560  1.0
  N  N1806  1  0.211700  0.393910  0.348560  1.0
  N  N1807  1  0.143910  0.538300  0.098560  1.0
  N  N1808  1  0.356090  0.461700  0.598560  1.0
  N  N1809  1  0.211700  0.893910  0.651440  1.0
  N  N1810  1  0.288300  0.106090  0.151440  1.0
  N  N1811  1  0.356090  0.961700  0.401440  1.0
  N  N1812  1  0.143910  0.038300  0.901440  1.0
  N  N1813  1  0.711700  0.393910  0.151440  1.0
  N  N1814  1  0.788300  0.606090  0.651440  1.0
  N  N1815  1  0.856090  0.461700  0.901440  1.0
  N  N1816  1  0.643910  0.538300  0.401440  1.0
  O  O1817  1  0.868900  0.089400  0.452100  1
  O  O1818  1  0.631100  0.910600  0.952100  1
  O  O1819  1  0.660600  0.118900  0.702100  1
  O  O1820  1  0.839400  0.881100  0.202100  1
  O  O1821  1  0.368900  0.589400  0.952100  1
  O  O1822  1  0.131100  0.410600  0.452100  1
  O  O1823  1  0.160600  0.618900  0.202100  1
  O  O1824  1  0.339400  0.381100  0.702100  1
  O  O1825  1  0.131100  0.910600  0.547900  1
  O  O1826  1  0.368900  0.089400  0.047900  1
  O  O1827  1  0.339400  0.881100  0.297900  1
  O  O1828  1  0.160600  0.118900  0.797900  1
  O  O1829  1  0.631100  0.410600  0.047900  1
  O  O1830  1  0.868900  0.589400  0.547900  1
  O  O1831  1  0.839400  0.381100  0.797900  1
  O  O1832  1  0.660600  0.618900  0.297900  1
  O  O1833  1  0.939300  0.067300  0.483200  1
  O  O1834  1  0.560700  0.932700  0.983200  1
  O  O1835  1  0.682700  0.189300  0.733200  1
  O  O1836  1  0.817300  0.810700  0.233200  1
  O  O1837  1  0.439300  0.567300  0.983200  1
  O  O1838  1  0.060700  0.432700  0.483200  1
  O  O1839  1  0.182700  0.689300  0.233200  1
  O  O1840  1  0.317300  0.310700  0.733200  1
  O  O1841  1  0.060700  0.932700  0.516800  1
  O  O1842  1  0.439300  0.067300  0.016800  1
  O  O1843  1  0.317300  0.810700  0.266800  1
  O  O1844  1  0.182700  0.189300  0.766800  1
  O  O1845  1  0.560700  0.432700  0.016800  1
  O  O1846  1  0.939300  0.567300  0.516800  1
  O  O1847  1  0.817300  0.310700  0.766800  1
  O  O1848  1  0.682700  0.689300  0.266800  1
  O  O1849  1  0.867400  0.051100  0.512600  1
  O  O1850  1  0.632600  0.948900  0.012600  1
  O  O1851  1  0.698900  0.117400  0.762600  1
  O  O1852  1  0.801100  0.882600  0.262600  1
  O  O1853  1  0.367400  0.551100  0.012600  1
  O  O1854  1  0.132600  0.448900  0.512600  1
  O  O1855  1  0.198900  0.617400  0.262600  1
  O  O1856  1  0.301100  0.382600  0.762600  1
  O  O1857  1  0.132600  0.948900  0.487400  1
  O  O1858  1  0.367400  0.051100  0.987400  1
  O  O1859  1  0.301100  0.882600  0.237400  1
  O  O1860  1  0.198900  0.117400  0.737400  1
  O  O1861  1  0.632600  0.448900  0.987400  1
  O  O1862  1  0.867400  0.551100  0.487400  1
  O  O1863  1  0.801100  0.382600  0.737400  1
  O  O1864  1  0.698900  0.617400  0.237400  1
  O  O1865  1  0.721700  0.993200  0.294700  1
  O  O1866  1  0.778300  0.006800  0.794700  1
  O  O1867  1  0.756800  0.971700  0.544700  1
  O  O1868  1  0.743200  0.028300  0.044700  1
  O  O1869  1  0.221700  0.493200  0.794700  1
  O  O1870  1  0.278300  0.506800  0.294700  1
  O  O1871  1  0.256800  0.471700  0.044700  1
  O  O1872  1  0.243200  0.528300  0.544700  1
  O  O1873  1  0.278300  0.006800  0.705300  1
  O  O1874  1  0.221700  0.993200  0.205300  1
  O  O1875  1  0.243200  0.028300  0.455300  1
  O  O1876  1  0.256800  0.971700  0.955300  1
  O  O1877  1  0.778300  0.506800  0.205300  1
  O  O1878  1  0.721700  0.493200  0.705300  1
  O  O1879  1  0.743200  0.528300  0.955300  1
  O  O1880  1  0.756800  0.471700  0.455300  1
  O  O1881  1  0.671400  0.905000  0.326400  1
  O  O1882  1  0.828600  0.095000  0.826400  1
  O  O1883  1  0.845000  0.921400  0.576400  1
  O  O1884  1  0.655000  0.078600  0.076400  1
  O  O1885  1  0.171400  0.405000  0.826400  1
  O  O1886  1  0.328600  0.595000  0.326400  1
  O  O1887  1  0.345000  0.421400  0.076400  1
  O  O1888  1  0.155000  0.578600  0.576400  1
  O  O1889  1  0.328600  0.095000  0.673600  1
  O  O1890  1  0.171400  0.905000  0.173600  1
  O  O1891  1  0.155000  0.078600  0.423600  1
  O  O1892  1  0.345000  0.921400  0.923600  1
  O  O1893  1  0.828600  0.595000  0.173600  1
  O  O1894  1  0.671400  0.405000  0.673600  1
  O  O1895  1  0.655000  0.578600  0.923600  1
  O  O1896  1  0.845000  0.421400  0.423600  1
  O  O1897  1  0.696500  0.199100  0.453000  1
  O  O1898  1  0.803500  0.800900  0.953000  1
  O  O1899  1  0.550900  0.946500  0.703000  1
  O  O1900  1  0.949100  0.053500  0.203000  1
  O  O1901  1  0.196500  0.699100  0.953000  1
  O  O1902  1  0.303500  0.300900  0.453000  1
  O  O1903  1  0.050900  0.446500  0.203000  1
  O  O1904  1  0.449100  0.553500  0.703000  1
  O  O1905  1  0.303500  0.800900  0.547000  1
  O  O1906  1  0.196500  0.199100  0.047000  1
  O  O1907  1  0.449100  0.053500  0.297000  1
  O  O1908  1  0.050900  0.946500  0.797000  1
  O  O1909  1  0.803500  0.300900  0.047000  1
  O  O1910  1  0.696500  0.699100  0.547000  1
  O  O1911  1  0.949100  0.553500  0.797000  1
  O  O1912  1  0.550900  0.446500  0.297000  1
  O  O1913  1  0.678900  0.241800  0.510600  1
  O  O1914  1  0.821100  0.758200  0.010600  1
  O  O1915  1  0.508200  0.928900  0.760600  1
  O  O1916  1  0.991800  0.071100  0.260600  1
  O  O1917  1  0.178900  0.741800  0.010600  1
  O  O1918  1  0.321100  0.258200  0.510600  1
  O  O1919  1  0.008200  0.428900  0.260600  1
  O  O1920  1  0.491800  0.571100  0.760600  1
  O  O1921  1  0.321100  0.758200  0.489400  1
  O  O1922  1  0.178900  0.241800  0.989400  1
  O  O1923  1  0.491800  0.071100  0.239400  1
  O  O1924  1  0.008200  0.928900  0.739400  1
  O  O1925  1  0.821100  0.258200  0.989400  1
  O  O1926  1  0.678900  0.741800  0.489400  1
  O  O1927  1  0.991800  0.571100  0.739400  1
  O  O1928  1  0.508200  0.428900  0.239400  1
  O  O1929  1  0.649500  0.171700  0.500000  1
  O  O1930  1  0.850500  0.828300  0.000000  1
  O  O1931  1  0.578300  0.899500  0.750000  1
  O  O1932  1  0.921700  0.100500  0.250000  1
  O  O1933  1  0.149500  0.671700  0.000000  1
  O  O1934  1  0.350500  0.328300  0.500000  1
  O  O1935  1  0.078300  0.399500  0.250000  1
  O  O1936  1  0.421700  0.600500  0.750000  1
  O  O1937  1  0.350500  0.828300  0.500000  1
  O  O1938  1  0.149500  0.171700  0.000000  1
  O  O1939  1  0.421700  0.100500  0.250000  1
  O  O1940  1  0.078300  0.899500  0.750000  1
  O  O1941  1  0.850500  0.328300  0.000000  1
  O  O1942  1  0.649500  0.671700  0.500000  1
  O  O1943  1  0.921700  0.600500  0.750000  1
  O  O1944  1  0.578300  0.399500  0.250000  1
  O  O1945  1  0.586600  0.115200  0.443000  1
  O  O1946  1  0.913400  0.884800  0.943000  1
  O  O1947  1  0.634800  0.836600  0.693000  1
  O  O1948  1  0.865200  0.163400  0.193000  1
  O  O1949  1  0.086600  0.615200  0.943000  1
  O  O1950  1  0.413400  0.384800  0.443000  1
  O  O1951  1  0.134800  0.336600  0.193000  1
  O  O1952  1  0.365200  0.663400  0.693000  1
  O  O1953  1  0.413400  0.884800  0.557000  1
  O  O1954  1  0.086600  0.115200  0.057000  1
  O  O1955  1  0.365200  0.163400  0.307000  1
  O  O1956  1  0.134800  0.836600  0.807000  1
  O  O1957  1  0.913400  0.384800  0.057000  1
  O  O1958  1  0.586600  0.615200  0.557000  1
  O  O1959  1  0.865200  0.663400  0.807000  1
  O  O1960  1  0.634800  0.336600  0.307000  1
  O  O1961  1  0.037100  0.940600  0.099700  1
  O  O1962  1  0.462900  0.059400  0.599700  1
  O  O1963  1  0.809400  0.287100  0.349700  1
  O  O1964  1  0.690600  0.712900  0.849700  1
  O  O1965  1  0.537100  0.440600  0.599700  1
  O  O1966  1  0.962900  0.559400  0.099700  1
  O  O1967  1  0.309400  0.787100  0.849700  1
  O  O1968  1  0.190600  0.212900  0.349700  1
  O  O1969  1  0.962900  0.059400  0.900300  1
  O  O1970  1  0.537100  0.940600  0.400300  1
  O  O1971  1  0.190600  0.712900  0.650300  1
  O  O1972  1  0.309400  0.287100  0.150300  1
  O  O1973  1  0.462900  0.559400  0.400300  1
  O  O1974  1  0.037100  0.440600  0.900300  1
  O  O1975  1  0.690600  0.212900  0.150300  1
  O  O1976  1  0.809400  0.787100  0.650300  1
  O  O1977  1  0.041400  0.001300  0.174300  1
  O  O1978  1  0.458600  0.998700  0.674300  1
  O  O1979  1  0.748700  0.291400  0.424300  1
  O  O1980  1  0.751300  0.708600  0.924300  1
  O  O1981  1  0.541400  0.501300  0.674300  1
  O  O1982  1  0.958600  0.498700  0.174300  1
  O  O1983  1  0.248700  0.791400  0.924300  1
  O  O1984  1  0.251300  0.208600  0.424300  1
  O  O1985  1  0.958600  0.998700  0.825700  1
  O  O1986  1  0.541400  0.001300  0.325700  1
  O  O1987  1  0.251300  0.708600  0.575700  1
  O  O1988  1  0.248700  0.291400  0.075700  1
  O  O1989  1  0.458600  0.498700  0.325700  1
  O  O1990  1  0.041400  0.501300  0.825700  1
  O  O1991  1  0.751300  0.208600  0.075700  1
  O  O1992  1  0.748700  0.791400  0.575700  1
  O  O1993  1  0.625400  0.902900  0.405500  1
  O  O1994  1  0.874600  0.097100  0.905500  1
  O  O1995  1  0.847100  0.875400  0.655500  1
  O  O1996  1  0.652900  0.124600  0.155500  1
  O  O1997  1  0.125400  0.402900  0.905500  1
  O  O1998  1  0.374600  0.597100  0.405500  1
  O  O1999  1  0.347100  0.375400  0.155500  1
  O  O2000  1  0.152900  0.624600  0.655500  1
  O  O2001  1  0.374600  0.097100  0.594500  1
  O  O2002  1  0.125400  0.902900  0.094500  1
  O  O2003  1  0.152900  0.124600  0.344500  1
  O  O2004  1  0.347100  0.875400  0.844500  1
  O  O2005  1  0.874600  0.597100  0.094500  1
  O  O2006  1  0.625400  0.402900  0.594500  1
  O  O2007  1  0.652900  0.624600  0.844500  1
  O  O2008  1  0.847100  0.375400  0.344500  1
  O  O2009  1  0.618500  0.158800  0.324700  1
  O  O2010  1  0.881500  0.841200  0.824700  1
  O  O2011  1  0.591200  0.868500  0.574700  1
  O  O2012  1  0.908800  0.131500  0.074700  1
  O  O2013  1  0.118500  0.658800  0.824700  1
  O  O2014  1  0.381500  0.341200  0.324700  1
  O  O2015  1  0.091200  0.368500  0.074700  1
  O  O2016  1  0.408800  0.631500  0.574700  1
  O  O2017  1  0.381500  0.841200  0.675300  1
  O  O2018  1  0.118500  0.158800  0.175300  1
  O  O2019  1  0.408800  0.131500  0.425300  1
  O  O2020  1  0.091200  0.868500  0.925300  1
  O  O2021  1  0.881500  0.341200  0.175300  1
  O  O2022  1  0.618500  0.658800  0.675300  1
  O  O2023  1  0.908800  0.631500  0.925300  1
  O  O2024  1  0.591200  0.368500  0.425300  1
  O  O2025  1  0.691000  0.213000  0.289400  1
  O  O2026  1  0.809000  0.787000  0.789400  1
  O  O2027  1  0.537000  0.941000  0.539400  1
  O  O2028  1  0.963000  0.059000  0.039400  1
  O  O2029  1  0.191000  0.713000  0.789400  1
  O  O2030  1  0.309000  0.287000  0.289400  1
  O  O2031  1  0.037000  0.441000  0.039400  1
  O  O2032  1  0.463000  0.559000  0.539400  1
  O  O2033  1  0.309000  0.787000  0.710600  1
  O  O2034  1  0.191000  0.213000  0.210600  1
  O  O2035  1  0.463000  0.059000  0.460600  1
  O  O2036  1  0.037000  0.941000  0.960600  1
  O  O2037  1  0.809000  0.287000  0.210600  1
  O  O2038  1  0.691000  0.713000  0.710600  1
  O  O2039  1  0.963000  0.559000  0.960600  1
  O  O2040  1  0.537000  0.441000  0.460600  1
  O  O2041  1  0.826400  0.746000  0.163000  1
  O  O2042  1  0.673600  0.254000  0.663000  1
  O  O2043  1  0.004000  0.076400  0.413000  1
  O  O2044  1  0.496000  0.923600  0.913000  1
  O  O2045  1  0.326400  0.246000  0.663000  1
  O  O2046  1  0.173600  0.754000  0.163000  1
  O  O2047  1  0.504000  0.576400  0.913000  1
  O  O2048  1  0.996000  0.423600  0.413000  1
  O  O2049  1  0.173600  0.254000  0.837000  1
  O  O2050  1  0.326400  0.746000  0.337000  1
  O  O2051  1  0.996000  0.923600  0.587000  1
  O  O2052  1  0.504000  0.076400  0.087000  1
  O  O2053  1  0.673600  0.754000  0.337000  1
  O  O2054  1  0.826400  0.246000  0.837000  1
  O  O2055  1  0.496000  0.423600  0.087000  1
  O  O2056  1  0.004000  0.576400  0.587000  1
  O  O2057  1  0.716700  0.850700  0.312600  1
  O  O2058  1  0.783300  0.149300  0.812600  1
  O  O2059  1  0.899300  0.966700  0.562600  1
  O  O2060  1  0.600700  0.033300  0.062600  1
  O  O2061  1  0.216700  0.350700  0.812600  1
  O  O2062  1  0.283300  0.649300  0.312600  1
  O  O2063  1  0.399300  0.466700  0.062600  1
  O  O2064  1  0.100700  0.533300  0.562600  1
  O  O2065  1  0.283300  0.149300  0.687400  1
  O  O2066  1  0.216700  0.850700  0.187400  1
  O  O2067  1  0.100700  0.033300  0.437400  1
  O  O2068  1  0.399300  0.966700  0.937400  1
  O  O2069  1  0.783300  0.649300  0.187400  1
  O  O2070  1  0.716700  0.350700  0.687400  1
  O  O2071  1  0.600700  0.533300  0.937400  1
  O  O2072  1  0.899300  0.466700  0.437400  1
  O  O2073  1  0.876400  0.776100  0.088530  1
  O  O2074  1  0.623600  0.223900  0.588530  1
  O  O2075  1  0.973900  0.126400  0.338530  1
  O  O2076  1  0.526100  0.873600  0.838530  1
  O  O2077  1  0.376400  0.276100  0.588530  1
  O  O2078  1  0.123600  0.723900  0.088530  1
  O  O2079  1  0.473900  0.626400  0.838530  1
  O  O2080  1  0.026100  0.373600  0.338530  1
  O  O2081  1  0.123600  0.223900  0.911470  1
  O  O2082  1  0.376400  0.776100  0.411470  1
  O  O2083  1  0.026100  0.873600  0.661470  1
  O  O2084  1  0.473900  0.126400  0.161470  1
  O  O2085  1  0.623600  0.723900  0.411470  1
  O  O2086  1  0.876400  0.276100  0.911470  1
  O  O2087  1  0.526100  0.373600  0.161470  1
  O  O2088  1  0.973900  0.626400  0.661470  1
  O  O2089  1  0.167700  0.927300  0.019300  1
  O  O2090  1  0.332300  0.072700  0.519300  1
  O  O2091  1  0.822700  0.417700  0.269300  1
  O  O2092  1  0.677300  0.582300  0.769300  1
  O  O2093  1  0.667700  0.427300  0.519300  1
  O  O2094  1  0.832300  0.572700  0.019300  1
  O  O2095  1  0.322700  0.917700  0.769300  1
  O  O2096  1  0.177300  0.082300  0.269300  1
  O  O2097  1  0.832300  0.072700  0.980700  1
  O  O2098  1  0.667700  0.927300  0.480700  1
  O  O2099  1  0.177300  0.582300  0.730700  1
  O  O2100  1  0.322700  0.417700  0.230700  1
  O  O2101  1  0.332300  0.572700  0.480700  1
  O  O2102  1  0.167700  0.427300  0.980700  1
  O  O2103  1  0.677300  0.082300  0.230700  1
  O  O2104  1  0.822700  0.917700  0.730700  1
  O  O2105  1  0.173500  0.862400  0.999200  1
  O  O2106  1  0.326500  0.137600  0.499200  1
  O  O2107  1  0.887600  0.423500  0.249200  1
  O  O2108  1  0.612400  0.576500  0.749200  1
  O  O2109  1  0.673500  0.362400  0.499200  1
  O  O2110  1  0.826500  0.637600  0.999200  1
  O  O2111  1  0.387600  0.923500  0.749200  1
  O  O2112  1  0.112400  0.076500  0.249200  1
  O  O2113  1  0.826500  0.137600  0.000800  1
  O  O2114  1  0.673500  0.862400  0.500800  1
  O  O2115  1  0.112400  0.576500  0.750800  1
  O  O2116  1  0.387600  0.423500  0.250800  1
  O  O2117  1  0.326500  0.637600  0.500800  1
  O  O2118  1  0.173500  0.362400  0.000800  1
  O  O2119  1  0.612400  0.076500  0.250800  1
  O  O2120  1  0.887600  0.923500  0.750800  1
  O  O2121  1  0.000000  0.750000  0.875000  1
  O  O2122  1  0.500000  0.250000  0.375000  1
  O  O2123  1  0.000000  0.250000  0.125000  1
  O  O2124  1  0.500000  0.750000  0.625000  1
  O  O2125  1  0.136300  0.805600  0.883700  1
  O  O2126  1  0.363700  0.194400  0.383700  1
  O  O2127  1  0.944400  0.386300  0.133700  1
  O  O2128  1  0.555600  0.613700  0.633700  1
  O  O2129  1  0.636300  0.305600  0.383700  1
  O  O2130  1  0.863700  0.694400  0.883700  1
  O  O2131  1  0.444400  0.886300  0.633700  1
  O  O2132  1  0.055600  0.113700  0.133700  1
  O  O2133  1  0.863700  0.194400  0.116300  1
  O  O2134  1  0.636300  0.805600  0.616300  1
  O  O2135  1  0.055600  0.613700  0.866300  1
  O  O2136  1  0.444400  0.386300  0.366300  1
  O  O2137  1  0.363700  0.694400  0.616300  1
  O  O2138  1  0.136300  0.305600  0.116300  1
  O  O2139  1  0.555600  0.113700  0.366300  1
  O  O2140  1  0.944400  0.886300  0.866300  1
  O  O2141  1  0.911800  0.246500  0.088200  1
  O  O2142  1  0.588200  0.753500  0.588200  1
  O  O2143  1  0.503500  0.161800  0.338200  1
  O  O2144  1  0.996500  0.838200  0.838200  1
  O  O2145  1  0.411800  0.746500  0.588200  1
  O  O2146  1  0.088200  0.253500  0.088200  1
  O  O2147  1  0.003500  0.661800  0.838200  1
  O  O2148  1  0.496500  0.338200  0.338200  1
  O  O2149  1  0.088200  0.753500  0.911800  1
  O  O2150  1  0.411800  0.246500  0.411800  1
  O  O2151  1  0.496500  0.838200  0.661800  1
  O  O2152  1  0.003500  0.161800  0.161800  1
  O  O2153  1  0.588200  0.253500  0.411800  1
  O  O2154  1  0.911800  0.746500  0.911800  1
  O  O2155  1  0.996500  0.338200  0.161800  1
  O  O2156  1  0.503500  0.661800  0.661800  1
  O  O2157  1  0.939800  0.100700  0.436900  1
  O  O2158  1  0.560200  0.899300  0.936900  1
  O  O2159  1  0.649300  0.189800  0.686900  1
  O  O2160  1  0.850700  0.810200  0.186900  1
  O  O2161  1  0.439800  0.600700  0.936900  1
  O  O2162  1  0.060200  0.399300  0.436900  1
  O  O2163  1  0.149300  0.689800  0.186900  1
  O  O2164  1  0.350700  0.310200  0.686900  1
  O  O2165  1  0.060200  0.899300  0.563100  1
  O  O2166  1  0.439800  0.100700  0.063100  1
  O  O2167  1  0.350700  0.810200  0.313100  1
  O  O2168  1  0.149300  0.189800  0.813100  1
  O  O2169  1  0.560200  0.399300  0.063100  1
  O  O2170  1  0.939800  0.600700  0.563100  1
  O  O2171  1  0.850700  0.310200  0.813100  1
  O  O2172  1  0.649300  0.689800  0.313100  1
  O  O2173  1  0.854000  0.081100  0.464200  1
  O  O2174  1  0.646000  0.918900  0.964200  1
  O  O2175  1  0.668900  0.104000  0.714200  1
  O  O2176  1  0.831100  0.896000  0.214200  1
  O  O2177  1  0.354000  0.581100  0.964200  1
  O  O2178  1  0.146000  0.418900  0.464200  1
  O  O2179  1  0.168900  0.604000  0.214200  1
  O  O2180  1  0.331100  0.396000  0.714200  1
  O  O2181  1  0.146000  0.918900  0.535800  1
  O  O2182  1  0.354000  0.081100  0.035800  1
  O  O2183  1  0.331100  0.896000  0.285800  1
  O  O2184  1  0.168900  0.104000  0.785800  1
  O  O2185  1  0.646000  0.418900  0.035800  1
  O  O2186  1  0.854000  0.581100  0.535800  1
  O  O2187  1  0.831100  0.396000  0.785800  1
  O  O2188  1  0.668900  0.604000  0.285800  1
  O  O2189  1  0.930900  0.039800  0.475600  1
  O  O2190  1  0.569100  0.960200  0.975600  1
  O  O2191  1  0.710200  0.180900  0.725600  1
  O  O2192  1  0.789800  0.819100  0.225600  1
  O  O2193  1  0.430900  0.539800  0.975600  1
  O  O2194  1  0.069100  0.460200  0.475600  1
  O  O2195  1  0.210200  0.680900  0.225600  1
  O  O2196  1  0.289800  0.319100  0.725600  1
  O  O2197  1  0.069100  0.960200  0.524400  1
  O  O2198  1  0.430900  0.039800  0.024400  1
  O  O2199  1  0.289800  0.819100  0.274400  1
  O  O2200  1  0.210200  0.180900  0.774400  1
  O  O2201  1  0.569100  0.460200  0.024400  1
  O  O2202  1  0.930900  0.539800  0.524400  1
  O  O2203  1  0.789800  0.319100  0.774400  1
  O  O2204  1  0.710200  0.680900  0.274400  1
  O  O2205  1  0.660600  0.941000  0.322400  1
  O  O2206  1  0.839400  0.059000  0.822400  1
  O  O2207  1  0.809000  0.910600  0.572400  1
  O  O2208  1  0.691000  0.089400  0.072400  1
  O  O2209  1  0.160600  0.441000  0.822400  1
  O  O2210  1  0.339400  0.559000  0.322400  1
  O  O2211  1  0.309000  0.410600  0.072400  1
  O  O2212  1  0.191000  0.589400  0.572400  1
  O  O2213  1  0.339400  0.059000  0.677600  1
  O  O2214  1  0.160600  0.941000  0.177600  1
  O  O2215  1  0.191000  0.089400  0.427600  1
  O  O2216  1  0.309000  0.910600  0.927600  1
  O  O2217  1  0.839400  0.559000  0.177600  1
  O  O2218  1  0.660600  0.441000  0.677600  1
  O  O2219  1  0.691000  0.589400  0.927600  1
  O  O2220  1  0.809000  0.410600  0.427600  1
  O  O2221  1  0.723500  0.970200  0.298100  1
  O  O2222  1  0.776500  0.029800  0.798100  1
  O  O2223  1  0.779800  0.973500  0.548100  1
  O  O2224  1  0.720200  0.026500  0.048100  1
  O  O2225  1  0.223500  0.470200  0.798100  1
  O  O2226  1  0.276500  0.529800  0.298100  1
  O  O2227  1  0.279800  0.473500  0.048100  1
  O  O2228  1  0.220200  0.526500  0.548100  1
  O  O2229  1  0.276500  0.029800  0.701900  1
  O  O2230  1  0.223500  0.970200  0.201900  1
  O  O2231  1  0.220200  0.026500  0.451900  1
  O  O2232  1  0.279800  0.973500  0.951900  1
  O  O2233  1  0.776500  0.529800  0.201900  1
  O  O2234  1  0.723500  0.470200  0.701900  1
  O  O2235  1  0.720200  0.526500  0.951900  1
  O  O2236  1  0.779800  0.473500  0.451900  1
  O  O2237  1  0.643700  0.015400  0.290200  1
  O  O2238  1  0.856300  0.984600  0.790200  1
  O  O2239  1  0.734600  0.893700  0.540200  1
  O  O2240  1  0.765400  0.106300  0.040200  1
  O  O2241  1  0.143700  0.515400  0.790200  1
  O  O2242  1  0.356300  0.484600  0.290200  1
  O  O2243  1  0.234600  0.393700  0.040200  1
  O  O2244  1  0.265400  0.606300  0.540200  1
  O  O2245  1  0.356300  0.984600  0.709800  1
  O  O2246  1  0.143700  0.015400  0.209800  1
  O  O2247  1  0.265400  0.106300  0.459800  1
  O  O2248  1  0.234600  0.893700  0.959800  1
  O  O2249  1  0.856300  0.484600  0.209800  1
  O  O2250  1  0.643700  0.515400  0.709800  1
  O  O2251  1  0.765400  0.606300  0.959800  1
  O  O2252  1  0.734600  0.393700  0.459800  1
  O  O2253  1  0.635400  0.181000  0.459800  1
  O  O2254  1  0.864600  0.819000  0.959800  1
  O  O2255  1  0.569000  0.885400  0.709800  1
  O  O2256  1  0.931000  0.114600  0.209800  1
  O  O2257  1  0.135400  0.681000  0.959800  1
  O  O2258  1  0.364600  0.319000  0.459800  1
  O  O2259  1  0.069000  0.385400  0.209800  1
  O  O2260  1  0.431000  0.614600  0.709800  1
  O  O2261  1  0.364600  0.819000  0.540200  1
  O  O2262  1  0.135400  0.181000  0.040200  1
  O  O2263  1  0.431000  0.114600  0.290200  1
  O  O2264  1  0.069000  0.885400  0.790200  1
  O  O2265  1  0.864600  0.319000  0.040200  1
  O  O2266  1  0.635400  0.681000  0.540200  1
  O  O2267  1  0.931000  0.614600  0.790200  1
  O  O2268  1  0.569000  0.385400  0.290200  1
  O  O2269  1  0.656800  0.146500  0.513000  1
  O  O2270  1  0.843200  0.853500  0.013000  1
  O  O2271  1  0.603500  0.906800  0.763000  1
  O  O2272  1  0.896500  0.093200  0.263000  1
  O  O2273  1  0.156800  0.646500  0.013000  1
  O  O2274  1  0.343200  0.353500  0.513000  1
  O  O2275  1  0.103500  0.406800  0.263000  1
  O  O2276  1  0.396500  0.593200  0.763000  1
  O  O2277  1  0.343200  0.853500  0.487000  1
  O  O2278  1  0.156800  0.146500  0.987000  1
  O  O2279  1  0.396500  0.093200  0.237000  1
  O  O2280  1  0.103500  0.906800  0.737000  1
  O  O2281  1  0.843200  0.353500  0.987000  1
  O  O2282  1  0.656800  0.646500  0.487000  1
  O  O2283  1  0.896500  0.593200  0.737000  1
  O  O2284  1  0.603500  0.406800  0.237000  1
  O  O2285  1  0.584800  0.082300  0.458000  1
  O  O2286  1  0.915200  0.917700  0.958000  1
  O  O2287  1  0.667700  0.834800  0.708000  1
  O  O2288  1  0.832300  0.165200  0.208000  1
  O  O2289  1  0.084800  0.582300  0.958000  1
  O  O2290  1  0.415200  0.417700  0.458000  1
  O  O2291  1  0.167700  0.334800  0.208000  1
  O  O2292  1  0.332300  0.665200  0.708000  1
  O  O2293  1  0.415200  0.917700  0.542000  1
  O  O2294  1  0.084800  0.082300  0.042000  1
  O  O2295  1  0.332300  0.165200  0.292000  1
  O  O2296  1  0.167700  0.834800  0.792000  1
  O  O2297  1  0.915200  0.417700  0.042000  1
  O  O2298  1  0.584800  0.582300  0.542000  1
  O  O2299  1  0.832300  0.665200  0.792000  1
  O  O2300  1  0.667700  0.334800  0.292000  1
  O  O2301  1  0.991800  0.999200  0.140300  1
  O  O2302  1  0.508200  0.000800  0.640300  1
  O  O2303  1  0.750800  0.241800  0.390300  1
  O  O2304  1  0.749200  0.758200  0.890300  1
  O  O2305  1  0.491800  0.499200  0.640300  1
  O  O2306  1  0.008200  0.500800  0.140300  1
  O  O2307  1  0.250800  0.741800  0.890300  1
  O  O2308  1  0.249200  0.258200  0.390300  1
  O  O2309  1  0.008200  0.000800  0.859700  1
  O  O2310  1  0.491800  0.999200  0.359700  1
  O  O2311  1  0.249200  0.758200  0.609700  1
  O  O2312  1  0.250800  0.241800  0.109700  1
  O  O2313  1  0.508200  0.500800  0.359700  1
  O  O2314  1  0.991800  0.499200  0.859700  1
  O  O2315  1  0.749200  0.258200  0.109700  1
  O  O2316  1  0.750800  0.741800  0.609700  1
  O  O2317  1  0.017000  0.957700  0.099400  1
  O  O2318  1  0.483000  0.042300  0.599400  1
  O  O2319  1  0.792300  0.267000  0.349400  1
  O  O2320  1  0.707700  0.733000  0.849400  1
  O  O2321  1  0.517000  0.457700  0.599400  1
  O  O2322  1  0.983000  0.542300  0.099400  1
  O  O2323  1  0.292300  0.767000  0.849400  1
  O  O2324  1  0.207700  0.233000  0.349400  1
  O  O2325  1  0.983000  0.042300  0.900600  1
  O  O2326  1  0.517000  0.957700  0.400600  1
  O  O2327  1  0.207700  0.733000  0.650600  1
  O  O2328  1  0.292300  0.267000  0.150600  1
  O  O2329  1  0.483000  0.542300  0.400600  1
  O  O2330  1  0.017000  0.457700  0.900600  1
  O  O2331  1  0.707700  0.233000  0.150600  1
  O  O2332  1  0.792300  0.767000  0.650600  1
  O  O2333  1  0.079300  0.973400  0.154300  1
  O  O2334  1  0.420700  0.026600  0.654300  1
  O  O2335  1  0.776600  0.329300  0.404300  1
  O  O2336  1  0.723400  0.670700  0.904300  1
  O  O2337  1  0.579300  0.473400  0.654300  1
  O  O2338  1  0.920700  0.526600  0.154300  1
  O  O2339  1  0.276600  0.829300  0.904300  1
  O  O2340  1  0.223400  0.170700  0.404300  1
  O  O2341  1  0.920700  0.026600  0.845700  1
  O  O2342  1  0.579300  0.973400  0.345700  1
  O  O2343  1  0.223400  0.670700  0.595700  1
  O  O2344  1  0.276600  0.329300  0.095700  1
  O  O2345  1  0.420700  0.526600  0.345700  1
  O  O2346  1  0.079300  0.473400  0.845700  1
  O  O2347  1  0.723400  0.170700  0.095700  1
  O  O2348  1  0.776600  0.829300  0.595700  1
  O  O2349  1  0.729500  0.258400  0.284900  1
  O  O2350  1  0.770500  0.741600  0.784900  1
  O  O2351  1  0.491600  0.979500  0.534900  1
  O  O2352  1  0.008400  0.020500  0.034900  1
  O  O2353  1  0.229500  0.758400  0.784900  1
  O  O2354  1  0.270500  0.241600  0.284900  1
  O  O2355  1  0.991600  0.479500  0.034900  1
  O  O2356  1  0.508400  0.520500  0.534900  1
  O  O2357  1  0.270500  0.741600  0.715100  1
  O  O2358  1  0.229500  0.258400  0.215100  1
  O  O2359  1  0.508400  0.020500  0.465100  1
  O  O2360  1  0.991600  0.979500  0.965100  1
  O  O2361  1  0.770500  0.241600  0.215100  1
  O  O2362  1  0.729500  0.758400  0.715100  1
  O  O2363  1  0.008400  0.520500  0.965100  1
  O  O2364  1  0.491600  0.479500  0.465100  1
  O  O2365  1  0.652900  0.172500  0.303000  1
  O  O2366  1  0.847100  0.827500  0.803000  1
  O  O2367  1  0.577500  0.902900  0.553000  1
  O  O2368  1  0.922500  0.097100  0.053000  1
  O  O2369  1  0.152900  0.672500  0.803000  1
  O  O2370  1  0.347100  0.327500  0.303000  1
  O  O2371  1  0.077500  0.402900  0.053000  1
  O  O2372  1  0.422500  0.597100  0.553000  1
  O  O2373  1  0.347100  0.827500  0.697000  1
  O  O2374  1  0.152900  0.172500  0.197000  1
  O  O2375  1  0.422500  0.097100  0.447000  1
  O  O2376  1  0.077500  0.902900  0.947000  1
  O  O2377  1  0.847100  0.327500  0.197000  1
  O  O2378  1  0.652900  0.672500  0.697000  1
  O  O2379  1  0.922500  0.597100  0.947000  1
  O  O2380  1  0.577500  0.402900  0.447000  1
  O  O2381  1  0.597000  0.195000  0.363100  1
  O  O2382  1  0.903000  0.805000  0.863100  1
  O  O2383  1  0.555000  0.847000  0.613100  1
  O  O2384  1  0.945000  0.153000  0.113100  1
  O  O2385  1  0.097000  0.695000  0.863100  1
  O  O2386  1  0.403000  0.305000  0.363100  1
  O  O2387  1  0.055000  0.347000  0.113100  1
  O  O2388  1  0.445000  0.653000  0.613100  1
  O  O2389  1  0.403000  0.805000  0.636900  1
  O  O2390  1  0.097000  0.195000  0.136900  1
  O  O2391  1  0.445000  0.153000  0.386900  1
  O  O2392  1  0.055000  0.847000  0.886900  1
  O  O2393  1  0.903000  0.305000  0.136900  1
  O  O2394  1  0.597000  0.695000  0.636900  1
  O  O2395  1  0.945000  0.653000  0.886900  1
  O  O2396  1  0.555000  0.347000  0.386900  1
  O  O2397  1  0.655000  0.243000  0.327300  1
  O  O2398  1  0.845000  0.757000  0.827300  1
  O  O2399  1  0.507000  0.905000  0.577300  1
  O  O2400  1  0.993000  0.095000  0.077300  1
  O  O2401  1  0.155000  0.743000  0.827300  1
  O  O2402  1  0.345000  0.257000  0.327300  1
  O  O2403  1  0.007000  0.405000  0.077300  1
  O  O2404  1  0.493000  0.595000  0.577300  1
  O  O2405  1  0.345000  0.757000  0.672700  1
  O  O2406  1  0.155000  0.243000  0.172700  1
  O  O2407  1  0.493000  0.095000  0.422700  1
  O  O2408  1  0.007000  0.905000  0.922700  1
  O  O2409  1  0.845000  0.257000  0.172700  1
  O  O2410  1  0.655000  0.743000  0.672700  1
  O  O2411  1  0.993000  0.595000  0.922700  1
  O  O2412  1  0.507000  0.405000  0.422700  1
  O  O2413  1  0.818000  0.707000  0.148300  1
  O  O2414  1  0.682000  0.293000  0.648300  1
  O  O2415  1  0.043000  0.068000  0.398300  1
  O  O2416  1  0.457000  0.932000  0.898300  1
  O  O2417  1  0.318000  0.207000  0.648300  1
  O  O2418  1  0.182000  0.793000  0.148300  1
  O  O2419  1  0.543000  0.568000  0.898300  1
  O  O2420  1  0.957000  0.432000  0.398300  1
  O  O2421  1  0.182000  0.293000  0.851700  1
  O  O2422  1  0.318000  0.707000  0.351700  1
  O  O2423  1  0.957000  0.932000  0.601700  1
  O  O2424  1  0.543000  0.068000  0.101700  1
  O  O2425  1  0.682000  0.793000  0.351700  1
  O  O2426  1  0.818000  0.207000  0.851700  1
  O  O2427  1  0.457000  0.432000  0.101700  1
  O  O2428  1  0.043000  0.568000  0.601700  1
  O  O2429  1  0.728900  0.175100  0.220400  1
  O  O2430  1  0.771100  0.824900  0.720400  1
  O  O2431  1  0.574900  0.978900  0.470400  1
  O  O2432  1  0.925100  0.021100  0.970400  1
  O  O2433  1  0.228900  0.675100  0.720400  1
  O  O2434  1  0.271100  0.324900  0.220400  1
  O  O2435  1  0.074900  0.478900  0.970400  1
  O  O2436  1  0.425100  0.521100  0.470400  1
  O  O2437  1  0.271100  0.824900  0.779600  1
  O  O2438  1  0.228900  0.175100  0.279600  1
  O  O2439  1  0.425100  0.021100  0.529600  1
  O  O2440  1  0.074900  0.978900  0.029600  1
  O  O2441  1  0.771100  0.324900  0.279600  1
  O  O2442  1  0.728900  0.675100  0.779600  1
  O  O2443  1  0.925100  0.521100  0.029600  1
  O  O2444  1  0.574900  0.478900  0.529600  1
  F  F2445  1  0.109400  0.789900  0.400100  1
  F  F2446  1  0.390600  0.210100  0.900100  1
  F  F2447  1  0.960100  0.359400  0.650100  1
  F  F2448  1  0.539900  0.640600  0.150100  1
  F  F2449  1  0.609400  0.289900  0.900100  1
  F  F2450  1  0.890600  0.710100  0.400100  1
  F  F2451  1  0.460100  0.859400  0.150100  1
  F  F2452  1  0.039900  0.140600  0.650100  1
  F  F2453  1  0.890600  0.210100  0.599900  1
  F  F2454  1  0.609400  0.789900  0.099900  1
  F  F2455  1  0.039900  0.640600  0.349900  1
  F  F2456  1  0.460100  0.359400  0.849900  1
  F  F2457  1  0.390600  0.710100  0.099900  1
  F  F2458  1  0.109400  0.289900  0.599900  1
  F  F2459  1  0.539900  0.140600  0.849900  1
  F  F2460  1  0.960100  0.859400  0.349900  1
  F  F2461  1  0.054400  0.748200  0.461700  1
  F  F2462  1  0.445600  0.251800  0.961700  1
  F  F2463  1  0.001800  0.304400  0.711700  1
  F  F2464  1  0.498200  0.695600  0.211700  1
  F  F2465  1  0.554400  0.248200  0.961700  1
  F  F2466  1  0.945600  0.751800  0.461700  1
  F  F2467  1  0.501800  0.804400  0.211700  1
  F  F2468  1  0.998200  0.195600  0.711700  1
  F  F2469  1  0.945600  0.251800  0.538300  1
  F  F2470  1  0.554400  0.748200  0.038300  1
  F  F2471  1  0.998200  0.695600  0.288300  1
  F  F2472  1  0.501800  0.304400  0.788300  1
  F  F2473  1  0.445600  0.751800  0.038300  1
  F  F2474  1  0.054400  0.248200  0.538300  1
  F  F2475  1  0.498200  0.195600  0.788300  1
  F  F2476  1  0.001800  0.804400  0.288300  1
  F  F2477  1  0.983300  0.798200  0.507000  1
  F  F2478  1  0.516700  0.201800  0.007000  1
  F  F2479  1  0.951800  0.233300  0.757000  1
  F  F2480  1  0.548200  0.766700  0.257000  1
  F  F2481  1  0.483300  0.298200  0.007000  1
  F  F2482  1  0.016700  0.701800  0.507000  1
  F  F2483  1  0.451800  0.733300  0.257000  1
  F  F2484  1  0.048200  0.266700  0.757000  1
  F  F2485  1  0.016700  0.201800  0.493000  1
  F  F2486  1  0.483300  0.798200  0.993000  1
  F  F2487  1  0.048200  0.766700  0.243000  1
  F  F2488  1  0.451800  0.233300  0.743000  1
  F  F2489  1  0.516700  0.701800  0.993000  1
  F  F2490  1  0.983300  0.298200  0.493000  1
  F  F2491  1  0.548200  0.266700  0.743000  1
  F  F2492  1  0.951800  0.733300  0.243000  1
  F  F2493  1  0.956300  0.895100  0.486600  1
  F  F2494  1  0.543700  0.104900  0.986600  1
  F  F2495  1  0.854900  0.206300  0.736600  1
  F  F2496  1  0.645100  0.793700  0.236600  1
  F  F2497  1  0.456300  0.395100  0.986600  1
  F  F2498  1  0.043700  0.604900  0.486600  1
  F  F2499  1  0.354900  0.706300  0.236600  1
  F  F2500  1  0.145100  0.293700  0.736600  1
  F  F2501  1  0.043700  0.104900  0.513400  1
  F  F2502  1  0.456300  0.895100  0.013400  1
  F  F2503  1  0.145100  0.793700  0.263400  1
  F  F2504  1  0.354900  0.206300  0.763400  1
  F  F2505  1  0.543700  0.604900  0.013400  1
  F  F2506  1  0.956300  0.395100  0.513400  1
  F  F2507  1  0.645100  0.293700  0.763400  1
  F  F2508  1  0.854900  0.706300  0.263400  1
  F  F2509  1  0.011200  0.942700  0.425700  1
  F  F2510  1  0.488800  0.057300  0.925700  1
  F  F2511  1  0.807300  0.261200  0.675700  1
  F  F2512  1  0.692700  0.738800  0.175700  1
  F  F2513  1  0.511200  0.442700  0.925700  1
  F  F2514  1  0.988800  0.557300  0.425700  1
  F  F2515  1  0.307300  0.761200  0.175700  1
  F  F2516  1  0.192700  0.238800  0.675700  1
  F  F2517  1  0.988800  0.057300  0.574300  1
  F  F2518  1  0.511200  0.942700  0.074300  1
  F  F2519  1  0.192700  0.738800  0.324300  1
  F  F2520  1  0.307300  0.261200  0.824300  1
  F  F2521  1  0.488800  0.557300  0.074300  1
  F  F2522  1  0.011200  0.442700  0.574300  1
  F  F2523  1  0.692700  0.238800  0.824300  1
  F  F2524  1  0.807300  0.761200  0.324300  1
  F  F2525  1  0.085300  0.890400  0.382100  1
  F  F2526  1  0.414700  0.109600  0.882100  1
  F  F2527  1  0.859600  0.335300  0.632100  1
  F  F2528  1  0.640400  0.664700  0.132100  1
  F  F2529  1  0.585300  0.390400  0.882100  1
  F  F2530  1  0.914700  0.609600  0.382100  1
  F  F2531  1  0.359600  0.835300  0.132100  1
  F  F2532  1  0.140400  0.164700  0.632100  1
  F  F2533  1  0.914700  0.109600  0.617900  1
  F  F2534  1  0.585300  0.890400  0.117900  1
  F  F2535  1  0.140400  0.664700  0.367900  1
  F  F2536  1  0.359600  0.335300  0.867900  1
  F  F2537  1  0.414700  0.609600  0.117900  1
  F  F2538  1  0.085300  0.390400  0.617900  1
  F  F2539  1  0.640400  0.164700  0.867900  1
  F  F2540  1  0.859600  0.835300  0.367900  1
  F  F2541  1  0.088600  0.859400  0.399800  1
  F  F2542  1  0.411400  0.140600  0.899800  1
  F  F2543  1  0.890600  0.338600  0.649800  1
  F  F2544  1  0.609400  0.661400  0.149800  1
  F  F2545  1  0.588600  0.359400  0.899800  1
  F  F2546  1  0.911400  0.640600  0.399800  1
  F  F2547  1  0.390600  0.838600  0.149800  1
  F  F2548  1  0.109400  0.161400  0.649800  1
  F  F2549  1  0.911400  0.140600  0.600200  1
  F  F2550  1  0.588600  0.859400  0.100200  1
  F  F2551  1  0.109400  0.661400  0.350200  1
  F  F2552  1  0.390600  0.338600  0.850200  1
  F  F2553  1  0.411400  0.640600  0.100200  1
  F  F2554  1  0.088600  0.359400  0.600200  1
  F  F2555  1  0.609400  0.161400  0.850200  1
  F  F2556  1  0.890600  0.838600  0.350200  1
  F  F2557  1  0.080000  0.797700  0.468200  1
  F  F2558  1  0.420000  0.202300  0.968200  1
  F  F2559  1  0.952300  0.330000  0.718200  1
  F  F2560  1  0.547700  0.670000  0.218200  1
  F  F2561  1  0.580000  0.297700  0.968200  1
  F  F2562  1  0.920000  0.702300  0.468200  1
  F  F2563  1  0.452300  0.830000  0.218200  1
  F  F2564  1  0.047700  0.170000  0.718200  1
  F  F2565  1  0.920000  0.202300  0.531800  1
  F  F2566  1  0.580000  0.797700  0.031800  1
  F  F2567  1  0.047700  0.670000  0.281800  1
  F  F2568  1  0.452300  0.330000  0.781800  1
  F  F2569  1  0.420000  0.702300  0.031800  1
  F  F2570  1  0.080000  0.297700  0.531800  1
  F  F2571  1  0.547700  0.170000  0.781800  1
  F  F2572  1  0.952300  0.830000  0.281800  1
  F  F2573  1  0.007200  0.821400  0.525200  1
  F  F2574  1  0.492800  0.178600  0.025200  1
  F  F2575  1  0.928600  0.257200  0.775200  1
  F  F2576  1  0.571400  0.742800  0.275200  1
  F  F2577  1  0.507200  0.321400  0.025200  1
  F  F2578  1  0.992800  0.678600  0.525200  1
  F  F2579  1  0.428600  0.757200  0.275200  1
  F  F2580  1  0.071400  0.242800  0.775200  1
  F  F2581  1  0.992800  0.178600  0.474800  1
  F  F2582  1  0.507200  0.821400  0.974800  1
  F  F2583  1  0.071400  0.742800  0.224800  1
  F  F2584  1  0.428600  0.257200  0.724800  1
  F  F2585  1  0.492800  0.678600  0.974800  1
  F  F2586  1  0.007200  0.321400  0.474800  1
  F  F2587  1  0.571400  0.242800  0.724800  1
  F  F2588  1  0.928600  0.757200  0.224800  1
  F  F2589  1  0.936600  0.897200  0.513900  1
  F  F2590  1  0.563400  0.102800  0.013900  1
  F  F2591  1  0.852800  0.186600  0.763900  1
  F  F2592  1  0.647200  0.813400  0.263900  1
  F  F2593  1  0.436600  0.397200  0.013900  1
  F  F2594  1  0.063400  0.602800  0.513900  1
  F  F2595  1  0.352800  0.686600  0.263900  1
  F  F2596  1  0.147200  0.313400  0.763900  1
  F  F2597  1  0.063400  0.102800  0.486100  1
  F  F2598  1  0.436600  0.897200  0.986100  1
  F  F2599  1  0.147200  0.813400  0.236100  1
  F  F2600  1  0.352800  0.186600  0.736100  1
  F  F2601  1  0.563400  0.602800  0.986100  1
  F  F2602  1  0.936600  0.397200  0.486100  1
  F  F2603  1  0.647200  0.313400  0.736100  1
  F  F2604  1  0.852800  0.686600  0.236100  1
  F  F2605  1  0.948800  0.960800  0.447400  1
  F  F2606  1  0.551200  0.039200  0.947400  1
  F  F2607  1  0.789200  0.198800  0.697400  1
  F  F2608  1  0.710800  0.801200  0.197400  1
  F  F2609  1  0.448800  0.460800  0.947400  1
  F  F2610  1  0.051200  0.539200  0.447400  1
  F  F2611  1  0.289200  0.698800  0.197400  1
  F  F2612  1  0.210800  0.301200  0.697400  1
  F  F2613  1  0.051200  0.039200  0.552600  1
  F  F2614  1  0.448800  0.960800  0.052600  1
  F  F2615  1  0.210800  0.801200  0.302600  1
  F  F2616  1  0.289200  0.198800  0.802600  1
  F  F2617  1  0.551200  0.539200  0.052600  1
  F  F2618  1  0.948800  0.460800  0.552600  1
  F  F2619  1  0.710800  0.301200  0.802600  1
  F  F2620  1  0.789200  0.698800  0.302600  1
  F  F2621  1  0.025500  0.941800  0.391700  1
  F  F2622  1  0.474500  0.058200  0.891700  1
  F  F2623  1  0.808200  0.275500  0.641700  1
  F  F2624  1  0.691800  0.724500  0.141700  1
  F  F2625  1  0.525500  0.441800  0.891700  1
  F  F2626  1  0.974500  0.558200  0.391700  1
  F  F2627  1  0.308200  0.775500  0.141700  1
  F  F2628  1  0.191800  0.224500  0.641700  1
  F  F2629  1  0.974500  0.058200  0.608300  1
  F  F2630  1  0.525500  0.941800  0.108300  1
  F  F2631  1  0.191800  0.724500  0.358300  1
  F  F2632  1  0.308200  0.275500  0.858300  1
  F  F2633  1  0.474500  0.558200  0.108300  1
  F  F2634  1  0.025500  0.441800  0.608300  1
  F  F2635  1  0.691800  0.224500  0.858300  1
  F  F2636  1  0.808200  0.775500  0.358300  1
