
#######################################################################
#
#                 Cambridge Crystallographic Data Centre
#                                CCDC 
#
#######################################################################
#
# If this CIF has been generated from an entry in the Cambridge 
# Structural Database, then it will include bibliographic, chemical, 
# crystal, experimental, refinement or atomic coordinate data resulting 
# from the CCDC's data processing and validation procedures.
#
#######################################################################

data_UQAFID
_chemical_formula_moiety         
'C144 H108 Fe4 N24 8+,4.38(As1 F6 1-),3.62(C1 F3 O3 S1 1-),0.5(C4 H10 O1),2(C2 H3 N1)'
_chemical_name_systematic        
"hexakis(\m-3,3'-bipyridine-6,6'-diylbis(N-phenylmethanimine))-tetra-iron trifluoromethanesulfonate hexafluoro-arsenic diethyl ether acetonitrile solvate"
_symmetry_cell_setting           triclinic
_symmetry_space_group_name_H-M   'P -1'
_symmetry_Int_Tables_number      2
_space_group_name_Hall           '-P 1'
loop_
_symmetry_equiv_pos_site_id
_symmetry_equiv_pos_as_xyz
1 x,y,z
2 -x,-y,-z
_cell_length_a                   18.038(4)
_cell_length_b                   22.427(5)
_cell_length_c                   26.770(5)
_cell_angle_alpha                91.08(3)
_cell_angle_beta                 108.97(3)
_cell_angle_gamma                95.93(3)
_cell_volume                     10170.7
_exptl_crystal_colour            purple
_exptl_crystal_description       block
_cell_formula_units_Z            2
loop_
_atom_site_label
_atom_site_type_symbol
_atom_site_fract_x
_atom_site_fract_y
_atom_site_fract_z
N25 N 0.9491(8) 0.7702(5) 0.4688(5)
C145 C 0.9497(7) 0.7940(6) 0.4335(6)
C146 C 0.9559(12) 0.8259(10) 0.3882(7)
H109 H 0.9146 0.8082 0.3561
H110 H 1.0078 0.8229 0.3847
H111 H 0.9494 0.8683 0.3932
N26 N 0.6177(5) 0.4066(4) 0.4419(4)
C147 C 0.6403(7) 0.3974(6) 0.4850(5)
C148 C 0.6699(13) 0.3911(10) 0.5388(6)
H112 H 0.6535 0.3503 0.5468
H113 H 0.6495 0.4202 0.5573
H114 H 0.7276 0.3982 0.5507
O1 O 0.3689(13) 0.7697(8) 0.3190(7)
C149 C 0.4995(17) 0.7259(19) 0.3210(14)
H115 H 0.5125 0.6845 0.3214
H116 H 0.5456 0.7522 0.3435
H117 H 0.4848 0.7390 0.2847
C150 C 0.3203(17) 0.7748(13) 0.3391(12)
H118 H 0.3430 0.7971 0.3739
H119 H 0.2942 0.7351 0.3435
C151 C 0.253(3) 0.8165(17) 0.2920(15)
H120 H 0.2298 0.7936 0.2580
H121 H 0.2831 0.8538 0.2872
H122 H 0.2115 0.8261 0.3057
C152 C 0.432(3) 0.7290(19) 0.3415(12)
H123 H 0.4551 0.7399 0.3799
H124 H 0.4047 0.6877 0.3380
F1 F 0.8345(5) 0.2558(5) 0.2862(3)
F2 F 0.8460(4) 0.2503(3) 0.16241(18)
F3 F 0.9378(3) 0.2670(4) 0.2532(2)
F4 F 0.7398(4) 0.2333(6) 0.1937(4)
F5 F 0.8261(9) 0.3231(4) 0.2216(3)
F6 F 0.8414(7) 0.1805(3) 0.2264(3)
As1 As 0.84135(3) 0.25269(2) 0.22359(2)
As2 As 0.1902(3) 0.5689(2) 0.3051(2)
F7 F 0.2841(4) 0.5592(5) 0.3413(4)
F8 F 0.1972(7) 0.5312(5) 0.2525(3)
F9 F 0.1567(7) 0.5048(3) 0.3273(5)
F10 F 0.1823(7) 0.6095(4) 0.3573(4)
F11 F 0.2261(7) 0.6351(4) 0.2848(5)
F12 F 0.0971(4) 0.5827(5) 0.2692(4)
As3 As 1.00419(12) 0.89422(9) 0.26122(8)
F13 F 0.9462(5) 0.8291(3) 0.2588(4)
F14 F 1.0607(5) 0.8599(4) 0.2337(4)
F15 F 0.9437(5) 0.9098(5) 0.2009(2)
F16 F 0.9495(6) 0.9301(5) 0.2912(4)
F17 F 1.0629(5) 0.8780(5) 0.32338(19)
F18 F 1.0637(5) 0.9601(3) 0.2672(4)
As4 As 0.2920(3) 0.11956(19) 0.20871(17)
F19 F 0.3398(6) 0.0652(4) 0.1923(5)
F20 F 0.3700(5) 0.1425(5) 0.2621(3)
F21 F 0.3259(6) 0.1677(4) 0.1709(4)
F22 F 0.2105(5) 0.0958(5) 0.1557(3)
F23 F 0.2561(6) 0.0687(4) 0.2453(4)
F24 F 0.2399(7) 0.1714(4) 0.2253(5)
As5 As 0.0935(2) 0.46376(18) 0.05720(16)
F25 F 0.1487(6) 0.4673(5) 0.12210(19)
F26 F 0.0310(5) 0.4076(4) 0.0660(5)
F27 F 0.0388(6) 0.5155(4) 0.0698(4)
F28 F 0.1578(6) 0.5194(4) 0.0466(5)
F29 F 0.1522(6) 0.4128(4) 0.0454(4)
F30 F 0.0423(6) 0.4596(5) -0.00896(19)
C1 C 0.5574(8) -0.0623(5) 0.2020(5)
C2 C 0.5048(8) -0.0945(5) 0.2253(5)
H1 H 0.4862 -0.0766 0.2507
C3 C 0.4831(8) -0.1564(5) 0.2063(5)
H2 H 0.4492 -0.1809 0.2203
C4 C 0.5084(8) -0.1813(5) 0.1700(5)
H3 H 0.4944 -0.2229 0.1604
C5 C 0.5504(8) -0.1505(5) 0.1481(5)
H4 H 0.5646 -0.1692 0.1209
C6 C 0.5778(8) -0.0878(5) 0.1632(5)
H5 H 0.6093 -0.0653 0.1462
C7 C 0.5394(6) 0.0371(4) 0.1992(4)
H6 H 0.4896 0.0256 0.1729
C8 C 0.5650(5) 0.1001(3) 0.2173(3)
C9 C 0.6669(4) 0.1620(3) 0.2775(3)
H7 H 0.7173 0.1671 0.3041
C10 C 0.6265(4) 0.2119(3) 0.2641(3)
C11 C 0.5548(6) 0.2039(4) 0.2249(4)
H8 H 0.5257 0.2371 0.2148
C12 C 0.5243(5) 0.1481(3) 0.2000(4)
H9 H 0.4760 0.1431 0.1713
C13 C 0.6593(4) 0.2699(3) 0.2945(3)
C14 C 0.6584(4) 0.3234(3) 0.2673(3)
H10 H 0.6399 0.3207 0.2297
C15 C 0.7064(4) 0.3811(3) 0.3460(3)
C16 C 0.7104(4) 0.3298(3) 0.3753(3)
H11 H 0.7285 0.3330 0.4129
C17 C 0.6872(4) 0.2745(3) 0.3481(3)
H12 H 0.6907 0.2391 0.3673
C18 C 0.7227(4) 0.4423(3) 0.3679(3)
H13 H 0.7406 0.4511 0.4051
C19 C 0.7278(5) 0.5449(3) 0.3584(3)
C20 C 0.8039(5) 0.5731(4) 0.3751(4)
H14 H 0.8450 0.5514 0.3722
C21 C 0.8223(7) 0.6298(5) 0.3951(4)
H15 H 0.8750 0.6487 0.4057
C22 C 0.7607(7) 0.6603(4) 0.4000(3)
H16 H 0.7719 0.7001 0.4155
C23 C 0.6881(7) 0.6345(4) 0.3835(4)
H17 H 0.6470 0.6564 0.3863
C24 C 0.6693(6) 0.5754(4) 0.3618(4)
H18 H 0.6161 0.5573 0.3497
C25 C 0.7418(4) -0.0871(3) 0.3141(3)
C26 C 0.7889(5) -0.0727(3) 0.3658(3)
H19 H 0.8217 -0.0356 0.3759
C27 C 0.7858(6) -0.1163(4) 0.4032(3)
H20 H 0.8163 -0.1074 0.4394
C28 C 0.7420(6) -0.1686(4) 0.3894(3)
H21 H 0.7412 -0.1963 0.4156
C29 C 0.6980(6) -0.1834(4) 0.3380(4)
H22 H 0.6670 -0.2214 0.3285
C30 C 0.6984(6) -0.1430(3) 0.2994(3)
H23 H 0.6692 -0.1536 0.2632
C31 C 0.7735(5) -0.0517(3) 0.2407(3)
H24 H 0.8011 -0.0856 0.2411
C32 C 0.7685(5) -0.0080(3) 0.2022(3)
C33 C 0.7152(4) 0.0783(3) 0.1710(3)
H25 H 0.6848 0.1096 0.1739
C34 C 0.7441(5) 0.0790(3) 0.1300(3)
C35 C 0.7909(6) 0.0348(4) 0.1268(3)
H26 H 0.8148 0.0349 0.1000
C36 C 0.8024(6) -0.0093(4) 0.1627(3)
H27 H 0.8334 -0.0404 0.1604
C37 C 0.7214(5) 0.1248(3) 0.0897(3)
C38 C 0.7776(5) 0.1555(3) 0.0715(2)
H28 H 0.8316 0.1501 0.0878
C39 C 0.6801(5) 0.1969(3) 0.0070(3)
C40 C 0.6228(6) 0.1704(4) 0.0243(3)
H29 H 0.5692 0.1760 0.0070
C41 C 0.6435(6) 0.1340(4) 0.0684(3)
H30 H 0.6049 0.1167 0.0826
C42 C 0.6669(6) 0.2324(4) -0.0392(3)
H31 H 0.6152 0.2397 -0.0598
C43 C 0.7126(5) 0.2880(2) -0.09698(16)
C44 C 0.7082(6) 0.3494(2) -0.0941(2)
H32 H 0.7129 0.3692 -0.0613
C45 C 0.6970(6) 0.3819(2) -0.1391(3)
H33 H 0.6940 0.4239 -0.1371
C46 C 0.6901(6) 0.3530(3) -0.1871(2)
H34 H 0.6824 0.3753 -0.2179
C47 C 0.6944(6) 0.2916(3) -0.18999(16)
H35 H 0.6897 0.2719 -0.2228
C48 C 0.7057(5) 0.2591(2) -0.1449(2)
H36 H 0.7086 0.2171 -0.1469
C49 C 0.5867(4) 0.0019(3) 0.3380(3)
C50 C 0.5206(6) 0.0327(5) 0.3198(5)
H37 H 0.5248 0.0712 0.3061
C51 C 0.4490(6) 0.0068(6) 0.3220(6)
H38 H 0.4031 0.0268 0.3094
C52 C 0.4454(7) -0.0493(6) 0.3429(5)
H39 H 0.3967 -0.0666 0.3458
C53 C 0.5090(6) -0.0801(4) 0.3593(4)
H40 H 0.5044 -0.1191 0.3722
C54 C 0.5815(5) -0.0541(4) 0.3571(4)
H41 H 0.6268 -0.0750 0.3686
C55 C 0.7117(4) 0.0582(3) 0.3737(3)
H42 H 0.7019 0.0629 0.4063
C56 C 0.7850(4) 0.0839(3) 0.3677(3)
C57 C 0.8556(4) 0.0887(3) 0.3095(3)
H43 H 0.8583 0.0791 0.2755
C58 C 0.9214(4) 0.1188(3) 0.3474(3)
C59 C 0.9147(4) 0.1372(4) 0.3962(3)
H44 H 0.9563 0.1624 0.4213
C60 C 0.8462(4) 0.1177(4) 0.4069(3)
H45 H 0.8412 0.1272 0.4403
C61 C 0.9956(4) 0.1323(3) 0.3362(3)
C62 C 1.0347(4) 0.1904(3) 0.3436(2)
H46 H 1.0092 0.2222 0.3522
C63 C 1.1427(5) 0.1580(4) 0.3278(3)
C64 C 1.1057(5) 0.1000(4) 0.3168(4)
H47 H 1.1311 0.0692 0.3065
C65 C 1.0313(6) 0.0870(4) 0.3210(4)
H48 H 1.0051 0.0473 0.3135
C66 C 1.2224(5) 0.1775(4) 0.3291(3)
H49 H 1.2538 0.1504 0.3200
C67 C 1.3289(3) 0.2512(3) 0.3465(2)
C68 C 1.3909(4) 0.2363(3) 0.3892(2)
H50 H 1.3803 0.2129 0.4159
C69 C 1.4683(3) 0.2557(4) 0.3930(3)
H51 H 1.5107 0.2456 0.4222
C70 C 1.4837(3) 0.2899(4) 0.3540(4)
H52 H 1.5367 0.3032 0.3566
C71 C 1.4217(5) 0.3048(3) 0.3112(3)
H53 H 1.4323 0.3281 0.2845
C72 C 1.3443(4) 0.2854(3) 0.3074(2)
H54 H 1.3019 0.2955 0.2782
C73 C 0.5243(4) 0.4701(4) 0.2653(3)
C74 C 0.4726(5) 0.5119(4) 0.2441(3)
H55 H 0.4703 0.5280 0.2111
C75 C 0.4242(4) 0.5303(3) 0.2711(3)
H56 H 0.3888 0.5589 0.2566
C76 C 0.4275(4) 0.5068(4) 0.3194(3)
H57 H 0.3944 0.5194 0.3379
C77 C 0.4793(5) 0.4650(4) 0.3406(3)
H58 H 0.4816 0.4489 0.3736
C78 C 0.5277(5) 0.4466(4) 0.3135(3)
H59 H 0.5631 0.4180 0.3280
C79 C 0.5401(5) 0.4243(4) 0.1907(3)
H60 H 0.4843 0.4169 0.1761
C80 C 0.5910(5) 0.4063(4) 0.1622(3)
C81 C 0.7212(5) 0.4128(3) 0.1648(3)
H61 H 0.7756 0.4247 0.1832
C82 C 0.6997(6) 0.3857(3) 0.1133(3)
C83 C 0.6211(7) 0.3658(5) 0.0883(4)
H62 H 0.6048 0.3454 0.0544
C84 C 0.5666(7) 0.3751(6) 0.1121(4)
H63 H 0.5125 0.3607 0.0951
C85 C 0.7581(6) 0.3806(3) 0.0871(3)
C86 C 0.7699(5) 0.3252(3) 0.0679(3)
H64 H 0.7425 0.2902 0.0759
C87 C 0.8582(7) 0.3685(3) 0.0293(3)
C88 C 0.8538(9) 0.4244(5) 0.0494(5)
H65 H 0.8838 0.4588 0.0425
C89 C 0.8050(8) 0.4304(4) 0.0799(4)
H66 H 0.8039 0.4685 0.0957
C90 C 0.9003(7) 0.3556(4) -0.0071(3)
H67 H 0.9321 0.3864 -0.0172
C91 C 0.9327(5) 0.2892(3) -0.0625(2)
C92 C 0.9974(5) 0.2567(4) -0.0489(3)
H68 H 1.0168 0.2428 -0.0142
C93 C 1.0335(5) 0.2445(4) -0.0860(4)
H69 H 1.0776 0.2223 -0.0767
C94 C 1.0050(6) 0.2648(5) -0.1367(4)
H70 H 1.0296 0.2565 -0.1620
C95 C 0.9403(7) 0.2973(5) -0.1503(2)
H71 H 0.9209 0.3112 -0.1849
C96 C 0.9042(5) 0.3095(4) -0.1132(3)
H72 H 0.8601 0.3317 -0.1225
C97 C 0.6596(6) 0.5787(4) 0.2145(4)
C98 C 0.6580(6) 0.6300(4) 0.2439(3)
H73 H 0.6957 0.6388 0.2781
C99 C 0.6012(7) 0.6685(3) 0.2231(3)
H74 H 0.6001 0.7036 0.2432
C100 C 0.5460(6) 0.6556(4) 0.1730(4)
H75 H 0.5072 0.6819 0.1588
C101 C 0.5476(6) 0.6042(4) 0.1436(3)
H76 H 0.5099 0.5954 0.1094
C102 C 0.6044(7) 0.5658(3) 0.1644(3)
H77 H 0.6055 0.5307 0.1443
C103 C 0.7834(7) 0.5516(3) 0.2428(3)
H78 H 0.7991 0.5893 0.2315
C104 C 0.8418(5) 0.5106(3) 0.2666(3)
C105 C 0.8529(4) 0.4203(3) 0.3053(3)
H79 H 0.8287 0.3849 0.3152
C106 C 0.9355(5) 0.4273(3) 0.3190(3)
C107 C 0.9705(5) 0.4771(4) 0.3019(4)
H80 H 1.0257 0.4823 0.3081
C108 C 0.9225(7) 0.5197(4) 0.2752(4)
H81 H 0.9449 0.5544 0.2632
C109 C 0.9825(4) 0.3840(3) 0.3521(3)
C110 C 1.0418(4) 0.3601(3) 0.3384(3)
H82 H 1.0483 0.3695 0.3055
C111 C 1.0813(4) 0.3130(3) 0.4172(2)
C112 C 1.0206(5) 0.3325(4) 0.4323(3)
H83 H 1.0143 0.3223 0.4651
C113 C 0.9700(5) 0.3669(4) 0.3985(3)
H84 H 0.9263 0.3790 0.4069
C114 C 1.1425(4) 0.2795(3) 0.4495(3)
H85 H 1.1430 0.2680 0.4836
C115 C 1.2552(3) 0.2348(3) 0.4630(2)
C116 C 1.3257(3) 0.2661(3) 0.4952(2)
H86 H 1.3327 0.3087 0.4965
C117 C 1.3860(3) 0.2350(5) 0.5255(2)
H87 H 1.4342 0.2564 0.5475
C118 C 1.3758(4) 0.1726(5) 0.5236(3)
H88 H 1.4170 0.1513 0.5443
C119 C 1.3053(6) 0.1413(3) 0.4914(3)
H89 H 1.2984 0.0987 0.4902
C120 C 1.2450(4) 0.1724(3) 0.4611(2)
H90 H 1.1969 0.1510 0.4391
C121 C 0.8090(4) 0.1397(3) -0.07832(17)
C122 C 0.7347(4) 0.1096(3) -0.0851(2)
H91 H 0.7145 0.1084 -0.0565
C123 C 0.6900(4) 0.0814(3) -0.1339(3)
H92 H 0.6392 0.0609 -0.1385
C124 C 0.7196(5) 0.0833(4) -0.1758(2)
H93 H 0.6890 0.0640 -0.2091
C125 C 0.7939(5) 0.1133(4) -0.1690(2)
H94 H 0.8141 0.1145 -0.1976
C126 C 0.8385(4) 0.1415(3) -0.1202(2)
H95 H 0.8893 0.1620 -0.1156
C127 C 0.9115(5) 0.1462(4) 0.0006(3)
H96 H 0.9249 0.1093 -0.0102
C128 C 0.9575(5) 0.1781(4) 0.0509(3)
C129 C 0.9672(5) 0.2634(3) 0.1036(2)
H97 H 0.9477 0.2994 0.1104
C130 C 1.0368(5) 0.2477(4) 0.1396(3)
C131 C 1.0631(6) 0.1957(4) 0.1313(4)
H98 H 1.1079 0.1831 0.1571
C132 C 1.0245(6) 0.1597(4) 0.0845(4)
H99 H 1.0443 0.1243 0.0767
C133 C 1.0836(5) 0.2904(4) 0.1867(3)
C134 C 1.0973(5) 0.2700(3) 0.2376(3)
H100 H 1.0730 0.2317 0.2420
C135 C 1.1745(4) 0.3587(3) 0.2730(3)
C136 C 1.1584(5) 0.3824(3) 0.2238(3)
H101 H 1.1797 0.4219 0.2199
C137 C 1.1112(5) 0.3472(4) 0.1811(3)
H102 H 1.0976 0.3628 0.1470
C138 C 1.2275(4) 0.3889(3) 0.3221(3)
H103 H 1.2536 0.4280 0.3226
C139 C 1.2895(4) 0.3895(3) 0.4132(3)
C140 C 1.2577(5) 0.4155(4) 0.4482(3)
H104 H 1.2022 0.4141 0.4401
C141 C 1.3098(6) 0.4439(4) 0.4956(3)
H105 H 1.2895 0.4621 0.5199
C142 C 1.3905(6) 0.4453(4) 0.5071(4)
H106 H 1.4254 0.4653 0.5390
C143 C 1.4194(5) 0.4185(5) 0.4735(4)
H107 H 1.4749 0.4188 0.4827
C144 C 1.3708(5) 0.3904(5) 0.4254(3)
H108 H 1.3925 0.3724 0.4017
N1 N 0.5842(4) -0.0011(2) 0.2190(2)
N2 N 0.6381(3) 0.1067(2) 0.2546(2)
N3 N 0.6823(3) 0.3772(2) 0.2921(2)
N4 N 0.7120(3) 0.4837(2) 0.3356(2)
N5 N 0.7391(4) -0.0431(2) 0.2747(2)
N6 N 0.7260(4) 0.0378(2) 0.2073(2)
N7 N 0.7585(4) 0.1925(2) 0.0320(2)
N8 N 0.7266(4) 0.2533(3) -0.0511(2)
N9 N 0.6609(3) 0.0291(2) 0.3341(2)
N10 N 0.7880(3) 0.0726(2) 0.3193(2)
N11 N 1.1069(3) 0.2036(3) 0.3393(2)
N12 N 1.2487(4) 0.2327(3) 0.3430(2)
N13 N 0.5740(4) 0.4505(3) 0.2364(3)
N14 N 0.6703(4) 0.4222(2) 0.1887(2)
N15 N 0.8170(4) 0.3174(3) 0.0389(2)
N16 N 0.8927(5) 0.3021(3) -0.0247(2)
N17 N 0.7131(5) 0.5364(3) 0.2378(2)
N18 N 0.8064(4) 0.4593(2) 0.2796(2)
N19 N 1.0897(3) 0.3248(3) 0.3692(2)
N20 N 1.1953(4) 0.2661(3) 0.4307(2)
N21 N 0.8515(4) 0.1708(3) -0.0287(2)
N22 N 0.9273(4) 0.2293(3) 0.0599(2)
N23 N 1.1444(3) 0.3037(3) 0.2805(2)
N24 N 1.2379(3) 0.3608(3) 0.3648(2)
Fe1 Fe 0.68864(4) 0.03164(2) 0.26892(3)
Fe2 Fe 0.69072(4) 0.45632(2) 0.26137(3)
Fe3 Fe 0.82950(5) 0.24343(3) 0.00321(2)
Fe4 Fe 1.17260(3) 0.28263(3) 0.35522(2)
loop_
_geom_bond_atom_site_label_1
_geom_bond_atom_site_label_2
_geom_bond_site_symmetry_1
_geom_bond_site_symmetry_2
C1 C2 1_555 1_555
C2 H1 1_555 1_555
C3 C2 1_555 1_555
H2 C3 1_555 1_555
C4 C3 1_555 1_555
H3 C4 1_555 1_555
C5 C4 1_555 1_555
H4 C5 1_555 1_555
C6 C1 1_555 1_555
H5 C6 1_555 1_555
C7 H6 1_555 1_555
C8 C7 1_555 1_555
C9 H7 1_555 1_555
C10 C9 1_555 1_555
C11 C10 1_555 1_555
H8 C11 1_555 1_555
C12 C8 1_555 1_555
H9 C12 1_555 1_555
C13 C10 1_555 1_555
C14 C13 1_555 1_555
H10 C14 1_555 1_555
C15 C16 1_555 1_555
C16 H11 1_555 1_555
C17 C13 1_555 1_555
H12 C17 1_555 1_555
C18 C15 1_555 1_555
H13 C18 1_555 1_555
C19 C20 1_555 1_555
C20 H14 1_555 1_555
C21 C20 1_555 1_555
H15 C21 1_555 1_555
C22 C21 1_555 1_555
H16 C22 1_555 1_555
C23 C22 1_555 1_555
H17 C23 1_555 1_555
C24 C19 1_555 1_555
H18 C24 1_555 1_555
C25 C26 1_555 1_555
C26 H19 1_555 1_555
C27 C26 1_555 1_555
H20 C27 1_555 1_555
C28 C27 1_555 1_555
H21 C28 1_555 1_555
C29 C28 1_555 1_555
H22 C29 1_555 1_555
C30 C25 1_555 1_555
H23 C30 1_555 1_555
C31 H24 1_555 1_555
C32 C31 1_555 1_555
C33 H25 1_555 1_555
C34 C33 1_555 1_555
C35 C34 1_555 1_555
H26 C35 1_555 1_555
C36 C32 1_555 1_555
H27 C36 1_555 1_555
C37 C34 1_555 1_555
C38 C37 1_555 1_555
H28 C38 1_555 1_555
C39 C40 1_555 1_555
C40 H29 1_555 1_555
C41 C37 1_555 1_555
H30 C41 1_555 1_555
C42 C39 1_555 1_555
H31 C42 1_555 1_555
C43 C44 1_555 1_555
C44 H32 1_555 1_555
C45 C44 1_555 1_555
H33 C45 1_555 1_555
C46 C45 1_555 1_555
H34 C46 1_555 1_555
C47 C46 1_555 1_555
H35 C47 1_555 1_555
C48 C43 1_555 1_555
H36 C48 1_555 1_555
C49 C50 1_555 1_555
C50 H37 1_555 1_555
C51 C50 1_555 1_555
H38 C51 1_555 1_555
C52 C51 1_555 1_555
H39 C52 1_555 1_555
C53 C52 1_555 1_555
H40 C53 1_555 1_555
C54 C49 1_555 1_555
H41 C54 1_555 1_555
C55 H42 1_555 1_555
C56 C55 1_555 1_555
C57 H43 1_555 1_555
C58 C57 1_555 1_555
C59 C58 1_555 1_555
H44 C59 1_555 1_555
C60 C56 1_555 1_555
H45 C60 1_555 1_555
C61 C58 1_555 1_555
C62 C61 1_555 1_555
H46 C62 1_555 1_555
C63 C64 1_555 1_555
C64 H47 1_555 1_555
C65 C61 1_555 1_555
H48 C65 1_555 1_555
C66 C63 1_555 1_555
H49 C66 1_555 1_555
C67 C68 1_555 1_555
C68 H50 1_555 1_555
C69 C68 1_555 1_555
H51 C69 1_555 1_555
C70 C69 1_555 1_555
H52 C70 1_555 1_555
C71 C70 1_555 1_555
H53 C71 1_555 1_555
C72 C67 1_555 1_555
H54 C72 1_555 1_555
C73 C74 1_555 1_555
C74 H55 1_555 1_555
C75 C74 1_555 1_555
H56 C75 1_555 1_555
C76 C75 1_555 1_555
H57 C76 1_555 1_555
C77 C76 1_555 1_555
H58 C77 1_555 1_555
C78 C73 1_555 1_555
H59 C78 1_555 1_555
C79 H60 1_555 1_555
C80 C79 1_555 1_555
C81 H61 1_555 1_555
C82 C81 1_555 1_555
C83 C82 1_555 1_555
H62 C83 1_555 1_555
C84 C80 1_555 1_555
H63 C84 1_555 1_555
C85 C82 1_555 1_555
C86 C85 1_555 1_555
H64 C86 1_555 1_555
C87 C88 1_555 1_555
C88 H65 1_555 1_555
C89 C85 1_555 1_555
H66 C89 1_555 1_555
C90 C87 1_555 1_555
H67 C90 1_555 1_555
C91 C92 1_555 1_555
C92 H68 1_555 1_555
C93 C92 1_555 1_555
H69 C93 1_555 1_555
C94 C93 1_555 1_555
H70 C94 1_555 1_555
C95 C94 1_555 1_555
H71 C95 1_555 1_555
C96 C91 1_555 1_555
H72 C96 1_555 1_555
C97 C98 1_555 1_555
C98 H73 1_555 1_555
C99 C98 1_555 1_555
H74 C99 1_555 1_555
C100 C99 1_555 1_555
H75 C100 1_555 1_555
C101 C100 1_555 1_555
H76 C101 1_555 1_555
C102 C97 1_555 1_555
H77 C102 1_555 1_555
C103 H78 1_555 1_555
C104 C103 1_555 1_555
C105 H79 1_555 1_555
C106 C105 1_555 1_555
C107 C106 1_555 1_555
H80 C107 1_555 1_555
C108 C104 1_555 1_555
H81 C108 1_555 1_555
C109 C106 1_555 1_555
C110 C109 1_555 1_555
H82 C110 1_555 1_555
C111 C112 1_555 1_555
C112 H83 1_555 1_555
C113 C109 1_555 1_555
H84 C113 1_555 1_555
C114 C111 1_555 1_555
H85 C114 1_555 1_555
C115 C116 1_555 1_555
C116 H86 1_555 1_555
C117 C116 1_555 1_555
H87 C117 1_555 1_555
C118 C117 1_555 1_555
H88 C118 1_555 1_555
C119 C118 1_555 1_555
H89 C119 1_555 1_555
C120 C115 1_555 1_555
H90 C120 1_555 1_555
C121 C122 1_555 1_555
C122 H91 1_555 1_555
C123 C122 1_555 1_555
H92 C123 1_555 1_555
C124 C123 1_555 1_555
H93 C124 1_555 1_555
C125 C124 1_555 1_555
H94 C125 1_555 1_555
C126 C121 1_555 1_555
H95 C126 1_555 1_555
C127 H96 1_555 1_555
C128 C127 1_555 1_555
C129 H97 1_555 1_555
C130 C129 1_555 1_555
C131 C130 1_555 1_555
H98 C131 1_555 1_555
C132 C128 1_555 1_555
H99 C132 1_555 1_555
C133 C130 1_555 1_555
C134 C133 1_555 1_555
H100 C134 1_555 1_555
C135 C136 1_555 1_555
C136 H101 1_555 1_555
C137 C133 1_555 1_555
H102 C137 1_555 1_555
C138 C135 1_555 1_555
H103 C138 1_555 1_555
C139 C140 1_555 1_555
C140 H104 1_555 1_555
C141 C140 1_555 1_555
H105 C141 1_555 1_555
C142 C141 1_555 1_555
H106 C142 1_555 1_555
C143 C142 1_555 1_555
H107 C143 1_555 1_555
C144 C139 1_555 1_555
H108 C144 1_555 1_555
N1 C1 1_555 1_555
N2 C8 1_555 1_555
N3 C14 1_555 1_555
N4 C18 1_555 1_555
N5 C25 1_555 1_555
N6 C32 1_555 1_555
N7 C38 1_555 1_555
N8 C42 1_555 1_555
N9 C49 1_555 1_555
N10 C56 1_555 1_555
N11 C62 1_555 1_555
N12 C66 1_555 1_555
N13 C73 1_555 1_555
N14 C80 1_555 1_555
N15 C86 1_555 1_555
N16 C90 1_555 1_555
N17 C97 1_555 1_555
N18 C104 1_555 1_555
N19 C110 1_555 1_555
N20 C114 1_555 1_555
N21 C121 1_555 1_555
N22 C128 1_555 1_555
N23 C134 1_555 1_555
N24 C138 1_555 1_555
Fe1 N1 1_555 1_555
Fe2 N3 1_555 1_555
Fe3 N7 1_555 1_555
Fe4 N11 1_555 1_555
N25 C145 1_555 1_555
C145 C146 1_555 1_555
C146 H109 1_555 1_555
H110 C146 1_555 1_555
H111 C146 1_555 1_555
N26 C147 1_555 1_555
C147 C148 1_555 1_555
C148 H112 1_555 1_555
H113 C148 1_555 1_555
H114 C148 1_555 1_555
O1 C150 1_555 1_555
C149 H115 1_555 1_555
H116 C149 1_555 1_555
H117 C149 1_555 1_555
C150 H118 1_555 1_555
H119 C150 1_555 1_555
C151 C150 1_555 1_555
H120 C151 1_555 1_555
H121 C151 1_555 1_555
H122 C151 1_555 1_555
C152 O1 1_555 1_555
H123 C152 1_555 1_555
H124 C152 1_555 1_555
F1 As1 1_555 1_555
F2 As1 1_555 1_555
F3 As1 1_555 1_555
F4 As1 1_555 1_555
F5 As1 1_555 1_555
F6 As1 1_555 1_555
As2 F7 1_555 1_555
F8 As2 1_555 1_555
F9 As2 1_555 1_555
F10 As2 1_555 1_555
F11 As2 1_555 1_555
F12 As2 1_555 1_555
As3 F13 1_555 1_555
F14 As3 1_555 1_555
F15 As3 1_555 1_555
F16 As3 1_555 1_555
F17 As3 1_555 1_555
F18 As3 1_555 1_555
As4 F19 1_555 1_555
F20 As4 1_555 1_555
F21 As4 1_555 1_555
F22 As4 1_555 1_555
F23 As4 1_555 1_555
F24 As4 1_555 1_555
As5 F25 1_555 1_555
F26 As5 1_555 1_555
F27 As5 1_555 1_555
F28 As5 1_555 1_555
F29 As5 1_555 1_555
F30 As5 1_555 1_555
C5 C6 1_555 1_555
C7 N1 1_555 1_555
C9 N2 1_555 1_555
C11 C12 1_555 1_555
C15 N3 1_555 1_555
C16 C17 1_555 1_555
C19 N4 1_555 1_555
C23 C24 1_555 1_555
C29 C30 1_555 1_555
C31 N5 1_555 1_555
C33 N6 1_555 1_555
C35 C36 1_555 1_555
C39 N7 1_555 1_555
C40 C41 1_555 1_555
C43 N8 1_555 1_555
C47 C48 1_555 1_555
C53 C54 1_555 1_555
C55 N9 1_555 1_555
C57 N10 1_555 1_555
C59 C60 1_555 1_555
C63 N11 1_555 1_555
C64 C65 1_555 1_555
C67 N12 1_555 1_555
C71 C72 1_555 1_555
C77 C78 1_555 1_555
C79 N13 1_555 1_555
C81 N14 1_555 1_555
C83 C84 1_555 1_555
C87 N15 1_555 1_555
C88 C89 1_555 1_555
C91 N16 1_555 1_555
C95 C96 1_555 1_555
C101 C102 1_555 1_555
C103 N17 1_555 1_555
C105 N18 1_555 1_555
C107 C108 1_555 1_555
C111 N19 1_555 1_555
C112 C113 1_555 1_555
C115 N20 1_555 1_555
C119 C120 1_555 1_555
C125 C126 1_555 1_555
C127 N21 1_555 1_555
C129 N22 1_555 1_555
C131 C132 1_555 1_555
C135 N23 1_555 1_555
C136 C137 1_555 1_555
C139 N24 1_555 1_555
C143 C144 1_555 1_555
N2 Fe1 1_555 1_555
N4 Fe2 1_555 1_555
N5 Fe1 1_555 1_555
N6 Fe1 1_555 1_555
N8 Fe3 1_555 1_555
N9 Fe1 1_555 1_555
N10 Fe1 1_555 1_555
N12 Fe4 1_555 1_555
N13 Fe2 1_555 1_555
N14 Fe2 1_555 1_555
N15 Fe3 1_555 1_555
N16 Fe3 1_555 1_555
N17 Fe2 1_555 1_555
N18 Fe2 1_555 1_555
N19 Fe4 1_555 1_555
N20 Fe4 1_555 1_555
N21 Fe3 1_555 1_555
N22 Fe3 1_555 1_555
N23 Fe4 1_555 1_555
N24 Fe4 1_555 1_555
C149 C152 1_555 1_555

#END
