# generated using pymatgen
data_Cd48As68.0H1584C1885S12.928N294O24F445
_symmetry_space_group_name_H-M   'P 1'
_cell_length_a   30.34300000
_cell_length_b   47.69719921
_cell_length_c   48.45100000
_cell_angle_alpha   102.54084760
_cell_angle_beta   90.00000000
_cell_angle_gamma   108.54681926
_symmetry_Int_Tables_number   1
_chemical_formula_structural   Cd48As68.0H1584C1885S12.928N294O24F445
_chemical_formula_sum
'Cd48 As68.0 H1584 C1885 S12.928 N294 O24 F445'
_cell_volume   64713.03212143
_cell_formula_units_Z   1
loop_
 _symmetry_equiv_pos_site_id
 _symmetry_equiv_pos_as_xyz
  1  'x, y, z'
loop_
 _atom_site_type_symbol
 _atom_site_label
 _atom_site_symmetry_multiplicity
 _atom_site_fract_x
 _atom_site_fract_y
 _atom_site_fract_z
 _atom_site_occupancy
  As  As1  1  0.110850  0.381880  0.639550  1.0
  As  As2  1  0.728970  0.618120  0.860450  1.0
  As  As3  1  0.889150  0.618120  0.360450  1.0
  As  As4  1  0.271030  0.381880  0.139550  1.0
  As  As5  1  0.138790  0.259500  0.504550  1.0
  As  As6  1  0.879290  0.740500  0.995450  1.0
  As  As7  1  0.861210  0.740500  0.495450  1.0
  As  As8  1  0.120710  0.259500  0.004550  1.0
  As  As9  1  0.927470  0.153420  0.391160  1.0
  As  As10  1  0.774050  0.846580  0.108840  1.0
  As  As11  1  0.072530  0.846580  0.608840  1.0
  As  As12  1  0.225950  0.153420  0.891160  1.0
  As  As13  1  0.670140  0.151900  0.416740  1.0
  As  As14  1  0.518240  0.848100  0.083260  1.0
  As  As15  1  0.329860  0.848100  0.583260  1.0
  As  As16  1  0.481760  0.151900  0.916740  1.0
  As  As17  1  0.645900  0.265260  0.556880  1.0
  As  As18  1  0.380640  0.734740  0.943120  1.0
  As  As19  1  0.354100  0.734740  0.443120  1.0
  As  As20  1  0.619360  0.265260  0.056880  1.0
  As  As21  1  0.854810  0.383500  0.666790  1.0
  As  As22  1  0.471310  0.616500  0.833210  1.0
  As  As23  1  0.145190  0.616500  0.333210  1.0
  As  As24  1  0.528690  0.383500  0.166790  1.0
  As  As25  1  0.293290  0.433320  0.761830  1.0
  As  As26  1  0.859970  0.566680  0.738170  1.0
  As  As27  1  0.706710  0.566680  0.238170  1.0
  As  As28  1  0.140030  0.433320  0.261830  1.0
  As  As29  1  0.361020  0.549780  0.667150  1.0
  As  As30  1  0.811240  0.450220  0.832850  1.0
  As  As31  1  0.638980  0.450220  0.332850  1.0
  As  As32  1  0.188760  0.549780  0.167150  1.0
  As  As33  1  0.520180  0.444960  0.658680  1.0
  As  As34  1  0.075220  0.555040  0.841320  1.0
  As  As35  1  0.479820  0.555040  0.341320  1.0
  As  As36  1  0.924780  0.444960  0.158680  1.0
  As  As37  1  0.347370  0.184400  0.478360  1.0
  As  As38  1  0.162970  0.815600  0.021640  1.0
  As  As39  1  0.652630  0.815600  0.521640  1.0
  As  As40  1  0.837030  0.184400  0.978360  1.0
  As  As41  1  0.248780  0.381400  0.378530  1.0
  As  As42  1  0.867380  0.618600  0.121470  1.0
  As  As43  1  0.751220  0.618600  0.621470  1.0
  As  As44  1  0.132620  0.381400  0.878530  1.0
  As  As45  1  0.893850  0.444500  0.554930  1.0
  As  As46  1  0.449350  0.555500  0.945070  1.0
  As  As47  1  0.106150  0.555500  0.445070  1.0
  As  As48  1  0.550650  0.444500  0.054930  1.0
  As  As49  1  0.896840  0.207480  0.654690  1.0
  As  As50  1  0.689360  0.792520  0.845310  1.0
  As  As51  1  0.103160  0.792520  0.345310  1.0
  As  As52  1  0.310640  0.207480  0.154690  1.0
  As  As53  1  0.822180  0.343560  0.435830  1.0
  As  As54  1  0.478620  0.656440  0.064170  1.0
  As  As55  1  0.177820  0.656440  0.564170  1.0
  As  As56  1  0.521380  0.343560  0.935830  1.0
  As  As57  1  0.001750  0.387900  0.472300  0.5
  As  As58  1  0.613850  0.612100  0.027700  0.5
  As  As59  1  0.998250  0.612100  0.527700  0.5
  As  As60  1  0.386150  0.387900  0.972300  0.5
  As  As61  1  0.847190  0.119580  0.552750  0.5
  As  As62  1  0.727610  0.880420  0.947250  0.5
  As  As63  1  0.152810  0.880420  0.447250  0.5
  As  As64  1  0.272390  0.119580  0.052750  0.5
  As  As65  1  0.430380  0.368560  0.571920  0.6
  As  As66  1  0.061820  0.631440  0.928080  0.6
  As  As67  1  0.569620  0.631440  0.428080  0.6
  As  As68  1  0.938180  0.368560  0.071920  0.6
  As  As69  1  0.395230  0.240860  0.645040  0.6
  As  As70  1  0.154370  0.759140  0.854960  0.6
  As  As71  1  0.604770  0.759140  0.354960  0.6
  As  As72  1  0.845630  0.240860  0.145040  0.6
  As  As73  1  0.432930  0.369660  0.779290  0.8
  As  As74  1  0.063270  0.630340  0.720710  0.8
  As  As75  1  0.567070  0.630340  0.220710  0.8
  As  As76  1  0.936730  0.369660  0.279290  0.8
  C  C77  1  0.987200  0.375000  0.815800  1.0
  C  C78  1  0.612200  0.625000  0.684200  1.0
  C  C79  1  0.012800  0.625000  0.184200  1.0
  C  C80  1  0.387800  0.375000  0.315800  1.0
  C  C81  1  0.953500  0.389200  0.815200  1.0
  C  C82  1  0.564300  0.610800  0.684800  1.0
  C  C83  1  0.046500  0.610800  0.184800  1.0
  C  C84  1  0.435700  0.389200  0.315200  1.0
  C  C85  1  0.925000  0.391400  0.837600  1.0
  C  C86  1  0.533600  0.608600  0.662400  1.0
  C  C87  1  0.075000  0.608600  0.162400  1.0
  C  C88  1  0.466400  0.391400  0.337600  1.0
  C  C89  1  0.929190  0.379180  0.861000  1.0
  C  C90  1  0.550010  0.620820  0.639000  1.0
  C  C91  1  0.070810  0.620820  0.139000  1.0
  C  C92  1  0.449990  0.379180  0.361000  1.0
  C  C93  1  0.963200  0.365000  0.861300  1.0
  C  C94  1  0.598200  0.635000  0.638700  1.0
  C  C95  1  0.036800  0.635000  0.138700  1.0
  C  C96  1  0.401800  0.365000  0.361300  1.0
  C  C97  1  0.991900  0.363000  0.838900  1.0
  C  C98  1  0.628900  0.637000  0.661100  1.0
  C  C99  1  0.008100  0.637000  0.161100  1.0
  C  C100  1  0.371100  0.363000  0.338900  1.0
  C  C101  1  0.897500  0.380800  0.884800  1.0
  C  C102  1  0.516700  0.619200  0.615200  1.0
  C  C103  1  0.102500  0.619200  0.115200  1.0
  C  C104  1  0.483300  0.380800  0.384800  1.0
  C  C105  1  0.057400  0.373800  0.795000  1.0
  C  C106  1  0.683600  0.626200  0.705000  1.0
  C  C107  1  0.942600  0.626200  0.205000  1.0
  C  C108  1  0.316400  0.373800  0.295000  1.0
  C  C109  1  0.087500  0.368200  0.772600  1.0
  C  C110  1  0.719300  0.631800  0.727400  1.0
  C  C111  1  0.912500  0.631800  0.227400  1.0
  C  C112  1  0.280700  0.368200  0.272600  1.0
  C  C113  1  0.133700  0.370800  0.775800  1.0
  C  C114  1  0.762900  0.629200  0.724200  1.0
  C  C115  1  0.866300  0.629200  0.224200  1.0
  C  C116  1  0.237100  0.370800  0.275800  1.0
  C  C117  1  0.160000  0.364200  0.754900  1.0
  C  C118  1  0.795800  0.635800  0.745100  1.0
  C  C119  1  0.840000  0.635800  0.245100  1.0
  C  C120  1  0.204200  0.364200  0.254900  1.0
  C  C121  1  0.135100  0.352400  0.726200  1.0
  C  C122  1  0.782700  0.647600  0.773800  1.0
  C  C123  1  0.864900  0.647600  0.273800  1.0
  C  C124  1  0.217300  0.352400  0.226200  1.0
  C  C125  1  0.088300  0.350400  0.724300  1.0
  C  C126  1  0.737900  0.649600  0.775700  1.0
  C  C127  1  0.911700  0.649600  0.275700  1.0
  C  C128  1  0.262100  0.350400  0.224300  1.0
  C  C129  1  0.148700  0.320400  0.682200  1.0
  C  C130  1  0.828300  0.679600  0.817800  1.0
  C  C131  1  0.851300  0.679600  0.317800  1.0
  C  C132  1  0.171700  0.320400  0.182200  1.0
  C  C133  1  0.164000  0.347200  0.703000  1.0
  C  C134  1  0.816800  0.652800  0.797000  1.0
  C  C135  1  0.836000  0.652800  0.297000  1.0
  C  C136  1  0.183200  0.347200  0.203000  1.0
  C  C137  1  0.206900  0.367000  0.700400  1.0
  C  C138  1  0.839900  0.633000  0.799600  1.0
  C  C139  1  0.793100  0.633000  0.299600  1.0
  C  C140  1  0.160100  0.367000  0.200400  1.0
  C  C141  1  0.231900  0.361000  0.678700  1.0
  C  C142  1  0.870900  0.639000  0.821300  1.0
  C  C143  1  0.768100  0.639000  0.321300  1.0
  C  C144  1  0.129100  0.361000  0.178700  1.0
  C  C145  1  0.215100  0.334400  0.658800  1.0
  C  C146  1  0.880700  0.665600  0.841200  1.0
  C  C147  1  0.784900  0.665600  0.341200  1.0
  C  C148  1  0.119300  0.334400  0.158800  1.0
  C  C149  1  0.242100  0.327600  0.636400  1.0
  C  C150  1  0.914500  0.672400  0.863600  1.0
  C  C151  1  0.757900  0.672400  0.363600  1.0
  C  C152  1  0.085500  0.327600  0.136400  1.0
  C  C153  1  0.261770  0.294540  0.597270  1.0
  C  C154  1  0.967230  0.705460  0.902730  1.0
  C  C155  1  0.738230  0.705460  0.402730  1.0
  C  C156  1  0.032770  0.294540  0.097270  1.0
  C  C157  1  0.306730  0.298060  0.607360  1.0
  C  C158  1  0.008670  0.701940  0.892640  1.0
  C  C159  1  0.693270  0.701940  0.392640  1.0
  C  C160  1  0.991330  0.298060  0.107360  1.0
  C  C161  1  0.338120  0.290240  0.588600  1.0
  C  C162  1  0.047880  0.709760  0.911400  1.0
  C  C163  1  0.661880  0.709760  0.411400  1.0
  C  C164  1  0.952120  0.290240  0.088600  1.0
  C  C165  1  0.325350  0.278700  0.559550  1.0
  C  C166  1  0.046650  0.721300  0.940450  1.0
  C  C167  1  0.674650  0.721300  0.440450  1.0
  C  C168  1  0.953350  0.278700  0.059550  1.0
  C  C169  1  0.280090  0.275380  0.549740  1.0
  C  C170  1  0.004710  0.724620  0.950260  1.0
  C  C171  1  0.719910  0.724620  0.450260  1.0
  C  C172  1  0.995290  0.275380  0.049740  1.0
  C  C173  1  0.248500  0.283200  0.568350  1.0
  C  C174  1  0.965300  0.716800  0.931650  1.0
  C  C175  1  0.751500  0.716800  0.431650  1.0
  C  C176  1  0.034700  0.283200  0.068350  1.0
  C  C177  1  0.358880  0.269560  0.539500  1.0
  C  C178  1  0.089320  0.730440  0.960500  1.0
  C  C179  1  0.641120  0.730440  0.460500  1.0
  C  C180  1  0.910680  0.269560  0.039500  1.0
  C  C181  1  0.232130  0.274460  0.685110  1.0
  C  C182  1  0.957670  0.725540  0.814890  1.0
  C  C183  1  0.767870  0.725540  0.314890  1.0
  C  C184  1  0.042330  0.274460  0.185110  1.0
  C  C185  1  0.198060  0.274720  0.704500  1.0
  C  C186  1  0.923340  0.725280  0.795500  1.0
  C  C187  1  0.801940  0.725280  0.295500  1.0
  C  C188  1  0.076660  0.274720  0.204500  1.0
  C  C189  1  0.210470  0.292340  0.732100  1.0
  C  C190  1  0.918130  0.707660  0.767900  1.0
  C  C191  1  0.789530  0.707660  0.267900  1.0
  C  C192  1  0.081870  0.292340  0.232100  1.0
  C  C193  1  0.256890  0.309980  0.740990  1.0
  C  C194  1  0.946910  0.690020  0.759010  1.0
  C  C195  1  0.743110  0.690020  0.259010  1.0
  C  C196  1  0.053090  0.309980  0.240990  1.0
  C  C197  1  0.290670  0.309540  0.721290  1.0
  C  C198  1  0.981130  0.690460  0.778710  1.0
  C  C199  1  0.709330  0.690460  0.278710  1.0
  C  C200  1  0.018870  0.309540  0.221290  1.0
  C  C201  1  0.278490  0.291980  0.693620  1.0
  C  C202  1  0.986510  0.708020  0.806380  1.0
  C  C203  1  0.721510  0.708020  0.306380  1.0
  C  C204  1  0.013490  0.291980  0.193620  1.0
  C  C205  1  0.270280  0.328360  0.771030  1.0
  C  C206  1  0.941920  0.671640  0.728970  1.0
  C  C207  1  0.729720  0.671640  0.228970  1.0
  C  C208  1  0.058080  0.328360  0.271030  1.0
  C  C209  1  0.245000  0.244800  0.643100  1.0
  C  C210  1  0.000200  0.755200  0.856900  1.0
  C  C211  1  0.755000  0.755200  0.356900  1.0
  C  C212  1  0.999800  0.244800  0.143100  1.0
  C  C213  1  0.228400  0.226600  0.613500  1.0
  C  C214  1  0.001800  0.773400  0.886500  1.0
  C  C215  1  0.771600  0.773400  0.386500  1.0
  C  C216  1  0.998200  0.226600  0.113500  1.0
  C  C217  1  0.256000  0.212600  0.596600  1.0
  C  C218  1  0.043400  0.787400  0.903400  1.0
  C  C219  1  0.744000  0.787400  0.403400  1.0
  C  C220  1  0.956600  0.212600  0.096600  1.0
  C  C221  1  0.242500  0.199600  0.568100  1.0
  C  C222  1  0.042900  0.800400  0.931900  1.0
  C  C223  1  0.757500  0.800400  0.431900  1.0
  C  C224  1  0.957100  0.199600  0.068100  1.0
  C  C225  1  0.201200  0.200400  0.556400  1.0
  C  C226  1  0.000800  0.799600  0.943600  1.0
  C  C227  1  0.798800  0.799600  0.443600  1.0
  C  C228  1  0.999200  0.200400  0.056400  1.0
  C  C229  1  0.173400  0.214200  0.573200  1.0
  C  C230  1  0.959200  0.785800  0.926800  1.0
  C  C231  1  0.826600  0.785800  0.426800  1.0
  C  C232  1  0.040800  0.214200  0.073200  1.0
  C  C233  1  0.144000  0.173000  0.516700  1.0
  C  C234  1  0.971000  0.827000  0.983300  1.0
  C  C235  1  0.856000  0.827000  0.483300  1.0
  C  C236  1  0.029000  0.173000  0.016700  1.0
  C  C237  1  0.190100  0.187200  0.525200  1.0
  C  C238  1  0.002900  0.812800  0.974800  1.0
  C  C239  1  0.809900  0.812800  0.474800  1.0
  C  C240  1  0.997100  0.187200  0.025200  1.0
  C  C241  1  0.222900  0.192200  0.505800  1.0
  C  C242  1  0.030700  0.807800  0.994200  1.0
  C  C243  1  0.777100  0.807800  0.494200  1.0
  C  C244  1  0.969300  0.192200  0.005800  1.0
  C  C245  1  0.211400  0.184200  0.477900  1.0
  C  C246  1  0.027200  0.815800  0.022100  1.0
  C  C247  1  0.788600  0.815800  0.522100  1.0
  C  C248  1  0.972800  0.184200  0.977900  1.0
  C  C249  1  0.164500  0.168200  0.469400  1.0
  C  C250  1  0.996300  0.831800  0.030600  1.0
  C  C251  1  0.835500  0.831800  0.530600  1.0
  C  C252  1  0.003700  0.168200  0.969400  1.0
  C  C253  1  0.148000  0.156200  0.439300  1.0
  C  C254  1  0.991800  0.843800  0.060700  1.0
  C  C255  1  0.852000  0.843800  0.560700  1.0
  C  C256  1  0.008200  0.156200  0.939300  1.0
  C  C257  1  0.095720  0.129640  0.400000  1.0
  C  C258  1  0.966080  0.870360  0.100000  1.0
  C  C259  1  0.904280  0.870360  0.600000  1.0
  C  C260  1  0.033920  0.129640  0.900000  1.0
  C  C261  1  0.123480  0.117760  0.381000  1.0
  C  C262  1  0.005720  0.882240  0.119000  1.0
  C  C263  1  0.876520  0.882240  0.619000  1.0
  C  C264  1  0.994280  0.117760  0.881000  1.0
  C  C265  1  0.107840  0.105680  0.352500  1.0
  C  C266  1  0.002160  0.894320  0.147500  1.0
  C  C267  1  0.892160  0.894320  0.647500  1.0
  C  C268  1  0.997840  0.105680  0.852500  1.0
  C  C269  1  0.064280  0.105160  0.342300  1.0
  C  C270  1  0.959120  0.894840  0.157700  1.0
  C  C271  1  0.935720  0.894840  0.657700  1.0
  C  C272  1  0.040880  0.105160  0.842300  1.0
  C  C273  1  0.036830  0.117260  0.361500  1.0
  C  C274  1  0.919570  0.882740  0.138500  1.0
  C  C275  1  0.963170  0.882740  0.638500  1.0
  C  C276  1  0.080430  0.117260  0.861500  1.0
  C  C277  1  0.052280  0.129360  0.390100  1.0
  C  C278  1  0.922920  0.870640  0.109900  1.0
  C  C279  1  0.947720  0.870640  0.609900  1.0
  C  C280  1  0.077080  0.129360  0.890100  1.0
  C  C281  1  0.047020  0.091440  0.311600  1.0
  C  C282  1  0.955580  0.908560  0.188400  1.0
  C  C283  1  0.952980  0.908560  0.688400  1.0
  C  C284  1  0.044420  0.091440  0.811600  1.0
  C  C285  1  0.147720  0.094640  0.473400  1.0
  C  C286  1  0.053080  0.905360  0.026600  1.0
  C  C287  1  0.852280  0.905360  0.526600  1.0
  C  C288  1  0.946920  0.094640  0.973400  1.0
  C  C289  1  0.147140  0.102080  0.502900  1.0
  C  C290  1  0.045060  0.897920  0.997100  1.0
  C  C291  1  0.852860  0.897920  0.497100  1.0
  C  C292  1  0.954940  0.102080  0.002900  1.0
  C  C293  1  0.187580  0.108360  0.520100  1.0
  C  C294  1  0.079220  0.891640  0.979900  1.0
  C  C295  1  0.812420  0.891640  0.479900  1.0
  C  C296  1  0.920780  0.108360  0.020100  1.0
  C  C297  1  0.229340  0.107280  0.508300  1.0
  C  C298  1  0.122060  0.892720  0.991700  1.0
  C  C299  1  0.770660  0.892720  0.491700  1.0
  C  C300  1  0.877940  0.107280  0.008300  1.0
  C  C301  1  0.229420  0.099840  0.478600  1.0
  C  C302  1  0.129580  0.900160  0.021400  1.0
  C  C303  1  0.770580  0.900160  0.521400  1.0
  C  C304  1  0.870420  0.099840  0.978600  1.0
  C  C305  1  0.189080  0.093560  0.461300  1.0
  C  C306  1  0.095520  0.906440  0.038700  1.0
  C  C307  1  0.810920  0.906440  0.538700  1.0
  C  C308  1  0.904480  0.093560  0.961300  1.0
  C  C309  1  0.272700  0.113400  0.526900  1.0
  C  C310  1  0.159300  0.886600  0.973100  1.0
  C  C311  1  0.727300  0.886600  0.473100  1.0
  C  C312  1  0.840700  0.113400  0.026900  1.0
  C  C313  1  0.090200  0.069400  0.437400  1.0
  C  C314  1  0.020800  0.930600  0.062600  1.0
  C  C315  1  0.909800  0.930600  0.562600  1.0
  C  C316  1  0.979200  0.069400  0.937400  1.0
  C  C317  1  0.045650  0.064300  0.423000  1.0
  C  C318  1  0.981350  0.935700  0.077000  1.0
  C  C319  1  0.954350  0.935700  0.577000  1.0
  C  C320  1  0.018650  0.064300  0.923000  1.0
  C  C321  1  0.029090  0.041580  0.398500  1.0
  C  C322  1  0.987510  0.958420  0.101500  1.0
  C  C323  1  0.970910  0.958420  0.601500  1.0
  C  C324  1  0.012490  0.041580  0.898500  1.0
  C  C325  1  0.987610  0.038420  0.384000  1.0
  C  C326  1  0.949190  0.961580  0.116000  1.0
  C  C327  1  0.012390  0.961580  0.616000  1.0
  C  C328  1  0.050810  0.038420  0.884000  1.0
  C  C329  1  0.962680  0.057960  0.394000  1.0
  C  C330  1  0.904720  0.942040  0.106000  1.0
  C  C331  1  0.037320  0.942040  0.606000  1.0
  C  C332  1  0.095280  0.057960  0.894000  1.0
  C  C333  1  0.979140  0.080680  0.418500  1.0
  C  C334  1  0.898460  0.919320  0.081500  1.0
  C  C335  1  0.020860  0.919320  0.581500  1.0
  C  C336  1  0.101540  0.080680  0.918500  1.0
  C  C337  1  0.883000  0.062400  0.394900  1.0
  C  C338  1  0.820600  0.937600  0.105100  1.0
  C  C339  1  0.117000  0.937600  0.605100  1.0
  C  C340  1  0.179400  0.062400  0.894900  1.0
  C  C341  1  0.921000  0.057800  0.381100  1.0
  C  C342  1  0.863200  0.942200  0.118900  1.0
  C  C343  1  0.079000  0.942200  0.618900  1.0
  C  C344  1  0.136800  0.057800  0.881100  1.0
  C  C345  1  0.912700  0.052200  0.353100  1.0
  C  C346  1  0.860500  0.947800  0.146900  1.0
  C  C347  1  0.087300  0.947800  0.646900  1.0
  C  C348  1  0.139500  0.052200  0.853100  1.0
  C  C349  1  0.873700  0.052800  0.339100  1.0
  C  C350  1  0.820900  0.947200  0.160900  1.0
  C  C351  1  0.126300  0.947200  0.660900  1.0
  C  C352  1  0.179100  0.052800  0.839100  1.0
  C  C353  1  0.836500  0.059800  0.356500  1.0
  C  C354  1  0.776700  0.940200  0.143500  1.0
  C  C355  1  0.163500  0.940200  0.643500  1.0
  C  C356  1  0.223300  0.059800  0.856500  1.0
  C  C357  1  0.797800  0.059600  0.342000  1.0
  C  C358  1  0.738200  0.940400  0.158000  1.0
  C  C359  1  0.202200  0.940400  0.658000  1.0
  C  C360  1  0.261800  0.059600  0.842000  1.0
  C  C361  1  0.719090  0.059780  0.344400  1.0
  C  C362  1  0.659310  0.940220  0.155600  1.0
  C  C363  1  0.280910  0.940220  0.655600  1.0
  C  C364  1  0.340690  0.059780  0.844400  1.0
  C  C365  1  0.692900  0.074800  0.361800  1.0
  C  C366  1  0.618100  0.925200  0.138200  1.0
  C  C367  1  0.307100  0.925200  0.638200  1.0
  C  C368  1  0.381900  0.074800  0.861800  1.0
  C  C369  1  0.646280  0.069560  0.353700  1.0
  C  C370  1  0.576720  0.930440  0.146300  1.0
  C  C371  1  0.353720  0.930440  0.646300  1.0
  C  C372  1  0.423280  0.069560  0.853700  1.0
  C  C373  1  0.624860  0.049320  0.328200  1.0
  C  C374  1  0.575540  0.950680  0.171800  1.0
  C  C375  1  0.375140  0.950680  0.671800  1.0
  C  C376  1  0.424460  0.049320  0.828200  1.0
  C  C377  1  0.651580  0.034360  0.311000  1.0
  C  C378  1  0.617220  0.965640  0.189000  1.0
  C  C379  1  0.348420  0.965640  0.689000  1.0
  C  C380  1  0.382780  0.034360  0.811000  1.0
  C  C381  1  0.698150  0.039500  0.319000  1.0
  C  C382  1  0.658650  0.960500  0.181000  1.0
  C  C383  1  0.301850  0.960500  0.681000  1.0
  C  C384  1  0.341350  0.039500  0.819000  1.0
  C  C385  1  0.574840  0.044280  0.319200  1.0
  C  C386  1  0.530560  0.955720  0.180800  1.0
  C  C387  1  0.425160  0.955720  0.680800  1.0
  C  C388  1  0.469440  0.044280  0.819200  1.0
  C  C389  1  0.775030  0.990660  0.365300  1.0
  C  C390  1  0.784370  0.009340  0.134700  1.0
  C  C391  1  0.224970  0.009340  0.634700  1.0
  C  C392  1  0.215630  0.990660  0.865300  1.0
  C  C393  1  0.815420  0.990640  0.379100  1.0
  C  C394  1  0.824780  0.009360  0.120900  1.0
  C  C395  1  0.184580  0.009360  0.620900  1.0
  C  C396  1  0.175220  0.990640  0.879100  1.0
  C  C397  1  0.848210  0.980220  0.363600  1.0
  C  C398  1  0.867990  0.019780  0.136400  1.0
  C  C399  1  0.151790  0.019780  0.636400  1.0
  C  C400  1  0.132010  0.980220  0.863600  1.0
  C  C401  1  0.841280  0.969560  0.334000  1.0
  C  C402  1  0.871720  0.030440  0.166000  1.0
  C  C403  1  0.158720  0.030440  0.666000  1.0
  C  C404  1  0.128280  0.969560  0.834000  1.0
  C  C405  1  0.800600  0.969800  0.320500  1.0
  C  C406  1  0.830800  0.030200  0.179500  1.0
  C  C407  1  0.199400  0.030200  0.679500  1.0
  C  C408  1  0.169200  0.969800  0.820500  1.0
  C  C409  1  0.767810  0.980220  0.335900  1.0
  C  C410  1  0.787590  0.019780  0.164100  1.0
  C  C411  1  0.232190  0.019780  0.664100  1.0
  C  C412  1  0.212410  0.980220  0.835900  1.0
  C  C413  1  0.876100  0.957600  0.317400  1.0
  C  C414  1  0.918500  0.042400  0.182600  1.0
  C  C415  1  0.123900  0.042400  0.682600  1.0
  C  C416  1  0.081500  0.957600  0.817400  1.0
  C  C417  1  0.705500  0.995800  0.376500  1.0
  C  C418  1  0.709700  0.004200  0.123500  1.0
  C  C419  1  0.294500  0.004200  0.623500  1.0
  C  C420  1  0.290300  0.995800  0.876500  1.0
  C  C421  1  0.677900  0.011600  0.394000  1.0
  C  C422  1  0.666300  0.988400  0.106000  1.0
  C  C423  1  0.322100  0.988400  0.606000  1.0
  C  C424  1  0.333700  0.011600  0.894000  1.0
  C  C425  1  0.629550  0.000300  0.390000  1.0
  C  C426  1  0.629250  0.999700  0.110000  1.0
  C  C427  1  0.370450  0.999700  0.610000  1.0
  C  C428  1  0.370750  0.000300  0.890000  1.0
  C  C429  1  0.603100  0.017600  0.403400  1.0
  C  C430  1  0.585500  0.982400  0.096600  1.0
  C  C431  1  0.396900  0.982400  0.596600  1.0
  C  C432  1  0.414500  0.017600  0.903400  1.0
  C  C433  1  0.625000  0.046000  0.420900  1.0
  C  C434  1  0.579000  0.954000  0.079100  1.0
  C  C435  1  0.375000  0.954000  0.579100  1.0
  C  C436  1  0.421000  0.046000  0.920900  1.0
  C  C437  1  0.673350  0.057300  0.424900  1.0
  C  C438  1  0.616050  0.942700  0.075100  1.0
  C  C439  1  0.326650  0.942700  0.575100  1.0
  C  C440  1  0.383950  0.057300  0.924900  1.0
  C  C441  1  0.609800  0.084400  0.459700  1.0
  C  C442  1  0.525400  0.915600  0.040300  1.0
  C  C443  1  0.390200  0.915600  0.540300  1.0
  C  C444  1  0.474600  0.084400  0.959700  1.0
  C  C445  1  0.595900  0.066200  0.433900  1.0
  C  C446  1  0.529700  0.933800  0.066100  1.0
  C  C447  1  0.404100  0.933800  0.566100  1.0
  C  C448  1  0.470300  0.066200  0.933900  1.0
  C  C449  1  0.557600  0.065800  0.421400  1.0
  C  C450  1  0.491800  0.934200  0.078600  1.0
  C  C451  1  0.442400  0.934200  0.578600  1.0
  C  C452  1  0.508200  0.065800  0.921400  1.0
  C  C453  1  0.532800  0.084200  0.434900  1.0
  C  C454  1  0.448600  0.915800  0.065100  1.0
  C  C455  1  0.467200  0.915800  0.565100  1.0
  C  C456  1  0.551400  0.084200  0.934900  1.0
  C  C457  1  0.548300  0.101600  0.461100  1.0
  C  C458  1  0.446700  0.898400  0.038900  1.0
  C  C459  1  0.451700  0.898400  0.538900  1.0
  C  C460  1  0.553300  0.101600  0.961100  1.0
  C  C461  1  0.524000  0.121400  0.475700  1.0
  C  C462  1  0.402600  0.878600  0.024300  1.0
  C  C463  1  0.476000  0.878600  0.524300  1.0
  C  C464  1  0.597400  0.121400  0.975700  1.0
  C  C465  1  0.509950  0.155900  0.514160  1.0
  C  C466  1  0.354050  0.844100  0.985840  1.0
  C  C467  1  0.490050  0.844100  0.485840  1.0
  C  C468  1  0.645950  0.155900  0.014160  1.0
  C  C469  1  0.461340  0.144280  0.512970  1.0
  C  C470  1  0.317060  0.855720  0.987030  1.0
  C  C471  1  0.538660  0.855720  0.487030  1.0
  C  C472  1  0.682940  0.144280  0.012970  1.0
  C  C473  1  0.436030  0.161860  0.527700  1.0
  C  C474  1  0.274170  0.838140  0.972300  1.0
  C  C475  1  0.563970  0.838140  0.472300  1.0
  C  C476  1  0.725830  0.161860  0.027700  1.0
  C  C477  1  0.458660  0.191320  0.543800  1.0
  C  C478  1  0.267340  0.808680  0.956200  1.0
  C  C479  1  0.541340  0.808680  0.456200  1.0
  C  C480  1  0.732660  0.191320  0.043800  1.0
  C  C481  1  0.507450  0.202700  0.544800  1.0
  C  C482  1  0.304750  0.797300  0.955200  1.0
  C  C483  1  0.492550  0.797300  0.455200  1.0
  C  C484  1  0.695250  0.202700  0.044800  1.0
  C  C485  1  0.532910  0.185220  0.530100  1.0
  C  C486  1  0.347690  0.814780  0.969900  1.0
  C  C487  1  0.467090  0.814780  0.469900  1.0
  C  C488  1  0.652310  0.185220  0.030100  1.0
  C  C489  1  0.431280  0.209960  0.560200  1.0
  C  C490  1  0.221320  0.790040  0.939800  1.0
  C  C491  1  0.568720  0.790040  0.439800  1.0
  C  C492  1  0.778680  0.209960  0.060200  1.0
  C  C493  1  0.522400  0.055000  0.507400  1.0
  C  C494  1  0.467400  0.945000  0.992600  1.0
  C  C495  1  0.477600  0.945000  0.492600  1.0
  C  C496  1  0.532600  0.055000  0.007400  1.0
  C  C497  1  0.479390  0.044780  0.491800  1.0
  C  C498  1  0.434610  0.955220  0.008200  1.0
  C  C499  1  0.520610  0.955220  0.508200  1.0
  C  C500  1  0.565390  0.044780  0.991800  1.0
  C  C501  1  0.469380  0.020160  0.468400  1.0
  C  C502  1  0.449220  0.979840  0.031600  1.0
  C  C503  1  0.530620  0.979840  0.531600  1.0
  C  C504  1  0.550780  0.020160  0.968400  1.0
  C  C505  1  0.502020  0.005240  0.460100  1.0
  C  C506  1  0.496780  0.994760  0.039900  1.0
  C  C507  1  0.497980  0.994760  0.539900  1.0
  C  C508  1  0.503220  0.005240  0.960100  1.0
  C  C509  1  0.544950  0.015700  0.476100  1.0
  C  C510  1  0.529250  0.984300  0.023900  1.0
  C  C511  1  0.455050  0.984300  0.523900  1.0
  C  C512  1  0.470750  0.015700  0.976100  1.0
  C  C513  1  0.555160  0.040320  0.499500  1.0
  C  C514  1  0.514840  0.959680  0.000500  1.0
  C  C515  1  0.444840  0.959680  0.500500  1.0
  C  C516  1  0.485160  0.040320  0.999500  1.0
  C  C517  1  0.491480  0.979160  0.434500  1.0
  C  C518  1  0.512320  0.020840  0.065500  1.0
  C  C519  1  0.508520  0.020840  0.565500  1.0
  C  C520  1  0.487680  0.979160  0.934500  1.0
  C  C521  1  0.508000  0.090400  0.547200  1.0
  C  C522  1  0.417600  0.909600  0.952800  1.0
  C  C523  1  0.492000  0.909600  0.452800  1.0
  C  C524  1  0.582400  0.090400  0.047200  1.0
  C  C525  1  0.522980  0.120760  0.567600  1.0
  C  C526  1  0.402220  0.879240  0.932400  1.0
  C  C527  1  0.477020  0.879240  0.432400  1.0
  C  C528  1  0.597780  0.120760  0.067600  1.0
  C  C529  1  0.493830  0.129060  0.587600  1.0
  C  C530  1  0.364770  0.870940  0.912400  1.0
  C  C531  1  0.506170  0.870940  0.412400  1.0
  C  C532  1  0.635230  0.129060  0.087600  1.0
  C  C533  1  0.507900  0.158000  0.605300  1.0
  C  C534  1  0.349900  0.842000  0.894700  1.0
  C  C535  1  0.492100  0.842000  0.394700  1.0
  C  C536  1  0.650100  0.158000  0.105300  1.0
  C  C537  1  0.551230  0.178660  0.602900  1.0
  C  C538  1  0.372570  0.821340  0.897100  1.0
  C  C539  1  0.448770  0.821340  0.397100  1.0
  C  C540  1  0.627430  0.178660  0.102900  1.0
  C  C541  1  0.580290  0.170380  0.582900  1.0
  C  C542  1  0.409910  0.829620  0.917100  1.0
  C  C543  1  0.419710  0.829620  0.417100  1.0
  C  C544  1  0.590090  0.170380  0.082900  1.0
  C  C545  1  0.611400  0.224400  0.632700  1.0
  C  C546  1  0.387000  0.775600  0.867300  1.0
  C  C547  1  0.388600  0.775600  0.367300  1.0
  C  C548  1  0.613000  0.224400  0.132700  1.0
  C  C549  1  0.566400  0.209600  0.620400  1.0
  C  C550  1  0.356800  0.790400  0.879600  1.0
  C  C551  1  0.433600  0.790400  0.379600  1.0
  C  C552  1  0.643200  0.209600  0.120400  1.0
  C  C553  1  0.536200  0.227200  0.624000  1.0
  C  C554  1  0.309000  0.772800  0.876000  1.0
  C  C555  1  0.463800  0.772800  0.376000  1.0
  C  C556  1  0.691000  0.227200  0.124000  1.0
  C  C557  1  0.551800  0.256000  0.638200  1.0
  C  C558  1  0.295800  0.744000  0.861800  1.0
  C  C559  1  0.448200  0.744000  0.361800  1.0
  C  C560  1  0.704200  0.256000  0.138200  1.0
  C  C561  1  0.597700  0.269400  0.649900  1.0
  C  C562  1  0.328300  0.730600  0.850100  1.0
  C  C563  1  0.402300  0.730600  0.350100  1.0
  C  C564  1  0.671700  0.269400  0.149900  1.0
  C  C565  1  0.615400  0.300000  0.665500  1.0
  C  C566  1  0.315400  0.700000  0.834500  1.0
  C  C567  1  0.384600  0.700000  0.334500  1.0
  C  C568  1  0.684600  0.300000  0.165500  1.0
  C  C569  1  0.672690  0.342980  0.693290  1.0
  C  C570  1  0.329710  0.657020  0.806710  1.0
  C  C571  1  0.327310  0.657020  0.306710  1.0
  C  C572  1  0.670290  0.342980  0.193290  1.0
  C  C573  1  0.641870  0.353540  0.710610  1.0
  C  C574  1  0.288330  0.646460  0.789390  1.0
  C  C575  1  0.358130  0.646460  0.289390  1.0
  C  C576  1  0.711670  0.353540  0.210610  1.0
  C  C577  1  0.657690  0.381980  0.729400  1.0
  C  C578  1  0.275710  0.618020  0.770600  1.0
  C  C579  1  0.342310  0.618020  0.270600  1.0
  C  C580  1  0.724290  0.381980  0.229400  1.0
  C  C581  1  0.704410  0.400420  0.731300  1.0
  C  C582  1  0.303990  0.599580  0.768700  1.0
  C  C583  1  0.295590  0.599580  0.268700  1.0
  C  C584  1  0.696010  0.400420  0.231300  1.0
  C  C585  1  0.734970  0.389540  0.713700  1.0
  C  C586  1  0.345430  0.610460  0.786300  1.0
  C  C587  1  0.265030  0.610460  0.286300  1.0
  C  C588  1  0.654570  0.389540  0.213700  1.0
  C  C589  1  0.719360  0.361120  0.694900  1.0
  C  C590  1  0.358240  0.638880  0.805100  1.0
  C  C591  1  0.280640  0.638880  0.305100  1.0
  C  C592  1  0.641760  0.361120  0.194900  1.0
  C  C593  1  0.721600  0.430800  0.752100  1.0
  C  C594  1  0.290800  0.569200  0.747900  1.0
  C  C595  1  0.278400  0.569200  0.247900  1.0
  C  C596  1  0.709200  0.430800  0.252100  1.0
  C  C597  1  0.593440  0.248880  0.712090  1.0
  C  C598  1  0.344560  0.751120  0.787910  1.0
  C  C599  1  0.406560  0.751120  0.287910  1.0
  C  C600  1  0.655440  0.248880  0.212090  1.0
  C  C601  1  0.585530  0.218260  0.699600  1.0
  C  C602  1  0.367270  0.781740  0.800400  1.0
  C  C603  1  0.414470  0.781740  0.300400  1.0
  C  C604  1  0.632730  0.218260  0.199600  1.0
  C  C605  1  0.540040  0.198280  0.692800  1.0
  C  C606  1  0.341760  0.801720  0.807200  1.0
  C  C607  1  0.459960  0.801720  0.307200  1.0
  C  C608  1  0.658240  0.198280  0.192800  1.0
  C  C609  1  0.501580  0.208360  0.698300  1.0
  C  C610  1  0.293220  0.791640  0.801700  1.0
  C  C611  1  0.498420  0.791640  0.301700  1.0
  C  C612  1  0.706780  0.208360  0.198300  1.0
  C  C613  1  0.510090  0.239180  0.710800  1.0
  C  C614  1  0.270910  0.760820  0.789200  1.0
  C  C615  1  0.489910  0.760820  0.289200  1.0
  C  C616  1  0.729090  0.239180  0.210800  1.0
  C  C617  1  0.555440  0.259280  0.717660  1.0
  C  C618  1  0.296160  0.740720  0.782340  1.0
  C  C619  1  0.444560  0.740720  0.282340  1.0
  C  C620  1  0.703840  0.259280  0.217660  1.0
  C  C621  1  0.452490  0.186580  0.691500  1.0
  C  C622  1  0.265910  0.813420  0.808500  1.0
  C  C623  1  0.547510  0.813420  0.308500  1.0
  C  C624  1  0.734090  0.186580  0.191500  1.0
  C  C625  1  0.654000  0.289200  0.737300  1.0
  C  C626  1  0.364800  0.710800  0.762700  1.0
  C  C627  1  0.346000  0.710800  0.262700  1.0
  C  C628  1  0.635200  0.289200  0.237300  1.0
  C  C629  1  0.701090  0.310980  0.743700  1.0
  C  C630  1  0.390110  0.689020  0.756300  1.0
  C  C631  1  0.298910  0.689020  0.256300  1.0
  C  C632  1  0.609890  0.310980  0.243700  1.0
  C  C633  1  0.717380  0.334560  0.767600  1.0
  C  C634  1  0.382820  0.665440  0.732400  1.0
  C  C635  1  0.282620  0.665440  0.232400  1.0
  C  C636  1  0.617180  0.334560  0.267600  1.0
  C  C637  1  0.763510  0.353420  0.770600  1.0
  C  C638  1  0.410090  0.646580  0.729400  1.0
  C  C639  1  0.236490  0.646580  0.229400  1.0
  C  C640  1  0.589910  0.353420  0.270600  1.0
  C  C641  1  0.793360  0.348720  0.749600  1.0
  C  C642  1  0.444640  0.651280  0.750400  1.0
  C  C643  1  0.206640  0.651280  0.250400  1.0
  C  C644  1  0.555360  0.348720  0.249600  1.0
  C  C645  1  0.777060  0.325120  0.725700  1.0
  C  C646  1  0.451940  0.674880  0.774300  1.0
  C  C647  1  0.222940  0.674880  0.274300  1.0
  C  C648  1  0.548060  0.325120  0.225700  1.0
  C  C649  1  0.876990  0.355980  0.745000  1.0
  C  C650  1  0.521010  0.644020  0.755000  1.0
  C  C651  1  0.123010  0.644020  0.255000  1.0
  C  C652  1  0.478990  0.355980  0.245000  1.0
  C  C653  1  0.841620  0.368240  0.752600  1.0
  C  C654  1  0.473380  0.631760  0.747400  1.0
  C  C655  1  0.158380  0.631760  0.247400  1.0
  C  C656  1  0.526620  0.368240  0.252600  1.0
  C  C657  1  0.851680  0.399560  0.760100  1.0
  C  C658  1  0.452120  0.600440  0.739900  1.0
  C  C659  1  0.148320  0.600440  0.239900  1.0
  C  C660  1  0.547880  0.399560  0.260100  1.0
  C  C661  1  0.897120  0.418640  0.760000  1.0
  C  C662  1  0.478480  0.581360  0.740000  1.0
  C  C663  1  0.102880  0.581360  0.240000  1.0
  C  C664  1  0.521520  0.418640  0.260000  1.0
  C  C665  1  0.932400  0.406400  0.752300  1.0
  C  C666  1  0.526000  0.593600  0.747700  1.0
  C  C667  1  0.067600  0.593600  0.247700  1.0
  C  C668  1  0.474000  0.406400  0.252300  1.0
  C  C669  1  0.979900  0.424400  0.751200  1.0
  C  C670  1  0.555500  0.575600  0.748800  1.0
  C  C671  1  0.020100  0.575600  0.248800  1.0
  C  C672  1  0.444500  0.424400  0.251200  1.0
  C  C673  1  0.059120  0.432440  0.745130  1.0
  C  C674  1  0.626680  0.567560  0.754870  1.0
  C  C675  1  0.940880  0.567560  0.254870  1.0
  C  C676  1  0.373320  0.432440  0.245130  1.0
  C  C677  1  0.074450  0.460100  0.765110  1.0
  C  C678  1  0.614350  0.539900  0.734890  1.0
  C  C679  1  0.925550  0.539900  0.234890  1.0
  C  C680  1  0.385650  0.460100  0.265110  1.0
  C  C681  1  0.121280  0.478160  0.767700  1.0
  C  C682  1  0.643120  0.521840  0.732300  1.0
  C  C683  1  0.878720  0.521840  0.232300  1.0
  C  C684  1  0.356880  0.478160  0.267700  1.0
  C  C685  1  0.153700  0.469000  0.750500  1.0
  C  C686  1  0.684700  0.531000  0.749500  1.0
  C  C687  1  0.846300  0.531000  0.249500  1.0
  C  C688  1  0.315300  0.469000  0.250500  1.0
  C  C689  1  0.137700  0.441200  0.730490  1.0
  C  C690  1  0.696500  0.558800  0.769510  1.0
  C  C691  1  0.862300  0.558800  0.269510  1.0
  C  C692  1  0.303500  0.441200  0.230490  1.0
  C  C693  1  0.090920  0.423040  0.727790  1.0
  C  C694  1  0.667880  0.576960  0.772210  1.0
  C  C695  1  0.909080  0.576960  0.272210  1.0
  C  C696  1  0.332120  0.423040  0.227790  1.0
  C  C697  1  0.204390  0.488180  0.753830  1.0
  C  C698  1  0.716210  0.511820  0.746170  1.0
  C  C699  1  0.795610  0.511820  0.246170  1.0
  C  C700  1  0.283790  0.488180  0.253830  1.0
  C  C701  1  0.317640  0.414680  0.507980  1.0
  C  C702  1  0.902960  0.585320  0.992020  1.0
  C  C703  1  0.682360  0.585320  0.492020  1.0
  C  C704  1  0.097040  0.414680  0.007980  1.0
  C  C705  1  0.304930  0.404860  0.478920  1.0
  C  C706  1  0.900070  0.595140  0.021080  1.0
  C  C707  1  0.695070  0.595140  0.521080  1.0
  C  C708  1  0.099930  0.404860  0.978920  1.0
  C  C709  1  0.334870  0.394940  0.460350  1.0
  C  C710  1  0.939930  0.605060  0.039650  1.0
  C  C711  1  0.665130  0.605060  0.539650  1.0
  C  C712  1  0.060070  0.394940  0.960350  1.0
  C  C713  1  0.378130  0.394660  0.470300  1.0
  C  C714  1  0.983470  0.605340  0.029700  1.0
  C  C715  1  0.621870  0.605340  0.529700  1.0
  C  C716  1  0.016530  0.394660  0.970300  1.0
  C  C717  1  0.390360  0.404520  0.499600  1.0
  C  C718  1  0.985840  0.595480  0.000400  1.0
  C  C719  1  0.609640  0.595480  0.500400  1.0
  C  C720  1  0.014160  0.404520  0.999600  1.0
  C  C721  1  0.360530  0.414460  0.518270  1.0
  C  C722  1  0.946070  0.585540  0.981730  1.0
  C  C723  1  0.639470  0.585540  0.481730  1.0
  C  C724  1  0.053930  0.414460  0.018270  1.0
  C  C725  1  0.410830  0.384660  0.450200  1.0
  C  C726  1  0.026170  0.615340  0.049800  1.0
  C  C727  1  0.589170  0.615340  0.549800  1.0
  C  C728  1  0.973830  0.384660  0.950200  1.0
  C  C729  1  0.302800  0.447600  0.546900  1.0
  C  C730  1  0.855200  0.552400  0.953100  1.0
  C  C731  1  0.697200  0.552400  0.453100  1.0
  C  C732  1  0.144800  0.447600  0.046900  1.0
  C  C733  1  0.270400  0.455800  0.567700  1.0
  C  C734  1  0.814600  0.544200  0.932300  1.0
  C  C735  1  0.729600  0.544200  0.432300  1.0
  C  C736  1  0.185400  0.455800  0.067700  1.0
  C  C737  1  0.289300  0.482000  0.588900  1.0
  C  C738  1  0.807300  0.518000  0.911100  1.0
  C  C739  1  0.710700  0.518000  0.411100  1.0
  C  C740  1  0.192700  0.482000  0.088900  1.0
  C  C741  1  0.258400  0.488200  0.609500  1.0
  C  C742  1  0.770200  0.511800  0.890500  1.0
  C  C743  1  0.741600  0.511800  0.390500  1.0
  C  C744  1  0.229800  0.488200  0.109500  1.0
  C  C745  1  0.213600  0.470200  0.608400  1.0
  C  C746  1  0.743400  0.529800  0.891600  1.0
  C  C747  1  0.786400  0.529800  0.391600  1.0
  C  C748  1  0.256600  0.470200  0.108400  1.0
  C  C749  1  0.200500  0.445600  0.585400  1.0
  C  C750  1  0.754900  0.554400  0.914600  1.0
  C  C751  1  0.799500  0.554400  0.414600  1.0
  C  C752  1  0.245100  0.445600  0.085400  1.0
  C  C753  1  0.135000  0.470800  0.625500  1.0
  C  C754  1  0.664200  0.529200  0.874500  1.0
  C  C755  1  0.865000  0.529200  0.374500  1.0
  C  C756  1  0.335800  0.470800  0.125500  1.0
  C  C757  1  0.181200  0.475400  0.630100  1.0
  C  C758  1  0.705800  0.524600  0.869900  1.0
  C  C759  1  0.818800  0.524600  0.369900  1.0
  C  C760  1  0.294200  0.475400  0.130100  1.0
  C  C761  1  0.197900  0.485400  0.659500  1.0
  C  C762  1  0.712500  0.514600  0.840500  1.0
  C  C763  1  0.802100  0.514600  0.340500  1.0
  C  C764  1  0.287500  0.485400  0.159500  1.0
  C  C765  1  0.166400  0.488600  0.678200  1.0
  C  C766  1  0.677800  0.511400  0.821800  1.0
  C  C767  1  0.833600  0.511400  0.321800  1.0
  C  C768  1  0.322200  0.488600  0.178200  1.0
  C  C769  1  0.122400  0.482600  0.670700  1.0
  C  C770  1  0.639800  0.517400  0.829300  1.0
  C  C771  1  0.877600  0.517400  0.329300  1.0
  C  C772  1  0.360200  0.482600  0.170700  1.0
  C  C773  1  0.086900  0.486000  0.692300  1.0
  C  C774  1  0.600900  0.514000  0.807700  1.0
  C  C775  1  0.913100  0.514000  0.307700  1.0
  C  C776  1  0.399100  0.486000  0.192300  1.0
  C  C777  1  0.012680  0.483960  0.705100  1.0
  C  C778  1  0.528720  0.516040  0.794900  1.0
  C  C779  1  0.987320  0.516040  0.294900  1.0
  C  C780  1  0.471280  0.483960  0.205100  1.0
  C  C781  1  0.027280  0.506760  0.729930  1.0
  C  C782  1  0.520520  0.493240  0.770070  1.0
  C  C783  1  0.972720  0.493240  0.270070  1.0
  C  C784  1  0.479480  0.506760  0.229930  1.0
  C  C785  1  0.995000  0.512000  0.749220  1.0
  C  C786  1  0.483000  0.488000  0.750780  1.0
  C  C787  1  0.005000  0.488000  0.250780  1.0
  C  C788  1  0.517000  0.512000  0.249220  1.0
  C  C789  1  0.947650  0.494700  0.744200  1.0
  C  C790  1  0.452950  0.505300  0.755800  1.0
  C  C791  1  0.052350  0.505300  0.255800  1.0
  C  C792  1  0.547050  0.494700  0.244200  1.0
  C  C793  1  0.933510  0.471820  0.719200  1.0
  C  C794  1  0.461690  0.528180  0.780800  1.0
  C  C795  1  0.066490  0.528180  0.280800  1.0
  C  C796  1  0.538310  0.471820  0.219200  1.0
  C  C797  1  0.965640  0.466480  0.699800  1.0
  C  C798  1  0.499160  0.533520  0.800200  1.0
  C  C799  1  0.034360  0.533520  0.300200  1.0
  C  C800  1  0.500840  0.466480  0.199800  1.0
  C  C801  1  0.912750  0.500900  0.764700  1.0
  C  C802  1  0.411850  0.499100  0.735300  1.0
  C  C803  1  0.087250  0.499100  0.235300  1.0
  C  C804  1  0.588150  0.500900  0.264700  1.0
  C  C805  1  0.108810  0.545020  0.661600  1.0
  C  C806  1  0.563790  0.454980  0.838400  1.0
  C  C807  1  0.891190  0.454980  0.338400  1.0
  C  C808  1  0.436210  0.545020  0.161600  1.0
  C  C809  1  0.138600  0.544200  0.639700  1.0
  C  C810  1  0.594400  0.455800  0.860300  1.0
  C  C811  1  0.861400  0.455800  0.360300  1.0
  C  C812  1  0.405600  0.544200  0.139700  1.0
  C  C813  1  0.185890  0.561180  0.644700  1.0
  C  C814  1  0.624710  0.438820  0.855300  1.0
  C  C815  1  0.814110  0.438820  0.355300  1.0
  C  C816  1  0.375290  0.561180  0.144700  1.0
  C  C817  1  0.204450  0.579300  0.671700  1.0
  C  C818  1  0.625150  0.420700  0.828300  1.0
  C  C819  1  0.795550  0.420700  0.328300  1.0
  C  C820  1  0.374850  0.579300  0.171700  1.0
  C  C821  1  0.174100  0.579800  0.693500  1.0
  C  C822  1  0.594300  0.420200  0.806500  1.0
  C  C823  1  0.825900  0.420200  0.306500  1.0
  C  C824  1  0.405700  0.579800  0.193500  1.0
  C  C825  1  0.126740  0.562880  0.688500  1.0
  C  C826  1  0.563860  0.437120  0.811500  1.0
  C  C827  1  0.873260  0.437120  0.311500  1.0
  C  C828  1  0.436140  0.562880  0.188500  1.0
  C  C829  1  0.255290  0.598180  0.676900  1.0
  C  C830  1  0.657110  0.401820  0.823100  1.0
  C  C831  1  0.744710  0.401820  0.323100  1.0
  C  C832  1  0.342890  0.598180  0.176900  1.0
  C  C833  1  0.031200  0.541200  0.662600  1.0
  C  C834  1  0.490000  0.458800  0.837400  1.0
  C  C835  1  0.968800  0.458800  0.337400  1.0
  C  C836  1  0.510000  0.541200  0.162600  1.0
  C  C837  1  0.981060  0.524120  0.658700  1.0
  C  C838  1  0.456940  0.475880  0.841300  1.0
  C  C839  1  0.018940  0.475880  0.341300  1.0
  C  C840  1  0.543060  0.524120  0.158700  1.0
  C  C841  1  0.948550  0.536700  0.671400  1.0
  C  C842  1  0.411850  0.463300  0.828600  1.0
  C  C843  1  0.051450  0.463300  0.328600  1.0
  C  C844  1  0.588150  0.536700  0.171400  1.0
  C  C845  1  0.901680  0.519160  0.669000  1.0
  C  C846  1  0.382520  0.480840  0.831000  1.0
  C  C847  1  0.098320  0.480840  0.331000  1.0
  C  C848  1  0.617480  0.519160  0.169000  1.0
  C  C849  1  0.887430  0.489060  0.653900  1.0
  C  C850  1  0.398370  0.510940  0.846100  1.0
  C  C851  1  0.112570  0.510940  0.346100  1.0
  C  C852  1  0.601630  0.489060  0.153900  1.0
  C  C853  1  0.920040  0.476480  0.641200  1.0
  C  C854  1  0.443560  0.523520  0.858800  1.0
  C  C855  1  0.079960  0.523520  0.358800  1.0
  C  C856  1  0.556440  0.476480  0.141200  1.0
  C  C857  1  0.812000  0.447200  0.630200  1.0
  C  C858  1  0.364800  0.552800  0.869800  1.0
  C  C859  1  0.188000  0.552800  0.369800  1.0
  C  C860  1  0.635200  0.447200  0.130200  1.0
  C  C861  1  0.839600  0.470000  0.654500  1.0
  C  C862  1  0.369600  0.530000  0.845500  1.0
  C  C863  1  0.160400  0.530000  0.345500  1.0
  C  C864  1  0.630400  0.470000  0.154500  1.0
  C  C865  1  0.814600  0.471400  0.679000  1.0
  C  C866  1  0.343200  0.528600  0.821000  1.0
  C  C867  1  0.185400  0.528600  0.321000  1.0
  C  C868  1  0.656800  0.471400  0.179000  1.0
  C  C869  1  0.769700  0.450400  0.678400  1.0
  C  C870  1  0.319300  0.549600  0.821600  1.0
  C  C871  1  0.230300  0.549600  0.321600  1.0
  C  C872  1  0.680700  0.450400  0.178400  1.0
  C  C873  1  0.748600  0.431600  0.653500  1.0
  C  C874  1  0.317000  0.568400  0.846500  1.0
  C  C875  1  0.251400  0.568400  0.346500  1.0
  C  C876  1  0.683000  0.431600  0.153500  1.0
  C  C877  1  0.705800  0.410200  0.652300  1.0
  C  C878  1  0.295600  0.589800  0.847700  1.0
  C  C879  1  0.294200  0.589800  0.347700  1.0
  C  C880  1  0.704400  0.410200  0.152300  1.0
  C  C881  1  0.635320  0.370840  0.630500  1.0
  C  C882  1  0.264480  0.629160  0.869500  1.0
  C  C883  1  0.364680  0.629160  0.369500  1.0
  C  C884  1  0.735520  0.370840  0.130500  1.0
  C  C885  1  0.600580  0.380560  0.644260  1.0
  C  C886  1  0.220020  0.619440  0.855740  1.0
  C  C887  1  0.399420  0.619440  0.355740  1.0
  C  C888  1  0.779980  0.380560  0.144260  1.0
  C  C889  1  0.554200  0.361600  0.639900  1.0
  C  C890  1  0.192600  0.638400  0.860100  1.0
  C  C891  1  0.445800  0.638400  0.360100  1.0
  C  C892  1  0.807400  0.361600  0.139900  1.0
  C  C893  1  0.541520  0.332640  0.621700  1.0
  C  C894  1  0.208880  0.667360  0.878300  1.0
  C  C895  1  0.458480  0.667360  0.378300  1.0
  C  C896  1  0.791120  0.332640  0.121700  1.0
  C  C897  1  0.576790  0.323180  0.608100  1.0
  C  C898  1  0.253610  0.676820  0.891900  1.0
  C  C899  1  0.423210  0.676820  0.391900  1.0
  C  C900  1  0.746390  0.323180  0.108100  1.0
  C  C901  1  0.623300  0.342000  0.612400  1.0
  C  C902  1  0.281300  0.658000  0.887600  1.0
  C  C903  1  0.376700  0.658000  0.387600  1.0
  C  C904  1  0.718700  0.342000  0.112400  1.0
  C  C905  1  0.491280  0.312560  0.616400  1.0
  C  C906  1  0.178720  0.687440  0.883600  1.0
  C  C907  1  0.508720  0.687440  0.383600  1.0
  C  C908  1  0.821280  0.312560  0.116400  1.0
  C  C909  1  0.697370  0.469140  0.621960  1.0
  C  C910  1  0.228230  0.530860  0.878040  1.0
  C  C911  1  0.302630  0.530860  0.378040  1.0
  C  C912  1  0.771770  0.469140  0.121960  1.0
  C  C913  1  0.741920  0.488840  0.620000  1.0
  C  C914  1  0.253080  0.511160  0.880000  1.0
  C  C915  1  0.258080  0.511160  0.380000  1.0
  C  C916  1  0.746920  0.488840  0.120000  1.0
  C  C917  1  0.758240  0.517480  0.638400  1.0
  C  C918  1  0.240760  0.482520  0.861600  1.0
  C  C919  1  0.241760  0.482520  0.361600  1.0
  C  C920  1  0.759240  0.517480  0.138400  1.0
  C  C921  1  0.730620  0.527040  0.659200  1.0
  C  C922  1  0.203580  0.472960  0.840800  1.0
  C  C923  1  0.269380  0.472960  0.340800  1.0
  C  C924  1  0.796420  0.527040  0.159200  1.0
  C  C925  1  0.686080  0.506960  0.661000  1.0
  C  C926  1  0.179120  0.493040  0.839000  1.0
  C  C927  1  0.313920  0.493040  0.339000  1.0
  C  C928  1  0.820880  0.506960  0.161000  1.0
  C  C929  1  0.669540  0.478280  0.642600  1.0
  C  C930  1  0.191260  0.521720  0.857400  1.0
  C  C931  1  0.330460  0.521720  0.357400  1.0
  C  C932  1  0.808740  0.478280  0.142600  1.0
  C  C933  1  0.748020  0.558240  0.678600  1.0
  C  C934  1  0.189780  0.441760  0.821400  1.0
  C  C935  1  0.251980  0.441760  0.321400  1.0
  C  C936  1  0.810220  0.558240  0.178600  1.0
  C  C937  1  0.633100  0.429400  0.593800  1.0
  C  C938  1  0.203700  0.570600  0.906200  1.0
  C  C939  1  0.366900  0.570600  0.406200  1.0
  C  C940  1  0.796300  0.429400  0.093800  1.0
  C  C941  1  0.613400  0.399400  0.573500  1.0
  C  C942  1  0.214000  0.600600  0.926500  1.0
  C  C943  1  0.386600  0.600600  0.426500  1.0
  C  C944  1  0.786000  0.399400  0.073500  1.0
  C  C945  1  0.565880  0.386560  0.565800  1.0
  C  C946  1  0.179320  0.613440  0.934200  1.0
  C  C947  1  0.434120  0.613440  0.434200  1.0
  C  C948  1  0.820680  0.386560  0.065800  1.0
  C  C949  1  0.548100  0.357200  0.549200  1.0
  C  C950  1  0.190900  0.642800  0.950800  1.0
  C  C951  1  0.451900  0.642800  0.450800  1.0
  C  C952  1  0.809100  0.357200  0.049200  1.0
  C  C953  1  0.577960  0.340720  0.540100  1.0
  C  C954  1  0.237240  0.659280  0.959900  1.0
  C  C955  1  0.422040  0.659280  0.459900  1.0
  C  C956  1  0.762760  0.340720  0.040100  1.0
  C  C957  1  0.625490  0.353580  0.547800  1.0
  C  C958  1  0.271910  0.646420  0.952200  1.0
  C  C959  1  0.374510  0.646420  0.452200  1.0
  C  C960  1  0.728090  0.353580  0.047800  1.0
  C  C961  1  0.581840  0.301680  0.501400  1.0
  C  C962  1  0.280160  0.698320  0.998600  1.0
  C  C963  1  0.418160  0.698320  0.498600  1.0
  C  C964  1  0.719840  0.301680  0.001400  1.0
  C  C965  1  0.556070  0.311140  0.523100  1.0
  C  C966  1  0.244930  0.688860  0.976900  1.0
  C  C967  1  0.443930  0.688860  0.476900  1.0
  C  C968  1  0.755070  0.311140  0.023100  1.0
  C  C969  1  0.514890  0.290780  0.529000  1.0
  C  C970  1  0.224110  0.709220  0.971000  1.0
  C  C971  1  0.485110  0.709220  0.471000  1.0
  C  C972  1  0.775890  0.290780  0.029000  1.0
  C  C973  1  0.499480  0.260960  0.513100  1.0
  C  C974  1  0.238520  0.739040  0.986900  1.0
  C  C975  1  0.500520  0.739040  0.486900  1.0
  C  C976  1  0.761480  0.260960  0.013100  1.0
  C  C977  1  0.525150  0.251500  0.491500  1.0
  C  C978  1  0.273650  0.748500  0.008500  1.0
  C  C979  1  0.474850  0.748500  0.508500  1.0
  C  C980  1  0.726350  0.251500  0.991500  1.0
  C  C981  1  0.509900  0.221400  0.475800  1.0
  C  C982  1  0.288500  0.778600  0.024200  1.0
  C  C983  1  0.490100  0.778600  0.524200  1.0
  C  C984  1  0.711500  0.221400  0.975800  1.0
  C  C985  1  0.511080  0.183560  0.436800  1.0
  C  C986  1  0.327520  0.816440  0.063200  1.0
  C  C987  1  0.488920  0.816440  0.563200  1.0
  C  C988  1  0.672480  0.183560  0.936800  1.0
  C  C989  1  0.463080  0.169960  0.430200  1.0
  C  C990  1  0.293120  0.830040  0.069800  1.0
  C  C991  1  0.536920  0.830040  0.569800  1.0
  C  C992  1  0.706880  0.169960  0.930200  1.0
  C  C993  1  0.445780  0.142160  0.410500  1.0
  C  C994  1  0.303620  0.857840  0.089500  1.0
  C  C995  1  0.554220  0.857840  0.589500  1.0
  C  C996  1  0.696380  0.142160  0.910500  1.0
  C  C997  1  0.475920  0.127440  0.397000  1.0
  C  C998  1  0.348480  0.872560  0.103000  1.0
  C  C999  1  0.524080  0.872560  0.603000  1.0
  C  C1000  1  0.651520  0.127440  0.897000  1.0
  C  C1001  1  0.523970  0.141340  0.403800  1.0
  C  C1002  1  0.382630  0.858660  0.096200  1.0
  C  C1003  1  0.476030  0.858660  0.596200  1.0
  C  C1004  1  0.617370  0.141340  0.903800  1.0
  C  C1005  1  0.541450  0.169100  0.423500  1.0
  C  C1006  1  0.372350  0.830900  0.076500  1.0
  C  C1007  1  0.458550  0.830900  0.576500  1.0
  C  C1008  1  0.627650  0.169100  0.923500  1.0
  C  C1009  1  0.457120  0.097840  0.375200  1.0
  C  C1010  1  0.359280  0.902160  0.124800  1.0
  C  C1011  1  0.542880  0.902160  0.624800  1.0
  C  C1012  1  0.640720  0.097840  0.875200  1.0
  C  C1013  1  0.490140  0.271080  0.436600  1.0
  C  C1014  1  0.219060  0.728920  0.063400  1.0
  C  C1015  1  0.509860  0.728920  0.563400  1.0
  C  C1016  1  0.780940  0.271080  0.936600  1.0
  C  C1017  1  0.444720  0.254040  0.440530  1.0
  C  C1018  1  0.190680  0.745960  0.059470  1.0
  C  C1019  1  0.555280  0.745960  0.559470  1.0
  C  C1020  1  0.809320  0.254040  0.940530  1.0
  C  C1021  1  0.415370  0.268340  0.455400  1.0
  C  C1022  1  0.147030  0.731660  0.044600  1.0
  C  C1023  1  0.584630  0.731660  0.544600  1.0
  C  C1024  1  0.852970  0.268340  0.955400  1.0
  C  C1025  1  0.430680  0.299760  0.466800  1.0
  C  C1026  1  0.130920  0.700240  0.033200  1.0
  C  C1027  1  0.569320  0.700240  0.533200  1.0
  C  C1028  1  0.869080  0.299760  0.966800  1.0
  C  C1029  1  0.476390  0.316580  0.462600  1.0
  C  C1030  1  0.159810  0.683420  0.037400  1.0
  C  C1031  1  0.523610  0.683420  0.537400  1.0
  C  C1032  1  0.840190  0.316580  0.962600  1.0
  C  C1033  1  0.505910  0.302420  0.447700  1.0
  C  C1034  1  0.203490  0.697580  0.052300  1.0
  C  C1035  1  0.494090  0.697580  0.552300  1.0
  C  C1036  1  0.796510  0.302420  0.947700  1.0
  C  C1037  1  0.399390  0.314980  0.483500  1.0
  C  C1038  1  0.084410  0.685020  0.016500  1.0
  C  C1039  1  0.600610  0.685020  0.516500  1.0
  C  C1040  1  0.915590  0.314980  0.983500  1.0
  C  C1041  1  0.505600  0.238400  0.398100  1.0
  C  C1042  1  0.267200  0.761600  0.101900  1.0
  C  C1043  1  0.494400  0.761600  0.601900  1.0
  C  C1044  1  0.732800  0.238400  0.898100  1.0
  C  C1045  1  0.530300  0.221200  0.381800  1.0
  C  C1046  1  0.309100  0.778800  0.118200  1.0
  C  C1047  1  0.469700  0.778800  0.618200  1.0
  C  C1048  1  0.690900  0.221200  0.881800  1.0
  C  C1049  1  0.514540  0.199280  0.356700  1.0
  C  C1050  1  0.315260  0.800720  0.143300  1.0
  C  C1051  1  0.485460  0.800720  0.643300  1.0
  C  C1052  1  0.684740  0.199280  0.856700  1.0
  C  C1053  1  0.543630  0.184060  0.343300  1.0
  C  C1054  1  0.359570  0.815940  0.156700  1.0
  C  C1055  1  0.456370  0.815940  0.656700  1.0
  C  C1056  1  0.640430  0.184060  0.843300  1.0
  C  C1057  1  0.588670  0.190740  0.355100  1.0
  C  C1058  1  0.397930  0.809260  0.144900  1.0
  C  C1059  1  0.411330  0.809260  0.644900  1.0
  C  C1060  1  0.602070  0.190740  0.855100  1.0
  C  C1061  1  0.604420  0.212640  0.380200  1.0
  C  C1062  1  0.391780  0.787360  0.119800  1.0
  C  C1063  1  0.395580  0.787360  0.619800  1.0
  C  C1064  1  0.608220  0.212640  0.880200  1.0
  C  C1065  1  0.667220  0.188440  0.344600  1.0
  C  C1066  1  0.478780  0.811560  0.155400  1.0
  C  C1067  1  0.332780  0.811560  0.655400  1.0
  C  C1068  1  0.521220  0.188440  0.844600  1.0
  C  C1069  1  0.619380  0.173760  0.342900  1.0
  C  C1070  1  0.445620  0.826240  0.157100  1.0
  C  C1071  1  0.380620  0.826240  0.657100  1.0
  C  C1072  1  0.554380  0.173760  0.842900  1.0
  C  C1073  1  0.601050  0.142900  0.330400  1.0
  C  C1074  1  0.458150  0.857100  0.169600  1.0
  C  C1075  1  0.398950  0.857100  0.669600  1.0
  C  C1076  1  0.541850  0.142900  0.830400  1.0
  C  C1077  1  0.630570  0.126740  0.319700  1.0
  C  C1078  1  0.503830  0.873260  0.180300  1.0
  C  C1079  1  0.369430  0.873260  0.680300  1.0
  C  C1080  1  0.496170  0.126740  0.819700  1.0
  C  C1081  1  0.678420  0.141440  0.321500  1.0
  C  C1082  1  0.536980  0.858560  0.178500  1.0
  C  C1083  1  0.321580  0.858560  0.678500  1.0
  C  C1084  1  0.463020  0.141440  0.821500  1.0
  C  C1085  1  0.709800  0.123200  0.312700  1.0
  C  C1086  1  0.586600  0.876800  0.187300  1.0
  C  C1087  1  0.290200  0.876800  0.687300  1.0
  C  C1088  1  0.413400  0.123200  0.812700  1.0
  C  C1089  1  0.786760  0.122320  0.305020  1.0
  C  C1090  1  0.664440  0.877680  0.194980  1.0
  C  C1091  1  0.213240  0.877680  0.694980  1.0
  C  C1092  1  0.335560  0.122320  0.805020  1.0
  C  C1093  1  0.775710  0.103020  0.278000  1.0
  C  C1094  1  0.672690  0.896980  0.222000  1.0
  C  C1095  1  0.224290  0.896980  0.722000  1.0
  C  C1096  1  0.327310  0.103020  0.778000  1.0
  C  C1097  1  0.807330  0.089260  0.265500  1.0
  C  C1098  1  0.718070  0.910740  0.234500  1.0
  C  C1099  1  0.192670  0.910740  0.734500  1.0
  C  C1100  1  0.281930  0.089260  0.765500  1.0
  C  C1101  1  0.850520  0.094440  0.279500  1.0
  C  C1102  1  0.756080  0.905560  0.220500  1.0
  C  C1103  1  0.149480  0.905560  0.720500  1.0
  C  C1104  1  0.243920  0.094440  0.779500  1.0
  C  C1105  1  0.861100  0.113800  0.306600  1.0
  C  C1106  1  0.747300  0.886200  0.193400  1.0
  C  C1107  1  0.138900  0.886200  0.693400  1.0
  C  C1108  1  0.252700  0.113800  0.806600  1.0
  C  C1109  1  0.829720  0.127640  0.319300  1.0
  C  C1110  1  0.702080  0.872360  0.180700  1.0
  C  C1111  1  0.170280  0.872360  0.680700  1.0
  C  C1112  1  0.297920  0.127640  0.819300  1.0
  C  C1113  1  0.885070  0.080140  0.265600  1.0
  C  C1114  1  0.804930  0.919860  0.234400  1.0
  C  C1115  1  0.114930  0.919860  0.734400  1.0
  C  C1116  1  0.195070  0.080140  0.765600  1.0
  C  C1117  1  0.708530  0.174060  0.266300  1.0
  C  C1118  1  0.534470  0.825940  0.233700  1.0
  C  C1119  1  0.291470  0.825940  0.733700  1.0
  C  C1120  1  0.465530  0.174060  0.766300  1.0
  C  C1121  1  0.688020  0.146440  0.246820  1.0
  C  C1122  1  0.541580  0.853560  0.253180  1.0
  C  C1123  1  0.311980  0.853560  0.753180  1.0
  C  C1124  1  0.458420  0.146440  0.746820  1.0
  C  C1125  1  0.641650  0.138100  0.236400  1.0
  C  C1126  1  0.503550  0.861900  0.263600  1.0
  C  C1127  1  0.358350  0.861900  0.763600  1.0
  C  C1128  1  0.496450  0.138100  0.736400  1.0
  C  C1129  1  0.614700  0.157000  0.245300  1.0
  C  C1130  1  0.457700  0.843000  0.254700  1.0
  C  C1131  1  0.385300  0.843000  0.754700  1.0
  C  C1132  1  0.542300  0.157000  0.745300  1.0
  C  C1133  1  0.635740  0.184680  0.264800  1.0
  C  C1134  1  0.451060  0.815320  0.235200  1.0
  C  C1135  1  0.364260  0.815320  0.735200  1.0
  C  C1136  1  0.548940  0.184680  0.764800  1.0
  C  C1137  1  0.682190  0.193180  0.275200  1.0
  C  C1138  1  0.489010  0.806820  0.224800  1.0
  C  C1139  1  0.317810  0.806820  0.724800  1.0
  C  C1140  1  0.510990  0.193180  0.775200  1.0
  C  C1141  1  0.564280  0.147560  0.234600  1.0
  C  C1142  1  0.416720  0.852440  0.265400  1.0
  C  C1143  1  0.435720  0.852440  0.765400  1.0
  C  C1144  1  0.583280  0.147560  0.734600  1.0
  C  C1145  1  0.783800  0.177200  0.264100  1.0
  C  C1146  1  0.606600  0.822800  0.235900  1.0
  C  C1147  1  0.216200  0.822800  0.735900  1.0
  C  C1148  1  0.393400  0.177200  0.764100  1.0
  C  C1149  1  0.833720  0.182440  0.275100  1.0
  C  C1150  1  0.651280  0.817560  0.224900  1.0
  C  C1151  1  0.166280  0.817560  0.724900  1.0
  C  C1152  1  0.348720  0.182440  0.775100  1.0
  C  C1153  1  0.867110  0.174820  0.258200  1.0
  C  C1154  1  0.692290  0.825180  0.241800  1.0
  C  C1155  1  0.132890  0.825180  0.741800  1.0
  C  C1156  1  0.307710  0.174820  0.758200  1.0
  C  C1157  1  0.910560  0.178320  0.270300  1.0
  C  C1158  1  0.732240  0.821680  0.229700  1.0
  C  C1159  1  0.089440  0.821680  0.729700  1.0
  C  C1160  1  0.267760  0.178320  0.770300  1.0
  C  C1161  1  0.920710  0.189420  0.299400  1.0
  C  C1162  1  0.731290  0.810580  0.200600  1.0
  C  C1163  1  0.079290  0.810580  0.700600  1.0
  C  C1164  1  0.268710  0.189420  0.799400  1.0
  C  C1165  1  0.887320  0.197040  0.316300  1.0
  C  C1166  1  0.690280  0.802960  0.183700  1.0
  C  C1167  1  0.112680  0.802960  0.683700  1.0
  C  C1168  1  0.309720  0.197040  0.816300  1.0
  C  C1169  1  0.985500  0.212000  0.336300  1.0
  C  C1170  1  0.773500  0.788000  0.163700  1.0
  C  C1171  1  0.014500  0.788000  0.663700  1.0
  C  C1172  1  0.226500  0.212000  0.836300  1.0
  C  C1173  1  0.963400  0.190000  0.312800  1.0
  C  C1174  1  0.773400  0.810000  0.187200  1.0
  C  C1175  1  0.036600  0.810000  0.687200  1.0
  C  C1176  1  0.226600  0.190000  0.812800  1.0
  C  C1177  1  0.983600  0.167600  0.304300  1.0
  C  C1178  1  0.816000  0.832400  0.195700  1.0
  C  C1179  1  0.016400  0.832400  0.695700  1.0
  C  C1180  1  0.184000  0.167600  0.804300  1.0
  C  C1181  1  0.022800  0.166200  0.317100  1.0
  C  C1182  1  0.856600  0.833800  0.182900  1.0
  C  C1183  1  0.977200  0.833800  0.682900  1.0
  C  C1184  1  0.143400  0.166200  0.817100  1.0
  C  C1185  1  0.043800  0.192200  0.340000  1.0
  C  C1186  1  0.851600  0.807800  0.160000  1.0
  C  C1187  1  0.956200  0.807800  0.660000  1.0
  C  C1188  1  0.148400  0.192200  0.840000  1.0
  C  C1189  1  0.084900  0.190200  0.355200  1.0
  C  C1190  1  0.894700  0.809800  0.144800  1.0
  C  C1191  1  0.915100  0.809800  0.644800  1.0
  C  C1192  1  0.105300  0.190200  0.855200  1.0
  C  C1193  1  0.150460  0.214120  0.388530  1.0
  C  C1194  1  0.936340  0.785880  0.111470  1.0
  C  C1195  1  0.849540  0.785880  0.611470  1.0
  C  C1196  1  0.063660  0.214120  0.888530  1.0
  C  C1197  1  0.183170  0.205140  0.371660  1.0
  C  C1198  1  0.978030  0.794860  0.128340  1.0
  C  C1199  1  0.816830  0.794860  0.628340  1.0
  C  C1200  1  0.021970  0.205140  0.871660  1.0
  C  C1201  1  0.226980  0.208760  0.383700  1.0
  C  C1202  1  0.018220  0.791240  0.116300  1.0
  C  C1203  1  0.773020  0.791240  0.616300  1.0
  C  C1204  1  0.981780  0.208760  0.883700  1.0
  C  C1205  1  0.239210  0.221420  0.412700  1.0
  C  C1206  1  0.017790  0.778580  0.087300  1.0
  C  C1207  1  0.760790  0.778580  0.587300  1.0
  C  C1208  1  0.982210  0.221420  0.912700  1.0
  C  C1209  1  0.206010  0.230220  0.429380  1.0
  C  C1210  1  0.975790  0.769780  0.070620  1.0
  C  C1211  1  0.793990  0.769780  0.570620  1.0
  C  C1212  1  0.024210  0.230220  0.929380  1.0
  C  C1213  1  0.162030  0.226660  0.417480  1.0
  C  C1214  1  0.935370  0.773340  0.082520  1.0
  C  C1215  1  0.837970  0.773340  0.582520  1.0
  C  C1216  1  0.064630  0.226660  0.917480  1.0
  C  C1217  1  0.286900  0.226000  0.425500  1.0
  C  C1218  1  0.060900  0.774000  0.074500  1.0
  C  C1219  1  0.713100  0.774000  0.574500  1.0
  C  C1220  1  0.939100  0.226000  0.925500  1.0
  C  C1221  1  0.101000  0.251200  0.312200  1.0
  C  C1222  1  0.849800  0.748800  0.187800  1.0
  C  C1223  1  0.899000  0.748800  0.687800  1.0
  C  C1224  1  0.150200  0.251200  0.812200  1.0
  C  C1225  1  0.062390  0.254980  0.299800  1.0
  C  C1226  1  0.807410  0.745020  0.200200  1.0
  C  C1227  1  0.937610  0.745020  0.700200  1.0
  C  C1228  1  0.192590  0.254980  0.799800  1.0
  C  C1229  1  0.043130  0.237460  0.272900  1.0
  C  C1230  1  0.805670  0.762540  0.227100  1.0
  C  C1231  1  0.956870  0.762540  0.727100  1.0
  C  C1232  1  0.194330  0.237460  0.772900  1.0
  C  C1233  1  0.062060  0.215920  0.257900  1.0
  C  C1234  1  0.846140  0.784080  0.242100  1.0
  C  C1235  1  0.937940  0.784080  0.742100  1.0
  C  C1236  1  0.153860  0.215920  0.757900  1.0
  C  C1237  1  0.100760  0.212320  0.270700  1.0
  C  C1238  1  0.888440  0.787680  0.229300  1.0
  C  C1239  1  0.899240  0.787680  0.729300  1.0
  C  C1240  1  0.111560  0.212320  0.770700  1.0
  C  C1241  1  0.120080  0.229760  0.297600  1.0
  C  C1242  1  0.890320  0.770240  0.202400  1.0
  C  C1243  1  0.879920  0.770240  0.702400  1.0
  C  C1244  1  0.109680  0.229760  0.797600  1.0
  C  C1245  1  0.042000  0.197600  0.228600  1.0
  C  C1246  1  0.844400  0.802400  0.271400  1.0
  C  C1247  1  0.958000  0.802400  0.771400  1.0
  C  C1248  1  0.155600  0.197600  0.728600  1.0
  C  C1249  1  0.166300  0.268800  0.345700  1.0
  C  C1250  1  0.897500  0.731200  0.154300  1.0
  C  C1251  1  0.833700  0.731200  0.654300  1.0
  C  C1252  1  0.102500  0.268800  0.845700  1.0
  C  C1253  1  0.185800  0.281800  0.374400  1.0
  C  C1254  1  0.904000  0.718200  0.125600  1.0
  C  C1255  1  0.814200  0.718200  0.625600  1.0
  C  C1256  1  0.096000  0.281800  0.874400  1.0
  C  C1257  1  0.231500  0.289400  0.380800  1.0
  C  C1258  1  0.942100  0.710600  0.119200  1.0
  C  C1259  1  0.768500  0.710600  0.619200  1.0
  C  C1260  1  0.057900  0.289400  0.880800  1.0
  C  C1261  1  0.250200  0.302600  0.409500  1.0
  C  C1262  1  0.947600  0.697400  0.090500  1.0
  C  C1263  1  0.749800  0.697400  0.590500  1.0
  C  C1264  1  0.052400  0.302600  0.909500  1.0
  C  C1265  1  0.219800  0.307400  0.430800  1.0
  C  C1266  1  0.912400  0.692600  0.069200  1.0
  C  C1267  1  0.780200  0.692600  0.569200  1.0
  C  C1268  1  0.087600  0.307400  0.930800  1.0
  C  C1269  1  0.173800  0.297400  0.420200  1.0
  C  C1270  1  0.876400  0.702600  0.079800  1.0
  C  C1271  1  0.826200  0.702600  0.579800  1.0
  C  C1272  1  0.123600  0.297400  0.920200  1.0
  C  C1273  1  0.216800  0.339000  0.476100  1.0
  C  C1274  1  0.877800  0.661000  0.023900  1.0
  C  C1275  1  0.783200  0.661000  0.523900  1.0
  C  C1276  1  0.122200  0.339000  0.976100  1.0
  C  C1277  1  0.235100  0.318600  0.459500  1.0
  C  C1278  1  0.916500  0.681400  0.040500  1.0
  C  C1279  1  0.764900  0.681400  0.540500  1.0
  C  C1280  1  0.083500  0.318600  0.959500  1.0
  C  C1281  1  0.272000  0.313800  0.472900  1.0
  C  C1282  1  0.958200  0.686200  0.027100  1.0
  C  C1283  1  0.728000  0.686200  0.527100  1.0
  C  C1284  1  0.041800  0.313800  0.972900  1.0
  C  C1285  1  0.285500  0.325400  0.501400  1.0
  C  C1286  1  0.960100  0.674600  0.998600  1.0
  C  C1287  1  0.714500  0.674600  0.498600  1.0
  C  C1288  1  0.039900  0.325400  0.001400  1.0
  C  C1289  1  0.262800  0.344200  0.516800  1.0
  C  C1290  1  0.918600  0.655800  0.983200  1.0
  C  C1291  1  0.737200  0.655800  0.483200  1.0
  C  C1292  1  0.081400  0.344200  0.016800  1.0
  C  C1293  1  0.276700  0.356800  0.547400  1.0
  C  C1294  1  0.919900  0.643200  0.952600  1.0
  C  C1295  1  0.723300  0.643200  0.452600  1.0
  C  C1296  1  0.080100  0.356800  0.047400  1.0
  C  C1297  1  0.276210  0.391220  0.589400  1.0
  C  C1298  1  0.884990  0.608780  0.910600  1.0
  C  C1299  1  0.723790  0.608780  0.410600  1.0
  C  C1300  1  0.115010  0.391220  0.089400  1.0
  C  C1301  1  0.324330  0.403260  0.595900  1.0
  C  C1302  1  0.921070  0.596740  0.904100  1.0
  C  C1303  1  0.675670  0.596740  0.404100  1.0
  C  C1304  1  0.078930  0.403260  0.095900  1.0
  C  C1305  1  0.342190  0.421780  0.622700  1.0
  C  C1306  1  0.920410  0.578220  0.877300  1.0
  C  C1307  1  0.657810  0.578220  0.377300  1.0
  C  C1308  1  0.079590  0.421780  0.122700  1.0
  C  C1309  1  0.312550  0.428700  0.643300  1.0
  C  C1310  1  0.883850  0.571300  0.856700  1.0
  C  C1311  1  0.687450  0.571300  0.356700  1.0
  C  C1312  1  0.116150  0.428700  0.143300  1.0
  C  C1313  1  0.264280  0.416360  0.636400  1.0
  C  C1314  1  0.847920  0.583640  0.863600  1.0
  C  C1315  1  0.735720  0.583640  0.363600  1.0
  C  C1316  1  0.152080  0.416360  0.136400  1.0
  C  C1317  1  0.246210  0.397820  0.609800  1.0
  C  C1318  1  0.848390  0.602180  0.890200  1.0
  C  C1319  1  0.753790  0.602180  0.390200  1.0
  C  C1320  1  0.151610  0.397820  0.109800  1.0
  C  C1321  1  0.331950  0.449300  0.671900  1.0
  C  C1322  1  0.882650  0.550700  0.828100  1.0
  C  C1323  1  0.668050  0.550700  0.328100  1.0
  C  C1324  1  0.117350  0.449300  0.171900  1.0
  C  C1325  1  0.999420  0.086440  0.515600  1.0
  C  C1326  1  0.912980  0.913560  0.984400  1.0
  C  C1327  1  0.000580  0.913560  0.484400  1.0
  C  C1328  1  0.087020  0.086440  0.015600  1.0
  C  C1329  1  0.985080  0.087560  0.543100  1.0
  C  C1330  1  0.897520  0.912440  0.956900  1.0
  C  C1331  1  0.014920  0.912440  0.456900  1.0
  C  C1332  1  0.102480  0.087560  0.043100  1.0
  C  C1333  1  0.973150  0.061500  0.553900  1.0
  C  C1334  1  0.911650  0.938500  0.946100  1.0
  C  C1335  1  0.026850  0.938500  0.446100  1.0
  C  C1336  1  0.088350  0.061500  0.053900  1.0
  C  C1337  1  0.975220  0.033840  0.537600  1.0
  C  C1338  1  0.941380  0.966160  0.962400  1.0
  C  C1339  1  0.024780  0.966160  0.462400  1.0
  C  C1340  1  0.058620  0.033840  0.037600  1.0
  C  C1341  1  0.989760  0.033120  0.510100  1.0
  C  C1342  1  0.956640  0.966880  0.989900  1.0
  C  C1343  1  0.010240  0.966880  0.489900  1.0
  C  C1344  1  0.043360  0.033120  0.010100  1.0
  C  C1345  1  0.001750  0.059100  0.499100  1.0
  C  C1346  1  0.942650  0.940900  0.000900  1.0
  C  C1347  1  0.998250  0.940900  0.500900  1.0
  C  C1348  1  0.057350  0.059100  0.999100  1.0
  C  C1349  1  0.961200  0.005600  0.549200  1.0
  C  C1350  1  0.955600  0.994400  0.950800  1.0
  C  C1351  1  0.038800  0.994400  0.450800  1.0
  C  C1352  1  0.044400  0.005600  0.049200  1.0
  C  C1353  1  0.988400  0.129800  0.510600  1.0
  C  C1354  1  0.858600  0.870200  0.989400  1.0
  C  C1355  1  0.011600  0.870200  0.489400  1.0
  C  C1356  1  0.141400  0.129800  0.010600  1.0
  C  C1357  1  0.991020  0.155640  0.498700  1.0
  C  C1358  1  0.835380  0.844360  0.001300  1.0
  C  C1359  1  0.008980  0.844360  0.501300  1.0
  C  C1360  1  0.164620  0.155640  0.998700  1.0
  C  C1361  1  0.968000  0.176600  0.507800  1.0
  C  C1362  1  0.791400  0.823400  0.992200  1.0
  C  C1363  1  0.032000  0.823400  0.492200  1.0
  C  C1364  1  0.208600  0.176600  0.007800  1.0
  C  C1365  1  0.973260  0.200320  0.494500  1.0
  C  C1366  1  0.772940  0.799680  0.005500  1.0
  C  C1367  1  0.026740  0.799680  0.505500  1.0
  C  C1368  1  0.227060  0.200320  0.994500  1.0
  C  C1369  1  0.001570  0.203140  0.472000  1.0
  C  C1370  1  0.798430  0.796860  0.028000  1.0
  C  C1371  1  0.998430  0.796860  0.528000  1.0
  C  C1372  1  0.201570  0.203140  0.972000  1.0
  C  C1373  1  0.024600  0.182200  0.462900  1.0
  C  C1374  1  0.842400  0.817800  0.037100  1.0
  C  C1375  1  0.975400  0.817800  0.537100  1.0
  C  C1376  1  0.157600  0.182200  0.962900  1.0
  C  C1377  1  0.034900  0.228600  0.435100  1.0
  C  C1378  1  0.806300  0.771400  0.064900  1.0
  C  C1379  1  0.965100  0.771400  0.564900  1.0
  C  C1380  1  0.193700  0.228600  0.935100  1.0
  C  C1381  1  0.009440  0.228480  0.459000  1.0
  C  C1382  1  0.780960  0.771520  0.041000  1.0
  C  C1383  1  0.990560  0.771520  0.541000  1.0
  C  C1384  1  0.219040  0.228480  0.959000  1.0
  C  C1385  1  0.992200  0.252200  0.469200  1.0
  C  C1386  1  0.740000  0.747800  0.030800  1.0
  C  C1387  1  0.007800  0.747800  0.530800  1.0
  C  C1388  1  0.260000  0.252200  0.969200  1.0
  C  C1389  1  0.000550  0.276100  0.455700  1.0
  C  C1390  1  0.724450  0.723900  0.044300  1.0
  C  C1391  1  0.999450  0.723900  0.544300  1.0
  C  C1392  1  0.275550  0.276100  0.955700  1.0
  C  C1393  1  0.026100  0.276200  0.431800  1.0
  C  C1394  1  0.749900  0.723800  0.068200  1.0
  C  C1395  1  0.973900  0.723800  0.568200  1.0
  C  C1396  1  0.250100  0.276200  0.931800  1.0
  C  C1397  1  0.033100  0.300000  0.414300  1.0
  C  C1398  1  0.733100  0.700000  0.085700  1.0
  C  C1399  1  0.966900  0.700000  0.585700  1.0
  C  C1400  1  0.266900  0.300000  0.914300  1.0
  C  C1401  1  0.055270  0.317340  0.373960  1.0
  C  C1402  1  0.737930  0.682660  0.126040  1.0
  C  C1403  1  0.944730  0.682660  0.626040  1.0
  C  C1404  1  0.262070  0.317340  0.873960  1.0
  C  C1405  1  0.022750  0.332500  0.373900  1.0
  C  C1406  1  0.690250  0.667500  0.126100  1.0
  C  C1407  1  0.977250  0.667500  0.626100  1.0
  C  C1408  1  0.309750  0.332500  0.873900  1.0
  C  C1409  1  0.032040  0.357280  0.361300  1.0
  C  C1410  1  0.674760  0.642720  0.138700  1.0
  C  C1411  1  0.967960  0.642720  0.638700  1.0
  C  C1412  1  0.325240  0.357280  0.861300  1.0
  C  C1413  1  0.073930  0.367460  0.348600  1.0
  C  C1414  1  0.706470  0.632540  0.151400  1.0
  C  C1415  1  0.926070  0.632540  0.651400  1.0
  C  C1416  1  0.293530  0.367460  0.848600  1.0
  C  C1417  1  0.106070  0.351940  0.348700  1.0
  C  C1418  1  0.754130  0.648060  0.151300  1.0
  C  C1419  1  0.893930  0.648060  0.651300  1.0
  C  C1420  1  0.245870  0.351940  0.848700  1.0
  C  C1421  1  0.097070  0.327140  0.361300  1.0
  C  C1422  1  0.769930  0.672860  0.138700  1.0
  C  C1423  1  0.902930  0.672860  0.638700  1.0
  C  C1424  1  0.230070  0.327140  0.861300  1.0
  C  C1425  1  0.084340  0.394680  0.335600  1.0
  C  C1426  1  0.689660  0.605320  0.164400  1.0
  C  C1427  1  0.915660  0.605320  0.664400  1.0
  C  C1428  1  0.310340  0.394680  0.835600  1.0
  C  C1429  1  0.945820  0.289440  0.751700  1.0
  C  C1430  1  0.656380  0.710560  0.748300  1.0
  C  C1431  1  0.054180  0.710560  0.248300  1.0
  C  C1432  1  0.343620  0.289440  0.251700  1.0
  C  C1433  1  0.938660  0.300720  0.779800  1.0
  C  C1434  1  0.637940  0.699280  0.720200  1.0
  C  C1435  1  0.061340  0.699280  0.220200  1.0
  C  C1436  1  0.362060  0.300720  0.279800  1.0
  C  C1437  1  0.938810  0.284020  0.800200  1.0
  C  C1438  1  0.654790  0.715980  0.699800  1.0
  C  C1439  1  0.061190  0.715980  0.199800  1.0
  C  C1440  1  0.345210  0.284020  0.300200  1.0
  C  C1441  1  0.946000  0.255800  0.792900  1.0
  C  C1442  1  0.690200  0.744200  0.707100  1.0
  C  C1443  1  0.054000  0.744200  0.207100  1.0
  C  C1444  1  0.309800  0.255800  0.292900  1.0
  C  C1445  1  0.953310  0.244820  0.764600  1.0
  C  C1446  1  0.708490  0.755180  0.735400  1.0
  C  C1447  1  0.046690  0.755180  0.235400  1.0
  C  C1448  1  0.291510  0.244820  0.264600  1.0
  C  C1449  1  0.953310  0.261420  0.744200  1.0
  C  C1450  1  0.691890  0.738580  0.755800  1.0
  C  C1451  1  0.046690  0.738580  0.255800  1.0
  C  C1452  1  0.308110  0.261420  0.244200  1.0
  C  C1453  1  0.945060  0.237520  0.814800  1.0
  C  C1454  1  0.707540  0.762480  0.685200  1.0
  C  C1455  1  0.054940  0.762480  0.185200  1.0
  C  C1456  1  0.292460  0.237520  0.314800  1.0
  C  C1457  1  0.940800  0.296200  0.704600  1.0
  C  C1458  1  0.644600  0.703800  0.795400  1.0
  C  C1459  1  0.059200  0.703800  0.295400  1.0
  C  C1460  1  0.355400  0.296200  0.204600  1.0
  C  C1461  1  0.949400  0.314800  0.684500  1.0
  C  C1462  1  0.634600  0.685200  0.815500  1.0
  C  C1463  1  0.050600  0.685200  0.315500  1.0
  C  C1464  1  0.365400  0.314800  0.184500  1.0
  C  C1465  1  0.930000  0.304000  0.657100  1.0
  C  C1466  1  0.626000  0.696000  0.842900  1.0
  C  C1467  1  0.070000  0.696000  0.342900  1.0
  C  C1468  1  0.374000  0.304000  0.157100  1.0
  C  C1469  1  0.935400  0.321800  0.637600  1.0
  C  C1470  1  0.613600  0.678200  0.862400  1.0
  C  C1471  1  0.064600  0.678200  0.362400  1.0
  C  C1472  1  0.386400  0.321800  0.137600  1.0
  C  C1473  1  0.964200  0.351400  0.645200  1.0
  C  C1474  1  0.612800  0.648600  0.854800  1.0
  C  C1475  1  0.035800  0.648600  0.354800  1.0
  C  C1476  1  0.387200  0.351400  0.145200  1.0
  C  C1477  1  0.982700  0.361200  0.671600  1.0
  C  C1478  1  0.621500  0.638800  0.828400  1.0
  C  C1479  1  0.017300  0.638800  0.328400  1.0
  C  C1480  1  0.378500  0.361200  0.171600  1.0
  C  C1481  1  0.984390  0.402980  0.637900  1.0
  C  C1482  1  0.581410  0.597020  0.862100  1.0
  C  C1483  1  0.015610  0.597020  0.362100  1.0
  C  C1484  1  0.418590  0.402980  0.137900  1.0
  C  C1485  1  0.972950  0.371900  0.626800  1.0
  C  C1486  1  0.601050  0.628100  0.873200  1.0
  C  C1487  1  0.027050  0.628100  0.373200  1.0
  C  C1488  1  0.398950  0.371900  0.126800  1.0
  C  C1489  1  0.974640  0.360880  0.597900  1.0
  C  C1490  1  0.613760  0.639120  0.902100  1.0
  C  C1491  1  0.025360  0.639120  0.402100  1.0
  C  C1492  1  0.386240  0.360880  0.097900  1.0
  C  C1493  1  0.987560  0.380920  0.580100  1.0
  C  C1494  1  0.606640  0.619080  0.919900  1.0
  C  C1495  1  0.012440  0.619080  0.419900  1.0
  C  C1496  1  0.393360  0.380920  0.080100  1.0
  C  C1497  1  0.999000  0.412000  0.591200  1.0
  C  C1498  1  0.587000  0.588000  0.908800  1.0
  C  C1499  1  0.001000  0.588000  0.408800  1.0
  C  C1500  1  0.413000  0.412000  0.091200  1.0
  C  C1501  1  0.014400  0.435800  0.576100  1.0
  C  C1502  1  0.578600  0.564200  0.923900  1.0
  C  C1503  1  0.985600  0.564200  0.423900  1.0
  C  C1504  1  0.421400  0.435800  0.076100  1.0
  C  C1505  1  0.052910  0.485020  0.570500  1.0
  C  C1506  1  0.567890  0.514980  0.929500  1.0
  C  C1507  1  0.947090  0.514980  0.429500  1.0
  C  C1508  1  0.432110  0.485020  0.070500  1.0
  C  C1509  1  0.041230  0.511660  0.576000  1.0
  C  C1510  1  0.529570  0.488340  0.924000  1.0
  C  C1511  1  0.958770  0.488340  0.424000  1.0
  C  C1512  1  0.470430  0.511660  0.076000  1.0
  C  C1513  1  0.060070  0.533940  0.560900  1.0
  C  C1514  1  0.526130  0.466060  0.939100  1.0
  C  C1515  1  0.939930  0.466060  0.439100  1.0
  C  C1516  1  0.473870  0.533940  0.060900  1.0
  C  C1517  1  0.090880  0.530160  0.539900  1.0
  C  C1518  1  0.560720  0.469840  0.960100  1.0
  C  C1519  1  0.909120  0.469840  0.460100  1.0
  C  C1520  1  0.439280  0.530160  0.039900  1.0
  C  C1521  1  0.102220  0.503240  0.534500  1.0
  C  C1522  1  0.598980  0.496760  0.965500  1.0
  C  C1523  1  0.897780  0.496760  0.465500  1.0
  C  C1524  1  0.401020  0.503240  0.034500  1.0
  C  C1525  1  0.083440  0.480880  0.549600  1.0
  C  C1526  1  0.602560  0.519120  0.950400  1.0
  C  C1527  1  0.916560  0.519120  0.450400  1.0
  C  C1528  1  0.397440  0.480880  0.049600  1.0
  C  C1529  1  0.112090  0.554580  0.524100  1.0
  C  C1530  1  0.557510  0.445420  0.975900  1.0
  C  C1531  1  0.887910  0.445420  0.475900  1.0
  C  C1532  1  0.442490  0.554580  0.024100  1.0
  C  C1533  1  0.733470  0.221940  0.695100  1.0
  C  C1534  1  0.511530  0.778060  0.804900  1.0
  C  C1535  1  0.266530  0.778060  0.304900  1.0
  C  C1536  1  0.488470  0.221940  0.195100  1.0
  C  C1537  1  0.750440  0.197680  0.686500  1.0
  C  C1538  1  0.552760  0.802320  0.813500  1.0
  C  C1539  1  0.249560  0.802320  0.313500  1.0
  C  C1540  1  0.447240  0.197680  0.186500  1.0
  C  C1541  1  0.743550  0.175700  0.702400  1.0
  C  C1542  1  0.567850  0.824300  0.797600  1.0
  C  C1543  1  0.256450  0.824300  0.297600  1.0
  C  C1544  1  0.432150  0.175700  0.202400  1.0
  C  C1545  1  0.719730  0.177460  0.727200  1.0
  C  C1546  1  0.542270  0.822540  0.772800  1.0
  C  C1547  1  0.280270  0.822540  0.272800  1.0
  C  C1548  1  0.457730  0.177460  0.227200  1.0
  C  C1549  1  0.702750  0.201900  0.735500  1.0
  C  C1550  1  0.500850  0.798100  0.764500  1.0
  C  C1551  1  0.297250  0.798100  0.264500  1.0
  C  C1552  1  0.499150  0.201900  0.235500  1.0
  C  C1553  1  0.709480  0.223960  0.719700  1.0
  C  C1554  1  0.485520  0.776040  0.780300  1.0
  C  C1555  1  0.290520  0.776040  0.280300  1.0
  C  C1556  1  0.514480  0.223960  0.219700  1.0
  C  C1557  1  0.713350  0.154100  0.744700  1.0
  C  C1558  1  0.559250  0.845900  0.755300  1.0
  C  C1559  1  0.286650  0.845900  0.255300  1.0
  C  C1560  1  0.440750  0.154100  0.244700  1.0
  C  C1561  1  0.770800  0.248000  0.662300  1.0
  C  C1562  1  0.522800  0.752000  0.837700  1.0
  C  C1563  1  0.229200  0.752000  0.337700  1.0
  C  C1564  1  0.477200  0.248000  0.162300  1.0
  C  C1565  1  0.776100  0.270000  0.644400  1.0
  C  C1566  1  0.506100  0.730000  0.855600  1.0
  C  C1567  1  0.223900  0.730000  0.355600  1.0
  C  C1568  1  0.493900  0.270000  0.144400  1.0
  C  C1569  1  0.808500  0.273400  0.623300  1.0
  C  C1570  1  0.535100  0.726600  0.876700  1.0
  C  C1571  1  0.191500  0.726600  0.376700  1.0
  C  C1572  1  0.464900  0.273400  0.123300  1.0
  C  C1573  1  0.808700  0.291800  0.605800  1.0
  C  C1574  1  0.516900  0.708200  0.894200  1.0
  C  C1575  1  0.191300  0.708200  0.394200  1.0
  C  C1576  1  0.483100  0.291800  0.105800  1.0
  C  C1577  1  0.778100  0.307200  0.606900  1.0
  C  C1578  1  0.470900  0.692800  0.893100  1.0
  C  C1579  1  0.221900  0.692800  0.393100  1.0
  C  C1580  1  0.529100  0.307200  0.106900  1.0
  C  C1581  1  0.747600  0.302800  0.628500  1.0
  C  C1582  1  0.444800  0.697200  0.871500  1.0
  C  C1583  1  0.252400  0.697200  0.371500  1.0
  C  C1584  1  0.555200  0.302800  0.128500  1.0
  C  C1585  1  0.754100  0.347800  0.593400  1.0
  C  C1586  1  0.406300  0.652200  0.906600  1.0
  C  C1587  1  0.245900  0.652200  0.406600  1.0
  C  C1588  1  0.593700  0.347800  0.093400  1.0
  C  C1589  1  0.775100  0.326400  0.587600  1.0
  C  C1590  1  0.448700  0.673600  0.912400  1.0
  C  C1591  1  0.224900  0.673600  0.412400  1.0
  C  C1592  1  0.551300  0.326400  0.087600  1.0
  C  C1593  1  0.791200  0.322800  0.560400  1.0
  C  C1594  1  0.468400  0.677200  0.939600  1.0
  C  C1595  1  0.208800  0.677200  0.439600  1.0
  C  C1596  1  0.531600  0.322800  0.060400  1.0
  C  C1597  1  0.786800  0.341200  0.542900  1.0
  C  C1598  1  0.445600  0.658800  0.957100  1.0
  C  C1599  1  0.213200  0.658800  0.457100  1.0
  C  C1600  1  0.554400  0.341200  0.042900  1.0
  C  C1601  1  0.767400  0.361200  0.551700  1.0
  C  C1602  1  0.406200  0.638800  0.948300  1.0
  C  C1603  1  0.232600  0.638800  0.448300  1.0
  C  C1604  1  0.593800  0.361200  0.051700  1.0
  C  C1605  1  0.765000  0.383200  0.532700  1.0
  C  C1606  1  0.381800  0.616800  0.967300  1.0
  C  C1607  1  0.235000  0.616800  0.467300  1.0
  C  C1608  1  0.618200  0.383200  0.032700  1.0
  C  C1609  1  0.742390  0.421380  0.523700  1.0
  C  C1610  1  0.321010  0.578620  0.976300  1.0
  C  C1611  1  0.257610  0.578620  0.476300  1.0
  C  C1612  1  0.678990  0.421380  0.023700  1.0
  C  C1613  1  0.711080  0.437560  0.529400  1.0
  C  C1614  1  0.273520  0.562440  0.970600  1.0
  C  C1615  1  0.288920  0.562440  0.470600  1.0
  C  C1616  1  0.726480  0.437560  0.029400  1.0
  C  C1617  1  0.707490  0.456980  0.512400  1.0
  C  C1618  1  0.250510  0.543020  0.987600  1.0
  C  C1619  1  0.292510  0.543020  0.487600  1.0
  C  C1620  1  0.749490  0.456980  0.012400  1.0
  C  C1621  1  0.735030  0.460660  0.489300  1.0
  C  C1622  1  0.274370  0.539340  0.010700  1.0
  C  C1623  1  0.264970  0.539340  0.510700  1.0
  C  C1624  1  0.725630  0.460660  0.989300  1.0
  C  C1625  1  0.766190  0.444180  0.483800  1.0
  C  C1626  1  0.322010  0.555820  0.016200  1.0
  C  C1627  1  0.233810  0.555820  0.516200  1.0
  C  C1628  1  0.677990  0.444180  0.983800  1.0
  C  C1629  1  0.769970  0.424740  0.500800  1.0
  C  C1630  1  0.345230  0.575260  0.999200  1.0
  C  C1631  1  0.230030  0.575260  0.499200  1.0
  C  C1632  1  0.654770  0.424740  0.000800  1.0
  C  C1633  1  0.731900  0.482200  0.471400  1.0
  C  C1634  1  0.249700  0.517800  0.028600  1.0
  C  C1635  1  0.268100  0.517800  0.528600  1.0
  C  C1636  1  0.750300  0.482200  0.971400  1.0
  C  C1637  1  0.078190  0.214180  0.661600  1.0
  C  C1638  1  0.864010  0.785820  0.838400  1.0
  C  C1639  1  0.921810  0.785820  0.338400  1.0
  C  C1640  1  0.135990  0.214180  0.161600  1.0
  C  C1641  1  0.040570  0.206540  0.678300  1.0
  C  C1642  1  0.834030  0.793460  0.821700  1.0
  C  C1643  1  0.959430  0.793460  0.321700  1.0
  C  C1644  1  0.165970  0.206540  0.178300  1.0
  C  C1645  1  0.032400  0.181400  0.690100  1.0
  C  C1646  1  0.851000  0.818600  0.809900  1.0
  C  C1647  1  0.967600  0.818600  0.309900  1.0
  C  C1648  1  0.149000  0.181400  0.190100  1.0
  C  C1649  1  0.061310  0.163220  0.685600  1.0
  C  C1650  1  0.898090  0.836780  0.814400  1.0
  C  C1651  1  0.938690  0.836780  0.314400  1.0
  C  C1652  1  0.101910  0.163220  0.185600  1.0
  C  C1653  1  0.099000  0.171200  0.668800  1.0
  C  C1654  1  0.927800  0.828800  0.831200  1.0
  C  C1655  1  0.901000  0.828800  0.331200  1.0
  C  C1656  1  0.072200  0.171200  0.168800  1.0
  C  C1657  1  0.107400  0.196400  0.656900  1.0
  C  C1658  1  0.911000  0.803600  0.843100  1.0
  C  C1659  1  0.892600  0.803600  0.343100  1.0
  C  C1660  1  0.089000  0.196400  0.156900  1.0
  C  C1661  1  0.051700  0.135600  0.697800  1.0
  C  C1662  1  0.916100  0.864400  0.802200  1.0
  C  C1663  1  0.948300  0.864400  0.302200  1.0
  C  C1664  1  0.083900  0.135600  0.197800  1.0
  C  C1665  1  0.050500  0.244200  0.635400  1.0
  C  C1666  1  0.806300  0.755800  0.864600  1.0
  C  C1667  1  0.949500  0.755800  0.364600  1.0
  C  C1668  1  0.193700  0.244200  0.135400  1.0
  C  C1669  1  0.058470  0.262340  0.614500  1.0
  C  C1670  1  0.796130  0.737660  0.885500  1.0
  C  C1671  1  0.941530  0.737660  0.385500  1.0
  C  C1672  1  0.203870  0.262340  0.114500  1.0
  C  C1673  1  0.022400  0.271200  0.605700  1.0
  C  C1674  1  0.751200  0.728800  0.894300  1.0
  C  C1675  1  0.977600  0.728800  0.394300  1.0
  C  C1676  1  0.248800  0.271200  0.105700  1.0
  C  C1677  1  0.030600  0.290800  0.587300  1.0
  C  C1678  1  0.739800  0.709200  0.912700  1.0
  C  C1679  1  0.969400  0.709200  0.412700  1.0
  C  C1680  1  0.260200  0.290800  0.087300  1.0
  C  C1681  1  0.074710  0.301420  0.577900  1.0
  C  C1682  1  0.773290  0.698580  0.922100  1.0
  C  C1683  1  0.925290  0.698580  0.422100  1.0
  C  C1684  1  0.226710  0.301420  0.077900  1.0
  C  C1685  1  0.110790  0.292580  0.586700  1.0
  C  C1686  1  0.818210  0.707420  0.913300  1.0
  C  C1687  1  0.889210  0.707420  0.413300  1.0
  C  C1688  1  0.181790  0.292580  0.086700  1.0
  C  C1689  1  0.128600  0.342400  0.558700  1.0
  C  C1690  1  0.786200  0.657600  0.941300  1.0
  C  C1691  1  0.871400  0.657600  0.441300  1.0
  C  C1692  1  0.213800  0.342400  0.058700  1.0
  C  C1693  1  0.083900  0.321200  0.557200  1.0
  C  C1694  1  0.762700  0.678800  0.942800  1.0
  C  C1695  1  0.916100  0.678800  0.442800  1.0
  C  C1696  1  0.237300  0.321200  0.057200  1.0
  C  C1697  1  0.050500  0.324600  0.542000  1.0
  C  C1698  1  0.725900  0.675400  0.958000  1.0
  C  C1699  1  0.949500  0.675400  0.458000  1.0
  C  C1700  1  0.274100  0.324600  0.042000  1.0
  C  C1701  1  0.059500  0.342600  0.523900  1.0
  C  C1702  1  0.716900  0.657400  0.976100  1.0
  C  C1703  1  0.940500  0.657400  0.476100  1.0
  C  C1704  1  0.283100  0.342600  0.023900  1.0
  C  C1705  1  0.102600  0.363200  0.525600  1.0
  C  C1706  1  0.739400  0.636800  0.974400  1.0
  C  C1707  1  0.897400  0.636800  0.474400  1.0
  C  C1708  1  0.260600  0.363200  0.025600  1.0
  C  C1709  1  0.114100  0.384800  0.506500  1.0
  C  C1710  1  0.729300  0.615200  0.993500  1.0
  C  C1711  1  0.885900  0.615200  0.493500  1.0
  C  C1712  1  0.270700  0.384800  0.006500  1.0
  C  C1713  1  0.163480  0.427160  0.493200  1.0
  C  C1714  1  0.736320  0.572840  0.006800  1.0
  C  C1715  1  0.836520  0.572840  0.506800  1.0
  C  C1716  1  0.263680  0.427160  0.993200  1.0
  C  C1717  1  0.132530  0.442860  0.490300  1.0
  C  C1718  1  0.689670  0.557140  0.009700  1.0
  C  C1719  1  0.867470  0.557140  0.509700  1.0
  C  C1720  1  0.310330  0.442860  0.990300  1.0
  C  C1721  1  0.140420  0.462040  0.471500  1.0
  C  C1722  1  0.678380  0.537960  0.028500  1.0
  C  C1723  1  0.859580  0.537960  0.528500  1.0
  C  C1724  1  0.321620  0.462040  0.971500  1.0
  C  C1725  1  0.179170  0.465940  0.455200  1.0
  C  C1726  1  0.713230  0.534060  0.044800  1.0
  C  C1727  1  0.820830  0.534060  0.544800  1.0
  C  C1728  1  0.286770  0.465940  0.955200  1.0
  C  C1729  1  0.209780  0.449960  0.458200  1.0
  C  C1730  1  0.759820  0.550040  0.041800  1.0
  C  C1731  1  0.790220  0.550040  0.541800  1.0
  C  C1732  1  0.240180  0.449960  0.958200  1.0
  C  C1733  1  0.202080  0.430760  0.477000  1.0
  C  C1734  1  0.771320  0.569240  0.023000  1.0
  C  C1735  1  0.797920  0.569240  0.523000  1.0
  C  C1736  1  0.228680  0.430760  0.977000  1.0
  C  C1737  1  0.188110  0.487220  0.435400  1.0
  C  C1738  1  0.700890  0.512780  0.064600  1.0
  C  C1739  1  0.811890  0.512780  0.564600  1.0
  C  C1740  1  0.299110  0.487220  0.935400  1.0
  C  C1741  1  0.820550  0.043100  0.460500  1.0
  C  C1742  1  0.777450  0.956900  0.039500  1.0
  C  C1743  1  0.179450  0.956900  0.539500  1.0
  C  C1744  1  0.222550  0.043100  0.960500  1.0
  C  C1745  1  0.784330  0.015460  0.456800  1.0
  C  C1746  1  0.768870  0.984540  0.043200  1.0
  C  C1747  1  0.215670  0.984540  0.543200  1.0
  C  C1748  1  0.231130  0.015460  0.956800  1.0
  C  C1749  1  0.789720  0.992240  0.468300  1.0
  C  C1750  1  0.797480  0.007760  0.031700  1.0
  C  C1751  1  0.210280  0.007760  0.531700  1.0
  C  C1752  1  0.202520  0.992240  0.968300  1.0
  C  C1753  1  0.831110  0.996020  0.483700  1.0
  C  C1754  1  0.835090  0.003980  0.016300  1.0
  C  C1755  1  0.168890  0.003980  0.516300  1.0
  C  C1756  1  0.164910  0.996020  0.983700  1.0
  C  C1757  1  0.867050  0.023900  0.487400  1.0
  C  C1758  1  0.843150  0.976100  0.012600  1.0
  C  C1759  1  0.132950  0.976100  0.512600  1.0
  C  C1760  1  0.156850  0.023900  0.987400  1.0
  C  C1761  1  0.861920  0.047240  0.475900  1.0
  C  C1762  1  0.814680  0.952760  0.024100  1.0
  C  C1763  1  0.138080  0.952760  0.524100  1.0
  C  C1764  1  0.185320  0.047240  0.975900  1.0
  C  C1765  1  0.837110  0.970620  0.495500  1.0
  C  C1766  1  0.866490  0.029380  0.004500  1.0
  C  C1767  1  0.162890  0.029380  0.504500  1.0
  C  C1768  1  0.133510  0.970620  0.995500  1.0
  C  C1769  1  0.824900  0.094600  0.469800  1.0
  C  C1770  1  0.730300  0.905400  0.030200  1.0
  C  C1771  1  0.175100  0.905400  0.530200  1.0
  C  C1772  1  0.269700  0.094600  0.969800  1.0
  C  C1773  1  0.817450  0.117700  0.456900  1.0
  C  C1774  1  0.699750  0.882300  0.043100  1.0
  C  C1775  1  0.182550  0.882300  0.543100  1.0
  C  C1776  1  0.300250  0.117700  0.956900  1.0
  C  C1777  1  0.839000  0.147600  0.471400  1.0
  C  C1778  1  0.691400  0.852400  0.028600  1.0
  C  C1779  1  0.161000  0.852400  0.528600  1.0
  C  C1780  1  0.308600  0.147600  0.971400  1.0
  C  C1781  1  0.837150  0.171300  0.459600  1.0
  C  C1782  1  0.665850  0.828700  0.040400  1.0
  C  C1783  1  0.162850  0.828700  0.540400  1.0
  C  C1784  1  0.334150  0.171300  0.959600  1.0
  C  C1785  1  0.813720  0.165040  0.433100  1.0
  C  C1786  1  0.648680  0.834960  0.066900  1.0
  C  C1787  1  0.186280  0.834960  0.566900  1.0
  C  C1788  1  0.351320  0.165040  0.933100  1.0
  C  C1789  1  0.792100  0.135000  0.418600  1.0
  C  C1790  1  0.657100  0.865000  0.081400  1.0
  C  C1791  1  0.207900  0.865000  0.581400  1.0
  C  C1792  1  0.342900  0.135000  0.918600  1.0
  C  C1793  1  0.807270  0.181940  0.389300  1.0
  C  C1794  1  0.625330  0.818060  0.110700  1.0
  C  C1795  1  0.192730  0.818060  0.610700  1.0
  C  C1796  1  0.374670  0.181940  0.889300  1.0
  C  C1797  1  0.813880  0.189360  0.418700  1.0
  C  C1798  1  0.624520  0.810640  0.081300  1.0
  C  C1799  1  0.186120  0.810640  0.581300  1.0
  C  C1800  1  0.375480  0.189360  0.918700  1.0
  C  C1801  1  0.815200  0.218000  0.433900  1.0
  C  C1802  1  0.597200  0.782000  0.066100  1.0
  C  C1803  1  0.184800  0.782000  0.566100  1.0
  C  C1804  1  0.402800  0.218000  0.933900  1.0
  C  C1805  1  0.809770  0.239140  0.419600  1.0
  C  C1806  1  0.570630  0.760860  0.080400  1.0
  C  C1807  1  0.190230  0.760860  0.580400  1.0
  C  C1808  1  0.429370  0.239140  0.919600  1.0
  C  C1809  1  0.803160  0.231720  0.390200  1.0
  C  C1810  1  0.571440  0.768280  0.109800  1.0
  C  C1811  1  0.196840  0.768280  0.609800  1.0
  C  C1812  1  0.428560  0.231720  0.890200  1.0
  C  C1813  1  0.800500  0.252000  0.371400  1.0
  C  C1814  1  0.548500  0.748000  0.128600  1.0
  C  C1815  1  0.199500  0.748000  0.628600  1.0
  C  C1816  1  0.451500  0.252000  0.871400  1.0
  C  C1817  1  0.788970  0.266540  0.332600  1.0
  C  C1818  1  0.522430  0.733460  0.167400  1.0
  C  C1819  1  0.211030  0.733460  0.667400  1.0
  C  C1820  1  0.477570  0.266540  0.832600  1.0
  C  C1821  1  0.788320  0.259040  0.303100  1.0
  C  C1822  1  0.529280  0.740960  0.196900  1.0
  C  C1823  1  0.211680  0.740960  0.696900  1.0
  C  C1824  1  0.470720  0.259040  0.803100  1.0
  C  C1825  1  0.784250  0.279500  0.287400  1.0
  C  C1826  1  0.504750  0.720500  0.212600  1.0
  C  C1827  1  0.215750  0.720500  0.712600  1.0
  C  C1828  1  0.495250  0.279500  0.787400  1.0
  C  C1829  1  0.780590  0.307780  0.300700  1.0
  C  C1830  1  0.472810  0.692220  0.199300  1.0
  C  C1831  1  0.219410  0.692220  0.699300  1.0
  C  C1832  1  0.527190  0.307780  0.800700  1.0
  C  C1833  1  0.781520  0.315040  0.330400  1.0
  C  C1834  1  0.466480  0.684960  0.169600  1.0
  C  C1835  1  0.218480  0.684960  0.669600  1.0
  C  C1836  1  0.533520  0.315040  0.830400  1.0
  C  C1837  1  0.785540  0.294680  0.346200  1.0
  C  C1838  1  0.490860  0.705320  0.153800  1.0
  C  C1839  1  0.214460  0.705320  0.653800  1.0
  C  C1840  1  0.509140  0.294680  0.846200  1.0
  C  C1841  1  0.775050  0.329500  0.283600  1.0
  C  C1842  1  0.445550  0.670500  0.216400  1.0
  C  C1843  1  0.224950  0.670500  0.716400  1.0
  C  C1844  1  0.554450  0.329500  0.783600  1.0
  C  C1845  1  0.657850  0.092300  0.554800  1.0
  C  C1846  1  0.565550  0.907700  0.945200  1.0
  C  C1847  1  0.342150  0.907700  0.445200  1.0
  C  C1848  1  0.434450  0.092300  0.054800  1.0
  C  C1849  1  0.624740  0.084280  0.574200  1.0
  C  C1850  1  0.540460  0.915720  0.925800  1.0
  C  C1851  1  0.375260  0.915720  0.425800  1.0
  C  C1852  1  0.459540  0.084280  0.074200  1.0
  C  C1853  1  0.630640  0.066680  0.592600  1.0
  C  C1854  1  0.563960  0.933320  0.907400  1.0
  C  C1855  1  0.369360  0.933320  0.407400  1.0
  C  C1856  1  0.436040  0.066680  0.092600  1.0
  C  C1857  1  0.669440  0.056680  0.592000  1.0
  C  C1858  1  0.612760  0.943320  0.908000  1.0
  C  C1859  1  0.330560  0.943320  0.408000  1.0
  C  C1860  1  0.387240  0.056680  0.092000  1.0
  C  C1861  1  0.702400  0.065000  0.572400  1.0
  C  C1862  1  0.637400  0.935000  0.927600  1.0
  C  C1863  1  0.297600  0.935000  0.427600  1.0
  C  C1864  1  0.362600  0.065000  0.072400  1.0
  C  C1865  1  0.696800  0.082600  0.554000  1.0
  C  C1866  1  0.614200  0.917400  0.946000  1.0
  C  C1867  1  0.303200  0.917400  0.446000  1.0
  C  C1868  1  0.385800  0.082600  0.054000  1.0
  C  C1869  1  0.675030  0.037060  0.611400  1.0
  C  C1870  1  0.637970  0.962940  0.888600  1.0
  C  C1871  1  0.324970  0.962940  0.388600  1.0
  C  C1872  1  0.362030  0.037060  0.111400  1.0
  C  C1873  1  0.702900  0.135000  0.535400  1.0
  C  C1874  1  0.567900  0.865000  0.964600  1.0
  C  C1875  1  0.297100  0.865000  0.464600  1.0
  C  C1876  1  0.432100  0.135000  0.035400  1.0
  C  C1877  1  0.704900  0.159800  0.522500  1.0
  C  C1878  1  0.545100  0.840200  0.977500  1.0
  C  C1879  1  0.295100  0.840200  0.477500  1.0
  C  C1880  1  0.454900  0.159800  0.022500  1.0
  C  C1881  1  0.745800  0.201600  0.503200  1.0
  C  C1882  1  0.544200  0.798400  0.996800  1.0
  C  C1883  1  0.254200  0.798400  0.496800  1.0
  C  C1884  1  0.455800  0.201600  0.003200  1.0
  C  C1885  1  0.745600  0.176400  0.515900  1.0
  C  C1886  1  0.569200  0.823600  0.984100  1.0
  C  C1887  1  0.254400  0.823600  0.484100  1.0
  C  C1888  1  0.430800  0.176400  0.015900  1.0
  C  C1889  1  0.703300  0.206200  0.498000  1.0
  C  C1890  1  0.497100  0.793800  0.002000  1.0
  C  C1891  1  0.296700  0.793800  0.502000  1.0
  C  C1892  1  0.502900  0.206200  0.998000  1.0
  C  C1893  1  0.664300  0.186000  0.506200  1.0
  C  C1894  1  0.478300  0.814000  0.993800  1.0
  C  C1895  1  0.335700  0.814000  0.493800  1.0
  C  C1896  1  0.521700  0.186000  0.006200  1.0
  C  C1897  1  0.662100  0.229200  0.470400  1.0
  C  C1898  1  0.432900  0.770800  0.029600  1.0
  C  C1899  1  0.337900  0.770800  0.529600  1.0
  C  C1900  1  0.567100  0.229200  0.970400  1.0
  C  C1901  1  0.702500  0.232000  0.485500  1.0
  C  C1902  1  0.470500  0.768000  0.014500  1.0
  C  C1903  1  0.297500  0.768000  0.514500  1.0
  C  C1904  1  0.529500  0.232000  0.985500  1.0
  C  C1905  1  0.739600  0.258200  0.488700  1.0
  C  C1906  1  0.481400  0.741800  0.011300  1.0
  C  C1907  1  0.260400  0.741800  0.511300  1.0
  C  C1908  1  0.518600  0.258200  0.988700  1.0
  C  C1909  1  0.735700  0.281000  0.477100  1.0
  C  C1910  1  0.454700  0.719000  0.022900  1.0
  C  C1911  1  0.264300  0.719000  0.522900  1.0
  C  C1912  1  0.545300  0.281000  0.977100  1.0
  C  C1913  1  0.693000  0.275400  0.462000  1.0
  C  C1914  1  0.417600  0.724600  0.038000  1.0
  C  C1915  1  0.307000  0.724600  0.538000  1.0
  C  C1916  1  0.582400  0.275400  0.962000  1.0
  C  C1917  1  0.687100  0.300600  0.449400  1.0
  C  C1918  1  0.386500  0.699400  0.050600  1.0
  C  C1919  1  0.312900  0.699400  0.550600  1.0
  C  C1920  1  0.613500  0.300600  0.949400  1.0
  C  C1921  1  0.881160  0.220520  0.553400  1.0
  C  C1922  1  0.660640  0.779480  0.946600  1.0
  C  C1923  1  0.118840  0.779480  0.446600  1.0
  C  C1924  1  0.339360  0.220520  0.053400  1.0
  C  C1925  1  0.637600  0.263600  0.806100  0.25
  C  C1926  1  0.374000  0.736400  0.693900  0.25
  C  C1927  1  0.362400  0.736400  0.193900  0.25
  C  C1928  1  0.626000  0.263600  0.306100  0.25
  C  C1929  1  0.646180  0.311560  0.405100  0.44
  C  C1930  1  0.334620  0.688440  0.094900  0.44
  C  C1931  1  0.353820  0.688440  0.594900  0.44
  C  C1932  1  0.665380  0.311560  0.905100  0.44
  C  C1933  1  0.601000  0.310200  0.397500  0.44
  C  C1934  1  0.290800  0.689800  0.102500  0.44
  C  C1935  1  0.399000  0.689800  0.602500  0.44
  C  C1936  1  0.709200  0.310200  0.897500  0.44
  C  C1937  1  0.593800  0.330200  0.382300  0.44
  C  C1938  1  0.263600  0.669800  0.117700  0.44
  C  C1939  1  0.406200  0.669800  0.617700  0.44
  C  C1940  1  0.736400  0.330200  0.882300  0.44
  C  C1941  1  0.631600  0.352200  0.374200  0.44
  C  C1942  1  0.279400  0.647800  0.125800  0.44
  C  C1943  1  0.368400  0.647800  0.625800  0.44
  C  C1944  1  0.720600  0.352200  0.874200  0.44
  C  C1945  1  0.676800  0.353200  0.381900  0.44
  C  C1946  1  0.323600  0.646800  0.118100  0.44
  C  C1947  1  0.323200  0.646800  0.618100  0.44
  C  C1948  1  0.676400  0.353200  0.881900  0.44
  C  C1949  1  0.684100  0.333200  0.397100  0.44
  C  C1950  1  0.350900  0.666800  0.102900  0.44
  C  C1951  1  0.315900  0.666800  0.602900  0.44
  C  C1952  1  0.649100  0.333200  0.897100  0.44
  C  C1953  1  0.623800  0.374200  0.358400  0.44
  C  C1954  1  0.249600  0.625800  0.141600  0.44
  C  C1955  1  0.376200  0.625800  0.641600  0.44
  C  C1956  1  0.750400  0.374200  0.858400  0.44
  C  C1957  1  0.922300  0.309800  0.501300  0.482
  C  C1958  1  0.612500  0.690200  0.998700  0.482
  C  C1959  1  0.077700  0.690200  0.498700  0.482
  C  C1960  1  0.387500  0.309800  0.001300  0.482
  C  C1961  1  0.802700  0.303000  0.816100  0.5
  C  C1962  1  0.499700  0.697000  0.683900  0.5
  C  C1963  1  0.197300  0.697000  0.183900  0.5
  C  C1964  1  0.500300  0.303000  0.316100  0.5
  C  C1965  1  0.624800  0.270000  0.814900  0.5
  C  C1966  1  0.354800  0.730000  0.685100  0.5
  C  C1967  1  0.375200  0.730000  0.185100  0.5
  C  C1968  1  0.645200  0.270000  0.314900  0.5
  C  C1969  1  0.867600  0.268400  0.493300  0.518
  C  C1970  1  0.599200  0.731600  0.006700  0.518
  C  C1971  1  0.132400  0.731600  0.506700  0.518
  C  C1972  1  0.400800  0.268400  0.993300  0.518
  C  C1973  1  0.642500  0.323600  0.435900  0.56
  C  C1974  1  0.318900  0.676400  0.064100  0.56
  C  C1975  1  0.357500  0.676400  0.564100  0.56
  C  C1976  1  0.681100  0.323600  0.935900  0.56
  C  C1977  1  0.616150  0.319700  0.410900  0.56
  C  C1978  1  0.296450  0.680300  0.089100  0.56
  C  C1979  1  0.383850  0.680300  0.589100  0.56
  C  C1980  1  0.703550  0.319700  0.910900  0.56
  C  C1981  1  0.608700  0.344600  0.403600  0.56
  C  C1982  1  0.264100  0.655400  0.096400  0.56
  C  C1983  1  0.391300  0.655400  0.596400  0.56
  C  C1984  1  0.735900  0.344600  0.903600  0.56
  C  C1985  1  0.627300  0.374000  0.421000  0.56
  C  C1986  1  0.253300  0.626000  0.079000  0.56
  C  C1987  1  0.372700  0.626000  0.579000  0.56
  C  C1988  1  0.746700  0.374000  0.921000  0.56
  C  C1989  1  0.653700  0.377400  0.446000  0.56
  C  C1990  1  0.276300  0.622600  0.054000  0.56
  C  C1991  1  0.346300  0.622600  0.554000  0.56
  C  C1992  1  0.723700  0.377400  0.946000  0.56
  C  C1993  1  0.661300  0.352600  0.453400  0.56
  C  C1994  1  0.308700  0.647400  0.046600  0.56
  C  C1995  1  0.338700  0.647400  0.546600  0.56
  C  C1996  1  0.691300  0.352600  0.953400  0.56
  C  C1997  1  0.618200  0.400800  0.413400  0.56
  C  C1998  1  0.217400  0.599200  0.086600  0.56
  C  C1999  1  0.381800  0.599200  0.586600  0.56
  C  C2000  1  0.782600  0.400800  0.913400  0.56
  Cd  Cd2001  1  0.989330  0.360560  0.741620  1.0
  Cd  Cd2002  1  0.628770  0.639440  0.758380  1.0
  Cd  Cd2003  1  0.010670  0.639440  0.258380  1.0
  Cd  Cd2004  1  0.371230  0.360560  0.241620  1.0
  Cd  Cd2005  1  0.161050  0.265300  0.629520  1.0
  Cd  Cd2006  1  0.895750  0.734700  0.870480  1.0
  Cd  Cd2007  1  0.838950  0.734700  0.370480  1.0
  Cd  Cd2008  1  0.104250  0.265300  0.129520  1.0
  Cd  Cd2009  1  0.062110  0.125300  0.468760  1.0
  Cd  Cd2010  1  0.936810  0.874700  0.031240  1.0
  Cd  Cd2011  1  0.937890  0.874700  0.531240  1.0
  Cd  Cd2012  1  0.063190  0.125300  0.968760  1.0
  Cd  Cd2013  1  0.776880  0.060060  0.406970  1.0
  Cd  Cd2014  1  0.716820  0.939940  0.093030  1.0
  Cd  Cd2015  1  0.223120  0.939940  0.593030  1.0
  Cd  Cd2016  1  0.283180  0.060060  0.906970  1.0
  Cd  Cd2017  1  0.597530  0.125780  0.523000  1.0
  Cd  Cd2018  1  0.471750  0.874220  0.977000  1.0
  Cd  Cd2019  1  0.402470  0.874220  0.477000  1.0
  Cd  Cd2020  1  0.528250  0.125780  0.023000  1.0
  Cd  Cd2021  1  0.692450  0.274460  0.679500  1.0
  Cd  Cd2022  1  0.417990  0.725540  0.820500  1.0
  Cd  Cd2023  1  0.307550  0.725540  0.320500  1.0
  Cd  Cd2024  1  0.582010  0.274460  0.179500  1.0
  Cd  Cd2025  1  0.029300  0.475280  0.635370  1.0
  Cd  Cd2026  1  0.554020  0.524720  0.864630  1.0
  Cd  Cd2027  1  0.970700  0.524720  0.364630  1.0
  Cd  Cd2028  1  0.445980  0.475280  0.135370  1.0
  Cd  Cd2029  1  0.211340  0.391620  0.533320  1.0
  Cd  Cd2030  1  0.819720  0.608380  0.966680  1.0
  Cd  Cd2031  1  0.788660  0.608380  0.466680  1.0
  Cd  Cd2032  1  0.180280  0.391620  0.033320  1.0
  Cd  Cd2033  1  0.078820  0.256120  0.379900  1.0
  Cd  Cd2034  1  0.822700  0.743880  0.120100  1.0
  Cd  Cd2035  1  0.921180  0.743880  0.620100  1.0
  Cd  Cd2036  1  0.177300  0.256120  0.879900  1.0
  Cd  Cd2037  1  0.776280  0.193280  0.327430  1.0
  Cd  Cd2038  1  0.583000  0.806720  0.172570  1.0
  Cd  Cd2039  1  0.223720  0.806720  0.672570  1.0
  Cd  Cd2040  1  0.417000  0.193280  0.827430  1.0
  Cd  Cd2041  1  0.587940  0.253720  0.440600  1.0
  Cd  Cd2042  1  0.334220  0.746280  0.059400  1.0
  Cd  Cd2043  1  0.412060  0.746280  0.559400  1.0
  Cd  Cd2044  1  0.665780  0.253720  0.940600  1.0
  Cd  Cd2045  1  0.719450  0.404480  0.588070  1.0
  Cd  Cd2046  1  0.314970  0.595520  0.911930  1.0
  Cd  Cd2047  1  0.280550  0.595520  0.411930  1.0
  Cd  Cd2048  1  0.685030  0.404480  0.088070  1.0
  F  F2049  1  0.143320  0.358840  0.628700  1.0
  F  F2050  1  0.784480  0.641160  0.871300  1.0
  F  F2051  1  0.856680  0.641160  0.371300  1.0
  F  F2052  1  0.215520  0.358840  0.128700  1.0
  F  F2053  1  0.066290  0.357580  0.618700  1.0
  F  F2054  1  0.708710  0.642420  0.881300  1.0
  F  F2055  1  0.933710  0.642420  0.381300  1.0
  F  F2056  1  0.291290  0.357580  0.118700  1.0
  F  F2057  1  0.093430  0.365060  0.666400  1.0
  F  F2058  1  0.728370  0.634940  0.833600  1.0
  F  F2059  1  0.906570  0.634940  0.333600  1.0
  F  F2060  1  0.271630  0.365060  0.166400  1.0
  F  F2061  1  0.078940  0.405680  0.651400  1.0
  F  F2062  1  0.673260  0.594320  0.848600  1.0
  F  F2063  1  0.921060  0.594320  0.348600  1.0
  F  F2064  1  0.326740  0.405680  0.151400  1.0
  F  F2065  1  0.163780  0.293960  0.526500  1.0
  F  F2066  1  0.869820  0.706040  0.973500  1.0
  F  F2067  1  0.836220  0.706040  0.473500  1.0
  F  F2068  1  0.130180  0.293960  0.026500  1.0
  F  F2069  1  0.137040  0.242880  0.532400  1.0
  F  F2070  1  0.894160  0.757120  0.967600  1.0
  F  F2071  1  0.862960  0.757120  0.467600  1.0
  F  F2072  1  0.105840  0.242880  0.032400  1.0
  F  F2073  1  0.086180  0.262160  0.511000  1.0
  F  F2074  1  0.824020  0.737840  0.989000  1.0
  F  F2075  1  0.913820  0.737840  0.489000  1.0
  F  F2076  1  0.175980  0.262160  0.011000  1.0
  F  F2077  1  0.114420  0.224240  0.481100  1.0
  F  F2078  1  0.890180  0.775760  0.018900  1.0
  F  F2079  1  0.885580  0.775760  0.518900  1.0
  F  F2080  1  0.109820  0.224240  0.981100  1.0
  F  F2081  1  0.141370  0.275540  0.476200  1.0
  F  F2082  1  0.865830  0.724460  0.023800  1.0
  F  F2083  1  0.858630  0.724460  0.523800  1.0
  F  F2084  1  0.134170  0.275540  0.976200  1.0
  F  F2085  1  0.192270  0.256940  0.499200  1.0
  F  F2086  1  0.935330  0.743060  0.000800  1.0
  F  F2087  1  0.807730  0.743060  0.500800  1.0
  F  F2088  1  0.064670  0.256940  0.999200  1.0
  F  F2089  1  0.917640  0.179680  0.419100  1.0
  F  F2090  1  0.737960  0.820320  0.080900  1.0
  F  F2091  1  0.082360  0.820320  0.580900  1.0
  F  F2092  1  0.262040  0.179680  0.919100  1.0
  F  F2093  1  0.984730  0.173460  0.394500  1.0
  F  F2094  1  0.811270  0.826540  0.105500  1.0
  F  F2095  1  0.015270  0.826540  0.605500  1.0
  F  F2096  1  0.188730  0.173460  0.894500  1.0
  F  F2097  1  0.868810  0.132420  0.387300  1.0
  F  F2098  1  0.736390  0.867580  0.112700  1.0
  F  F2099  1  0.131190  0.867580  0.612700  1.0
  F  F2100  1  0.263610  0.132420  0.887300  1.0
  F  F2101  1  0.917420  0.174840  0.368400  1.0
  F  F2102  1  0.742580  0.825160  0.131600  1.0
  F  F2103  1  0.082580  0.825160  0.631600  1.0
  F  F2104  1  0.257420  0.174840  0.868400  1.0
  F  F2105  1  0.935570  0.127140  0.363600  1.0
  F  F2106  1  0.808430  0.872860  0.136400  1.0
  F  F2107  1  0.064430  0.872860  0.636400  1.0
  F  F2108  1  0.191570  0.127140  0.863600  1.0
  F  F2109  1  0.681880  0.122160  0.425400  1.0
  F  F2110  1  0.559720  0.877840  0.074600  1.0
  F  F2111  1  0.318120  0.877840  0.574600  1.0
  F  F2112  1  0.440280  0.122160  0.925400  1.0
  F  F2113  1  0.657190  0.180180  0.407500  1.0
  F  F2114  1  0.477010  0.819820  0.092500  1.0
  F  F2115  1  0.342810  0.819820  0.592500  1.0
  F  F2116  1  0.522990  0.180180  0.907500  1.0
  F  F2117  1  0.635260  0.153920  0.443700  1.0
  F  F2118  1  0.481340  0.846080  0.056300  1.0
  F  F2119  1  0.364740  0.846080  0.556300  1.0
  F  F2120  1  0.518660  0.153920  0.943700  1.0
  F  F2121  1  0.622600  0.127400  0.394900  1.0
  F  F2122  1  0.495200  0.872600  0.105100  1.0
  F  F2123  1  0.377400  0.872600  0.605100  1.0
  F  F2124  1  0.504800  0.127400  0.894900  1.0
  F  F2125  1  0.716800  0.175800  0.438500  1.0
  F  F2126  1  0.541000  0.824200  0.061500  1.0
  F  F2127  1  0.283200  0.824200  0.561500  1.0
  F  F2128  1  0.459000  0.175800  0.938500  1.0
  F  F2129  1  0.705650  0.149300  0.388700  1.0
  F  F2130  1  0.556350  0.850700  0.111300  1.0
  F  F2131  1  0.294350  0.850700  0.611300  1.0
  F  F2132  1  0.443650  0.149300  0.888700  1.0
  F  F2133  1  0.699280  0.261160  0.552000  1.0
  F  F2134  1  0.438120  0.738840  0.948000  1.0
  F  F2135  1  0.300720  0.738840  0.448000  1.0
  F  F2136  1  0.561880  0.261160  0.052000  1.0
  F  F2137  1  0.627570  0.232540  0.568000  1.0
  F  F2138  1  0.395030  0.767460  0.932000  1.0
  F  F2139  1  0.372430  0.767460  0.432000  1.0
  F  F2140  1  0.604970  0.232540  0.068000  1.0
  F  F2141  1  0.626940  0.245680  0.522600  1.0
  F  F2142  1  0.381260  0.754320  0.977400  1.0
  F  F2143  1  0.373060  0.754320  0.477400  1.0
  F  F2144  1  0.618740  0.245680  0.022600  1.0
  F  F2145  1  0.593200  0.270200  0.561700  1.0
  F  F2146  1  0.323000  0.729800  0.938300  1.0
  F  F2147  1  0.406800  0.729800  0.438300  1.0
  F  F2148  1  0.677000  0.270200  0.061700  1.0
  F  F2149  1  0.663680  0.285960  0.590600  1.0
  F  F2150  1  0.377720  0.714040  0.909400  1.0
  F  F2151  1  0.336320  0.714040  0.409400  1.0
  F  F2152  1  0.622280  0.285960  0.090600  1.0
  F  F2153  1  0.664280  0.298760  0.546300  1.0
  F  F2154  1  0.365520  0.701240  0.953700  1.0
  F  F2155  1  0.335720  0.701240  0.453700  1.0
  F  F2156  1  0.634480  0.298760  0.046300  1.0
  F  F2157  1  0.828870  0.351740  0.679600  1.0
  F  F2158  1  0.477130  0.648260  0.820400  1.0
  F  F2159  1  0.171130  0.648260  0.320400  1.0
  F  F2160  1  0.522870  0.351740  0.179600  1.0
  F  F2161  1  0.801330  0.379060  0.650400  1.0
  F  F2162  1  0.422270  0.620940  0.849600  1.0
  F  F2163  1  0.198670  0.620940  0.349600  1.0
  F  F2164  1  0.577730  0.379060  0.150400  1.0
  F  F2165  1  0.866890  0.361380  0.637100  1.0
  F  F2166  1  0.505510  0.638620  0.862900  1.0
  F  F2167  1  0.133110  0.638620  0.362900  1.0
  F  F2168  1  0.494490  0.361380  0.137100  1.0
  F  F2169  1  0.905900  0.388200  0.683100  1.0
  F  F2170  1  0.517700  0.611800  0.816900  1.0
  F  F2171  1  0.094100  0.611800  0.316900  1.0
  F  F2172  1  0.482300  0.388200  0.183100  1.0
  F  F2173  1  0.879930  0.414860  0.653600  1.0
  F  F2174  1  0.465070  0.585140  0.846400  1.0
  F  F2175  1  0.120070  0.585140  0.346400  1.0
  F  F2176  1  0.534930  0.414860  0.153600  1.0
  F  F2177  1  0.841740  0.405080  0.696200  1.0
  F  F2178  1  0.436660  0.594920  0.803800  1.0
  F  F2179  1  0.158260  0.594920  0.303800  1.0
  F  F2180  1  0.563340  0.405080  0.196200  1.0
  F  F2181  1  0.306700  0.470200  0.764200  1.0
  F  F2182  1  0.836500  0.529800  0.735800  1.0
  F  F2183  1  0.693300  0.529800  0.235800  1.0
  F  F2184  1  0.163500  0.470200  0.264200  1.0
  F  F2185  1  0.299700  0.428000  0.727600  1.0
  F  F2186  1  0.871700  0.572000  0.772400  1.0
  F  F2187  1  0.700300  0.572000  0.272400  1.0
  F  F2188  1  0.128300  0.428000  0.227600  1.0
  F  F2189  1  0.234900  0.430600  0.752500  1.0
  F  F2190  1  0.804300  0.569400  0.747500  1.0
  F  F2191  1  0.765100  0.569400  0.247500  1.0
  F  F2192  1  0.195700  0.430600  0.252500  1.0
  F  F2193  1  0.415400  0.572200  0.656600  1.0
  F  F2194  1  0.843200  0.427800  0.843400  1.0
  F  F2195  1  0.584600  0.427800  0.343400  1.0
  F  F2196  1  0.156800  0.572200  0.156600  1.0
  F  F2197  1  0.570800  0.441000  0.677900  1.0
  F  F2198  1  0.129800  0.559000  0.822100  1.0
  F  F2199  1  0.429200  0.559000  0.322100  1.0
  F  F2200  1  0.870200  0.441000  0.177900  1.0
  F  F2201  1  0.550000  0.479600  0.655400  1.0
  F  F2202  1  0.070400  0.520400  0.844600  1.0
  F  F2203  1  0.450000  0.520400  0.344600  1.0
  F  F2204  1  0.929600  0.479600  0.155400  1.0
  F  F2205  1  0.488900  0.408400  0.665300  1.0
  F  F2206  1  0.080500  0.591600  0.834700  1.0
  F  F2207  1  0.511100  0.591600  0.334700  1.0
  F  F2208  1  0.919500  0.408400  0.165300  1.0
  F  F2209  1  0.467200  0.445200  0.644500  1.0
  F  F2210  1  0.022000  0.554800  0.855500  1.0
  F  F2211  1  0.532800  0.554800  0.355500  1.0
  F  F2212  1  0.978000  0.445200  0.144500  1.0
  F  F2213  1  0.399180  0.207160  0.492300  1.0
  F  F2214  1  0.192020  0.792840  0.007700  1.0
  F  F2215  1  0.600820  0.792840  0.507700  1.0
  F  F2216  1  0.807980  0.207160  0.992300  1.0
  F  F2217  1  0.329700  0.180800  0.510800  1.0
  F  F2218  1  0.148900  0.819200  0.989200  1.0
  F  F2219  1  0.670300  0.819200  0.489200  1.0
  F  F2220  1  0.851100  0.180800  0.010800  1.0
  F  F2221  1  0.324290  0.211780  0.481300  1.0
  F  F2222  1  0.112510  0.788220  0.018700  1.0
  F  F2223  1  0.675710  0.788220  0.518700  1.0
  F  F2224  1  0.887490  0.211780  0.981300  1.0
  F  F2225  1  0.364400  0.187000  0.443800  1.0
  F  F2226  1  0.177400  0.813000  0.056200  1.0
  F  F2227  1  0.635600  0.813000  0.556200  1.0
  F  F2228  1  0.822600  0.187000  0.943800  1.0
  F  F2229  1  0.367200  0.154000  0.476600  1.0
  F  F2230  1  0.213200  0.846000  0.023400  1.0
  F  F2231  1  0.632800  0.846000  0.523400  1.0
  F  F2232  1  0.786800  0.154000  0.976600  1.0
  F  F2233  1  0.293900  0.159400  0.463600  1.0
  F  F2234  1  0.134500  0.840600  0.036400  1.0
  F  F2235  1  0.706100  0.840600  0.536400  1.0
  F  F2236  1  0.865500  0.159400  0.963600  1.0
  F  F2237  1  0.212100  0.399800  0.372000  1.0
  F  F2238  1  0.812300  0.600200  0.128000  1.0
  F  F2239  1  0.787900  0.600200  0.628000  1.0
  F  F2240  1  0.187700  0.399800  0.872000  1.0
  F  F2241  1  0.291300  0.402400  0.361900  1.0
  F  F2242  1  0.888900  0.597600  0.138100  1.0
  F  F2243  1  0.708700  0.597600  0.638100  1.0
  F  F2244  1  0.111100  0.402400  0.861900  1.0
  F  F2245  1  0.861800  0.413600  0.525500  1.0
  F  F2246  1  0.448200  0.586400  0.974500  1.0
  F  F2247  1  0.138200  0.586400  0.474500  1.0
  F  F2248  1  0.551800  0.413600  0.025500  1.0
  F  F2249  1  0.891200  0.419000  0.573200  1.0
  F  F2250  1  0.472200  0.581000  0.926800  1.0
  F  F2251  1  0.108800  0.581000  0.426800  1.0
  F  F2252  1  0.527800  0.419000  0.073200  1.0
  F  F2253  1  0.944600  0.443800  0.540300  1.0
  F  F2254  1  0.500800  0.556200  0.959700  1.0
  F  F2255  1  0.055400  0.556200  0.459700  1.0
  F  F2256  1  0.499200  0.443800  0.040300  1.0
  F  F2257  1  0.923400  0.478600  0.582600  1.0
  F  F2258  1  0.444800  0.521400  0.917400  1.0
  F  F2259  1  0.076600  0.521400  0.417400  1.0
  F  F2260  1  0.555200  0.478600  0.082600  1.0
  F  F2261  1  0.892600  0.471800  0.533900  1.0
  F  F2262  1  0.420800  0.528200  0.966100  1.0
  F  F2263  1  0.107400  0.528200  0.466100  1.0
  F  F2264  1  0.579200  0.471800  0.033900  1.0
  F  F2265  1  0.846300  0.449000  0.569700  1.0
  F  F2266  1  0.397300  0.551000  0.930300  1.0
  F  F2267  1  0.153700  0.551000  0.430300  1.0
  F  F2268  1  0.602700  0.449000  0.069700  1.0
  F  F2269  1  0.950700  0.242200  0.659800  1.0
  F  F2270  1  0.708500  0.757800  0.840200  1.0
  F  F2271  1  0.049300  0.757800  0.340200  1.0
  F  F2272  1  0.291500  0.242200  0.159800  1.0
  F  F2273  1  0.854700  0.174800  0.655700  1.0
  F  F2274  1  0.679900  0.825200  0.844300  1.0
  F  F2275  1  0.145300  0.825200  0.344300  1.0
  F  F2276  1  0.320100  0.174800  0.155700  1.0
  F  F2277  1  0.930900  0.193600  0.626100  1.0
  F  F2278  1  0.737300  0.806400  0.873900  1.0
  F  F2279  1  0.069100  0.806400  0.373900  1.0
  F  F2280  1  0.262700  0.193600  0.126100  1.0
  F  F2281  1  0.926500  0.190800  0.672400  1.0
  F  F2282  1  0.735700  0.809200  0.827600  1.0
  F  F2283  1  0.073500  0.809200  0.327600  1.0
  F  F2284  1  0.264300  0.190800  0.172400  1.0
  F  F2285  1  0.874000  0.227400  0.682500  1.0
  F  F2286  1  0.646600  0.772600  0.817500  1.0
  F  F2287  1  0.126000  0.772600  0.317500  1.0
  F  F2288  1  0.353400  0.227400  0.182500  1.0
  F  F2289  1  0.782130  0.308860  0.423300  1.0
  F  F2290  1  0.473270  0.691140  0.076700  1.0
  F  F2291  1  0.217870  0.691140  0.576700  1.0
  F  F2292  1  0.526730  0.308860  0.923300  1.0
  F  F2293  1  0.869400  0.204400  0.527600  1.0
  F  F2294  1  0.665000  0.795600  0.972400  1.0
  F  F2295  1  0.130600  0.795600  0.472400  1.0
  F  F2296  1  0.335000  0.204400  0.027600  1.0
  F  F2297  1  0.843900  0.218400  0.568100  1.0
  F  F2298  1  0.625500  0.781600  0.931900  1.0
  F  F2299  1  0.156100  0.781600  0.431900  1.0
  F  F2300  1  0.374500  0.218400  0.068100  1.0
  F  F2301  1  0.909400  0.212200  0.567000  1.0
  F  F2302  1  0.697200  0.787800  0.933000  1.0
  F  F2303  1  0.090600  0.787800  0.433000  1.0
  F  F2304  1  0.302800  0.212200  0.067000  1.0
  F  F2305  1  0.411000  0.333600  0.782800  0.15
  F  F2306  1  0.077400  0.666400  0.717200  0.15
  F  F2307  1  0.589000  0.666400  0.217200  0.15
  F  F2308  1  0.922600  0.333600  0.282800  0.15
  F  F2309  1  0.813300  0.087000  0.530500  0.15
  F  F2310  1  0.726300  0.913000  0.969500  0.15
  F  F2311  1  0.186700  0.913000  0.469500  0.15
  F  F2312  1  0.273700  0.087000  0.030500  0.15
  F  F2313  1  0.056400  0.401000  0.461900  0.25
  F  F2314  1  0.655400  0.599000  0.038100  0.25
  F  F2315  1  0.943600  0.599000  0.538100  0.25
  F  F2316  1  0.344600  0.401000  0.961900  0.25
  F  F2317  1  0.881400  0.100000  0.561600  0.25
  F  F2318  1  0.781400  0.900000  0.938400  0.25
  F  F2319  1  0.118600  0.900000  0.438400  0.25
  F  F2320  1  0.218600  0.100000  0.061600  0.25
  F  F2321  1  0.812400  0.108600  0.579800  0.25
  F  F2322  1  0.703800  0.891400  0.920200  0.25
  F  F2323  1  0.187600  0.891400  0.420200  0.25
  F  F2324  1  0.296200  0.108600  0.079800  0.25
  F  F2325  1  0.880800  0.129600  0.527200  0.25
  F  F2326  1  0.751200  0.870400  0.972800  0.25
  F  F2327  1  0.119200  0.870400  0.472800  0.25
  F  F2328  1  0.248800  0.129600  0.027200  0.25
  F  F2329  1  0.648300  0.292600  0.818700  0.25
  F  F2330  1  0.355700  0.707400  0.681300  0.25
  F  F2331  1  0.351700  0.707400  0.181300  0.25
  F  F2332  1  0.644300  0.292600  0.318700  0.25
  F  F2333  1  0.608900  0.245800  0.820100  0.25
  F  F2334  1  0.363100  0.754200  0.679900  0.25
  F  F2335  1  0.391100  0.754200  0.179900  0.25
  F  F2336  1  0.636900  0.245800  0.320100  0.25
  F  F2337  1  0.618300  0.258200  0.780300  0.25
  F  F2338  1  0.360100  0.741800  0.719700  0.25
  F  F2339  1  0.381700  0.741800  0.219700  0.25
  F  F2340  1  0.639900  0.258200  0.280300  0.25
  F  F2341  1  0.416800  0.369600  0.606300  0.3
  F  F2342  1  0.047200  0.630400  0.893700  0.3
  F  F2343  1  0.583200  0.630400  0.393700  0.3
  F  F2344  1  0.952800  0.369600  0.106300  0.3
  F  F2345  1  0.364300  0.253800  0.670300  0.3
  F  F2346  1  0.110500  0.746200  0.829700  0.3
  F  F2347  1  0.635700  0.746200  0.329700  0.3
  F  F2348  1  0.889500  0.253800  0.170300  0.3
  F  F2349  1  0.368600  0.221200  0.612900  0.3
  F  F2350  1  0.147400  0.778800  0.887100  0.3
  F  F2351  1  0.631400  0.778800  0.387100  0.3
  F  F2352  1  0.852600  0.221200  0.112900  0.3
  F  F2353  1  0.392600  0.380200  0.797800  0.3
  F  F2354  1  0.012400  0.619800  0.702200  0.3
  F  F2355  1  0.607400  0.619800  0.202200  0.3
  F  F2356  1  0.987600  0.380200  0.297800  0.3
  F  F2357  1  0.385000  0.344400  0.788700  0.3
  F  F2358  1  0.040600  0.655600  0.711300  0.3
  F  F2359  1  0.615000  0.655600  0.211300  0.3
  F  F2360  1  0.959400  0.344400  0.288700  0.3
  F  F2361  1  0.378100  0.543200  0.701100  0.312
  F  F2362  1  0.834900  0.456800  0.798900  0.312
  F  F2363  1  0.621900  0.456800  0.298900  0.312
  F  F2364  1  0.165100  0.543200  0.201100  0.312
  F  F2365  1  0.352500  0.572400  0.695900  0.312
  F  F2366  1  0.780100  0.427600  0.804100  0.312
  F  F2367  1  0.647500  0.427600  0.304100  0.312
  F  F2368  1  0.219900  0.572400  0.195900  0.312
  F  F2369  1  0.344500  0.511200  0.662900  0.312
  F  F2370  1  0.833300  0.488800  0.837100  0.312
  F  F2371  1  0.655500  0.488800  0.337100  0.312
  F  F2372  1  0.166700  0.511200  0.162900  0.312
  F  F2373  1  0.303500  0.546600  0.670000  0.312
  F  F2374  1  0.756900  0.453400  0.830000  0.312
  F  F2375  1  0.696500  0.453400  0.330000  0.312
  F  F2376  1  0.243100  0.546600  0.170000  0.312
  F  F2377  1  0.364000  0.540000  0.631600  0.312
  F  F2378  1  0.824000  0.460000  0.868400  0.312
  F  F2379  1  0.636000  0.460000  0.368400  0.312
  F  F2380  1  0.176000  0.540000  0.131600  0.312
  F  F2381  1  0.880600  0.225000  0.631800  0.37
  F  F2382  1  0.655600  0.775000  0.868200  0.37
  F  F2383  1  0.119400  0.775000  0.368200  0.37
  F  F2384  1  0.344400  0.225000  0.131800  0.37
  F  F2385  1  0.253100  0.344200  0.339300  0.373
  F  F2386  1  0.908900  0.655800  0.160700  0.373
  F  F2387  1  0.746900  0.655800  0.660700  0.373
  F  F2388  1  0.091100  0.344200  0.839300  0.373
  F  F2389  1  0.201800  0.349400  0.376900  0.373
  F  F2390  1  0.852400  0.650600  0.123100  0.373
  F  F2391  1  0.798200  0.650600  0.623100  0.373
  F  F2392  1  0.147600  0.349400  0.876900  0.373
  F  F2393  1  0.243600  0.378200  0.413000  0.373
  F  F2394  1  0.865400  0.621800  0.087000  0.373
  F  F2395  1  0.756400  0.621800  0.587000  0.373
  F  F2396  1  0.134600  0.378200  0.913000  0.373
  F  F2397  1  0.224200  0.378400  0.345800  0.373
  F  F2398  1  0.845800  0.621600  0.154200  0.373
  F  F2399  1  0.775800  0.621600  0.654200  0.373
  F  F2400  1  0.154200  0.378400  0.845800  0.373
  F  F2401  1  0.516700  0.463400  0.694600  0.39
  F  F2402  1  0.053300  0.536600  0.805400  0.39
  F  F2403  1  0.483300  0.536600  0.305400  0.39
  F  F2404  1  0.946700  0.463400  0.194600  0.39
  F  F2405  1  0.154900  0.401000  0.664700  0.41
  F  F2406  1  0.753900  0.599000  0.835300  0.41
  F  F2407  1  0.845100  0.599000  0.335300  0.41
  F  F2408  1  0.246100  0.401000  0.164700  0.41
  F  F2409  1  0.145800  0.406000  0.622100  0.41
  F  F2410  1  0.739800  0.594000  0.877900  0.41
  F  F2411  1  0.854200  0.594000  0.377900  0.41
  F  F2412  1  0.260200  0.406000  0.122100  0.41
  F  F2413  1  0.343800  0.432000  0.771400  0.482
  F  F2414  1  0.911800  0.568000  0.728600  0.482
  F  F2415  1  0.656200  0.568000  0.228600  0.482
  F  F2416  1  0.088200  0.432000  0.271400  0.482
  F  F2417  1  0.283800  0.452800  0.791100  0.482
  F  F2418  1  0.831000  0.547200  0.708900  0.482
  F  F2419  1  0.716200  0.547200  0.208900  0.482
  F  F2420  1  0.169000  0.452800  0.291100  0.482
  F  F2421  1  0.263500  0.399800  0.766600  0.482
  F  F2422  1  0.863700  0.600200  0.733400  0.482
  F  F2423  1  0.736500  0.600200  0.233400  0.482
  F  F2424  1  0.136300  0.399800  0.266600  0.482
  F  F2425  1  0.962100  0.318600  0.514300  0.482
  F  F2426  1  0.643500  0.681400  0.985700  0.482
  F  F2427  1  0.037900  0.681400  0.485700  0.482
  F  F2428  1  0.356500  0.318600  0.014300  0.482
  F  F2429  1  0.896400  0.328000  0.511700  0.482
  F  F2430  1  0.568400  0.672000  0.988300  0.482
  F  F2431  1  0.103600  0.672000  0.488300  0.482
  F  F2432  1  0.431600  0.328000  0.011700  0.482
  F  F2433  1  0.917000  0.306600  0.474000  0.482
  F  F2434  1  0.610400  0.693400  0.026000  0.482
  F  F2435  1  0.083000  0.693400  0.526000  0.482
  F  F2436  1  0.389600  0.306600  0.974000  0.482
  F  F2437  1  0.946400  0.131400  0.408800  0.49
  F  F2438  1  0.815000  0.868600  0.091200  0.49
  F  F2439  1  0.053600  0.868600  0.591200  0.49
  F  F2440  1  0.185000  0.131400  0.908800  0.49
  F  F2441  1  0.533500  0.428000  0.627400  0.5
  F  F2442  1  0.105500  0.572000  0.872600  0.5
  F  F2443  1  0.466500  0.572000  0.372600  0.5
  F  F2444  1  0.894500  0.428000  0.127400  0.5
  F  F2445  1  0.475900  0.360200  0.759500  0.5
  F  F2446  1  0.115700  0.639800  0.740500  0.5
  F  F2447  1  0.524100  0.639800  0.240500  0.5
  F  F2448  1  0.884300  0.360200  0.259500  0.5
  F  F2449  1  0.469600  0.379000  0.808700  0.5
  F  F2450  1  0.090600  0.621000  0.691300  0.5
  F  F2451  1  0.530400  0.621000  0.191300  0.5
  F  F2452  1  0.909400  0.379000  0.308700  0.5
  F  F2453  1  0.399000  0.360600  0.748600  0.5
  F  F2454  1  0.038400  0.639400  0.751400  0.5
  F  F2455  1  0.601000  0.639400  0.251400  0.5
  F  F2456  1  0.961600  0.360600  0.248600  0.5
  F  F2457  1  0.457700  0.406200  0.774200  0.5
  F  F2458  1  0.051500  0.593800  0.725800  0.5
  F  F2459  1  0.542300  0.593800  0.225800  0.5
  F  F2460  1  0.948500  0.406200  0.274200  0.5
  F  F2461  1  0.417100  0.391200  0.806300  0.5
  F  F2462  1  0.025900  0.608800  0.693700  0.5
  F  F2463  1  0.582900  0.608800  0.193700  0.5
  F  F2464  1  0.974100  0.391200  0.306300  0.5
  F  F2465  1  0.776300  0.356400  0.449000  0.5
  F  F2466  1  0.419900  0.643600  0.051000  0.5
  F  F2467  1  0.223700  0.643600  0.551000  0.5
  F  F2468  1  0.580100  0.356400  0.949000  0.5
  F  F2469  1  0.864400  0.331000  0.423000  0.5
  F  F2470  1  0.533400  0.669000  0.077000  0.5
  F  F2471  1  0.135600  0.669000  0.577000  0.5
  F  F2472  1  0.466600  0.331000  0.923000  0.5
  F  F2473  1  0.813100  0.353400  0.404900  0.5
  F  F2474  1  0.459700  0.646600  0.095100  0.5
  F  F2475  1  0.186900  0.646600  0.595100  0.5
  F  F2476  1  0.540300  0.353400  0.904900  0.5
  F  F2477  1  0.828000  0.334600  0.467300  0.5
  F  F2478  1  0.493400  0.665400  0.032700  0.5
  F  F2479  1  0.172000  0.665400  0.532700  0.5
  F  F2480  1  0.506600  0.334600  0.967300  0.5
  F  F2481  1  0.859000  0.379200  0.448800  0.5
  F  F2482  1  0.479800  0.620800  0.051200  0.5
  F  F2483  1  0.141000  0.620800  0.551200  0.5
  F  F2484  1  0.520200  0.379200  0.948800  0.5
  F  F2485  1  0.846700  0.334200  0.403600  0.5
  F  F2486  1  0.512500  0.665800  0.096400  0.5
  F  F2487  1  0.153300  0.665800  0.596400  0.5
  F  F2488  1  0.487500  0.334200  0.903600  0.5
  F  F2489  1  0.849600  0.320800  0.447800  0.5
  F  F2490  1  0.528800  0.679200  0.052200  0.5
  F  F2491  1  0.150400  0.679200  0.552200  0.5
  F  F2492  1  0.471200  0.320800  0.947800  0.5
  F  F2493  1  0.806000  0.352200  0.469700  0.5
  F  F2494  1  0.453800  0.647800  0.030300  0.5
  F  F2495  1  0.194000  0.647800  0.530300  0.5
  F  F2496  1  0.546200  0.352200  0.969700  0.5
  F  F2497  1  0.880400  0.362600  0.443500  0.5
  F  F2498  1  0.517800  0.637400  0.056500  0.5
  F  F2499  1  0.119600  0.637400  0.556500  0.5
  F  F2500  1  0.482200  0.362600  0.943500  0.5
  F  F2501  1  0.791800  0.354800  0.413300  0.5
  F  F2502  1  0.437000  0.645200  0.086700  0.5
  F  F2503  1  0.208200  0.645200  0.586700  0.5
  F  F2504  1  0.563000  0.354800  0.913300  0.5
  F  F2505  1  0.996700  0.423400  0.476500  0.5
  F  F2506  1  0.573300  0.576600  0.023500  0.5
  F  F2507  1  0.003300  0.576600  0.523500  0.5
  F  F2508  1  0.426700  0.423400  0.976500  0.5
  F  F2509  1  0.005800  0.353000  0.468200  0.5
  F  F2510  1  0.652800  0.647000  0.031800  0.5
  F  F2511  1  0.994200  0.647000  0.531800  0.5
  F  F2512  1  0.347200  0.353000  0.968200  0.5
  F  F2513  1  0.021400  0.397000  0.507100  0.5
  F  F2514  1  0.624400  0.603000  0.992900  0.5
  F  F2515  1  0.978600  0.603000  0.492900  0.5
  F  F2516  1  0.375600  0.397000  0.007100  0.5
  F  F2517  1  0.980300  0.379400  0.438000  0.5
  F  F2518  1  0.600900  0.620600  0.062000  0.5
  F  F2519  1  0.019700  0.620600  0.562000  0.5
  F  F2520  1  0.399100  0.379400  0.938000  0.5
  F  F2521  1  0.946400  0.375400  0.482700  0.5
  F  F2522  1  0.571000  0.624600  0.017300  0.5
  F  F2523  1  0.053600  0.624600  0.517300  0.5
  F  F2524  1  0.429000  0.375400  0.982700  0.5
  F  F2525  1  0.984400  0.389400  0.506000  0.5
  F  F2526  1  0.595000  0.610600  0.994000  0.5
  F  F2527  1  0.015600  0.610600  0.494000  0.5
  F  F2528  1  0.405000  0.389400  0.006000  0.5
  F  F2529  1  0.811400  0.137800  0.545400  0.5
  F  F2530  1  0.673600  0.862200  0.954600  0.5
  F  F2531  1  0.188600  0.862200  0.454600  0.5
  F  F2532  1  0.326400  0.137800  0.045400  0.5
  F  F2533  1  0.879200  0.150800  0.577200  0.5
  F  F2534  1  0.728400  0.849200  0.922800  0.5
  F  F2535  1  0.120800  0.849200  0.422800  0.5
  F  F2536  1  0.271600  0.150800  0.077200  0.5
  F  F2537  1  0.904400  0.135000  0.569200  0.5
  F  F2538  1  0.769400  0.865000  0.930800  0.5
  F  F2539  1  0.095600  0.865000  0.430800  0.5
  F  F2540  1  0.230600  0.135000  0.069200  0.5
  F  F2541  1  0.821300  0.141800  0.574300  0.5
  F  F2542  1  0.679500  0.858200  0.925700  0.5
  F  F2543  1  0.178700  0.858200  0.425700  0.5
  F  F2544  1  0.320500  0.141800  0.074300  0.5
  F  F2545  1  0.890800  0.115600  0.537400  0.5
  F  F2546  1  0.775200  0.884400  0.962600  0.5
  F  F2547  1  0.109200  0.884400  0.462600  0.5
  F  F2548  1  0.224800  0.115600  0.037400  0.5
  F  F2549  1  0.792700  0.298200  0.788600  0.5
  F  F2550  1  0.494500  0.701800  0.711400  0.5
  F  F2551  1  0.207300  0.701800  0.211400  0.5
  F  F2552  1  0.505500  0.298200  0.288600  0.5
  F  F2553  1  0.798900  0.329200  0.829200  0.5
  F  F2554  1  0.469700  0.670800  0.670800  0.5
  F  F2555  1  0.201100  0.670800  0.170800  0.5
  F  F2556  1  0.530300  0.329200  0.329200  0.5
  F  F2557  1  0.844800  0.302600  0.820200  0.5
  F  F2558  1  0.542200  0.697400  0.679800  0.5
  F  F2559  1  0.155200  0.697400  0.179800  0.5
  F  F2560  1  0.457800  0.302600  0.320200  0.5
  F  F2561  1  0.590400  0.260200  0.795900  0.5
  F  F2562  1  0.330200  0.739800  0.704100  0.5
  F  F2563  1  0.409600  0.739800  0.204100  0.5
  F  F2564  1  0.669800  0.260200  0.295900  0.5
  F  F2565  1  0.646400  0.300000  0.818700  0.5
  F  F2566  1  0.346400  0.700000  0.681300  0.5
  F  F2567  1  0.353600  0.700000  0.181300  0.5
  F  F2568  1  0.653600  0.300000  0.318700  0.5
  F  F2569  1  0.614300  0.263600  0.839500  0.5
  F  F2570  1  0.350700  0.736400  0.660500  0.5
  F  F2571  1  0.385700  0.736400  0.160500  0.5
  F  F2572  1  0.649300  0.263600  0.339500  0.5
  F  F2573  1  0.928100  0.136200  0.418500  0.51
  F  F2574  1  0.791900  0.863800  0.081500  0.51
  F  F2575  1  0.071900  0.863800  0.581500  0.51
  F  F2576  1  0.208100  0.136200  0.918500  0.51
  F  F2577  1  0.350500  0.443800  0.764300  0.518
  F  F2578  1  0.906700  0.556200  0.735700  0.518
  F  F2579  1  0.649500  0.556200  0.235700  0.518
  F  F2580  1  0.093300  0.443800  0.264300  0.518
  F  F2581  1  0.287000  0.435400  0.795600  0.518
  F  F2582  1  0.851600  0.564600  0.704400  0.518
  F  F2583  1  0.713000  0.564600  0.204400  0.518
  F  F2584  1  0.148400  0.435400  0.295600  0.518
  F  F2585  1  0.286560  0.396520  0.753800  0.518
  F  F2586  1  0.890040  0.603480  0.746200  0.518
  F  F2587  1  0.713440  0.603480  0.246200  0.518
  F  F2588  1  0.109960  0.396520  0.253800  0.518
  F  F2589  1  0.887200  0.248600  0.479600  0.518
  F  F2590  1  0.638600  0.751400  0.020400  0.518
  F  F2591  1  0.112800  0.751400  0.520400  0.518
  F  F2592  1  0.361400  0.248600  0.979600  0.518
  F  F2593  1  0.822300  0.260200  0.493200  0.518
  F  F2594  1  0.562100  0.739800  0.006800  0.518
  F  F2595  1  0.177700  0.739800  0.506800  0.518
  F  F2596  1  0.437900  0.260200  0.993200  0.518
  F  F2597  1  0.880600  0.291000  0.478700  0.518
  F  F2598  1  0.589600  0.709000  0.021300  0.518
  F  F2599  1  0.119400  0.709000  0.521300  0.518
  F  F2600  1  0.410400  0.291000  0.978700  0.518
  F  F2601  1  0.160600  0.411200  0.649500  0.59
  F  F2602  1  0.749400  0.588800  0.850500  0.59
  F  F2603  1  0.839400  0.588800  0.350500  0.59
  F  F2604  1  0.250600  0.411200  0.149500  0.59
  F  F2605  1  0.119600  0.394200  0.609100  0.59
  F  F2606  1  0.725400  0.605800  0.890900  0.59
  F  F2607  1  0.880400  0.605800  0.390900  0.59
  F  F2608  1  0.274600  0.394200  0.109100  0.59
  F  F2609  1  0.479200  0.384000  0.594500  0.6
  F  F2610  1  0.095200  0.616000  0.905500  0.6
  F  F2611  1  0.520800  0.616000  0.405500  0.6
  F  F2612  1  0.904800  0.384000  0.094500  0.6
  F  F2613  1  0.398600  0.358600  0.599200  0.6
  F  F2614  1  0.040000  0.641400  0.900800  0.6
  F  F2615  1  0.601400  0.641400  0.400800  0.6
  F  F2616  1  0.960000  0.358600  0.099200  0.6
  F  F2617  1  0.439700  0.335600  0.563500  0.6
  F  F2618  1  0.104100  0.664400  0.936500  0.6
  F  F2619  1  0.560300  0.664400  0.436500  0.6
  F  F2620  1  0.895900  0.335600  0.063500  0.6
  F  F2621  1  0.463000  0.380800  0.545500  0.6
  F  F2622  1  0.082200  0.619200  0.954500  0.6
  F  F2623  1  0.537000  0.619200  0.454500  0.6
  F  F2624  1  0.917800  0.380800  0.045500  0.6
  F  F2625  1  0.426700  0.404800  0.582600  0.6
  F  F2626  1  0.021900  0.595200  0.917400  0.6
  F  F2627  1  0.573300  0.595200  0.417400  0.6
  F  F2628  1  0.978100  0.404800  0.082600  0.6
  F  F2629  1  0.382200  0.356000  0.549700  0.6
  F  F2630  1  0.026200  0.644000  0.950300  0.6
  F  F2631  1  0.617800  0.644000  0.450300  0.6
  F  F2632  1  0.973800  0.356000  0.049700  0.6
  F  F2633  1  0.343500  0.215000  0.641700  0.6
  F  F2634  1  0.128500  0.785000  0.858300  0.6
  F  F2635  1  0.656500  0.785000  0.358300  0.6
  F  F2636  1  0.871500  0.215000  0.141700  0.6
  F  F2637  1  0.373700  0.269800  0.655500  0.6
  F  F2638  1  0.103900  0.730200  0.844500  0.6
  F  F2639  1  0.626300  0.730200  0.344500  0.6
  F  F2640  1  0.896100  0.269800  0.155500  0.6
  F  F2641  1  0.401700  0.236200  0.678000  0.6
  F  F2642  1  0.165500  0.763800  0.822000  0.6
  F  F2643  1  0.598300  0.763800  0.322000  0.6
  F  F2644  1  0.834500  0.236200  0.178000  0.6
  F  F2645  1  0.451700  0.265800  0.652100  0.6
  F  F2646  1  0.185900  0.734200  0.847900  0.6
  F  F2647  1  0.548300  0.734200  0.347900  0.6
  F  F2648  1  0.814100  0.265800  0.152100  0.6
  F  F2649  1  0.422800  0.216800  0.636600  0.6
  F  F2650  1  0.206000  0.783200  0.863400  0.6
  F  F2651  1  0.577200  0.783200  0.363400  0.6
  F  F2652  1  0.794000  0.216800  0.136600  0.6
  F  F2653  1  0.393300  0.248400  0.612900  0.6
  F  F2654  1  0.144900  0.751600  0.887100  0.6
  F  F2655  1  0.606700  0.751600  0.387100  0.6
  F  F2656  1  0.855100  0.248400  0.112900  0.6
  F  F2657  1  0.486300  0.466200  0.678200  0.61
  F  F2658  1  0.020100  0.533800  0.821800  0.61
  F  F2659  1  0.513700  0.533800  0.321800  0.61
  F  F2660  1  0.979900  0.466200  0.178200  0.61
  F  F2661  1  0.286230  0.363860  0.387100  0.627
  F  F2662  1  0.922370  0.636140  0.112900  0.627
  F  F2663  1  0.713770  0.636140  0.612900  0.627
  F  F2664  1  0.077630  0.363860  0.887100  0.627
  F  F2665  1  0.267800  0.408000  0.409800  0.627
  F  F2666  1  0.859800  0.592000  0.090200  0.627
  F  F2667  1  0.732200  0.592000  0.590200  0.627
  F  F2668  1  0.140200  0.408000  0.909800  0.627
  F  F2669  1  0.230800  0.354600  0.347600  0.627
  F  F2670  1  0.876200  0.645400  0.152400  0.627
  F  F2671  1  0.769200  0.645400  0.652400  0.627
  F  F2672  1  0.123800  0.354600  0.847600  0.627
  F  F2673  1  0.206100  0.359200  0.394700  0.627
  F  F2674  1  0.846900  0.640800  0.105300  0.627
  F  F2675  1  0.793900  0.640800  0.605300  0.627
  F  F2676  1  0.153100  0.359200  0.894700  0.627
  F  F2677  1  0.861400  0.227400  0.650400  0.63
  F  F2678  1  0.634000  0.772600  0.849600  0.63
  F  F2679  1  0.138600  0.772600  0.349600  0.63
  F  F2680  1  0.366000  0.227400  0.150400  0.63
  F  F2681  1  0.403200  0.543400  0.683800  0.688
  F  F2682  1  0.859800  0.456600  0.816200  0.688
  F  F2683  1  0.596800  0.456600  0.316200  0.688
  F  F2684  1  0.140200  0.543400  0.183800  0.688
  F  F2685  1  0.364400  0.583600  0.685600  0.688
  F  F2686  1  0.780800  0.416400  0.814400  0.688
  F  F2687  1  0.635600  0.416400  0.314400  0.688
  F  F2688  1  0.219200  0.583600  0.185600  0.688
  F  F2689  1  0.363400  0.518600  0.642800  0.688
  F  F2690  1  0.844800  0.481400  0.857200  0.688
  F  F2691  1  0.636600  0.481400  0.357200  0.688
  F  F2692  1  0.155200  0.518600  0.142800  0.688
  F  F2693  1  0.330200  0.557600  0.641900  0.688
  F  F2694  1  0.772600  0.442400  0.858100  0.688
  F  F2695  1  0.669800  0.442400  0.358100  0.688
  F  F2696  1  0.227400  0.557600  0.141900  0.688
  F  F2697  1  0.310700  0.528600  0.677100  0.688
  F  F2698  1  0.782100  0.471400  0.822900  0.688
  F  F2699  1  0.689300  0.471400  0.322900  0.688
  F  F2700  1  0.217900  0.528600  0.177100  0.688
  H  H2701  1  0.950200  0.397600  0.799500  1.0
  H  H2702  1  0.552600  0.602400  0.700500  1.0
  H  H2703  1  0.049800  0.602400  0.200500  1.0
  H  H2704  1  0.447400  0.397600  0.299500  1.0
  H  H2705  1  0.902200  0.401000  0.837000  1.0
  H  H2706  1  0.501200  0.599000  0.663000  1.0
  H  H2707  1  0.097800  0.599000  0.163000  1.0
  H  H2708  1  0.498800  0.401000  0.337000  1.0
  H  H2709  1  0.966800  0.356800  0.877000  1.0
  H  H2710  1  0.610000  0.643200  0.623000  1.0
  H  H2711  1  0.033200  0.643200  0.123000  1.0
  H  H2712  1  0.390000  0.356800  0.377000  1.0
  H  H2713  1  0.014700  0.353200  0.839500  1.0
  H  H2714  1  0.661500  0.646800  0.660500  1.0
  H  H2715  1  0.985300  0.646800  0.160500  1.0
  H  H2716  1  0.338500  0.353200  0.339500  1.0
  H  H2717  1  0.896800  0.401600  0.891000  1.0
  H  H2718  1  0.495200  0.598400  0.609000  1.0
  H  H2719  1  0.103200  0.598400  0.109000  1.0
  H  H2720  1  0.504800  0.401600  0.391000  1.0
  H  H2721  1  0.909200  0.374800  0.900700  1.0
  H  H2722  1  0.534400  0.625200  0.599300  1.0
  H  H2723  1  0.090800  0.625200  0.099300  1.0
  H  H2724  1  0.465600  0.374800  0.400700  1.0
  H  H2725  1  0.866000  0.367000  0.878200  1.0
  H  H2726  1  0.499000  0.633000  0.621800  1.0
  H  H2727  1  0.134000  0.633000  0.121800  1.0
  H  H2728  1  0.501000  0.367000  0.378200  1.0
  H  H2729  1  0.070100  0.380200  0.814200  1.0
  H  H2730  1  0.689900  0.619800  0.685800  1.0
  H  H2731  1  0.929900  0.619800  0.185800  1.0
  H  H2732  1  0.310100  0.380200  0.314200  1.0
  H  H2733  1  0.148200  0.377800  0.794500  1.0
  H  H2734  1  0.770400  0.622200  0.705500  1.0
  H  H2735  1  0.851800  0.622200  0.205500  1.0
  H  H2736  1  0.229600  0.377800  0.294500  1.0
  H  H2737  1  0.192200  0.367000  0.758100  1.0
  H  H2738  1  0.825200  0.633000  0.741900  1.0
  H  H2739  1  0.807800  0.633000  0.241900  1.0
  H  H2740  1  0.174800  0.367000  0.258100  1.0
  H  H2741  1  0.072900  0.343800  0.705800  1.0
  H  H2742  1  0.729100  0.656200  0.794200  1.0
  H  H2743  1  0.927100  0.656200  0.294200  1.0
  H  H2744  1  0.270900  0.343800  0.205800  1.0
  H  H2745  1  0.119200  0.306000  0.683300  1.0
  H  H2746  1  0.813200  0.694000  0.816700  1.0
  H  H2747  1  0.880800  0.694000  0.316700  1.0
  H  H2748  1  0.186800  0.306000  0.183300  1.0
  H  H2749  1  0.219000  0.385400  0.714400  1.0
  H  H2750  1  0.833600  0.614600  0.785600  1.0
  H  H2751  1  0.781000  0.614600  0.285600  1.0
  H  H2752  1  0.166400  0.385400  0.214400  1.0
  H  H2753  1  0.261300  0.375200  0.677200  1.0
  H  H2754  1  0.886100  0.624800  0.822800  1.0
  H  H2755  1  0.738700  0.624800  0.322800  1.0
  H  H2756  1  0.113900  0.375200  0.177200  1.0
  H  H2757  1  0.271100  0.342400  0.635100  1.0
  H  H2758  1  0.928700  0.657600  0.864900  1.0
  H  H2759  1  0.728900  0.657600  0.364900  1.0
  H  H2760  1  0.071300  0.342400  0.135100  1.0
  H  H2761  1  0.316000  0.305800  0.627000  1.0
  H  H2762  1  0.010200  0.694200  0.873000  1.0
  H  H2763  1  0.684000  0.694200  0.373000  1.0
  H  H2764  1  0.989800  0.305800  0.127000  1.0
  H  H2765  1  0.368700  0.292800  0.595700  1.0
  H  H2766  1  0.075900  0.707200  0.904300  1.0
  H  H2767  1  0.631300  0.707200  0.404300  1.0
  H  H2768  1  0.924100  0.292800  0.095700  1.0
  H  H2769  1  0.270700  0.267600  0.530100  1.0
  H  H2770  1  0.003100  0.732400  0.969900  1.0
  H  H2771  1  0.729300  0.732400  0.469900  1.0
  H  H2772  1  0.996900  0.267600  0.030100  1.0
  H  H2773  1  0.218000  0.280800  0.561300  1.0
  H  H2774  1  0.937200  0.719200  0.938700  1.0
  H  H2775  1  0.782000  0.719200  0.438700  1.0
  H  H2776  1  0.062800  0.280800  0.061300  1.0
  H  H2777  1  0.376100  0.259200  0.548500  1.0
  H  H2778  1  0.116900  0.740800  0.951500  1.0
  H  H2779  1  0.623900  0.740800  0.451500  1.0
  H  H2780  1  0.883100  0.259200  0.048500  1.0
  H  H2781  1  0.380800  0.287600  0.534900  1.0
  H  H2782  1  0.093200  0.712400  0.965100  1.0
  H  H2783  1  0.619200  0.712400  0.465100  1.0
  H  H2784  1  0.906800  0.287600  0.034900  1.0
  H  H2785  1  0.341600  0.255800  0.522100  1.0
  H  H2786  1  0.085800  0.744200  0.977900  1.0
  H  H2787  1  0.658400  0.744200  0.477900  1.0
  H  H2788  1  0.914200  0.255800  0.022100  1.0
  H  H2789  1  0.166400  0.262800  0.698800  1.0
  H  H2790  1  0.903600  0.737200  0.801200  1.0
  H  H2791  1  0.833600  0.737200  0.301200  1.0
  H  H2792  1  0.096400  0.262800  0.198800  1.0
  H  H2793  1  0.187000  0.292400  0.745100  1.0
  H  H2794  1  0.894600  0.707600  0.754900  1.0
  H  H2795  1  0.813000  0.707600  0.254900  1.0
  H  H2796  1  0.105400  0.292400  0.245100  1.0
  H  H2797  1  0.322300  0.321400  0.726900  1.0
  H  H2798  1  0.000900  0.678600  0.773100  1.0
  H  H2799  1  0.677700  0.678600  0.273100  1.0
  H  H2800  1  0.999100  0.321400  0.226900  1.0
  H  H2801  1  0.301900  0.292000  0.680600  1.0
  H  H2802  1  0.009900  0.708000  0.819400  1.0
  H  H2803  1  0.698100  0.708000  0.319400  1.0
  H  H2804  1  0.990100  0.292000  0.180600  1.0
  H  H2805  1  0.299200  0.345200  0.771600  1.0
  H  H2806  1  0.954000  0.654800  0.728400  1.0
  H  H2807  1  0.700800  0.654800  0.228400  1.0
  H  H2808  1  0.046000  0.345200  0.271600  1.0
  H  H2809  1  0.274900  0.315400  0.783100  1.0
  H  H2810  1  0.959500  0.684600  0.716900  1.0
  H  H2811  1  0.725100  0.684600  0.216900  1.0
  H  H2812  1  0.040500  0.315400  0.283100  1.0
  H  H2813  1  0.245300  0.336400  0.777900  1.0
  H  H2814  1  0.908900  0.663600  0.722100  1.0
  H  H2815  1  0.754700  0.663600  0.222100  1.0
  H  H2816  1  0.091100  0.336400  0.277900  1.0
  H  H2817  1  0.274700  0.246800  0.651100  1.0
  H  H2818  1  0.027900  0.753200  0.848900  1.0
  H  H2819  1  0.725300  0.753200  0.348900  1.0
  H  H2820  1  0.972100  0.246800  0.151100  1.0
  H  H2821  1  0.284300  0.212200  0.604600  1.0
  H  H2822  1  0.072100  0.787800  0.895400  1.0
  H  H2823  1  0.715700  0.787800  0.395400  1.0
  H  H2824  1  0.927900  0.212200  0.104600  1.0
  H  H2825  1  0.261300  0.190000  0.556600  1.0
  H  H2826  1  0.071300  0.810000  0.943400  1.0
  H  H2827  1  0.738700  0.810000  0.443400  1.0
  H  H2828  1  0.928700  0.190000  0.056600  1.0
  H  H2829  1  0.145200  0.214800  0.565300  1.0
  H  H2830  1  0.930400  0.785200  0.934700  1.0
  H  H2831  1  0.854800  0.785200  0.434700  1.0
  H  H2832  1  0.069600  0.214800  0.065300  1.0
  H  H2833  1  0.121000  0.170000  0.530100  1.0
  H  H2834  1  0.951000  0.830000  0.969900  1.0
  H  H2835  1  0.879000  0.830000  0.469900  1.0
  H  H2836  1  0.049000  0.170000  0.030100  1.0
  H  H2837  1  0.254800  0.201800  0.512400  1.0
  H  H2838  1  0.053000  0.798200  0.987600  1.0
  H  H2839  1  0.745200  0.798200  0.487600  1.0
  H  H2840  1  0.947000  0.201800  0.012400  1.0
  H  H2841  1  0.233900  0.189200  0.464600  1.0
  H  H2842  1  0.044700  0.810800  0.035400  1.0
  H  H2843  1  0.766100  0.810800  0.535400  1.0
  H  H2844  1  0.955300  0.189200  0.964600  1.0
  H  H2845  1  0.170500  0.160000  0.425800  1.0
  H  H2846  1  0.010500  0.840000  0.074200  1.0
  H  H2847  1  0.829500  0.840000  0.574200  1.0
  H  H2848  1  0.989500  0.160000  0.925800  1.0
  H  H2849  1  0.153000  0.117800  0.387600  1.0
  H  H2850  1  0.035200  0.882200  0.112400  1.0
  H  H2851  1  0.847000  0.882200  0.612400  1.0
  H  H2852  1  0.964800  0.117800  0.887600  1.0
  H  H2853  1  0.127000  0.097600  0.339800  1.0
  H  H2854  1  0.029400  0.902400  0.160200  1.0
  H  H2855  1  0.873000  0.902400  0.660200  1.0
  H  H2856  1  0.970600  0.097600  0.839800  1.0
  H  H2857  1  0.007300  0.117200  0.355000  1.0
  H  H2858  1  0.890100  0.882800  0.145000  1.0
  H  H2859  1  0.992700  0.882800  0.645000  1.0
  H  H2860  1  0.109900  0.117200  0.855000  1.0
  H  H2861  1  0.033200  0.137400  0.402800  1.0
  H  H2862  1  0.895800  0.862600  0.097200  1.0
  H  H2863  1  0.966800  0.862600  0.597200  1.0
  H  H2864  1  0.104200  0.137400  0.902800  1.0
  H  H2865  1  0.019700  0.097000  0.307400  1.0
  H  H2866  1  0.922700  0.903000  0.192600  1.0
  H  H2867  1  0.980300  0.903000  0.692600  1.0
  H  H2868  1  0.077300  0.097000  0.807400  1.0
  H  H2869  1  0.038400  0.069200  0.308000  1.0
  H  H2870  1  0.969200  0.930800  0.192000  1.0
  H  H2871  1  0.961600  0.930800  0.692000  1.0
  H  H2872  1  0.030800  0.069200  0.808000  1.0
  H  H2873  1  0.071700  0.099200  0.299500  1.0
  H  H2874  1  0.972500  0.900800  0.200500  1.0
  H  H2875  1  0.928300  0.900800  0.700500  1.0
  H  H2876  1  0.027500  0.099200  0.799500  1.0
  H  H2877  1  0.119100  0.102800  0.511300  1.0
  H  H2878  1  0.016300  0.897200  0.988700  1.0
  H  H2879  1  0.880900  0.897200  0.488700  1.0
  H  H2880  1  0.983700  0.102800  0.011300  1.0
  H  H2881  1  0.186800  0.113400  0.540100  1.0
  H  H2882  1  0.073400  0.886600  0.959900  1.0
  H  H2883  1  0.813200  0.886600  0.459900  1.0
  H  H2884  1  0.926600  0.113400  0.040100  1.0
  H  H2885  1  0.257400  0.099000  0.470200  1.0
  H  H2886  1  0.158400  0.901000  0.029800  1.0
  H  H2887  1  0.742600  0.901000  0.529800  1.0
  H  H2888  1  0.841600  0.099000  0.970200  1.0
  H  H2889  1  0.189800  0.088600  0.441300  1.0
  H  H2890  1  0.101200  0.911400  0.058700  1.0
  H  H2891  1  0.810200  0.911400  0.558700  1.0
  H  H2892  1  0.898800  0.088600  0.941300  1.0
  H  H2893  1  0.289600  0.099600  0.518300  1.0
  H  H2894  1  0.190000  0.900400  0.981700  1.0
  H  H2895  1  0.710400  0.900400  0.481700  1.0
  H  H2896  1  0.810000  0.099600  0.018300  1.0
  H  H2897  1  0.264000  0.110000  0.545700  1.0
  H  H2898  1  0.154000  0.890000  0.954300  1.0
  H  H2899  1  0.736000  0.890000  0.454300  1.0
  H  H2900  1  0.846000  0.110000  0.045700  1.0
  H  H2901  1  0.292800  0.134400  0.528700  1.0
  H  H2902  1  0.158400  0.865600  0.971300  1.0
  H  H2903  1  0.707200  0.865600  0.471300  1.0
  H  H2904  1  0.841600  0.134400  0.028700  1.0
  H  H2905  1  0.109400  0.058000  0.429200  1.0
  H  H2906  1  0.051400  0.942000  0.070800  1.0
  H  H2907  1  0.890600  0.942000  0.570800  1.0
  H  H2908  1  0.948600  0.058000  0.929200  1.0
  H  H2909  1  0.046200  0.028200  0.391600  1.0
  H  H2910  1  0.018000  0.971800  0.108400  1.0
  H  H2911  1  0.953800  0.971800  0.608400  1.0
  H  H2912  1  0.982000  0.028200  0.891600  1.0
  H  H2913  1  0.976300  0.022800  0.367200  1.0
  H  H2914  1  0.953500  0.977200  0.132800  1.0
  H  H2915  1  0.023700  0.977200  0.632800  1.0
  H  H2916  1  0.046500  0.022800  0.867200  1.0
  H  H2917  1  0.962100  0.094000  0.425400  1.0
  H  H2918  1  0.868100  0.906000  0.074600  1.0
  H  H2919  1  0.037900  0.906000  0.574600  1.0
  H  H2920  1  0.131900  0.094000  0.925400  1.0
  H  H2921  1  0.885200  0.065200  0.414900  1.0
  H  H2922  1  0.820000  0.934800  0.085100  1.0
  H  H2923  1  0.114800  0.934800  0.585100  1.0
  H  H2924  1  0.180000  0.065200  0.914900  1.0
  H  H2925  1  0.935900  0.047400  0.341700  1.0
  H  H2926  1  0.888500  0.952600  0.158300  1.0
  H  H2927  1  0.064100  0.952600  0.658300  1.0
  H  H2928  1  0.111500  0.047400  0.841700  1.0
  H  H2929  1  0.870600  0.049000  0.319000  1.0
  H  H2930  1  0.821600  0.951000  0.181000  1.0
  H  H2931  1  0.129400  0.951000  0.681000  1.0
  H  H2932  1  0.178400  0.049000  0.819000  1.0
  H  H2933  1  0.795000  0.057800  0.322200  1.0
  H  H2934  1  0.737200  0.942200  0.177800  1.0
  H  H2935  1  0.205000  0.942200  0.677800  1.0
  H  H2936  1  0.262800  0.057800  0.822200  1.0
  H  H2937  1  0.706900  0.088600  0.379200  1.0
  H  H2938  1  0.618300  0.911400  0.120800  1.0
  H  H2939  1  0.293100  0.911400  0.620800  1.0
  H  H2940  1  0.381700  0.088600  0.879200  1.0
  H  H2941  1  0.628800  0.079800  0.365700  1.0
  H  H2942  1  0.549000  0.920200  0.134300  1.0
  H  H2943  1  0.371200  0.920200  0.634300  1.0
  H  H2944  1  0.451000  0.079800  0.865700  1.0
  H  H2945  1  0.637600  0.020400  0.293700  1.0
  H  H2946  1  0.617200  0.979600  0.206300  1.0
  H  H2947  1  0.362400  0.979600  0.706300  1.0
  H  H2948  1  0.382800  0.020400  0.793700  1.0
  H  H2949  1  0.715700  0.029200  0.307100  1.0
  H  H2950  1  0.686500  0.970800  0.192900  1.0
  H  H2951  1  0.284300  0.970800  0.692900  1.0
  H  H2952  1  0.313500  0.029200  0.807100  1.0
  H  H2953  1  0.554600  0.026000  0.324500  1.0
  H  H2954  1  0.528600  0.974000  0.175500  1.0
  H  H2955  1  0.445400  0.974000  0.675500  1.0
  H  H2956  1  0.471400  0.026000  0.824500  1.0
  H  H2957  1  0.571400  0.041600  0.298600  1.0
  H  H2958  1  0.529800  0.958400  0.201400  1.0
  H  H2959  1  0.428600  0.958400  0.701400  1.0
  H  H2960  1  0.470200  0.041600  0.798600  1.0
  H  H2961  1  0.566200  0.062000  0.328500  1.0
  H  H2962  1  0.504200  0.938000  0.171500  1.0
  H  H2963  1  0.433800  0.938000  0.671500  1.0
  H  H2964  1  0.495800  0.062000  0.828500  1.0
  H  H2965  1  0.820700  0.997800  0.399100  1.0
  H  H2966  1  0.822900  0.002200  0.100900  1.0
  H  H2967  1  0.179300  0.002200  0.600900  1.0
  H  H2968  1  0.177100  0.997800  0.899100  1.0
  H  H2969  1  0.875600  0.980400  0.373200  1.0
  H  H2970  1  0.895200  0.019600  0.126800  1.0
  H  H2971  1  0.124400  0.019600  0.626800  1.0
  H  H2972  1  0.104800  0.980400  0.873200  1.0
  H  H2973  1  0.795400  0.962800  0.300500  1.0
  H  H2974  1  0.832600  0.037200  0.199500  1.0
  H  H2975  1  0.204600  0.037200  0.699500  1.0
  H  H2976  1  0.167400  0.962800  0.800500  1.0
  H  H2977  1  0.740400  0.980200  0.326300  1.0
  H  H2978  1  0.760200  0.019800  0.173700  1.0
  H  H2979  1  0.259600  0.019800  0.673700  1.0
  H  H2980  1  0.239800  0.980200  0.826300  1.0
  H  H2981  1  0.907700  0.969800  0.325700  1.0
  H  H2982  1  0.937900  0.030200  0.174300  1.0
  H  H2983  1  0.092300  0.030200  0.674300  1.0
  H  H2984  1  0.062100  0.969800  0.825700  1.0
  H  H2985  1  0.873200  0.959000  0.297700  1.0
  H  H2986  1  0.914200  0.041000  0.202300  1.0
  H  H2987  1  0.126800  0.041000  0.702300  1.0
  H  H2988  1  0.085800  0.959000  0.797700  1.0
  H  H2989  1  0.870100  0.936400  0.318100  1.0
  H  H2990  1  0.933700  0.063600  0.181900  1.0
  H  H2991  1  0.129900  0.063600  0.681900  1.0
  H  H2992  1  0.066300  0.936400  0.818100  1.0
  H  H2993  1  0.692200  0.978000  0.362100  1.0
  H  H2994  1  0.714200  0.022000  0.137900  1.0
  H  H2995  1  0.307800  0.022000  0.637900  1.0
  H  H2996  1  0.285800  0.978000  0.862100  1.0
  H  H2997  1  0.614500  0.980800  0.378000  1.0
  H  H2998  1  0.633700  0.019200  0.122000  1.0
  H  H2999  1  0.385500  0.019200  0.622000  1.0
  H  H3000  1  0.366300  0.980800  0.878000  1.0
  H  H3001  1  0.570000  0.009800  0.400700  1.0
  H  H3002  1  0.560200  0.990200  0.099300  1.0
  H  H3003  1  0.430000  0.990200  0.599300  1.0
  H  H3004  1  0.439800  0.009800  0.900700  1.0
  H  H3005  1  0.688300  0.076800  0.436900  1.0
  H  H3006  1  0.611500  0.923200  0.063100  1.0
  H  H3007  1  0.311700  0.923200  0.563100  1.0
  H  H3008  1  0.388500  0.076800  0.936900  1.0
  H  H3009  1  0.638500  0.085000  0.468100  1.0
  H  H3010  1  0.553500  0.915000  0.031900  1.0
  H  H3011  1  0.361500  0.915000  0.531900  1.0
  H  H3012  1  0.446500  0.085000  0.968100  1.0
  H  H3013  1  0.546700  0.053000  0.403100  1.0
  H  H3014  1  0.493700  0.947000  0.096900  1.0
  H  H3015  1  0.453300  0.947000  0.596900  1.0
  H  H3016  1  0.506300  0.053000  0.903100  1.0
  H  H3017  1  0.505200  0.084400  0.425700  1.0
  H  H3018  1  0.420800  0.915600  0.074300  1.0
  H  H3019  1  0.494800  0.915600  0.574300  1.0
  H  H3020  1  0.579200  0.084400  0.925700  1.0
  H  H3021  1  0.496200  0.121600  0.466900  1.0
  H  H3022  1  0.374600  0.878400  0.033100  1.0
  H  H3023  1  0.503800  0.878400  0.533100  1.0
  H  H3024  1  0.625400  0.121600  0.966900  1.0
  H  H3025  1  0.445500  0.124400  0.502100  1.0
  H  H3026  1  0.321100  0.875600  0.997900  1.0
  H  H3027  1  0.554500  0.875600  0.497900  1.0
  H  H3028  1  0.678900  0.124400  0.002100  1.0
  H  H3029  1  0.403100  0.153800  0.526700  1.0
  H  H3030  1  0.249300  0.846200  0.973300  1.0
  H  H3031  1  0.596900  0.846200  0.473300  1.0
  H  H3032  1  0.750700  0.153800  0.026700  1.0
  H  H3033  1  0.523400  0.222600  0.555500  1.0
  H  H3034  1  0.300800  0.777400  0.944500  1.0
  H  H3035  1  0.476600  0.777400  0.444500  1.0
  H  H3036  1  0.699200  0.222600  0.055500  1.0
  H  H3037  1  0.565900  0.193200  0.531000  1.0
  H  H3038  1  0.372700  0.806800  0.969000  1.0
  H  H3039  1  0.434100  0.806800  0.469000  1.0
  H  H3040  1  0.627300  0.193200  0.031000  1.0
  H  H3041  1  0.431100  0.208000  0.580000  1.0
  H  H3042  1  0.223100  0.792000  0.920000  1.0
  H  H3043  1  0.568900  0.792000  0.420000  1.0
  H  H3044  1  0.776900  0.208000  0.080000  1.0
  H  H3045  1  0.399200  0.202600  0.551800  1.0
  H  H3046  1  0.196600  0.797400  0.948200  1.0
  H  H3047  1  0.600800  0.797400  0.448200  1.0
  H  H3048  1  0.803400  0.202600  0.051800  1.0
  H  H3049  1  0.445900  0.231400  0.559700  1.0
  H  H3050  1  0.214500  0.768600  0.940300  1.0
  H  H3051  1  0.554100  0.768600  0.440300  1.0
  H  H3052  1  0.785500  0.231400  0.059700  1.0
  H  H3053  1  0.456900  0.054600  0.497000  1.0
  H  H3054  1  0.402300  0.945400  0.003000  1.0
  H  H3055  1  0.543100  0.945400  0.503000  1.0
  H  H3056  1  0.597700  0.054600  0.997000  1.0
  H  H3057  1  0.440100  0.013400  0.457900  1.0
  H  H3058  1  0.426700  0.986600  0.042100  1.0
  H  H3059  1  0.559900  0.986600  0.542100  1.0
  H  H3060  1  0.573300  0.013400  0.957900  1.0
  H  H3061  1  0.567400  0.005800  0.470900  1.0
  H  H3062  1  0.561600  0.994200  0.029100  1.0
  H  H3063  1  0.432600  0.994200  0.529100  1.0
  H  H3064  1  0.438400  0.005800  0.970900  1.0
  H  H3065  1  0.584500  0.047200  0.510100  1.0
  H  H3066  1  0.537300  0.952800  0.989900  1.0
  H  H3067  1  0.415500  0.952800  0.489900  1.0
  H  H3068  1  0.462700  0.047200  0.010100  1.0
  H  H3069  1  0.473300  0.983000  0.419800  1.0
  H  H3070  1  0.490300  0.017000  0.080200  1.0
  H  H3071  1  0.526700  0.017000  0.580200  1.0
  H  H3072  1  0.509700  0.983000  0.919800  1.0
  H  H3073  1  0.473700  0.960400  0.439800  1.0
  H  H3074  1  0.513300  0.039600  0.060200  1.0
  H  H3075  1  0.526300  0.039600  0.560200  1.0
  H  H3076  1  0.486700  0.960400  0.939800  1.0
  H  H3077  1  0.520800  0.977400  0.427100  1.0
  H  H3078  1  0.543400  0.022600  0.072900  1.0
  H  H3079  1  0.479200  0.022600  0.572900  1.0
  H  H3080  1  0.456600  0.977400  0.927100  1.0
  H  H3081  1  0.478300  0.075800  0.547600  1.0
  H  H3082  1  0.402500  0.924200  0.952400  1.0
  H  H3083  1  0.521700  0.924200  0.452400  1.0
  H  H3084  1  0.597500  0.075800  0.047600  1.0
  H  H3085  1  0.464300  0.115000  0.589200  1.0
  H  H3086  1  0.349300  0.885000  0.910800  1.0
  H  H3087  1  0.535700  0.885000  0.410800  1.0
  H  H3088  1  0.650700  0.115000  0.089200  1.0
  H  H3089  1  0.488000  0.163600  0.618900  1.0
  H  H3090  1  0.324400  0.836400  0.881100  1.0
  H  H3091  1  0.512000  0.836400  0.381100  1.0
  H  H3092  1  0.675600  0.163600  0.118900  1.0
  H  H3093  1  0.609800  0.184400  0.581300  1.0
  H  H3094  1  0.425400  0.815600  0.918700  1.0
  H  H3095  1  0.390200  0.815600  0.418700  1.0
  H  H3096  1  0.574600  0.184400  0.081300  1.0
  H  H3097  1  0.632600  0.213200  0.631100  1.0
  H  H3098  1  0.419400  0.786800  0.868900  1.0
  H  H3099  1  0.367400  0.786800  0.368900  1.0
  H  H3100  1  0.580600  0.213200  0.131100  1.0
  H  H3101  1  0.504800  0.218400  0.616200  1.0
  H  H3102  1  0.286400  0.781600  0.883800  1.0
  H  H3103  1  0.495200  0.781600  0.383800  1.0
  H  H3104  1  0.713600  0.218400  0.116200  1.0
  H  H3105  1  0.531300  0.267600  0.640500  1.0
  H  H3106  1  0.263700  0.732400  0.859500  1.0
  H  H3107  1  0.468700  0.732400  0.359500  1.0
  H  H3108  1  0.736300  0.267600  0.140500  1.0
  H  H3109  1  0.594400  0.311400  0.667600  1.0
  H  H3110  1  0.283000  0.688600  0.832400  1.0
  H  H3111  1  0.405600  0.688600  0.332400  1.0
  H  H3112  1  0.717000  0.311400  0.167600  1.0
  H  H3113  1  0.610100  0.341400  0.709600  1.0
  H  H3114  1  0.268700  0.658600  0.790400  1.0
  H  H3115  1  0.389900  0.658600  0.290400  1.0
  H  H3116  1  0.731300  0.341400  0.209600  1.0
  H  H3117  1  0.636400  0.389000  0.741100  1.0
  H  H3118  1  0.247400  0.611000  0.758900  1.0
  H  H3119  1  0.363600  0.611000  0.258900  1.0
  H  H3120  1  0.752600  0.389000  0.241100  1.0
  H  H3121  1  0.766800  0.401800  0.714600  1.0
  H  H3122  1  0.365000  0.598200  0.785400  1.0
  H  H3123  1  0.233200  0.598200  0.285400  1.0
  H  H3124  1  0.635000  0.401800  0.214600  1.0
  H  H3125  1  0.740600  0.354200  0.683200  1.0
  H  H3126  1  0.386400  0.645800  0.816800  1.0
  H  H3127  1  0.259400  0.645800  0.316800  1.0
  H  H3128  1  0.613600  0.354200  0.183200  1.0
  H  H3129  1  0.714900  0.446200  0.743900  1.0
  H  H3130  1  0.268700  0.553800  0.756100  1.0
  H  H3131  1  0.285100  0.553800  0.256100  1.0
  H  H3132  1  0.731300  0.446200  0.243900  1.0
  H  H3133  1  0.755400  0.436600  0.756300  1.0
  H  H3134  1  0.318800  0.563400  0.743700  1.0
  H  H3135  1  0.244600  0.563400  0.243700  1.0
  H  H3136  1  0.681200  0.436600  0.256300  1.0
  H  H3137  1  0.705800  0.429400  0.769700  1.0
  H  H3138  1  0.276400  0.570600  0.730300  1.0
  H  H3139  1  0.294200  0.570600  0.230300  1.0
  H  H3140  1  0.723600  0.429400  0.269700  1.0
  H  H3141  1  0.611100  0.211000  0.695700  1.0
  H  H3142  1  0.400100  0.789000  0.804300  1.0
  H  H3143  1  0.388900  0.789000  0.304300  1.0
  H  H3144  1  0.599900  0.211000  0.195700  1.0
  H  H3145  1  0.535000  0.177400  0.684200  1.0
  H  H3146  1  0.357600  0.822600  0.815800  1.0
  H  H3147  1  0.465000  0.822600  0.315800  1.0
  H  H3148  1  0.642400  0.177400  0.184200  1.0
  H  H3149  1  0.484400  0.246400  0.714700  1.0
  H  H3150  1  0.238000  0.753600  0.785300  1.0
  H  H3151  1  0.515600  0.753600  0.285300  1.0
  H  H3152  1  0.762000  0.246400  0.214700  1.0
  H  H3153  1  0.560500  0.280000  0.726100  1.0
  H  H3154  1  0.280500  0.720000  0.773900  1.0
  H  H3155  1  0.439500  0.720000  0.273900  1.0
  H  H3156  1  0.719500  0.280000  0.226100  1.0
  H  H3157  1  0.430500  0.196800  0.699700  1.0
  H  H3158  1  0.233700  0.803200  0.800300  1.0
  H  H3159  1  0.569500  0.803200  0.300300  1.0
  H  H3160  1  0.766300  0.196800  0.199700  1.0
  H  H3161  1  0.449200  0.169000  0.699600  1.0
  H  H3162  1  0.280200  0.831000  0.800400  1.0
  H  H3163  1  0.550800  0.831000  0.300400  1.0
  H  H3164  1  0.719800  0.169000  0.199600  1.0
  H  H3165  1  0.445900  0.179800  0.670900  1.0
  H  H3166  1  0.266100  0.820200  0.829100  1.0
  H  H3167  1  0.554100  0.820200  0.329100  1.0
  H  H3168  1  0.733900  0.179800  0.170900  1.0
  H  H3169  1  0.631700  0.292000  0.750500  1.0
  H  H3170  1  0.339700  0.708000  0.749500  1.0
  H  H3171  1  0.368300  0.708000  0.249500  1.0
  H  H3172  1  0.660300  0.292000  0.250500  1.0
  H  H3173  1  0.697000  0.337800  0.782000  1.0
  H  H3174  1  0.359200  0.662200  0.718000  1.0
  H  H3175  1  0.303000  0.662200  0.218000  1.0
  H  H3176  1  0.640800  0.337800  0.282000  1.0
  H  H3177  1  0.774700  0.369600  0.786900  1.0
  H  H3178  1  0.405100  0.630400  0.713100  1.0
  H  H3179  1  0.225300  0.630400  0.213100  1.0
  H  H3180  1  0.594900  0.369600  0.286900  1.0
  H  H3181  1  0.797400  0.322000  0.711400  1.0
  H  H3182  1  0.475400  0.678000  0.788600  1.0
  H  H3183  1  0.202600  0.678000  0.288600  1.0
  H  H3184  1  0.524600  0.322000  0.211400  1.0
  H  H3185  1  0.870100  0.334600  0.739900  1.0
  H  H3186  1  0.535500  0.665400  0.760100  1.0
  H  H3187  1  0.129900  0.665400  0.260100  1.0
  H  H3188  1  0.464500  0.334600  0.239900  1.0
  H  H3189  1  0.827600  0.408000  0.765300  1.0
  H  H3190  1  0.419600  0.592000  0.734700  1.0
  H  H3191  1  0.172400  0.592000  0.234700  1.0
  H  H3192  1  0.580400  0.408000  0.265300  1.0
  H  H3193  1  0.904000  0.440000  0.765100  1.0
  H  H3194  1  0.464000  0.560000  0.734900  1.0
  H  H3195  1  0.096000  0.560000  0.234900  1.0
  H  H3196  1  0.536000  0.440000  0.265100  1.0
  H  H3197  1  0.987300  0.445800  0.755800  1.0
  H  H3198  1  0.541500  0.554200  0.744200  1.0
  H  H3199  1  0.012700  0.554200  0.244200  1.0
  H  H3200  1  0.458500  0.445800  0.255800  1.0
  H  H3201  1  0.053000  0.466600  0.777000  1.0
  H  H3202  1  0.586400  0.533400  0.723000  1.0
  H  H3203  1  0.947000  0.533400  0.223000  1.0
  H  H3204  1  0.413600  0.466600  0.277000  1.0
  H  H3205  1  0.131400  0.497000  0.781300  1.0
  H  H3206  1  0.634400  0.503000  0.718700  1.0
  H  H3207  1  0.868600  0.503000  0.218700  1.0
  H  H3208  1  0.365600  0.497000  0.281300  1.0
  H  H3209  1  0.159000  0.434600  0.718600  1.0
  H  H3210  1  0.724400  0.565400  0.781400  1.0
  H  H3211  1  0.841000  0.565400  0.281400  1.0
  H  H3212  1  0.275600  0.434600  0.218600  1.0
  H  H3213  1  0.080700  0.404200  0.714100  1.0
  H  H3214  1  0.676500  0.595800  0.785900  1.0
  H  H3215  1  0.919300  0.595800  0.285900  1.0
  H  H3216  1  0.323500  0.404200  0.214100  1.0
  H  H3217  1  0.213700  0.497600  0.773900  1.0
  H  H3218  1  0.716100  0.502400  0.726100  1.0
  H  H3219  1  0.786300  0.502400  0.226100  1.0
  H  H3220  1  0.283900  0.497600  0.273900  1.0
  H  H3221  1  0.209100  0.504000  0.743200  1.0
  H  H3222  1  0.705100  0.496000  0.756800  1.0
  H  H3223  1  0.790900  0.496000  0.256800  1.0
  H  H3224  1  0.294900  0.504000  0.243200  1.0
  H  H3225  1  0.223400  0.475400  0.746600  1.0
  H  H3226  1  0.748000  0.524600  0.753400  1.0
  H  H3227  1  0.776600  0.524600  0.253400  1.0
  H  H3228  1  0.252000  0.475400  0.246600  1.0
  H  H3229  1  0.275800  0.405000  0.471800  1.0
  H  H3230  1  0.870800  0.595000  0.028200  1.0
  H  H3231  1  0.724200  0.595000  0.528200  1.0
  H  H3232  1  0.129200  0.405000  0.971800  1.0
  H  H3233  1  0.325800  0.388200  0.440600  1.0
  H  H3234  1  0.937600  0.611800  0.059400  1.0
  H  H3235  1  0.674200  0.611800  0.559400  1.0
  H  H3236  1  0.062400  0.388200  0.940600  1.0
  H  H3237  1  0.419300  0.404400  0.506800  1.0
  H  H3238  1  0.014900  0.595600  0.993200  1.0
  H  H3239  1  0.580700  0.595600  0.493200  1.0
  H  H3240  1  0.985100  0.404400  0.006800  1.0
  H  H3241  1  0.369300  0.421000  0.538000  1.0
  H  H3242  1  0.948300  0.579000  0.962000  1.0
  H  H3243  1  0.630700  0.579000  0.462000  1.0
  H  H3244  1  0.051700  0.421000  0.038000  1.0
  H  H3245  1  0.413300  0.394400  0.434200  1.0
  H  H3246  1  0.018900  0.605600  0.065800  1.0
  H  H3247  1  0.586700  0.605600  0.565800  1.0
  H  H3248  1  0.981100  0.394400  0.934200  1.0
  H  H3249  1  0.398900  0.362600  0.443100  1.0
  H  H3250  1  0.036300  0.637400  0.056900  1.0
  H  H3251  1  0.601100  0.637400  0.556900  1.0
  H  H3252  1  0.963700  0.362600  0.943100  1.0
  H  H3253  1  0.441700  0.390400  0.460100  1.0
  H  H3254  1  0.051300  0.609600  0.039900  1.0
  H  H3255  1  0.558300  0.609600  0.539900  1.0
  H  H3256  1  0.948700  0.390400  0.960100  1.0
  H  H3257  1  0.334700  0.459800  0.548600  1.0
  H  H3258  1  0.874900  0.540200  0.951400  1.0
  H  H3259  1  0.665300  0.540200  0.451400  1.0
  H  H3260  1  0.125100  0.459800  0.048600  1.0
  H  H3261  1  0.320600  0.494600  0.589600  1.0
  H  H3262  1  0.826000  0.505400  0.910400  1.0
  H  H3263  1  0.679400  0.505400  0.410400  1.0
  H  H3264  1  0.174000  0.494600  0.089600  1.0
  H  H3265  1  0.269600  0.505800  0.624500  1.0
  H  H3266  1  0.763800  0.494200  0.875500  1.0
  H  H3267  1  0.730400  0.494200  0.375500  1.0
  H  H3268  1  0.236200  0.505800  0.124500  1.0
  H  H3269  1  0.168900  0.432600  0.583600  1.0
  H  H3270  1  0.736300  0.567400  0.916400  1.0
  H  H3271  1  0.831100  0.567400  0.416400  1.0
  H  H3272  1  0.263700  0.432600  0.083600  1.0
  H  H3273  1  0.122900  0.463800  0.606200  1.0
  H  H3274  1  0.659100  0.536200  0.893800  1.0
  H  H3275  1  0.877100  0.536200  0.393800  1.0
  H  H3276  1  0.340900  0.463800  0.106200  1.0
  H  H3277  1  0.229600  0.489400  0.665400  1.0
  H  H3278  1  0.740200  0.510600  0.834600  1.0
  H  H3279  1  0.770400  0.510600  0.334600  1.0
  H  H3280  1  0.259800  0.489400  0.165400  1.0
  H  H3281  1  0.176400  0.495400  0.697700  1.0
  H  H3282  1  0.681000  0.504600  0.802300  1.0
  H  H3283  1  0.823600  0.504600  0.302300  1.0
  H  H3284  1  0.319000  0.495400  0.197700  1.0
  H  H3285  1  0.096900  0.493200  0.711900  1.0
  H  H3286  1  0.603700  0.506800  0.788100  1.0
  H  H3287  1  0.903100  0.506800  0.288100  1.0
  H  H3288  1  0.396300  0.493200  0.211900  1.0
  H  H3289  1  0.059300  0.518800  0.733700  1.0
  H  H3290  1  0.540500  0.481200  0.766300  1.0
  H  H3291  1  0.940700  0.481200  0.266300  1.0
  H  H3292  1  0.459500  0.518800  0.233700  1.0
  H  H3293  1  0.005400  0.527600  0.766000  1.0
  H  H3294  1  0.477800  0.472400  0.734000  1.0
  H  H3295  1  0.994600  0.472400  0.234000  1.0
  H  H3296  1  0.522200  0.527600  0.266000  1.0
  H  H3297  1  0.901700  0.459800  0.715400  1.0
  H  H3298  1  0.441900  0.540200  0.784600  1.0
  H  H3299  1  0.098300  0.540200  0.284600  1.0
  H  H3300  1  0.558100  0.459800  0.215400  1.0
  H  H3301  1  0.955500  0.451000  0.683000  1.0
  H  H3302  1  0.504500  0.549000  0.817000  1.0
  H  H3303  1  0.044500  0.549000  0.317000  1.0
  H  H3304  1  0.495500  0.451000  0.183000  1.0
  H  H3305  1  0.925600  0.504200  0.784100  1.0
  H  H3306  1  0.421400  0.495800  0.715900  1.0
  H  H3307  1  0.074400  0.495800  0.215900  1.0
  H  H3308  1  0.578600  0.504200  0.284100  1.0
  H  H3309  1  0.883900  0.483400  0.761000  1.0
  H  H3310  1  0.400500  0.516600  0.739000  1.0
  H  H3311  1  0.116100  0.516600  0.239000  1.0
  H  H3312  1  0.599500  0.483400  0.261000  1.0
  H  H3313  1  0.905900  0.519000  0.762300  1.0
  H  H3314  1  0.386900  0.481000  0.737700  1.0
  H  H3315  1  0.094100  0.481000  0.237700  1.0
  H  H3316  1  0.613100  0.519000  0.262300  1.0
  H  H3317  1  0.126600  0.532000  0.621300  1.0
  H  H3318  1  0.594600  0.468000  0.878700  1.0
  H  H3319  1  0.873400  0.468000  0.378700  1.0
  H  H3320  1  0.405400  0.532000  0.121300  1.0
  H  H3321  1  0.205800  0.560400  0.629700  1.0
  H  H3322  1  0.645400  0.439600  0.870300  1.0
  H  H3323  1  0.794200  0.439600  0.370300  1.0
  H  H3324  1  0.354600  0.560400  0.129700  1.0
  H  H3325  1  0.185900  0.591800  0.711900  1.0
  H  H3326  1  0.594100  0.408200  0.788100  1.0
  H  H3327  1  0.814100  0.408200  0.288100  1.0
  H  H3328  1  0.405900  0.591800  0.211900  1.0
  H  H3329  1  0.106800  0.563600  0.703600  1.0
  H  H3330  1  0.543200  0.436400  0.796400  1.0
  H  H3331  1  0.893200  0.436400  0.296400  1.0
  H  H3332  1  0.456800  0.563600  0.203600  1.0
  H  H3333  1  0.260600  0.612400  0.695500  1.0
  H  H3334  1  0.648200  0.387600  0.804500  1.0
  H  H3335  1  0.739400  0.387600  0.304500  1.0
  H  H3336  1  0.351800  0.612400  0.195500  1.0
  H  H3337  1  0.264100  0.609600  0.662100  1.0
  H  H3338  1  0.654500  0.390400  0.837900  1.0
  H  H3339  1  0.735900  0.390400  0.337900  1.0
  H  H3340  1  0.345500  0.609600  0.162100  1.0
  H  H3341  1  0.274100  0.584800  0.676400  1.0
  H  H3342  1  0.689300  0.415200  0.823600  1.0
  H  H3343  1  0.725900  0.415200  0.323600  1.0
  H  H3344  1  0.310700  0.584800  0.176400  1.0
  H  H3345  1  0.041400  0.561600  0.673400  1.0
  H  H3346  1  0.479800  0.438400  0.826600  1.0
  H  H3347  1  0.958600  0.438400  0.326600  1.0
  H  H3348  1  0.520200  0.561600  0.173400  1.0
  H  H3349  1  0.958200  0.557200  0.681700  1.0
  H  H3350  1  0.401000  0.442800  0.818300  1.0
  H  H3351  1  0.041800  0.442800  0.318300  1.0
  H  H3352  1  0.599000  0.557200  0.181700  1.0
  H  H3353  1  0.879500  0.527800  0.677700  1.0
  H  H3354  1  0.351700  0.472200  0.822300  1.0
  H  H3355  1  0.120500  0.472200  0.322300  1.0
  H  H3356  1  0.648300  0.527800  0.177700  1.0
  H  H3357  1  0.910300  0.456000  0.630900  1.0
  H  H3358  1  0.454300  0.544000  0.869100  1.0
  H  H3359  1  0.089700  0.544000  0.369100  1.0
  H  H3360  1  0.545700  0.456000  0.130900  1.0
  H  H3361  1  0.827200  0.445200  0.613100  1.0
  H  H3362  1  0.382000  0.554800  0.886900  1.0
  H  H3363  1  0.172800  0.554800  0.386900  1.0
  H  H3364  1  0.618000  0.445200  0.113100  1.0
  H  H3365  1  0.827900  0.486400  0.695900  1.0
  H  H3366  1  0.341500  0.513600  0.804100  1.0
  H  H3367  1  0.172100  0.513600  0.304100  1.0
  H  H3368  1  0.658500  0.486400  0.195900  1.0
  H  H3369  1  0.754300  0.449600  0.695400  1.0
  H  H3370  1  0.304700  0.550400  0.804600  1.0
  H  H3371  1  0.245700  0.550400  0.304600  1.0
  H  H3372  1  0.695300  0.449600  0.195400  1.0
  H  H3373  1  0.691400  0.409800  0.669700  1.0
  H  H3374  1  0.281600  0.590200  0.830300  1.0
  H  H3375  1  0.308600  0.590200  0.330300  1.0
  H  H3376  1  0.718400  0.409800  0.169700  1.0
  H  H3377  1  0.608500  0.400200  0.656600  1.0
  H  H3378  1  0.208300  0.599800  0.843400  1.0
  H  H3379  1  0.391500  0.599800  0.343400  1.0
  H  H3380  1  0.791700  0.400200  0.156600  1.0
  H  H3381  1  0.530800  0.368400  0.649400  1.0
  H  H3382  1  0.162400  0.631600  0.850600  1.0
  H  H3383  1  0.469200  0.631600  0.350600  1.0
  H  H3384  1  0.837600  0.368400  0.149400  1.0
  H  H3385  1  0.569000  0.303600  0.595700  1.0
  H  H3386  1  0.265400  0.696400  0.904300  1.0
  H  H3387  1  0.431000  0.696400  0.404300  1.0
  H  H3388  1  0.734600  0.303600  0.095700  1.0
  H  H3389  1  0.646700  0.335200  0.603000  1.0
  H  H3390  1  0.311500  0.664800  0.897000  1.0
  H  H3391  1  0.353300  0.664800  0.397000  1.0
  H  H3392  1  0.688500  0.335200  0.103000  1.0
  H  H3393  1  0.471100  0.325200  0.617300  1.0
  H  H3394  1  0.145900  0.674800  0.882700  1.0
  H  H3395  1  0.528900  0.674800  0.382700  1.0
  H  H3396  1  0.854100  0.325200  0.117300  1.0
  H  H3397  1  0.483500  0.300600  0.631000  1.0
  H  H3398  1  0.182900  0.699400  0.869000  1.0
  H  H3399  1  0.516500  0.699400  0.369000  1.0
  H  H3400  1  0.817100  0.300600  0.131000  1.0
  H  H3401  1  0.486500  0.298800  0.597700  1.0
  H  H3402  1  0.187700  0.701200  0.902300  1.0
  H  H3403  1  0.513500  0.701200  0.402300  1.0
  H  H3404  1  0.812300  0.298800  0.097700  1.0
  H  H3405  1  0.761100  0.482800  0.606000  1.0
  H  H3406  1  0.278300  0.517200  0.894000  1.0
  H  H3407  1  0.238900  0.517200  0.394000  1.0
  H  H3408  1  0.721700  0.482800  0.106000  1.0
  H  H3409  1  0.788700  0.530800  0.636900  1.0
  H  H3410  1  0.257900  0.469200  0.863100  1.0
  H  H3411  1  0.211300  0.469200  0.363100  1.0
  H  H3412  1  0.742100  0.530800  0.136900  1.0
  H  H3413  1  0.666900  0.513000  0.675000  1.0
  H  H3414  1  0.153900  0.487000  0.825000  1.0
  H  H3415  1  0.333100  0.487000  0.325000  1.0
  H  H3416  1  0.846100  0.513000  0.175000  1.0
  H  H3417  1  0.639200  0.465000  0.644100  1.0
  H  H3418  1  0.174200  0.535000  0.855900  1.0
  H  H3419  1  0.360800  0.535000  0.355900  1.0
  H  H3420  1  0.825800  0.465000  0.144100  1.0
  H  H3421  1  0.732000  0.571200  0.672800  1.0
  H  H3422  1  0.160800  0.428800  0.827200  1.0
  H  H3423  1  0.268000  0.428800  0.327200  1.0
  H  H3424  1  0.839200  0.571200  0.172800  1.0
  H  H3425  1  0.781700  0.567200  0.677500  1.0
  H  H3426  1  0.214500  0.432800  0.822500  1.0
  H  H3427  1  0.218300  0.432800  0.322500  1.0
  H  H3428  1  0.785500  0.567200  0.177500  1.0
  H  H3429  1  0.741600  0.556800  0.698100  1.0
  H  H3430  1  0.184800  0.443200  0.801900  1.0
  H  H3431  1  0.258400  0.443200  0.301900  1.0
  H  H3432  1  0.815200  0.556800  0.198100  1.0
  H  H3433  1  0.612800  0.439800  0.602300  1.0
  H  H3434  1  0.173000  0.560200  0.897700  1.0
  H  H3435  1  0.387200  0.560200  0.397700  1.0
  H  H3436  1  0.827000  0.439800  0.102300  1.0
  H  H3437  1  0.545400  0.397800  0.572000  1.0
  H  H3438  1  0.147600  0.602200  0.928000  1.0
  H  H3439  1  0.454600  0.602200  0.428000  1.0
  H  H3440  1  0.852400  0.397800  0.072000  1.0
  H  H3441  1  0.515700  0.348400  0.543900  1.0
  H  H3442  1  0.167300  0.651600  0.956100  1.0
  H  H3443  1  0.484300  0.651600  0.456100  1.0
  H  H3444  1  0.832700  0.348400  0.043900  1.0
  H  H3445  1  0.645900  0.342400  0.541600  1.0
  H  H3446  1  0.303500  0.657600  0.958400  1.0
  H  H3447  1  0.354100  0.657600  0.458400  1.0
  H  H3448  1  0.696500  0.342400  0.041600  1.0
  H  H3449  1  0.609900  0.315600  0.497400  1.0
  H  H3450  1  0.294300  0.684400  0.002600  1.0
  H  H3451  1  0.390100  0.684400  0.502600  1.0
  H  H3452  1  0.705700  0.315600  0.997400  1.0
  H  H3453  1  0.497300  0.297200  0.543800  1.0
  H  H3454  1  0.200100  0.702800  0.956200  1.0
  H  H3455  1  0.502700  0.702800  0.456200  1.0
  H  H3456  1  0.799900  0.297200  0.043800  1.0
  H  H3457  1  0.471300  0.247000  0.517200  1.0
  H  H3458  1  0.224300  0.753000  0.982800  1.0
  H  H3459  1  0.528700  0.753000  0.482800  1.0
  H  H3460  1  0.775700  0.247000  0.017200  1.0
  H  H3461  1  0.482700  0.207400  0.480600  1.0
  H  H3462  1  0.275300  0.792600  0.019400  1.0
  H  H3463  1  0.517300  0.792600  0.519400  1.0
  H  H3464  1  0.724700  0.207400  0.980600  1.0
  H  H3465  1  0.442200  0.179600  0.439200  1.0
  H  H3466  1  0.262600  0.820400  0.060800  1.0
  H  H3467  1  0.557800  0.820400  0.560800  1.0
  H  H3468  1  0.737400  0.179600  0.939200  1.0
  H  H3469  1  0.413100  0.133000  0.406200  1.0
  H  H3470  1  0.280100  0.867000  0.093800  1.0
  H  H3471  1  0.586900  0.867000  0.593800  1.0
  H  H3472  1  0.719900  0.133000  0.906200  1.0
  H  H3473  1  0.544900  0.131600  0.394900  1.0
  H  H3474  1  0.413300  0.868400  0.105100  1.0
  H  H3475  1  0.455100  0.868400  0.605100  1.0
  H  H3476  1  0.586700  0.131600  0.894900  1.0
  H  H3477  1  0.574200  0.178200  0.427900  1.0
  H  H3478  1  0.396000  0.821800  0.072100  1.0
  H  H3479  1  0.425800  0.821800  0.572100  1.0
  H  H3480  1  0.604000  0.178200  0.927900  1.0
  H  H3481  1  0.468400  0.082600  0.380700  1.0
  H  H3482  1  0.385800  0.917400  0.119300  1.0
  H  H3483  1  0.531600  0.917400  0.619300  1.0
  H  H3484  1  0.614200  0.082600  0.880700  1.0
  H  H3485  1  0.467900  0.100800  0.356600  1.0
  H  H3486  1  0.367100  0.899200  0.143400  1.0
  H  H3487  1  0.532100  0.899200  0.643400  1.0
  H  H3488  1  0.632900  0.100800  0.856600  1.0
  H  H3489  1  0.423000  0.091000  0.374100  1.0
  H  H3490  1  0.332000  0.909000  0.125900  1.0
  H  H3491  1  0.577000  0.909000  0.625900  1.0
  H  H3492  1  0.668000  0.091000  0.874100  1.0
  H  H3493  1  0.433800  0.232800  0.433000  1.0
  H  H3494  1  0.201000  0.767200  0.067000  1.0
  H  H3495  1  0.566200  0.767200  0.567000  1.0
  H  H3496  1  0.799000  0.232800  0.933000  1.0
  H  H3497  1  0.384600  0.256600  0.457900  1.0
  H  H3498  1  0.128000  0.743400  0.042100  1.0
  H  H3499  1  0.615400  0.743400  0.542100  1.0
  H  H3500  1  0.872000  0.256600  0.957900  1.0
  H  H3501  1  0.487500  0.338000  0.470000  1.0
  H  H3502  1  0.149500  0.662000  0.030000  1.0
  H  H3503  1  0.512500  0.662000  0.530000  1.0
  H  H3504  1  0.850500  0.338000  0.970000  1.0
  H  H3505  1  0.536800  0.314200  0.445100  1.0
  H  H3506  1  0.222600  0.685800  0.054900  1.0
  H  H3507  1  0.463200  0.685800  0.554900  1.0
  H  H3508  1  0.777400  0.314200  0.945100  1.0
  H  H3509  1  0.367000  0.301400  0.479900  1.0
  H  H3510  1  0.065600  0.698600  0.020100  1.0
  H  H3511  1  0.633000  0.698600  0.520100  1.0
  H  H3512  1  0.934400  0.301400  0.979900  1.0
  H  H3513  1  0.401900  0.333800  0.477600  1.0
  H  H3514  1  0.068100  0.666200  0.022400  1.0
  H  H3515  1  0.598100  0.666200  0.522400  1.0
  H  H3516  1  0.931900  0.333800  0.977600  1.0
  H  H3517  1  0.408700  0.319600  0.503700  1.0
  H  H3518  1  0.089100  0.680400  0.996300  1.0
  H  H3519  1  0.591300  0.680400  0.496300  1.0
  H  H3520  1  0.910900  0.319600  0.003700  1.0
  H  H3521  1  0.474400  0.234400  0.391300  1.0
  H  H3522  1  0.240000  0.765600  0.108700  1.0
  H  H3523  1  0.525600  0.765600  0.608700  1.0
  H  H3524  1  0.760000  0.234400  0.891300  1.0
  H  H3525  1  0.483800  0.194800  0.348600  1.0
  H  H3526  1  0.289000  0.805200  0.151400  1.0
  H  H3527  1  0.516200  0.805200  0.651400  1.0
  H  H3528  1  0.711000  0.194800  0.848600  1.0
  H  H3529  1  0.532800  0.169000  0.326200  1.0
  H  H3530  1  0.363800  0.831000  0.173800  1.0
  H  H3531  1  0.467200  0.831000  0.673800  1.0
  H  H3532  1  0.636200  0.169000  0.826200  1.0
  H  H3533  1  0.635200  0.217200  0.388300  1.0
  H  H3534  1  0.418000  0.782800  0.111700  1.0
  H  H3535  1  0.364800  0.782800  0.611700  1.0
  H  H3536  1  0.582000  0.217200  0.888300  1.0
  H  H3537  1  0.679700  0.209600  0.353100  1.0
  H  H3538  1  0.470100  0.790400  0.146900  1.0
  H  H3539  1  0.320300  0.790400  0.646900  1.0
  H  H3540  1  0.529900  0.209600  0.853100  1.0
  H  H3541  1  0.568300  0.132800  0.329200  1.0
  H  H3542  1  0.435500  0.867200  0.170800  1.0
  H  H3543  1  0.431700  0.867200  0.670800  1.0
  H  H3544  1  0.564500  0.132800  0.829200  1.0
  H  H3545  1  0.618100  0.105600  0.311200  1.0
  H  H3546  1  0.512500  0.894400  0.188800  1.0
  H  H3547  1  0.381900  0.894400  0.688800  1.0
  H  H3548  1  0.487500  0.105600  0.811200  1.0
  H  H3549  1  0.698000  0.101800  0.305300  1.0
  H  H3550  1  0.596200  0.898200  0.194700  1.0
  H  H3551  1  0.302000  0.898200  0.694700  1.0
  H  H3552  1  0.403800  0.101800  0.805300  1.0
  H  H3553  1  0.746500  0.099200  0.268200  1.0
  H  H3554  1  0.647300  0.900800  0.231800  1.0
  H  H3555  1  0.253500  0.900800  0.731800  1.0
  H  H3556  1  0.352700  0.099200  0.768200  1.0
  H  H3557  1  0.799400  0.076200  0.247100  1.0
  H  H3558  1  0.723200  0.923800  0.252900  1.0
  H  H3559  1  0.200600  0.923800  0.752900  1.0
  H  H3560  1  0.276800  0.076200  0.747100  1.0
  H  H3561  1  0.890200  0.117600  0.316500  1.0
  H  H3562  1  0.772600  0.882400  0.183500  1.0
  H  H3563  1  0.109800  0.882400  0.683500  1.0
  H  H3564  1  0.227400  0.117600  0.816500  1.0
  H  H3565  1  0.837400  0.140600  0.337700  1.0
  H  H3566  1  0.696800  0.859400  0.162300  1.0
  H  H3567  1  0.162600  0.859400  0.662300  1.0
  H  H3568  1  0.303200  0.140600  0.837700  1.0
  H  H3569  1  0.891700  0.085600  0.247300  1.0
  H  H3570  1  0.806100  0.914400  0.252700  1.0
  H  H3571  1  0.108300  0.914400  0.752700  1.0
  H  H3572  1  0.193900  0.085600  0.747300  1.0
  H  H3573  1  0.872000  0.058000  0.262500  1.0
  H  H3574  1  0.814000  0.942000  0.237500  1.0
  H  H3575  1  0.128000  0.942000  0.737500  1.0
  H  H3576  1  0.186000  0.058000  0.762500  1.0
  H  H3577  1  0.914000  0.087600  0.277800  1.0
  H  H3578  1  0.826400  0.912400  0.222200  1.0
  H  H3579  1  0.086000  0.912400  0.722200  1.0
  H  H3580  1  0.173600  0.087600  0.777800  1.0
  H  H3581  1  0.705800  0.133400  0.240600  1.0
  H  H3582  1  0.572400  0.866600  0.259400  1.0
  H  H3583  1  0.294200  0.866600  0.759400  1.0
  H  H3584  1  0.427600  0.133400  0.740600  1.0
  H  H3585  1  0.628100  0.119200  0.223200  1.0
  H  H3586  1  0.508900  0.880800  0.276800  1.0
  H  H3587  1  0.371900  0.880800  0.776800  1.0
  H  H3588  1  0.491100  0.119200  0.723200  1.0
  H  H3589  1  0.618200  0.197800  0.271000  1.0
  H  H3590  1  0.420400  0.802200  0.229000  1.0
  H  H3591  1  0.381800  0.802200  0.729000  1.0
  H  H3592  1  0.579600  0.197800  0.771000  1.0
  H  H3593  1  0.695800  0.212000  0.288500  1.0
  H  H3594  1  0.483800  0.788000  0.211500  1.0
  H  H3595  1  0.304200  0.788000  0.711500  1.0
  H  H3596  1  0.516200  0.212000  0.788500  1.0
  H  H3597  1  0.557900  0.130800  0.217800  1.0
  H  H3598  1  0.427100  0.869200  0.282200  1.0
  H  H3599  1  0.442100  0.869200  0.782200  1.0
  H  H3600  1  0.572900  0.130800  0.717800  1.0
  H  H3601  1  0.558000  0.164800  0.229500  1.0
  H  H3602  1  0.393200  0.835200  0.270500  1.0
  H  H3603  1  0.442000  0.835200  0.770500  1.0
  H  H3604  1  0.606800  0.164800  0.729500  1.0
  H  H3605  1  0.544300  0.141000  0.249500  1.0
  H  H3606  1  0.403300  0.859000  0.250500  1.0
  H  H3607  1  0.455700  0.859000  0.750500  1.0
  H  H3608  1  0.596700  0.141000  0.749500  1.0
  H  H3609  1  0.775100  0.168200  0.244600  1.0
  H  H3610  1  0.606900  0.831800  0.255400  1.0
  H  H3611  1  0.224900  0.831800  0.755400  1.0
  H  H3612  1  0.393100  0.168200  0.744600  1.0
  H  H3613  1  0.860200  0.167200  0.238300  1.0
  H  H3614  1  0.693000  0.832800  0.261700  1.0
  H  H3615  1  0.139800  0.832800  0.761700  1.0
  H  H3616  1  0.307000  0.167200  0.738300  1.0
  H  H3617  1  0.933400  0.173200  0.258800  1.0
  H  H3618  1  0.760200  0.826800  0.241200  1.0
  H  H3619  1  0.066600  0.826800  0.741200  1.0
  H  H3620  1  0.239800  0.173200  0.758800  1.0
  H  H3621  1  0.894200  0.204600  0.336200  1.0
  H  H3622  1  0.689600  0.795400  0.163800  1.0
  H  H3623  1  0.105800  0.795400  0.663800  1.0
  H  H3624  1  0.310400  0.204600  0.836200  1.0
  H  H3625  1  0.971300  0.226800  0.344000  1.0
  H  H3626  1  0.744500  0.773200  0.156000  1.0
  H  H3627  1  0.028700  0.773200  0.656000  1.0
  H  H3628  1  0.255500  0.226800  0.844000  1.0
  H  H3629  1  0.969000  0.151800  0.288200  1.0
  H  H3630  1  0.817200  0.848200  0.211800  1.0
  H  H3631  1  0.031000  0.848200  0.711800  1.0
  H  H3632  1  0.182800  0.151800  0.788200  1.0
  H  H3633  1  0.034800  0.149800  0.311500  1.0
  H  H3634  1  0.885000  0.850200  0.188500  1.0
  H  H3635  1  0.965200  0.850200  0.688500  1.0
  H  H3636  1  0.115000  0.149800  0.811500  1.0
  H  H3637  1  0.095100  0.173000  0.349400  1.0
  H  H3638  1  0.922100  0.827000  0.150600  1.0
  H  H3639  1  0.904900  0.827000  0.650600  1.0
  H  H3640  1  0.077900  0.173000  0.849400  1.0
  H  H3641  1  0.175600  0.196600  0.352000  1.0
  H  H3642  1  0.979000  0.803400  0.148000  1.0
  H  H3643  1  0.824400  0.803400  0.648000  1.0
  H  H3644  1  0.021000  0.196600  0.852000  1.0
  H  H3645  1  0.249000  0.202600  0.372000  1.0
  H  H3646  1  0.046400  0.797400  0.128000  1.0
  H  H3647  1  0.751000  0.797400  0.628000  1.0
  H  H3648  1  0.953600  0.202600  0.872000  1.0
  H  H3649  1  0.213500  0.238800  0.449100  1.0
  H  H3650  1  0.974700  0.761200  0.050900  1.0
  H  H3651  1  0.786500  0.761200  0.550900  1.0
  H  H3652  1  0.025300  0.238800  0.949100  1.0
  H  H3653  1  0.140000  0.232800  0.429100  1.0
  H  H3654  1  0.907200  0.767200  0.070900  1.0
  H  H3655  1  0.860000  0.767200  0.570900  1.0
  H  H3656  1  0.092800  0.232800  0.929100  1.0
  H  H3657  1  0.296700  0.208400  0.417200  1.0
  H  H3658  1  0.088300  0.791600  0.082800  1.0
  H  H3659  1  0.703300  0.791600  0.582800  1.0
  H  H3660  1  0.911700  0.208400  0.917200  1.0
  H  H3661  1  0.286000  0.228000  0.446000  1.0
  H  H3662  1  0.058000  0.772000  0.054000  1.0
  H  H3663  1  0.714000  0.772000  0.554000  1.0
  H  H3664  1  0.942000  0.228000  0.946000  1.0
  H  H3665  1  0.309200  0.244400  0.421600  1.0
  H  H3666  1  0.064800  0.755600  0.078400  1.0
  H  H3667  1  0.690800  0.755600  0.578400  1.0
  H  H3668  1  0.935200  0.244400  0.921600  1.0
  H  H3669  1  0.049000  0.269400  0.309700  1.0
  H  H3670  1  0.779600  0.730600  0.190300  1.0
  H  H3671  1  0.951000  0.730600  0.690300  1.0
  H  H3672  1  0.220400  0.269400  0.809700  1.0
  H  H3673  1  0.016800  0.240200  0.264700  1.0
  H  H3674  1  0.776600  0.759800  0.235300  1.0
  H  H3675  1  0.983200  0.759800  0.735300  1.0
  H  H3676  1  0.223400  0.240200  0.764700  1.0
  H  H3677  1  0.114000  0.197800  0.260900  1.0
  H  H3678  1  0.916200  0.802200  0.239100  1.0
  H  H3679  1  0.886000  0.802200  0.739100  1.0
  H  H3680  1  0.083800  0.197800  0.760900  1.0
  H  H3681  1  0.146300  0.227000  0.305900  1.0
  H  H3682  1  0.919300  0.773000  0.194100  1.0
  H  H3683  1  0.853700  0.773000  0.694100  1.0
  H  H3684  1  0.080700  0.227000  0.805900  1.0
  H  H3685  1  0.012400  0.200600  0.224500  1.0
  H  H3686  1  0.811800  0.799400  0.275500  1.0
  H  H3687  1  0.987600  0.799400  0.775500  1.0
  H  H3688  1  0.188200  0.200600  0.724500  1.0
  H  H3689  1  0.036600  0.176000  0.227700  1.0
  H  H3690  1  0.860600  0.824000  0.272300  1.0
  H  H3691  1  0.963400  0.824000  0.772300  1.0
  H  H3692  1  0.139400  0.176000  0.727700  1.0
  H  H3693  1  0.063900  0.204400  0.214700  1.0
  H  H3694  1  0.859500  0.795600  0.285300  1.0
  H  H3695  1  0.936100  0.795600  0.785300  1.0
  H  H3696  1  0.140500  0.204400  0.714700  1.0
  H  H3697  1  0.186000  0.265600  0.331000  1.0
  H  H3698  1  0.920400  0.734400  0.169000  1.0
  H  H3699  1  0.814000  0.734400  0.669000  1.0
  H  H3700  1  0.079600  0.265600  0.831000  1.0
  H  H3701  1  0.251700  0.286400  0.366300  1.0
  H  H3702  1  0.965300  0.713600  0.133700  1.0
  H  H3703  1  0.748300  0.713600  0.633700  1.0
  H  H3704  1  0.034700  0.286400  0.866300  1.0
  H  H3705  1  0.282600  0.307800  0.414200  1.0
  H  H3706  1  0.974800  0.692200  0.085800  1.0
  H  H3707  1  0.717400  0.692200  0.585800  1.0
  H  H3708  1  0.025200  0.307800  0.914200  1.0
  H  H3709  1  0.152400  0.299800  0.434000  1.0
  H  H3710  1  0.852600  0.700200  0.066000  1.0
  H  H3711  1  0.847600  0.700200  0.566000  1.0
  H  H3712  1  0.147400  0.299800  0.934000  1.0
  H  H3713  1  0.194500  0.345200  0.467500  1.0
  H  H3714  1  0.849300  0.654800  0.032500  1.0
  H  H3715  1  0.805500  0.654800  0.532500  1.0
  H  H3716  1  0.150700  0.345200  0.967500  1.0
  H  H3717  1  0.288500  0.302000  0.461800  1.0
  H  H3718  1  0.986500  0.698000  0.038200  1.0
  H  H3719  1  0.711500  0.698000  0.538200  1.0
  H  H3720  1  0.013500  0.302000  0.961800  1.0
  H  H3721  1  0.309400  0.320600  0.510200  1.0
  H  H3722  1  0.988800  0.679400  0.989800  1.0
  H  H3723  1  0.690600  0.679400  0.489800  1.0
  H  H3724  1  0.011200  0.320600  0.010200  1.0
  H  H3725  1  0.301000  0.352200  0.555900  1.0
  H  H3726  1  0.948800  0.647800  0.944100  1.0
  H  H3727  1  0.699000  0.647800  0.444100  1.0
  H  H3728  1  0.051200  0.352200  0.055900  1.0
  H  H3729  1  0.344900  0.398800  0.582200  1.0
  H  H3730  1  0.946100  0.601200  0.917800  1.0
  H  H3731  1  0.655100  0.601200  0.417800  1.0
  H  H3732  1  0.053900  0.398800  0.082200  1.0
  H  H3733  1  0.374900  0.429800  0.626900  1.0
  H  H3734  1  0.945100  0.570200  0.873100  1.0
  H  H3735  1  0.625100  0.570200  0.373100  1.0
  H  H3736  1  0.054900  0.429800  0.126900  1.0
  H  H3737  1  0.243500  0.420600  0.650200  1.0
  H  H3738  1  0.822900  0.579400  0.849800  1.0
  H  H3739  1  0.756500  0.579400  0.349800  1.0
  H  H3740  1  0.177100  0.420600  0.150200  1.0
  H  H3741  1  0.213400  0.389600  0.605500  1.0
  H  H3742  1  0.823800  0.610400  0.894500  1.0
  H  H3743  1  0.786600  0.610400  0.394500  1.0
  H  H3744  1  0.176200  0.389600  0.105500  1.0
  H  H3745  1  0.346300  0.439000  0.682800  1.0
  H  H3746  1  0.907300  0.561000  0.817200  1.0
  H  H3747  1  0.653700  0.561000  0.317200  1.0
  H  H3748  1  0.092700  0.439000  0.182800  1.0
  H  H3749  1  0.306700  0.454400  0.682200  1.0
  H  H3750  1  0.852300  0.545600  0.817800  1.0
  H  H3751  1  0.693300  0.545600  0.317800  1.0
  H  H3752  1  0.147700  0.454400  0.182200  1.0
  H  H3753  1  0.355500  0.468000  0.669300  1.0
  H  H3754  1  0.887500  0.532000  0.830700  1.0
  H  H3755  1  0.644500  0.532000  0.330700  1.0
  H  H3756  1  0.112500  0.468000  0.169300  1.0
  H  H3757  1  0.983400  0.106000  0.554400  1.0
  H  H3758  1  0.877400  0.894000  0.945600  1.0
  H  H3759  1  0.016600  0.894000  0.445600  1.0
  H  H3760  1  0.122600  0.106000  0.054400  1.0
  H  H3761  1  0.963600  0.062600  0.572700  1.0
  H  H3762  1  0.901000  0.937400  0.927300  1.0
  H  H3763  1  0.036400  0.937400  0.427300  1.0
  H  H3764  1  0.099000  0.062600  0.072700  1.0
  H  H3765  1  0.991500  0.014600  0.498700  1.0
  H  H3766  1  0.976900  0.985400  0.001300  1.0
  H  H3767  1  0.008500  0.985400  0.501300  1.0
  H  H3768  1  0.023100  0.014600  0.998700  1.0
  H  H3769  1  0.011600  0.058200  0.480400  1.0
  H  H3770  1  0.953400  0.941800  0.019600  1.0
  H  H3771  1  0.988400  0.941800  0.519600  1.0
  H  H3772  1  0.046600  0.058200  0.980400  1.0
  H  H3773  1  0.943500  0.988200  0.534200  1.0
  H  H3774  1  0.955300  0.011800  0.965800  1.0
  H  H3775  1  0.056500  0.011800  0.465800  1.0
  H  H3776  1  0.044700  0.988200  0.034200  1.0
  H  H3777  1  0.941900  0.008200  0.565100  1.0
  H  H3778  1  0.933700  0.991800  0.934900  1.0
  H  H3779  1  0.058100  0.991800  0.434900  1.0
  H  H3780  1  0.066300  0.008200  0.065100  1.0
  H  H3781  1  0.989200  0.002200  0.555700  1.0
  H  H3782  1  0.987000  0.997800  0.944300  1.0
  H  H3783  1  0.010800  0.997800  0.444300  1.0
  H  H3784  1  0.013000  0.002200  0.055700  1.0
  H  H3785  1  0.964900  0.124000  0.523200  1.0
  H  H3786  1  0.840900  0.876000  0.976800  1.0
  H  H3787  1  0.035100  0.876000  0.476800  1.0
  H  H3788  1  0.159100  0.124000  0.023200  1.0
  H  H3789  1  0.948600  0.174600  0.523200  1.0
  H  H3790  1  0.774000  0.825400  0.976800  1.0
  H  H3791  1  0.051400  0.825400  0.476800  1.0
  H  H3792  1  0.226000  0.174600  0.023200  1.0
  H  H3793  1  0.957500  0.214600  0.500700  1.0
  H  H3794  1  0.742900  0.785400  0.999300  1.0
  H  H3795  1  0.042500  0.785400  0.499300  1.0
  H  H3796  1  0.257100  0.214600  0.000700  1.0
  H  H3797  1  0.044000  0.184200  0.447500  1.0
  H  H3798  1  0.859800  0.815800  0.052500  1.0
  H  H3799  1  0.956000  0.815800  0.552500  1.0
  H  H3800  1  0.140200  0.184200  0.947500  1.0
  H  H3801  1  0.046600  0.212400  0.428100  1.0
  H  H3802  1  0.834200  0.787600  0.071900  1.0
  H  H3803  1  0.953400  0.787600  0.571900  1.0
  H  H3804  1  0.165800  0.212400  0.928100  1.0
  H  H3805  1  0.974800  0.252200  0.485500  1.0
  H  H3806  1  0.722600  0.747800  0.014500  1.0
  H  H3807  1  0.025200  0.747800  0.514500  1.0
  H  H3808  1  0.277400  0.252200  0.985500  1.0
  H  H3809  1  0.988900  0.292400  0.462700  1.0
  H  H3810  1  0.696500  0.707600  0.037300  1.0
  H  H3811  1  0.011100  0.707600  0.537300  1.0
  H  H3812  1  0.303500  0.292400  0.962700  1.0
  H  H3813  1  0.024200  0.317400  0.421500  1.0
  H  H3814  1  0.706800  0.682600  0.078500  1.0
  H  H3815  1  0.975800  0.682600  0.578500  1.0
  H  H3816  1  0.293200  0.317400  0.921500  1.0
  H  H3817  1  0.994300  0.326000  0.382500  1.0
  H  H3818  1  0.668300  0.674000  0.117500  1.0
  H  H3819  1  0.005700  0.674000  0.617500  1.0
  H  H3820  1  0.331700  0.326000  0.882500  1.0
  H  H3821  1  0.009700  0.367400  0.361400  1.0
  H  H3822  1  0.642300  0.632600  0.138600  1.0
  H  H3823  1  0.990300  0.632600  0.638600  1.0
  H  H3824  1  0.357700  0.367400  0.861400  1.0
  H  H3825  1  0.134600  0.358400  0.340100  1.0
  H  H3826  1  0.776200  0.641600  0.159900  1.0
  H  H3827  1  0.865400  0.641600  0.659900  1.0
  H  H3828  1  0.223800  0.358400  0.840100  1.0
  H  H3829  1  0.119300  0.317000  0.361100  1.0
  H  H3830  1  0.802300  0.683000  0.138900  1.0
  H  H3831  1  0.880700  0.683000  0.638900  1.0
  H  H3832  1  0.197700  0.317000  0.861100  1.0
  H  H3833  1  0.062000  0.390000  0.319300  1.0
  H  H3834  1  0.672000  0.610000  0.180700  1.0
  H  H3835  1  0.938000  0.610000  0.680700  1.0
  H  H3836  1  0.328000  0.390000  0.819300  1.0
  H  H3837  1  0.116000  0.399600  0.329400  1.0
  H  H3838  1  0.716400  0.600400  0.170600  1.0
  H  H3839  1  0.884000  0.600400  0.670600  1.0
  H  H3840  1  0.283600  0.399600  0.829400  1.0
  H  H3841  1  0.081600  0.412000  0.349800  1.0
  H  H3842  1  0.669600  0.588000  0.150200  1.0
  H  H3843  1  0.918400  0.588000  0.650200  1.0
  H  H3844  1  0.330400  0.412000  0.849800  1.0
  H  H3845  1  0.933700  0.319800  0.785100  1.0
  H  H3846  1  0.613900  0.680200  0.714900  1.0
  H  H3847  1  0.066300  0.680200  0.214900  1.0
  H  H3848  1  0.386100  0.319800  0.285100  1.0
  H  H3849  1  0.934000  0.292000  0.819300  1.0
  H  H3850  1  0.642000  0.708000  0.680700  1.0
  H  H3851  1  0.066000  0.708000  0.180700  1.0
  H  H3852  1  0.358000  0.292000  0.319300  1.0
  H  H3853  1  0.958400  0.225800  0.759300  1.0
  H  H3854  1  0.732600  0.774200  0.740700  1.0
  H  H3855  1  0.041600  0.774200  0.240700  1.0
  H  H3856  1  0.267400  0.225800  0.259300  1.0
  H  H3857  1  0.958200  0.253600  0.725100  1.0
  H  H3858  1  0.704600  0.746400  0.774900  1.0
  H  H3859  1  0.041800  0.746400  0.274900  1.0
  H  H3860  1  0.295400  0.253600  0.225100  1.0
  H  H3861  1  0.913000  0.224400  0.815700  1.0
  H  H3862  1  0.688600  0.775600  0.684300  1.0
  H  H3863  1  0.087000  0.775600  0.184300  1.0
  H  H3864  1  0.311400  0.224400  0.315700  1.0
  H  H3865  1  0.956300  0.251200  0.833400  1.0
  H  H3866  1  0.705100  0.748800  0.666600  1.0
  H  H3867  1  0.043700  0.748800  0.166600  1.0
  H  H3868  1  0.294900  0.251200  0.333400  1.0
  H  H3869  1  0.965100  0.225000  0.809600  1.0
  H  H3870  1  0.740100  0.775000  0.690400  1.0
  H  H3871  1  0.034900  0.775000  0.190400  1.0
  H  H3872  1  0.259900  0.225000  0.309600  1.0
  H  H3873  1  0.925300  0.274800  0.698800  1.0
  H  H3874  1  0.650500  0.725200  0.801200  1.0
  H  H3875  1  0.074700  0.725200  0.301200  1.0
  H  H3876  1  0.349500  0.274800  0.198800  1.0
  H  H3877  1  0.911800  0.283000  0.651300  1.0
  H  H3878  1  0.628800  0.717000  0.848700  1.0
  H  H3879  1  0.088200  0.717000  0.348700  1.0
  H  H3880  1  0.371200  0.283000  0.151300  1.0
  H  H3881  1  0.919600  0.313800  0.619200  1.0
  H  H3882  1  0.605800  0.686200  0.880800  1.0
  H  H3883  1  0.080400  0.686200  0.380800  1.0
  H  H3884  1  0.394200  0.313800  0.119200  1.0
  H  H3885  1  0.002000  0.381800  0.677200  1.0
  H  H3886  1  0.620200  0.618200  0.822800  1.0
  H  H3887  1  0.998000  0.618200  0.322800  1.0
  H  H3888  1  0.379800  0.381800  0.177200  1.0
  H  H3889  1  0.983300  0.410600  0.657600  1.0
  H  H3890  1  0.572700  0.589400  0.842400  1.0
  H  H3891  1  0.016700  0.589400  0.342400  1.0
  H  H3892  1  0.427300  0.410600  0.157600  1.0
  H  H3893  1  0.966800  0.339600  0.590400  1.0
  H  H3894  1  0.627200  0.660400  0.909600  1.0
  H  H3895  1  0.033200  0.660400  0.409600  1.0
  H  H3896  1  0.372800  0.339600  0.090400  1.0
  H  H3897  1  0.988700  0.373400  0.560400  1.0
  H  H3898  1  0.615300  0.626600  0.939600  1.0
  H  H3899  1  0.011300  0.626600  0.439600  1.0
  H  H3900  1  0.384700  0.373400  0.060400  1.0
  H  H3901  1  0.013200  0.429600  0.556000  1.0
  H  H3902  1  0.583600  0.570400  0.944000  1.0
  H  H3903  1  0.986800  0.570400  0.444000  1.0
  H  H3904  1  0.416400  0.429600  0.056000  1.0
  H  H3905  1  0.020400  0.514600  0.590200  1.0
  H  H3906  1  0.505800  0.485400  0.909800  1.0
  H  H3907  1  0.979600  0.485400  0.409800  1.0
  H  H3908  1  0.494200  0.514600  0.090200  1.0
  H  H3909  1  0.051900  0.552000  0.564800  1.0
  H  H3910  1  0.499900  0.448000  0.935200  1.0
  H  H3911  1  0.948100  0.448000  0.435200  1.0
  H  H3912  1  0.500100  0.552000  0.064800  1.0
  H  H3913  1  0.122900  0.500200  0.520300  1.0
  H  H3914  1  0.622700  0.499800  0.979700  1.0
  H  H3915  1  0.877100  0.499800  0.479700  1.0
  H  H3916  1  0.377300  0.500200  0.020300  1.0
  H  H3917  1  0.091500  0.462800  0.545700  1.0
  H  H3918  1  0.628700  0.537200  0.954300  1.0
  H  H3919  1  0.908500  0.537200  0.454300  1.0
  H  H3920  1  0.371300  0.462800  0.045700  1.0
  H  H3921  1  0.141700  0.552800  0.517200  1.0
  H  H3922  1  0.588900  0.447200  0.982800  1.0
  H  H3923  1  0.858300  0.447200  0.482800  1.0
  H  H3924  1  0.411100  0.552800  0.017200  1.0
  H  H3925  1  0.117600  0.574600  0.536800  1.0
  H  H3926  1  0.543000  0.425400  0.963200  1.0
  H  H3927  1  0.882400  0.425400  0.463200  1.0
  H  H3928  1  0.457000  0.574600  0.036800  1.0
  H  H3929  1  0.090800  0.552200  0.507900  1.0
  H  H3930  1  0.538600  0.447800  0.992100  1.0
  H  H3931  1  0.909200  0.447800  0.492100  1.0
  H  H3932  1  0.461400  0.552200  0.007900  1.0
  H  H3933  1  0.766800  0.196200  0.669800  1.0
  H  H3934  1  0.570600  0.803800  0.830200  1.0
  H  H3935  1  0.233200  0.803800  0.330200  1.0
  H  H3936  1  0.429400  0.196200  0.169800  1.0
  H  H3937  1  0.755200  0.159200  0.696400  1.0
  H  H3938  1  0.596000  0.840800  0.803600  1.0
  H  H3939  1  0.244800  0.840800  0.303600  1.0
  H  H3940  1  0.404000  0.159200  0.196400  1.0
  H  H3941  1  0.686300  0.203400  0.752100  1.0
  H  H3942  1  0.482900  0.796600  0.747900  1.0
  H  H3943  1  0.313700  0.796600  0.247900  1.0
  H  H3944  1  0.517100  0.203400  0.252100  1.0
  H  H3945  1  0.697800  0.240400  0.725600  1.0
  H  H3946  1  0.457400  0.759600  0.774400  1.0
  H  H3947  1  0.302200  0.759600  0.274400  1.0
  H  H3948  1  0.542600  0.240400  0.225600  1.0
  H  H3949  1  0.719700  0.164400  0.764800  1.0
  H  H3950  1  0.555300  0.835600  0.735200  1.0
  H  H3951  1  0.280300  0.835600  0.235200  1.0
  H  H3952  1  0.444700  0.164400  0.264800  1.0
  H  H3953  1  0.735000  0.142800  0.739300  1.0
  H  H3954  1  0.592200  0.857200  0.760700  1.0
  H  H3955  1  0.265000  0.857200  0.260700  1.0
  H  H3956  1  0.407800  0.142800  0.239300  1.0
  H  H3957  1  0.681200  0.140000  0.741300  1.0
  H  H3958  1  0.541200  0.860000  0.758700  1.0
  H  H3959  1  0.318800  0.860000  0.258700  1.0
  H  H3960  1  0.458800  0.140000  0.241300  1.0
  H  H3961  1  0.793300  0.238000  0.662000  1.0
  H  H3962  1  0.555300  0.762000  0.838000  1.0
  H  H3963  1  0.206700  0.762000  0.338000  1.0
  H  H3964  1  0.444700  0.238000  0.162000  1.0
  H  H3965  1  0.830300  0.262600  0.621600  1.0
  H  H3966  1  0.567700  0.737400  0.878400  1.0
  H  H3967  1  0.169700  0.737400  0.378400  1.0
  H  H3968  1  0.432300  0.262600  0.121600  1.0
  H  H3969  1  0.831300  0.294000  0.592100  1.0
  H  H3970  1  0.537300  0.706000  0.907900  1.0
  H  H3971  1  0.168700  0.706000  0.407900  1.0
  H  H3972  1  0.462700  0.294000  0.092100  1.0
  H  H3973  1  0.725400  0.313200  0.630400  1.0
  H  H3974  1  0.412200  0.686800  0.869600  1.0
  H  H3975  1  0.274600  0.686800  0.369600  1.0
  H  H3976  1  0.587800  0.313200  0.130400  1.0
  H  H3977  1  0.741100  0.350200  0.611200  1.0
  H  H3978  1  0.390900  0.649800  0.888800  1.0
  H  H3979  1  0.258900  0.649800  0.388800  1.0
  H  H3980  1  0.609100  0.350200  0.111200  1.0
  H  H3981  1  0.805000  0.307400  0.554000  1.0
  H  H3982  1  0.497600  0.692600  0.946000  1.0
  H  H3983  1  0.195000  0.692600  0.446000  1.0
  H  H3984  1  0.502400  0.307400  0.054000  1.0
  H  H3985  1  0.798200  0.339000  0.524500  1.0
  H  H3986  1  0.459200  0.661000  0.975500  1.0
  H  H3987  1  0.201800  0.661000  0.475500  1.0
  H  H3988  1  0.540800  0.339000  0.024500  1.0
  H  H3989  1  0.777100  0.381200  0.514600  1.0
  H  H3990  1  0.395900  0.618800  0.985400  1.0
  H  H3991  1  0.222900  0.618800  0.485400  1.0
  H  H3992  1  0.604100  0.381200  0.014600  1.0
  H  H3993  1  0.692100  0.435400  0.544900  1.0
  H  H3994  1  0.256700  0.564600  0.955100  1.0
  H  H3995  1  0.307900  0.564600  0.455100  1.0
  H  H3996  1  0.743300  0.435400  0.044900  1.0
  H  H3997  1  0.686000  0.467800  0.516400  1.0
  H  H3998  1  0.218200  0.532200  0.983600  1.0
  H  H3999  1  0.314000  0.532200  0.483600  1.0
  H  H4000  1  0.781800  0.467800  0.016400  1.0
  H  H4001  1  0.785100  0.446200  0.468300  1.0
  H  H4002  1  0.338900  0.553800  0.031700  1.0
  H  H4003  1  0.214900  0.553800  0.531700  1.0
  H  H4004  1  0.661100  0.446200  0.968300  1.0
  H  H4005  1  0.791300  0.413800  0.496800  1.0
  H  H4006  1  0.377500  0.586200  0.003200  1.0
  H  H4007  1  0.208700  0.586200  0.503200  1.0
  H  H4008  1  0.622500  0.413800  0.996800  1.0
  H  H4009  1  0.699200  0.478400  0.465600  1.0
  H  H4010  1  0.220800  0.521600  0.034400  1.0
  H  H4011  1  0.300800  0.521600  0.534400  1.0
  H  H4012  1  0.779200  0.478400  0.965600  1.0
  H  H4013  1  0.749200  0.479200  0.454500  1.0
  H  H4014  1  0.270000  0.520800  0.045500  1.0
  H  H4015  1  0.250800  0.520800  0.545500  1.0
  H  H4016  1  0.730000  0.479200  0.954500  1.0
  H  H4017  1  0.745500  0.503200  0.482400  1.0
  H  H4018  1  0.242300  0.496800  0.017600  1.0
  H  H4019  1  0.254500  0.496800  0.517600  1.0
  H  H4020  1  0.757700  0.503200  0.982400  1.0
  H  H4021  1  0.020600  0.218600  0.681600  1.0
  H  H4022  1  0.802000  0.781400  0.818400  1.0
  H  H4023  1  0.979400  0.781400  0.318400  1.0
  H  H4024  1  0.198000  0.218600  0.181600  1.0
  H  H4025  1  0.006800  0.176400  0.701500  1.0
  H  H4026  1  0.830400  0.823600  0.798500  1.0
  H  H4027  1  0.993200  0.823600  0.298500  1.0
  H  H4028  1  0.169600  0.176400  0.201500  1.0
  H  H4029  1  0.119100  0.159400  0.665500  1.0
  H  H4030  1  0.959700  0.840600  0.834500  1.0
  H  H4031  1  0.880900  0.840600  0.334500  1.0
  H  H4032  1  0.040300  0.159400  0.165500  1.0
  H  H4033  1  0.133000  0.201400  0.645600  1.0
  H  H4034  1  0.931600  0.798600  0.854400  1.0
  H  H4035  1  0.867000  0.798600  0.354400  1.0
  H  H4036  1  0.068400  0.201400  0.145600  1.0
  H  H4037  1  0.080800  0.131400  0.700300  1.0
  H  H4038  1  0.949400  0.868600  0.799700  1.0
  H  H4039  1  0.919200  0.868600  0.299700  1.0
  H  H4040  1  0.050600  0.131400  0.200300  1.0
  H  H4041  1  0.029300  0.118000  0.684900  1.0
  H  H4042  1  0.911300  0.882000  0.815100  1.0
  H  H4043  1  0.970700  0.882000  0.315100  1.0
  H  H4044  1  0.088700  0.118000  0.184900  1.0
  H  H4045  1  0.038500  0.139200  0.716200  1.0
  H  H4046  1  0.899300  0.860800  0.783800  1.0
  H  H4047  1  0.961500  0.860800  0.283800  1.0
  H  H4048  1  0.100700  0.139200  0.216200  1.0
  H  H4049  1  0.020900  0.237400  0.642700  1.0
  H  H4050  1  0.783500  0.762600  0.857300  1.0
  H  H4051  1  0.979100  0.762600  0.357300  1.0
  H  H4052  1  0.216500  0.237400  0.142700  1.0
  H  H4053  1  0.992200  0.263800  0.612100  1.0
  H  H4054  1  0.728400  0.736200  0.887900  1.0
  H  H4055  1  0.007800  0.736200  0.387900  1.0
  H  H4056  1  0.271600  0.263800  0.112100  1.0
  H  H4057  1  0.005900  0.296800  0.581300  1.0
  H  H4058  1  0.709100  0.703200  0.918700  1.0
  H  H4059  1  0.994100  0.703200  0.418700  1.0
  H  H4060  1  0.290900  0.296800  0.081300  1.0
  H  H4061  1  0.140900  0.299800  0.580300  1.0
  H  H4062  1  0.841100  0.700200  0.919700  1.0
  H  H4063  1  0.859100  0.700200  0.419700  1.0
  H  H4064  1  0.158900  0.299800  0.080300  1.0
  H  H4065  1  0.152300  0.342600  0.571600  1.0
  H  H4066  1  0.809700  0.657400  0.928400  1.0
  H  H4067  1  0.847700  0.657400  0.428400  1.0
  H  H4068  1  0.190300  0.342600  0.071600  1.0
  H  H4069  1  0.018800  0.313600  0.544200  1.0
  H  H4070  1  0.705200  0.686400  0.955800  1.0
  H  H4071  1  0.981200  0.686400  0.455800  1.0
  H  H4072  1  0.294800  0.313600  0.044200  1.0
  H  H4073  1  0.036200  0.341000  0.510000  1.0
  H  H4074  1  0.695200  0.659000  0.990000  1.0
  H  H4075  1  0.963800  0.659000  0.490000  1.0
  H  H4076  1  0.304800  0.341000  0.010000  1.0
  H  H4077  1  0.090000  0.387200  0.495700  1.0
  H  H4078  1  0.702800  0.612800  0.004300  1.0
  H  H4079  1  0.910000  0.612800  0.504300  1.0
  H  H4080  1  0.297200  0.387200  0.995700  1.0
  H  H4081  1  0.106200  0.440600  0.501300  1.0
  H  H4082  1  0.665600  0.559400  0.998700  1.0
  H  H4083  1  0.893800  0.559400  0.498700  1.0
  H  H4084  1  0.334400  0.440600  0.001300  1.0
  H  H4085  1  0.119200  0.472600  0.469700  1.0
  H  H4086  1  0.646600  0.527400  0.030300  1.0
  H  H4087  1  0.880800  0.527400  0.530300  1.0
  H  H4088  1  0.353400  0.472600  0.969700  1.0
  H  H4089  1  0.236100  0.452200  0.447300  1.0
  H  H4090  1  0.783900  0.547800  0.052700  1.0
  H  H4091  1  0.763900  0.547800  0.552700  1.0
  H  H4092  1  0.216100  0.452200  0.947300  1.0
  H  H4093  1  0.223300  0.420200  0.478800  1.0
  H  H4094  1  0.803100  0.579800  0.021200  1.0
  H  H4095  1  0.776700  0.579800  0.521200  1.0
  H  H4096  1  0.196900  0.420200  0.978800  1.0
  H  H4097  1  0.181800  0.475400  0.415700  1.0
  H  H4098  1  0.706400  0.524600  0.084300  1.0
  H  H4099  1  0.818200  0.524600  0.584300  1.0
  H  H4100  1  0.293600  0.475400  0.915700  1.0
  H  H4101  1  0.220700  0.500400  0.438400  1.0
  H  H4102  1  0.720300  0.499600  0.061600  1.0
  H  H4103  1  0.779300  0.499600  0.561600  1.0
  H  H4104  1  0.279700  0.500400  0.938400  1.0
  H  H4105  1  0.167600  0.499600  0.439100  1.0
  H  H4106  1  0.668000  0.500400  0.060900  1.0
  H  H4107  1  0.832400  0.500400  0.560900  1.0
  H  H4108  1  0.332000  0.499600  0.939100  1.0
  H  H4109  1  0.756000  0.012400  0.446300  1.0
  H  H4110  1  0.743600  0.987600  0.053700  1.0
  H  H4111  1  0.244000  0.987600  0.553700  1.0
  H  H4112  1  0.256400  0.012400  0.946300  1.0
  H  H4113  1  0.764800  0.973600  0.465600  1.0
  H  H4114  1  0.791200  0.026400  0.034400  1.0
  H  H4115  1  0.235200  0.026400  0.534400  1.0
  H  H4116  1  0.208800  0.973600  0.965600  1.0
  H  H4117  1  0.895300  0.027000  0.497800  1.0
  H  H4118  1  0.868300  0.973000  0.002200  1.0
  H  H4119  1  0.104700  0.973000  0.502200  1.0
  H  H4120  1  0.131700  0.027000  0.997800  1.0
  H  H4121  1  0.886700  0.066000  0.478500  1.0
  H  H4122  1  0.820700  0.934000  0.021500  1.0
  H  H4123  1  0.113300  0.934000  0.521500  1.0
  H  H4124  1  0.179300  0.066000  0.978500  1.0
  H  H4125  1  0.821200  0.969800  0.513100  1.0
  H  H4126  1  0.851400  0.030200  0.986900  1.0
  H  H4127  1  0.178800  0.030200  0.486900  1.0
  H  H4128  1  0.148600  0.969800  0.013100  1.0
  H  H4129  1  0.870400  0.974400  0.499600  1.0
  H  H4130  1  0.896000  0.025600  0.000400  1.0
  H  H4131  1  0.129600  0.025600  0.500400  1.0
  H  H4132  1  0.104000  0.974400  0.999600  1.0
  H  H4133  1  0.823700  0.951200  0.481600  1.0
  H  H4134  1  0.872500  0.048800  0.018400  1.0
  H  H4135  1  0.176300  0.048800  0.518400  1.0
  H  H4136  1  0.127500  0.951200  0.981600  1.0
  H  H4137  1  0.838800  0.099000  0.488500  1.0
  H  H4138  1  0.739800  0.901000  0.011500  1.0
  H  H4139  1  0.161200  0.901000  0.511500  1.0
  H  H4140  1  0.260200  0.099000  0.988500  1.0
  H  H4141  1  0.855100  0.152000  0.489500  1.0
  H  H4142  1  0.703100  0.848000  0.010500  1.0
  H  H4143  1  0.144900  0.848000  0.510500  1.0
  H  H4144  1  0.296900  0.152000  0.989500  1.0
  H  H4145  1  0.851900  0.191800  0.469500  1.0
  H  H4146  1  0.660100  0.808200  0.030500  1.0
  H  H4147  1  0.148100  0.808200  0.530500  1.0
  H  H4148  1  0.339900  0.191800  0.969500  1.0
  H  H4149  1  0.776100  0.130800  0.400600  1.0
  H  H4150  1  0.645300  0.869200  0.099400  1.0
  H  H4151  1  0.223900  0.869200  0.599400  1.0
  H  H4152  1  0.354700  0.130800  0.900600  1.0
  H  H4153  1  0.806500  0.162400  0.379000  1.0
  H  H4154  1  0.644100  0.837600  0.121000  1.0
  H  H4155  1  0.193500  0.837600  0.621000  1.0
  H  H4156  1  0.355900  0.162400  0.879000  1.0
  H  H4157  1  0.819700  0.223000  0.454000  1.0
  H  H4158  1  0.596700  0.777000  0.046000  1.0
  H  H4159  1  0.180300  0.777000  0.546000  1.0
  H  H4160  1  0.403300  0.223000  0.954000  1.0
  H  H4161  1  0.810600  0.258600  0.430000  1.0
  H  H4162  1  0.552000  0.741400  0.070000  1.0
  H  H4163  1  0.189400  0.741400  0.570000  1.0
  H  H4164  1  0.448000  0.258600  0.930000  1.0
  H  H4165  1  0.809000  0.273000  0.380000  1.0
  H  H4166  1  0.536000  0.727000  0.120000  1.0
  H  H4167  1  0.191000  0.727000  0.620000  1.0
  H  H4168  1  0.464000  0.273000  0.880000  1.0
  H  H4169  1  0.790700  0.240000  0.293700  1.0
  H  H4170  1  0.550700  0.760000  0.206300  1.0
  H  H4171  1  0.209300  0.760000  0.706300  1.0
  H  H4172  1  0.449300  0.240000  0.793700  1.0
  H  H4173  1  0.783900  0.274200  0.267300  1.0
  H  H4174  1  0.509700  0.725800  0.232700  1.0
  H  H4175  1  0.216100  0.725800  0.732700  1.0
  H  H4176  1  0.490300  0.274200  0.767300  1.0
  H  H4177  1  0.779300  0.334200  0.339900  1.0
  H  H4178  1  0.445100  0.665800  0.160100  1.0
  H  H4179  1  0.220700  0.665800  0.660100  1.0
  H  H4180  1  0.554900  0.334200  0.839900  1.0
  H  H4181  1  0.786100  0.300000  0.366300  1.0
  H  H4182  1  0.486100  0.700000  0.133700  1.0
  H  H4183  1  0.213900  0.700000  0.633700  1.0
  H  H4184  1  0.513900  0.300000  0.866300  1.0
  H  H4185  1  0.779100  0.321800  0.263700  1.0
  H  H4186  1  0.457300  0.678200  0.236300  1.0
  H  H4187  1  0.220900  0.678200  0.736300  1.0
  H  H4188  1  0.542700  0.321800  0.763700  1.0
  H  H4189  1  0.798500  0.349600  0.290800  1.0
  H  H4190  1  0.448900  0.650400  0.209200  1.0
  H  H4191  1  0.201500  0.650400  0.709200  1.0
  H  H4192  1  0.551100  0.349600  0.790800  1.0
  H  H4193  1  0.743700  0.331200  0.285400  1.0
  H  H4194  1  0.412500  0.668800  0.214600  1.0
  H  H4195  1  0.256300  0.668800  0.714600  1.0
  H  H4196  1  0.587500  0.331200  0.785400  1.0
  H  H4197  1  0.598200  0.090800  0.574900  1.0
  H  H4198  1  0.507400  0.909200  0.925100  1.0
  H  H4199  1  0.401800  0.909200  0.425100  1.0
  H  H4200  1  0.492600  0.090800  0.074900  1.0
  H  H4201  1  0.607900  0.061400  0.605700  1.0
  H  H4202  1  0.546500  0.938600  0.894300  1.0
  H  H4203  1  0.392100  0.938600  0.394300  1.0
  H  H4204  1  0.453500  0.061400  0.105700  1.0
  H  H4205  1  0.729100  0.058600  0.571700  1.0
  H  H4206  1  0.670500  0.941400  0.928300  1.0
  H  H4207  1  0.270900  0.941400  0.428300  1.0
  H  H4208  1  0.329500  0.058600  0.071700  1.0
  H  H4209  1  0.719500  0.088000  0.540900  1.0
  H  H4210  1  0.631500  0.912000  0.959100  1.0
  H  H4211  1  0.280500  0.912000  0.459100  1.0
  H  H4212  1  0.368500  0.088000  0.040900  1.0
  H  H4213  1  0.679800  0.048800  0.631100  1.0
  H  H4214  1  0.631000  0.951200  0.868900  1.0
  H  H4215  1  0.320200  0.951200  0.368900  1.0
  H  H4216  1  0.369000  0.048800  0.131100  1.0
  H  H4217  1  0.702000  0.030400  0.606500  1.0
  H  H4218  1  0.671600  0.969600  0.893500  1.0
  H  H4219  1  0.298000  0.969600  0.393500  1.0
  H  H4220  1  0.328400  0.030400  0.106500  1.0
  H  H4221  1  0.646900  0.019200  0.609200  1.0
  H  H4222  1  0.627700  0.980800  0.890800  1.0
  H  H4223  1  0.353100  0.980800  0.390800  1.0
  H  H4224  1  0.372300  0.019200  0.109200  1.0
  H  H4225  1  0.731000  0.132200  0.540900  1.0
  H  H4226  1  0.598800  0.867800  0.959100  1.0
  H  H4227  1  0.269000  0.867800  0.459100  1.0
  H  H4228  1  0.401200  0.132200  0.040900  1.0
  H  H4229  1  0.774200  0.214600  0.498500  1.0
  H  H4230  1  0.559600  0.785400  0.001500  1.0
  H  H4231  1  0.225800  0.785400  0.501500  1.0
  H  H4232  1  0.440400  0.214600  0.998500  1.0
  H  H4233  1  0.773500  0.172200  0.519100  1.0
  H  H4234  1  0.601300  0.827800  0.980900  1.0
  H  H4235  1  0.226500  0.827800  0.480900  1.0
  H  H4236  1  0.398700  0.172200  0.019100  1.0
  H  H4237  1  0.635400  0.189000  0.503100  1.0
  H  H4238  1  0.446400  0.811000  0.996900  1.0
  H  H4239  1  0.364600  0.811000  0.496900  1.0
  H  H4240  1  0.553600  0.189000  0.003100  1.0
  H  H4241  1  0.636200  0.211400  0.469000  1.0
  H  H4242  1  0.424800  0.788600  0.031000  1.0
  H  H4243  1  0.363800  0.788600  0.531000  1.0
  H  H4244  1  0.575200  0.211400  0.969000  1.0
  H  H4245  1  0.767900  0.260600  0.498800  1.0
  H  H4246  1  0.507300  0.739400  0.001200  1.0
  H  H4247  1  0.232100  0.739400  0.501200  1.0
  H  H4248  1  0.492700  0.260600  0.998800  1.0
  H  H4249  1  0.760500  0.299800  0.479200  1.0
  H  H4250  1  0.460700  0.700200  0.020800  1.0
  H  H4251  1  0.239500  0.700200  0.520800  1.0
  H  H4252  1  0.539300  0.299800  0.979200  1.0
  H  H4253  1  0.712200  0.318800  0.450200  1.0
  H  H4254  1  0.393400  0.681200  0.049800  1.0
  H  H4255  1  0.287800  0.681200  0.549800  1.0
  H  H4256  1  0.606600  0.318800  0.950200  1.0
  H  H4257  1  0.575000  0.295600  0.402800  0.44
  H  H4258  1  0.279400  0.704400  0.097200  0.44
  H  H4259  1  0.425000  0.704400  0.597200  0.44
  H  H4260  1  0.720600  0.295600  0.902800  0.44
  H  H4261  1  0.562900  0.329000  0.377200  0.44
  H  H4262  1  0.233900  0.671000  0.122800  0.44
  H  H4263  1  0.437100  0.671000  0.622800  0.44
  H  H4264  1  0.766100  0.329000  0.877200  0.44
  H  H4265  1  0.702800  0.367800  0.376600  0.44
  H  H4266  1  0.335000  0.632200  0.123400  0.44
  H  H4267  1  0.297200  0.632200  0.623400  0.44
  H  H4268  1  0.665000  0.367800  0.876600  0.44
  H  H4269  1  0.714900  0.334200  0.402100  0.44
  H  H4270  1  0.380700  0.665800  0.097900  0.44
  H  H4271  1  0.285100  0.665800  0.597900  0.44
  H  H4272  1  0.619300  0.334200  0.902100  0.44
  H  H4273  1  0.594300  0.364800  0.346600  0.44
  H  H4274  1  0.229500  0.635200  0.153400  0.44
  H  H4275  1  0.405700  0.635200  0.653400  0.44
  H  H4276  1  0.770500  0.364800  0.846600  0.44
  H  H4277  1  0.649400  0.379800  0.346200  0.44
  H  H4278  1  0.269600  0.620200  0.153800  0.44
  H  H4279  1  0.350600  0.620200  0.653800  0.44
  H  H4280  1  0.730400  0.379800  0.846200  0.44
  H  H4281  1  0.622600  0.392400  0.371900  0.44
  H  H4282  1  0.230200  0.607600  0.128100  0.44
  H  H4283  1  0.377400  0.607600  0.628100  0.44
  H  H4284  1  0.769800  0.392400  0.871900  0.44
  H  H4285  1  0.603200  0.300000  0.398800  0.56
  H  H4286  1  0.303200  0.700000  0.101200  0.56
  H  H4287  1  0.396800  0.700000  0.601200  0.56
  H  H4288  1  0.696800  0.300000  0.898800  0.56
  H  H4289  1  0.590800  0.341800  0.386500  0.56
  H  H4290  1  0.249000  0.658200  0.113500  0.56
  H  H4291  1  0.409200  0.658200  0.613500  0.56
  H  H4292  1  0.751000  0.341800  0.886500  0.56
  H  H4293  1  0.666700  0.397200  0.458100  0.56
  H  H4294  1  0.269500  0.602800  0.041900  0.56
  H  H4295  1  0.333300  0.602800  0.541900  0.56
  H  H4296  1  0.730500  0.397200  0.958100  0.56
  H  H4297  1  0.679200  0.355400  0.470500  0.56
  H  H4298  1  0.323800  0.644600  0.029500  0.56
  H  H4299  1  0.320800  0.644600  0.529500  0.56
  H  H4300  1  0.676200  0.355400  0.970500  0.56
  H  H4301  1  0.584900  0.398200  0.414200  0.56
  H  H4302  1  0.186700  0.601800  0.085800  0.56
  H  H4303  1  0.415100  0.601800  0.585800  0.56
  H  H4304  1  0.813300  0.398200  0.914200  0.56
  H  H4305  1  0.627300  0.401800  0.394100  0.56
  H  H4306  1  0.225500  0.598200  0.105900  0.56
  H  H4307  1  0.372700  0.598200  0.605900  0.56
  H  H4308  1  0.774500  0.401800  0.894100  0.56
  H  H4309  1  0.636400  0.419400  0.426800  0.56
  H  H4310  1  0.217000  0.580600  0.073200  0.56
  H  H4311  1  0.363600  0.580600  0.573200  0.56
  H  H4312  1  0.783000  0.419400  0.926800  0.56
  N  N4313  1  0.014100  0.370600  0.789800  1.0
  N  N4314  1  0.643500  0.629400  0.710200  1.0
  N  N4315  1  0.985900  0.629400  0.210200  1.0
  N  N4316  1  0.356500  0.370600  0.289800  1.0
  N  N4317  1  0.063500  0.357200  0.745500  1.0
  N  N4318  1  0.706300  0.642800  0.754500  1.0
  N  N4319  1  0.936500  0.642800  0.254500  1.0
  N  N4320  1  0.293700  0.357200  0.245500  1.0
  N  N4321  1  0.174290  0.314580  0.660700  1.0
  N  N4322  1  0.859710  0.685420  0.839300  1.0
  N  N4323  1  0.825710  0.685420  0.339300  1.0
  N  N4324  1  0.140290  0.314580  0.160700  1.0
  N  N4325  1  0.230100  0.302600  0.617800  1.0
  N  N4326  1  0.927500  0.697400  0.882200  1.0
  N  N4327  1  0.769900  0.697400  0.382200  1.0
  N  N4328  1  0.072500  0.302600  0.117800  1.0
  N  N4329  1  0.217200  0.257400  0.657300  1.0
  N  N4330  1  0.959800  0.742600  0.842700  1.0
  N  N4331  1  0.782800  0.742600  0.342700  1.0
  N  N4332  1  0.040200  0.257400  0.157300  1.0
  N  N4333  1  0.132800  0.163600  0.488900  1.0
  N  N4334  1  0.969200  0.836400  0.011100  1.0
  N  N4335  1  0.867200  0.836400  0.511100  1.0
  N  N4336  1  0.030800  0.163600  0.988900  1.0
  N  N4337  1  0.107700  0.141600  0.430100  1.0
  N  N4338  1  0.966100  0.858400  0.069900  1.0
  N  N4339  1  0.892300  0.858400  0.569900  1.0
  N  N4340  1  0.033900  0.141600  0.930100  1.0
  N  N4341  1  0.103300  0.087800  0.459600  1.0
  N  N4342  1  0.015500  0.912200  0.040400  1.0
  N  N4343  1  0.896700  0.912200  0.540400  1.0
  N  N4344  1  0.984500  0.087800  0.959600  1.0
  N  N4345  1  0.845900  0.063400  0.384000  1.0
  N  N4346  1  0.782500  0.936600  0.116000  1.0
  N  N4347  1  0.154100  0.936600  0.616000  1.0
  N  N4348  1  0.217500  0.063400  0.884000  1.0
  N  N4349  1  0.760200  0.062400  0.361400  1.0
  N  N4350  1  0.697800  0.937600  0.138600  1.0
  N  N4351  1  0.239800  0.937600  0.638600  1.0
  N  N4352  1  0.302200  0.062400  0.861400  1.0
  N  N4353  1  0.747600  0.007600  0.382000  1.0
  N  N4354  1  0.740000  0.992400  0.118000  1.0
  N  N4355  1  0.252400  0.992400  0.618000  1.0
  N  N4356  1  0.260000  0.007600  0.882000  1.0
  N  N4357  1  0.588520  0.101840  0.474600  1.0
  N  N4358  1  0.486680  0.898160  0.025400  1.0
  N  N4359  1  0.411480  0.898160  0.525400  1.0
  N  N4360  1  0.513320  0.101840  0.974600  1.0
  N  N4361  1  0.539300  0.139000  0.500100  1.0
  N  N4362  1  0.400300  0.861000  0.999900  1.0
  N  N4363  1  0.460700  0.861000  0.499900  1.0
  N  N4364  1  0.599700  0.139000  0.000100  1.0
  N  N4365  1  0.535400  0.085000  0.529700  1.0
  N  N4366  1  0.450400  0.915000  0.970300  1.0
  N  N4367  1  0.464600  0.915000  0.470300  1.0
  N  N4368  1  0.549600  0.085000  0.029700  1.0
  N  N4369  1  0.625870  0.252740  0.646200  1.0
  N  N4370  1  0.373130  0.747260  0.853800  1.0
  N  N4371  1  0.374130  0.747260  0.353800  1.0
  N  N4372  1  0.626870  0.252740  0.146200  1.0
  N  N4373  1  0.657310  0.314220  0.677300  1.0
  N  N4374  1  0.343090  0.685780  0.822700  1.0
  N  N4375  1  0.342690  0.685780  0.322700  1.0
  N  N4376  1  0.656910  0.314220  0.177300  1.0
  N  N4377  1  0.639600  0.266800  0.715600  1.0
  N  N4378  1  0.372800  0.733200  0.784400  1.0
  N  N4379  1  0.360400  0.733200  0.284400  1.0
  N  N4380  1  0.627200  0.266800  0.215600  1.0
  N  N4381  1  0.012890  0.413780  0.744500  1.0
  N  N4382  1  0.599110  0.586220  0.755500  1.0
  N  N4383  1  0.987110  0.586220  0.255500  1.0
  N  N4384  1  0.400890  0.413780  0.244500  1.0
  N  N4385  1  0.045280  0.479360  0.684700  1.0
  N  N4386  1  0.565920  0.520640  0.815300  1.0
  N  N4387  1  0.954720  0.520640  0.315300  1.0
  N  N4388  1  0.434080  0.479360  0.184700  1.0
  N  N4389  1  0.105980  0.474160  0.643400  1.0
  N  N4390  1  0.631820  0.525840  0.856600  1.0
  N  N4391  1  0.894020  0.525840  0.356600  1.0
  N  N4392  1  0.368180  0.474160  0.143400  1.0
  N  N4393  1  0.227130  0.438260  0.565600  1.0
  N  N4394  1  0.788870  0.561740  0.934400  1.0
  N  N4395  1  0.772870  0.561740  0.434400  1.0
  N  N4396  1  0.211130  0.438260  0.065600  1.0
  N  N4397  1  0.287900  0.424600  0.527400  1.0
  N  N4398  1  0.863300  0.575400  0.972600  1.0
  N  N4399  1  0.712100  0.575400  0.472600  1.0
  N  N4400  1  0.136700  0.424600  0.027400  1.0
  N  N4401  1  0.257400  0.373000  0.561800  1.0
  N  N4402  1  0.884400  0.627000  0.938200  1.0
  N  N4403  1  0.742600  0.627000  0.438200  1.0
  N  N4404  1  0.115600  0.373000  0.061800  1.0
  N  N4405  1  0.229200  0.350400  0.504400  1.0
  N  N4406  1  0.878800  0.649600  0.995600  1.0
  N  N4407  1  0.770800  0.649600  0.495600  1.0
  N  N4408  1  0.121200  0.350400  0.004400  1.0
  N  N4409  1  0.155340  0.285680  0.394700  1.0
  N  N4410  1  0.869660  0.714320  0.105300  1.0
  N  N4411  1  0.844660  0.714320  0.605300  1.0
  N  N4412  1  0.130340  0.285680  0.894700  1.0
  N  N4413  1  0.125000  0.262200  0.340200  1.0
  N  N4414  1  0.862800  0.737800  0.159800  1.0
  N  N4415  1  0.875000  0.737800  0.659800  1.0
  N  N4416  1  0.137200  0.262200  0.840200  1.0
  N  N4417  1  0.107200  0.212600  0.376700  1.0
  N  N4418  1  0.894600  0.787400  0.123300  1.0
  N  N4419  1  0.892800  0.787400  0.623300  1.0
  N  N4420  1  0.105400  0.212600  0.876700  1.0
  N  N4421  1  0.025500  0.214000  0.349000  1.0
  N  N4422  1  0.811500  0.786000  0.151000  1.0
  N  N4423  1  0.974500  0.786000  0.651000  1.0
  N  N4424  1  0.188500  0.214000  0.849000  1.0
  N  N4425  1  0.754700  0.183600  0.278900  1.0
  N  N4426  1  0.571100  0.816400  0.221100  1.0
  N  N4427  1  0.245300  0.816400  0.721100  1.0
  N  N4428  1  0.428900  0.183600  0.778900  1.0
  N  N4429  1  0.755200  0.138200  0.315700  1.0
  N  N4430  1  0.617000  0.861800  0.184300  1.0
  N  N4431  1  0.244800  0.861800  0.684300  1.0
  N  N4432  1  0.383000  0.138200  0.815700  1.0
  N  N4433  1  0.520200  0.258400  0.420700  1.0
  N  N4434  1  0.261800  0.741600  0.079300  1.0
  N  N4435  1  0.479800  0.741600  0.579300  1.0
  N  N4436  1  0.738200  0.258400  0.920700  1.0
  N  N4437  1  0.532300  0.212600  0.454800  1.0
  N  N4438  1  0.319700  0.787400  0.045200  1.0
  N  N4439  1  0.467700  0.787400  0.545200  1.0
  N  N4440  1  0.680300  0.212600  0.954800  1.0
  N  N4441  1  0.677600  0.441200  0.600100  1.0
  N  N4442  1  0.236400  0.558800  0.899900  1.0
  N  N4443  1  0.322400  0.558800  0.399900  1.0
  N  N4444  1  0.763600  0.441200  0.100100  1.0
  N  N4445  1  0.682500  0.390200  0.630000  1.0
  N  N4446  1  0.292300  0.609800  0.870000  1.0
  N  N4447  1  0.317500  0.609800  0.370000  1.0
  N  N4448  1  0.707700  0.390200  0.130000  1.0
  N  N4449  1  0.770980  0.430360  0.629200  1.0
  N  N4450  1  0.340620  0.569640  0.870800  1.0
  N  N4451  1  0.229020  0.569640  0.370800  1.0
  N  N4452  1  0.659380  0.430360  0.129200  1.0
  N  N4453  1  0.059800  0.529800  0.652500  1.0
  N  N4454  1  0.530000  0.470200  0.847500  1.0
  N  N4455  1  0.940200  0.470200  0.347500  1.0
  N  N4456  1  0.470000  0.529800  0.152500  1.0
  N  N4457  1  0.954400  0.308800  0.731200  1.0
  N  N4458  1  0.645600  0.691200  0.768800  1.0
  N  N4459  1  0.045600  0.691200  0.268800  1.0
  N  N4460  1  0.354400  0.308800  0.231200  1.0
  N  N4461  1  0.976300  0.344000  0.691800  1.0
  N  N4462  1  0.632300  0.656000  0.808200  1.0
  N  N4463  1  0.023700  0.656000  0.308200  1.0
  N  N4464  1  0.367700  0.344000  0.191800  1.0
  N  N4465  1  0.028600  0.463000  0.586300  1.0
  N  N4466  1  0.565600  0.537000  0.913700  1.0
  N  N4467  1  0.971400  0.537000  0.413700  1.0
  N  N4468  1  0.434400  0.463000  0.086300  1.0
  N  N4469  1  0.085400  0.237600  0.643400  1.0
  N  N4470  1  0.847800  0.762400  0.856600  1.0
  N  N4471  1  0.914600  0.762400  0.356600  1.0
  N  N4472  1  0.152200  0.237600  0.143400  1.0
  N  N4473  1  0.138090  0.362180  0.542000  1.0
  N  N4474  1  0.775910  0.637820  0.958000  1.0
  N  N4475  1  0.861910  0.637820  0.458000  1.0
  N  N4476  1  0.224090  0.362180  0.042000  1.0
  N  N4477  1  0.154300  0.399000  0.505000  1.0
  N  N4478  1  0.755300  0.601000  0.995000  1.0
  N  N4479  1  0.845700  0.601000  0.495000  1.0
  N  N4480  1  0.244700  0.399000  0.005000  1.0
  N  N4481  1  0.016900  0.114200  0.504800  1.0
  N  N4482  1  0.902700  0.885800  0.995200  1.0
  N  N4483  1  0.983100  0.885800  0.495200  1.0
  N  N4484  1  0.097300  0.114200  0.004800  1.0
  N  N4485  1  0.049500  0.297600  0.391700  1.0
  N  N4486  1  0.751900  0.702400  0.108300  1.0
  N  N4487  1  0.950500  0.702400  0.608300  1.0
  N  N4488  1  0.248100  0.297600  0.891700  1.0
  N  N4489  1  0.811800  0.069200  0.454700  1.0
  N  N4490  1  0.742600  0.930800  0.045300  1.0
  N  N4491  1  0.188200  0.930800  0.545300  1.0
  N  N4492  1  0.257400  0.069200  0.954700  1.0
  N  N4493  1  0.788200  0.244200  0.345400  1.0
  N  N4494  1  0.544000  0.755800  0.154600  1.0
  N  N4495  1  0.211800  0.755800  0.654600  1.0
  N  N4496  1  0.456000  0.244200  0.845400  1.0
  N  N4497  1  0.663700  0.116600  0.539600  1.0
  N  N4498  1  0.547100  0.883400  0.960400  1.0
  N  N4499  1  0.336300  0.883400  0.460400  1.0
  N  N4500  1  0.452900  0.116600  0.039600  1.0
  N  N4501  1  0.662250  0.162900  0.518000  1.0
  N  N4502  1  0.499350  0.837100  0.982000  1.0
  N  N4503  1  0.337750  0.837100  0.482000  1.0
  N  N4504  1  0.500650  0.162900  0.018000  1.0
  N  N4505  1  0.657900  0.250400  0.457700  1.0
  N  N4506  1  0.407500  0.749600  0.042300  1.0
  N  N4507  1  0.342100  0.749600  0.542300  1.0
  N  N4508  1  0.592500  0.250400  0.957700  1.0
  N  N4509  1  0.650100  0.296800  0.438400  1.0
  N  N4510  1  0.353300  0.703200  0.061600  1.0
  N  N4511  1  0.349900  0.703200  0.561600  1.0
  N  N4512  1  0.646700  0.296800  0.938400  1.0
  N  N4513  1  0.738360  0.242320  0.677700  1.0
  N  N4514  1  0.496040  0.757680  0.822300  1.0
  N  N4515  1  0.261640  0.757680  0.322300  1.0
  N  N4516  1  0.503960  0.242320  0.177700  1.0
  N  N4517  1  0.747340  0.285880  0.646100  1.0
  N  N4518  1  0.461460  0.714120  0.853900  1.0
  N  N4519  1  0.252660  0.714120  0.353900  1.0
  N  N4520  1  0.538540  0.285880  0.146100  1.0
  N  N4521  1  0.749250  0.365700  0.577100  1.0
  N  N4522  1  0.383550  0.634300  0.922900  1.0
  N  N4523  1  0.250750  0.634300  0.422900  1.0
  N  N4524  1  0.616450  0.365700  0.077100  1.0
  N  N4525  1  0.747800  0.402400  0.540900  1.0
  N  N4526  1  0.345400  0.597600  0.959100  1.0
  N  N4527  1  0.252200  0.597600  0.459100  1.0
  N  N4528  1  0.654600  0.402400  0.040900  1.0
  N  N4529  1  0.187110  0.227420  0.601800  1.0
  N  N4530  1  0.959690  0.772580  0.898200  1.0
  N  N4531  1  0.812890  0.772580  0.398200  1.0
  N  N4532  1  0.040310  0.227420  0.101800  1.0
  N  N4533  1  0.020620  0.083840  0.433000  1.0
  N  N4534  1  0.936780  0.916160  0.067000  1.0
  N  N4535  1  0.979380  0.916160  0.567000  1.0
  N  N4536  1  0.063220  0.083840  0.933000  1.0
  N  N4537  1  0.699700  0.040000  0.411500  1.0
  N  N4538  1  0.659700  0.960000  0.088500  1.0
  N  N4539  1  0.300300  0.960000  0.588500  1.0
  N  N4540  1  0.340300  0.040000  0.911500  1.0
  N  N4541  1  0.566210  0.141420  0.565300  1.0
  N  N4542  1  0.424790  0.858580  0.934700  1.0
  N  N4543  1  0.433790  0.858580  0.434700  1.0
  N  N4544  1  0.575210  0.141420  0.065300  1.0
  N  N4545  1  0.730930  0.306260  0.722800  1.0
  N  N4546  1  0.424670  0.693740  0.777200  1.0
  N  N4547  1  0.269070  0.693740  0.277200  1.0
  N  N4548  1  0.575330  0.306260  0.222800  1.0
  N  N4549  1  0.922340  0.375080  0.744800  1.0
  N  N4550  1  0.547260  0.624920  0.755200  1.0
  N  N4551  1  0.077660  0.624920  0.255200  1.0
  N  N4552  1  0.452740  0.375080  0.244800  1.0
  N  N4553  1  0.966810  0.494020  0.643600  1.0
  N  N4554  1  0.472790  0.505980  0.856400  1.0
  N  N4555  1  0.033190  0.505980  0.356400  1.0
  N  N4556  1  0.527210  0.494020  0.143600  1.0
  N  N4557  1  0.643160  0.382920  0.564500  1.0
  N  N4558  1  0.260240  0.617080  0.935500  1.0
  N  N4559  1  0.356840  0.617080  0.435500  1.0
  N  N4560  1  0.739760  0.382920  0.064500  1.0
  N  N4561  1  0.566340  0.271880  0.485600  1.0
  N  N4562  1  0.294460  0.728120  0.014400  1.0
  N  N4563  1  0.433660  0.728120  0.514400  1.0
  N  N4564  1  0.705540  0.271880  0.985600  1.0
  N  N4565  1  0.575340  0.227880  0.393600  1.0
  N  N4566  1  0.347460  0.772120  0.106400  1.0
  N  N4567  1  0.424660  0.772120  0.606400  1.0
  N  N4568  1  0.652540  0.227880  0.893600  1.0
  N  N4569  1  0.696740  0.172280  0.333900  1.0
  N  N4570  1  0.524460  0.827720  0.166100  1.0
  N  N4571  1  0.303260  0.827720  0.666100  1.0
  N  N4572  1  0.475540  0.172280  0.833900  1.0
  N  N4573  1  0.843880  0.193560  0.304100  1.0
  N  N4574  1  0.650320  0.806440  0.195900  1.0
  N  N4575  1  0.156120  0.806440  0.695900  1.0
  N  N4576  1  0.349680  0.193560  0.804100  1.0
  N  N4577  1  0.019320  0.158440  0.476300  1.0
  N  N4578  1  0.860880  0.841560  0.023700  1.0
  N  N4579  1  0.980680  0.841560  0.523700  1.0
  N  N4580  1  0.139120  0.158440  0.976300  1.0
  N  N4581  1  0.043230  0.252460  0.421600  1.0
  N  N4582  1  0.790770  0.747540  0.078400  1.0
  N  N4583  1  0.956770  0.747540  0.578400  1.0
  N  N4584  1  0.209230  0.252460  0.921600  1.0
  N  N4585  1  0.997410  0.423020  0.620100  1.0
  N  N4586  1  0.574390  0.576980  0.879900  1.0
  N  N4587  1  0.002590  0.576980  0.379900  1.0
  N  N4588  1  0.425610  0.423020  0.120100  1.0
  N  N4589  1  0.102620  0.273040  0.605100  1.0
  N  N4590  1  0.829580  0.726960  0.894900  1.0
  N  N4591  1  0.897380  0.726960  0.394900  1.0
  N  N4592  1  0.170420  0.273040  0.105100  1.0
  N  N4593  1  0.794010  0.111420  0.430500  1.0
  N  N4594  1  0.682590  0.888580  0.069500  1.0
  N  N4595  1  0.205990  0.888580  0.569500  1.0
  N  N4596  1  0.317410  0.111420  0.930500  1.0
  N  N4597  1  0.802000  0.203200  0.375000  1.0
  N  N4598  1  0.598800  0.796800  0.125000  1.0
  N  N4599  1  0.198000  0.796800  0.625000  1.0
  N  N4600  1  0.401200  0.203200  0.875000  1.0
  N  N4601  1  0.874200  0.275200  0.544700  0.482
  N  N4602  1  0.599000  0.724800  0.955300  0.482
  N  N4603  1  0.125800  0.724800  0.455300  0.482
  N  N4604  1  0.401000  0.275200  0.044700  0.482
  N  N4605  1  0.711700  0.275400  0.826300  0.5
  N  N4606  1  0.436300  0.724600  0.673700  0.5
  N  N4607  1  0.288300  0.724600  0.173700  0.5
  N  N4608  1  0.563700  0.275400  0.326300  0.5
  N  N4609  1  0.889200  0.305400  0.553500  0.518
  N  N4610  1  0.583800  0.694600  0.946500  0.518
  N  N4611  1  0.110800  0.694600  0.446500  0.518
  N  N4612  1  0.416200  0.305400  0.053500  0.518
  O  O4613  1  0.947800  0.263400  0.536900  1.0
  O  O4614  1  0.684400  0.736600  0.963100  1.0
  O  O4615  1  0.052200  0.736600  0.463100  1.0
  O  O4616  1  0.315600  0.263400  0.036900  1.0
  O  O4617  1  0.912600  0.271600  0.586200  1.0
  O  O4618  1  0.641000  0.728400  0.913800  1.0
  O  O4619  1  0.087400  0.728400  0.413800  1.0
  O  O4620  1  0.359000  0.271600  0.086200  1.0
  O  O4621  1  0.882000  0.248400  0.495500  0.482
  O  O4622  1  0.633600  0.751600  0.004500  0.482
  O  O4623  1  0.118000  0.751600  0.504500  0.482
  O  O4624  1  0.366400  0.248400  0.995500  0.482
  O  O4625  1  0.848200  0.289400  0.505200  0.482
  O  O4626  1  0.558800  0.710600  0.994800  0.482
  O  O4627  1  0.151800  0.710600  0.494800  0.482
  O  O4628  1  0.441200  0.289400  0.005200  0.482
  O  O4629  1  0.774100  0.279600  0.859400  0.5
  O  O4630  1  0.494500  0.720400  0.640600  0.5
  O  O4631  1  0.225900  0.720400  0.140600  0.5
  O  O4632  1  0.505500  0.279600  0.359400  0.5
  O  O4633  1  0.767600  0.245400  0.811700  0.5
  O  O4634  1  0.522200  0.754600  0.688300  0.5
  O  O4635  1  0.232400  0.754600  0.188300  0.5
  O  O4636  1  0.477800  0.245400  0.311700  0.5
  O  O4637  1  0.679400  0.260800  0.775000  0.5
  O  O4638  1  0.418600  0.739200  0.725000  0.5
  O  O4639  1  0.320600  0.739200  0.225000  0.5
  O  O4640  1  0.581400  0.260800  0.275000  0.5
  O  O4641  1  0.655300  0.223000  0.802800  0.5
  O  O4642  1  0.432300  0.777000  0.697200  0.5
  O  O4643  1  0.344700  0.777000  0.197200  0.5
  O  O4644  1  0.567700  0.223000  0.302800  0.5
  O  O4645  1  0.896400  0.258200  0.536000  0.518
  O  O4646  1  0.638200  0.741800  0.964000  0.518
  O  O4647  1  0.103600  0.741800  0.464000  0.518
  O  O4648  1  0.361800  0.258200  0.036000  0.518
  O  O4649  1  0.940000  0.304800  0.516900  0.518
  O  O4650  1  0.635200  0.695200  0.983100  0.518
  O  O4651  1  0.060000  0.695200  0.483100  0.518
  O  O4652  1  0.364800  0.304800  0.016900  0.518
  S  S4653  1  0.692200  0.255200  0.802400  0.25
  S  S4654  1  0.437000  0.744800  0.697600  0.25
  S  S4655  1  0.307800  0.744800  0.197600  0.25
  S  S4656  1  0.563000  0.255200  0.302400  0.25
  S  S4657  1  0.769100  0.304400  0.833900  0.25
  S  S4658  1  0.464700  0.695600  0.666100  0.25
  S  S4659  1  0.230900  0.695600  0.166100  0.25
  S  S4660  1  0.535300  0.304400  0.333900  0.25
  S  S4661  1  0.656800  0.266600  0.814000  0.25
  S  S4662  1  0.390200  0.733400  0.686000  0.25
  S  S4663  1  0.343200  0.733400  0.186000  0.25
  S  S4664  1  0.609800  0.266600  0.314000  0.25
  S  S4665  1  0.884270  0.276940  0.512300  0.482
  S  S4666  1  0.607330  0.723060  0.987700  0.482
  S  S4667  1  0.115730  0.723060  0.487700  0.482
  S  S4668  1  0.392670  0.276940  0.012300  0.482
  S  S4669  1  0.911560  0.260720  0.556000  0.482
  S  S4670  1  0.650840  0.739280  0.944000  0.482
  S  S4671  1  0.088440  0.739280  0.444000  0.482
  S  S4672  1  0.349160  0.260720  0.056000  0.482
  S  S4673  1  0.762600  0.272000  0.829300  0.5
  S  S4674  1  0.490600  0.728000  0.670700  0.5
  S  S4675  1  0.237400  0.728000  0.170700  0.5
  S  S4676  1  0.509400  0.272000  0.329300  0.5
  S  S4677  1  0.670800  0.254400  0.802100  0.5
  S  S4678  1  0.416400  0.745600  0.697900  0.5
  S  S4679  1  0.329200  0.745600  0.197900  0.5
  S  S4680  1  0.583600  0.254400  0.302100  0.5
  S  S4681  1  0.897830  0.283460  0.523900  0.518
  S  S4682  1  0.614370  0.716540  0.976100  0.518
  S  S4683  1  0.102170  0.716540  0.476100  0.518
  S  S4684  1  0.385630  0.283460  0.023900  0.518
