# generated using pymatgen
data_Cd48P48H1584C1880S8N292O16F295.5
_symmetry_space_group_name_H-M   'P 1'
_cell_length_a   30.20900000
_cell_length_b   43.72500000
_cell_length_c   53.80200000
_cell_angle_alpha   71.62400000
_cell_angle_beta   86.96300000
_cell_angle_gamma   76.89000000
_symmetry_Int_Tables_number   1
_chemical_formula_structural   Cd48P48H1584C1880S8N292O16F295.5
_chemical_formula_sum   'Cd48 P48 H1584 C1880 S8 N292 O16 F295.5'
_cell_volume   65671.64207032
_cell_formula_units_Z   1
loop_
 _symmetry_equiv_pos_site_id
 _symmetry_equiv_pos_as_xyz
  1  'x, y, z'
loop_
 _atom_site_type_symbol
 _atom_site_label
 _atom_site_symmetry_multiplicity
 _atom_site_fract_x
 _atom_site_fract_y
 _atom_site_fract_z
 _atom_site_occupancy
  Cd  Cd1  1  0.582730  0.653950  0.164560  1.0
  Cd  Cd2  1  0.417270  0.346050  0.835440  1.0
  Cd  Cd3  1  0.543070  0.654830  0.330430  1.0
  Cd  Cd4  1  0.456930  0.345170  0.669570  1.0
  Cd  Cd5  1  0.280480  0.667500  0.401750  1.0
  Cd  Cd6  1  0.719520  0.332500  0.598250  1.0
  Cd  Cd7  1  0.059680  0.683310  0.291690  1.0
  Cd  Cd8  1  0.940320  0.316690  0.708310  1.0
  Cd  Cd9  1  0.101950  0.720550  0.121220  1.0
  Cd  Cd10  1  0.898050  0.279450  0.878780  1.0
  Cd  Cd11  1  0.362620  0.711570  0.048130  1.0
  Cd  Cd12  1  0.637380  0.288430  0.951870  1.0
  Cd  Cd13  1  0.499320  0.857360  0.290420  1.0
  Cd  Cd14  1  0.500680  0.142640  0.709580  1.0
  Cd  Cd15  1  0.219830  0.868520  0.362370  1.0
  Cd  Cd16  1  0.780170  0.131480  0.637630  1.0
  Cd  Cd17  1  0.001820  0.882340  0.257450  1.0
  Cd  Cd18  1  0.998180  0.117660  0.742550  1.0
  Cd  Cd19  1  0.089320  0.919990  0.094900  1.0
  Cd  Cd20  1  0.910680  0.080010  0.905100  1.0
  Cd  Cd21  1  0.366110  0.902000  0.026200  1.0
  Cd  Cd22  1  0.633890  0.098000  0.973800  1.0
  Cd  Cd23  1  0.590440  0.847020  0.134490  1.0
  Cd  Cd24  1  0.409560  0.152980  0.865510  1.0
  Cd  Cd25  1  0.202740  0.360460  0.433460  1.0
  Cd  Cd26  1  0.797260  0.639540  0.566540  1.0
  Cd  Cd27  1  0.952710  0.394970  0.350840  1.0
  Cd  Cd28  1  0.047290  0.605030  0.649160  1.0
  Cd  Cd29  1  0.932160  0.426910  0.180790  1.0
  Cd  Cd30  1  0.067840  0.573090  0.819210  1.0
  Cd  Cd31  1  0.162050  0.397320  0.079640  1.0
  Cd  Cd32  1  0.837950  0.602680  0.920360  1.0
  Cd  Cd33  1  0.417610  0.367970  0.167670  1.0
  Cd  Cd34  1  0.582390  0.632030  0.832330  1.0
  Cd  Cd35  1  0.440320  0.365050  0.331960  1.0
  Cd  Cd36  1  0.559680  0.634950  0.668040  1.0
  Cd  Cd37  1  0.502130  0.166420  0.369230  1.0
  Cd  Cd38  1  0.497870  0.833580  0.630770  1.0
  Cd  Cd39  1  0.267530  0.159270  0.470640  1.0
  Cd  Cd40  1  0.732470  0.840730  0.529360  1.0
  Cd  Cd41  1  0.999360  0.189950  0.388900  1.0
  Cd  Cd42  1  0.000640  0.810050  0.611100  1.0
  Cd  Cd43  1  0.926790  0.233020  0.225800  1.0
  Cd  Cd44  1  0.073210  0.766980  0.774200  1.0
  Cd  Cd45  1  0.163730  0.199580  0.134160  1.0
  Cd  Cd46  1  0.836270  0.800420  0.865840  1.0
  Cd  Cd47  1  0.443970  0.164370  0.209340  1.0
  Cd  Cd48  1  0.556030  0.835630  0.790660  1.0
  P  P49  1  0.387400  0.762300  0.350900  1.0
  P  P50  1  0.612600  0.237700  0.649100  1.0
  P  P51  1  0.557000  0.754400  0.229400  1.0
  P  P52  1  0.443000  0.245600  0.770600  1.0
  P  P53  1  0.493900  0.776500  0.083200  1.0
  P  P54  1  0.506100  0.223500  0.916800  1.0
  P  P55  1  0.229400  0.810100  0.071000  1.0
  P  P56  1  0.770600  0.189900  0.929000  1.0
  P  P57  1  0.053800  0.801800  0.195300  1.0
  P  P58  1  0.946200  0.198200  0.804700  1.0
  P  P59  1  0.127800  0.773700  0.336000  1.0
  P  P60  1  0.872200  0.226300  0.664000  1.0
  P  P61  1  0.366400  0.263800  0.410500  1.0
  P  P62  1  0.633600  0.736200  0.589500  1.0
  P  P63  1  0.457900  0.264600  0.271400  1.0
  P  P64  1  0.542100  0.735400  0.728600  1.0
  P  P65  1  0.297400  0.281600  0.144200  1.0
  P  P66  1  0.702600  0.718400  0.855800  1.0
  P  P67  1  0.031300  0.319500  0.145300  1.0
  P  P68  1  0.968700  0.680500  0.854700  1.0
  P  P69  1  0.100600  0.276600  0.415700  1.0
  P  P70  1  0.899400  0.723400  0.584300  1.0
  P  P71  1  0.144600  0.142100  0.281700  1.0
  P  P72  1  0.855400  0.857900  0.718300  1.0
  P  P73  1  0.949200  0.308800  0.287000  1.0
  P  P74  1  0.050800  0.691200  0.713000  1.0
  P  P75  1  0.720400  0.210700  0.367900  1.0
  P  P76  1  0.279600  0.789300  0.632100  1.0
  P  P77  1  0.784400  0.839700  0.272100  1.0
  P  P78  1  0.215600  0.160300  0.727900  1.0
  P  P79  1  0.689500  0.317900  0.210500  1.0
  P  P80  1  0.310500  0.682100  0.789500  1.0
  P  P81  1  0.172500  0.443400  0.196700  1.0
  P  P82  1  0.827500  0.556600  0.803300  1.0
  P  P83  1  0.370500  0.157500  0.037500  1.0
  P  P84  1  0.629500  0.842500  0.962500  1.0
  P  P85  1  0.827300  0.758900  0.152000  1.0
  P  P86  1  0.172700  0.241100  0.848000  1.0
  P  P87  1  0.208100  0.935900  0.215600  1.0
  P  P88  1  0.791900  0.064100  0.784400  1.0
  P  P89  1  0.316600  0.629000  0.285200  1.0
  P  P90  1  0.683400  0.371000  0.714800  1.0
  P  P91  1  0.193900  0.421000  0.302000  1.0
  P  P92  1  0.806100  0.579000  0.698000  1.0
  P  P93  1  0.339300  0.633300  0.182800  1.0
  P  P94  1  0.660700  0.366700  0.817200  1.0
  P  P95  1  0.372200  0.934400  0.154800  1.0
  P  P96  1  0.627800  0.065600  0.845200  1.0
  H  H97  1  0.829800  0.214100  0.188100  1.0
  H  H98  1  0.170200  0.785900  0.811900  1.0
  H  H99  1  0.322200  0.251700  0.016200  1.0
  H  H100  1  0.677800  0.748300  0.983800  1.0
  H  H101  1  0.351000  0.242700  0.042600  1.0
  H  H102  1  0.649000  0.757300  0.957400  1.0
  H  H103  1  0.327500  0.280300  0.027600  1.0
  H  H104  1  0.672500  0.719700  0.972400  1.0
  H  H105  1  0.239200  0.251300  0.104800  1.0
  H  H106  1  0.760800  0.748700  0.895200  1.0
  H  H107  1  0.306000  0.255800  0.081900  1.0
  H  H108  1  0.694000  0.744200  0.918100  1.0
  H  H109  1  0.245300  0.250000  0.018900  1.0
  H  H110  1  0.754700  0.750000  0.981100  1.0
  H  H111  1  0.178700  0.244900  0.042000  1.0
  H  H112  1  0.821300  0.755100  0.958000  1.0
  H  H113  1  0.732500  0.182500  0.310200  1.0
  H  H114  1  0.267500  0.817500  0.689800  1.0
  H  H115  1  0.699600  0.185200  0.286800  1.0
  H  H116  1  0.300400  0.814800  0.713200  1.0
  H  H117  1  0.704700  0.217900  0.292600  1.0
  H  H118  1  0.295300  0.782100  0.707400  1.0
  H  H119  1  0.778500  0.236500  0.212700  1.0
  H  H120  1  0.221500  0.763500  0.787300  1.0
  H  H121  1  0.721000  0.232100  0.243300  1.0
  H  H122  1  0.279000  0.767900  0.756700  1.0
  H  H123  1  0.810400  0.166300  0.298000  1.0
  H  H124  1  0.189600  0.833700  0.702000  1.0
  H  H125  1  0.869100  0.172700  0.268200  1.0
  H  H126  1  0.130900  0.827300  0.731800  1.0
  H  H127  1  0.119500  0.267200  0.064500  1.0
  H  H128  1  0.880500  0.732800  0.935500  1.0
  H  H129  1  0.972800  0.265700  0.093700  1.0
  H  H130  1  0.027200  0.734300  0.906300  1.0
  H  H131  1  0.035400  0.274300  0.067000  1.0
  H  H132  1  0.964600  0.725700  0.933000  1.0
  H  H133  1  0.864800  0.220900  0.142800  1.0
  H  H134  1  0.135200  0.779100  0.857200  1.0
  H  H135  1  0.925500  0.231200  0.115400  1.0
  H  H136  1  0.074500  0.768800  0.884600  1.0
  H  H137  1  0.995100  0.231700  0.176900  1.0
  H  H138  1  0.004900  0.768300  0.823100  1.0
  H  H139  1  0.057500  0.208900  0.154500  1.0
  H  H140  1  0.942500  0.791100  0.845500  1.0
  H  H141  1  0.900500  0.143900  0.421400  1.0
  H  H142  1  0.099500  0.856100  0.578600  1.0
  H  H143  1  0.838900  0.168200  0.387600  1.0
  H  H144  1  0.161100  0.831800  0.612400  1.0
  H  H145  1  0.939900  0.220300  0.331900  1.0
  H  H146  1  0.060100  0.779700  0.668100  1.0
  H  H147  1  0.922500  0.212500  0.291300  1.0
  H  H148  1  0.077500  0.787500  0.708700  1.0
  H  H149  1  0.787500  0.290400  0.267400  1.0
  H  H150  1  0.212500  0.709600  0.732600  1.0
  H  H151  1  0.802000  0.259300  0.311500  1.0
  H  H152  1  0.198000  0.740700  0.688500  1.0
  H  H153  1  0.812900  0.303000  0.220600  1.0
  H  H154  1  0.187100  0.697000  0.779400  1.0
  H  H155  1  0.046600  0.123700  0.427300  1.0
  H  H156  1  0.953400  0.876300  0.572700  1.0
  H  H157  1  0.079600  0.087700  0.466900  1.0
  H  H158  1  0.920400  0.912300  0.533100  1.0
  H  H159  1  0.959300  0.099600  0.502000  1.0
  H  H160  1  0.040700  0.900400  0.498000  1.0
  H  H161  1  0.924300  0.134000  0.462400  1.0
  H  H162  1  0.075700  0.866000  0.537600  1.0
  H  H163  1  0.039600  0.046700  0.519300  1.0
  H  H164  1  0.960400  0.953300  0.480700  1.0
  H  H165  1  0.044100  0.078300  0.527000  1.0
  H  H166  1  0.955900  0.921700  0.473000  1.0
  H  H167  1  0.082000  0.063300  0.509500  1.0
  H  H168  1  0.918000  0.936700  0.490500  1.0
  H  H169  1  0.792200  0.302300  0.184100  1.0
  H  H170  1  0.207800  0.697700  0.815900  1.0
  H  H171  1  0.782000  0.323500  0.138900  1.0
  H  H172  1  0.218000  0.676500  0.861100  1.0
  H  H173  1  0.915600  0.319100  0.127800  1.0
  H  H174  1  0.084400  0.680900  0.872200  1.0
  H  H175  1  0.927000  0.299200  0.173100  1.0
  H  H176  1  0.073000  0.700800  0.826900  1.0
  H  H177  1  0.866100  0.346900  0.091600  1.0
  H  H178  1  0.133900  0.653100  0.908400  1.0
  H  H179  1  0.812100  0.354100  0.095000  1.0
  H  H180  1  0.187900  0.645900  0.905000  1.0
  H  H181  1  0.838800  0.319300  0.092200  1.0
  H  H182  1  0.161200  0.680700  0.907800  1.0
  H  H183  1  0.814100  0.202900  0.345400  1.0
  H  H184  1  0.185900  0.797100  0.654600  1.0
  H  H185  1  0.223500  0.403200  0.019300  1.0
  H  H186  1  0.776500  0.596800  0.980700  1.0
  H  H187  1  0.283000  0.420200  0.993900  1.0
  H  H188  1  0.717000  0.579800  0.006100  1.0
  H  H189  1  0.231900  0.514100  0.991800  1.0
  H  H190  1  0.768100  0.485900  0.008200  1.0
  H  H191  1  0.170500  0.498100  0.016000  1.0
  H  H192  1  0.829500  0.501900  0.984000  1.0
  H  H193  1  0.296600  0.492500  0.957700  1.0
  H  H194  1  0.703400  0.507500  0.042300  1.0
  H  H195  1  0.327700  0.458200  0.974700  1.0
  H  H196  1  0.672300  0.541800  0.025300  1.0
  H  H197  1  0.320000  0.490100  0.984400  1.0
  H  H198  1  0.680000  0.509900  0.015600  1.0
  H  H199  1  0.107500  0.472100  0.017100  1.0
  H  H200  1  0.892500  0.527900  0.982900  1.0
  H  H201  1  0.025700  0.478800  0.023500  1.0
  H  H202  1  0.974300  0.521200  0.976500  1.0
  H  H203  1  0.966100  0.461100  0.050200  1.0
  H  H204  1  0.033900  0.538900  0.949800  1.0
  H  H205  1  0.060900  0.399300  0.103400  1.0
  H  H206  1  0.939100  0.600700  0.896600  1.0
  H  H207  1  0.996800  0.430200  0.128800  1.0
  H  H208  1  0.003200  0.569800  0.871200  1.0
  H  H209  1  0.933200  0.407200  0.075700  1.0
  H  H210  1  0.066800  0.592800  0.924300  1.0
  H  H211  1  0.881400  0.390000  0.107700  1.0
  H  H212  1  0.118600  0.610000  0.892300  1.0
  H  H213  1  0.852100  0.381900  0.152400  1.0
  H  H214  1  0.147900  0.618100  0.847600  1.0
  H  H215  1  0.890700  0.356400  0.228600  1.0
  H  H216  1  0.109300  0.643600  0.771400  1.0
  H  H217  1  0.835700  0.346700  0.260400  1.0
  H  H218  1  0.164300  0.653300  0.739600  1.0
  H  H219  1  0.738100  0.397700  0.205700  1.0
  H  H220  1  0.261900  0.602300  0.794300  1.0
  H  H221  1  0.791800  0.408400  0.173600  1.0
  H  H222  1  0.208200  0.591600  0.826400  1.0
  H  H223  1  0.714400  0.373500  0.247100  1.0
  H  H224  1  0.285600  0.626500  0.752900  1.0
  H  H225  1  0.743800  0.381800  0.267000  1.0
  H  H226  1  0.256200  0.618200  0.733000  1.0
  H  H227  1  0.749400  0.344400  0.267300  1.0
  H  H228  1  0.250600  0.655600  0.732700  1.0
  H  H229  1  0.552600  0.387900  0.127000  1.0
  H  H230  1  0.447400  0.612100  0.873000  1.0
  H  H231  1  0.613800  0.398400  0.145100  1.0
  H  H232  1  0.386200  0.601600  0.854900  1.0
  H  H233  1  0.532500  0.429900  0.198000  1.0
  H  H234  1  0.467500  0.570100  0.802000  1.0
  H  H235  1  0.470500  0.421000  0.179500  1.0
  H  H236  1  0.529500  0.579000  0.820500  1.0
  H  H237  1  0.611700  0.419800  0.204300  1.0
  H  H238  1  0.388300  0.580200  0.795700  1.0
  H  H239  1  0.624300  0.442700  0.176400  1.0
  H  H240  1  0.375700  0.557300  0.823600  1.0
  H  H241  1  0.646400  0.403900  0.185800  1.0
  H  H242  1  0.353600  0.596100  0.814200  1.0
  H  H243  1  0.494300  0.401000  0.106700  1.0
  H  H244  1  0.505700  0.599000  0.893300  1.0
  H  H245  1  0.452400  0.399600  0.068400  1.0
  H  H246  1  0.547600  0.600400  0.931600  1.0
  H  H247  1  0.390400  0.385900  0.053300  1.0
  H  H248  1  0.609600  0.614100  0.946700  1.0
  H  H249  1  0.337100  0.370500  0.124900  1.0
  H  H250  1  0.662900  0.629500  0.875100  1.0
  H  H251  1  0.268200  0.394800  0.093300  1.0
  H  H252  1  0.731800  0.605200  0.906700  1.0
  H  H253  1  0.353900  0.333600  0.061300  1.0
  H  H254  1  0.646100  0.666400  0.938700  1.0
  H  H255  1  0.291700  0.317000  0.050100  1.0
  H  H256  1  0.708300  0.683000  0.949900  1.0
  H  H257  1  0.205400  0.323500  0.049300  1.0
  H  H258  1  0.794600  0.676500  0.950700  1.0
  H  H259  1  0.087500  0.348800  0.087100  1.0
  H  H260  1  0.912500  0.651200  0.912900  1.0
  H  H261  1  0.018800  0.346400  0.071100  1.0
  H  H262  1  0.981200  0.653600  0.928900  1.0
  H  H263  1  0.083700  0.329000  0.008000  1.0
  H  H264  1  0.916300  0.671000  0.992000  1.0
  H  H265  1  0.152400  0.332600  0.023200  1.0
  H  H266  1  0.847600  0.667400  0.976800  1.0
  H  H267  1  0.003800  0.338200  0.007500  1.0
  H  H268  1  0.996200  0.661800  0.992500  1.0
  H  H269  1  0.976100  0.357000  0.026600  1.0
  H  H270  1  0.023900  0.643000  0.973400  1.0
  H  H271  1  0.989900  0.317500  0.035800  1.0
  H  H272  1  0.010100  0.682500  0.964200  1.0
  H  H273  1  0.237400  0.090800  0.535200  1.0
  H  H274  1  0.762600  0.909200  0.464800  1.0
  H  H275  1  0.153800  0.100100  0.533400  1.0
  H  H276  1  0.846200  0.899900  0.466600  1.0
  H  H277  1  0.157200  0.178600  0.452300  1.0
  H  H278  1  0.842800  0.821400  0.547700  1.0
  H  H279  1  0.085100  0.168400  0.430700  1.0
  H  H280  1  0.914900  0.831600  0.569300  1.0
  H  H281  1  0.974600  0.228000  0.472600  1.0
  H  H282  1  0.025400  0.772000  0.527400  1.0
  H  H283  1  0.041100  0.193600  0.495200  1.0
  H  H284  1  0.958900  0.806400  0.504800  1.0
  H  H285  1  0.928200  0.246800  0.431500  1.0
  H  H286  1  0.071800  0.753200  0.568500  1.0
  H  H287  1  0.349900  0.136000  0.515900  1.0
  H  H288  1  0.650100  0.864000  0.484100  1.0
  H  H289  1  0.417300  0.105800  0.538700  1.0
  H  H290  1  0.582700  0.894200  0.461300  1.0
  H  H291  1  0.364500  0.024800  0.563400  1.0
  H  H292  1  0.635500  0.975200  0.436600  1.0
  H  H293  1  0.295700  0.055000  0.542100  1.0
  H  H294  1  0.704300  0.945000  0.457900  1.0
  H  H295  1  0.460700  0.030900  0.557100  1.0
  H  H296  1  0.539300  0.969100  0.442900  1.0
  H  H297  1  0.433600  0.025000  0.584000  1.0
  H  H298  1  0.566400  0.975000  0.416000  1.0
  H  H299  1  0.456700  0.056100  0.573600  1.0
  H  H300  1  0.543300  0.943900  0.426400  1.0
  H  H301  1  0.861400  0.239400  0.420900  1.0
  H  H302  1  0.138600  0.760600  0.579100  1.0
  H  H303  1  0.792800  0.268200  0.399500  1.0
  H  H304  1  0.207200  0.731800  0.600500  1.0
  H  H305  1  0.856300  0.300700  0.332000  1.0
  H  H306  1  0.143700  0.699300  0.668000  1.0
  H  H307  1  0.925200  0.271600  0.353000  1.0
  H  H308  1  0.074800  0.728400  0.647000  1.0
  H  H309  1  0.776400  0.307200  0.330200  1.0
  H  H310  1  0.223600  0.692800  0.669800  1.0
  H  H311  1  0.762800  0.326900  0.351000  1.0
  H  H312  1  0.237200  0.673100  0.649000  1.0
  H  H313  1  0.748900  0.292300  0.355700  1.0
  H  H314  1  0.251100  0.707700  0.644300  1.0
  H  H315  1  0.086000  0.131400  0.511000  1.0
  H  H316  1  0.914000  0.868600  0.489000  1.0
  H  H317  1  0.556900  0.209100  0.157400  1.0
  H  H318  1  0.443100  0.790900  0.842600  1.0
  H  H319  1  0.624400  0.217700  0.170000  1.0
  H  H320  1  0.375600  0.782300  0.830000  1.0
  H  H321  1  0.559500  0.239900  0.231400  1.0
  H  H322  1  0.440500  0.760100  0.768600  1.0
  H  H323  1  0.491100  0.232200  0.218900  1.0
  H  H324  1  0.508900  0.767800  0.781100  1.0
  H  H325  1  0.647000  0.256100  0.200200  1.0
  H  H326  1  0.353000  0.743900  0.799800  1.0
  H  H327  1  0.667100  0.217000  0.210300  1.0
  H  H328  1  0.332900  0.783000  0.789700  1.0
  H  H329  1  0.638500  0.235000  0.229600  1.0
  H  H330  1  0.361500  0.765000  0.770400  1.0
  H  H331  1  0.489800  0.221000  0.141800  1.0
  H  H332  1  0.510200  0.779000  0.858200  1.0
  H  H333  1  0.440700  0.217900  0.109700  1.0
  H  H334  1  0.559300  0.782100  0.890300  1.0
  H  H335  1  0.378400  0.201600  0.098100  1.0
  H  H336  1  0.621600  0.798400  0.901900  1.0
  H  H337  1  0.351600  0.168900  0.174500  1.0
  H  H338  1  0.648400  0.831100  0.825500  1.0
  H  H339  1  0.271200  0.191700  0.150500  1.0
  H  H340  1  0.728800  0.808300  0.849500  1.0
  H  H341  1  0.351600  0.149200  0.103400  1.0
  H  H342  1  0.648400  0.850800  0.896600  1.0
  H  H343  1  0.287500  0.137100  0.088900  1.0
  H  H344  1  0.712500  0.862900  0.911100  1.0
  H  H345  1  0.204100  0.145200  0.087500  1.0
  H  H346  1  0.795900  0.854800  0.912500  1.0
  H  H347  1  0.080800  0.160500  0.125500  1.0
  H  H348  1  0.919200  0.839500  0.874500  1.0
  H  H349  1  0.020700  0.157600  0.102100  1.0
  H  H350  1  0.979300  0.842400  0.897900  1.0
  H  H351  1  0.095000  0.167900  0.037200  1.0
  H  H352  1  0.905000  0.832100  0.962800  1.0
  H  H353  1  0.156300  0.169800  0.060400  1.0
  H  H354  1  0.843700  0.830200  0.939600  1.0
  H  H355  1  0.018200  0.142500  0.045800  1.0
  H  H356  1  0.981800  0.857500  0.954200  1.0
  H  H357  1  0.003300  0.182000  0.037200  1.0
  H  H358  1  0.996700  0.818000  0.962800  1.0
  H  H359  1  0.984400  0.160100  0.063600  1.0
  H  H360  1  0.015600  0.839900  0.936400  1.0
  H  H361  1  0.420800  0.416600  0.366200  1.0
  H  H362  1  0.579200  0.583400  0.633800  1.0
  H  H363  1  0.424100  0.428900  0.405000  1.0
  H  H364  1  0.575900  0.571100  0.595000  1.0
  H  H365  1  0.560500  0.399600  0.407300  1.0
  H  H366  1  0.439500  0.600400  0.592700  1.0
  H  H367  1  0.557700  0.390300  0.367500  1.0
  H  H368  1  0.442300  0.609700  0.632500  1.0
  H  H369  1  0.523500  0.410300  0.445000  1.0
  H  H370  1  0.476500  0.589700  0.555000  1.0
  H  H371  1  0.469900  0.413000  0.447600  1.0
  H  H372  1  0.530100  0.587000  0.552400  1.0
  H  H373  1  0.489000  0.445300  0.433400  1.0
  H  H374  1  0.511000  0.554700  0.566600  1.0
  H  H375  1  0.545400  0.404000  0.326400  1.0
  H  H376  1  0.454600  0.596000  0.673600  1.0
  H  H377  1  0.579200  0.401800  0.282100  1.0
  H  H378  1  0.420800  0.598200  0.717900  1.0
  H  H379  1  0.577400  0.383100  0.245900  1.0
  H  H380  1  0.422600  0.616900  0.754100  1.0
  H  H381  1  0.457100  0.360200  0.271100  1.0
  H  H382  1  0.542900  0.639800  0.728900  1.0
  H  H383  1  0.451000  0.370200  0.225800  1.0
  H  H384  1  0.549000  0.629800  0.774200  1.0
  H  H385  1  0.583900  0.329300  0.235900  1.0
  H  H386  1  0.416100  0.670700  0.764100  1.0
  H  H387  1  0.578400  0.306900  0.202400  1.0
  H  H388  1  0.421600  0.693100  0.797600  1.0
  H  H389  1  0.533100  0.301800  0.167700  1.0
  H  H390  1  0.466900  0.698200  0.832300  1.0
  H  H391  1  0.405600  0.303100  0.142100  1.0
  H  H392  1  0.594400  0.696900  0.857900  1.0
  H  H393  1  0.400400  0.289400  0.104500  1.0
  H  H394  1  0.599600  0.710600  0.895500  1.0
  H  H395  1  0.530500  0.295000  0.089400  1.0
  H  H396  1  0.469500  0.705000  0.910600  1.0
  H  H397  1  0.535800  0.309400  0.126900  1.0
  H  H398  1  0.464200  0.690600  0.873100  1.0
  H  H399  1  0.488600  0.282500  0.058100  1.0
  H  H400  1  0.511400  0.717500  0.941900  1.0
  H  H401  1  0.436000  0.300700  0.056100  1.0
  H  H402  1  0.564000  0.699300  0.943900  1.0
  H  H403  1  0.451200  0.262100  0.071600  1.0
  H  H404  1  0.548800  0.737900  0.928400  1.0
  H  H405  1  0.126200  0.481300  0.119900  1.0
  H  H406  1  0.873800  0.518700  0.880100  1.0
  H  H407  1  0.127800  0.536700  0.102200  1.0
  H  H408  1  0.872200  0.463300  0.897800  1.0
  H  H409  1  0.215300  0.516500  0.047800  1.0
  H  H410  1  0.784700  0.483500  0.952200  1.0
  H  H411  1  0.215100  0.460800  0.065700  1.0
  H  H412  1  0.784900  0.539200  0.934300  1.0
  H  H413  1  0.196000  0.570800  0.047900  1.0
  H  H414  1  0.804000  0.429200  0.952100  1.0
  H  H415  1  0.175900  0.578400  0.074000  1.0
  H  H416  1  0.824100  0.421600  0.926000  1.0
  H  H417  1  0.142200  0.580400  0.051300  1.0
  H  H418  1  0.857800  0.419600  0.948700  1.0
  H  H419  1  0.175500  0.430300  0.140700  1.0
  H  H420  1  0.824500  0.569700  0.859300  1.0
  H  H421  1  0.188400  0.377300  0.178800  1.0
  H  H422  1  0.811600  0.622700  0.821200  1.0
  H  H423  1  0.189900  0.321100  0.193700  1.0
  H  H424  1  0.810100  0.678900  0.806300  1.0
  H  H425  1  0.149000  0.326600  0.122900  1.0
  H  H426  1  0.851000  0.673400  0.877100  1.0
  H  H427  1  0.172800  0.273100  0.134700  1.0
  H  H428  1  0.827200  0.726900  0.865300  1.0
  H  H429  1  0.161400  0.277200  0.208500  1.0
  H  H430  1  0.838600  0.722800  0.791500  1.0
  H  H431  1  0.158400  0.221500  0.223100  1.0
  H  H432  1  0.841600  0.778500  0.776900  1.0
  H  H433  1  0.160300  0.169000  0.212400  1.0
  H  H434  1  0.839700  0.831000  0.787600  1.0
  H  H435  1  0.118200  0.132000  0.157800  1.0
  H  H436  1  0.881800  0.868000  0.842200  1.0
  H  H437  1  0.127800  0.074600  0.170700  1.0
  H  H438  1  0.872200  0.925400  0.829300  1.0
  H  H439  1  0.214400  0.064100  0.229000  1.0
  H  H440  1  0.785600  0.935900  0.771000  1.0
  H  H441  1  0.206100  0.121400  0.215900  1.0
  H  H442  1  0.793900  0.878600  0.784100  1.0
  H  H443  1  0.187500  0.018100  0.228800  1.0
  H  H444  1  0.812500  0.981900  0.771200  1.0
  H  H445  1  0.187100  0.016800  0.199400  1.0
  H  H446  1  0.812900  0.983200  0.800600  1.0
  H  H447  1  0.140200  0.024400  0.213900  1.0
  H  H448  1  0.859800  0.975600  0.786100  1.0
  H  H449  1  0.300900  0.444600  0.198000  1.0
  H  H450  1  0.699100  0.555400  0.802000  1.0
  H  H451  1  0.295700  0.501200  0.189200  1.0
  H  H452  1  0.704300  0.498800  0.810800  1.0
  H  H453  1  0.395900  0.500200  0.136800  1.0
  H  H454  1  0.604100  0.499800  0.863200  1.0
  H  H455  1  0.404100  0.443300  0.146200  1.0
  H  H456  1  0.595900  0.556700  0.853800  1.0
  H  H457  1  0.338900  0.553700  0.137600  1.0
  H  H458  1  0.661100  0.446300  0.862400  1.0
  H  H459  1  0.369100  0.546000  0.163300  1.0
  H  H460  1  0.630900  0.454000  0.836700  1.0
  H  H461  1  0.314900  0.552000  0.165100  1.0
  H  H462  1  0.685100  0.448000  0.834900  1.0
  H  H463  1  0.297200  0.405200  0.189600  1.0
  H  H464  1  0.702800  0.594800  0.810400  1.0
  H  H465  1  0.261700  0.355900  0.209100  1.0
  H  H466  1  0.738300  0.644100  0.790900  1.0
  H  H467  1  0.276100  0.297900  0.225900  1.0
  H  H468  1  0.723900  0.702100  0.774100  1.0
  H  H469  1  0.401900  0.292000  0.196500  1.0
  H  H470  1  0.598100  0.708000  0.803500  1.0
  H  H471  1  0.396500  0.241500  0.199600  1.0
  H  H472  1  0.603500  0.758500  0.800400  1.0
  H  H473  1  0.316900  0.254300  0.259700  1.0
  H  H474  1  0.683100  0.745700  0.740300  1.0
  H  H475  1  0.336600  0.197500  0.281800  1.0
  H  H476  1  0.663400  0.802500  0.718200  1.0
  H  H477  1  0.382800  0.141200  0.281300  1.0
  H  H478  1  0.617200  0.858800  0.718700  1.0
  H  H479  1  0.375400  0.091000  0.286000  1.0
  H  H480  1  0.624600  0.909000  0.714000  1.0
  H  H481  1  0.404500  0.034000  0.304000  1.0
  H  H482  1  0.595500  0.966000  0.696000  1.0
  H  H483  1  0.521400  0.041100  0.265000  1.0
  H  H484  1  0.478600  0.958900  0.735000  1.0
  H  H485  1  0.493300  0.097800  0.247000  1.0
  H  H486  1  0.506700  0.902200  0.753000  1.0
  H  H487  1  0.502200  0.987800  0.282900  1.0
  H  H488  1  0.497800  0.012200  0.717100  1.0
  H  H489  1  0.458600  0.983800  0.300800  1.0
  H  H490  1  0.541400  0.016200  0.699200  1.0
  H  H491  1  0.502800  0.990000  0.312000  1.0
  H  H492  1  0.497200  0.010000  0.688000  1.0
  H  H493  1  0.940500  0.154300  0.232100  1.0
  H  H494  1  0.059500  0.845700  0.767900  1.0
  H  H495  1  0.929500  0.101000  0.250200  1.0
  H  H496  1  0.070500  0.899000  0.749800  1.0
  H  H497  1  0.990100  0.093100  0.317400  1.0
  H  H498  1  0.009900  0.906900  0.682600  1.0
  H  H499  1  0.002800  0.145900  0.299200  1.0
  H  H500  1  0.997200  0.854100  0.700800  1.0
  H  H501  1  0.980700  0.040500  0.297100  1.0
  H  H502  1  0.019300  0.959500  0.702900  1.0
  H  H503  1  0.928900  0.053000  0.286900  1.0
  H  H504  1  0.071100  0.947000  0.713100  1.0
  H  H505  1  0.941900  0.053000  0.315300  1.0
  H  H506  1  0.058100  0.947000  0.684700  1.0
  H  H507  1  0.037100  0.180100  0.271500  1.0
  H  H508  1  0.962900  0.819900  0.728500  1.0
  H  H509  1  0.082700  0.221100  0.266900  1.0
  H  H510  1  0.917300  0.778900  0.733100  1.0
  H  H511  1  0.089700  0.276200  0.250000  1.0
  H  H512  1  0.910300  0.723800  0.750000  1.0
  H  H513  1  0.973600  0.297800  0.209100  1.0
  H  H514  1  0.026400  0.702200  0.790900  1.0
  H  H515  1  0.964900  0.347800  0.209000  1.0
  H  H516  1  0.035100  0.652200  0.791000  1.0
  H  H517  1  0.099800  0.322900  0.223400  1.0
  H  H518  1  0.900200  0.677100  0.776600  1.0
  H  H519  1  0.101300  0.378800  0.207400  1.0
  H  H520  1  0.898700  0.621200  0.792600  1.0
  H  H521  1  0.059200  0.438300  0.189000  1.0
  H  H522  1  0.940800  0.561700  0.811000  1.0
  H  H523  1  0.062100  0.481000  0.163600  1.0
  H  H524  1  0.937900  0.519000  0.836400  1.0
  H  H525  1  0.062900  0.536500  0.146400  1.0
  H  H526  1  0.937100  0.463500  0.853600  1.0
  H  H527  1  0.928300  0.559600  0.157600  1.0
  H  H528  1  0.071700  0.440400  0.842400  1.0
  H  H529  1  0.927000  0.504000  0.175000  1.0
  H  H530  1  0.073000  0.496000  0.825000  1.0
  H  H531  1  0.963800  0.603600  0.137000  1.0
  H  H532  1  0.036200  0.396400  0.863000  1.0
  H  H533  1  0.006600  0.594400  0.119800  1.0
  H  H534  1  0.993400  0.405600  0.880200  1.0
  H  H535  1  0.014400  0.597100  0.148100  1.0
  H  H536  1  0.985600  0.402900  0.851900  1.0
  H  H537  1  0.477600  0.224200  0.399800  1.0
  H  H538  1  0.522400  0.775800  0.600200  1.0
  H  H539  1  0.485400  0.238200  0.437500  1.0
  H  H540  1  0.514600  0.761800  0.562500  1.0
  H  H541  1  0.620700  0.226100  0.427400  1.0
  H  H542  1  0.379300  0.773900  0.572600  1.0
  H  H543  1  0.613500  0.213700  0.388800  1.0
  H  H544  1  0.386500  0.786300  0.611200  1.0
  H  H545  1  0.591900  0.243800  0.461700  1.0
  H  H546  1  0.408100  0.756200  0.538300  1.0
  H  H547  1  0.554700  0.223600  0.476000  1.0
  H  H548  1  0.445300  0.776400  0.524000  1.0
  H  H549  1  0.539500  0.262300  0.460500  1.0
  H  H550  1  0.460500  0.737700  0.539500  1.0
  H  H551  1  0.592600  0.220500  0.352000  1.0
  H  H552  1  0.407400  0.779500  0.648000  1.0
  H  H553  1  0.623100  0.216700  0.308100  1.0
  H  H554  1  0.376900  0.783300  0.691900  1.0
  H  H555  1  0.618100  0.196300  0.273000  1.0
  H  H556  1  0.381900  0.803700  0.727000  1.0
  H  H557  1  0.512200  0.159400  0.308000  1.0
  H  H558  1  0.487800  0.840600  0.692000  1.0
  H  H559  1  0.491000  0.170700  0.264500  1.0
  H  H560  1  0.509000  0.829300  0.735500  1.0
  H  H561  1  0.626900  0.145500  0.259800  1.0
  H  H562  1  0.373100  0.854500  0.740200  1.0
  H  H563  1  0.616500  0.128300  0.223900  1.0
  H  H564  1  0.383500  0.871700  0.776100  1.0
  H  H565  1  0.569200  0.125600  0.191000  1.0
  H  H566  1  0.430800  0.874400  0.809000  1.0
  H  H567  1  0.552200  0.155000  0.151500  1.0
  H  H568  1  0.447800  0.845000  0.848500  1.0
  H  H569  1  0.551400  0.155500  0.108200  1.0
  H  H570  1  0.448600  0.844500  0.891800  1.0
  H  H571  1  0.453500  0.104000  0.126000  1.0
  H  H572  1  0.546500  0.896000  0.874000  1.0
  H  H573  1  0.453000  0.103200  0.169400  1.0
  H  H574  1  0.547000  0.896800  0.830600  1.0
  H  H575  1  0.475800  0.121300  0.081200  1.0
  H  H576  1  0.524200  0.878700  0.918800  1.0
  H  H577  1  0.529500  0.118700  0.079900  1.0
  H  H578  1  0.470500  0.881300  0.920100  1.0
  H  H579  1  0.495300  0.154100  0.072900  1.0
  H  H580  1  0.504700  0.845900  0.927100  1.0
  H  H581  1  0.926600  0.490700  0.124700  1.0
  H  H582  1  0.073400  0.509300  0.875300  1.0
  H  H583  1  0.921000  0.511900  0.079100  1.0
  H  H584  1  0.079000  0.488100  0.920900  1.0
  H  H585  1  0.793200  0.497300  0.082200  1.0
  H  H586  1  0.206800  0.502700  0.917800  1.0
  H  H587  1  0.798000  0.477000  0.127800  1.0
  H  H588  1  0.202000  0.523000  0.872200  1.0
  H  H589  1  0.819800  0.524300  0.041700  1.0
  H  H590  1  0.180200  0.475700  0.958300  1.0
  H  H591  1  0.869700  0.503200  0.039500  1.0
  H  H592  1  0.130300  0.496800  0.960500  1.0
  H  H593  1  0.863000  0.540100  0.040500  1.0
  H  H594  1  0.137000  0.459900  0.959500  1.0
  H  H595  1  0.807200  0.489700  0.168600  1.0
  H  H596  1  0.192800  0.510300  0.831400  1.0
  H  H597  1  0.778700  0.483000  0.213000  1.0
  H  H598  1  0.221300  0.517000  0.787000  1.0
  H  H599  1  0.788200  0.453300  0.257800  1.0
  H  H600  1  0.211800  0.546700  0.742200  1.0
  H  H601  1  0.918400  0.413800  0.244200  1.0
  H  H602  1  0.081600  0.586200  0.755800  1.0
  H  H603  1  0.920800  0.414600  0.290300  1.0
  H  H604  1  0.079200  0.585400  0.709700  1.0
  H  H605  1  0.795500  0.399100  0.286400  1.0
  H  H606  1  0.204500  0.600900  0.713600  1.0
  H  H607  1  0.803800  0.367400  0.330800  1.0
  H  H608  1  0.196200  0.632600  0.669200  1.0
  H  H609  1  0.851000  0.344800  0.372400  1.0
  H  H610  1  0.149000  0.655200  0.627600  1.0
  H  H611  1  0.987600  0.320000  0.401400  1.0
  H  H612  1  0.012400  0.680000  0.598600  1.0
  H  H613  1  0.994700  0.294500  0.446600  1.0
  H  H614  1  0.005300  0.705500  0.553400  1.0
  H  H615  1  0.859000  0.317200  0.453700  1.0
  H  H616  1  0.141000  0.682800  0.546300  1.0
  H  H617  1  0.850100  0.341400  0.408500  1.0
  H  H618  1  0.149900  0.658600  0.591500  1.0
  H  H619  1  0.902500  0.293900  0.491900  1.0
  H  H620  1  0.097500  0.706100  0.508100  1.0
  H  H621  1  0.954000  0.297900  0.490700  1.0
  H  H622  1  0.046000  0.702100  0.509300  1.0
  H  H623  1  0.942800  0.264800  0.488500  1.0
  H  H624  1  0.057200  0.735200  0.511500  1.0
  H  H625  1  0.653000  0.139600  0.390200  1.0
  H  H626  1  0.347000  0.860400  0.609800  1.0
  H  H627  1  0.715400  0.128000  0.365200  1.0
  H  H628  1  0.284600  0.872000  0.634800  1.0
  H  H629  1  0.640100  0.095900  0.323200  1.0
  H  H630  1  0.359900  0.904100  0.676800  1.0
  H  H631  1  0.577600  0.110400  0.346900  1.0
  H  H632  1  0.422400  0.889600  0.653100  1.0
  H  H633  1  0.717700  0.089900  0.314300  1.0
  H  H634  1  0.282300  0.910100  0.685700  1.0
  H  H635  1  0.751200  0.089900  0.336400  1.0
  H  H636  1  0.248800  0.910100  0.663600  1.0
  H  H637  1  0.732100  0.123300  0.313300  1.0
  H  H638  1  0.267900  0.876700  0.686700  1.0
  H  H639  1  0.602000  0.125400  0.417800  1.0
  H  H640  1  0.398000  0.874600  0.582200  1.0
  H  H641  1  0.566500  0.129000  0.461900  1.0
  H  H642  1  0.433500  0.871000  0.538100  1.0
  H  H643  1  0.502400  0.148100  0.483900  1.0
  H  H644  1  0.497600  0.851900  0.516100  1.0
  H  H645  1  0.429100  0.172700  0.417200  1.0
  H  H646  1  0.570900  0.827300  0.582800  1.0
  H  H647  1  0.376100  0.148900  0.452500  1.0
  H  H648  1  0.623900  0.851100  0.547500  1.0
  H  H649  1  0.444900  0.196200  0.485400  1.0
  H  H650  1  0.555100  0.803800  0.514600  1.0
  H  H651  1  0.375600  0.216500  0.502700  1.0
  H  H652  1  0.624400  0.783500  0.497300  1.0
  H  H653  1  0.292200  0.221100  0.508300  1.0
  H  H654  1  0.707800  0.778900  0.491700  1.0
  H  H655  1  0.173300  0.221100  0.473300  1.0
  H  H656  1  0.826700  0.778900  0.526700  1.0
  H  H657  1  0.106300  0.235900  0.494000  1.0
  H  H658  1  0.893700  0.764100  0.506000  1.0
  H  H659  1  0.174500  0.217700  0.560900  1.0
  H  H660  1  0.825500  0.782300  0.439100  1.0
  H  H661  1  0.242300  0.203700  0.540800  1.0
  H  H662  1  0.757700  0.796300  0.459200  1.0
  H  H663  1  0.091600  0.247200  0.555200  1.0
  H  H664  1  0.908400  0.752800  0.444800  1.0
  H  H665  1  0.079200  0.214600  0.552800  1.0
  H  H666  1  0.920800  0.785400  0.447200  1.0
  H  H667  1  0.064700  0.248800  0.529800  1.0
  H  H668  1  0.935300  0.751200  0.470200  1.0
  H  H669  1  0.513400  0.298000  0.310200  1.0
  H  H670  1  0.486600  0.702000  0.689800  1.0
  H  H671  1  0.577600  0.286500  0.286400  1.0
  H  H672  1  0.422400  0.713500  0.713600  1.0
  H  H673  1  0.653100  0.306600  0.336300  1.0
  H  H674  1  0.346900  0.693400  0.663700  1.0
  H  H675  1  0.589200  0.317500  0.360400  1.0
  H  H676  1  0.410800  0.682500  0.639600  1.0
  H  H677  1  0.689600  0.272800  0.307200  1.0
  H  H678  1  0.310400  0.727200  0.692800  1.0
  H  H679  1  0.674500  0.307500  0.284800  1.0
  H  H680  1  0.325500  0.692500  0.715200  1.0
  H  H681  1  0.660200  0.275400  0.282400  1.0
  H  H682  1  0.339800  0.724600  0.717600  1.0
  H  H683  1  0.531000  0.303600  0.384900  1.0
  H  H684  1  0.469000  0.696400  0.615100  1.0
  H  H685  1  0.499000  0.306700  0.428700  1.0
  H  H686  1  0.501000  0.693300  0.571300  1.0
  H  H687  1  0.435900  0.327900  0.450500  1.0
  H  H688  1  0.564100  0.672100  0.549500  1.0
  H  H689  1  0.368100  0.371700  0.381100  1.0
  H  H690  1  0.631900  0.628300  0.618900  1.0
  H  H691  1  0.308100  0.351800  0.411400  1.0
  H  H692  1  0.691900  0.648200  0.588600  1.0
  H  H693  1  0.383500  0.381700  0.454500  1.0
  H  H694  1  0.616500  0.618300  0.545500  1.0
  H  H695  1  0.316900  0.400400  0.474400  1.0
  H  H696  1  0.683100  0.599600  0.525600  1.0
  H  H697  1  0.233700  0.405800  0.480300  1.0
  H  H698  1  0.766300  0.594200  0.519700  1.0
  H  H699  1  0.113000  0.416500  0.441500  1.0
  H  H700  1  0.887000  0.583500  0.558500  1.0
  H  H701  1  0.044000  0.430300  0.460600  1.0
  H  H702  1  0.956000  0.569700  0.539400  1.0
  H  H703  1  0.107600  0.405000  0.530200  1.0
  H  H704  1  0.892400  0.595000  0.469800  1.0
  H  H705  1  0.176800  0.390800  0.511300  1.0
  H  H706  1  0.823200  0.609200  0.488700  1.0
  H  H707  1  0.001800  0.416500  0.505300  1.0
  H  H708  1  0.998200  0.583500  0.494700  1.0
  H  H709  1  0.010800  0.452300  0.502100  1.0
  H  H710  1  0.989200  0.547700  0.497900  1.0
  H  H711  1  0.026600  0.422500  0.528400  1.0
  H  H712  1  0.973400  0.577500  0.471600  1.0
  H  H713  1  0.954100  0.466600  0.354800  1.0
  H  H714  1  0.045900  0.533400  0.645200  1.0
  H  H715  1  0.947300  0.523100  0.345900  1.0
  H  H716  1  0.052700  0.476900  0.654100  1.0
  H  H717  1  0.033100  0.525400  0.285600  1.0
  H  H718  1  0.966900  0.474600  0.714400  1.0
  H  H719  1  0.040700  0.468900  0.294600  1.0
  H  H720  1  0.959300  0.531100  0.705400  1.0
  H  H721  1  0.003500  0.574600  0.293700  1.0
  H  H722  1  0.996500  0.425400  0.706300  1.0
  H  H723  1  0.997300  0.570900  0.324200  1.0
  H  H724  1  0.002700  0.429100  0.675800  1.0
  H  H725  1  0.953700  0.578100  0.305800  1.0
  H  H726  1  0.046300  0.421900  0.694200  1.0
  H  H727  1  0.063900  0.420100  0.317700  1.0
  H  H728  1  0.936100  0.579900  0.682300  1.0
  H  H729  1  0.114000  0.366600  0.315100  1.0
  H  H730  1  0.886000  0.633400  0.684900  1.0
  H  H731  1  0.119600  0.311100  0.318200  1.0
  H  H732  1  0.880400  0.688900  0.681800  1.0
  H  H733  1  0.998000  0.316400  0.352700  1.0
  H  H734  1  0.002000  0.683600  0.647300  1.0
  H  H735  1  0.016600  0.264400  0.367000  1.0
  H  H736  1  0.983400  0.735600  0.633000  1.0
  H  H737  1  0.105300  0.271600  0.307900  1.0
  H  H738  1  0.894700  0.728400  0.692100  1.0
  H  H739  1  0.106400  0.216600  0.310700  1.0
  H  H740  1  0.893600  0.783400  0.689300  1.0
  H  H741  1  0.083300  0.163600  0.335300  1.0
  H  H742  1  0.916700  0.836400  0.664700  1.0
  H  H743  1  0.977800  0.125400  0.377500  1.0
  H  H744  1  0.022200  0.874600  0.622500  1.0
  H  H745  1  0.980200  0.070900  0.380700  1.0
  H  H746  1  0.019800  0.929100  0.619300  1.0
  H  H747  1  0.108800  0.061000  0.355100  1.0
  H  H748  1  0.891200  0.939000  0.644900  1.0
  H  H749  1  0.107600  0.114900  0.353300  1.0
  H  H750  1  0.892400  0.885100  0.646700  1.0
  H  H751  1  0.044800  0.011900  0.388200  1.0
  H  H752  1  0.955200  0.988100  0.611800  1.0
  H  H753  1  0.069800  0.016300  0.360700  1.0
  H  H754  1  0.930200  0.983700  0.639300  1.0
  H  H755  1  0.015500  0.025200  0.361500  1.0
  H  H756  1  0.984500  0.974800  0.638500  1.0
  H  H757  1  0.192500  0.441700  0.411700  1.0
  H  H758  1  0.807500  0.558300  0.588300  1.0
  H  H759  1  0.149300  0.495300  0.404500  1.0
  H  H760  1  0.850700  0.504700  0.595500  1.0
  H  H761  1  0.053800  0.480000  0.362700  1.0
  H  H762  1  0.946200  0.520000  0.637300  1.0
  H  H763  1  0.098900  0.427500  0.367400  1.0
  H  H764  1  0.901100  0.572500  0.632600  1.0
  H  H765  1  0.047100  0.533600  0.366800  1.0
  H  H766  1  0.952900  0.466400  0.633200  1.0
  H  H767  1  0.094700  0.543200  0.368100  1.0
  H  H768  1  0.905300  0.456800  0.631900  1.0
  H  H769  1  0.066300  0.532800  0.394200  1.0
  H  H770  1  0.933700  0.467200  0.605800  1.0
  H  H771  1  0.237000  0.234100  0.436100  1.0
  H  H772  1  0.763000  0.765900  0.563900  1.0
  H  H773  1  0.256900  0.244500  0.359700  1.0
  H  H774  1  0.743100  0.755500  0.640300  1.0
  H  H775  1  0.284200  0.187400  0.370200  1.0
  H  H776  1  0.715800  0.812600  0.629800  1.0
  H  H777  1  0.298900  0.131400  0.404500  1.0
  H  H778  1  0.701100  0.868600  0.595500  1.0
  H  H779  1  0.178300  0.347400  0.344400  1.0
  H  H780  1  0.821700  0.652600  0.655600  1.0
  H  H781  1  0.204900  0.290400  0.353500  1.0
  H  H782  1  0.795100  0.709600  0.646500  1.0
  H  H783  1  0.251900  0.286500  0.423100  1.0
  H  H784  1  0.748100  0.713500  0.576900  1.0
  H  H785  1  0.157600  0.394600  0.361600  1.0
  H  H786  1  0.842400  0.605400  0.638400  1.0
  H  H787  1  0.345300  0.085900  0.478900  1.0
  H  H788  1  0.654700  0.914100  0.521100  1.0
  H  H789  1  0.365600  0.028800  0.493000  1.0
  H  H790  1  0.634400  0.971200  0.507000  1.0
  H  H791  1  0.289300  0.026500  0.435100  1.0
  H  H792  1  0.710700  0.973500  0.564900  1.0
  H  H793  1  0.268800  0.083800  0.420300  1.0
  H  H794  1  0.731200  0.916200  0.579700  1.0
  H  H795  1  0.317000  0.974600  0.478300  1.0
  H  H796  1  0.683000  0.025400  0.521700  1.0
  H  H797  1  0.360200  0.977500  0.492700  1.0
  H  H798  1  0.639800  0.022500  0.507300  1.0
  H  H799  1  0.364000  0.976100  0.463200  1.0
  H  H800  1  0.636000  0.023900  0.536800  1.0
  H  H801  1  0.802700  0.433800  0.370800  1.0
  H  H802  1  0.197300  0.566200  0.629200  1.0
  H  H803  1  0.741300  0.460100  0.341500  1.0
  H  H804  1  0.258700  0.539900  0.658500  1.0
  H  H805  1  0.825200  0.498900  0.285500  1.0
  H  H806  1  0.174800  0.501100  0.714500  1.0
  H  H807  1  0.886600  0.472200  0.314400  1.0
  H  H808  1  0.113400  0.527800  0.685600  1.0
  H  H809  1  0.736700  0.522000  0.284900  1.0
  H  H810  1  0.263300  0.478000  0.715100  1.0
  H  H811  1  0.710800  0.492900  0.298200  1.0
  H  H812  1  0.289200  0.507100  0.701800  1.0
  H  H813  1  0.746200  0.490100  0.275300  1.0
  H  H814  1  0.253800  0.509900  0.724700  1.0
  H  H815  1  0.866100  0.435400  0.395500  1.0
  H  H816  1  0.133900  0.564600  0.604500  1.0
  H  H817  1  0.905100  0.417100  0.437400  1.0
  H  H818  1  0.094900  0.582900  0.562600  1.0
  H  H819  1  0.970000  0.386900  0.463600  1.0
  H  H820  1  0.030000  0.613100  0.536400  1.0
  H  H821  1  0.030600  0.368500  0.399500  1.0
  H  H822  1  0.969400  0.631500  0.600500  1.0
  H  H823  1  0.090700  0.378600  0.420600  1.0
  H  H824  1  0.909300  0.621400  0.579400  1.0
  H  H825  1  0.023800  0.330700  0.482000  1.0
  H  H826  1  0.976200  0.669300  0.518000  1.0
  H  H827  1  0.094500  0.300200  0.501900  1.0
  H  H828  1  0.905500  0.699800  0.498100  1.0
  H  H829  1  0.180800  0.290700  0.500200  1.0
  H  H830  1  0.819200  0.709300  0.499800  1.0
  H  H831  1  0.230800  0.304300  0.519800  1.0
  H  H832  1  0.769200  0.695700  0.480200  1.0
  H  H833  1  0.302100  0.287400  0.540200  1.0
  H  H834  1  0.697900  0.712600  0.459800  1.0
  H  H835  1  0.362300  0.277800  0.473500  1.0
  H  H836  1  0.637700  0.722200  0.526500  1.0
  H  H837  1  0.291200  0.294400  0.452900  1.0
  H  H838  1  0.708800  0.705600  0.547100  1.0
  H  H839  1  0.409200  0.267100  0.509900  1.0
  H  H840  1  0.590800  0.732900  0.490100  1.0
  H  H841  1  0.387100  0.250700  0.537100  1.0
  H  H842  1  0.612900  0.749300  0.462900  1.0
  H  H843  1  0.390600  0.288600  0.529000  1.0
  H  H844  1  0.609400  0.711400  0.471000  1.0
  H  H845  1  0.417400  0.443400  0.299600  1.0
  H  H846  1  0.582600  0.556600  0.700400  1.0
  H  H847  1  0.401500  0.498600  0.299900  1.0
  H  H848  1  0.598500  0.501400  0.700100  1.0
  H  H849  1  0.286200  0.486900  0.340200  1.0
  H  H850  1  0.713800  0.513100  0.659800  1.0
  H  H851  1  0.299800  0.432100  0.339200  1.0
  H  H852  1  0.700200  0.567900  0.660800  1.0
  H  H853  1  0.342200  0.546400  0.303600  1.0
  H  H854  1  0.657800  0.453600  0.696400  1.0
  H  H855  1  0.351800  0.533500  0.334600  1.0
  H  H856  1  0.648200  0.466500  0.665400  1.0
  H  H857  1  0.301400  0.539700  0.323400  1.0
  H  H858  1  0.698600  0.460300  0.676600  1.0
  H  H859  1  0.433800  0.243500  0.355900  1.0
  H  H860  1  0.566200  0.756500  0.644100  1.0
  H  H861  1  0.324300  0.247700  0.314300  1.0
  H  H862  1  0.675700  0.752300  0.685700  1.0
  H  H863  1  0.346800  0.190200  0.322900  1.0
  H  H864  1  0.653200  0.809800  0.677100  1.0
  H  H865  1  0.409300  0.139500  0.338700  1.0
  H  H866  1  0.590700  0.860500  0.661300  1.0
  H  H867  1  0.430400  0.293200  0.331700  1.0
  H  H868  1  0.569600  0.706800  0.668300  1.0
  H  H869  1  0.297700  0.292900  0.323600  1.0
  H  H870  1  0.702300  0.707100  0.676400  1.0
  H  H871  1  0.279800  0.350100  0.317300  1.0
  H  H872  1  0.720200  0.649900  0.682700  1.0
  H  H873  1  0.304700  0.401300  0.315500  1.0
  H  H874  1  0.695300  0.598700  0.684500  1.0
  H  H875  1  0.521800  0.088500  0.390400  1.0
  H  H876  1  0.478200  0.911500  0.609600  1.0
  H  H877  1  0.551100  0.034000  0.392400  1.0
  H  H878  1  0.448900  0.966000  0.607600  1.0
  H  H879  1  0.478000  0.048400  0.328100  1.0
  H  H880  1  0.522000  0.951600  0.671900  1.0
  H  H881  1  0.446400  0.102300  0.326400  1.0
  H  H882  1  0.553600  0.897700  0.673600  1.0
  H  H883  1  0.525100  0.997700  0.343900  1.0
  H  H884  1  0.474900  0.002300  0.656100  1.0
  H  H885  1  0.523900  0.984800  0.375200  1.0
  H  H886  1  0.476100  0.015200  0.624800  1.0
  H  H887  1  0.568700  0.994800  0.360900  1.0
  H  H888  1  0.431300  0.005200  0.639100  1.0
  H  H889  1  0.459000  0.916000  0.316200  1.0
  H  H890  1  0.541000  0.084000  0.683800  1.0
  H  H891  1  0.428400  0.934700  0.350500  1.0
  H  H892  1  0.571600  0.065300  0.649500  1.0
  H  H893  1  0.552500  0.902400  0.385100  1.0
  H  H894  1  0.447500  0.097600  0.614900  1.0
  H  H895  1  0.583000  0.885500  0.349900  1.0
  H  H896  1  0.417000  0.114500  0.650100  1.0
  H  H897  1  0.493200  0.925400  0.408000  1.0
  H  H898  1  0.506800  0.074600  0.592000  1.0
  H  H899  1  0.445600  0.917500  0.403300  1.0
  H  H900  1  0.554400  0.082500  0.596700  1.0
  H  H901  1  0.454700  0.953700  0.389700  1.0
  H  H902  1  0.545300  0.046300  0.610300  1.0
  H  H903  1  0.601400  0.887400  0.310400  1.0
  H  H904  1  0.398600  0.112600  0.689600  1.0
  H  H905  1  0.663800  0.873500  0.280400  1.0
  H  H906  1  0.336200  0.126500  0.719600  1.0
  H  H907  1  0.686600  0.853500  0.245100  1.0
  H  H908  1  0.313400  0.146500  0.754900  1.0
  H  H909  1  0.559700  0.841900  0.239200  1.0
  H  H910  1  0.440300  0.158100  0.760800  1.0
  H  H911  1  0.583300  0.853400  0.194000  1.0
  H  H912  1  0.416700  0.146600  0.806000  1.0
  H  H913  1  0.699700  0.801800  0.233400  1.0
  H  H914  1  0.300300  0.198200  0.766600  1.0
  H  H915  1  0.720500  0.778000  0.199900  1.0
  H  H916  1  0.279500  0.222000  0.800100  1.0
  H  H917  1  0.700100  0.774000  0.156100  1.0
  H  H918  1  0.299900  0.226000  0.843900  1.0
  H  H919  1  0.594100  0.787500  0.104500  1.0
  H  H920  1  0.405900  0.212500  0.895500  1.0
  H  H921  1  0.611100  0.778400  0.064700  1.0
  H  H922  1  0.388900  0.221600  0.935300  1.0
  H  H923  1  0.744000  0.769300  0.077700  1.0
  H  H924  1  0.256000  0.230700  0.922300  1.0
  H  H925  1  0.727100  0.780100  0.117100  1.0
  H  H926  1  0.272900  0.219900  0.882900  1.0
  H  H927  1  0.715300  0.776400  0.032600  1.0
  H  H928  1  0.284700  0.223600  0.967400  1.0
  H  H929  1  0.662000  0.780400  0.028300  1.0
  H  H930  1  0.338000  0.219600  0.971700  1.0
  H  H931  1  0.693500  0.744600  0.042100  1.0
  H  H932  1  0.306500  0.255400  0.957900  1.0
  H  H933  1  0.968300  0.710300  0.091400  1.0
  H  H934  1  0.031700  0.289700  0.908600  1.0
  H  H935  1  0.905900  0.695100  0.114700  1.0
  H  H936  1  0.094100  0.304900  0.885300  1.0
  H  H937  1  0.986900  0.642300  0.177800  1.0
  H  H938  1  0.013100  0.357700  0.822200  1.0
  H  H939  1  0.049300  0.658800  0.154900  1.0
  H  H940  1  0.950700  0.341200  0.845100  1.0
  H  H941  1  0.871300  0.669000  0.154100  1.0
  H  H942  1  0.128700  0.331000  0.845900  1.0
  H  H943  1  0.897500  0.665000  0.180400  1.0
  H  H944  1  0.102500  0.335000  0.819600  1.0
  H  H945  1  0.902700  0.634100  0.169800  1.0
  H  H946  1  0.097300  0.365900  0.830200  1.0
  H  H947  1  0.029400  0.702000  0.071900  1.0
  H  H948  1  0.970600  0.298000  0.928100  1.0
  H  H949  1  0.071600  0.714700  0.030300  1.0
  H  H950  1  0.928400  0.285300  0.969700  1.0
  H  H951  1  0.136400  0.730300  0.008100  1.0
  H  H952  1  0.863600  0.269700  0.991900  1.0
  H  H953  1  0.186500  0.727200  0.077100  1.0
  H  H954  1  0.813500  0.272800  0.922900  1.0
  H  H955  1  0.251900  0.714000  0.059200  1.0
  H  H956  1  0.748100  0.286000  0.940800  1.0
  H  H957  1  0.180700  0.771900  0.993000  1.0
  H  H958  1  0.819300  0.228100  0.007000  1.0
  H  H959  1  0.247500  0.787800  0.974900  1.0
  H  H960  1  0.752500  0.212200  0.025100  1.0
  H  H961  1  0.331700  0.784000  0.981200  1.0
  H  H962  1  0.668300  0.216000  0.018800  1.0
  H  H963  1  0.387500  0.776000  0.962100  1.0
  H  H964  1  0.612500  0.224000  0.037900  1.0
  H  H965  1  0.454600  0.785700  0.941200  1.0
  H  H966  1  0.545400  0.214300  0.058800  1.0
  H  H967  1  0.512700  0.767100  0.011800  1.0
  H  H968  1  0.487300  0.232900  0.988200  1.0
  H  H969  1  0.445500  0.757400  0.032900  1.0
  H  H970  1  0.554500  0.242600  0.967100  1.0
  H  H971  1  0.556900  0.782200  0.973300  1.0
  H  H972  1  0.443100  0.217800  0.026700  1.0
  H  H973  1  0.528800  0.803200  0.946700  1.0
  H  H974  1  0.471200  0.196800  0.053300  1.0
  H  H975  1  0.546500  0.764100  0.953400  1.0
  H  H976  1  0.453500  0.235900  0.046600  1.0
  H  H977  1  0.119900  0.650000  0.120200  1.0
  H  H978  1  0.880100  0.350000  0.879800  1.0
  H  H979  1  0.127400  0.594300  0.124500  1.0
  H  H980  1  0.872600  0.405700  0.875500  1.0
  H  H981  1  0.225700  0.569000  0.179600  1.0
  H  H982  1  0.774300  0.431000  0.820400  1.0
  H  H983  1  0.220100  0.624700  0.175200  1.0
  H  H984  1  0.779900  0.375300  0.824800  1.0
  H  H985  1  0.208400  0.526900  0.165300  1.0
  H  H986  1  0.791600  0.473100  0.834700  1.0
  H  H987  1  0.188600  0.538400  0.136000  1.0
  H  H988  1  0.811400  0.461600  0.864000  1.0
  H  H989  1  0.154800  0.533500  0.160200  1.0
  H  H990  1  0.845200  0.466500  0.839800  1.0
  H  H991  1  0.222900  0.671200  0.157300  1.0
  H  H992  1  0.777100  0.328800  0.842700  1.0
  H  H993  1  0.255600  0.716500  0.164000  1.0
  H  H994  1  0.744400  0.283500  0.836000  1.0
  H  H995  1  0.240400  0.771500  0.163900  1.0
  H  H996  1  0.759600  0.228500  0.836100  1.0
  H  H997  1  0.119800  0.788600  0.128200  1.0
  H  H998  1  0.880200  0.211400  0.871800  1.0
  H  H999  1  0.133200  0.842000  0.113200  1.0
  H  H1000  1  0.866800  0.158000  0.886800  1.0
  H  H1001  1  0.197900  0.811300  0.182800  1.0
  H  H1002  1  0.802100  0.188700  0.817200  1.0
  H  H1003  1  0.178100  0.865600  0.184000  1.0
  H  H1004  1  0.821900  0.134400  0.816000  1.0
  H  H1005  1  0.139800  0.925300  0.162900  1.0
  H  H1006  1  0.860200  0.074700  0.837100  1.0
  H  H1007  1  0.037900  0.988200  0.106700  1.0
  H  H1008  1  0.962100  0.011800  0.893300  1.0
  H  H1009  1  0.025100  0.043700  0.104700  1.0
  H  H1010  1  0.974900  0.956300  0.895300  1.0
  H  H1011  1  0.136600  0.024800  0.149800  1.0
  H  H1012  1  0.863400  0.975200  0.850200  1.0
  H  H1013  1  0.151800  0.969600  0.151100  1.0
  H  H1014  1  0.848200  0.030400  0.848900  1.0
  H  H1015  1  0.094200  0.078700  0.135400  1.0
  H  H1016  1  0.905800  0.921300  0.864600  1.0
  H  H1017  1  0.040800  0.081800  0.132500  1.0
  H  H1018  1  0.959200  0.918200  0.867500  1.0
  H  H1019  1  0.071400  0.089000  0.107000  1.0
  H  H1020  1  0.928600  0.911000  0.893000  1.0
  H  H1021  1  0.295000  0.851100  0.019400  1.0
  H  H1022  1  0.705000  0.148900  0.980600  1.0
  H  H1023  1  0.231300  0.849500  0.998300  1.0
  H  H1024  1  0.768700  0.150500  0.001700  1.0
  H  H1025  1  0.294800  0.869100  0.929400  1.0
  H  H1026  1  0.705200  0.130900  0.070600  1.0
  H  H1027  1  0.360400  0.867800  0.950700  1.0
  H  H1028  1  0.639600  0.132200  0.049300  1.0
  H  H1029  1  0.221700  0.849000  0.934200  1.0
  H  H1030  1  0.778300  0.151000  0.065800  1.0
  H  H1031  1  0.192300  0.877000  0.945300  1.0
  H  H1032  1  0.807700  0.123000  0.054700  1.0
  H  H1033  1  0.200300  0.838900  0.962600  1.0
  H  H1034  1  0.799700  0.161100  0.037400  1.0
  H  H1035  1  0.417600  0.847500  0.979000  1.0
  H  H1036  1  0.582400  0.152500  0.021000  1.0
  H  H1037  1  0.500500  0.834800  0.987800  1.0
  H  H1038  1  0.499500  0.165200  0.012200  1.0
  H  H1039  1  0.561500  0.840200  0.010400  1.0
  H  H1040  1  0.438500  0.159800  0.989600  1.0
  H  H1041  1  0.470500  0.890100  0.049400  1.0
  H  H1042  1  0.529500  0.109900  0.950600  1.0
  H  H1043  1  0.525100  0.863400  0.081800  1.0
  H  H1044  1  0.474900  0.136600  0.918200  1.0
  H  H1045  1  0.606800  0.875100  0.019400  1.0
  H  H1046  1  0.393200  0.124900  0.980600  1.0
  H  H1047  1  0.665200  0.874700  0.046500  1.0
  H  H1048  1  0.334800  0.125300  0.953500  1.0
  H  H1049  1  0.690500  0.875300  0.090200  1.0
  H  H1050  1  0.309500  0.124700  0.909800  1.0
  H  H1051  1  0.742500  0.843500  0.121700  1.0
  H  H1052  1  0.257500  0.156500  0.878300  1.0
  H  H1053  1  0.797100  0.842000  0.151100  1.0
  H  H1054  1  0.202900  0.158000  0.848900  1.0
  H  H1055  1  0.704100  0.897900  0.183500  1.0
  H  H1056  1  0.295900  0.102100  0.816500  1.0
  H  H1057  1  0.648000  0.899100  0.155500  1.0
  H  H1058  1  0.352000  0.100900  0.844500  1.0
  H  H1059  1  0.794100  0.894300  0.185500  1.0
  H  H1060  1  0.205900  0.105700  0.814500  1.0
  H  H1061  1  0.821000  0.857900  0.186600  1.0
  H  H1062  1  0.179000  0.142100  0.813400  1.0
  H  H1063  1  0.781900  0.862900  0.207100  1.0
  H  H1064  1  0.218100  0.137100  0.792900  1.0
  H  H1065  1  0.933300  0.648400  0.335800  1.0
  H  H1066  1  0.066700  0.351600  0.664200  1.0
  H  H1067  1  0.922100  0.628100  0.380900  1.0
  H  H1068  1  0.077900  0.371900  0.619100  1.0
  H  H1069  1  0.058300  0.594700  0.391100  1.0
  H  H1070  1  0.941700  0.405300  0.608900  1.0
  H  H1071  1  0.070000  0.615800  0.346200  1.0
  H  H1072  1  0.930000  0.384200  0.653800  1.0
  H  H1073  1  0.016100  0.594000  0.428000  1.0
  H  H1074  1  0.983900  0.406000  0.572000  1.0
  H  H1075  1  0.978200  0.575200  0.424600  1.0
  H  H1076  1  0.021800  0.424800  0.575400  1.0
  H  H1077  1  0.963400  0.612200  0.425900  1.0
  H  H1078  1  0.036600  0.387800  0.574100  1.0
  H  H1079  1  0.945900  0.647600  0.298400  1.0
  H  H1080  1  0.054100  0.352400  0.701600  1.0
  H  H1081  1  0.919900  0.664300  0.252100  1.0
  H  H1082  1  0.080100  0.335700  0.747900  1.0
  H  H1083  1  0.927900  0.693300  0.207900  1.0
  H  H1084  1  0.072100  0.306700  0.792100  1.0
  H  H1085  1  0.049800  0.703300  0.226700  1.0
  H  H1086  1  0.950200  0.296700  0.773300  1.0
  H  H1087  1  0.064500  0.703600  0.183200  1.0
  H  H1088  1  0.935500  0.296400  0.816800  1.0
  H  H1089  1  0.929800  0.745200  0.179100  1.0
  H  H1090  1  0.070200  0.254800  0.820900  1.0
  H  H1091  1  0.938200  0.776200  0.135300  1.0
  H  H1092  1  0.061800  0.223800  0.864700  1.0
  H  H1093  1  0.987600  0.791900  0.098800  1.0
  H  H1094  1  0.012400  0.208100  0.901200  1.0
  H  H1095  1  0.991200  0.796100  0.056800  1.0
  H  H1096  1  0.008800  0.203900  0.943200  1.0
  H  H1097  1  0.004600  0.820300  0.012700  1.0
  H  H1098  1  0.995400  0.179700  0.987300  1.0
  H  H1099  1  0.135300  0.814100  0.029200  1.0
  H  H1100  1  0.864700  0.185900  0.970800  1.0
  H  H1101  1  0.122600  0.791600  0.073500  1.0
  H  H1102  1  0.877400  0.208400  0.926500  1.0
  H  H1103  1  0.109400  0.839600  0.985500  1.0
  H  H1104  1  0.890600  0.160400  0.014500  1.0
  H  H1105  1  0.056000  0.855000  0.980600  1.0
  H  H1106  1  0.944000  0.145000  0.019400  1.0
  H  H1107  1  0.077300  0.819000  0.978300  1.0
  H  H1108  1  0.922700  0.181000  0.021700  1.0
  H  H1109  1  0.845900  0.908200  0.267300  1.0
  H  H1110  1  0.154100  0.091800  0.732700  1.0
  H  H1111  1  0.787700  0.926400  0.236300  1.0
  H  H1112  1  0.212300  0.073600  0.763700  1.0
  H  H1113  1  0.866600  0.972900  0.181500  1.0
  H  H1114  1  0.133400  0.027100  0.818500  1.0
  H  H1115  1  0.925900  0.953500  0.212400  1.0
  H  H1116  1  0.074100  0.046500  0.787600  1.0
  H  H1117  1  0.788800  0.974200  0.169900  1.0
  H  H1118  1  0.211200  0.025800  0.830100  1.0
  H  H1119  1  0.756800  0.979700  0.193500  1.0
  H  H1120  1  0.243200  0.020300  0.806500  1.0
  H  H1121  1  0.766800  0.944900  0.188000  1.0
  H  H1122  1  0.233200  0.055100  0.812000  1.0
  H  H1123  1  0.889100  0.912800  0.294400  1.0
  H  H1124  1  0.110900  0.087200  0.705600  1.0
  H  H1125  1  0.919500  0.898900  0.340500  1.0
  H  H1126  1  0.080500  0.101100  0.659500  1.0
  H  H1127  1  0.981700  0.875800  0.369600  1.0
  H  H1128  1  0.018300  0.124200  0.630400  1.0
  H  H1129  1  0.063000  0.871100  0.308600  1.0
  H  H1130  1  0.937000  0.128900  0.691400  1.0
  H  H1131  1  0.115100  0.880700  0.336300  1.0
  H  H1132  1  0.884900  0.119300  0.663700  1.0
  H  H1133  1  0.038000  0.831300  0.390500  1.0
  H  H1134  1  0.962000  0.168700  0.609500  1.0
  H  H1135  1  0.101800  0.807800  0.418200  1.0
  H  H1136  1  0.898200  0.192200  0.581800  1.0
  H  H1137  1  0.184600  0.801200  0.426400  1.0
  H  H1138  1  0.815400  0.198800  0.573600  1.0
  H  H1139  1  0.233600  0.815500  0.450400  1.0
  H  H1140  1  0.766400  0.184500  0.549600  1.0
  H  H1141  1  0.297000  0.795600  0.478400  1.0
  H  H1142  1  0.703000  0.204400  0.521600  1.0
  H  H1143  1  0.375300  0.781000  0.418000  1.0
  H  H1144  1  0.624700  0.219000  0.582000  1.0
  H  H1145  1  0.311300  0.799900  0.390600  1.0
  H  H1146  1  0.688700  0.200100  0.609400  1.0
  H  H1147  1  0.408300  0.759100  0.459700  1.0
  H  H1148  1  0.591700  0.240900  0.540300  1.0
  H  H1149  1  0.377400  0.756300  0.485000  1.0
  H  H1150  1  0.622600  0.243700  0.515000  1.0
  H  H1151  1  0.395700  0.789200  0.471500  1.0
  H  H1152  1  0.604300  0.210800  0.528500  1.0
  H  H1153  1  0.884300  0.832300  0.294900  1.0
  H  H1154  1  0.115700  0.167700  0.705100  1.0
  H  H1155  1  0.871400  0.810800  0.339500  1.0
  H  H1156  1  0.128600  0.189200  0.660500  1.0
  H  H1157  1  0.006000  0.788500  0.355000  1.0
  H  H1158  1  0.994000  0.211500  0.645000  1.0
  H  H1159  1  0.019800  0.811700  0.310700  1.0
  H  H1160  1  0.980200  0.188300  0.689300  1.0
  H  H1161  1  0.941500  0.794800  0.390500  1.0
  H  H1162  1  0.058500  0.205200  0.609500  1.0
  H  H1163  1  0.941100  0.760100  0.386600  1.0
  H  H1164  1  0.058900  0.239900  0.613400  1.0
  H  H1165  1  0.895000  0.787800  0.383100  1.0
  H  H1166  1  0.105000  0.212200  0.616900  1.0
  H  H1167  1  0.908500  0.829400  0.256700  1.0
  H  H1168  1  0.091500  0.170600  0.743300  1.0
  H  H1169  1  0.886100  0.848900  0.209500  1.0
  H  H1170  1  0.113900  0.151100  0.790500  1.0
  H  H1171  1  0.896900  0.879300  0.166100  1.0
  H  H1172  1  0.103100  0.120700  0.833900  1.0
  H  H1173  1  0.002600  0.904600  0.192000  1.0
  H  H1174  1  0.997400  0.095400  0.808000  1.0
  H  H1175  1  0.027400  0.901200  0.151300  1.0
  H  H1176  1  0.972600  0.098800  0.848700  1.0
  H  H1177  1  0.894400  0.934800  0.133200  1.0
  H  H1178  1  0.105600  0.065200  0.866800  1.0
  H  H1179  1  0.914700  0.963000  0.090900  1.0
  H  H1180  1  0.085300  0.037000  0.909100  1.0
  H  H1181  1  0.974800  0.977800  0.058500  1.0
  H  H1182  1  0.025200  0.022200  0.941500  1.0
  H  H1183  1  0.094400  0.002100  0.055100  1.0
  H  H1184  1  0.905600  0.997900  0.944900  1.0
  H  H1185  1  0.121200  0.030500  0.014900  1.0
  H  H1186  1  0.878800  0.969500  0.985100  1.0
  H  H1187  1  0.058800  0.982800  0.979100  1.0
  H  H1188  1  0.941200  0.017200  0.020900  1.0
  H  H1189  1  0.029200  0.956400  0.018800  1.0
  H  H1190  1  0.970800  0.043600  0.981200  1.0
  H  H1191  1  0.095500  0.026300  0.952700  1.0
  H  H1192  1  0.904500  0.973700  0.047300  1.0
  H  H1193  1  0.144800  0.013900  0.966600  1.0
  H  H1194  1  0.855200  0.986100  0.033400  1.0
  H  H1195  1  0.113600  0.048800  0.966500  1.0
  H  H1196  1  0.886400  0.951200  0.033500  1.0
  H  H1197  1  0.988600  0.955800  0.257500  1.0
  H  H1198  1  0.011400  0.044200  0.742500  1.0
  H  H1199  1  0.969000  0.013000  0.247300  1.0
  H  H1200  1  0.031000  0.987000  0.752700  1.0
  H  H1201  1  0.050900  0.021400  0.185400  1.0
  H  H1202  1  0.949100  0.978600  0.814600  1.0
  H  H1203  1  0.073300  0.964500  0.196500  1.0
  H  H1204  1  0.926700  0.035500  0.803500  1.0
  H  H1205  1  0.973600  0.069900  0.196300  1.0
  H  H1206  1  0.026400  0.930100  0.803700  1.0
  H  H1207  1  0.025200  0.068600  0.202600  1.0
  H  H1208  1  0.974800  0.931400  0.797400  1.0
  H  H1209  1  0.988700  0.066000  0.225400  1.0
  H  H1210  1  0.011300  0.934000  0.774600  1.0
  H  H1211  1  0.107700  0.916600  0.223900  1.0
  H  H1212  1  0.892300  0.083400  0.776100  1.0
  H  H1213  1  0.167200  0.867100  0.226900  1.0
  H  H1214  1  0.832800  0.132900  0.773100  1.0
  H  H1215  1  0.190400  0.809400  0.239500  1.0
  H  H1216  1  0.809600  0.190600  0.760500  1.0
  H  H1217  1  0.068700  0.804400  0.272800  1.0
  H  H1218  1  0.931300  0.195600  0.727200  1.0
  H  H1219  1  0.073900  0.760700  0.264700  1.0
  H  H1220  1  0.926100  0.239300  0.735300  1.0
  H  H1221  1  0.208600  0.756100  0.265200  1.0
  H  H1222  1  0.791400  0.243900  0.734800  1.0
  H  H1223  1  0.221000  0.698300  0.277400  1.0
  H  H1224  1  0.779000  0.301700  0.722600  1.0
  H  H1225  1  0.188800  0.647300  0.288000  1.0
  H  H1226  1  0.811200  0.352700  0.712000  1.0
  H  H1227  1  0.069600  0.611900  0.286300  1.0
  H  H1228  1  0.930400  0.388100  0.713700  1.0
  H  H1229  1  0.084900  0.555000  0.293300  1.0
  H  H1230  1  0.915100  0.445000  0.706700  1.0
  H  H1231  1  0.212300  0.545500  0.318800  1.0
  H  H1232  1  0.787700  0.454500  0.681200  1.0
  H  H1233  1  0.198700  0.602800  0.310700  1.0
  H  H1234  1  0.801300  0.397200  0.689300  1.0
  H  H1235  1  0.189000  0.497700  0.318200  1.0
  H  H1236  1  0.811000  0.502300  0.681800  1.0
  H  H1237  1  0.153100  0.503800  0.295400  1.0
  H  H1238  1  0.846900  0.496200  0.704600  1.0
  H  H1239  1  0.136400  0.499200  0.324800  1.0
  H  H1240  1  0.863600  0.500800  0.675200  1.0
  H  H1241  1  0.451500  0.939300  0.003000  1.0
  H  H1242  1  0.548500  0.060700  0.997000  1.0
  H  H1243  1  0.519500  0.945300  0.981100  1.0
  H  H1244  1  0.480500  0.054700  0.018900  1.0
  H  H1245  1  0.459800  0.950500  0.914000  1.0
  H  H1246  1  0.540200  0.049500  0.086000  1.0
  H  H1247  1  0.391700  0.944300  0.935700  1.0
  H  H1248  1  0.608300  0.055700  0.064300  1.0
  H  H1249  1  0.535000  0.976400  0.920400  1.0
  H  H1250  1  0.465000  0.023600  0.079600  1.0
  H  H1251  1  0.542500  0.939900  0.918300  1.0
  H  H1252  1  0.457500  0.060100  0.081700  1.0
  H  H1253  1  0.564200  0.945700  0.942500  1.0
  H  H1254  1  0.435800  0.054300  0.057500  1.0
  H  H1255  1  0.337900  0.958500  0.953300  1.0
  H  H1256  1  0.662100  0.041500  0.046700  1.0
  H  H1257  1  0.253000  0.967400  0.951300  1.0
  H  H1258  1  0.747000  0.032600  0.048700  1.0
  H  H1259  1  0.187700  0.951600  0.971600  1.0
  H  H1260  1  0.812300  0.048400  0.028400  1.0
  H  H1261  1  0.259300  0.905900  0.038900  1.0
  H  H1262  1  0.740700  0.094100  0.961100  1.0
  H  H1263  1  0.181000  0.923600  0.054700  1.0
  H  H1264  1  0.819000  0.076400  0.945300  1.0
  H  H1265  1  0.155200  0.903600  0.989700  1.0
  H  H1266  1  0.844800  0.096400  0.010300  1.0
  H  H1267  1  0.092100  0.884200  0.009900  1.0
  H  H1268  1  0.907900  0.115800  0.990100  1.0
  H  H1269  1  0.042900  0.873400  0.047000  1.0
  H  H1270  1  0.957100  0.126600  0.953000  1.0
  H  H1271  1  0.971400  0.891200  0.057300  1.0
  H  H1272  1  0.028600  0.108800  0.942700  1.0
  H  H1273  1  0.905500  0.876200  0.075800  1.0
  H  H1274  1  0.094500  0.123800  0.924200  1.0
  H  H1275  1  0.969000  0.834600  0.145700  1.0
  H  H1276  1  0.031000  0.165400  0.854300  1.0
  H  H1277  1  0.035400  0.849200  0.128000  1.0
  H  H1278  1  0.964600  0.150800  0.872000  1.0
  H  H1279  1  0.883500  0.849100  0.143200  1.0
  H  H1280  1  0.116500  0.150900  0.856800  1.0
  H  H1281  1  0.883400  0.824700  0.126500  1.0
  H  H1282  1  0.116600  0.175300  0.873500  1.0
  H  H1283  1  0.859400  0.863000  0.114800  1.0
  H  H1284  1  0.140600  0.137000  0.885200  1.0
  H  H1285  1  0.908500  0.724100  0.303600  1.0
  H  H1286  1  0.091500  0.275900  0.696400  1.0
  H  H1287  1  0.847900  0.743800  0.273900  1.0
  H  H1288  1  0.152100  0.256200  0.726100  1.0
  H  H1289  1  0.930500  0.782400  0.216900  1.0
  H  H1290  1  0.069500  0.217600  0.783100  1.0
  H  H1291  1  0.992000  0.760900  0.246400  1.0
  H  H1292  1  0.008000  0.239100  0.753600  1.0
  H  H1293  1  0.851400  0.791100  0.207100  1.0
  H  H1294  1  0.148600  0.208900  0.792900  1.0
  H  H1295  1  0.818200  0.789600  0.231500  1.0
  H  H1296  1  0.181800  0.210400  0.768500  1.0
  H  H1297  1  0.833800  0.758100  0.221400  1.0
  H  H1298  1  0.166200  0.241900  0.778600  1.0
  H  H1299  1  0.961500  0.732500  0.325800  1.0
  H  H1300  1  0.038500  0.267500  0.674200  1.0
  H  H1301  1  0.989400  0.718200  0.369900  1.0
  H  H1302  1  0.010600  0.281800  0.630100  1.0
  H  H1303  1  0.047900  0.692400  0.401500  1.0
  H  H1304  1  0.952100  0.307600  0.598500  1.0
  H  H1305  1  0.126700  0.665200  0.345800  1.0
  H  H1306  1  0.873300  0.334800  0.654200  1.0
  H  H1307  1  0.183000  0.678900  0.371600  1.0
  H  H1308  1  0.817000  0.321100  0.628400  1.0
  H  H1309  1  0.096700  0.640100  0.425600  1.0
  H  H1310  1  0.903300  0.359900  0.574400  1.0
  H  H1311  1  0.156700  0.615900  0.456200  1.0
  H  H1312  1  0.843300  0.384100  0.543800  1.0
  H  H1313  1  0.236800  0.607600  0.466700  1.0
  H  H1314  1  0.763200  0.392400  0.533300  1.0
  H  H1315  1  0.287500  0.618000  0.496400  1.0
  H  H1316  1  0.712500  0.382000  0.503600  1.0
  H  H1317  1  0.352300  0.602100  0.522600  1.0
  H  H1318  1  0.647700  0.397900  0.477400  1.0
  H  H1319  1  0.429400  0.598800  0.459900  1.0
  H  H1320  1  0.570600  0.401200  0.540100  1.0
  H  H1321  1  0.364700  0.614300  0.433700  1.0
  H  H1322  1  0.635300  0.385700  0.566300  1.0
  H  H1323  1  0.446400  0.561600  0.518800  1.0
  H  H1324  1  0.553600  0.438400  0.481200  1.0
  H  H1325  1  0.437500  0.596000  0.524900  1.0
  H  H1326  1  0.562500  0.404000  0.475100  1.0
  H  H1327  1  0.466600  0.591500  0.500100  1.0
  H  H1328  1  0.533400  0.408500  0.499900  1.0
  H  H1329  1  0.231000  0.953400  0.279500  1.0
  H  H1330  1  0.769000  0.046600  0.720500  1.0
  H  H1331  1  0.207500  0.010400  0.269400  1.0
  H  H1332  1  0.792500  0.989600  0.730600  1.0
  H  H1333  1  0.136700  0.999000  0.336000  1.0
  H  H1334  1  0.863300  0.001000  0.664000  1.0
  H  H1335  1  0.163000  0.942500  0.346700  1.0
  H  H1336  1  0.837000  0.057500  0.653300  1.0
  H  H1337  1  0.146200  0.051900  0.313200  1.0
  H  H1338  1  0.853800  0.948100  0.686800  1.0
  H  H1339  1  0.124300  0.055100  0.285800  1.0
  H  H1340  1  0.875700  0.944900  0.714200  1.0
  H  H1341  1  0.175400  0.059100  0.287100  1.0
  H  H1342  1  0.824600  0.940900  0.712900  1.0
  H  H1343  1  0.210300  0.906800  0.284600  1.0
  H  H1344  1  0.789700  0.093200  0.715400  1.0
  H  H1345  1  0.223500  0.857300  0.268400  1.0
  H  H1346  1  0.776500  0.142700  0.731600  1.0
  H  H1347  1  0.244200  0.799200  0.279200  1.0
  H  H1348  1  0.755800  0.200800  0.720800  1.0
  H  H1349  1  0.259200  0.793600  0.355000  1.0
  H  H1350  1  0.740800  0.206400  0.645000  1.0
  H  H1351  1  0.241200  0.744600  0.363100  1.0
  H  H1352  1  0.758800  0.255400  0.636900  1.0
  H  H1353  1  0.292300  0.752800  0.291000  1.0
  H  H1354  1  0.707700  0.247200  0.709000  1.0
  H  H1355  1  0.322100  0.695300  0.304800  1.0
  H  H1356  1  0.677900  0.304700  0.695200  1.0
  H  H1357  1  0.341100  0.643700  0.340700  1.0
  H  H1358  1  0.658900  0.356300  0.659300  1.0
  H  H1359  1  0.302500  0.585900  0.412400  1.0
  H  H1360  1  0.697500  0.414100  0.587600  1.0
  H  H1361  1  0.348800  0.532900  0.427000  1.0
  H  H1362  1  0.651200  0.467100  0.573000  1.0
  H  H1363  1  0.446600  0.561500  0.376600  1.0
  H  H1364  1  0.553400  0.438500  0.623400  1.0
  H  H1365  1  0.401500  0.615200  0.362200  1.0
  H  H1366  1  0.598500  0.384800  0.637800  1.0
  H  H1367  1  0.451800  0.504000  0.398000  1.0
  H  H1368  1  0.548200  0.496000  0.602000  1.0
  H  H1369  1  0.407600  0.491800  0.411400  1.0
  H  H1370  1  0.592400  0.508200  0.588600  1.0
  H  H1371  1  0.441800  0.501100  0.428100  1.0
  H  H1372  1  0.558200  0.498900  0.571900  1.0
  H  H1373  1  0.587500  0.926200  0.112100  1.0
  H  H1374  1  0.412500  0.073800  0.887900  1.0
  H  H1375  1  0.594600  0.979100  0.109000  1.0
  H  H1376  1  0.405400  0.020900  0.891000  1.0
  H  H1377  1  0.515400  0.977200  0.172100  1.0
  H  H1378  1  0.484600  0.022800  0.827900  1.0
  H  H1379  1  0.507000  0.924800  0.174500  1.0
  H  H1380  1  0.493000  0.075200  0.825500  1.0
  H  H1381  1  0.545400  0.022400  0.155100  1.0
  H  H1382  1  0.454600  0.977600  0.844900  1.0
  H  H1383  1  0.536800  0.034600  0.124100  1.0
  H  H1384  1  0.463200  0.965400  0.875900  1.0
  H  H1385  1  0.587600  0.021400  0.135900  1.0
  H  H1386  1  0.412400  0.978600  0.864100  1.0
  H  H1387  1  0.479300  0.892300  0.159700  1.0
  H  H1388  1  0.520700  0.107700  0.840300  1.0
  H  H1389  1  0.434400  0.851000  0.174600  1.0
  H  H1390  1  0.565600  0.149000  0.825400  1.0
  H  H1391  1  0.427100  0.796700  0.180100  1.0
  H  H1392  1  0.572900  0.203300  0.819900  1.0
  H  H1393  1  0.544200  0.782000  0.140900  1.0
  H  H1394  1  0.455800  0.218000  0.859100  1.0
  H  H1395  1  0.550100  0.732400  0.164100  1.0
  H  H1396  1  0.449900  0.267600  0.835900  1.0
  H  H1397  1  0.413000  0.757100  0.168900  1.0
  H  H1398  1  0.587000  0.242900  0.831100  1.0
  H  H1399  1  0.411800  0.701800  0.174600  1.0
  H  H1400  1  0.588200  0.298200  0.825400  1.0
  H  H1401  1  0.452700  0.645600  0.176900  1.0
  H  H1402  1  0.547300  0.354400  0.823100  1.0
  H  H1403  1  0.574800  0.590400  0.154200  1.0
  H  H1404  1  0.425200  0.409600  0.845800  1.0
  H  H1405  1  0.577500  0.536000  0.156900  1.0
  H  H1406  1  0.422500  0.464000  0.843100  1.0
  H  H1407  1  0.454600  0.541900  0.190200  1.0
  H  H1408  1  0.545400  0.458100  0.809800  1.0
  H  H1409  1  0.451100  0.596600  0.186700  1.0
  H  H1410  1  0.548900  0.403400  0.813300  1.0
  H  H1411  1  0.500400  0.495200  0.164500  1.0
  H  H1412  1  0.499600  0.504800  0.835500  1.0
  H  H1413  1  0.509000  0.486100  0.195400  1.0
  H  H1414  1  0.491000  0.513900  0.804600  1.0
  H  H1415  1  0.551100  0.485900  0.176100  1.0
  H  H1416  1  0.448900  0.514100  0.823900  1.0
  H  H1417  1  0.323400  0.715500  0.141000  1.0
  H  H1418  1  0.676600  0.284500  0.859000  1.0
  H  H1419  1  0.334400  0.768400  0.138000  1.0
  H  H1420  1  0.665600  0.231600  0.862000  1.0
  H  H1421  1  0.382300  0.775900  0.065200  1.0
  H  H1422  1  0.617700  0.224100  0.934800  1.0
  H  H1423  1  0.317200  0.677200  0.120200  1.0
  H  H1424  1  0.682800  0.322800  0.879800  1.0
  H  H1425  1  0.348300  0.828200  0.057500  1.0
  H  H1426  1  0.651700  0.171800  0.942500  1.0
  H  H1427  1  0.369600  0.806600  0.135400  1.0
  H  H1428  1  0.630400  0.193400  0.864600  1.0
  H  H1429  1  0.375200  0.861600  0.128200  1.0
  H  H1430  1  0.624800  0.138400  0.871800  1.0
  H  H1431  1  0.372000  0.918600  0.095400  1.0
  H  H1432  1  0.628000  0.081400  0.904600  1.0
  H  H1433  1  0.263100  0.654900  0.108000  1.0
  H  H1434  1  0.736900  0.345100  0.892000  1.0
  H  H1435  1  0.238100  0.607700  0.109800  1.0
  H  H1436  1  0.761900  0.392300  0.890200  1.0
  H  H1437  1  0.350100  0.579600  0.071100  1.0
  H  H1438  1  0.649900  0.420400  0.928900  1.0
  H  H1439  1  0.373800  0.627800  0.067800  1.0
  H  H1440  1  0.626200  0.372200  0.932200  1.0
  H  H1441  1  0.303900  0.540600  0.090300  1.0
  H  H1442  1  0.696100  0.459400  0.909700  1.0
  H  H1443  1  0.258300  0.563000  0.074600  1.0
  H  H1444  1  0.741700  0.437000  0.925400  1.0
  H  H1445  1  0.259300  0.550700  0.105900  1.0
  H  H1446  1  0.740700  0.449300  0.894100  1.0
  H  H1447  1  0.376600  0.971900  0.014100  1.0
  H  H1448  1  0.623400  0.028100  0.985900  1.0
  H  H1449  1  0.360500  0.028900  0.003200  1.0
  H  H1450  1  0.639500  0.971100  0.996800  1.0
  H  H1451  1  0.329400  0.022900  0.077600  1.0
  H  H1452  1  0.670600  0.977100  0.922400  1.0
  H  H1453  1  0.346600  0.965800  0.089000  1.0
  H  H1454  1  0.653400  0.034200  0.911000  1.0
  H  H1455  1  0.342100  0.078500  0.013300  1.0
  H  H1456  1  0.657900  0.921500  0.986700  1.0
  H  H1457  1  0.343000  0.077300  0.043300  1.0
  H  H1458  1  0.657000  0.922700  0.956700  1.0
  H  H1459  1  0.296800  0.077300  0.030100  1.0
  H  H1460  1  0.703200  0.922700  0.969900  1.0
  H  H1461  1  0.713300  0.611600  0.135000  1.0
  H  H1462  1  0.286700  0.388400  0.865000  1.0
  H  H1463  1  0.735300  0.599700  0.096500  1.0
  H  H1464  1  0.264700  0.400300  0.903500  1.0
  H  H1465  1  0.615000  0.576200  0.092300  1.0
  H  H1466  1  0.385000  0.423800  0.907700  1.0
  H  H1467  1  0.592000  0.590300  0.129900  1.0
  H  H1468  1  0.408000  0.409700  0.870100  1.0
  H  H1469  1  0.684400  0.560300  0.064400  1.0
  H  H1470  1  0.315600  0.439700  0.935600  1.0
  H  H1471  1  0.723600  0.580300  0.062000  1.0
  H  H1472  1  0.276400  0.419700  0.938000  1.0
  H  H1473  1  0.673900  0.599300  0.050000  1.0
  H  H1474  1  0.326100  0.400700  0.950000  1.0
  H  H1475  1  0.588700  0.656100  0.226500  1.0
  H  H1476  1  0.411300  0.343900  0.773500  1.0
  H  H1477  1  0.714300  0.609700  0.255600  1.0
  H  H1478  1  0.285700  0.390300  0.744400  1.0
  H  H1479  1  0.727600  0.590200  0.219600  1.0
  H  H1480  1  0.272400  0.409800  0.780400  1.0
  H  H1481  1  0.701500  0.592300  0.175900  1.0
  H  H1482  1  0.298500  0.407700  0.824100  1.0
  H  H1483  1  0.580100  0.647000  0.274600  1.0
  H  H1484  1  0.419900  0.353000  0.725400  1.0
  H  H1485  1  0.708900  0.657500  0.267600  1.0
  H  H1486  1  0.291100  0.342500  0.732400  1.0
  H  H1487  1  0.697800  0.681200  0.301400  1.0
  H  H1488  1  0.302200  0.318800  0.698600  1.0
  H  H1489  1  0.642100  0.700000  0.334700  1.0
  H  H1490  1  0.357900  0.300000  0.665300  1.0
  H  H1491  1  0.503000  0.722600  0.353400  1.0
  H  H1492  1  0.497000  0.277400  0.646600  1.0
  H  H1493  1  0.487000  0.741200  0.389400  1.0
  H  H1494  1  0.513000  0.258800  0.610600  1.0
  H  H1495  1  0.620400  0.714100  0.409700  1.0
  H  H1496  1  0.379600  0.285900  0.590300  1.0
  H  H1497  1  0.636400  0.696700  0.372900  1.0
  H  H1498  1  0.363600  0.303300  0.627100  1.0
  H  H1499  1  0.565200  0.726600  0.441000  1.0
  H  H1500  1  0.434800  0.273400  0.559000  1.0
  H  H1501  1  0.512300  0.731300  0.435300  1.0
  H  H1502  1  0.487700  0.268700  0.564700  1.0
  H  H1503  1  0.536200  0.761900  0.424100  1.0
  H  H1504  1  0.463800  0.238100  0.575900  1.0
  H  H1505  1  0.189900  0.724000  0.395700  1.0
  H  H1506  1  0.810100  0.276000  0.604300  1.0
  H  H1507  1  0.114700  0.742800  0.406000  1.0
  H  H1508  1  0.885300  0.257200  0.594000  1.0
  H  H1509  1  0.153100  0.733200  0.479300  1.0
  H  H1510  1  0.846900  0.266800  0.520700  1.0
  H  H1511  1  0.229000  0.715700  0.469200  1.0
  H  H1512  1  0.771000  0.284300  0.530800  1.0
  H  H1513  1  0.060400  0.735600  0.449000  1.0
  H  H1514  1  0.939600  0.264400  0.551000  1.0
  H  H1515  1  0.065000  0.773100  0.436500  1.0
  H  H1516  1  0.935000  0.226900  0.563500  1.0
  H  H1517  1  0.076000  0.754400  0.467000  1.0
  H  H1518  1  0.924000  0.245600  0.533000  1.0
  H  H1519  1  0.291000  0.723900  0.446700  1.0
  H  H1520  1  0.709000  0.276100  0.553300  1.0
  H  H1521  1  0.373200  0.714800  0.453000  1.0
  H  H1522  1  0.626800  0.285200  0.547000  1.0
  H  H1523  1  0.446700  0.693700  0.440400  1.0
  H  H1524  1  0.553300  0.306300  0.559600  1.0
  H  H1525  1  0.391700  0.654100  0.394300  1.0
  H  H1526  1  0.608300  0.345900  0.605700  1.0
  H  H1527  1  0.454000  0.666900  0.371200  1.0
  H  H1528  1  0.546000  0.333100  0.628800  1.0
  H  H1529  1  0.503700  0.643500  0.444800  1.0
  H  H1530  1  0.496300  0.356500  0.555200  1.0
  H  H1531  1  0.574000  0.618100  0.431000  1.0
  H  H1532  1  0.426000  0.381900  0.569000  1.0
  H  H1533  1  0.621800  0.606500  0.391500  1.0
  H  H1534  1  0.378200  0.393500  0.608500  1.0
  H  H1535  1  0.615300  0.586900  0.320700  1.0
  H  H1536  1  0.384700  0.413100  0.679300  1.0
  H  H1537  1  0.686600  0.565600  0.306900  1.0
  H  H1538  1  0.313400  0.434400  0.693100  1.0
  H  H1539  1  0.745600  0.593700  0.358800  1.0
  H  H1540  1  0.254400  0.406300  0.641200  1.0
  H  H1541  1  0.674700  0.614100  0.373400  1.0
  H  H1542  1  0.325300  0.385900  0.626600  1.0
  H  H1543  1  0.789600  0.581800  0.322700  1.0
  H  H1544  1  0.210400  0.418200  0.677300  1.0
  H  H1545  1  0.767400  0.569200  0.302500  1.0
  H  H1546  1  0.232600  0.430800  0.697500  1.0
  H  H1547  1  0.782800  0.544600  0.331200  1.0
  H  H1548  1  0.217200  0.455400  0.668800  1.0
  H  H1549  1  0.549300  0.580200  0.353500  1.0
  H  H1550  1  0.450700  0.419800  0.646500  1.0
  H  H1551  1  0.556700  0.523100  0.366300  1.0
  H  H1552  1  0.443300  0.476900  0.633700  1.0
  H  H1553  1  0.469000  0.534700  0.308400  1.0
  H  H1554  1  0.531000  0.465300  0.691600  1.0
  H  H1555  1  0.460600  0.591700  0.295800  1.0
  H  H1556  1  0.539400  0.408300  0.704200  1.0
  H  H1557  1  0.537000  0.476300  0.336600  1.0
  H  H1558  1  0.463000  0.523700  0.663400  1.0
  H  H1559  1  0.484500  0.482900  0.344100  1.0
  H  H1560  1  0.515500  0.517100  0.655900  1.0
  H  H1561  1  0.523000  0.476400  0.365600  1.0
  H  H1562  1  0.477000  0.523600  0.634400  1.0
  H  H1563  1  0.436900  0.634200  0.299200  1.0
  H  H1564  1  0.563100  0.365800  0.700800  1.0
  H  H1565  1  0.387000  0.692300  0.277900  1.0
  H  H1566  1  0.613000  0.307700  0.722100  1.0
  H  H1567  1  0.384600  0.748900  0.260900  1.0
  H  H1568  1  0.615400  0.251100  0.739100  1.0
  H  H1569  1  0.499800  0.733200  0.302100  1.0
  H  H1570  1  0.500200  0.266800  0.697900  1.0
  H  H1571  1  0.478300  0.786100  0.297300  1.0
  H  H1572  1  0.521700  0.213900  0.702700  1.0
  H  H1573  1  0.407300  0.791000  0.234400  1.0
  H  H1574  1  0.592700  0.209000  0.765600  1.0
  H  H1575  1  0.407500  0.847300  0.217300  1.0
  H  H1576  1  0.592500  0.152700  0.782700  1.0
  H  H1577  1  0.432300  0.895900  0.221900  1.0
  H  H1578  1  0.567700  0.104100  0.778100  1.0
  H  H1579  1  0.410900  0.942600  0.215500  1.0
  H  H1580  1  0.589100  0.057400  0.784500  1.0
  H  H1581  1  0.414800  0.997500  0.195600  1.0
  H  H1582  1  0.585200  0.002500  0.804400  1.0
  H  H1583  1  0.524400  0.983900  0.241100  1.0
  H  H1584  1  0.475600  0.016100  0.758900  1.0
  H  H1585  1  0.520100  0.929200  0.261100  1.0
  H  H1586  1  0.479900  0.070800  0.738900  1.0
  H  H1587  1  0.575700  0.783900  0.278500  1.0
  H  H1588  1  0.424300  0.216100  0.721500  1.0
  H  H1589  1  0.647900  0.759800  0.268400  1.0
  H  H1590  1  0.352100  0.240200  0.731600  1.0
  H  H1591  1  0.699900  0.771800  0.331100  1.0
  H  H1592  1  0.300100  0.228200  0.668900  1.0
  H  H1593  1  0.627700  0.795300  0.341800  1.0
  H  H1594  1  0.372300  0.204700  0.658200  1.0
  H  H1595  1  0.749700  0.763400  0.292300  1.0
  H  H1596  1  0.250300  0.236600  0.707700  1.0
  H  H1597  1  0.729400  0.747000  0.274100  1.0
  H  H1598  1  0.270600  0.253000  0.725900  1.0
  H  H1599  1  0.740400  0.727000  0.304400  1.0
  H  H1600  1  0.259600  0.273000  0.695600  1.0
  H  H1601  1  0.562000  0.795500  0.352200  1.0
  H  H1602  1  0.438000  0.204500  0.647800  1.0
  H  H1603  1  0.512300  0.803900  0.389100  1.0
  H  H1604  1  0.487700  0.196100  0.610900  1.0
  H  H1605  1  0.441300  0.829000  0.401800  1.0
  H  H1606  1  0.558700  0.171000  0.598200  1.0
  H  H1607  1  0.401400  0.867600  0.326200  1.0
  H  H1608  1  0.598600  0.132400  0.673800  1.0
  H  H1609  1  0.329200  0.856800  0.349400  1.0
  H  H1610  1  0.670800  0.143200  0.650600  1.0
  H  H1611  1  0.394400  0.879900  0.402400  1.0
  H  H1612  1  0.605600  0.120100  0.597600  1.0
  H  H1613  1  0.324000  0.903400  0.416500  1.0
  H  H1614  1  0.676000  0.096600  0.583500  1.0
  H  H1615  1  0.240000  0.914600  0.413500  1.0
  H  H1616  1  0.760000  0.085400  0.586500  1.0
  H  H1617  1  0.147300  0.896500  0.434000  1.0
  H  H1618  1  0.852700  0.103500  0.566000  1.0
  H  H1619  1  0.068600  0.912200  0.429800  1.0
  H  H1620  1  0.931400  0.087800  0.570200  1.0
  H  H1621  1  0.073400  0.950800  0.351200  1.0
  H  H1622  1  0.926600  0.049200  0.648800  1.0
  H  H1623  1  0.152300  0.935500  0.355400  1.0
  H  H1624  1  0.847700  0.064500  0.644600  1.0
  H  H1625  1  0.999300  0.957000  0.397200  1.0
  H  H1626  1  0.000700  0.043000  0.602800  1.0
  H  H1627  1  0.999500  0.921900  0.393900  1.0
  H  H1628  1  0.000500  0.078100  0.606100  1.0
  H  H1629  1  0.003800  0.952500  0.368700  1.0
  H  H1630  1  0.996200  0.047500  0.631300  1.0
  H  H1631  1  0.623400  0.715200  0.187700  1.0
  H  H1632  1  0.376600  0.284800  0.812300  1.0
  H  H1633  1  0.674000  0.722500  0.215300  1.0
  H  H1634  1  0.326000  0.277500  0.784700  1.0
  H  H1635  1  0.778100  0.674500  0.182200  1.0
  H  H1636  1  0.221900  0.325500  0.817800  1.0
  H  H1637  1  0.728000  0.667600  0.154000  1.0
  H  H1638  1  0.272000  0.332400  0.846000  1.0
  H  H1639  1  0.789000  0.685500  0.224400  1.0
  H  H1640  1  0.211000  0.314500  0.775600  1.0
  H  H1641  1  0.749000  0.710500  0.233300  1.0
  H  H1642  1  0.251000  0.289500  0.766700  1.0
  H  H1643  1  0.777900  0.724000  0.208100  1.0
  H  H1644  1  0.222100  0.276000  0.791900  1.0
  H  H1645  1  0.463100  0.692700  0.077800  1.0
  H  H1646  1  0.536900  0.307300  0.922200  1.0
  H  H1647  1  0.561700  0.668900  0.029500  1.0
  H  H1648  1  0.438300  0.331100  0.970500  1.0
  H  H1649  1  0.505900  0.673800  0.998900  1.0
  H  H1650  1  0.494100  0.326200  0.001100  1.0
  H  H1651  1  0.420200  0.679600  0.990800  1.0
  H  H1652  1  0.579800  0.320400  0.009200  1.0
  H  H1653  1  0.291100  0.673900  0.024700  1.0
  H  H1654  1  0.708900  0.326100  0.975300  1.0
  H  H1655  1  0.239300  0.672300  0.995100  1.0
  H  H1656  1  0.760700  0.327700  0.004900  1.0
  H  H1657  1  0.330100  0.688100  0.938000  1.0
  H  H1658  1  0.669900  0.311900  0.062000  1.0
  H  H1659  1  0.382700  0.689700  0.967100  1.0
  H  H1660  1  0.617300  0.310300  0.032900  1.0
  H  H1661  1  0.228300  0.703900  0.935000  1.0
  H  H1662  1  0.771700  0.296100  0.065000  1.0
  H  H1663  1  0.223700  0.667400  0.952000  1.0
  H  H1664  1  0.776300  0.332600  0.048000  1.0
  H  H1665  1  0.261200  0.672300  0.929800  1.0
  H  H1666  1  0.738800  0.327700  0.070200  1.0
  H  H1667  1  0.519000  0.665600  0.109500  1.0
  H  H1668  1  0.481000  0.334400  0.890500  1.0
  H  H1669  1  0.597800  0.695300  0.047800  1.0
  H  H1670  1  0.402200  0.304700  0.952200  1.0
  H  H1671  1  0.649500  0.700200  0.076900  1.0
  H  H1672  1  0.350500  0.299800  0.923100  1.0
  H  H1673  1  0.669700  0.694600  0.120500  1.0
  H  H1674  1  0.330300  0.305400  0.879500  1.0
  H  H1675  1  0.499300  0.035900  0.210100  0.5
  H  H1676  1  0.500700  0.964100  0.789900  0.5
  H  H1677  1  0.445500  0.046300  0.205000  0.5
  H  H1678  1  0.554500  0.953700  0.795000  0.5
  H  H1679  1  0.478300  0.034700  0.183800  0.5
  H  H1680  1  0.521700  0.965300  0.816200  0.5
  H  H1681  1  0.449400  0.042000  0.189200  0.5
  H  H1682  1  0.550600  0.958000  0.810800  0.5
  H  H1683  1  0.503300  0.031600  0.194300  0.5
  H  H1684  1  0.496700  0.968400  0.805700  0.5
  H  H1685  1  0.470400  0.043200  0.215500  0.5
  H  H1686  1  0.529600  0.956800  0.784500  0.5
  C  C1687  1  0.858200  0.214700  0.194500  1.0
  C  C1688  1  0.141800  0.785300  0.805500  1.0
  C  C1689  1  0.324400  0.257400  0.032200  1.0
  C  C1690  1  0.675600  0.742600  0.967800  1.0
  C  C1691  1  0.240400  0.250800  0.087300  1.0
  C  C1692  1  0.759600  0.749200  0.912700  1.0
  C  C1693  1  0.280300  0.253700  0.073700  1.0
  C  C1694  1  0.719700  0.746300  0.926300  1.0
  C  C1695  1  0.282100  0.253500  0.047900  1.0
  C  C1696  1  0.717900  0.746500  0.952100  1.0
  C  C1697  1  0.244100  0.250100  0.036500  1.0
  C  C1698  1  0.755900  0.749900  0.963500  1.0
  C  C1699  1  0.204300  0.247100  0.050200  1.0
  C  C1700  1  0.795700  0.752900  0.949800  1.0
  C  C1701  1  0.202100  0.247200  0.076100  1.0
  C  C1702  1  0.797900  0.752800  0.923900  1.0
  C  C1703  1  0.720700  0.195800  0.292500  1.0
  C  C1704  1  0.279300  0.804200  0.707500  1.0
  C  C1705  1  0.785200  0.222400  0.230100  1.0
  C  C1706  1  0.214800  0.777600  0.769900  1.0
  C  C1707  1  0.751000  0.219500  0.248300  1.0
  C  C1708  1  0.249000  0.780500  0.751700  1.0
  C  C1709  1  0.759800  0.198600  0.273700  1.0
  C  C1710  1  0.240200  0.801400  0.726300  1.0
  C  C1711  1  0.803900  0.181000  0.280700  1.0
  C  C1712  1  0.196100  0.819000  0.719300  1.0
  C  C1713  1  0.838800  0.184400  0.262900  1.0
  C  C1714  1  0.161200  0.815600  0.737100  1.0
  C  C1715  1  0.829600  0.204700  0.237500  1.0
  C  C1716  1  0.170400  0.795300  0.762500  1.0
  C  C1717  1  0.123100  0.253400  0.082200  1.0
  C  C1718  1  0.876900  0.746600  0.917800  1.0
  C  C1719  1  0.002800  0.256000  0.100800  1.0
  C  C1720  1  0.997200  0.744000  0.899200  1.0
  C  C1721  1  0.039300  0.261500  0.085000  1.0
  C  C1722  1  0.960700  0.738500  0.915000  1.0
  C  C1723  1  0.082200  0.247300  0.096700  1.0
  C  C1724  1  0.917800  0.752700  0.903300  1.0
  C  C1725  1  0.895100  0.220900  0.175900  1.0
  C  C1726  1  0.104900  0.779100  0.824100  1.0
  C  C1727  1  0.891800  0.223300  0.149600  1.0
  C  C1728  1  0.108200  0.776700  0.850400  1.0
  C  C1729  1  0.927900  0.229100  0.133400  1.0
  C  C1730  1  0.072100  0.770900  0.866600  1.0
  C  C1731  1  0.968000  0.231900  0.143400  1.0
  C  C1732  1  0.032000  0.768100  0.856600  1.0
  C  C1733  1  0.968500  0.229400  0.169700  1.0
  C  C1734  1  0.031500  0.770600  0.830300  1.0
  C  C1735  1  0.008600  0.236500  0.127000  1.0
  C  C1736  1  0.991400  0.763500  0.873000  1.0
  C  C1737  1  0.052800  0.222600  0.136800  1.0
  C  C1738  1  0.947200  0.777400  0.863200  1.0
  C  C1739  1  0.921100  0.153800  0.409300  1.0
  C  C1740  1  0.078900  0.846200  0.590700  1.0
  C  C1741  1  0.904200  0.174600  0.382900  1.0
  C  C1742  1  0.095800  0.825400  0.617100  1.0
  C  C1743  1  0.859200  0.178900  0.375700  1.0
  C  C1744  1  0.140800  0.821100  0.624300  1.0
  C  C1745  1  0.875500  0.214300  0.333800  1.0
  C  C1746  1  0.124500  0.785700  0.666200  1.0
  C  C1747  1  0.919300  0.209100  0.343200  1.0
  C  C1748  1  0.080700  0.790900  0.656800  1.0
  C  C1749  1  0.864500  0.233100  0.306200  1.0
  C  C1750  1  0.135500  0.766900  0.693800  1.0
  C  C1751  1  0.895000  0.228800  0.286600  1.0
  C  C1752  1  0.105000  0.771200  0.713400  1.0
  C  C1753  1  0.848000  0.269400  0.254500  1.0
  C  C1754  1  0.152000  0.730600  0.745500  1.0
  C  C1755  1  0.815200  0.274600  0.272700  1.0
  C  C1756  1  0.184800  0.725400  0.727300  1.0
  C  C1757  1  0.823900  0.256200  0.298700  1.0
  C  C1758  1  0.176100  0.743800  0.701300  1.0
  C  C1759  1  0.840800  0.287600  0.226500  1.0
  C  C1760  1  0.159200  0.712400  0.773500  1.0
  C  C1761  1  0.982100  0.131700  0.441100  1.0
  C  C1762  1  0.017900  0.868300  0.558900  1.0
  C  C1763  1  0.028500  0.118400  0.442400  1.0
  C  C1764  1  0.971500  0.881600  0.557600  1.0
  C  C1765  1  0.048000  0.097400  0.466100  1.0
  C  C1766  1  0.952000  0.902600  0.533900  1.0
  C  C1767  1  0.023000  0.090000  0.488800  1.0
  C  C1768  1  0.977000  0.910000  0.511200  1.0
  C  C1769  1  0.977200  0.104200  0.486700  1.0
  C  C1770  1  0.022800  0.895800  0.513300  1.0
  C  C1771  1  0.956000  0.124800  0.463300  1.0
  C  C1772  1  0.044000  0.875200  0.536700  1.0
  C  C1773  1  0.049500  0.067600  0.513300  1.0
  C  C1774  1  0.950500  0.932400  0.486700  1.0
  C  C1775  1  0.861500  0.298200  0.182800  1.0
  C  C1776  1  0.138500  0.701800  0.817200  1.0
  C  C1777  1  0.817300  0.305600  0.172900  1.0
  C  C1778  1  0.182700  0.694400  0.827100  1.0
  C  C1779  1  0.811900  0.318100  0.146000  1.0
  C  C1780  1  0.188100  0.681900  0.854000  1.0
  C  C1781  1  0.846900  0.323300  0.128800  1.0
  C  C1782  1  0.153100  0.676700  0.871200  1.0
  C  C1783  1  0.890600  0.315900  0.139000  1.0
  C  C1784  1  0.109400  0.684100  0.861000  1.0
  C  C1785  1  0.897200  0.303800  0.166000  1.0
  C  C1786  1  0.102800  0.696200  0.834000  1.0
  C  C1787  1  0.840400  0.337100  0.099300  1.0
  C  C1788  1  0.159600  0.662900  0.900700  1.0
  C  C1789  1  0.844800  0.199200  0.350800  1.0
  C  C1790  1  0.155200  0.800800  0.649200  1.0
  C  C1791  1  0.190500  0.448900  0.019900  1.0
  C  C1792  1  0.809500  0.551100  0.980100  1.0
  C  C1793  1  0.224600  0.426000  0.013500  1.0
  C  C1794  1  0.775400  0.574000  0.986500  1.0
  C  C1795  1  0.260300  0.436200  0.998700  1.0
  C  C1796  1  0.739700  0.563800  0.001300  1.0
  C  C1797  1  0.264400  0.468700  0.990400  1.0
  C  C1798  1  0.735600  0.531300  0.009600  1.0
  C  C1799  1  0.230200  0.491500  0.997200  1.0
  C  C1800  1  0.769800  0.508500  0.002800  1.0
  C  C1801  1  0.193700  0.482000  0.011600  1.0
  C  C1802  1  0.806300  0.518000  0.988400  1.0
  C  C1803  1  0.305900  0.478200  0.975500  1.0
  C  C1804  1  0.694100  0.521800  0.024500  1.0
  C  C1805  1  0.114500  0.453500  0.032400  1.0
  C  C1806  1  0.885500  0.546500  0.967600  1.0
  C  C1807  1  0.075700  0.446700  0.048900  1.0
  C  C1808  1  0.924300  0.553300  0.951100  1.0
  C  C1809  1  0.031700  0.462100  0.039900  1.0
  C  C1810  1  0.968300  0.537900  0.960100  1.0
  C  C1811  1  0.997000  0.452200  0.055900  1.0
  C  C1812  1  0.003000  0.547800  0.944100  1.0
  C  C1813  1  0.008000  0.428800  0.080400  1.0
  C  C1814  1  0.992000  0.571200  0.919600  1.0
  C  C1815  1  0.053800  0.415500  0.086800  1.0
  C  C1816  1  0.946200  0.584500  0.913200  1.0
  C  C1817  1  0.973000  0.421900  0.124300  1.0
  C  C1818  1  0.027000  0.578100  0.875700  1.0
  C  C1819  1  0.971800  0.420100  0.099100  1.0
  C  C1820  1  0.028200  0.579900  0.900900  1.0
  C  C1821  1  0.936300  0.408400  0.092800  1.0
  C  C1822  1  0.063700  0.591600  0.907200  1.0
  C  C1823  1  0.905400  0.398500  0.111700  1.0
  C  C1824  1  0.094600  0.601500  0.888300  1.0
  C  C1825  1  0.909200  0.401100  0.136400  1.0
  C  C1826  1  0.090800  0.598900  0.863600  1.0
  C  C1827  1  0.875700  0.390900  0.156400  1.0
  C  C1828  1  0.124300  0.609100  0.843600  1.0
  C  C1829  1  0.846700  0.384000  0.198400  1.0
  C  C1830  1  0.153300  0.616000  0.801600  1.0
  C  C1831  1  0.859400  0.365300  0.224000  1.0
  C  C1832  1  0.140600  0.634700  0.776000  1.0
  C  C1833  1  0.826700  0.359400  0.242900  1.0
  C  C1834  1  0.173300  0.640600  0.757100  1.0
  C  C1835  1  0.781000  0.371800  0.236300  1.0
  C  C1836  1  0.219000  0.628200  0.763700  1.0
  C  C1837  1  0.769400  0.389500  0.210500  1.0
  C  C1838  1  0.230600  0.610500  0.789500  1.0
  C  C1839  1  0.801000  0.396100  0.191200  1.0
  C  C1840  1  0.199000  0.603900  0.808800  1.0
  C  C1841  1  0.743900  0.367500  0.256100  1.0
  C  C1842  1  0.256100  0.632500  0.743900  1.0
  C  C1843  1  0.505700  0.402900  0.152000  1.0
  C  C1844  1  0.494300  0.597100  0.848000  1.0
  C  C1845  1  0.548300  0.396400  0.141400  1.0
  C  C1846  1  0.451700  0.603600  0.858600  1.0
  C  C1847  1  0.584600  0.402600  0.152300  1.0
  C  C1848  1  0.415400  0.597400  0.847700  1.0
  C  C1849  1  0.579800  0.414700  0.173400  1.0
  C  C1850  1  0.420200  0.585300  0.826600  1.0
  C  C1851  1  0.536700  0.421500  0.183600  1.0
  C  C1852  1  0.463300  0.578500  0.816400  1.0
  C  C1853  1  0.500000  0.415900  0.172700  1.0
  C  C1854  1  0.500000  0.584100  0.827300  1.0
  C  C1855  1  0.619000  0.420800  0.186100  1.0
  C  C1856  1  0.381000  0.579200  0.813900  1.0
  C  C1857  1  0.468400  0.397600  0.117100  1.0
  C  C1858  1  0.531600  0.602400  0.882900  1.0
  C  C1859  1  0.429400  0.391300  0.106000  1.0
  C  C1860  1  0.570600  0.608700  0.894000  1.0
  C  C1861  1  0.428700  0.393200  0.079800  1.0
  C  C1862  1  0.571300  0.606800  0.920200  1.0
  C  C1863  1  0.391900  0.385300  0.071100  1.0
  C  C1864  1  0.608100  0.614700  0.928900  1.0
  C  C1865  1  0.356800  0.376300  0.087700  1.0
  C  C1866  1  0.643200  0.623700  0.912300  1.0
  C  C1867  1  0.360900  0.376100  0.113300  1.0
  C  C1868  1  0.639100  0.623900  0.886700  1.0
  C  C1869  1  0.273300  0.378700  0.084400  1.0
  C  C1870  1  0.726700  0.621300  0.915600  1.0
  C  C1871  1  0.317900  0.365800  0.079100  1.0
  C  C1872  1  0.682100  0.634200  0.920900  1.0
  C  C1873  1  0.324100  0.342800  0.065800  1.0
  C  C1874  1  0.675900  0.657200  0.934200  1.0
  C  C1875  1  0.287400  0.333100  0.059000  1.0
  C  C1876  1  0.712600  0.666900  0.941000  1.0
  C  C1877  1  0.244100  0.347200  0.065300  1.0
  C  C1878  1  0.755900  0.652800  0.934700  1.0
  C  C1879  1  0.202700  0.339400  0.058300  1.0
  C  C1880  1  0.797300  0.660600  0.941700  1.0
  C  C1881  1  0.125600  0.343500  0.056000  1.0
  C  C1882  1  0.874400  0.656500  0.944000  1.0
  C  C1883  1  0.086400  0.345800  0.070400  1.0
  C  C1884  1  0.913600  0.654200  0.929600  1.0
  C  C1885  1  0.045500  0.344000  0.061100  1.0
  C  C1886  1  0.954500  0.656000  0.938900  1.0
  C  C1887  1  0.043700  0.338500  0.037100  1.0
  C  C1888  1  0.956300  0.661500  0.962900  1.0
  C  C1889  1  0.084200  0.333900  0.024000  1.0
  C  C1890  1  0.915800  0.666100  0.976000  1.0
  C  C1891  1  0.125300  0.336100  0.032800  1.0
  C  C1892  1  0.874700  0.663900  0.967200  1.0
  C  C1893  1  0.999500  0.337700  0.025800  1.0
  C  C1894  1  0.000500  0.662300  0.974200  1.0
  C  C1895  1  0.237500  0.108700  0.519700  1.0
  C  C1896  1  0.762500  0.891300  0.480300  1.0
  C  C1897  1  0.194000  0.123900  0.505500  1.0
  C  C1898  1  0.806000  0.876100  0.494500  1.0
  C  C1899  1  0.153900  0.116700  0.517100  1.0
  C  C1900  1  0.846100  0.883300  0.482900  1.0
  C  C1901  1  0.113800  0.158800  0.479100  1.0
  C  C1902  1  0.886200  0.841200  0.520900  1.0
  C  C1903  1  0.156100  0.163000  0.469100  1.0
  C  C1904  1  0.843900  0.837000  0.530900  1.0
  C  C1905  1  0.070200  0.178200  0.465300  1.0
  C  C1906  1  0.929800  0.821800  0.534700  1.0
  C  C1907  1  0.062700  0.180100  0.439400  1.0
  C  C1908  1  0.937300  0.819900  0.560600  1.0
  C  C1909  1  0.992400  0.215400  0.439000  1.0
  C  C1910  1  0.007600  0.784600  0.561000  1.0
  C  C1911  1  0.997000  0.215300  0.464600  1.0
  C  C1912  1  0.003000  0.784700  0.535400  1.0
  C  C1913  1  0.036600  0.195500  0.477400  1.0
  C  C1914  1  0.963400  0.804500  0.522600  1.0
  C  C1915  1  0.951000  0.234000  0.423700  1.0
  C  C1916  1  0.049000  0.766000  0.576300  1.0
  C  C1917  1  0.316000  0.098700  0.527200  1.0
  C  C1918  1  0.684000  0.901300  0.472800  1.0
  C  C1919  1  0.352500  0.113400  0.525900  1.0
  C  C1920  1  0.647500  0.886600  0.474100  1.0
  C  C1921  1  0.392700  0.095300  0.539300  1.0
  C  C1922  1  0.607300  0.904700  0.460700  1.0
  C  C1923  1  0.397700  0.062300  0.553500  1.0
  C  C1924  1  0.602300  0.937700  0.446500  1.0
  C  C1925  1  0.361300  0.047600  0.554000  1.0
  C  C1926  1  0.638700  0.952400  0.446000  1.0
  C  C1927  1  0.320400  0.065400  0.541300  1.0
  C  C1928  1  0.679600  0.934600  0.458700  1.0
  C  C1929  1  0.441000  0.041700  0.568300  1.0
  C  C1930  1  0.559000  0.958300  0.431700  1.0
  C  C1931  1  0.900700  0.252300  0.388800  1.0
  C  C1932  1  0.099300  0.747700  0.611200  1.0
  C  C1933  1  0.860700  0.251500  0.402800  1.0
  C  C1934  1  0.139300  0.748500  0.597200  1.0
  C  C1935  1  0.820000  0.268800  0.389800  1.0
  C  C1936  1  0.180000  0.731200  0.610200  1.0
  C  C1937  1  0.816500  0.287100  0.363500  1.0
  C  C1938  1  0.183500  0.712900  0.636500  1.0
  C  C1939  1  0.856900  0.288100  0.350000  1.0
  C  C1940  1  0.143100  0.711900  0.650000  1.0
  C  C1941  1  0.897900  0.270700  0.362700  1.0
  C  C1942  1  0.102100  0.729300  0.637300  1.0
  C  C1943  1  0.772300  0.304900  0.348800  1.0
  C  C1944  1  0.227700  0.695100  0.651200  1.0
  C  C1945  1  0.114200  0.135100  0.503400  1.0
  C  C1946  1  0.885800  0.864900  0.496600  1.0
  C  C1947  1  0.518800  0.218100  0.187300  1.0
  C  C1948  1  0.481200  0.781900  0.812700  1.0
  C  C1949  1  0.557700  0.215000  0.172900  1.0
  C  C1950  1  0.442300  0.785000  0.827100  1.0
  C  C1951  1  0.597900  0.220200  0.180200  1.0
  C  C1952  1  0.402100  0.779800  0.819800  1.0
  C  C1953  1  0.598300  0.229200  0.202500  1.0
  C  C1954  1  0.401700  0.770800  0.797500  1.0
  C  C1955  1  0.558700  0.233300  0.216200  1.0
  C  C1956  1  0.441300  0.766700  0.783800  1.0
  C  C1957  1  0.518000  0.228500  0.209300  1.0
  C  C1958  1  0.482000  0.771500  0.790700  1.0
  C  C1959  1  0.641500  0.234800  0.211400  1.0
  C  C1960  1  0.358500  0.765200  0.788600  1.0
  C  C1961  1  0.470900  0.212400  0.155700  1.0
  C  C1962  1  0.529100  0.787600  0.844300  1.0
  C  C1963  1  0.431700  0.201600  0.149100  1.0
  C  C1964  1  0.568300  0.798400  0.850900  1.0
  C  C1965  1  0.421900  0.207400  0.122900  1.0
  C  C1966  1  0.578100  0.792600  0.877100  1.0
  C  C1967  1  0.385000  0.198000  0.116000  1.0
  C  C1968  1  0.615000  0.802000  0.884000  1.0
  C  C1969  1  0.357400  0.183200  0.135500  1.0
  C  C1970  1  0.642600  0.816800  0.864500  1.0
  C  C1971  1  0.370300  0.178800  0.161000  1.0
  C  C1972  1  0.629700  0.821200  0.839000  1.0
  C  C1973  1  0.274200  0.181300  0.137200  1.0
  C  C1974  1  0.725800  0.818700  0.862800  1.0
  C  C1975  1  0.317600  0.172800  0.128200  1.0
  C  C1976  1  0.682400  0.827200  0.871800  1.0
  C  C1977  1  0.322400  0.156000  0.109900  1.0
  C  C1978  1  0.677600  0.844000  0.890100  1.0
  C  C1979  1  0.284900  0.149200  0.101100  1.0
  C  C1980  1  0.715100  0.850800  0.898900  1.0
  C  C1981  1  0.243000  0.160700  0.110800  1.0
  C  C1982  1  0.757000  0.839300  0.889200  1.0
  C  C1983  1  0.201900  0.156200  0.100300  1.0
  C  C1984  1  0.798100  0.843800  0.899700  1.0
  C  C1985  1  0.125200  0.165100  0.095500  1.0
  C  C1986  1  0.874800  0.834900  0.904500  1.0
  C  C1987  1  0.084300  0.161800  0.107600  1.0
  C  C1988  1  0.915700  0.838200  0.892400  1.0
  C  C1989  1  0.048500  0.160300  0.093400  1.0
  C  C1990  1  0.951500  0.839700  0.906600  1.0
  C  C1991  1  0.050900  0.162600  0.067200  1.0
  C  C1992  1  0.949100  0.837400  0.932800  1.0
  C  C1993  1  0.091900  0.166200  0.055200  1.0
  C  C1994  1  0.908100  0.833800  0.944800  1.0
  C  C1995  1  0.128500  0.167400  0.069100  1.0
  C  C1996  1  0.871500  0.832600  0.930900  1.0
  C  C1997  1  0.010700  0.161700  0.052100  1.0
  C  C1998  1  0.989300  0.838300  0.947900  1.0
  C  C1999  1  0.489000  0.403000  0.362500  1.0
  C  C2000  1  0.511000  0.597000  0.637500  1.0
  C  C2001  1  0.449400  0.413800  0.374200  1.0
  C  C2002  1  0.550600  0.586200  0.625800  1.0
  C  C2003  1  0.451500  0.420400  0.397600  1.0
  C  C2004  1  0.548500  0.579600  0.602400  1.0
  C  C2005  1  0.492500  0.415100  0.410400  1.0
  C  C2006  1  0.507500  0.584900  0.589600  1.0
  C  C2007  1  0.531900  0.403600  0.398900  1.0
  C  C2008  1  0.468100  0.596400  0.601100  1.0
  C  C2009  1  0.530200  0.397900  0.375200  1.0
  C  C2010  1  0.469800  0.602100  0.624800  1.0
  C  C2011  1  0.493800  0.421500  0.436400  1.0
  C  C2012  1  0.506200  0.578500  0.563600  1.0
  C  C2013  1  0.519400  0.397400  0.322300  1.0
  C  C2014  1  0.480600  0.602600  0.677700  1.0
  C  C2015  1  0.520300  0.389500  0.297700  1.0
  C  C2016  1  0.479700  0.610500  0.702300  1.0
  C  C2017  1  0.554900  0.392400  0.279700  1.0
  C  C2018  1  0.445100  0.607600  0.720300  1.0
  C  C2019  1  0.553900  0.381500  0.258300  1.0
  C  C2020  1  0.446100  0.618500  0.741700  1.0
  C  C2021  1  0.517500  0.368000  0.255500  1.0
  C  C2022  1  0.482500  0.632000  0.744500  1.0
  C  C2023  1  0.482900  0.368000  0.273700  1.0
  C  C2024  1  0.517100  0.632000  0.726300  1.0
  C  C2025  1  0.477700  0.357500  0.220700  1.0
  C  C2026  1  0.522300  0.642500  0.779300  1.0
  C  C2027  1  0.517300  0.352900  0.234500  1.0
  C  C2028  1  0.482700  0.647100  0.765500  1.0
  C  C2029  1  0.555600  0.333600  0.227200  1.0
  C  C2030  1  0.444400  0.666400  0.772800  1.0
  C  C2031  1  0.552500  0.320500  0.207300  1.0
  C  C2032  1  0.447500  0.679500  0.792700  1.0
  C  C2033  1  0.510800  0.327400  0.194500  1.0
  C  C2034  1  0.489200  0.672600  0.805500  1.0
  C  C2035  1  0.506900  0.315100  0.172500  1.0
  C  C2036  1  0.493100  0.684900  0.827500  1.0
  C  C2037  1  0.470300  0.309300  0.138000  1.0
  C  C2038  1  0.529700  0.690700  0.862000  1.0
  C  C2039  1  0.431200  0.302200  0.131100  1.0
  C  C2040  1  0.568800  0.697800  0.868900  1.0
  C  C2041  1  0.428100  0.293700  0.108700  1.0
  C  C2042  1  0.571900  0.706300  0.891300  1.0
  C  C2043  1  0.464800  0.291400  0.092300  1.0
  C  C2044  1  0.535200  0.708600  0.907700  1.0
  C  C2045  1  0.504400  0.297100  0.100000  1.0
  C  C2046  1  0.495600  0.702900  0.900000  1.0
  C  C2047  1  0.507800  0.305800  0.122300  1.0
  C  C2048  1  0.492200  0.694200  0.877700  1.0
  C  C2049  1  0.459700  0.283500  0.067300  1.0
  C  C2050  1  0.540300  0.716500  0.932700  1.0
  C  C2051  1  0.168800  0.465500  0.094000  1.0
  C  C2052  1  0.831200  0.534500  0.906000  1.0
  C  C2053  1  0.144100  0.488300  0.105000  1.0
  C  C2054  1  0.855900  0.511700  0.895000  1.0
  C  C2055  1  0.145300  0.521300  0.094400  1.0
  C  C2056  1  0.854700  0.478700  0.905600  1.0
  C  C2057  1  0.170900  0.532600  0.073000  1.0
  C  C2058  1  0.829100  0.467400  0.927000  1.0
  C  C2059  1  0.196900  0.509500  0.062500  1.0
  C  C2060  1  0.803100  0.490500  0.937500  1.0
  C  C2061  1  0.196400  0.476400  0.072900  1.0
  C  C2062  1  0.803600  0.523600  0.927100  1.0
  C  C2063  1  0.171300  0.568700  0.060400  1.0
  C  C2064  1  0.828700  0.431300  0.939600  1.0
  C  C2065  1  0.172900  0.417800  0.129400  1.0
  C  C2066  1  0.827100  0.582200  0.870600  1.0
  C  C2067  1  0.170900  0.383100  0.141000  1.0
  C  C2068  1  0.829100  0.616900  0.859000  1.0
  C  C2069  1  0.181500  0.366400  0.167300  1.0
  C  C2070  1  0.818500  0.633600  0.832700  1.0
  C  C2071  1  0.181500  0.333333  0.175900  1.0
  C  C2072  1  0.818500  0.666667  0.824100  1.0
  C  C2073  1  0.169700  0.316900  0.159900  1.0
  C  C2074  1  0.830300  0.683100  0.840100  1.0
  C  C2075  1  0.158400  0.336700  0.134400  1.0
  C  C2076  1  0.841600  0.663300  0.865600  1.0
  C  C2077  1  0.169700  0.262800  0.152900  1.0
  C  C2078  1  0.830300  0.737200  0.847100  1.0
  C  C2079  1  0.167700  0.281500  0.169800  1.0
  C  C2080  1  0.832300  0.718500  0.830200  1.0
  C  C2081  1  0.163200  0.265400  0.196300  1.0
  C  C2082  1  0.836800  0.734600  0.803700  1.0
  C  C2083  1  0.161200  0.232500  0.205000  1.0
  C  C2084  1  0.838800  0.767500  0.795000  1.0
  C  C2085  1  0.163300  0.215800  0.186700  1.0
  C  C2086  1  0.836700  0.784200  0.813300  1.0
  C  C2087  1  0.161000  0.180900  0.194300  1.0
  C  C2088  1  0.839000  0.819100  0.805700  1.0
  C  C2089  1  0.161600  0.131800  0.185800  1.0
  C  C2090  1  0.838400  0.868200  0.814200  1.0
  C  C2091  1  0.137700  0.118300  0.172200  1.0
  C  C2092  1  0.862300  0.881700  0.827800  1.0
  C  C2093  1  0.143100  0.084300  0.180100  1.0
  C  C2094  1  0.856900  0.915700  0.819900  1.0
  C  C2095  1  0.170400  0.064300  0.201500  1.0
  C  C2096  1  0.829600  0.935700  0.798500  1.0
  C  C2097  1  0.194800  0.077900  0.214700  1.0
  C  C2098  1  0.805200  0.922100  0.785300  1.0
  C  C2099  1  0.189900  0.111800  0.206800  1.0
  C  C2100  1  0.810100  0.888200  0.793200  1.0
  C  C2101  1  0.171400  0.027700  0.211800  1.0
  C  C2102  1  0.828600  0.972300  0.788200  1.0
  C  C2103  1  0.353200  0.439100  0.172700  1.0
  C  C2104  1  0.646800  0.560900  0.827300  1.0
  C  C2105  1  0.320400  0.455700  0.185800  1.0
  C  C2106  1  0.679600  0.544300  0.814200  1.0
  C  C2107  1  0.317400  0.489300  0.180300  1.0
  C  C2108  1  0.682600  0.510700  0.819700  1.0
  C  C2109  1  0.344900  0.506100  0.162200  1.0
  C  C2110  1  0.655100  0.493900  0.837800  1.0
  C  C2111  1  0.377000  0.488900  0.149300  1.0
  C  C2112  1  0.623000  0.511100  0.850700  1.0
  C  C2113  1  0.381700  0.455300  0.154700  1.0
  C  C2114  1  0.618300  0.544700  0.845300  1.0
  C  C2115  1  0.341700  0.542600  0.156600  1.0
  C  C2116  1  0.658300  0.457400  0.843400  1.0
  C  C2117  1  0.324600  0.391300  0.186500  1.0
  C  C2118  1  0.675400  0.608700  0.813500  1.0
  C  C2119  1  0.325800  0.355900  0.194300  1.0
  C  C2120  1  0.674200  0.644100  0.805700  1.0
  C  C2121  1  0.290400  0.342500  0.207200  1.0
  C  C2122  1  0.709600  0.657500  0.792800  1.0
  C  C2123  1  0.299300  0.308400  0.217000  1.0
  C  C2124  1  0.700700  0.691600  0.783000  1.0
  C  C2125  1  0.341400  0.289200  0.214000  1.0
  C  C2126  1  0.658600  0.710800  0.786000  1.0
  C  C2127  1  0.373600  0.305000  0.199600  1.0
  C  C2128  1  0.626400  0.695000  0.800400  1.0
  C  C2129  1  0.383600  0.232700  0.216100  1.0
  C  C2130  1  0.616400  0.767300  0.783900  1.0
  C  C2131  1  0.354400  0.253700  0.227500  1.0
  C  C2132  1  0.645600  0.746300  0.772500  1.0
  C  C2133  1  0.337100  0.240100  0.251800  1.0
  C  C2134  1  0.662900  0.759900  0.748200  1.0
  C  C2135  1  0.348100  0.206700  0.264900  1.0
  C  C2136  1  0.651900  0.793300  0.735100  1.0
  C  C2137  1  0.376900  0.187300  0.252100  1.0
  C  C2138  1  0.623100  0.812700  0.747900  1.0
  C  C2139  1  0.392100  0.151300  0.264000  1.0
  C  C2140  1  0.607900  0.848700  0.736000  1.0
  C  C2141  1  0.431900  0.099400  0.264500  1.0
  C  C2142  1  0.568100  0.900600  0.735500  1.0
  C  C2143  1  0.404800  0.081000  0.281600  1.0
  C  C2144  1  0.595200  0.919000  0.718400  1.0
  C  C2145  1  0.422400  0.047200  0.292200  1.0
  C  C2146  1  0.577600  0.952800  0.707800  1.0
  C  C2147  1  0.465100  0.032100  0.286000  1.0
  C  C2148  1  0.534900  0.967900  0.714000  1.0
  C  C2149  1  0.491800  0.051100  0.269200  1.0
  C  C2150  1  0.508200  0.948900  0.730800  1.0
  C  C2151  1  0.475100  0.084600  0.258500  1.0
  C  C2152  1  0.524900  0.915400  0.741500  1.0
  C  C2153  1  0.483800  0.995200  0.296300  1.0
  C  C2154  1  0.516200  0.004800  0.703700  1.0
  C  C2155  1  0.974500  0.155300  0.263300  1.0
  C  C2156  1  0.025500  0.844700  0.736700  1.0
  C  C2157  1  0.951600  0.141800  0.249400  1.0
  C  C2158  1  0.048400  0.858200  0.750600  1.0
  C  C2159  1  0.944600  0.110000  0.260400  1.0
  C  C2160  1  0.055400  0.890000  0.739600  1.0
  C  C2161  1  0.959100  0.091100  0.285600  1.0
  C  C2162  1  0.040900  0.908900  0.714400  1.0
  C  C2163  1  0.980400  0.105300  0.299800  1.0
  C  C2164  1  0.019600  0.894700  0.700200  1.0
  C  C2165  1  0.988100  0.136800  0.289000  1.0
  C  C2166  1  0.011900  0.863200  0.711000  1.0
  C  C2167  1  0.952000  0.056400  0.297300  1.0
  C  C2168  1  0.048000  0.943600  0.702700  1.0
  C  C2169  1  0.015800  0.195800  0.258700  1.0
  C  C2170  1  0.984200  0.804200  0.741300  1.0
  C  C2171  1  0.022500  0.229600  0.247400  1.0
  C  C2172  1  0.977500  0.770400  0.752600  1.0
  C  C2173  1  0.060300  0.237400  0.255200  1.0
  C  C2174  1  0.939700  0.762600  0.744800  1.0
  C  C2175  1  0.064300  0.269900  0.245100  1.0
  C  C2176  1  0.935700  0.730100  0.754900  1.0
  C  C2177  1  0.031500  0.293300  0.228100  1.0
  C  C2178  1  0.968500  0.706700  0.771900  1.0
  C  C2179  1  0.995800  0.282200  0.221200  1.0
  C  C2180  1  0.004200  0.717800  0.778800  1.0
  C  C2181  1  0.993100  0.354100  0.208800  1.0
  C  C2182  1  0.006900  0.645900  0.791200  1.0
  C  C2183  1  0.031800  0.329100  0.217900  1.0
  C  C2184  1  0.968200  0.670900  0.782100  1.0
  C  C2185  1  0.072500  0.339000  0.217300  1.0
  C  C2186  1  0.927500  0.661000  0.782700  1.0
  C  C2187  1  0.073400  0.372000  0.208000  1.0
  C  C2188  1  0.926600  0.628000  0.792000  1.0
  C  C2189  1  0.033200  0.395400  0.199400  1.0
  C  C2190  1  0.966800  0.604600  0.800600  1.0
  C  C2191  1  0.031800  0.430900  0.189400  1.0
  C  C2192  1  0.968200  0.569100  0.810600  1.0
  C  C2193  1  0.994800  0.486400  0.170800  1.0
  C  C2194  1  0.005200  0.513600  0.829200  1.0
  C  C2195  1  0.034500  0.497000  0.162300  1.0
  C  C2196  1  0.965500  0.503000  0.837700  1.0
  C  C2197  1  0.035100  0.530200  0.152000  1.0
  C  C2198  1  0.964900  0.469800  0.848000  1.0
  C  C2199  1  0.995300  0.554200  0.149800  1.0
  C  C2200  1  0.004700  0.445800  0.850200  1.0
  C  C2201  1  0.955800  0.543500  0.158700  1.0
  C  C2202  1  0.044200  0.456500  0.841300  1.0
  C  C2203  1  0.954800  0.510300  0.169100  1.0
  C  C2204  1  0.045200  0.489700  0.830900  1.0
  C  C2205  1  0.995000  0.590500  0.137600  1.0
  C  C2206  1  0.005000  0.409500  0.862400  1.0
  C  C2207  1  0.544500  0.218500  0.390600  1.0
  C  C2208  1  0.455500  0.781500  0.609400  1.0
  C  C2209  1  0.506600  0.225100  0.405200  1.0
  C  C2210  1  0.493400  0.774900  0.594800  1.0
  C  C2211  1  0.511500  0.233100  0.427600  1.0
  C  C2212  1  0.488500  0.766900  0.572400  1.0
  C  C2213  1  0.553800  0.233600  0.436000  1.0
  C  C2214  1  0.446200  0.766400  0.564000  1.0
  C  C2215  1  0.591500  0.226100  0.421600  1.0
  C  C2216  1  0.408500  0.773900  0.578400  1.0
  C  C2217  1  0.587400  0.218600  0.398800  1.0
  C  C2218  1  0.412600  0.781400  0.601200  1.0
  C  C2219  1  0.560600  0.241500  0.460700  1.0
  C  C2220  1  0.439400  0.758500  0.539300  1.0
  C  C2221  1  0.568200  0.210800  0.350300  1.0
  C  C2222  1  0.431800  0.789200  0.649700  1.0
  C  C2223  1  0.569400  0.199200  0.327500  1.0
  C  C2224  1  0.430600  0.800800  0.672500  1.0
  C  C2225  1  0.600500  0.204900  0.307600  1.0
  C  C2226  1  0.399500  0.795100  0.692400  1.0
  C  C2227  1  0.597500  0.192700  0.287000  1.0
  C  C2228  1  0.402500  0.807300  0.713000  1.0
  C  C2229  1  0.564400  0.175300  0.287000  1.0
  C  C2230  1  0.435600  0.824700  0.713000  1.0
  C  C2231  1  0.535100  0.171200  0.307900  1.0
  C  C2232  1  0.464900  0.828800  0.692100  1.0
  C  C2233  1  0.517100  0.162100  0.256100  1.0
  C  C2234  1  0.482900  0.837900  0.743900  1.0
  C  C2235  1  0.559400  0.161000  0.265700  1.0
  C  C2236  1  0.440600  0.839000  0.734300  1.0
  C  C2237  1  0.597100  0.147600  0.253600  1.0
  C  C2238  1  0.402900  0.852400  0.746400  1.0
  C  C2239  1  0.590900  0.137300  0.232500  1.0
  C  C2240  1  0.409100  0.862700  0.767500  1.0
  C  C2241  1  0.547200  0.140300  0.223800  1.0
  C  C2242  1  0.452800  0.859700  0.776200  1.0
  C  C2243  1  0.542300  0.132000  0.199800  1.0
  C  C2244  1  0.457700  0.868000  0.800200  1.0
  C  C2245  1  0.502700  0.129600  0.164700  1.0
  C  C2246  1  0.497300  0.870400  0.835300  1.0
  C  C2247  1  0.531600  0.144600  0.146200  1.0
  C  C2248  1  0.468400  0.855400  0.853800  1.0
  C  C2249  1  0.531300  0.145000  0.120400  1.0
  C  C2250  1  0.468700  0.855000  0.879600  1.0
  C  C2251  1  0.501400  0.129800  0.112500  1.0
  C  C2252  1  0.498600  0.870200  0.887500  1.0
  C  C2253  1  0.473600  0.114700  0.131300  1.0
  C  C2254  1  0.526400  0.885300  0.868700  1.0
  C  C2255  1  0.472900  0.113900  0.157200  1.0
  C  C2256  1  0.527100  0.886100  0.842800  1.0
  C  C2257  1  0.500400  0.131100  0.084100  1.0
  C  C2258  1  0.499600  0.868900  0.915900  1.0
  C  C2259  1  0.862400  0.483500  0.130500  1.0
  C  C2260  1  0.137600  0.516500  0.869500  1.0
  C  C2261  1  0.899000  0.492700  0.116000  1.0
  C  C2262  1  0.101000  0.507300  0.884000  1.0
  C  C2263  1  0.896100  0.504900  0.089000  1.0
  C  C2264  1  0.103900  0.495100  0.911000  1.0
  C  C2265  1  0.856200  0.506800  0.076500  1.0
  C  C2266  1  0.143800  0.493200  0.923500  1.0
  C  C2267  1  0.820200  0.496300  0.091000  1.0
  C  C2268  1  0.179800  0.503700  0.909000  1.0
  C  C2269  1  0.822800  0.484400  0.118000  1.0
  C  C2270  1  0.177200  0.515600  0.882000  1.0
  C  C2271  1  0.851800  0.519800  0.046900  1.0
  C  C2272  1  0.148200  0.480200  0.953100  1.0
  C  C2273  1  0.836800  0.477100  0.174800  1.0
  C  C2274  1  0.163200  0.522900  0.825200  1.0
  C  C2275  1  0.842900  0.463100  0.203400  1.0
  C  C2276  1  0.157100  0.536900  0.796600  1.0
  C  C2277  1  0.806600  0.468100  0.219700  1.0
  C  C2278  1  0.193400  0.531900  0.780300  1.0
  C  C2279  1  0.812400  0.450800  0.246100  1.0
  C  C2280  1  0.187600  0.549200  0.753900  1.0
  C  C2281  1  0.854200  0.429800  0.255300  1.0
  C  C2282  1  0.145800  0.570200  0.744700  1.0
  C  C2283  1  0.889500  0.427400  0.237800  1.0
  C  C2284  1  0.110500  0.572600  0.762200  1.0
  C  C2285  1  0.896700  0.404900  0.298600  1.0
  C  C2286  1  0.103300  0.595100  0.701400  1.0
  C  C2287  1  0.858200  0.410300  0.283500  1.0
  C  C2288  1  0.141800  0.589700  0.716500  1.0
  C  C2289  1  0.822600  0.396100  0.295900  1.0
  C  C2290  1  0.177400  0.603900  0.704100  1.0
  C  C2291  1  0.827400  0.377400  0.322000  1.0
  C  C2292  1  0.172600  0.622600  0.678000  1.0
  C  C2293  1  0.867800  0.373700  0.335100  1.0
  C  C2294  1  0.132200  0.626300  0.664900  1.0
  C  C2295  1  0.874200  0.354900  0.363000  1.0
  C  C2296  1  0.125800  0.645100  0.637000  1.0
  C  C2297  1  0.918300  0.333600  0.401100  1.0
  C  C2298  1  0.081700  0.666400  0.598900  1.0
  C  C2299  1  0.961500  0.319400  0.412000  1.0
  C  C2300  1  0.038500  0.680600  0.588000  1.0
  C  C2301  1  0.965300  0.304500  0.438800  1.0
  C  C2302  1  0.034700  0.695500  0.561200  1.0
  C  C2303  1  0.927600  0.303800  0.454600  1.0
  C  C2304  1  0.072400  0.696200  0.545400  1.0
  C  C2305  1  0.885000  0.317700  0.443100  1.0
  C  C2306  1  0.115000  0.682300  0.556900  1.0
  C  C2307  1  0.879600  0.332400  0.416300  1.0
  C  C2308  1  0.120400  0.667600  0.583700  1.0
  C  C2309  1  0.932100  0.288800  0.484000  1.0
  C  C2310  1  0.067900  0.711200  0.516000  1.0
  C  C2311  1  0.607400  0.127500  0.370900  1.0
  C  C2312  1  0.392600  0.872500  0.629100  1.0
  C  C2313  1  0.649600  0.131500  0.376100  1.0
  C  C2314  1  0.350400  0.868500  0.623900  1.0
  C  C2315  1  0.687200  0.124000  0.361400  1.0
  C  C2316  1  0.312800  0.876000  0.638600  1.0
  C  C2317  1  0.684700  0.111000  0.341300  1.0
  C  C2318  1  0.315300  0.889000  0.658700  1.0
  C  C2319  1  0.643000  0.105500  0.336400  1.0
  C  C2320  1  0.357000  0.894500  0.663600  1.0
  C  C2321  1  0.605900  0.114000  0.350900  1.0
  C  C2322  1  0.394100  0.886000  0.649100  1.0
  C  C2323  1  0.724900  0.102800  0.324900  1.0
  C  C2324  1  0.275100  0.897200  0.675100  1.0
  C  C2325  1  0.572300  0.132200  0.410200  1.0
  C  C2326  1  0.427700  0.867800  0.589800  1.0
  C  C2327  1  0.534100  0.140500  0.426700  1.0
  C  C2328  1  0.465900  0.859500  0.573300  1.0
  C  C2329  1  0.537900  0.138100  0.453000  1.0
  C  C2330  1  0.462100  0.861900  0.547000  1.0
  C  C2331  1  0.499900  0.149100  0.466100  1.0
  C  C2332  1  0.500100  0.850900  0.533900  1.0
  C  C2333  1  0.458200  0.161700  0.452900  1.0
  C  C2334  1  0.541800  0.838300  0.547100  1.0
  C  C2335  1  0.457200  0.163500  0.426600  1.0
  C  C2336  1  0.542800  0.836500  0.573400  1.0
  C  C2337  1  0.375800  0.163200  0.462700  1.0
  C  C2338  1  0.624200  0.836800  0.537300  1.0
  C  C2339  1  0.416400  0.171200  0.466300  1.0
  C  C2340  1  0.583600  0.828800  0.533700  1.0
  C  C2341  1  0.417500  0.190900  0.481900  1.0
  C  C2342  1  0.582500  0.809100  0.518100  1.0
  C  C2343  1  0.376600  0.202500  0.492100  1.0
  C  C2344  1  0.623400  0.797500  0.507900  1.0
  C  C2345  1  0.336800  0.194300  0.487400  1.0
  C  C2346  1  0.663200  0.805700  0.512600  1.0
  C  C2347  1  0.293100  0.206800  0.498000  1.0
  C  C2348  1  0.706900  0.793200  0.502000  1.0
  C  C2349  1  0.214700  0.210100  0.505200  1.0
  C  C2350  1  0.785300  0.789900  0.494800  1.0
  C  C2351  1  0.173900  0.220100  0.491200  1.0
  C  C2352  1  0.826100  0.779900  0.508800  1.0
  C  C2353  1  0.134100  0.228800  0.503700  1.0
  C  C2354  1  0.865900  0.771200  0.496300  1.0
  C  C2355  1  0.132700  0.227500  0.529900  1.0
  C  C2356  1  0.867300  0.772500  0.470100  1.0
  C  C2357  1  0.173900  0.218200  0.543100  1.0
  C  C2358  1  0.826100  0.781800  0.456900  1.0
  C  C2359  1  0.214400  0.209800  0.531200  1.0
  C  C2360  1  0.785600  0.790200  0.468800  1.0
  C  C2361  1  0.088200  0.235200  0.543100  1.0
  C  C2362  1  0.911800  0.764800  0.456900  1.0
  C  C2363  1  0.544100  0.308500  0.338200  1.0
  C  C2364  1  0.455900  0.691500  0.661800  1.0
  C  C2365  1  0.541900  0.299500  0.315900  1.0
  C  C2366  1  0.458100  0.700500  0.684100  1.0
  C  C2367  1  0.580200  0.292700  0.301500  1.0
  C  C2368  1  0.419800  0.707300  0.698500  1.0
  C  C2369  1  0.622300  0.294800  0.309000  1.0
  C  C2370  1  0.377700  0.705200  0.691000  1.0
  C  C2371  1  0.624800  0.304500  0.331000  1.0
  C  C2372  1  0.375200  0.695500  0.669000  1.0
  C  C2373  1  0.586600  0.311100  0.345400  1.0
  C  C2374  1  0.413400  0.688900  0.654600  1.0
  C  C2375  1  0.665500  0.286900  0.294600  1.0
  C  C2376  1  0.334500  0.713100  0.705400  1.0
  C  C2377  1  0.503300  0.315400  0.375700  1.0
  C  C2378  1  0.496700  0.684600  0.624300  1.0
  C  C2379  1  0.468600  0.327800  0.392300  1.0
  C  C2380  1  0.531400  0.672200  0.607700  1.0
  C  C2381  1  0.472000  0.320000  0.419300  1.0
  C  C2382  1  0.528000  0.680000  0.580700  1.0
  C  C2383  1  0.434600  0.332500  0.432000  1.0
  C  C2384  1  0.565400  0.667500  0.568000  1.0
  C  C2385  1  0.395100  0.351700  0.418000  1.0
  C  C2386  1  0.604900  0.648300  0.582000  1.0
  C  C2387  1  0.394700  0.358500  0.391000  1.0
  C  C2388  1  0.605300  0.641500  0.609000  1.0
  C  C2389  1  0.310200  0.361700  0.424600  1.0
  C  C2390  1  0.689800  0.638300  0.575400  1.0
  C  C2391  1  0.353100  0.364200  0.430700  1.0
  C  C2392  1  0.646900  0.635800  0.569300  1.0
  C  C2393  1  0.355200  0.379100  0.449700  1.0
  C  C2394  1  0.644800  0.620900  0.550300  1.0
  C  C2395  1  0.315800  0.390000  0.461400  1.0
  C  C2396  1  0.684200  0.610000  0.538600  1.0
  C  C2397  1  0.274400  0.386000  0.454400  1.0
  C  C2398  1  0.725600  0.614000  0.545600  1.0
  C  C2399  1  0.231900  0.395900  0.467100  1.0
  C  C2400  1  0.768100  0.604100  0.532900  1.0
  C  C2401  1  0.152200  0.402000  0.474400  1.0
  C  C2402  1  0.847800  0.598000  0.525600  1.0
  C  C2403  1  0.112200  0.414000  0.459700  1.0
  C  C2404  1  0.887800  0.586000  0.540300  1.0
  C  C2405  1  0.071000  0.422300  0.471100  1.0
  C  C2406  1  0.929000  0.577700  0.528900  1.0
  C  C2407  1  0.068400  0.419100  0.497500  1.0
  C  C2408  1  0.931600  0.580900  0.502500  1.0
  C  C2409  1  0.108400  0.407300  0.512000  1.0
  C  C2410  1  0.891600  0.592700  0.488000  1.0
  C  C2411  1  0.149800  0.398800  0.500800  1.0
  C  C2412  1  0.850200  0.601200  0.499200  1.0
  C  C2413  1  0.022900  0.428400  0.509400  1.0
  C  C2414  1  0.977100  0.571600  0.490600  1.0
  C  C2415  1  0.000200  0.461800  0.326400  1.0
  C  C2416  1  0.999800  0.538200  0.673600  1.0
  C  C2417  1  0.971000  0.478300  0.341100  1.0
  C  C2418  1  0.029000  0.521700  0.658900  1.0
  C  C2419  1  0.966700  0.512000  0.335500  1.0
  C  C2420  1  0.033300  0.488000  0.664500  1.0
  C  C2421  1  0.989800  0.529900  0.315300  1.0
  C  C2422  1  0.010200  0.470100  0.684700  1.0
  C  C2423  1  0.017400  0.513500  0.299900  1.0
  C  C2424  1  0.982600  0.486500  0.700100  1.0
  C  C2425  1  0.022100  0.479900  0.305400  1.0
  C  C2426  1  0.977900  0.520100  0.694600  1.0
  C  C2427  1  0.985700  0.566600  0.309200  1.0
  C  C2428  1  0.014300  0.433400  0.690800  1.0
  C  C2429  1  0.041400  0.409000  0.326800  1.0
  C  C2430  1  0.958600  0.591000  0.673200  1.0
  C  C2431  1  0.051200  0.373300  0.331000  1.0
  C  C2432  1  0.948800  0.626700  0.669000  1.0
  C  C2433  1  0.090000  0.356000  0.322300  1.0
  C  C2434  1  0.910000  0.644000  0.677700  1.0
  C  C2435  1  0.093500  0.323200  0.324400  1.0
  C  C2436  1  0.906500  0.676800  0.675600  1.0
  C  C2437  1  0.058300  0.308200  0.335500  1.0
  C  C2438  1  0.941700  0.691800  0.664500  1.0
  C  C2439  1  0.021700  0.326800  0.344600  1.0
  C  C2440  1  0.978300  0.673200  0.655400  1.0
  C  C2441  1  0.035300  0.254500  0.355600  1.0
  C  C2442  1  0.964700  0.745500  0.644400  1.0
  C  C2443  1  0.060300  0.273500  0.337400  1.0
  C  C2444  1  0.939700  0.726500  0.662600  1.0
  C  C2445  1  0.087500  0.259200  0.320500  1.0
  C  C2446  1  0.912500  0.740800  0.679500  1.0
  C  C2447  1  0.088600  0.226800  0.322200  1.0
  C  C2448  1  0.911400  0.773200  0.677800  1.0
  C  C2449  1  0.062600  0.209800  0.341500  1.0
  C  C2450  1  0.937400  0.790200  0.658500  1.0
  C  C2451  1  0.064000  0.174900  0.345600  1.0
  C  C2452  1  0.936000  0.825100  0.654400  1.0
  C  C2453  1  0.042500  0.125900  0.365000  1.0
  C  C2454  1  0.957500  0.874100  0.635000  1.0
  C  C2455  1  0.004800  0.112300  0.373100  1.0
  C  C2456  1  0.995200  0.887700  0.626900  1.0
  C  C2457  1  0.006100  0.079900  0.374700  1.0
  C  C2458  1  0.993900  0.920100  0.625300  1.0
  C  C2459  1  0.044500  0.060400  0.367900  1.0
  C  C2460  1  0.955500  0.939600  0.632100  1.0
  C  C2461  1  0.082100  0.074000  0.359800  1.0
  C  C2462  1  0.917900  0.926000  0.640200  1.0
  C  C2463  1  0.081300  0.106200  0.358600  1.0
  C  C2464  1  0.918700  0.893800  0.641400  1.0
  C  C2465  1  0.043600  0.025400  0.369700  1.0
  C  C2466  1  0.956400  0.974600  0.630300  1.0
  C  C2467  1  0.150200  0.430300  0.388900  1.0
  C  C2468  1  0.849800  0.569700  0.611100  1.0
  C  C2469  1  0.165500  0.449600  0.401100  1.0
  C  C2470  1  0.834500  0.550400  0.598900  1.0
  C  C2471  1  0.139200  0.481100  0.397000  1.0
  C  C2472  1  0.860800  0.518900  0.603000  1.0
  C  C2473  1  0.098900  0.493200  0.382400  1.0
  C  C2474  1  0.901100  0.506800  0.617600  1.0
  C  C2475  1  0.082300  0.472800  0.371800  1.0
  C  C2476  1  0.917700  0.527200  0.628200  1.0
  C  C2477  1  0.109000  0.441700  0.375000  1.0
  C  C2478  1  0.891000  0.558300  0.625000  1.0
  C  C2479  1  0.074600  0.528800  0.377500  1.0
  C  C2480  1  0.925400  0.471200  0.622500  1.0
  C  C2481  1  0.246400  0.224700  0.422400  1.0
  C  C2482  1  0.753600  0.775300  0.577600  1.0
  C  C2483  1  0.244400  0.245800  0.396800  1.0
  C  C2484  1  0.755600  0.754200  0.603200  1.0
  C  C2485  1  0.258300  0.231000  0.377500  1.0
  C  C2486  1  0.741700  0.769000  0.622500  1.0
  C  C2487  1  0.274000  0.197300  0.383500  1.0
  C  C2488  1  0.726000  0.802700  0.616500  1.0
  C  C2489  1  0.274500  0.178400  0.409600  1.0
  C  C2490  1  0.725500  0.821600  0.590400  1.0
  C  C2491  1  0.289800  0.142200  0.417300  1.0
  C  C2492  1  0.710200  0.857800  0.582700  1.0
  C  C2493  1  0.198400  0.348600  0.379600  1.0
  C  C2494  1  0.801600  0.651400  0.620400  1.0
  C  C2495  1  0.192800  0.334300  0.360800  1.0
  C  C2496  1  0.807200  0.665700  0.639200  1.0
  C  C2497  1  0.208600  0.300800  0.366100  1.0
  C  C2498  1  0.791400  0.699200  0.633900  1.0
  C  C2499  1  0.229900  0.282000  0.390100  1.0
  C  C2500  1  0.770100  0.718000  0.609900  1.0
  C  C2501  1  0.236000  0.298900  0.407000  1.0
  C  C2502  1  0.764000  0.701100  0.593000  1.0
  C  C2503  1  0.176300  0.383000  0.376800  1.0
  C  C2504  1  0.823700  0.617000  0.623200  1.0
  C  C2505  1  0.304300  0.090700  0.448500  1.0
  C  C2506  1  0.695700  0.909300  0.551500  1.0
  C  C2507  1  0.333500  0.073900  0.469900  1.0
  C  C2508  1  0.666500  0.926100  0.530100  1.0
  C  C2509  1  0.345600  0.039800  0.478300  1.0
  C  C2510  1  0.654400  0.960200  0.521700  1.0
  C  C2511  1  0.329400  0.021300  0.465700  1.0
  C  C2512  1  0.670600  0.978700  0.534300  1.0
  C  C2513  1  0.300800  0.038600  0.444200  1.0
  C  C2514  1  0.699200  0.961400  0.555800  1.0
  C  C2515  1  0.288200  0.072800  0.435200  1.0
  C  C2516  1  0.711800  0.927200  0.564800  1.0
  C  C2517  1  0.343900  0.984100  0.475900  1.0
  C  C2518  1  0.656100  0.015900  0.524100  1.0
  C  C2519  1  0.850800  0.449800  0.345200  1.0
  C  C2520  1  0.149200  0.550200  0.654800  1.0
  C  C2521  1  0.807400  0.446600  0.353400  1.0
  C  C2522  1  0.192600  0.553400  0.646600  1.0
  C  C2523  1  0.771100  0.462400  0.336000  1.0
  C  C2524  1  0.228900  0.537600  0.664000  1.0
  C  C2525  1  0.777300  0.481500  0.310600  1.0
  C  C2526  1  0.222700  0.518500  0.689400  1.0
  C  C2527  1  0.820600  0.485400  0.302700  1.0
  C  C2528  1  0.179400  0.514600  0.697300  1.0
  C  C2529  1  0.856900  0.469600  0.319900  1.0
  C  C2530  1  0.143100  0.530400  0.680100  1.0
  C  C2531  1  0.739500  0.498100  0.290500  1.0
  C  C2532  1  0.260500  0.501900  0.709500  1.0
  C  C2533  1  0.892500  0.427900  0.386700  1.0
  C  C2534  1  0.107500  0.572100  0.613300  1.0
  C  C2535  1  0.932200  0.409600  0.403800  1.0
  C  C2536  1  0.067800  0.590400  0.596200  1.0
  C  C2537  1  0.931400  0.407000  0.430100  1.0
  C  C2538  1  0.068600  0.593000  0.569900  1.0
  C  C2539  1  0.969600  0.389300  0.445400  1.0
  C  C2540  1  0.030400  0.610700  0.554600  1.0
  C  C2541  1  0.007300  0.375000  0.433900  1.0
  C  C2542  1  0.992700  0.625000  0.566100  1.0
  C  C2543  1  0.005000  0.378800  0.407300  1.0
  C  C2544  1  0.995000  0.621200  0.592700  1.0
  C  C2545  1  0.091600  0.362400  0.437300  1.0
  C  C2546  1  0.908400  0.637600  0.562700  1.0
  C  C2547  1  0.050400  0.357200  0.448800  1.0
  C  C2548  1  0.949600  0.642800  0.551200  1.0
  C  C2549  1  0.051300  0.334300  0.473400  1.0
  C  C2550  1  0.948700  0.665700  0.526600  1.0
  C  C2551  1  0.092800  0.316500  0.485200  1.0
  C  C2552  1  0.907200  0.683500  0.514800  1.0
  C  C2553  1  0.131800  0.323300  0.472100  1.0
  C  C2554  1  0.868200  0.676700  0.527900  1.0
  C  C2555  1  0.177300  0.307000  0.483400  1.0
  C  C2556  1  0.822700  0.693000  0.516600  1.0
  C  C2557  1  0.254500  0.301500  0.484000  1.0
  C  C2558  1  0.745500  0.698500  0.516000  1.0
  C  C2559  1  0.257400  0.299100  0.510300  1.0
  C  C2560  1  0.742600  0.700900  0.489700  1.0
  C  C2561  1  0.299900  0.289100  0.522300  1.0
  C  C2562  1  0.700100  0.710900  0.477700  1.0
  C  C2563  1  0.339400  0.281400  0.509100  1.0
  C  C2564  1  0.660600  0.718600  0.490900  1.0
  C  C2565  1  0.335800  0.283300  0.482900  1.0
  C  C2566  1  0.664200  0.716700  0.517100  1.0
  C  C2567  1  0.293500  0.293200  0.470800  1.0
  C  C2568  1  0.706500  0.706800  0.529200  1.0
  C  C2569  1  0.385600  0.271000  0.522400  1.0
  C  C2570  1  0.614400  0.729000  0.477600  1.0
  C  C2571  1  0.359600  0.434000  0.319500  1.0
  C  C2572  1  0.640400  0.566000  0.680500  1.0
  C  C2573  1  0.391000  0.452400  0.307500  1.0
  C  C2574  1  0.609000  0.547600  0.692500  1.0
  C  C2575  1  0.381400  0.484600  0.308000  1.0
  C  C2576  1  0.618600  0.515400  0.692000  1.0
  C  C2577  1  0.343000  0.497000  0.320100  1.0
  C  C2578  1  0.657000  0.503000  0.679900  1.0
  C  C2579  1  0.312300  0.478000  0.331900  1.0
  C  C2580  1  0.687700  0.522000  0.668100  1.0
  C  C2581  1  0.320400  0.445800  0.331500  1.0
  C  C2582  1  0.679600  0.554200  0.668500  1.0
  C  C2583  1  0.333800  0.532200  0.320400  1.0
  C  C2584  1  0.666200  0.467800  0.679600  1.0
  C  C2585  1  0.416200  0.232700  0.348800  1.0
  C  C2586  1  0.583800  0.767300  0.651200  1.0
  C  C2587  1  0.377900  0.251600  0.333700  1.0
  C  C2588  1  0.622100  0.748400  0.666300  1.0
  C  C2589  1  0.351400  0.235500  0.324200  1.0
  C  C2590  1  0.648600  0.764500  0.675800  1.0
  C  C2591  1  0.364600  0.201800  0.329100  1.0
  C  C2592  1  0.635400  0.798200  0.670900  1.0
  C  C2593  1  0.404400  0.185200  0.343400  1.0
  C  C2594  1  0.595600  0.814800  0.656600  1.0
  C  C2595  1  0.425300  0.150500  0.346600  1.0
  C  C2596  1  0.574700  0.849500  0.653400  1.0
  C  C2597  1  0.399500  0.304800  0.328800  1.0
  C  C2598  1  0.600500  0.695200  0.671200  1.0
  C  C2599  1  0.366000  0.287700  0.328500  1.0
  C  C2600  1  0.634000  0.712300  0.671500  1.0
  C  C2601  1  0.320700  0.304300  0.324100  1.0
  C  C2602  1  0.679300  0.695700  0.675900  1.0
  C  C2603  1  0.310300  0.337800  0.320400  1.0
  C  C2604  1  0.689700  0.662200  0.679600  1.0
  C  C2605  1  0.345400  0.353000  0.321300  1.0
  C  C2606  1  0.654600  0.647000  0.678700  1.0
  C  C2607  1  0.334900  0.388400  0.318400  1.0
  C  C2608  1  0.665100  0.611600  0.681600  1.0
  C  C2609  1  0.480300  0.100800  0.358800  1.0
  C  C2610  1  0.519700  0.899200  0.641200  1.0
  C  C2611  1  0.512100  0.080200  0.377800  1.0
  C  C2612  1  0.487900  0.919800  0.622200  1.0
  C  C2613  1  0.530000  0.047800  0.378800  1.0
  C  C2614  1  0.470000  0.952200  0.621200  1.0
  C  C2615  1  0.517600  0.035100  0.360400  1.0
  C  C2616  1  0.482400  0.964900  0.639600  1.0
  C  C2617  1  0.486700  0.056400  0.341200  1.0
  C  C2618  1  0.513300  0.943600  0.658800  1.0
  C  C2619  1  0.467700  0.088600  0.339900  1.0
  C  C2620  1  0.532300  0.911400  0.660100  1.0
  C  C2621  1  0.535400  0.000100  0.360100  1.0
  C  C2622  1  0.464600  0.999900  0.639900  1.0
  C  C2623  1  0.523800  0.899100  0.328900  1.0
  C  C2624  1  0.476200  0.100900  0.671100  1.0
  C  C2625  1  0.478600  0.913400  0.330300  1.0
  C  C2626  1  0.521400  0.086600  0.669700  1.0
  C  C2627  1  0.459800  0.924400  0.350800  1.0
  C  C2628  1  0.540200  0.075600  0.649200  1.0
  C  C2629  1  0.487600  0.919900  0.371800  1.0
  C  C2630  1  0.512400  0.080100  0.628200  1.0
  C  C2631  1  0.533100  0.905500  0.370800  1.0
  C  C2632  1  0.466900  0.094500  0.629200  1.0
  C  C2633  1  0.551500  0.895200  0.349900  1.0
  C  C2634  1  0.448500  0.104800  0.650100  1.0
  C  C2635  1  0.468600  0.930000  0.395300  1.0
  C  C2636  1  0.531400  0.070000  0.604700  1.0
  C  C2637  1  0.579900  0.882900  0.300500  1.0
  C  C2638  1  0.420100  0.117100  0.699500  1.0
  C  C2639  1  0.597600  0.870300  0.278900  1.0
  C  C2640  1  0.402400  0.129700  0.721100  1.0
  C  C2641  1  0.642600  0.867300  0.271500  1.0
  C  C2642  1  0.357400  0.132700  0.728500  1.0
  C  C2643  1  0.656200  0.855100  0.250800  1.0
  C  C2644  1  0.343800  0.144900  0.749200  1.0
  C  C2645  1  0.625500  0.845200  0.238400  1.0
  C  C2646  1  0.374500  0.154800  0.761600  1.0
  C  C2647  1  0.581200  0.848800  0.247400  1.0
  C  C2648  1  0.418800  0.151200  0.752600  1.0
  C  C2649  1  0.611600  0.838100  0.195200  1.0
  C  C2650  1  0.388400  0.161900  0.804800  1.0
  C  C2651  1  0.638800  0.830200  0.217200  1.0
  C  C2652  1  0.361200  0.169800  0.782800  1.0
  C  C2653  1  0.680000  0.807600  0.218700  1.0
  C  C2654  1  0.320000  0.192400  0.781300  1.0
  C  C2655  1  0.692500  0.793600  0.198900  1.0
  C  C2656  1  0.307500  0.206400  0.801100  1.0
  C  C2657  1  0.662700  0.803100  0.177600  1.0
  C  C2658  1  0.337300  0.196900  0.822400  1.0
  C  C2659  1  0.672700  0.790000  0.155500  1.0
  C  C2660  1  0.327300  0.210000  0.844500  1.0
  C  C2661  1  0.658700  0.786600  0.114400  1.0
  C  C2662  1  0.341300  0.213400  0.885600  1.0
  C  C2663  1  0.624600  0.784700  0.098900  1.0
  C  C2664  1  0.375400  0.215300  0.901100  1.0
  C  C2665  1  0.635000  0.778800  0.075300  1.0
  C  C2666  1  0.365000  0.221200  0.924700  1.0
  C  C2667  1  0.679300  0.773400  0.066500  1.0
  C  C2668  1  0.320700  0.226600  0.933500  1.0
  C  C2669  1  0.713200  0.773700  0.082800  1.0
  C  C2670  1  0.286800  0.226300  0.917200  1.0
  C  C2671  1  0.703200  0.780100  0.106400  1.0
  C  C2672  1  0.296800  0.219900  0.893600  1.0
  C  C2673  1  0.688300  0.768300  0.040000  1.0
  C  C2674  1  0.311700  0.231700  0.960000  1.0
  C  C2675  1  0.014600  0.687100  0.120900  1.0
  C  C2676  1  0.985400  0.312900  0.879100  1.0
  C  C2677  1  0.972100  0.696900  0.109200  1.0
  C  C2678  1  0.027900  0.303100  0.890800  1.0
  C  C2679  1  0.935100  0.687600  0.123000  1.0
  C  C2680  1  0.064900  0.312400  0.877000  1.0
  C  C2681  1  0.939700  0.667600  0.148800  1.0
  C  C2682  1  0.060300  0.332400  0.851200  1.0
  C  C2683  1  0.982800  0.656700  0.160300  1.0
  C  C2684  1  0.017200  0.343300  0.839700  1.0
  C  C2685  1  0.020100  0.666300  0.146700  1.0
  C  C2686  1  0.979900  0.333700  0.853300  1.0
  C  C2687  1  0.899300  0.658100  0.164700  1.0
  C  C2688  1  0.100700  0.341900  0.835300  1.0
  C  C2689  1  0.054500  0.703000  0.081300  1.0
  C  C2690  1  0.945500  0.297000  0.918700  1.0
  C  C2691  1  0.093900  0.712600  0.066500  1.0
  C  C2692  1  0.906100  0.287400  0.933500  1.0
  C  C2693  1  0.095700  0.717500  0.039400  1.0
  C  C2694  1  0.904300  0.282500  0.960600  1.0
  C  C2695  1  0.133700  0.726800  0.026400  1.0
  C  C2696  1  0.866300  0.273200  0.973600  1.0
  C  C2697  1  0.168000  0.730700  0.040700  1.0
  C  C2698  1  0.832000  0.269300  0.959300  1.0
  C  C2699  1  0.162700  0.724800  0.067500  1.0
  C  C2700  1  0.837300  0.275200  0.932500  1.0
  C  C2701  1  0.250500  0.729200  0.042000  1.0
  C  C2702  1  0.749500  0.270800  0.958000  1.0
  C  C2703  1  0.209400  0.741400  0.028200  1.0
  C  C2704  1  0.790600  0.258600  0.971800  1.0
  C  C2705  1  0.208400  0.763400  0.002900  1.0
  C  C2706  1  0.791600  0.236600  0.997100  1.0
  C  C2707  1  0.247700  0.772900  0.992200  1.0
  C  C2708  1  0.752300  0.227100  0.007800  1.0
  C  C2709  1  0.287600  0.760200  0.007300  1.0
  C  C2710  1  0.712400  0.239800  0.992700  1.0
  C  C2711  1  0.331300  0.768900  0.998400  1.0
  C  C2712  1  0.668700  0.231100  0.001600  1.0
  C  C2713  1  0.409500  0.765600  0.999300  1.0
  C  C2714  1  0.590500  0.234400  0.000700  1.0
  C  C2715  1  0.413200  0.774100  0.972300  1.0
  C  C2716  1  0.586800  0.225900  0.027700  1.0
  C  C2717  1  0.453000  0.779900  0.959700  1.0
  C  C2718  1  0.547000  0.220100  0.040300  1.0
  C  C2719  1  0.490700  0.776900  0.974700  1.0
  C  C2720  1  0.509300  0.223100  0.025300  1.0
  C  C2721  1  0.486900  0.768800  0.001600  1.0
  C  C2722  1  0.513100  0.231200  0.998400  1.0
  C  C2723  1  0.447100  0.763000  0.014300  1.0
  C  C2724  1  0.552900  0.237000  0.985700  1.0
  C  C2725  1  0.534600  0.782100  0.960800  1.0
  C  C2726  1  0.465400  0.217900  0.039200  1.0
  C  C2727  1  0.170900  0.642200  0.146400  1.0
  C  C2728  1  0.829100  0.357800  0.853600  1.0
  C  C2729  1  0.142100  0.633600  0.131800  1.0
  C  C2730  1  0.857900  0.366400  0.868200  1.0
  C  C2731  1  0.146400  0.600500  0.134700  1.0
  C  C2732  1  0.853600  0.399500  0.865300  1.0
  C  C2733  1  0.177900  0.576500  0.151900  1.0
  C  C2734  1  0.822100  0.423500  0.848100  1.0
  C  C2735  1  0.204800  0.585600  0.167200  1.0
  C  C2736  1  0.795200  0.414400  0.832800  1.0
  C  C2737  1  0.201700  0.618500  0.164700  1.0
  C  C2738  1  0.798300  0.381500  0.835300  1.0
  C  C2739  1  0.182800  0.540700  0.153500  1.0
  C  C2740  1  0.817200  0.459300  0.846500  1.0
  C  C2741  1  0.196700  0.687100  0.148900  1.0
  C  C2742  1  0.803300  0.312900  0.851100  1.0
  C  C2743  1  0.194100  0.721800  0.146500  1.0
  C  C2744  1  0.805900  0.278200  0.853500  1.0
  C  C2745  1  0.227700  0.731400  0.157000  1.0
  C  C2746  1  0.772300  0.268600  0.843000  1.0
  C  C2747  1  0.218300  0.764000  0.156800  1.0
  C  C2748  1  0.781700  0.236000  0.843200  1.0
  C  C2749  1  0.177800  0.786100  0.146600  1.0
  C  C2750  1  0.822200  0.213900  0.853400  1.0
  C  C2751  1  0.147400  0.773900  0.135700  1.0
  C  C2752  1  0.852600  0.226100  0.864300  1.0
  C  C2753  1  0.142100  0.846700  0.128000  1.0
  C  C2754  1  0.857900  0.153300  0.872000  1.0
  C  C2755  1  0.167200  0.820500  0.147600  1.0
  C  C2756  1  0.832800  0.179500  0.852400  1.0
  C  C2757  1  0.180600  0.828200  0.168800  1.0
  C  C2758  1  0.819400  0.171800  0.831200  1.0
  C  C2759  1  0.168800  0.860200  0.169600  1.0
  C  C2760  1  0.831200  0.139800  0.830400  1.0
  C  C2761  1  0.143300  0.884500  0.149000  1.0
  C  C2762  1  0.856700  0.115500  0.851000  1.0
  C  C2763  1  0.130200  0.919100  0.149000  1.0
  C  C2764  1  0.869800  0.080900  0.851000  1.0
  C  C2765  1  0.096200  0.974000  0.129100  1.0
  C  C2766  1  0.903800  0.026000  0.870900  1.0
  C  C2767  1  0.058100  0.995600  0.115200  1.0
  C  C2768  1  0.941900  0.004400  0.884800  1.0
  C  C2769  1  0.050700  0.028400  0.114300  1.0
  C  C2770  1  0.949300  0.971600  0.885700  1.0
  C  C2771  1  0.079500  0.039600  0.126900  1.0
  C  C2772  1  0.920500  0.960400  0.873100  1.0
  C  C2773  1  0.116900  0.017500  0.140900  1.0
  C  C2774  1  0.883100  0.982500  0.859100  1.0
  C  C2775  1  0.125700  0.984700  0.141800  1.0
  C  C2776  1  0.874300  0.015300  0.858200  1.0
  C  C2777  1  0.070700  0.075400  0.125300  1.0
  C  C2778  1  0.929300  0.924600  0.874700  1.0
  C  C2779  1  0.334800  0.859300  0.987400  1.0
  C  C2780  1  0.665200  0.140700  0.012600  1.0
  C  C2781  1  0.295600  0.854200  0.001100  1.0
  C  C2782  1  0.704400  0.145800  0.998900  1.0
  C  C2783  1  0.257600  0.853400  0.988400  1.0
  C  C2784  1  0.742400  0.146600  0.011600  1.0
  C  C2785  1  0.256700  0.858300  0.961800  1.0
  C  C2786  1  0.743300  0.141700  0.038200  1.0
  C  C2787  1  0.295100  0.864600  0.947900  1.0
  C  C2788  1  0.704900  0.135400  0.052100  1.0
  C  C2789  1  0.333900  0.864400  0.960500  1.0
  C  C2790  1  0.666100  0.135600  0.039500  1.0
  C  C2791  1  0.214000  0.855600  0.949900  1.0
  C  C2792  1  0.786000  0.144400  0.050100  1.0
  C  C2793  1  0.412200  0.855200  0.993700  1.0
  C  C2794  1  0.587800  0.144800  0.006300  1.0
  C  C2795  1  0.451000  0.859200  0.006600  1.0
  C  C2796  1  0.549000  0.140800  0.993400  1.0
  C  C2797  1  0.495100  0.845900  0.000700  1.0
  C  C2798  1  0.504900  0.154100  0.999300  1.0
  C  C2799  1  0.531000  0.849200  0.013900  1.0
  C  C2800  1  0.469000  0.150800  0.986100  1.0
  C  C2801  1  0.521900  0.866000  0.032500  1.0
  C  C2802  1  0.478100  0.134000  0.967500  1.0
  C  C2803  1  0.476800  0.878500  0.036900  1.0
  C  C2804  1  0.523200  0.121500  0.963100  1.0
  C  C2805  1  0.553800  0.866100  0.074300  1.0
  C  C2806  1  0.446200  0.133900  0.925700  1.0
  C  C2807  1  0.559200  0.869000  0.047800  1.0
  C  C2808  1  0.440800  0.131000  0.952200  1.0
  C  C2809  1  0.601500  0.872700  0.037400  1.0
  C  C2810  1  0.398500  0.127300  0.962600  1.0
  C  C2811  1  0.635900  0.873000  0.053400  1.0
  C  C2812  1  0.364100  0.127000  0.946600  1.0
  C  C2813  1  0.627100  0.870600  0.079400  1.0
  C  C2814  1  0.372900  0.129400  0.920600  1.0
  C  C2815  1  0.661200  0.872900  0.096800  1.0
  C  C2816  1  0.338800  0.127100  0.903200  1.0
  C  C2817  1  0.689400  0.871300  0.135600  1.0
  C  C2818  1  0.310600  0.128700  0.864400  1.0
  C  C2819  1  0.734300  0.854600  0.134500  1.0
  C  C2820  1  0.265700  0.145400  0.865500  1.0
  C  C2821  1  0.766900  0.853900  0.151900  1.0
  C  C2822  1  0.233100  0.146100  0.848100  1.0
  C  C2823  1  0.756700  0.870100  0.170500  1.0
  C  C2824  1  0.243300  0.129900  0.829500  1.0
  C  C2825  1  0.712100  0.886500  0.170900  1.0
  C  C2826  1  0.287900  0.113500  0.829100  1.0
  C  C2827  1  0.678300  0.887500  0.154200  1.0
  C  C2828  1  0.321700  0.112500  0.845800  1.0
  C  C2829  1  0.791500  0.871400  0.189100  1.0
  C  C2830  1  0.208500  0.128600  0.810900  1.0
  C  C2831  1  0.001900  0.634700  0.337100  1.0
  C  C2832  1  0.998100  0.365300  0.662900  1.0
  C  C2833  1  0.958800  0.637800  0.347400  1.0
  C  C2834  1  0.041200  0.362200  0.652600  1.0
  C  C2835  1  0.951800  0.625700  0.374000  1.0
  C  C2836  1  0.048200  0.374300  0.626000  1.0
  C  C2837  1  0.989900  0.609900  0.390300  1.0
  C  C2838  1  0.010100  0.390100  0.609700  1.0
  C  C2839  1  0.032900  0.606200  0.379600  1.0
  C  C2840  1  0.967100  0.393800  0.620400  1.0
  C  C2841  1  0.040300  0.618400  0.353100  1.0
  C  C2842  1  0.959700  0.381600  0.646900  1.0
  C  C2843  1  0.986600  0.596600  0.419800  1.0
  C  C2844  1  0.013400  0.403400  0.580200  1.0
  C  C2845  1  0.974300  0.652800  0.292600  1.0
  C  C2846  1  0.025700  0.347200  0.707400  1.0
  C  C2847  1  0.980500  0.668100  0.264500  1.0
  C  C2848  1  0.019500  0.331900  0.735500  1.0
  C  C2849  1  0.946300  0.672800  0.246500  1.0
  C  C2850  1  0.053700  0.327200  0.753500  1.0
  C  C2851  1  0.951000  0.689800  0.220400  1.0
  C  C2852  1  0.049000  0.310200  0.779600  1.0
  C  C2853  1  0.990100  0.701700  0.213000  1.0
  C  C2854  1  0.009900  0.298300  0.787000  1.0
  C  C2855  1  0.022900  0.695400  0.231900  1.0
  C  C2856  1  0.977100  0.304600  0.768100  1.0
  C  C2857  1  0.038700  0.718300  0.173400  1.0
  C  C2858  1  0.961300  0.281700  0.826600  1.0
  C  C2859  1  0.996600  0.721200  0.185500  1.0
  C  C2860  1  0.003400  0.278800  0.814500  1.0
  C  C2861  1  0.958700  0.743000  0.171200  1.0
  C  C2862  1  0.041300  0.257000  0.828800  1.0
  C  C2863  1  0.963500  0.761200  0.145500  1.0
  C  C2864  1  0.036500  0.238800  0.854500  1.0
  C  C2865  1  0.006500  0.756700  0.135100  1.0
  C  C2866  1  0.993500  0.243300  0.864900  1.0
  C  C2867  1  0.013200  0.775900  0.108000  1.0
  C  C2868  1  0.986800  0.224100  0.892000  1.0
  C  C2869  1  0.056200  0.790600  0.069300  1.0
  C  C2870  1  0.943800  0.209400  0.930700  1.0
  C  C2871  1  0.020600  0.799700  0.051300  1.0
  C  C2872  1  0.979400  0.200300  0.948700  1.0
  C  C2873  1  0.028800  0.814000  0.025200  1.0
  C  C2874  1  0.971200  0.186000  0.974800  1.0
  C  C2875  1  0.071000  0.819400  0.016500  1.0
  C  C2876  1  0.929000  0.180600  0.983500  1.0
  C  C2877  1  0.106000  0.810600  0.034800  1.0
  C  C2878  1  0.894000  0.189400  0.965200  1.0
  C  C2879  1  0.098700  0.796800  0.061100  1.0
  C  C2880  1  0.901300  0.203200  0.938900  1.0
  C  C2881  1  0.079100  0.834600  0.987700  1.0
  C  C2882  1  0.920900  0.165400  0.012300  1.0
  C  C2883  1  0.892600  0.928500  0.243000  1.0
  C  C2884  1  0.107400  0.071500  0.757000  1.0
  C  C2885  1  0.850800  0.921000  0.249900  1.0
  C  C2886  1  0.149200  0.079000  0.750100  1.0
  C  C2887  1  0.816100  0.932200  0.231400  1.0
  C  C2888  1  0.183900  0.067800  0.768600  1.0
  C  C2889  1  0.820800  0.951500  0.206000  1.0
  C  C2890  1  0.179200  0.048500  0.794000  1.0
  C  C2891  1  0.862200  0.959700  0.198800  1.0
  C  C2892  1  0.137800  0.040300  0.801200  1.0
  C  C2893  1  0.897400  0.947900  0.217400  1.0
  C  C2894  1  0.102600  0.052100  0.782600  1.0
  C  C2895  1  0.779700  0.963700  0.187700  1.0
  C  C2896  1  0.220300  0.036300  0.812300  1.0
  C  C2897  1  0.919300  0.909800  0.288200  1.0
  C  C2898  1  0.080700  0.090200  0.711800  1.0
  C  C2899  1  0.956600  0.896900  0.307700  1.0
  C  C2900  1  0.043400  0.103100  0.692300  1.0
  C  C2901  1  0.949200  0.892700  0.334300  1.0
  C  C2902  1  0.050800  0.107300  0.665700  1.0
  C  C2903  1  0.986100  0.879300  0.351400  1.0
  C  C2904  1  0.013900  0.120700  0.648600  1.0
  C  C2905  1  0.029600  0.870700  0.342200  1.0
  C  C2906  1  0.970400  0.129300  0.657800  1.0
  C  C2907  1  0.033600  0.876600  0.315300  1.0
  C  C2908  1  0.966400  0.123400  0.684700  1.0
  C  C2909  1  0.112000  0.865400  0.353000  1.0
  C  C2910  1  0.888000  0.134600  0.647000  1.0
  C  C2911  1  0.069700  0.858100  0.359800  1.0
  C  C2912  1  0.930300  0.141900  0.640200  1.0
  C  C2913  1  0.066400  0.836500  0.384800  1.0
  C  C2914  1  0.933600  0.163500  0.615200  1.0
  C  C2915  1  0.104200  0.822600  0.401200  1.0
  C  C2916  1  0.895800  0.177400  0.598800  1.0
  C  C2917  1  0.145600  0.830300  0.392800  1.0
  C  C2918  1  0.854400  0.169700  0.607200  1.0
  C  C2919  1  0.187000  0.815500  0.409200  1.0
  C  C2920  1  0.813000  0.184500  0.590800  1.0
  C  C2921  1  0.265800  0.809500  0.417800  1.0
  C  C2922  1  0.734200  0.190500  0.582200  1.0
  C  C2923  1  0.262400  0.808200  0.443800  1.0
  C  C2924  1  0.737600  0.191800  0.556200  1.0
  C  C2925  1  0.300100  0.796400  0.460500  1.0
  C  C2926  1  0.699900  0.203600  0.539500  1.0
  C  C2927  1  0.342500  0.785700  0.451000  1.0
  C  C2928  1  0.657500  0.214300  0.549000  1.0
  C  C2929  1  0.346300  0.787700  0.424800  1.0
  C  C2930  1  0.653700  0.212300  0.575200  1.0
  C  C2931  1  0.308300  0.799100  0.408400  1.0
  C  C2932  1  0.691700  0.200900  0.591600  1.0
  C  C2933  1  0.384700  0.771300  0.468300  1.0
  C  C2934  1  0.615300  0.228700  0.531700  1.0
  C  C2935  1  0.953200  0.824500  0.298700  1.0
  C  C2936  1  0.046800  0.175500  0.701300  1.0
  C  C2937  1  0.909100  0.823900  0.307100  1.0
  C  C2938  1  0.090900  0.176100  0.692900  1.0
  C  C2939  1  0.901600  0.810800  0.333600  1.0
  C  C2940  1  0.098400  0.189200  0.666400  1.0
  C  C2941  1  0.937400  0.797700  0.351600  1.0
  C  C2942  1  0.062600  0.202300  0.648400  1.0
  C  C2943  1  0.981200  0.797900  0.342800  1.0
  C  C2944  1  0.018800  0.202100  0.657200  1.0
  C  C2945  1  0.989600  0.811400  0.316500  1.0
  C  C2946  1  0.010400  0.188600  0.683500  1.0
  C  C2947  1  0.927900  0.783900  0.380500  1.0
  C  C2948  1  0.072100  0.216100  0.619500  1.0
  C  C2949  1  0.933000  0.840300  0.252800  1.0
  C  C2950  1  0.067000  0.159700  0.747200  1.0
  C  C2951  1  0.938200  0.859500  0.225500  1.0
  C  C2952  1  0.061800  0.140500  0.774500  1.0
  C  C2953  1  0.909900  0.860600  0.205500  1.0
  C  C2954  1  0.090100  0.139400  0.794500  1.0
  C  C2955  1  0.916200  0.878500  0.179800  1.0
  C  C2956  1  0.083800  0.121500  0.820200  1.0
  C  C2957  1  0.951200  0.895400  0.174500  1.0
  C  C2958  1  0.048800  0.104600  0.825500  1.0
  C  C2959  1  0.978400  0.893300  0.195500  1.0
  C  C2960  1  0.021600  0.106700  0.804500  1.0
  C  C2961  1  0.004000  0.913900  0.138800  1.0
  C  C2962  1  0.996000  0.086100  0.861200  1.0
  C  C2963  1  0.959600  0.914700  0.147100  1.0
  C  C2964  1  0.040400  0.085300  0.852900  1.0
  C  C2965  1  0.925500  0.933400  0.128700  1.0
  C  C2966  1  0.074500  0.066600  0.871300  1.0
  C  C2967  1  0.937600  0.950000  0.103700  1.0
  C  C2968  1  0.062400  0.050000  0.896300  1.0
  C  C2969  1  0.983300  0.947500  0.097500  1.0
  C  C2970  1  0.016700  0.052500  0.902500  1.0
  C  C2971  1  0.997700  0.964800  0.071200  1.0
  C  C2972  1  0.002300  0.035200  0.928800  1.0
  C  C2973  1  0.058100  0.977400  0.040600  1.0
  C  C2974  1  0.941900  0.022600  0.959400  1.0
  C  C2975  1  0.086300  0.998800  0.039500  1.0
  C  C2976  1  0.913700  0.001200  0.960500  1.0
  C  C2977  1  0.102900  0.015200  0.015600  1.0
  C  C2978  1  0.897100  0.984800  0.984400  1.0
  C  C2979  1  0.092900  0.009400  0.992900  1.0
  C  C2980  1  0.907100  0.990600  0.007100  1.0
  C  C2981  1  0.065500  0.987200  0.994500  1.0
  C  C2982  1  0.934500  0.012800  0.005500  1.0
  C  C2983  1  0.048000  0.971300  0.018100  1.0
  C  C2984  1  0.952000  0.028700  0.981900  1.0
  C  C2985  1  0.113500  0.026100  0.967500  1.0
  C  C2986  1  0.886500  0.973900  0.032500  1.0
  C  C2987  1  0.034800  0.953900  0.229200  1.0
  C  C2988  1  0.965200  0.046100  0.770800  1.0
  C  C2989  1  0.002700  0.969000  0.243200  1.0
  C  C2990  1  0.997300  0.031000  0.756800  1.0
  C  C2991  1  0.990500  0.003200  0.237000  1.0
  C  C2992  1  0.009500  0.996800  0.763000  1.0
  C  C2993  1  0.009200  0.023000  0.215800  1.0
  C  C2994  1  0.990800  0.977000  0.784200  1.0
  C  C2995  1  0.039100  0.008100  0.200600  1.0
  C  C2996  1  0.960900  0.991900  0.799400  1.0
  C  C2997  1  0.052200  0.974200  0.207100  1.0
  C  C2998  1  0.947800  0.025800  0.792900  1.0
  C  C2999  1  0.998200  0.060100  0.209400  1.0
  C  C3000  1  0.001800  0.939900  0.790600  1.0
  C  C3001  1  0.087500  0.903800  0.233700  1.0
  C  C3002  1  0.912500  0.096200  0.766300  1.0
  C  C3003  1  0.103900  0.867900  0.242700  1.0
  C  C3004  1  0.896100  0.132100  0.757300  1.0
  C  C3005  1  0.147300  0.853600  0.236300  1.0
  C  C3006  1  0.852700  0.146400  0.763700  1.0
  C  C3007  1  0.161000  0.819800  0.243600  1.0
  C  C3008  1  0.839000  0.180200  0.756400  1.0
  C  C3009  1  0.130900  0.801000  0.257100  1.0
  C  C3010  1  0.869100  0.199000  0.742900  1.0
  C  C3011  1  0.088800  0.817500  0.263100  1.0
  C  C3012  1  0.911200  0.182500  0.736900  1.0
  C  C3013  1  0.104200  0.747900  0.267700  1.0
  C  C3014  1  0.895800  0.252100  0.732300  1.0
  C  C3015  1  0.139600  0.764500  0.264100  1.0
  C  C3016  1  0.860400  0.235500  0.735900  1.0
  C  C3017  1  0.183500  0.745700  0.267700  1.0
  C  C3018  1  0.816500  0.254300  0.732300  1.0
  C  C3019  1  0.191000  0.711600  0.275000  1.0
  C  C3020  1  0.809000  0.288400  0.725000  1.0
  C  C3021  1  0.153800  0.697000  0.278500  1.0
  C  C3022  1  0.846200  0.303000  0.721500  1.0
  C  C3023  1  0.159100  0.661000  0.286400  1.0
  C  C3024  1  0.840900  0.339000  0.713600  1.0
  C  C3025  1  0.133000  0.612200  0.297600  1.0
  C  C3026  1  0.867000  0.387800  0.702400  1.0
  C  C3027  1  0.098700  0.598400  0.292600  1.0
  C  C3028  1  0.901300  0.401600  0.707400  1.0
  C  C3029  1  0.107800  0.564800  0.297000  1.0
  C  C3030  1  0.892200  0.435200  0.703000  1.0
  C  C3031  1  0.149700  0.545200  0.306700  1.0
  C  C3032  1  0.850300  0.454800  0.693300  1.0
  C  C3033  1  0.183600  0.559100  0.312000  1.0
  C  C3034  1  0.816400  0.440900  0.688000  1.0
  C  C3035  1  0.175700  0.592900  0.307300  1.0
  C  C3036  1  0.824300  0.407100  0.692700  1.0
  C  C3037  1  0.157800  0.508200  0.311700  1.0
  C  C3038  1  0.842200  0.491800  0.688300  1.0
  C  C3039  1  0.415600  0.942100  0.971300  1.0
  C  C3040  1  0.584400  0.057900  0.028700  1.0
  C  C3041  1  0.453200  0.941800  0.984800  1.0
  C  C3042  1  0.546800  0.058200  0.015200  1.0
  C  C3043  1  0.493600  0.945200  0.972000  1.0
  C  C3044  1  0.506400  0.054800  0.028000  1.0
  C  C3045  1  0.495300  0.948500  0.945700  1.0
  C  C3046  1  0.504700  0.051500  0.054300  1.0
  C  C3047  1  0.457800  0.948300  0.932100  1.0
  C  C3048  1  0.542200  0.051700  0.067900  1.0
  C  C3049  1  0.417500  0.944800  0.944800  1.0
  C  C3050  1  0.582500  0.055200  0.055200  1.0
  C  C3051  1  0.538000  0.953000  0.930400  1.0
  C  C3052  1  0.462000  0.047000  0.069600  1.0
  C  C3053  1  0.337500  0.948100  0.971700  1.0
  C  C3054  1  0.662500  0.051900  0.028300  1.0
  C  C3055  1  0.293800  0.943800  0.984000  1.0
  C  C3056  1  0.706200  0.056200  0.016000  1.0
  C  C3057  1  0.253900  0.954300  0.969200  1.0
  C  C3058  1  0.746100  0.045700  0.030800  1.0
  C  C3059  1  0.215400  0.945100  0.981400  1.0
  C  C3060  1  0.784600  0.054900  0.018600  1.0
  C  C3061  1  0.216500  0.926400  0.007700  1.0
  C  C3062  1  0.783500  0.073600  0.992300  1.0
  C  C3063  1  0.257800  0.918300  0.020800  1.0
  C  C3064  1  0.742200  0.081700  0.979200  1.0
  C  C3065  1  0.162700  0.915800  0.045300  1.0
  C  C3066  1  0.837300  0.084200  0.954700  1.0
  C  C3067  1  0.175400  0.915700  0.020100  1.0
  C  C3068  1  0.824600  0.084300  0.979900  1.0
  C  C3069  1  0.148000  0.903800  0.007000  1.0
  C  C3070  1  0.852000  0.096200  0.993000  1.0
  C  C3071  1  0.110600  0.892500  0.018800  1.0
  C  C3072  1  0.889400  0.107500  0.981200  1.0
  C  C3073  1  0.101000  0.893600  0.043900  1.0
  C  C3074  1  0.899000  0.106400  0.956100  1.0
  C  C3075  1  0.060900  0.881500  0.056300  1.0
  C  C3076  1  0.939100  0.118500  0.943700  1.0
  C  C3077  1  0.010300  0.871900  0.090600  1.0
  C  C3078  1  0.989700  0.128100  0.909400  1.0
  C  C3079  1  0.971100  0.879700  0.075500  1.0
  C  C3080  1  0.028900  0.120300  0.924500  1.0
  C  C3081  1  0.931800  0.870800  0.086600  1.0
  C  C3082  1  0.068200  0.129200  0.913400  1.0
  C  C3083  1  0.929400  0.854400  0.113100  1.0
  C  C3084  1  0.070600  0.145600  0.886900  1.0
  C  C3085  1  0.969200  0.846500  0.127600  1.0
  C  C3086  1  0.030800  0.153500  0.872400  1.0
  C  C3087  1  0.009100  0.854900  0.117200  1.0
  C  C3088  1  0.990900  0.145100  0.882800  1.0
  C  C3089  1  0.884900  0.847100  0.125500  1.0
  C  C3090  1  0.115100  0.152900  0.874500  1.0
  C  C3091  1  0.956400  0.739200  0.277800  1.0
  C  C3092  1  0.043600  0.260800  0.722200  1.0
  C  C3093  1  0.913300  0.735300  0.285700  1.0
  C  C3094  1  0.086700  0.264700  0.714300  1.0
  C  C3095  1  0.877200  0.747300  0.268200  1.0
  C  C3096  1  0.122800  0.252700  0.731800  1.0
  C  C3097  1  0.883500  0.764500  0.242300  1.0
  C  C3098  1  0.116500  0.235500  0.757700  1.0
  C  C3099  1  0.926200  0.769900  0.234500  1.0
  C  C3100  1  0.073800  0.230100  0.765500  1.0
  C  C3101  1  0.962700  0.757200  0.252000  1.0
  C  C3102  1  0.037300  0.242800  0.748000  1.0
  C  C3103  1  0.843300  0.776900  0.224000  1.0
  C  C3104  1  0.156700  0.223100  0.776000  1.0
  C  C3105  1  0.990200  0.723500  0.319900  1.0
  C  C3106  1  0.009800  0.276500  0.680100  1.0
  C  C3107  1  0.026400  0.707000  0.339800  1.0
  C  C3108  1  0.973600  0.293000  0.660200  1.0
  C  C3109  1  0.018200  0.707500  0.365300  1.0
  C  C3110  1  0.981800  0.292500  0.634700  1.0
  C  C3111  1  0.052500  0.692200  0.383900  1.0
  C  C3112  1  0.947500  0.307800  0.616100  1.0
  C  C3113  1  0.094000  0.676400  0.376500  1.0
  C  C3114  1  0.906000  0.323600  0.623500  1.0
  C  C3115  1  0.098700  0.676600  0.350700  1.0
  C  C3116  1  0.901300  0.323400  0.649300  1.0
  C  C3117  1  0.177200  0.666300  0.388900  1.0
  C  C3118  1  0.822800  0.333700  0.611100  1.0
  C  C3119  1  0.133200  0.662100  0.395300  1.0
  C  C3120  1  0.866800  0.337900  0.604700  1.0
  C  C3121  1  0.126400  0.643300  0.420600  1.0
  C  C3122  1  0.873600  0.356700  0.579400  1.0
  C  C3123  1  0.161500  0.629000  0.438900  1.0
  C  C3124  1  0.838500  0.371000  0.561100  1.0
  C  C3125  1  0.204100  0.634600  0.430900  1.0
  C  C3126  1  0.795900  0.365400  0.569100  1.0
  C  C3127  1  0.242400  0.621200  0.449700  1.0
  C  C3128  1  0.757600  0.378800  0.550300  1.0
  C  C3129  1  0.319100  0.617100  0.462400  1.0
  C  C3130  1  0.680900  0.382900  0.537600  1.0
  C  C3131  1  0.316500  0.613700  0.488800  1.0
  C  C3132  1  0.683500  0.386300  0.511200  1.0
  C  C3133  1  0.355200  0.604300  0.504500  1.0
  C  C3134  1  0.644800  0.395700  0.495500  1.0
  C  C3135  1  0.397900  0.597900  0.494200  1.0
  C  C3136  1  0.602100  0.402100  0.505800  1.0
  C  C3137  1  0.400400  0.602300  0.467600  1.0
  C  C3138  1  0.599600  0.397700  0.532400  1.0
  C  C3139  1  0.361800  0.611600  0.451900  1.0
  C  C3140  1  0.638200  0.388400  0.548100  1.0
  C  C3141  1  0.440900  0.585700  0.511000  1.0
  C  C3142  1  0.559100  0.414300  0.489000  1.0
  C  C3143  1  0.199500  0.941600  0.314300  1.0
  C  C3144  1  0.800500  0.058400  0.685700  1.0
  C  C3145  1  0.212200  0.962500  0.291300  1.0
  C  C3146  1  0.787800  0.037500  0.708700  1.0
  C  C3147  1  0.197800  0.996500  0.285100  1.0
  C  C3148  1  0.802200  0.003500  0.714900  1.0
  C  C3149  1  0.169500  0.010800  0.301600  1.0
  C  C3150  1  0.830500  0.989200  0.698400  1.0
  C  C3151  1  0.156400  0.990000  0.324500  1.0
  C  C3152  1  0.843600  0.010000  0.675500  1.0
  C  C3153  1  0.171800  0.956300  0.330600  1.0
  C  C3154  1  0.828200  0.043700  0.669400  1.0
  C  C3155  1  0.152400  0.047400  0.296500  1.0
  C  C3156  1  0.847600  0.952600  0.703500  1.0
  C  C3157  1  0.214700  0.892900  0.302200  1.0
  C  C3158  1  0.785300  0.107100  0.697800  1.0
  C  C3159  1  0.228700  0.857300  0.306300  1.0
  C  C3160  1  0.771300  0.142700  0.693700  1.0
  C  C3161  1  0.230500  0.843700  0.285900  1.0
  C  C3162  1  0.769500  0.156300  0.714100  1.0
  C  C3163  1  0.242900  0.809600  0.292400  1.0
  C  C3164  1  0.757100  0.190400  0.707600  1.0
  C  C3165  1  0.253300  0.790700  0.318500  1.0
  C  C3166  1  0.746700  0.209300  0.681500  1.0
  C  C3167  1  0.251400  0.806600  0.337300  1.0
  C  C3168  1  0.748600  0.193400  0.662700  1.0
  C  C3169  1  0.258500  0.734500  0.351300  1.0
  C  C3170  1  0.741500  0.265500  0.648700  1.0
  C  C3171  1  0.265700  0.754200  0.326300  1.0
  C  C3172  1  0.734300  0.245800  0.673700  1.0
  C  C3173  1  0.288600  0.739700  0.308400  1.0
  C  C3174  1  0.711400  0.260300  0.691600  1.0
  C  C3175  1  0.306000  0.706100  0.316400  1.0
  C  C3176  1  0.694000  0.293900  0.683600  1.0
  C  C3177  1  0.298900  0.688600  0.342100  1.0
  C  C3178  1  0.701100  0.311400  0.657900  1.0
  C  C3179  1  0.322600  0.653700  0.352100  1.0
  C  C3180  1  0.677400  0.346300  0.647900  1.0
  C  C3181  1  0.347400  0.605000  0.385400  1.0
  C  C3182  1  0.652600  0.395000  0.614600  1.0
  C  C3183  1  0.331500  0.581000  0.405000  1.0
  C  C3184  1  0.668500  0.419000  0.595000  1.0
  C  C3185  1  0.359000  0.549600  0.413500  1.0
  C  C3186  1  0.641000  0.450400  0.586500  1.0
  C  C3187  1  0.401000  0.541900  0.402600  1.0
  C  C3188  1  0.599000  0.458100  0.597400  1.0
  C  C3189  1  0.417300  0.566500  0.383600  1.0
  C  C3190  1  0.582700  0.433500  0.616400  1.0
  C  C3191  1  0.390600  0.598200  0.375000  1.0
  C  C3192  1  0.609400  0.401800  0.625000  1.0
  C  C3193  1  0.427900  0.506600  0.410800  1.0
  C  C3194  1  0.572100  0.493400  0.589200  1.0
  C  C3195  1  0.544100  0.920800  0.142400  1.0
  C  C3196  1  0.455900  0.079200  0.857600  1.0
  C  C3197  1  0.571600  0.936800  0.123900  1.0
  C  C3198  1  0.428400  0.063200  0.876100  1.0
  C  C3199  1  0.576300  0.968300  0.122200  1.0
  C  C3200  1  0.423700  0.031700  0.877800  1.0
  C  C3201  1  0.554500  0.984000  0.139600  1.0
  C  C3202  1  0.445500  0.016000  0.860400  1.0
  C  C3203  1  0.529300  0.967200  0.159400  1.0
  C  C3204  1  0.470700  0.032800  0.840600  1.0
  C  C3205  1  0.524300  0.936000  0.160800  1.0
  C  C3206  1  0.475700  0.064000  0.839200  1.0
  C  C3207  1  0.556200  0.018700  0.138600  1.0
  C  C3208  1  0.443800  0.981300  0.861400  1.0
  C  C3209  1  0.502000  0.878500  0.152700  1.0
  C  C3210  1  0.498000  0.121500  0.847300  1.0
  C  C3211  1  0.494600  0.845700  0.155300  1.0
  C  C3212  1  0.505400  0.154300  0.844700  1.0
  C  C3213  1  0.456600  0.836300  0.168200  1.0
  C  C3214  1  0.543400  0.163700  0.831800  1.0
  C  C3215  1  0.452300  0.804600  0.171300  1.0
  C  C3216  1  0.547700  0.195400  0.828700  1.0
  C  C3217  1  0.485500  0.784600  0.161200  1.0
  C  C3218  1  0.514500  0.215400  0.838800  1.0
  C  C3219  1  0.522200  0.796100  0.148100  1.0
  C  C3220  1  0.477800  0.203900  0.851900  1.0
  C  C3221  1  0.521700  0.726200  0.166100  1.0
  C  C3222  1  0.478300  0.273800  0.833900  1.0
  C  C3223  1  0.482300  0.750000  0.165700  1.0
  C  C3224  1  0.517700  0.250000  0.834300  1.0
  C  C3225  1  0.440400  0.741200  0.168900  1.0
  C  C3226  1  0.559600  0.258800  0.831100  1.0
  C  C3227  1  0.439700  0.708700  0.172300  1.0
  C  C3228  1  0.560300  0.291300  0.827700  1.0
  C  C3229  1  0.480400  0.686400  0.172200  1.0
  C  C3230  1  0.519600  0.313600  0.827800  1.0
  C  C3231  1  0.481000  0.652000  0.174300  1.0
  C  C3232  1  0.519000  0.348000  0.825700  1.0
  C  C3233  1  0.513600  0.598700  0.171400  1.0
  C  C3234  1  0.486400  0.401300  0.828600  1.0
  C  C3235  1  0.550400  0.580500  0.161900  1.0
  C  C3236  1  0.449600  0.419500  0.838100  1.0
  C  C3237  1  0.552000  0.548000  0.163600  1.0
  C  C3238  1  0.448000  0.452000  0.836400  1.0
  C  C3239  1  0.517000  0.532800  0.174700  1.0
  C  C3240  1  0.483000  0.467200  0.825300  1.0
  C  C3241  1  0.479500  0.551600  0.183000  1.0
  C  C3242  1  0.520500  0.448400  0.817000  1.0
  C  C3243  1  0.477500  0.584100  0.181200  1.0
  C  C3244  1  0.522500  0.415900  0.818800  1.0
  C  C3245  1  0.520000  0.496800  0.177900  1.0
  C  C3246  1  0.480000  0.503200  0.822100  1.0
  C  C3247  1  0.346000  0.717700  0.104200  1.0
  C  C3248  1  0.654000  0.282300  0.895800  1.0
  C  C3249  1  0.334900  0.728800  0.125600  1.0
  C  C3250  1  0.665100  0.271200  0.874400  1.0
  C  C3251  1  0.341200  0.759600  0.123800  1.0
  C  C3252  1  0.658800  0.240400  0.876200  1.0
  C  C3253  1  0.357600  0.777400  0.100500  1.0
  C  C3254  1  0.642400  0.222600  0.899500  1.0
  C  C3255  1  0.369800  0.763400  0.080600  1.0
  C  C3256  1  0.630200  0.236600  0.919400  1.0
  C  C3257  1  0.332400  0.687200  0.104900  1.0
  C  C3258  1  0.667600  0.312800  0.895100  1.0
  C  C3259  1  0.354400  0.834900  0.071900  1.0
  C  C3260  1  0.645600  0.165100  0.928100  1.0
  C  C3261  1  0.359100  0.812200  0.096900  1.0
  C  C3262  1  0.640900  0.187800  0.903100  1.0
  C  C3263  1  0.366700  0.821900  0.118200  1.0
  C  C3264  1  0.633300  0.178100  0.881800  1.0
  C  C3265  1  0.370000  0.854100  0.114100  1.0
  C  C3266  1  0.630000  0.145900  0.885900  1.0
  C  C3267  1  0.365600  0.875100  0.088400  1.0
  C  C3268  1  0.634400  0.124900  0.911600  1.0
  C  C3269  1  0.368200  0.909700  0.081800  1.0
  C  C3270  1  0.631800  0.090300  0.918200  1.0
  C  C3271  1  0.320100  0.646300  0.087700  1.0
  C  C3272  1  0.679900  0.353700  0.912300  1.0
  C  C3273  1  0.280600  0.639600  0.100100  1.0
  C  C3274  1  0.719400  0.360400  0.899900  1.0
  C  C3275  1  0.265800  0.611500  0.101400  1.0
  C  C3276  1  0.734200  0.388500  0.898600  1.0
  C  C3277  1  0.291800  0.588800  0.090300  1.0
  C  C3278  1  0.708200  0.411200  0.909700  1.0
  C  C3279  1  0.331800  0.595300  0.078400  1.0
  C  C3280  1  0.668200  0.404700  0.921600  1.0
  C  C3281  1  0.346500  0.623700  0.076500  1.0
  C  C3282  1  0.653500  0.376300  0.923500  1.0
  C  C3283  1  0.277000  0.558100  0.090300  1.0
  C  C3284  1  0.723000  0.441900  0.909700  1.0
  C  C3285  1  0.361800  0.962800  0.052600  1.0
  C  C3286  1  0.638200  0.037200  0.947400  1.0
  C  C3287  1  0.366600  0.982100  0.027200  1.0
  C  C3288  1  0.633400  0.017900  0.972800  1.0
  C  C3289  1  0.356900  0.016100  0.020800  1.0
  C  C3290  1  0.643100  0.983900  0.979200  1.0
  C  C3291  1  0.342100  0.032300  0.039000  1.0
  C  C3292  1  0.657900  0.967700  0.961000  1.0
  C  C3293  1  0.338800  0.012700  0.064500  1.0
  C  C3294  1  0.661200  0.987300  0.935500  1.0
  C  C3295  1  0.348700  0.978600  0.071300  1.0
  C  C3296  1  0.651300  0.021400  0.928700  1.0
  C  C3297  1  0.329900  0.069600  0.030700  1.0
  C  C3298  1  0.670100  0.930400  0.969300  1.0
  C  C3299  1  0.650600  0.602300  0.136500  1.0
  C  C3300  1  0.349400  0.397700  0.863500  1.0
  C  C3301  1  0.692800  0.604800  0.126100  1.0
  C  C3302  1  0.307200  0.395200  0.873900  1.0
  C  C3303  1  0.706100  0.597600  0.103300  1.0
  C  C3304  1  0.293900  0.402400  0.896700  1.0
  C  C3305  1  0.677100  0.587200  0.090100  1.0
  C  C3306  1  0.322900  0.412800  0.909900  1.0
  C  C3307  1  0.635000  0.584000  0.100700  1.0
  C  C3308  1  0.365000  0.416000  0.899300  1.0
  C  C3309  1  0.621400  0.591900  0.123300  1.0
  C  C3310  1  0.378600  0.408100  0.876700  1.0
  C  C3311  1  0.691000  0.581300  0.064400  1.0
  C  C3312  1  0.309000  0.418700  0.935600  1.0
  C  C3313  1  0.617500  0.642400  0.225300  1.0
  C  C3314  1  0.382500  0.357600  0.774700  1.0
  C  C3315  1  0.649700  0.636100  0.244700  1.0
  C  C3316  1  0.350300  0.363900  0.755300  1.0
  C  C3317  1  0.691200  0.615600  0.242500  1.0
  C  C3318  1  0.308800  0.384400  0.757500  1.0
  C  C3319  1  0.699000  0.603800  0.221300  1.0
  C  C3320  1  0.301000  0.396200  0.778700  1.0
  C  C3321  1  0.665000  0.612000  0.202600  1.0
  C  C3322  1  0.335000  0.388000  0.797400  1.0
  C  C3323  1  0.671300  0.602700  0.178600  1.0
  C  C3324  1  0.328700  0.397300  0.821400  1.0
  C  C3325  1  0.604500  0.654100  0.279900  1.0
  C  C3326  1  0.395500  0.345900  0.720100  1.0
  C  C3327  1  0.645200  0.650000  0.266800  1.0
  C  C3328  1  0.354800  0.350000  0.733200  1.0
  C  C3329  1  0.680100  0.660200  0.275600  1.0
  C  C3330  1  0.319900  0.339800  0.724400  1.0
  C  C3331  1  0.673800  0.674100  0.295600  1.0
  C  C3332  1  0.326200  0.325900  0.704400  1.0
  C  C3333  1  0.631500  0.677500  0.307000  1.0
  C  C3334  1  0.368500  0.322500  0.693000  1.0
  C  C3335  1  0.619700  0.692400  0.328000  1.0
  C  C3336  1  0.380300  0.307600  0.672000  1.0
  C  C3337  1  0.571300  0.707300  0.359400  1.0
  C  C3338  1  0.428700  0.292700  0.640600  1.0
  C  C3339  1  0.527200  0.720800  0.364800  1.0
  C  C3340  1  0.472800  0.279200  0.635200  1.0
  C  C3341  1  0.517400  0.731700  0.386300  1.0
  C  C3342  1  0.482600  0.268300  0.613700  1.0
  C  C3343  1  0.551800  0.728700  0.403500  1.0
  C  C3344  1  0.448200  0.271300  0.596500  1.0
  C  C3345  1  0.596400  0.715800  0.398300  1.0
  C  C3346  1  0.403600  0.284200  0.601700  1.0
  C  C3347  1  0.605800  0.705400  0.376400  1.0
  C  C3348  1  0.394200  0.294600  0.623600  1.0
  C  C3349  1  0.540400  0.737900  0.428100  1.0
  C  C3350  1  0.459600  0.262100  0.571900  1.0
  C  C3351  1  0.215700  0.719400  0.431300  1.0
  C  C3352  1  0.784300  0.280600  0.568700  1.0
  C  C3353  1  0.182500  0.726400  0.412400  1.0
  C  C3354  1  0.817500  0.273600  0.587600  1.0
  C  C3355  1  0.138100  0.737200  0.418800  1.0
  C  C3356  1  0.861900  0.262800  0.581200  1.0
  C  C3357  1  0.127000  0.740000  0.443400  1.0
  C  C3358  1  0.873000  0.260000  0.556600  1.0
  C  C3359  1  0.160800  0.731700  0.462300  1.0
  C  C3360  1  0.839200  0.268300  0.537700  1.0
  C  C3361  1  0.205500  0.721400  0.456400  1.0
  C  C3362  1  0.794500  0.278600  0.543600  1.0
  C  C3363  1  0.077700  0.751800  0.449500  1.0
  C  C3364  1  0.922300  0.248200  0.550500  1.0
  C  C3365  1  0.295300  0.711700  0.434700  1.0
  C  C3366  1  0.704700  0.288300  0.565300  1.0
  C  C3367  1  0.341900  0.696500  0.429600  1.0
  C  C3368  1  0.658100  0.303500  0.570400  1.0
  C  C3369  1  0.377900  0.702700  0.440900  1.0
  C  C3370  1  0.622100  0.297300  0.559100  1.0
  C  C3371  1  0.420700  0.690000  0.433600  1.0
  C  C3372  1  0.579300  0.310000  0.566400  1.0
  C  C3373  1  0.425800  0.671900  0.416200  1.0
  C  C3374  1  0.574200  0.328100  0.583800  1.0
  C  C3375  1  0.387900  0.666500  0.406200  1.0
  C  C3376  1  0.612100  0.333500  0.593800  1.0
  C  C3377  1  0.478600  0.657000  0.383400  1.0
  C  C3378  1  0.521400  0.343000  0.616600  1.0
  C  C3379  1  0.471600  0.657200  0.409100  1.0
  C  C3380  1  0.528400  0.342800  0.590900  1.0
  C  C3381  1  0.507500  0.643100  0.427300  1.0
  C  C3382  1  0.492500  0.356900  0.572700  1.0
  C  C3383  1  0.548900  0.628500  0.419100  1.0
  C  C3384  1  0.451100  0.371500  0.580900  1.0
  C  C3385  1  0.553000  0.629400  0.393000  1.0
  C  C3386  1  0.447000  0.370600  0.607000  1.0
  C  C3387  1  0.594800  0.616300  0.381100  1.0
  C  C3388  1  0.405200  0.383700  0.618900  1.0
  C  C3389  1  0.637500  0.603400  0.348000  1.0
  C  C3390  1  0.362500  0.396600  0.652000  1.0
  C  C3391  1  0.641800  0.588500  0.328400  1.0
  C  C3392  1  0.358200  0.411500  0.671600  1.0
  C  C3393  1  0.684200  0.576000  0.320100  1.0
  C  C3394  1  0.315800  0.424000  0.679900  1.0
  C  C3395  1  0.723100  0.578600  0.331000  1.0
  C  C3396  1  0.276900  0.421400  0.669000  1.0
  C  C3397  1  0.719000  0.592500  0.350900  1.0
  C  C3398  1  0.281000  0.407500  0.649100  1.0
  C  C3399  1  0.676800  0.604800  0.359600  1.0
  C  C3400  1  0.323200  0.395200  0.640400  1.0
  C  C3401  1  0.769800  0.567600  0.320900  1.0
  C  C3402  1  0.230200  0.432400  0.679100  1.0
  C  C3403  1  0.502200  0.591700  0.324500  1.0
  C  C3404  1  0.497800  0.408300  0.675500  1.0
  C  C3405  1  0.531900  0.571000  0.344700  1.0
  C  C3406  1  0.468100  0.429000  0.655300  1.0
  C  C3407  1  0.536700  0.537000  0.352100  1.0
  C  C3408  1  0.463300  0.463000  0.647900  1.0
  C  C3409  1  0.512500  0.523200  0.339000  1.0
  C  C3410  1  0.487500  0.476800  0.661000  1.0
  C  C3411  1  0.484800  0.544000  0.318000  1.0
  C  C3412  1  0.515200  0.456000  0.682000  1.0
  C  C3413  1  0.479500  0.577900  0.310400  1.0
  C  C3414  1  0.520500  0.422100  0.689600  1.0
  C  C3415  1  0.514400  0.486500  0.347000  1.0
  C  C3416  1  0.485600  0.513500  0.653000  1.0
  C  C3417  1  0.457000  0.644500  0.305000  1.0
  C  C3418  1  0.543000  0.355500  0.695000  1.0
  C  C3419  1  0.447100  0.680600  0.298000  1.0
  C  C3420  1  0.552900  0.319400  0.702000  1.0
  C  C3421  1  0.410600  0.701200  0.282000  1.0
  C  C3422  1  0.589400  0.298800  0.718000  1.0
  C  C3423  1  0.408800  0.734500  0.272300  1.0
  C  C3424  1  0.591200  0.265500  0.727700  1.0
  C  C3425  1  0.443200  0.746900  0.279400  1.0
  C  C3426  1  0.556800  0.253100  0.720600  1.0
  C  C3427  1  0.477000  0.724700  0.296700  1.0
  C  C3428  1  0.523000  0.275300  0.703300  1.0
  C  C3429  1  0.463600  0.798600  0.280900  1.0
  C  C3430  1  0.536400  0.201400  0.719100  1.0
  C  C3431  1  0.442800  0.782600  0.268000  1.0
  C  C3432  1  0.557200  0.217400  0.732000  1.0
  C  C3433  1  0.421800  0.801200  0.243900  1.0
  C  C3434  1  0.578200  0.198800  0.756100  1.0
  C  C3435  1  0.421800  0.834300  0.233700  1.0
  C  C3436  1  0.578200  0.165700  0.766300  1.0
  C  C3437  1  0.443600  0.848000  0.248300  1.0
  C  C3438  1  0.556400  0.152000  0.751700  1.0
  C  C3439  1  0.445900  0.882800  0.238400  1.0
  C  C3440  1  0.554100  0.117200  0.761600  1.0
  C  C3441  1  0.465700  0.930300  0.239900  1.0
  C  C3442  1  0.534300  0.069700  0.760100  1.0
  C  C3443  1  0.434200  0.950900  0.220600  1.0
  C  C3444  1  0.565800  0.049100  0.779400  1.0
  C  C3445  1  0.436500  0.983500  0.208800  1.0
  C  C3446  1  0.563500  0.016500  0.791200  1.0
  C  C3447  1  0.470300  0.996000  0.216100  1.0
  C  C3448  1  0.529700  0.004000  0.783900  1.0
  C  C3449  1  0.501400  0.975500  0.235800  1.0
  C  C3450  1  0.498600  0.024500  0.764200  1.0
  C  C3451  1  0.498800  0.943000  0.247600  1.0
  C  C3452  1  0.501200  0.057000  0.752400  1.0
  C  C3453  1  0.473700  0.031300  0.202600  1.0
  C  C3454  1  0.526300  0.968700  0.797400  1.0
  C  C3455  1  0.593400  0.792100  0.311400  1.0
  C  C3456  1  0.406600  0.207900  0.688600  1.0
  C  C3457  1  0.600800  0.781400  0.289500  1.0
  C  C3458  1  0.399200  0.218600  0.710500  1.0
  C  C3459  1  0.644000  0.767200  0.283400  1.0
  C  C3460  1  0.356000  0.232800  0.716600  1.0
  C  C3461  1  0.682000  0.763400  0.298500  1.0
  C  C3462  1  0.318000  0.236600  0.701500  1.0
  C  C3463  1  0.674700  0.774200  0.320300  1.0
  C  C3464  1  0.325300  0.225800  0.679700  1.0
  C  C3465  1  0.631500  0.788200  0.326700  1.0
  C  C3466  1  0.368500  0.211800  0.673300  1.0
  C  C3467  1  0.729500  0.749000  0.291700  1.0
  C  C3468  1  0.270500  0.251000  0.708300  1.0
  C  C3469  1  0.538500  0.807400  0.339500  1.0
  C  C3470  1  0.461500  0.192600  0.660500  1.0
  C  C3471  1  0.496400  0.822600  0.349700  1.0
  C  C3472  1  0.503600  0.177400  0.650300  1.0
  C  C3473  1  0.489200  0.817100  0.376400  1.0
  C  C3474  1  0.510800  0.182900  0.623600  1.0
  C  C3475  1  0.447200  0.831900  0.383800  1.0
  C  C3476  1  0.552800  0.168100  0.616200  1.0
  C  C3477  1  0.413800  0.850800  0.365200  1.0
  C  C3478  1  0.586200  0.149200  0.634800  1.0
  C  C3479  1  0.424200  0.854800  0.339100  1.0
  C  C3480  1  0.575800  0.145200  0.660900  1.0
  C  C3481  1  0.328400  0.866000  0.363300  1.0
  C  C3482  1  0.671600  0.134000  0.636700  1.0
  C  C3483  1  0.369100  0.865700  0.374500  1.0
  C  C3484  1  0.630900  0.134300  0.625500  1.0
  C  C3485  1  0.367100  0.879800  0.394500  1.0
  C  C3486  1  0.632900  0.120200  0.605500  1.0
  C  C3487  1  0.325700  0.893500  0.403100  1.0
  C  C3488  1  0.674300  0.106500  0.596900  1.0
  C  C3489  1  0.286700  0.892200  0.391200  1.0
  C  C3490  1  0.713300  0.107800  0.608800  1.0
  C  C3491  1  0.241300  0.904300  0.400200  1.0
  C  C3492  1  0.758700  0.095700  0.599800  1.0
  C  C3493  1  0.157700  0.913600  0.394600  1.0
  C  C3494  1  0.842300  0.086400  0.605400  1.0
  C  C3495  1  0.132900  0.907100  0.417300  1.0
  C  C3496  1  0.867100  0.092900  0.582700  1.0
  C  C3497  1  0.086100  0.916600  0.414400  1.0
  C  C3498  1  0.913900  0.083400  0.585600  1.0
  C  C3499  1  0.063100  0.932200  0.390600  1.0
  C  C3500  1  0.936900  0.067800  0.609400  1.0
  C  C3501  1  0.087900  0.939700  0.367900  1.0
  C  C3502  1  0.912100  0.060300  0.632100  1.0
  C  C3503  1  0.134700  0.930300  0.370700  1.0
  C  C3504  1  0.865300  0.069700  0.629300  1.0
  C  C3505  1  0.011900  0.941700  0.387300  1.0
  C  C3506  1  0.988100  0.058300  0.612700  1.0
  C  C3507  1  0.670600  0.692200  0.167600  1.0
  C  C3508  1  0.329400  0.307800  0.832400  1.0
  C  C3509  1  0.655200  0.707400  0.186200  1.0
  C  C3510  1  0.344800  0.292600  0.813800  1.0
  C  C3511  1  0.685200  0.711500  0.202800  1.0
  C  C3512  1  0.314800  0.288500  0.797200  1.0
  C  C3513  1  0.731400  0.699700  0.201200  1.0
  C  C3514  1  0.268600  0.300300  0.798800  1.0
  C  C3515  1  0.746500  0.683200  0.183000  1.0
  C  C3516  1  0.253500  0.316800  0.817000  1.0
  C  C3517  1  0.717000  0.679000  0.166200  1.0
  C  C3518  1  0.283000  0.321000  0.833800  1.0
  C  C3519  1  0.764800  0.705400  0.218200  1.0
  C  C3520  1  0.235200  0.294600  0.781800  1.0
  C  C3521  1  0.472200  0.688200  0.061900  1.0
  C  C3522  1  0.527800  0.311800  0.938100  1.0
  C  C3523  1  0.518300  0.680400  0.057000  1.0
  C  C3524  1  0.481700  0.319600  0.943000  1.0
  C  C3525  1  0.530400  0.674600  0.033400  1.0
  C  C3526  1  0.469600  0.325400  0.966600  1.0
  C  C3527  1  0.497800  0.676900  0.015400  1.0
  C  C3528  1  0.502200  0.323100  0.984600  1.0
  C  C3529  1  0.452800  0.683900  0.022500  1.0
  C  C3530  1  0.547200  0.316100  0.977500  1.0
  C  C3531  1  0.414500  0.682800  0.007400  1.0
  C  C3532  1  0.585500  0.317200  0.992600  1.0
  C  C3533  1  0.341700  0.682800  0.998900  1.0
  C  C3534  1  0.658300  0.317200  0.001100  1.0
  C  C3535  1  0.299200  0.677100  0.006900  1.0
  C  C3536  1  0.700800  0.322900  0.993100  1.0
  C  C3537  1  0.268300  0.676100  0.989200  1.0
  C  C3538  1  0.731700  0.323900  0.010800  1.0
  C  C3539  1  0.278800  0.680700  0.963200  1.0
  C  C3540  1  0.721200  0.319300  0.036800  1.0
  C  C3541  1  0.321900  0.685400  0.955700  1.0
  C  C3542  1  0.678100  0.314600  0.044300  1.0
  C  C3543  1  0.353400  0.686500  0.972900  1.0
  C  C3544  1  0.646600  0.313500  0.027100  1.0
  C  C3545  1  0.245000  0.681100  0.943200  1.0
  C  C3546  1  0.755000  0.318900  0.056800  1.0
  C  C3547  1  0.545400  0.673400  0.102700  1.0
  C  C3548  1  0.454600  0.326600  0.897300  1.0
  C  C3549  1  0.552100  0.680400  0.076000  1.0
  C  C3550  1  0.447900  0.319600  0.924000  1.0
  C  C3551  1  0.591700  0.690600  0.066000  1.0
  C  C3552  1  0.408300  0.309400  0.934000  1.0
  C  C3553  1  0.622000  0.693600  0.083100  1.0
  C  C3554  1  0.378000  0.306400  0.916900  1.0
  C  C3555  1  0.611300  0.686800  0.109200  1.0
  C  C3556  1  0.388700  0.313200  0.890800  1.0
  C  C3557  1  0.641300  0.691000  0.127800  1.0
  C  C3558  1  0.358700  0.309000  0.872200  1.0
  C  C3559  1  0.283900  0.846600  0.201100  1.0
  C  C3560  1  0.716100  0.153400  0.798900  1.0
  C  C3561  1  0.316500  0.721800  0.213100  1.0
  C  C3562  1  0.683500  0.278200  0.786900  1.0
  C  C3563  1  0.196100  0.346300  0.256700  0.488
  C  C3564  1  0.803900  0.653700  0.743300  0.488
  C  C3565  1  0.225900  0.216400  0.292500  0.488
  C  C3566  1  0.774100  0.783600  0.707500  0.488
  C  C3567  1  0.203500  0.217100  0.291900  0.512
  C  C3568  1  0.796500  0.782900  0.708100  0.512
  C  C3569  1  0.191500  0.350200  0.258400  0.512
  C  C3570  1  0.808500  0.649800  0.741600  0.512
  S  S3571  1  0.331500  0.763000  0.200000  0.403
  S  S3572  1  0.668500  0.237000  0.800000  0.403
  S  S3573  1  0.291200  0.811700  0.222000  0.403
  S  S3574  1  0.708800  0.188300  0.778000  0.403
  S  S3575  1  0.195600  0.255200  0.269300  0.488
  S  S3576  1  0.804400  0.744800  0.730700  0.488
  S  S3577  1  0.216800  0.309000  0.284300  0.488
  S  S3578  1  0.783200  0.691000  0.715700  0.488
  S  S3579  1  0.180900  0.310200  0.259600  0.512
  S  S3580  1  0.819100  0.689800  0.740400  0.512
  S  S3581  1  0.221300  0.249100  0.301700  0.512
  S  S3582  1  0.778700  0.750900  0.698300  0.512
  S  S3583  1  0.293600  0.754500  0.227900  0.597
  S  S3584  1  0.706400  0.245500  0.772100  0.597
  S  S3585  1  0.316000  0.811600  0.191100  0.597
  S  S3586  1  0.684000  0.188400  0.808900  0.597
  N  N3587  1  0.933700  0.224000  0.185500  1.0
  N  N3588  1  0.066300  0.776000  0.814500  1.0
  N  N3589  1  0.862900  0.210200  0.218100  1.0
  N  N3590  1  0.137100  0.789800  0.781900  1.0
  N  N3591  1  0.163400  0.241400  0.091800  1.0
  N  N3592  1  0.836600  0.758600  0.908200  1.0
  N  N3593  1  0.088800  0.228200  0.121800  1.0
  N  N3594  1  0.911200  0.771800  0.878200  1.0
  N  N3595  1  0.934500  0.189400  0.367100  1.0
  N  N3596  1  0.065500  0.810600  0.632900  1.0
  N  N3597  1  0.887200  0.246600  0.261300  1.0
  N  N3598  1  0.112800  0.753400  0.738700  1.0
  N  N3599  1  0.961300  0.148800  0.416400  1.0
  N  N3600  1  0.038700  0.851200  0.583600  1.0
  N  N3601  1  0.871800  0.282900  0.209800  1.0
  N  N3602  1  0.128200  0.717100  0.790200  1.0
  N  N3603  1  0.153900  0.439100  0.035100  1.0
  N  N3604  1  0.846100  0.560900  0.964900  1.0
  N  N3605  1  0.088700  0.423300  0.071900  1.0
  N  N3606  1  0.911300  0.576700  0.928100  1.0
  N  N3607  1  0.943100  0.412900  0.142700  1.0
  N  N3608  1  0.056900  0.587100  0.857300  1.0
  N  N3609  1  0.878200  0.393900  0.178700  1.0
  N  N3610  1  0.121800  0.606100  0.821300  1.0
  N  N3611  1  0.467900  0.398500  0.140000  1.0
  N  N3612  1  0.532100  0.601500  0.860000  1.0
  N  N3613  1  0.395900  0.383400  0.122700  1.0
  N  N3614  1  0.604100  0.616600  0.877300  1.0
  N  N3615  1  0.237300  0.369900  0.077900  1.0
  N  N3616  1  0.762700  0.630100  0.922100  1.0
  N  N3617  1  0.163100  0.353200  0.063800  1.0
  N  N3618  1  0.836900  0.646800  0.936200  1.0
  N  N3619  1  0.195300  0.146300  0.481800  1.0
  N  N3620  1  0.804700  0.853700  0.518200  1.0
  N  N3621  1  0.024000  0.198400  0.427000  1.0
  N  N3622  1  0.976000  0.801600  0.573000  1.0
  N  N3623  1  0.274700  0.116700  0.513600  1.0
  N  N3624  1  0.725300  0.883300  0.486400  1.0
  N  N3625  1  0.943600  0.234200  0.400500  1.0
  N  N3626  1  0.056400  0.765800  0.599500  1.0
  N  N3627  1  0.480800  0.211000  0.178000  1.0
  N  N3628  1  0.519200  0.789000  0.822000  1.0
  N  N3629  1  0.406400  0.187100  0.168700  1.0
  N  N3630  1  0.593600  0.812900  0.831300  1.0
  N  N3631  1  0.236100  0.176400  0.129000  1.0
  N  N3632  1  0.763900  0.823600  0.871000  1.0
  N  N3633  1  0.163400  0.167200  0.108700  1.0
  N  N3634  1  0.836600  0.832800  0.891300  1.0
  N  N3635  1  0.488300  0.396500  0.338400  1.0
  N  N3636  1  0.511700  0.603500  0.661600  1.0
  N  N3637  1  0.483800  0.378100  0.294700  1.0
  N  N3638  1  0.516200  0.621900  0.705300  1.0
  N  N3639  1  0.472900  0.346000  0.201000  1.0
  N  N3640  1  0.527100  0.654000  0.799000  1.0
  N  N3641  1  0.470000  0.321600  0.159600  1.0
  N  N3642  1  0.530000  0.678400  0.840400  1.0
  N  N3643  1  0.171300  0.431500  0.105500  1.0
  N  N3644  1  0.828700  0.568500  0.894500  1.0
  N  N3645  1  0.159400  0.368500  0.124500  1.0
  N  N3646  1  0.840600  0.631500  0.875500  1.0
  N  N3647  1  0.167400  0.231000  0.161100  1.0
  N  N3648  1  0.832600  0.769000  0.838900  1.0
  N  N3649  1  0.160000  0.166100  0.177600  1.0
  N  N3650  1  0.840000  0.833900  0.822400  1.0
  N  N3651  1  0.366100  0.337900  0.189800  1.0
  N  N3652  1  0.633900  0.662100  0.810200  1.0
  N  N3653  1  0.355900  0.405300  0.175900  1.0
  N  N3654  1  0.644100  0.594700  0.824100  1.0
  N  N3655  1  0.393500  0.200100  0.228300  1.0
  N  N3656  1  0.606500  0.799900  0.771700  1.0
  N  N3657  1  0.416800  0.133800  0.252000  1.0
  N  N3658  1  0.583200  0.866200  0.748000  1.0
  N  N3659  1  0.982900  0.187200  0.252000  1.0
  N  N3660  1  0.017100  0.812800  0.748000  1.0
  N  N3661  1  0.990200  0.251300  0.230500  1.0
  N  N3662  1  0.009800  0.748700  0.769500  1.0
  N  N3663  1  0.993300  0.386400  0.199800  1.0
  N  N3664  1  0.006700  0.613600  0.800200  1.0
  N  N3665  1  0.994800  0.452400  0.181000  1.0
  N  N3666  1  0.005200  0.547600  0.819000  1.0
  N  N3667  1  0.539100  0.209700  0.368000  1.0
  N  N3668  1  0.460900  0.790300  0.632000  1.0
  N  N3669  1  0.536800  0.182600  0.328100  1.0
  N  N3670  1  0.463200  0.817400  0.671900  1.0
  N  N3671  1  0.510200  0.152000  0.235900  1.0
  N  N3672  1  0.489800  0.848000  0.764100  1.0
  N  N3673  1  0.504500  0.133000  0.190100  1.0
  N  N3674  1  0.495500  0.867000  0.809900  1.0
  N  N3675  1  0.865300  0.474500  0.157900  1.0
  N  N3676  1  0.134700  0.525500  0.842100  1.0
  N  N3677  1  0.883900  0.443700  0.212100  1.0
  N  N3678  1  0.116100  0.556300  0.787900  1.0
  N  N3679  1  0.902800  0.387000  0.324000  1.0
  N  N3680  1  0.097200  0.613000  0.676000  1.0
  N  N3681  1  0.911000  0.352300  0.374300  1.0
  N  N3682  1  0.089000  0.647700  0.625700  1.0
  N  N3683  1  0.568400  0.133500  0.385900  1.0
  N  N3684  1  0.431600  0.866500  0.614100  1.0
  N  N3685  1  0.493700  0.152900  0.414100  1.0
  N  N3686  1  0.506300  0.847100  0.585900  1.0
  N  N3687  1  0.336100  0.174400  0.472900  1.0
  N  N3688  1  0.663900  0.825600  0.527100  1.0
  N  N3689  1  0.256500  0.199200  0.494100  1.0
  N  N3690  1  0.743500  0.800800  0.505900  1.0
  N  N3691  1  0.504800  0.316700  0.352400  1.0
  N  N3692  1  0.495200  0.683300  0.647600  1.0
  N  N3693  1  0.431000  0.347000  0.378600  1.0
  N  N3694  1  0.569000  0.653000  0.621400  1.0
  N  N3695  1  0.271500  0.372000  0.435800  1.0
  N  N3696  1  0.728500  0.628000  0.564200  1.0
  N  N3697  1  0.193600  0.392800  0.462400  1.0
  N  N3698  1  0.806400  0.607200  0.537600  1.0
  N  N3699  1  0.007100  0.426900  0.333500  1.0
  N  N3700  1  0.992900  0.573100  0.666500  1.0
  N  N3701  1  0.017600  0.358500  0.342600  1.0
  N  N3702  1  0.982400  0.641500  0.657400  1.0
  N  N3703  1  0.036000  0.223100  0.357900  1.0
  N  N3704  1  0.964000  0.776900  0.642100  1.0
  N  N3705  1  0.039600  0.159500  0.362900  1.0
  N  N3706  1  0.960400  0.840500  0.637100  1.0
  N  N3707  1  0.179200  0.398900  0.392200  1.0
  N  N3708  1  0.820800  0.601100  0.607800  1.0
  N  N3709  1  0.260800  0.191900  0.428700  1.0
  N  N3710  1  0.739200  0.808100  0.571300  1.0
  N  N3711  1  0.290700  0.125600  0.441800  1.0
  N  N3712  1  0.709300  0.874400  0.558200  1.0
  N  N3713  1  0.221100  0.331400  0.402400  1.0
  N  N3714  1  0.778900  0.668600  0.597600  1.0
  N  N3715  1  0.887900  0.435100  0.362900  1.0
  N  N3716  1  0.112100  0.564900  0.637100  1.0
  N  N3717  1  0.968400  0.396000  0.392100  1.0
  N  N3718  1  0.031600  0.604000  0.607900  1.0
  N  N3719  1  0.132100  0.346000  0.448400  1.0
  N  N3720  1  0.867900  0.654000  0.551600  1.0
  N  N3721  1  0.211600  0.314500  0.471000  1.0
  N  N3722  1  0.788400  0.685500  0.529000  1.0
  N  N3723  1  0.461500  0.133500  0.358500  1.0
  N  N3724  1  0.538500  0.866500  0.641500  1.0
  N  N3725  1  0.368500  0.400700  0.319900  1.0
  N  N3726  1  0.631500  0.599300  0.680100  1.0
  N  N3727  1  0.429300  0.200300  0.353800  1.0
  N  N3728  1  0.570700  0.799700  0.646200  1.0
  N  N3729  1  0.389200  0.337200  0.325300  1.0
  N  N3730  1  0.610800  0.662800  0.674700  1.0
  N  N3731  1  0.539800  0.888200  0.307200  1.0
  N  N3732  1  0.460200  0.111800  0.692800  1.0
  N  N3733  1  0.566900  0.861500  0.266900  1.0
  N  N3734  1  0.433100  0.138500  0.733100  1.0
  N  N3735  1  0.623000  0.825300  0.175700  1.0
  N  N3736  1  0.377000  0.174700  0.824300  1.0
  N  N3737  1  0.646600  0.799100  0.135800  1.0
  N  N3738  1  0.353400  0.200900  0.864200  1.0
  N  N3739  1  0.052100  0.695900  0.105800  1.0
  N  N3740  1  0.947900  0.304100  0.894200  1.0
  N  N3741  1  0.126500  0.715900  0.080900  1.0
  N  N3742  1  0.873500  0.284100  0.919100  1.0
  N  N3743  1  0.288100  0.738700  0.031500  1.0
  N  N3744  1  0.711900  0.261300  0.968500  1.0
  N  N3745  1  0.368200  0.758400  0.011100  1.0
  N  N3746  1  0.631800  0.241600  0.988900  1.0
  N  N3747  1  0.165700  0.676600  0.140400  1.0
  N  N3748  1  0.834300  0.323400  0.859600  1.0
  N  N3749  1  0.155300  0.742700  0.135400  1.0
  N  N3750  1  0.844700  0.257300  0.864600  1.0
  N  N3751  1  0.129500  0.878000  0.128200  1.0
  N  N3752  1  0.870500  0.122000  0.871800  1.0
  N  N3753  1  0.106100  0.940200  0.130200  1.0
  N  N3754  1  0.893900  0.059800  0.869800  1.0
  N  N3755  1  0.371700  0.861500  0.001200  1.0
  N  N3756  1  0.628300  0.138500  0.998800  1.0
  N  N3757  1  0.441700  0.875200  0.024500  1.0
  N  N3758  1  0.558300  0.124800  0.975500  1.0
  N  N3759  1  0.586500  0.866800  0.089800  1.0
  N  N3760  1  0.413500  0.133200  0.910200  1.0
  N  N3761  1  0.653100  0.871900  0.119800  1.0
  N  N3762  1  0.346900  0.128100  0.880200  1.0
  N  N3763  1  0.006300  0.646200  0.309500  1.0
  N  N3764  1  0.993700  0.353800  0.690500  1.0
  N  N3765  1  0.019100  0.678800  0.257000  1.0
  N  N3766  1  0.980900  0.321200  0.743000  1.0
  N  N3767  1  0.043600  0.735800  0.148500  1.0
  N  N3768  1  0.956400  0.264200  0.851500  1.0
  N  N3769  1  0.049700  0.773100  0.095700  1.0
  N  N3770  1  0.950300  0.226900  0.904300  1.0
  N  N3771  1  0.925000  0.917200  0.263800  1.0
  N  N3772  1  0.075000  0.082800  0.736200  1.0
  N  N3773  1  0.998300  0.889600  0.298400  1.0
  N  N3774  1  0.001700  0.110400  0.701600  1.0
  N  N3775  1  0.148600  0.852000  0.369000  1.0
  N  N3776  1  0.851400  0.148000  0.631000  1.0
  N  N3777  1  0.225900  0.820800  0.401700  1.0
  N  N3778  1  0.774100  0.179200  0.598300  1.0
  N  N3779  1  0.958100  0.837400  0.271400  1.0
  N  N3780  1  0.041900  0.162600  0.728600  1.0
  N  N3781  1  0.971800  0.876000  0.220200  1.0
  N  N3782  1  0.028200  0.124000  0.779800  1.0
  N  N3783  1  0.017300  0.929400  0.114700  1.0
  N  N3784  1  0.982700  0.070600  0.885300  1.0
  N  N3785  1  0.037800  0.963600  0.064800  1.0
  N  N3786  1  0.962200  0.036400  0.935200  1.0
  N  N3787  1  0.048800  0.919100  0.238100  1.0
  N  N3788  1  0.951200  0.080900  0.761900  1.0
  N  N3789  1  0.074100  0.850300  0.256300  1.0
  N  N3790  1  0.925900  0.149700  0.743700  1.0
  N  N3791  1  0.110700  0.714900  0.275100  1.0
  N  N3792  1  0.889300  0.285100  0.724900  1.0
  N  N3793  1  0.124300  0.647200  0.291200  1.0
  N  N3794  1  0.875700  0.352800  0.708800  1.0
  N  N3795  1  0.374600  0.938500  0.984600  1.0
  N  N3796  1  0.625400  0.061500  0.015400  1.0
  N  N3797  1  0.296000  0.926700  0.009700  1.0
  N  N3798  1  0.704000  0.073300  0.990300  1.0
  N  N3799  1  0.126100  0.905600  0.057000  1.0
  N  N3800  1  0.873900  0.094400  0.943000  1.0
  N  N3801  1  0.050600  0.881800  0.079400  1.0
  N  N3802  1  0.949400  0.118200  0.920600  1.0
  N  N3803  1  0.992700  0.727200  0.296200  1.0
  N  N3804  1  0.007300  0.272800  0.703800  1.0
  N  N3805  1  0.066200  0.692000  0.332200  1.0
  N  N3806  1  0.933800  0.308000  0.667800  1.0
  N  N3807  1  0.211500  0.653000  0.406500  1.0
  N  N3808  1  0.788500  0.347000  0.593500  1.0
  N  N3809  1  0.280800  0.625800  0.445500  1.0
  N  N3810  1  0.719200  0.374200  0.554500  1.0
  N  N3811  1  0.207900  0.906900  0.319500  1.0
  N  N3812  1  0.792100  0.093100  0.680500  1.0
  N  N3813  1  0.238900  0.839500  0.331500  1.0
  N  N3814  1  0.761100  0.160500  0.668500  1.0
  N  N3815  1  0.274900  0.701800  0.359500  1.0
  N  N3816  1  0.725100  0.298200  0.640500  1.0
  N  N3817  1  0.318700  0.637100  0.375400  1.0
  N  N3818  1  0.681300  0.362900  0.624600  1.0
  N  N3819  1  0.534900  0.890500  0.142200  1.0
  N  N3820  1  0.465100  0.109500  0.857800  1.0
  N  N3821  1  0.526900  0.826700  0.145300  1.0
  N  N3822  1  0.473100  0.173300  0.854700  1.0
  N  N3823  1  0.520900  0.694800  0.169200  1.0
  N  N3824  1  0.479100  0.305200  0.830800  1.0
  N  N3825  1  0.515000  0.630400  0.172900  1.0
  N  N3826  1  0.485000  0.369600  0.827100  1.0
  N  N3827  1  0.338400  0.673300  0.088200  1.0
  N  N3828  1  0.661600  0.326700  0.911800  1.0
  N  N3829  1  0.364900  0.733200  0.081900  1.0
  N  N3830  1  0.635100  0.266800  0.918100  1.0
  N  N3831  1  0.358100  0.865900  0.067700  1.0
  N  N3832  1  0.641900  0.134100  0.932300  1.0
  N  N3833  1  0.365500  0.928400  0.057800  1.0
  N  N3834  1  0.634500  0.071600  0.942200  1.0
  N  N3835  1  0.623900  0.630600  0.204800  1.0
  N  N3836  1  0.376100  0.369400  0.795200  1.0
  N  N3837  1  0.643500  0.606200  0.161500  1.0
  N  N3838  1  0.356500  0.393800  0.838500  1.0
  N  N3839  1  0.597100  0.667400  0.299400  1.0
  N  N3840  1  0.402900  0.332600  0.700600  1.0
  N  N3841  1  0.579800  0.695300  0.337600  1.0
  N  N3842  1  0.420200  0.304700  0.662400  1.0
  N  N3843  1  0.261000  0.709300  0.424200  1.0
  N  N3844  1  0.739000  0.290700  0.575800  1.0
  N  N3845  1  0.346000  0.678700  0.413000  1.0
  N  N3846  1  0.654000  0.321300  0.587000  1.0
  N  N3847  1  0.518700  0.643400  0.375300  1.0
  N  N3848  1  0.481300  0.356600  0.624700  1.0
  N  N3849  1  0.595300  0.618000  0.357100  1.0
  N  N3850  1  0.404700  0.382000  0.642900  1.0
  N  N3851  1  0.492300  0.626600  0.319100  1.0
  N  N3852  1  0.507700  0.373400  0.680900  1.0
  N  N3853  1  0.479300  0.692300  0.306200  1.0
  N  N3854  1  0.520700  0.307700  0.693800  1.0
  N  N3855  1  0.464300  0.830700  0.271600  1.0
  N  N3856  1  0.535700  0.169300  0.728400  1.0
  N  N3857  1  0.465200  0.896300  0.251000  1.0
  N  N3858  1  0.534800  0.103700  0.749000  1.0
  N  N3859  1  0.548600  0.807700  0.316400  1.0
  N  N3860  1  0.451400  0.192300  0.683600  1.0
  N  N3861  1  0.464500  0.841400  0.331200  1.0
  N  N3862  1  0.535500  0.158600  0.668800  1.0
  N  N3863  1  0.288100  0.878900  0.371700  1.0
  N  N3864  1  0.711900  0.121100  0.628300  1.0
  N  N3865  1  0.204800  0.902500  0.392300  1.0
  N  N3866  1  0.795200  0.097500  0.607700  1.0
  N  N3867  1  0.638100  0.690800  0.150300  1.0
  N  N3868  1  0.361900  0.309200  0.849700  1.0
  N  N3869  1  0.440100  0.689700  0.045300  1.0
  N  N3870  1  0.559900  0.310300  0.954700  1.0
  N  N3871  1  0.373800  0.686100  0.015700  1.0
  N  N3872  1  0.626200  0.313900  0.984300  1.0
  N  N3873  1  0.573600  0.676700  0.119600  1.0
  N  N3874  1  0.426400  0.323300  0.880400  1.0
  N  N3875  1  0.326300  0.781100  0.218600  1.0
  N  N3876  1  0.673700  0.218900  0.781400  1.0
  N  N3877  1  0.184700  0.283600  0.284100  0.488
  N  N3878  1  0.815300  0.716400  0.715900  0.488
  N  N3879  1  0.222500  0.280700  0.275500  0.512
  N  N3880  1  0.777500  0.719300  0.724500  0.512
  O  O3881  1  0.299700  0.736700  0.255200  1.0
  O  O3882  1  0.700300  0.263300  0.744800  1.0
  O  O3883  1  0.249400  0.769400  0.216400  1.0
  O  O3884  1  0.750600  0.230600  0.783600  1.0
  O  O3885  1  0.356300  0.824000  0.183200  1.0
  O  O3886  1  0.643700  0.176000  0.816800  1.0
  O  O3887  1  0.286400  0.805400  0.174300  1.0
  O  O3888  1  0.713600  0.194600  0.825700  1.0
  O  O3889  1  0.263000  0.297000  0.278800  0.488
  O  O3890  1  0.737000  0.703000  0.721200  0.488
  O  O3891  1  0.205500  0.323700  0.304700  0.488
  O  O3892  1  0.794500  0.676300  0.695300  0.488
  O  O3893  1  0.228100  0.263200  0.249500  0.488
  O  O3894  1  0.771900  0.736800  0.750500  0.488
  O  O3895  1  0.153100  0.248200  0.265200  0.488
  O  O3896  1  0.846900  0.751800  0.734800  0.488
  O  O3897  1  0.139000  0.306200  0.271800  0.512
  O  O3898  1  0.861000  0.693800  0.728200  0.512
  O  O3899  1  0.188400  0.313900  0.232400  0.512
  O  O3900  1  0.811600  0.686100  0.767600  0.512
  O  O3901  1  0.188600  0.258200  0.319600  0.512
  O  O3902  1  0.811400  0.741800  0.680400  0.512
  O  O3903  1  0.268000  0.235100  0.309200  0.512
  O  O3904  1  0.732000  0.764900  0.690800  0.512
  F  F3905  1  0.366700  0.769500  0.322800  1.0
  F  F3906  1  0.633300  0.230500  0.677200  1.0
  F  F3907  1  0.344000  0.751700  0.364900  1.0
  F  F3908  1  0.656000  0.248300  0.635100  1.0
  F  F3909  1  0.365800  0.797000  0.349600  1.0
  F  F3910  1  0.634200  0.203000  0.650400  1.0
  F  F3911  1  0.406700  0.757200  0.378800  1.0
  F  F3912  1  0.593300  0.242800  0.621200  1.0
  F  F3913  1  0.433700  0.774000  0.338100  1.0
  F  F3914  1  0.566300  0.226000  0.661900  1.0
  F  F3915  1  0.416900  0.723800  0.357100  1.0
  F  F3916  1  0.583100  0.276200  0.642900  1.0
  F  F3917  1  0.544100  0.792500  0.227600  1.0
  F  F3918  1  0.455900  0.207500  0.772400  1.0
  F  F3919  1  0.545900  0.740100  0.260300  1.0
  F  F3920  1  0.454100  0.259900  0.739700  1.0
  F  F3921  1  0.607700  0.753800  0.234300  1.0
  F  F3922  1  0.392300  0.246200  0.765700  1.0
  F  F3923  1  0.562800  0.768100  0.196700  1.0
  F  F3924  1  0.437200  0.231900  0.803300  1.0
  F  F3925  1  0.573100  0.716900  0.229400  1.0
  F  F3926  1  0.426900  0.283100  0.770600  1.0
  F  F3927  1  0.508100  0.754100  0.223600  1.0
  F  F3928  1  0.491900  0.245900  0.776400  1.0
  F  F3929  1  0.533800  0.751800  0.107500  1.0
  F  F3930  1  0.466200  0.248200  0.892500  1.0
  F  F3931  1  0.509000  0.806400  0.085000  1.0
  F  F3932  1  0.491000  0.193600  0.915000  1.0
  F  F3933  1  0.459100  0.780200  0.105300  1.0
  F  F3934  1  0.540900  0.219800  0.894700  1.0
  F  F3935  1  0.480600  0.746500  0.081500  1.0
  F  F3936  1  0.519400  0.253500  0.918500  1.0
  F  F3937  1  0.452100  0.801700  0.061800  1.0
  F  F3938  1  0.547900  0.198300  0.938200  1.0
  F  F3939  1  0.528300  0.773200  0.064700  1.0
  F  F3940  1  0.471700  0.226800  0.935300  1.0
  F  F3941  1  0.250600  0.805100  0.097700  1.0
  F  F3942  1  0.749400  0.194900  0.902300  1.0
  F  F3943  1  0.277900  0.793100  0.062600  1.0
  F  F3944  1  0.722100  0.206900  0.937400  1.0
  F  F3945  1  0.239700  0.844300  0.059900  1.0
  F  F3946  1  0.760300  0.155700  0.940100  1.0
  F  F3947  1  0.211000  0.807000  0.045800  1.0
  F  F3948  1  0.789000  0.193000  0.954200  1.0
  F  F3949  1  0.179300  0.824900  0.078800  1.0
  F  F3950  1  0.820700  0.175100  0.921200  1.0
  F  F3951  1  0.221100  0.774800  0.082000  1.0
  F  F3952  1  0.778900  0.225200  0.918000  1.0
  F  F3953  1  0.052900  0.765500  0.208400  1.0
  F  F3954  1  0.947100  0.234500  0.791600  1.0
  F  F3955  1  0.066600  0.793500  0.166900  1.0
  F  F3956  1  0.933400  0.206500  0.833100  1.0
  F  F3957  1  0.051900  0.838700  0.181400  1.0
  F  F3958  1  0.948100  0.161300  0.818600  1.0
  F  F3959  1  0.000600  0.808300  0.188400  1.0
  F  F3960  1  0.999400  0.191700  0.811600  1.0
  F  F3961  1  0.106000  0.793900  0.202100  1.0
  F  F3962  1  0.894000  0.206100  0.797900  1.0
  F  F3963  1  0.041000  0.809100  0.221400  1.0
  F  F3964  1  0.959000  0.190900  0.778600  1.0
  F  F3965  1  0.150700  0.735900  0.350900  1.0
  F  F3966  1  0.849300  0.264100  0.649100  1.0
  F  F3967  1  0.094100  0.763000  0.320700  1.0
  F  F3968  1  0.905900  0.237000  0.679300  1.0
  F  F3969  1  0.090100  0.775700  0.357600  1.0
  F  F3970  1  0.909900  0.224300  0.642400  1.0
  F  F3971  1  0.158000  0.784900  0.353500  1.0
  F  F3972  1  0.842000  0.215100  0.646500  1.0
  F  F3973  1  0.165100  0.774800  0.314400  1.0
  F  F3974  1  0.834900  0.225200  0.685600  1.0
  F  F3975  1  0.106500  0.810800  0.322500  1.0
  F  F3976  1  0.893500  0.189200  0.677500  1.0
  F  F3977  1  0.396000  0.261400  0.433600  1.0
  F  F3978  1  0.604000  0.738600  0.566400  1.0
  F  F3979  1  0.404800  0.276400  0.389600  1.0
  F  F3980  1  0.595200  0.723600  0.610400  1.0
  F  F3981  1  0.343100  0.300300  0.411000  1.0
  F  F3982  1  0.656900  0.699700  0.589000  1.0
  F  F3983  1  0.332200  0.247500  0.429400  1.0
  F  F3984  1  0.667800  0.752500  0.570600  1.0
  F  F3985  1  0.335000  0.267200  0.386800  1.0
  F  F3986  1  0.665000  0.732800  0.613200  1.0
  F  F3987  1  0.392400  0.228500  0.409000  1.0
  F  F3988  1  0.607600  0.771500  0.591000  1.0
  F  F3989  1  0.512500  0.258700  0.267300  1.0
  F  F3990  1  0.487500  0.741300  0.732700  1.0
  F  F3991  1  0.456700  0.299700  0.273400  1.0
  F  F3992  1  0.543300  0.700300  0.726600  1.0
  F  F3993  1  0.450200  0.281300  0.239300  1.0
  F  F3994  1  0.549800  0.718700  0.760700  1.0
  F  F3995  1  0.466700  0.249700  0.302200  1.0
  F  F3996  1  0.533300  0.750300  0.697800  1.0
  F  F3997  1  0.405300  0.271500  0.274800  1.0
  F  F3998  1  0.594700  0.728500  0.725200  1.0
  F  F3999  1  0.459100  0.228500  0.270100  1.0
  F  F4000  1  0.540900  0.771500  0.729900  1.0
  F  F4001  1  0.321400  0.278100  0.116800  1.0
  F  F4002  1  0.678600  0.721900  0.883200  1.0
  F  F4003  1  0.283700  0.246400  0.148200  1.0
  F  F4004  1  0.716300  0.753600  0.851800  1.0
  F  F4005  1  0.345600  0.260900  0.160800  1.0
  F  F4006  1  0.654400  0.739100  0.839200  1.0
  F  F4007  1  0.251300  0.301700  0.127900  1.0
  F  F4008  1  0.748700  0.698300  0.872100  1.0
  F  F4009  1  0.272400  0.282900  0.171200  1.0
  F  F4010  1  0.727600  0.717100  0.828800  1.0
  F  F4011  1  0.316000  0.313400  0.143100  1.0
  F  F4012  1  0.684000  0.686600  0.856900  1.0
  F  F4013  1  0.013500  0.286500  0.157400  1.0
  F  F4014  1  0.986500  0.713500  0.842600  1.0
  F  F4015  1  0.001800  0.325100  0.121400  1.0
  F  F4016  1  0.998200  0.674900  0.878600  1.0
  F  F4017  1  0.073600  0.300000  0.132200  1.0
  F  F4018  1  0.926400  0.700000  0.867800  1.0
  F  F4019  1  0.064300  0.311200  0.169700  1.0
  F  F4020  1  0.935700  0.688800  0.830300  1.0
  F  F4021  1  0.990300  0.337900  0.160900  1.0
  F  F4022  1  0.009700  0.662100  0.839100  1.0
  F  F4023  1  0.047300  0.349200  0.133400  1.0
  F  F4024  1  0.952700  0.650800  0.866600  1.0
  F  F4025  1  0.074700  0.276700  0.442900  1.0
  F  F4026  1  0.925300  0.723300  0.557100  1.0
  F  F4027  1  0.056100  0.268000  0.405700  1.0
  F  F4028  1  0.943900  0.732000  0.594300  1.0
  F  F4029  1  0.122900  0.238900  0.427500  1.0
  F  F4030  1  0.877100  0.761100  0.572500  1.0
  F  F4031  1  0.122100  0.276300  0.388900  1.0
  F  F4032  1  0.877900  0.723700  0.611100  1.0
  F  F4033  1  0.077000  0.315700  0.402500  1.0
  F  F4034  1  0.923000  0.684300  0.597500  1.0
  F  F4035  1  0.142900  0.285900  0.425200  1.0
  F  F4036  1  0.857100  0.714100  0.574800  1.0
  F  F4037  1  0.162300  0.113400  0.266400  1.0
  F  F4038  1  0.837700  0.886600  0.733600  1.0
  F  F4039  1  0.101800  0.130300  0.285200  1.0
  F  F4040  1  0.898200  0.869700  0.714800  1.0
  F  F4041  1  0.169600  0.117300  0.305600  1.0
  F  F4042  1  0.830400  0.882700  0.694400  1.0
  F  F4043  1  0.191100  0.156400  0.274300  1.0
  F  F4044  1  0.808900  0.843600  0.725700  1.0
  F  F4045  1  0.132800  0.165600  0.295000  1.0
  F  F4046  1  0.867200  0.834400  0.705000  1.0
  F  F4047  1  0.123800  0.170800  0.253200  1.0
  F  F4048  1  0.876200  0.829200  0.746800  1.0
  F  F4049  1  0.999500  0.311400  0.281400  1.0
  F  F4050  1  0.000500  0.688600  0.718600  1.0
  F  F4051  1  0.935500  0.346800  0.273400  1.0
  F  F4052  1  0.064500  0.653200  0.726600  1.0
  F  F4053  1  0.950300  0.318100  0.314800  1.0
  F  F4054  1  0.049700  0.681900  0.685200  1.0
  F  F4055  1  0.896800  0.306000  0.291400  1.0
  F  F4056  1  0.103200  0.694000  0.708600  1.0
  F  F4057  1  0.942800  0.304200  0.258800  1.0
  F  F4058  1  0.057200  0.695800  0.741200  1.0
  F  F4059  1  0.963400  0.272800  0.300600  1.0
  F  F4060  1  0.036600  0.727200  0.699400  1.0
  F  F4061  1  0.735000  0.236900  0.341300  1.0
  F  F4062  1  0.265000  0.763100  0.658700  1.0
  F  F4063  1  0.681600  0.208400  0.352700  1.0
  F  F4064  1  0.318400  0.791600  0.647300  1.0
  F  F4065  1  0.687600  0.245900  0.372700  1.0
  F  F4066  1  0.312400  0.754100  0.627300  1.0
  F  F4067  1  0.699500  0.187300  0.394700  1.0
  F  F4068  1  0.300500  0.812700  0.605300  1.0
  F  F4069  1  0.750400  0.179200  0.363400  1.0
  F  F4070  1  0.249600  0.820800  0.636600  1.0
  F  F4071  1  0.755200  0.213200  0.386700  1.0
  F  F4072  1  0.244800  0.786800  0.613300  1.0
  F  F4073  1  0.815600  0.804300  0.287700  1.0
  F  F4074  1  0.184400  0.195700  0.712300  1.0
  F  F4075  1  0.767400  0.820800  0.255500  1.0
  F  F4076  1  0.232600  0.179200  0.744500  1.0
  F  F4077  1  0.745800  0.829600  0.293100  1.0
  F  F4078  1  0.254200  0.170400  0.706900  1.0
  F  F4079  1  0.751600  0.874100  0.254500  1.0
  F  F4080  1  0.248400  0.125900  0.745500  1.0
  F  F4081  1  0.801100  0.859100  0.289500  1.0
  F  F4082  1  0.198900  0.140900  0.710500  1.0
  F  F4083  1  0.823200  0.843100  0.255500  1.0
  F  F4084  1  0.176800  0.156900  0.744500  1.0
  F  F4085  1  0.730200  0.305900  0.230800  1.0
  F  F4086  1  0.269800  0.694100  0.769200  1.0
  F  F4087  1  0.713300  0.291600  0.196200  1.0
  F  F4088  1  0.286700  0.708400  0.803800  1.0
  F  F4089  1  0.661800  0.292900  0.230400  1.0
  F  F4090  1  0.338200  0.707100  0.769600  1.0
  F  F4091  1  0.652900  0.328800  0.191500  1.0
  F  F4092  1  0.347100  0.671200  0.808500  1.0
  F  F4093  1  0.667200  0.343200  0.227200  1.0
  F  F4094  1  0.332800  0.656800  0.772800  1.0
  F  F4095  1  0.715400  0.344200  0.191800  1.0
  F  F4096  1  0.284600  0.655800  0.808200  1.0
  F  F4097  1  0.137600  0.430000  0.182700  1.0
  F  F4098  1  0.862400  0.570000  0.817300  1.0
  F  F4099  1  0.133900  0.475900  0.196600  1.0
  F  F4100  1  0.866100  0.524100  0.803400  1.0
  F  F4101  1  0.144500  0.430000  0.223500  1.0
  F  F4102  1  0.855500  0.570000  0.776500  1.0
  F  F4103  1  0.205100  0.456700  0.212100  1.0
  F  F4104  1  0.794900  0.543300  0.787900  1.0
  F  F4105  1  0.191600  0.456900  0.169000  1.0
  F  F4106  1  0.808400  0.543100  0.831000  1.0
  F  F4107  1  0.210100  0.412000  0.199600  1.0
  F  F4108  1  0.789900  0.588000  0.800400  1.0
  F  F4109  1  0.388200  0.170700  0.058000  1.0
  F  F4110  1  0.611800  0.829300  0.942000  1.0
  F  F4111  1  0.318700  0.178100  0.038700  1.0
  F  F4112  1  0.681300  0.821900  0.961300  1.0
  F  F4113  1  0.358200  0.124800  0.063600  1.0
  F  F4114  1  0.641800  0.875200  0.936400  1.0
  F  F4115  1  0.363300  0.141900  0.018800  1.0
  F  F4116  1  0.636700  0.858100  0.981200  1.0
  F  F4117  1  0.381300  0.188700  0.011600  1.0
  F  F4118  1  0.618700  0.811300  0.988400  1.0
  F  F4119  1  0.423100  0.137000  0.036500  1.0
  F  F4120  1  0.576900  0.863000  0.963500  1.0
  F  F4121  1  0.868800  0.749100  0.134400  1.0
  F  F4122  1  0.131200  0.250900  0.865600  1.0
  F  F4123  1  0.805900  0.735700  0.142100  1.0
  F  F4124  1  0.194100  0.264300  0.857900  1.0
  F  F4125  1  0.853300  0.782200  0.159700  1.0
  F  F4126  1  0.146700  0.217800  0.840300  1.0
  F  F4127  1  0.848200  0.729700  0.179600  1.0
  F  F4128  1  0.151800  0.270300  0.820400  1.0
  F  F4129  1  0.786100  0.766900  0.169700  1.0
  F  F4130  1  0.213900  0.233100  0.830300  1.0
  F  F4131  1  0.805400  0.788600  0.125900  1.0
  F  F4132  1  0.194600  0.211400  0.874100  1.0
  F  F4133  1  0.225500  0.953600  0.233900  1.0
  F  F4134  1  0.774500  0.046400  0.766100  1.0
  F  F4135  1  0.209300  0.967600  0.191000  1.0
  F  F4136  1  0.790700  0.032400  0.809000  1.0
  F  F4137  1  0.255500  0.910900  0.221900  1.0
  F  F4138  1  0.744500  0.089100  0.778100  1.0
  F  F4139  1  0.198100  0.908200  0.241000  1.0
  F  F4140  1  0.801900  0.091800  0.759000  1.0
  F  F4141  1  0.193500  0.915900  0.199300  1.0
  F  F4142  1  0.806500  0.084100  0.800700  1.0
  F  F4143  1  0.157400  0.957500  0.214000  1.0
  F  F4144  1  0.842600  0.042500  0.786000  1.0
  F  F4145  1  0.280600  0.646300  0.302200  1.0
  F  F4146  1  0.719400  0.353700  0.697800  1.0
  F  F4147  1  0.155900  0.432000  0.320800  1.0
  F  F4148  1  0.844100  0.568000  0.679200  1.0
  F  F4149  1  0.308000  0.608000  0.195600  1.0
  F  F4150  1  0.692000  0.392000  0.804400  1.0
  F  F4151  1  0.376300  0.650000  0.165300  1.0
  F  F4152  1  0.623700  0.350000  0.834700  1.0
  F  F4153  1  0.299400  0.664400  0.177400  1.0
  F  F4154  1  0.700600  0.335600  0.822600  1.0
  F  F4155  1  0.320900  0.631400  0.156600  1.0
  F  F4156  1  0.679100  0.368600  0.843400  1.0
  F  F4157  1  0.390200  0.904600  0.179500  1.0
  F  F4158  1  0.609800  0.095400  0.820500  1.0
  F  F4159  1  0.401400  0.919200  0.134400  1.0
  F  F4160  1  0.598600  0.080800  0.865600  1.0
  F  F4161  1  0.355900  0.702900  0.223600  1.0
  F  F4162  1  0.644100  0.297100  0.776400  1.0
  F  F4163  1  0.322400  0.735300  0.187500  1.0
  F  F4164  1  0.677600  0.264700  0.812500  1.0
  F  F4165  1  0.286000  0.704100  0.219700  1.0
  F  F4166  1  0.714000  0.295900  0.780300  1.0
  F  F4167  1  0.273900  0.870800  0.179700  1.0
  F  F4168  1  0.726100  0.129200  0.820300  1.0
  F  F4169  1  0.249900  0.836000  0.215700  1.0
  F  F4170  1  0.750100  0.164000  0.784300  1.0
  F  F4171  1  0.313400  0.855800  0.213500  1.0
  F  F4172  1  0.686600  0.144200  0.786500  1.0
  F  F4173  1  0.350000  0.601500  0.275900  0.25
  F  F4174  1  0.650000  0.398500  0.724100  0.25
  F  F4175  1  0.192700  0.337700  0.235500  0.488
  F  F4176  1  0.807300  0.662300  0.764500  0.488
  F  F4177  1  0.155600  0.360800  0.263500  0.488
  F  F4178  1  0.844400  0.639200  0.736500  0.488
  F  F4179  1  0.222400  0.367200  0.254500  0.488
  F  F4180  1  0.777600  0.632800  0.745500  0.488
  F  F4181  1  0.262200  0.223300  0.300800  0.488
  F  F4182  1  0.737800  0.776700  0.699200  0.488
  F  F4183  1  0.238600  0.192300  0.282300  0.488
  F  F4184  1  0.761400  0.807700  0.717700  0.488
  F  F4185  1  0.199900  0.205700  0.312500  0.488
  F  F4186  1  0.800100  0.794300  0.687500  0.488
  F  F4187  1  0.336100  0.609900  0.314100  0.5
  F  F4188  1  0.663900  0.390100  0.685900  0.5
  F  F4189  1  0.286000  0.602800  0.296400  0.5
  F  F4190  1  0.714000  0.397200  0.703600  0.5
  F  F4191  1  0.346000  0.655600  0.278300  0.5
  F  F4192  1  0.654000  0.344400  0.721700  0.5
  F  F4193  1  0.277000  0.639000  0.264300  0.5
  F  F4194  1  0.723000  0.361000  0.735700  0.5
  F  F4195  1  0.168900  0.392100  0.305800  0.5
  F  F4196  1  0.831100  0.607900  0.694200  0.5
  F  F4197  1  0.227300  0.398200  0.325000  0.5
  F  F4198  1  0.772700  0.601800  0.675000  0.5
  F  F4199  1  0.231600  0.407500  0.284300  0.5
  F  F4200  1  0.768400  0.592500  0.715700  0.5
  F  F4201  1  0.161100  0.447400  0.279800  0.5
  F  F4202  1  0.838900  0.552600  0.720200  0.5
  F  F4203  1  0.218700  0.449900  0.299700  0.5
  F  F4204  1  0.781300  0.550100  0.700300  0.5
  F  F4205  1  0.368000  0.636900  0.205000  0.5
  F  F4206  1  0.632000  0.363100  0.795000  0.5
  F  F4207  1  0.374800  0.599200  0.184900  0.5
  F  F4208  1  0.625200  0.400800  0.815100  0.5
  F  F4209  1  0.339100  0.911100  0.156800  0.5
  F  F4210  1  0.660900  0.088900  0.843200  0.5
  F  F4211  1  0.409400  0.954000  0.155400  0.5
  F  F4212  1  0.590600  0.046000  0.844600  0.5
  F  F4213  1  0.343000  0.949900  0.174700  0.5
  F  F4214  1  0.657000  0.050100  0.825300  0.5
  F  F4215  1  0.342700  0.967100  0.135300  0.5
  F  F4216  1  0.657300  0.032900  0.864700  0.5
  F  F4217  1  0.234200  0.207100  0.276000  0.512
  F  F4218  1  0.765800  0.792900  0.724000  0.512
  F  F4219  1  0.234200  0.346700  0.264100  0.512
  F  F4220  1  0.765800  0.653300  0.735900  0.512
  F  F4221  1  0.164400  0.366000  0.271800  0.512
  F  F4222  1  0.835600  0.634000  0.728200  0.512
  F  F4223  1  0.164300  0.228800  0.279000  0.512
  F  F4224  1  0.835700  0.771200  0.721000  0.512
  F  F4225  1  0.200100  0.191200  0.312000  0.512
  F  F4226  1  0.799900  0.808800  0.688000  0.512
  F  F4227  1  0.186600  0.368500  0.232800  0.512
  F  F4228  1  0.813400  0.631500  0.767200  0.512
