# generated using pymatgen
data_Cd40H1340.24C1572N246Cl58O232.0F8
_symmetry_space_group_name_H-M   'P 1'
_cell_length_a   26.67900000
_cell_length_b   42.61319716
_cell_length_c   45.35400000
_cell_angle_alpha   107.25479675
_cell_angle_beta   90.00000000
_cell_angle_gamma   108.24233940
_symmetry_Int_Tables_number   1
_chemical_formula_structural   Cd40H1340.24C1572N246Cl58O232.0F8
_chemical_formula_sum   'Cd40 H1340.24 C1572 N246 Cl58 O232.0 F8'
_cell_volume   46520.86316791
_cell_formula_units_Z   1
loop_
 _symmetry_equiv_pos_site_id
 _symmetry_equiv_pos_as_xyz
  1  'x, y, z'
loop_
 _atom_site_type_symbol
 _atom_site_label
 _atom_site_symmetry_multiplicity
 _atom_site_fract_x
 _atom_site_fract_y
 _atom_site_fract_z
 _atom_site_occupancy
  C  C1  1  0.935500  0.714600  0.338900  1.0
  C  C2  1  0.220900  0.285400  0.161100  1.0
  C  C3  1  0.064500  0.285400  0.661100  1.0
  C  C4  1  0.779100  0.714600  0.838900  1.0
  C  C5  1  0.980500  0.709200  0.349300  1.0
  C  C6  1  0.271300  0.290800  0.150700  1.0
  C  C7  1  0.019500  0.290800  0.650700  1.0
  C  C8  1  0.728700  0.709200  0.849300  1.0
  C  C9  1  0.024560  0.712520  0.332400  1.0
  C  C10  1  0.312040  0.287480  0.167600  1.0
  C  C11  1  0.975440  0.287480  0.667600  1.0
  C  C12  1  0.687960  0.712520  0.832400  1.0
  C  C13  1  0.024660  0.721120  0.304800  1.0
  C  C14  1  0.303540  0.278880  0.195200  1.0
  C  C15  1  0.975340  0.278880  0.695200  1.0
  C  C16  1  0.696460  0.721120  0.804800  1.0
  C  C17  1  0.979120  0.726240  0.294600  1.0
  C  C18  1  0.252880  0.273760  0.205400  1.0
  C  C19  1  0.020880  0.273760  0.705400  1.0
  C  C20  1  0.747120  0.726240  0.794600  1.0
  C  C21  1  0.934900  0.723000  0.311400  1.0
  C  C22  1  0.211900  0.277000  0.188600  1.0
  C  C23  1  0.065100  0.277000  0.688600  1.0
  C  C24  1  0.788100  0.723000  0.811400  1.0
  C  C25  1  0.072700  0.725400  0.287000  1.0
  C  C26  1  0.347300  0.274600  0.213000  1.0
  C  C27  1  0.927300  0.274600  0.713000  1.0
  C  C28  1  0.652700  0.725400  0.787000  1.0
  C  C29  1  0.884600  0.710800  0.382100  1.0
  C  C30  1  0.173800  0.289200  0.117900  1.0
  C  C31  1  0.115400  0.289200  0.617900  1.0
  C  C32  1  0.826200  0.710800  0.882100  1.0
  C  C33  1  0.836200  0.701200  0.397800  1.0
  C  C34  1  0.135000  0.298800  0.102200  1.0
  C  C35  1  0.163800  0.298800  0.602200  1.0
  C  C36  1  0.865000  0.701200  0.897800  1.0
  C  C37  1  0.831800  0.711600  0.429500  1.0
  C  C38  1  0.120200  0.288400  0.070500  1.0
  C  C39  1  0.168200  0.288400  0.570500  1.0
  C  C40  1  0.879800  0.711600  0.929500  1.0
  C  C41  1  0.783300  0.699800  0.440700  1.0
  C  C42  1  0.083500  0.300200  0.059300  1.0
  C  C43  1  0.216700  0.300200  0.559300  1.0
  C  C44  1  0.916500  0.699800  0.940700  1.0
  C  C45  1  0.739000  0.677600  0.420100  1.0
  C  C46  1  0.061400  0.322400  0.079900  1.0
  C  C47  1  0.261000  0.322400  0.579900  1.0
  C  C48  1  0.938600  0.677600  0.920100  1.0
  C  C49  1  0.743400  0.667200  0.388400  1.0
  C  C50  1  0.076200  0.332800  0.111600  1.0
  C  C51  1  0.256600  0.332800  0.611600  1.0
  C  C52  1  0.923800  0.667200  0.888400  1.0
  C  C53  1  0.644600  0.663000  0.413400  1.0
  C  C54  1  0.981600  0.337000  0.086600  1.0
  C  C55  1  0.355400  0.337000  0.586600  1.0
  C  C56  1  0.018400  0.663000  0.913400  1.0
  C  C57  1  0.688200  0.665000  0.431500  1.0
  C  C58  1  0.023200  0.335000  0.068500  1.0
  C  C59  1  0.311800  0.335000  0.568500  1.0
  C  C60  1  0.976800  0.665000  0.931500  1.0
  C  C61  1  0.680900  0.652600  0.456800  1.0
  C  C62  1  0.028300  0.347400  0.043200  1.0
  C  C63  1  0.319100  0.347400  0.543200  1.0
  C  C64  1  0.971700  0.652600  0.956800  1.0
  C  C65  1  0.629900  0.638000  0.464000  1.0
  C  C66  1  0.991900  0.362000  0.036000  1.0
  C  C67  1  0.370100  0.362000  0.536000  1.0
  C  C68  1  0.008100  0.638000  0.964000  1.0
  C  C69  1  0.586200  0.635800  0.445800  1.0
  C  C70  1  0.950400  0.364200  0.054200  1.0
  C  C71  1  0.413800  0.364200  0.554200  1.0
  C  C72  1  0.049600  0.635800  0.945800  1.0
  C  C73  1  0.530200  0.620600  0.451200  1.0
  C  C74  1  0.909600  0.379400  0.048800  1.0
  C  C75  1  0.469800  0.379400  0.548800  1.0
  C  C76  1  0.090400  0.620600  0.951200  1.0
  C  C77  1  0.438400  0.606000  0.443000  1.0
  C  C78  1  0.832400  0.394000  0.057000  1.0
  C  C79  1  0.561600  0.394000  0.557000  1.0
  C  C80  1  0.167600  0.606000  0.943000  1.0
  C  C81  1  0.397210  0.594220  0.419300  1.0
  C  C82  1  0.802990  0.405780  0.080700  1.0
  C  C83  1  0.602790  0.405780  0.580700  1.0
  C  C84  1  0.197010  0.594220  0.919300  1.0
  C  C85  1  0.344430  0.583060  0.425700  1.0
  C  C86  1  0.761370  0.416940  0.074300  1.0
  C  C87  1  0.655570  0.416940  0.574300  1.0
  C  C88  1  0.238630  0.583060  0.925700  1.0
  C  C89  1  0.331670  0.583340  0.455700  1.0
  C  C90  1  0.748330  0.416660  0.044300  1.0
  C  C91  1  0.668330  0.416660  0.544300  1.0
  C  C92  1  0.251670  0.583340  0.955700  1.0
  C  C93  1  0.373520  0.595040  0.479300  1.0
  C  C94  1  0.778480  0.404960  0.020700  1.0
  C  C95  1  0.626480  0.404960  0.520700  1.0
  C  C96  1  0.221520  0.595040  0.979300  1.0
  C  C97  1  0.426320  0.606240  0.473100  1.0
  C  C98  1  0.820080  0.393760  0.026900  1.0
  C  C99  1  0.573680  0.393760  0.526900  1.0
  C  C100  1  0.179920  0.606240  0.973100  1.0
  C  C101  1  0.274700  0.572000  0.462700  1.0
  C  C102  1  0.702700  0.428000  0.037300  1.0
  C  C103  1  0.725300  0.428000  0.537300  1.0
  C  C104  1  0.297300  0.572000  0.962700  1.0
  C  C105  1  0.251960  0.712920  0.300900  1.0
  C  C106  1  0.539040  0.287080  0.199100  1.0
  C  C107  1  0.748040  0.287080  0.699100  1.0
  C  C108  1  0.460960  0.712920  0.800900  1.0
  C  C109  1  0.293640  0.723880  0.324200  1.0
  C  C110  1  0.569760  0.276120  0.175800  1.0
  C  C111  1  0.706360  0.276120  0.675800  1.0
  C  C112  1  0.430240  0.723880  0.824200  1.0
  C  C113  1  0.284520  0.734240  0.355400  1.0
  C  C114  1  0.550280  0.265760  0.144600  1.0
  C  C115  1  0.715480  0.265760  0.644600  1.0
  C  C116  1  0.449720  0.734240  0.855400  1.0
  C  C117  1  0.233910  0.733820  0.364000  1.0
  C  C118  1  0.500090  0.266180  0.136000  1.0
  C  C119  1  0.766090  0.266180  0.636000  1.0
  C  C120  1  0.499910  0.733820  0.864000  1.0
  C  C121  1  0.192530  0.722860  0.340300  1.0
  C  C122  1  0.469670  0.277140  0.159700  1.0
  C  C123  1  0.807470  0.277140  0.659700  1.0
  C  C124  1  0.530330  0.722860  0.840300  1.0
  C  C125  1  0.201340  0.712480  0.309100  1.0
  C  C126  1  0.488860  0.287520  0.190900  1.0
  C  C127  1  0.798660  0.287520  0.690900  1.0
  C  C128  1  0.511140  0.712480  0.809100  1.0
  C  C129  1  0.223980  0.744160  0.397600  1.0
  C  C130  1  0.479820  0.255840  0.102400  1.0
  C  C131  1  0.776020  0.255840  0.602400  1.0
  C  C132  1  0.520180  0.744160  0.897600  1.0
  C  C133  1  0.237800  0.702200  0.247000  1.0
  C  C134  1  0.535600  0.297800  0.253000  1.0
  C  C135  1  0.762200  0.297800  0.753000  1.0
  C  C136  1  0.464400  0.702200  0.747000  1.0
  C  C137  1  0.246880  0.684760  0.215000  1.0
  C  C138  1  0.562120  0.315240  0.285000  1.0
  C  C139  1  0.753120  0.315240  0.785000  1.0
  C  C140  1  0.437880  0.684760  0.715000  1.0
  C  C141  1  0.224000  0.688000  0.188900  1.0
  C  C142  1  0.536000  0.312000  0.311100  1.0
  C  C143  1  0.776000  0.312000  0.811100  1.0
  C  C144  1  0.464000  0.688000  0.688900  1.0
  C  C145  1  0.233900  0.670800  0.159400  1.0
  C  C146  1  0.563100  0.329200  0.340600  1.0
  C  C147  1  0.766100  0.329200  0.840600  1.0
  C  C148  1  0.436900  0.670800  0.659400  1.0
  C  C149  1  0.266600  0.650400  0.156000  1.0
  C  C150  1  0.616200  0.349600  0.344000  1.0
  C  C151  1  0.733400  0.349600  0.844000  1.0
  C  C152  1  0.383800  0.650400  0.656000  1.0
  C  C153  1  0.289430  0.647260  0.182000  1.0
  C  C154  1  0.642170  0.352740  0.318000  1.0
  C  C155  1  0.710570  0.352740  0.818000  1.0
  C  C156  1  0.357830  0.647260  0.682000  1.0
  C  C157  1  0.340760  0.634720  0.127000  1.0
  C  C158  1  0.706040  0.365280  0.373000  1.0
  C  C159  1  0.659240  0.365280  0.873000  1.0
  C  C160  1  0.293960  0.634720  0.627000  1.0
  C  C161  1  0.288000  0.633400  0.126400  1.0
  C  C162  1  0.654600  0.366600  0.373600  1.0
  C  C163  1  0.712000  0.366600  0.873600  1.0
  C  C164  1  0.345400  0.633400  0.626400  1.0
  C  C165  1  0.254200  0.615200  0.099100  1.0
  C  C166  1  0.639000  0.384800  0.400900  1.0
  C  C167  1  0.745800  0.384800  0.900900  1.0
  C  C168  1  0.361000  0.615200  0.599100  1.0
  C  C169  1  0.273200  0.598600  0.072500  1.0
  C  C170  1  0.674600  0.401400  0.427500  1.0
  C  C171  1  0.726800  0.401400  0.927500  1.0
  C  C172  1  0.325400  0.598600  0.572500  1.0
  C  C173  1  0.326000  0.600000  0.073200  1.0
  C  C174  1  0.726000  0.400000  0.426800  1.0
  C  C175  1  0.674000  0.400000  0.926800  1.0
  C  C176  1  0.274000  0.600000  0.573200  1.0
  C  C177  1  0.352000  0.583000  0.046600  1.0
  C  C178  1  0.769000  0.417000  0.453400  1.0
  C  C179  1  0.648000  0.417000  0.953400  1.0
  C  C180  1  0.231000  0.583000  0.546600  1.0
  C  C181  1  0.431910  0.572620  0.021900  1.0
  C  C182  1  0.859290  0.427380  0.478100  1.0
  C  C183  1  0.568090  0.427380  0.978100  1.0
  C  C184  1  0.140710  0.572620  0.521900  1.0
  C  C185  1  0.431790  0.582180  0.995000  1.0
  C  C186  1  0.849610  0.417820  0.505000  1.0
  C  C187  1  0.568210  0.417820  0.005000  1.0
  C  C188  1  0.150390  0.582180  0.495000  1.0
  C  C189  1  0.463940  0.572880  0.972000  1.0
  C  C190  1  0.891060  0.427120  0.528000  1.0
  C  C191  1  0.536060  0.427120  0.028000  1.0
  C  C192  1  0.108940  0.572880  0.472000  1.0
  C  C193  1  0.496820  0.553840  0.975300  1.0
  C  C194  1  0.942980  0.446160  0.524700  1.0
  C  C195  1  0.503180  0.446160  0.024700  1.0
  C  C196  1  0.057020  0.553840  0.475300  1.0
  C  C197  1  0.496570  0.544540  0.002500  1.0
  C  C198  1  0.952030  0.455460  0.497500  1.0
  C  C199  1  0.503430  0.455460  0.997500  1.0
  C  C200  1  0.047970  0.544540  0.502500  1.0
  C  C201  1  0.464480  0.553760  0.025600  1.0
  C  C202  1  0.910720  0.446240  0.474400  1.0
  C  C203  1  0.535520  0.446240  0.974400  1.0
  C  C204  1  0.089280  0.553760  0.525600  1.0
  C  C205  1  0.530500  0.543000  0.950100  1.0
  C  C206  1  0.987500  0.457000  0.549900  1.0
  C  C207  1  0.469500  0.457000  0.049900  1.0
  C  C208  1  0.012500  0.543000  0.450100  1.0
  C  C209  1  0.398740  0.681280  0.065800  1.0
  C  C210  1  0.717460  0.318720  0.434200  1.0
  C  C211  1  0.601260  0.318720  0.934200  1.0
  C  C212  1  0.282540  0.681280  0.565800  1.0
  C  C213  1  0.377230  0.694660  0.092900  1.0
  C  C214  1  0.682570  0.305340  0.407100  1.0
  C  C215  1  0.622770  0.305340  0.907100  1.0
  C  C216  1  0.317430  0.694660  0.592900  1.0
  C  C217  1  0.328740  0.700480  0.091000  1.0
  C  C218  1  0.628260  0.299520  0.409000  1.0
  C  C219  1  0.671260  0.299520  0.909000  1.0
  C  C220  1  0.371740  0.700480  0.591000  1.0
  C  C221  1  0.300850  0.693100  0.062200  1.0
  C  C222  1  0.607750  0.306900  0.437800  1.0
  C  C223  1  0.699150  0.306900  0.937800  1.0
  C  C224  1  0.392250  0.693100  0.562200  1.0
  C  C225  1  0.323100  0.679800  0.035300  1.0
  C  C226  1  0.643300  0.320200  0.464700  1.0
  C  C227  1  0.676900  0.320200  0.964700  1.0
  C  C228  1  0.356700  0.679800  0.535300  1.0
  C  C229  1  0.371460  0.673920  0.037000  1.0
  C  C230  1  0.697540  0.326080  0.463000  1.0
  C  C231  1  0.628540  0.326080  0.963000  1.0
  C  C232  1  0.302460  0.673920  0.537000  1.0
  C  C233  1  0.248010  0.698620  0.060300  1.0
  C  C234  1  0.549390  0.301380  0.439700  1.0
  C  C235  1  0.751990  0.301380  0.939700  1.0
  C  C236  1  0.450610  0.698620  0.560300  1.0
  C  C237  1  0.477600  0.674800  0.049800  1.0
  C  C238  1  0.802800  0.325200  0.450200  1.0
  C  C239  1  0.522400  0.325200  0.950200  1.0
  C  C240  1  0.197200  0.674800  0.549800  1.0
  C  C241  1  0.523260  0.660520  0.049100  1.0
  C  C242  1  0.862740  0.339480  0.450900  1.0
  C  C243  1  0.476740  0.339480  0.950900  1.0
  C  C244  1  0.137260  0.660520  0.549100  1.0
  C  C245  1  0.562560  0.665720  0.029200  1.0
  C  C246  1  0.896840  0.334280  0.470800  1.0
  C  C247  1  0.437440  0.334280  0.970800  1.0
  C  C248  1  0.103160  0.665720  0.529200  1.0
  C  C249  1  0.604200  0.652800  0.030000  1.0
  C  C250  1  0.951400  0.347200  0.470000  1.0
  C  C251  1  0.395800  0.347200  0.970000  1.0
  C  C252  1  0.048600  0.652800  0.530000  1.0
  C  C253  1  0.606700  0.634800  0.050700  1.0
  C  C254  1  0.971900  0.365200  0.449300  1.0
  C  C255  1  0.393300  0.365200  0.949300  1.0
  C  C256  1  0.028100  0.634800  0.550700  1.0
  C  C257  1  0.567550  0.629700  0.070500  1.0
  C  C258  1  0.937850  0.370300  0.429500  1.0
  C  C259  1  0.432450  0.370300  0.929500  1.0
  C  C260  1  0.062150  0.629700  0.570500  1.0
  C  C261  1  0.672430  0.623660  0.080900  1.0
  C  C262  1  0.048770  0.376340  0.419100  1.0
  C  C263  1  0.327570  0.376340  0.919100  1.0
  C  C264  1  0.951230  0.623660  0.580900  1.0
  C  C265  1  0.649600  0.620200  0.052100  1.0
  C  C266  1  0.029400  0.379800  0.447900  1.0
  C  C267  1  0.350400  0.379800  0.947900  1.0
  C  C268  1  0.970600  0.620200  0.552100  1.0
  C  C269  1  0.666800  0.602800  0.025100  1.0
  C  C270  1  0.064000  0.397200  0.474900  1.0
  C  C271  1  0.333200  0.397200  0.974900  1.0
  C  C272  1  0.936000  0.602800  0.525100  1.0
  C  C273  1  0.706660  0.588720  0.026900  1.0
  C  C274  1  0.117940  0.411280  0.473100  1.0
  C  C275  1  0.293340  0.411280  0.973100  1.0
  C  C276  1  0.882060  0.588720  0.526900  1.0
  C  C277  1  0.729460  0.592120  0.055800  1.0
  C  C278  1  0.137340  0.407880  0.444200  1.0
  C  C279  1  0.270540  0.407880  0.944200  1.0
  C  C280  1  0.862660  0.592120  0.555800  1.0
  C  C281  1  0.769700  0.579000  0.058900  1.0
  C  C282  1  0.190700  0.421000  0.441100  1.0
  C  C283  1  0.230300  0.421000  0.941100  1.0
  C  C284  1  0.809300  0.579000  0.558900  1.0
  C  C285  1  0.825870  0.679940  0.085450  1.0
  C  C286  1  0.145930  0.320060  0.414550  1.0
  C  C287  1  0.174130  0.320060  0.914550  1.0
  C  C288  1  0.854070  0.679940  0.585450  1.0
  C  C289  1  0.782190  0.689980  0.080800  1.0
  C  C290  1  0.092210  0.310020  0.419200  1.0
  C  C291  1  0.217810  0.310020  0.919200  1.0
  C  C292  1  0.907790  0.689980  0.580800  1.0
  C  C293  1  0.773760  0.697320  0.053500  1.0
  C  C294  1  0.076440  0.302680  0.446500  1.0
  C  C295  1  0.226240  0.302680  0.946500  1.0
  C  C296  1  0.923560  0.697320  0.553500  1.0
  C  C297  1  0.808490  0.694780  0.030400  1.0
  C  C298  1  0.113710  0.305220  0.469600  1.0
  C  C299  1  0.191510  0.305220  0.969600  1.0
  C  C300  1  0.886290  0.694780  0.530400  1.0
  C  C301  1  0.852180  0.684760  0.035500  1.0
  C  C302  1  0.167420  0.315240  0.464500  1.0
  C  C303  1  0.147820  0.315240  0.964500  1.0
  C  C304  1  0.832580  0.684760  0.535500  1.0
  C  C305  1  0.860890  0.677380  0.062700  1.0
  C  C306  1  0.183510  0.322620  0.437300  1.0
  C  C307  1  0.139110  0.322620  0.937300  1.0
  C  C308  1  0.816490  0.677380  0.562700  1.0
  C  C309  1  0.798440  0.701880  0.000700  1.0
  C  C310  1  0.096560  0.298120  0.499300  1.0
  C  C311  1  0.201560  0.298120  0.999300  1.0
  C  C312  1  0.903440  0.701880  0.500700  1.0
  C  C313  1  0.879200  0.679600  0.126600  1.0
  C  C314  1  0.199600  0.320400  0.373400  1.0
  C  C315  1  0.120800  0.320400  0.873400  1.0
  C  C316  1  0.800400  0.679600  0.626600  1.0
  C  C317  1  0.889333  0.666667  0.152900  1.0
  C  C318  1  0.222667  0.333333  0.347100  1.0
  C  C319  1  0.110667  0.333333  0.847100  1.0
  C  C320  1  0.777333  0.666667  0.652900  1.0
  C  C321  1  0.937790  0.679180  0.170800  1.0
  C  C322  1  0.258610  0.320820  0.329200  1.0
  C  C323  1  0.062210  0.320820  0.829200  1.0
  C  C324  1  0.741390  0.679180  0.670800  1.0
  C  C325  1  0.941700  0.671200  0.198200  1.0
  C  C326  1  0.270500  0.328800  0.301800  1.0
  C  C327  1  0.058300  0.328800  0.801800  1.0
  C  C328  1  0.729500  0.671200  0.698200  1.0
  C  C329  1  0.897120  0.650640  0.207500  1.0
  C  C330  1  0.246480  0.349360  0.292500  1.0
  C  C331  1  0.102880  0.349360  0.792500  1.0
  C  C332  1  0.753520  0.650640  0.707500  1.0
  C  C333  1  0.848620  0.638040  0.189500  1.0
  C  C334  1  0.210580  0.361960  0.310500  1.0
  C  C335  1  0.151380  0.361960  0.810500  1.0
  C  C336  1  0.789420  0.638040  0.689500  1.0
  C  C337  1  0.856300  0.646400  0.257700  1.0
  C  C338  1  0.209900  0.353600  0.242300  1.0
  C  C339  1  0.143700  0.353600  0.742300  1.0
  C  C340  1  0.790100  0.646400  0.757700  1.0
  C  C341  1  0.896400  0.643000  0.238700  1.0
  C  C342  1  0.253400  0.357000  0.261300  1.0
  C  C343  1  0.103600  0.357000  0.761300  1.0
  C  C344  1  0.746600  0.643000  0.738700  1.0
  C  C345  1  0.936100  0.631800  0.247400  1.0
  C  C346  1  0.304300  0.368200  0.252600  1.0
  C  C347  1  0.063900  0.368200  0.752600  1.0
  C  C348  1  0.695700  0.631800  0.747400  1.0
  C  C349  1  0.935700  0.624000  0.275100  1.0
  C  C350  1  0.311700  0.376000  0.224900  1.0
  C  C351  1  0.064300  0.376000  0.724900  1.0
  C  C352  1  0.688300  0.624000  0.775100  1.0
  C  C353  1  0.895610  0.627420  0.294000  1.0
  C  C354  1  0.268190  0.372580  0.206000  1.0
  C  C355  1  0.104390  0.372580  0.706000  1.0
  C  C356  1  0.731810  0.627420  0.794000  1.0
  C  C357  1  0.891700  0.621000  0.323500  1.0
  C  C358  1  0.270700  0.379000  0.176500  1.0
  C  C359  1  0.108300  0.379000  0.676500  1.0
  C  C360  1  0.729300  0.621000  0.823500  1.0
  C  C361  1  0.853400  0.623800  0.372400  1.0
  C  C362  1  0.229600  0.376200  0.127600  1.0
  C  C363  1  0.146600  0.376200  0.627600  1.0
  C  C364  1  0.770400  0.623800  0.872400  1.0
  C  C365  1  0.804900  0.607600  0.381900  1.0
  C  C366  1  0.197300  0.392400  0.118100  1.0
  C  C367  1  0.195100  0.392400  0.618100  1.0
  C  C368  1  0.802700  0.607600  0.881900  1.0
  C  C369  1  0.803000  0.602600  0.411000  1.0
  C  C370  1  0.200400  0.397400  0.089000  1.0
  C  C371  1  0.197000  0.397400  0.589000  1.0
  C  C372  1  0.799600  0.602600  0.911000  1.0
  C  C373  1  0.849380  0.613560  0.431200  1.0
  C  C374  1  0.235820  0.386440  0.068800  1.0
  C  C375  1  0.150620  0.386440  0.568800  1.0
  C  C376  1  0.764180  0.613560  0.931200  1.0
  C  C377  1  0.897800  0.629600  0.421200  1.0
  C  C378  1  0.268200  0.370400  0.078800  1.0
  C  C379  1  0.102200  0.370400  0.578800  1.0
  C  C380  1  0.731800  0.629600  0.921200  1.0
  C  C381  1  0.899800  0.634600  0.392200  1.0
  C  C382  1  0.265200  0.365400  0.107800  1.0
  C  C383  1  0.100200  0.365400  0.607800  1.0
  C  C384  1  0.734800  0.634600  0.892200  1.0
  C  C385  1  0.847000  0.608800  0.462900  1.0
  C  C386  1  0.238200  0.391200  0.037100  1.0
  C  C387  1  0.153000  0.391200  0.537100  1.0
  C  C388  1  0.761800  0.608800  0.962900  1.0
  C  C389  1  0.483000  0.704200  0.449900  1.0
  C  C390  1  0.778800  0.295800  0.050100  1.0
  C  C391  1  0.517000  0.295800  0.550100  1.0
  C  C392  1  0.221200  0.704200  0.949900  1.0
  C  C393  1  0.435100  0.694200  0.429200  1.0
  C  C394  1  0.740900  0.305800  0.070800  1.0
  C  C395  1  0.564900  0.305800  0.570800  1.0
  C  C396  1  0.259100  0.694200  0.929200  1.0
  C  C397  1  0.389500  0.703400  0.434000  1.0
  C  C398  1  0.686100  0.296600  0.066000  1.0
  C  C399  1  0.610500  0.296600  0.566000  1.0
  C  C400  1  0.313900  0.703400  0.934000  1.0
  C  C401  1  0.348200  0.690000  0.410400  1.0
  C  C402  1  0.658200  0.310000  0.089600  1.0
  C  C403  1  0.651800  0.310000  0.589600  1.0
  C  C404  1  0.341800  0.690000  0.910400  1.0
  C  C405  1  0.352500  0.667400  0.382000  1.0
  C  C406  1  0.685100  0.332600  0.118000  1.0
  C  C407  1  0.647500  0.332600  0.618000  1.0
  C  C408  1  0.314900  0.667400  0.882000  1.0
  C  C409  1  0.398210  0.658220  0.377200  1.0
  C  C410  1  0.739990  0.341780  0.122800  1.0
  C  C411  1  0.601790  0.341780  0.622800  1.0
  C  C412  1  0.260010  0.658220  0.877200  1.0
  C  C413  1  0.323300  0.653000  0.326500  1.0
  C  C414  1  0.670300  0.347000  0.173500  1.0
  C  C415  1  0.676700  0.347000  0.673500  1.0
  C  C416  1  0.329700  0.653000  0.826500  1.0
  C  C417  1  0.310700  0.654000  0.356500  1.0
  C  C418  1  0.656700  0.346000  0.143500  1.0
  C  C419  1  0.689300  0.346000  0.643500  1.0
  C  C420  1  0.343300  0.654000  0.856500  1.0
  C  C421  1  0.258100  0.643200  0.362400  1.0
  C  C422  1  0.614900  0.356800  0.137600  1.0
  C  C423  1  0.741900  0.356800  0.637600  1.0
  C  C424  1  0.385100  0.643200  0.862400  1.0
  C  C425  1  0.217700  0.631000  0.338300  1.0
  C  C426  1  0.586700  0.369000  0.161700  1.0
  C  C427  1  0.782300  0.369000  0.661700  1.0
  C  C428  1  0.413300  0.631000  0.838300  1.0
  C  C429  1  0.230200  0.629800  0.308300  1.0
  C  C430  1  0.600400  0.370200  0.191700  1.0
  C  C431  1  0.769800  0.370200  0.691700  1.0
  C  C432  1  0.399600  0.629800  0.808300  1.0
  C  C433  1  0.195700  0.620800  0.282400  1.0
  C  C434  1  0.574900  0.379200  0.217600  1.0
  C  C435  1  0.804300  0.379200  0.717600  1.0
  C  C436  1  0.425100  0.620800  0.782400  1.0
  C  C437  1  0.164600  0.613200  0.228500  1.0
  C  C438  1  0.551400  0.386800  0.271500  1.0
  C  C439  1  0.835400  0.386800  0.771500  1.0
  C  C440  1  0.448600  0.613200  0.728500  1.0
  C  C441  1  0.166860  0.597920  0.196900  1.0
  C  C442  1  0.568940  0.402080  0.303100  1.0
  C  C443  1  0.833140  0.402080  0.803100  1.0
  C  C444  1  0.431060  0.597920  0.696900  1.0
  C  C445  1  0.130010  0.597820  0.174900  1.0
  C  C446  1  0.532190  0.402180  0.325100  1.0
  C  C447  1  0.869990  0.402180  0.825100  1.0
  C  C448  1  0.467810  0.597820  0.674900  1.0
  C  C449  1  0.090460  0.612920  0.184000  1.0
  C  C450  1  0.477540  0.387080  0.316000  1.0
  C  C451  1  0.909540  0.387080  0.816000  1.0
  C  C452  1  0.522460  0.612920  0.684000  1.0
  C  C453  1  0.088600  0.628000  0.215800  1.0
  C  C454  1  0.460600  0.372000  0.284200  1.0
  C  C455  1  0.911400  0.372000  0.784200  1.0
  C  C456  1  0.539400  0.628000  0.715800  1.0
  C  C457  1  0.125320  0.628240  0.237800  1.0
  C  C458  1  0.497080  0.371760  0.262200  1.0
  C  C459  1  0.874680  0.371760  0.762200  1.0
  C  C460  1  0.502920  0.628240  0.737800  1.0
  C  C461  1  0.051500  0.613400  0.160200  1.0
  C  C462  1  0.438100  0.386600  0.339800  1.0
  C  C463  1  0.948500  0.386600  0.839800  1.0
  C  C464  1  0.561900  0.613400  0.660200  1.0
  C  C465  1  0.564950  0.810900  0.481200  1.0
  C  C466  1  0.754050  0.189100  0.018800  1.0
  C  C467  1  0.435050  0.189100  0.518800  1.0
  C  C468  1  0.245950  0.810900  0.981200  1.0
  C  C469  1  0.557980  0.805360  0.510000  1.0
  C  C470  1  0.752620  0.194640  0.990000  1.0
  C  C471  1  0.442020  0.194640  0.490000  1.0
  C  C472  1  0.247380  0.805360  0.010000  1.0
  C  C473  1  0.506920  0.793640  0.518700  1.0
  C  C474  1  0.713280  0.206360  0.981300  1.0
  C  C475  1  0.493080  0.206360  0.481300  1.0
  C  C476  1  0.286720  0.793640  0.018700  1.0
  C  C477  1  0.461970  0.787140  0.498900  1.0
  C  C478  1  0.674830  0.212860  0.001100  1.0
  C  C479  1  0.538030  0.212860  0.501100  1.0
  C  C480  1  0.325170  0.787140  0.998900  1.0
  C  C481  1  0.469650  0.792900  0.470100  1.0
  C  C482  1  0.676750  0.207100  0.029900  1.0
  C  C483  1  0.530350  0.207100  0.529900  1.0
  C  C484  1  0.323250  0.792900  0.970100  1.0
  C  C485  1  0.520620  0.804640  0.461300  1.0
  C  C486  1  0.715980  0.195360  0.038700  1.0
  C  C487  1  0.479380  0.195360  0.538700  1.0
  C  C488  1  0.284020  0.804640  0.961300  1.0
  C  C489  1  0.406900  0.773600  0.508000  1.0
  C  C490  1  0.633300  0.226400  0.992000  1.0
  C  C491  1  0.593100  0.226400  0.492000  1.0
  C  C492  1  0.366700  0.773600  0.008000  1.0
  C  C493  1  0.654000  0.818200  0.482100  1.0
  C  C494  1  0.835800  0.181800  0.017900  1.0
  C  C495  1  0.346000  0.181800  0.517900  1.0
  C  C496  1  0.164200  0.818200  0.982100  1.0
  C  C497  1  0.708620  0.835040  0.476200  1.0
  C  C498  1  0.873580  0.164960  0.023800  1.0
  C  C499  1  0.291380  0.164960  0.523800  1.0
  C  C500  1  0.126420  0.835040  0.976200  1.0
  C  C501  1  0.750700  0.827400  0.487100  1.0
  C  C502  1  0.923300  0.172600  0.012900  1.0
  C  C503  1  0.249300  0.172600  0.512900  1.0
  C  C504  1  0.076700  0.827400  0.987100  1.0
  C  C505  1  0.801200  0.840400  0.478400  1.0
  C  C506  1  0.960800  0.159600  0.021600  1.0
  C  C507  1  0.198800  0.159600  0.521600  1.0
  C  C508  1  0.039200  0.840400  0.978400  1.0
  C  C509  1  0.809500  0.860800  0.459000  1.0
  C  C510  1  0.948700  0.139200  0.041000  1.0
  C  C511  1  0.190500  0.139200  0.541000  1.0
  C  C512  1  0.051300  0.860800  0.959000  1.0
  C  C513  1  0.767370  0.868540  0.448200  1.0
  C  C514  1  0.898830  0.131460  0.051800  1.0
  C  C515  1  0.232630  0.131460  0.551800  1.0
  C  C516  1  0.101170  0.868540  0.948200  1.0
  C  C517  1  0.872600  0.867400  0.419300  1.0
  C  C518  1  0.005200  0.132600  0.080700  1.0
  C  C519  1  0.127400  0.132600  0.580700  1.0
  C  C520  1  0.994800  0.867400  0.919300  1.0
  C  C521  1  0.864900  0.875800  0.450600  1.0
  C  C522  1  0.989100  0.124200  0.049400  1.0
  C  C523  1  0.135100  0.124200  0.549400  1.0
  C  C524  1  0.010900  0.875800  0.950600  1.0
  C  C525  1  0.907500  0.896200  0.472900  1.0
  C  C526  1  0.011300  0.103800  0.027100  1.0
  C  C527  1  0.092500  0.103800  0.527100  1.0
  C  C528  1  0.988700  0.896200  0.972900  1.0
  C  C529  1  0.958000  0.908200  0.463900  1.0
  C  C530  1  0.049800  0.091800  0.036100  1.0
  C  C531  1  0.042000  0.091800  0.536100  1.0
  C  C532  1  0.950200  0.908200  0.963900  1.0
  C  C533  1  0.965700  0.899800  0.432600  1.0
  C  C534  1  0.065900  0.100200  0.067400  1.0
  C  C535  1  0.034300  0.100200  0.567400  1.0
  C  C536  1  0.934100  0.899800  0.932600  1.0
  C  C537  1  0.020200  0.914200  0.423300  1.0
  C  C538  1  0.106000  0.085800  0.076700  1.0
  C  C539  1  0.979800  0.085800  0.576700  1.0
  C  C540  1  0.894000  0.914200  0.923300  1.0
  C  C541  1  0.081810  0.925220  0.387600  1.0
  C  C542  1  0.156590  0.074780  0.112400  1.0
  C  C543  1  0.918190  0.074780  0.612400  1.0
  C  C544  1  0.843410  0.925220  0.887600  1.0
  C  C545  1  0.112220  0.958640  0.405900  1.0
  C  C546  1  0.153580  0.041360  0.094100  1.0
  C  C547  1  0.887780  0.041360  0.594100  1.0
  C  C548  1  0.846420  0.958640  0.905900  1.0
  C  C549  1  0.161400  0.975200  0.397600  1.0
  C  C550  1  0.186200  0.024800  0.102400  1.0
  C  C551  1  0.838600  0.024800  0.602400  1.0
  C  C552  1  0.813800  0.975200  0.897600  1.0
  C  C553  1  0.181400  0.959000  0.370800  1.0
  C  C554  1  0.222400  0.041000  0.129200  1.0
  C  C555  1  0.818600  0.041000  0.629200  1.0
  C  C556  1  0.777600  0.959000  0.870800  1.0
  C  C557  1  0.150500  0.925400  0.352700  1.0
  C  C558  1  0.225100  0.074600  0.147300  1.0
  C  C559  1  0.849500  0.074600  0.647300  1.0
  C  C560  1  0.774900  0.925400  0.852700  1.0
  C  C561  1  0.101200  0.908600  0.361000  1.0
  C  C562  1  0.192600  0.091400  0.139000  1.0
  C  C563  1  0.898800  0.091400  0.639000  1.0
  C  C564  1  0.807400  0.908600  0.861000  1.0
  C  C565  1  0.234000  0.977400  0.361500  1.0
  C  C566  1  0.256600  0.022600  0.138500  1.0
  C  C567  1  0.766000  0.022600  0.638500  1.0
  C  C568  1  0.743400  0.977400  0.861500  1.0
  C  C569  1  0.698800  0.924000  0.518100  1.0
  C  C570  1  0.774800  0.076000  0.981900  1.0
  C  C571  1  0.301200  0.076000  0.481900  1.0
  C  C572  1  0.225200  0.924000  0.018100  1.0
  C  C573  1  0.750490  0.933580  0.509900  1.0
  C  C574  1  0.816910  0.066420  0.990100  1.0
  C  C575  1  0.249510  0.066420  0.490100  1.0
  C  C576  1  0.183090  0.933580  0.009900  1.0
  C  C577  1  0.793340  0.940080  0.531100  1.0
  C  C578  1  0.853260  0.059920  0.968900  1.0
  C  C579  1  0.206660  0.059920  0.468900  1.0
  C  C580  1  0.146740  0.940080  0.031100  1.0
  C  C581  1  0.785400  0.937000  0.560800  1.0
  C  C582  1  0.848400  0.063000  0.939200  1.0
  C  C583  1  0.214600  0.063000  0.439200  1.0
  C  C584  1  0.151600  0.937000  0.060800  1.0
  C  C585  1  0.733300  0.927400  0.568800  1.0
  C  C586  1  0.805900  0.072600  0.931200  1.0
  C  C587  1  0.266700  0.072600  0.431200  1.0
  C  C588  1  0.194100  0.927400  0.068800  1.0
  C  C589  1  0.690250  0.920900  0.547700  1.0
  C  C590  1  0.769350  0.079100  0.952300  1.0
  C  C591  1  0.309750  0.079100  0.452300  1.0
  C  C592  1  0.230650  0.920900  0.047700  1.0
  C  C593  1  0.831700  0.943200  0.583300  1.0
  C  C594  1  0.888500  0.056800  0.916700  1.0
  C  C595  1  0.168300  0.056800  0.416700  1.0
  C  C596  1  0.111500  0.943200  0.083300  1.0
  C  C597  1  0.607400  0.914400  0.507500  1.0
  C  C598  1  0.693000  0.085600  0.992500  1.0
  C  C599  1  0.392600  0.085600  0.492500  1.0
  C  C600  1  0.307000  0.914400  0.007500  1.0
  C  C601  1  0.561400  0.901400  0.484000  1.0
  C  C602  1  0.660000  0.098600  0.016000  1.0
  C  C603  1  0.438600  0.098600  0.516000  1.0
  C  C604  1  0.340000  0.901400  0.984000  1.0
  C  C605  1  0.512700  0.904200  0.492900  1.0
  C  C606  1  0.608500  0.095800  0.007100  1.0
  C  C607  1  0.487300  0.095800  0.507100  1.0
  C  C608  1  0.391500  0.904200  0.992900  1.0
  C  C609  1  0.468400  0.890000  0.471200  1.0
  C  C610  1  0.578400  0.110000  0.028800  1.0
  C  C611  1  0.531600  0.110000  0.528800  1.0
  C  C612  1  0.421600  0.890000  0.971200  1.0
  C  C613  1  0.472900  0.873200  0.440500  1.0
  C  C614  1  0.599700  0.126800  0.059500  1.0
  C  C615  1  0.527100  0.126800  0.559500  1.0
  C  C616  1  0.400300  0.873200  0.940500  1.0
  C  C617  1  0.521500  0.870400  0.431500  1.0
  C  C618  1  0.651100  0.129600  0.068500  1.0
  C  C619  1  0.478500  0.129600  0.568500  1.0
  C  C620  1  0.348900  0.870400  0.931500  1.0
  C  C621  1  0.438310  0.865220  0.386100  1.0
  C  C622  1  0.573090  0.134780  0.113900  1.0
  C  C623  1  0.561690  0.134780  0.613900  1.0
  C  C624  1  0.426910  0.865220  0.886100  1.0
  C  C625  1  0.427700  0.860200  0.414700  1.0
  C  C626  1  0.567500  0.139800  0.085300  1.0
  C  C627  1  0.572300  0.139800  0.585300  1.0
  C  C628  1  0.432500  0.860200  0.914700  1.0
  C  C629  1  0.377800  0.839600  0.418500  1.0
  C  C630  1  0.538200  0.160400  0.081500  1.0
  C  C631  1  0.622200  0.160400  0.581500  1.0
  C  C632  1  0.461800  0.839600  0.918500  1.0
  C  C633  1  0.338330  0.824060  0.393700  1.0
  C  C634  1  0.514270  0.175940  0.106300  1.0
  C  C635  1  0.661670  0.175940  0.606300  1.0
  C  C636  1  0.485730  0.824060  0.893700  1.0
  C  C637  1  0.348950  0.829100  0.365100  1.0
  C  C638  1  0.519850  0.170900  0.134900  1.0
  C  C639  1  0.651050  0.170900  0.634900  1.0
  C  C640  1  0.480150  0.829100  0.865100  1.0
  C  C641  1  0.312100  0.813000  0.336800  1.0
  C  C642  1  0.499100  0.187000  0.163200  1.0
  C  C643  1  0.687900  0.187000  0.663200  1.0
  C  C644  1  0.500900  0.813000  0.836800  1.0
  C  C645  1  0.286850  0.801900  0.285200  1.0
  C  C646  1  0.484950  0.198100  0.214800  1.0
  C  C647  1  0.713150  0.198100  0.714800  1.0
  C  C648  1  0.515050  0.801900  0.785200  1.0
  C  C649  1  0.235910  0.804420  0.286800  1.0
  C  C650  1  0.431490  0.195580  0.213200  1.0
  C  C651  1  0.764090  0.195580  0.713200  1.0
  C  C652  1  0.568510  0.804420  0.786800  1.0
  C  C653  1  0.202540  0.794880  0.259700  1.0
  C  C654  1  0.407660  0.205120  0.240300  1.0
  C  C655  1  0.797460  0.205120  0.740300  1.0
  C  C656  1  0.592340  0.794880  0.759700  1.0
  C  C657  1  0.219210  0.782620  0.230400  1.0
  C  C658  1  0.436590  0.217380  0.269600  1.0
  C  C659  1  0.780790  0.217380  0.769600  1.0
  C  C660  1  0.563410  0.782620  0.730400  1.0
  C  C661  1  0.270470  0.780340  0.229100  1.0
  C  C662  1  0.490130  0.219660  0.270900  1.0
  C  C663  1  0.729530  0.219660  0.770900  1.0
  C  C664  1  0.509870  0.780340  0.729100  1.0
  C  C665  1  0.304020  0.789840  0.256200  1.0
  C  C666  1  0.514180  0.210160  0.243800  1.0
  C  C667  1  0.695980  0.210160  0.743800  1.0
  C  C668  1  0.485820  0.789840  0.756200  1.0
  C  C669  1  0.182700  0.771600  0.201200  1.0
  C  C670  1  0.411100  0.228400  0.298800  1.0
  C  C671  1  0.817300  0.228400  0.798800  1.0
  C  C672  1  0.588900  0.771600  0.701200  1.0
  C  C673  1  0.919250  0.776300  0.133500  1.0
  C  C674  1  0.142950  0.223700  0.366500  1.0
  C  C675  1  0.080750  0.223700  0.866500  1.0
  C  C676  1  0.857050  0.776300  0.633500  1.0
  C  C677  1  0.959640  0.777280  0.113800  1.0
  C  C678  1  0.182360  0.222720  0.386200  1.0
  C  C679  1  0.040360  0.222720  0.886200  1.0
  C  C680  1  0.817640  0.777280  0.613800  1.0
  C  C681  1  0.006020  0.772040  0.122200  1.0
  C  C682  1  0.233980  0.227960  0.377800  1.0
  C  C683  1  0.993980  0.227960  0.877800  1.0
  C  C684  1  0.766020  0.772040  0.622200  1.0
  C  C685  1  0.013050  0.765700  0.150300  1.0
  C  C686  1  0.247350  0.234300  0.349700  1.0
  C  C687  1  0.986950  0.234300  0.849700  1.0
  C  C688  1  0.752650  0.765700  0.650300  1.0
  C  C689  1  0.972270  0.764940  0.169900  1.0
  C  C690  1  0.207330  0.235060  0.330100  1.0
  C  C691  1  0.027730  0.235060  0.830100  1.0
  C  C692  1  0.792670  0.764940  0.669900  1.0
  C  C693  1  0.925770  0.770140  0.161600  1.0
  C  C694  1  0.155630  0.229860  0.338400  1.0
  C  C695  1  0.074230  0.229860  0.838400  1.0
  C  C696  1  0.844370  0.770140  0.661600  1.0
  C  C697  1  0.062610  0.759220  0.158900  1.0
  C  C698  1  0.303390  0.240780  0.341100  1.0
  C  C699  1  0.937390  0.240780  0.841100  1.0
  C  C700  1  0.696610  0.759220  0.658900  1.0
  C  C701  1  0.858400  0.782000  0.101100  1.0
  C  C702  1  0.076400  0.218000  0.398900  1.0
  C  C703  1  0.141600  0.218000  0.898900  1.0
  C  C704  1  0.923600  0.782000  0.601100  1.0
  C  C705  1  0.815230  0.795060  0.094900  1.0
  C  C706  1  0.020170  0.204940  0.405100  1.0
  C  C707  1  0.184770  0.204940  0.905100  1.0
  C  C708  1  0.979830  0.795060  0.594900  1.0
  C  C709  1  0.790440  0.787280  0.065500  1.0
  C  C710  1  0.003160  0.212720  0.434500  1.0
  C  C711  1  0.209560  0.212720  0.934500  1.0
  C  C712  1  0.996840  0.787280  0.565500  1.0
  C  C713  1  0.750920  0.801040  0.061600  1.0
  C  C714  1  0.949880  0.198960  0.438400  1.0
  C  C715  1  0.249080  0.198960  0.938400  1.0
  C  C716  1  0.050120  0.801040  0.561600  1.0
  C  C717  1  0.736280  0.822560  0.087200  1.0
  C  C718  1  0.913720  0.177440  0.412800  1.0
  C  C719  1  0.263720  0.177440  0.912800  1.0
  C  C720  1  0.086280  0.822560  0.587200  1.0
  C  C721  1  0.761070  0.830340  0.116600  1.0
  C  C722  1  0.930730  0.169660  0.383400  1.0
  C  C723  1  0.238930  0.169660  0.883400  1.0
  C  C724  1  0.069270  0.830340  0.616600  1.0
  C  C725  1  0.654850  0.836100  0.107400  1.0
  C  C726  1  0.818750  0.163900  0.392600  1.0
  C  C727  1  0.345150  0.163900  0.892600  1.0
  C  C728  1  0.181250  0.836100  0.607400  1.0
  C  C729  1  0.690000  0.835800  0.084700  1.0
  C  C730  1  0.854200  0.164200  0.415300  1.0
  C  C731  1  0.310000  0.164200  0.915300  1.0
  C  C732  1  0.145800  0.835800  0.584700  1.0
  C  C733  1  0.682380  0.846960  0.059800  1.0
  C  C734  1  0.835420  0.153040  0.440200  1.0
  C  C735  1  0.317620  0.153040  0.940200  1.0
  C  C736  1  0.164580  0.846960  0.559800  1.0
  C  C737  1  0.639780  0.858560  0.057500  1.0
  C  C738  1  0.781220  0.141440  0.442500  1.0
  C  C739  1  0.360220  0.141440  0.942500  1.0
  C  C740  1  0.218780  0.858560  0.557500  1.0
  C  C741  1  0.604660  0.858920  0.080100  1.0
  C  C742  1  0.745740  0.141080  0.419900  1.0
  C  C743  1  0.395340  0.141080  0.919900  1.0
  C  C744  1  0.254260  0.858920  0.580100  1.0
  C  C745  1  0.555100  0.867000  0.077900  1.0
  C  C746  1  0.688100  0.133000  0.422100  1.0
  C  C747  1  0.444900  0.133000  0.922100  1.0
  C  C748  1  0.311900  0.867000  0.577900  1.0
  C  C749  1  0.473360  0.872720  0.095600  1.0
  C  C750  1  0.600640  0.127280  0.404400  1.0
  C  C751  1  0.526640  0.127280  0.904400  1.0
  C  C752  1  0.399360  0.872720  0.595600  1.0
  C  C753  1  0.447870  0.884540  0.121400  1.0
  C  C754  1  0.563330  0.115460  0.378600  1.0
  C  C755  1  0.552130  0.115460  0.878600  1.0
  C  C756  1  0.436670  0.884540  0.621400  1.0
  C  C757  1  0.397850  0.887500  0.117400  1.0
  C  C758  1  0.510350  0.112500  0.382600  1.0
  C  C759  1  0.602150  0.112500  0.882600  1.0
  C  C760  1  0.489650  0.887500  0.617400  1.0
  C  C761  1  0.372270  0.878740  0.087700  1.0
  C  C762  1  0.493530  0.121260  0.412300  1.0
  C  C763  1  0.627730  0.121260  0.912300  1.0
  C  C764  1  0.506470  0.878740  0.587700  1.0
  C  C765  1  0.398410  0.867020  0.062000  1.0
  C  C766  1  0.531390  0.132980  0.438000  1.0
  C  C767  1  0.601590  0.132980  0.938000  1.0
  C  C768  1  0.468610  0.867020  0.562000  1.0
  C  C769  1  0.448500  0.864000  0.065800  1.0
  C  C770  1  0.584500  0.136000  0.434200  1.0
  C  C771  1  0.551500  0.136000  0.934200  1.0
  C  C772  1  0.415500  0.864000  0.565800  1.0
  C  C773  1  0.317680  0.881160  0.083400  1.0
  C  C774  1  0.436520  0.118840  0.416600  1.0
  C  C775  1  0.682320  0.118840  0.916600  1.0
  C  C776  1  0.563480  0.881160  0.583400  1.0
  C  C777  1  0.979580  0.811360  0.393900  1.0
  C  C778  1  0.168220  0.188640  0.106100  1.0
  C  C779  1  0.020420  0.188640  0.606100  1.0
  C  C780  1  0.831780  0.811360  0.893900  1.0
  C  C781  1  0.026770  0.813340  0.408800  1.0
  C  C782  1  0.213430  0.186660  0.091200  1.0
  C  C783  1  0.973230  0.186660  0.591200  1.0
  C  C784  1  0.786570  0.813340  0.908800  1.0
  C  C785  1  0.026910  0.807420  0.437500  1.0
  C  C786  1  0.219490  0.192580  0.062500  1.0
  C  C787  1  0.973090  0.192580  0.562500  1.0
  C  C788  1  0.780510  0.807420  0.937500  1.0
  C  C789  1  0.979980  0.799360  0.451810  1.0
  C  C790  1  0.180620  0.200640  0.048190  1.0
  C  C791  1  0.020020  0.200640  0.548190  1.0
  C  C792  1  0.819380  0.799360  0.951810  1.0
  C  C793  1  0.932990  0.797580  0.436600  1.0
  C  C794  1  0.135410  0.202420  0.063400  1.0
  C  C795  1  0.067010  0.202420  0.563400  1.0
  C  C796  1  0.864590  0.797580  0.936600  1.0
  C  C797  1  0.932650  0.803500  0.407930  1.0
  C  C798  1  0.129150  0.196500  0.092070  1.0
  C  C799  1  0.067350  0.196500  0.592070  1.0
  C  C800  1  0.870850  0.803500  0.907930  1.0
  C  C801  1  0.979960  0.792120  0.482400  1.0
  C  C802  1  0.187840  0.207880  0.017600  1.0
  C  C803  1  0.020040  0.207880  0.517600  1.0
  C  C804  1  0.812160  0.792120  0.982400  1.0
  C  C805  1  0.011900  0.812200  0.346200  1.0
  C  C806  1  0.199700  0.187800  0.153800  1.0
  C  C807  1  0.988100  0.187800  0.653800  1.0
  C  C808  1  0.800300  0.812200  0.846200  1.0
  C  C809  1  0.015280  0.822760  0.316700  1.0
  C  C810  1  0.192520  0.177240  0.183300  1.0
  C  C811  1  0.984720  0.177240  0.683300  1.0
  C  C812  1  0.807480  0.822760  0.816700  1.0
  C  C813  1  0.044440  0.812080  0.292600  1.0
  C  C814  1  0.232360  0.187920  0.207400  1.0
  C  C815  1  0.955560  0.187920  0.707400  1.0
  C  C816  1  0.767640  0.812080  0.792600  1.0
  C  C817  1  0.041160  0.820520  0.265500  1.0
  C  C818  1  0.220640  0.179480  0.234500  1.0
  C  C819  1  0.958840  0.179480  0.734500  1.0
  C  C820  1  0.779360  0.820520  0.765500  1.0
  C  C821  1  0.008810  0.839620  0.262500  1.0
  C  C822  1  0.169190  0.160380  0.237500  1.0
  C  C823  1  0.991190  0.160380  0.737500  1.0
  C  C824  1  0.830810  0.839620  0.762500  1.0
  C  C825  1  0.979740  0.850280  0.286600  1.0
  C  C826  1  0.129460  0.149720  0.213400  1.0
  C  C827  1  0.020260  0.149720  0.713400  1.0
  C  C828  1  0.870540  0.850280  0.786600  1.0
  C  C829  1  0.948750  0.844700  0.221600  1.0
  C  C830  1  0.104050  0.155300  0.278400  1.0
  C  C831  1  0.051250  0.155300  0.778400  1.0
  C  C832  1  0.895950  0.844700  0.721600  1.0
  C  C833  1  0.999500  0.848400  0.232800  1.0
  C  C834  1  0.151100  0.151600  0.267200  1.0
  C  C835  1  0.000500  0.151600  0.767200  1.0
  C  C836  1  0.848900  0.848400  0.732800  1.0
  C  C837  1  0.042520  0.858840  0.216600  1.0
  C  C838  1  0.183680  0.141160  0.283400  1.0
  C  C839  1  0.957480  0.141160  0.783400  1.0
  C  C840  1  0.816320  0.858840  0.716600  1.0
  C  C841  1  0.034890  0.865580  0.189100  1.0
  C  C842  1  0.169310  0.134420  0.310900  1.0
  C  C843  1  0.965110  0.134420  0.810900  1.0
  C  C844  1  0.830690  0.865580  0.689100  1.0
  C  C845  1  0.984250  0.861900  0.177800  1.0
  C  C846  1  0.122350  0.138100  0.322200  1.0
  C  C847  1  0.015750  0.138100  0.822200  1.0
  C  C848  1  0.877650  0.861900  0.677800  1.0
  C  C849  1  0.973100  0.870200  0.148400  1.0
  C  C850  1  0.102900  0.129800  0.351600  1.0
  C  C851  1  0.026900  0.129800  0.851600  1.0
  C  C852  1  0.897100  0.870200  0.648400  1.0
  C  C853  1  0.917020  0.876640  0.112600  1.0
  C  C854  1  0.040380  0.123360  0.387400  1.0
  C  C855  1  0.082980  0.123360  0.887400  1.0
  C  C856  1  0.959620  0.876640  0.612600  1.0
  C  C857  1  0.939230  0.864060  0.085600  1.0
  C  C858  1  0.075170  0.135940  0.414400  1.0
  C  C859  1  0.060770  0.135940  0.914400  1.0
  C  C860  1  0.924830  0.864060  0.585600  1.0
  C  C861  1  0.924070  0.867940  0.057800  1.0
  C  C862  1  0.056130  0.132060  0.442200  1.0
  C  C863  1  0.075930  0.132060  0.942200  1.0
  C  C864  1  0.943870  0.867940  0.557800  1.0
  C  C865  1  0.886530  0.884460  0.056300  1.0
  C  C866  1  0.002070  0.115540  0.443700  1.0
  C  C867  1  0.113470  0.115540  0.943700  1.0
  C  C868  1  0.997930  0.884460  0.556300  1.0
  C  C869  1  0.864530  0.896860  0.083700  1.0
  C  C870  1  0.967670  0.103140  0.416300  1.0
  C  C871  1  0.135470  0.103140  0.916300  1.0
  C  C872  1  0.032330  0.896860  0.583700  1.0
  C  C873  1  0.879520  0.893040  0.111500  1.0
  C  C874  1  0.986480  0.106960  0.388500  1.0
  C  C875  1  0.120480  0.106960  0.888500  1.0
  C  C876  1  0.013520  0.893040  0.611500  1.0
  C  C877  1  0.871300  0.889400  0.026400  1.0
  C  C878  1  0.981900  0.110600  0.473600  1.0
  C  C879  1  0.128700  0.110600  0.973600  1.0
  C  C880  1  0.018100  0.889400  0.526400  1.0
  C  C881  1  0.447450  0.554300  0.120600  1.0
  C  C882  1  0.893150  0.445700  0.379400  1.0
  C  C883  1  0.552550  0.445700  0.879400  1.0
  C  C884  1  0.106850  0.554300  0.620600  1.0
  C  C885  1  0.469500  0.537400  0.136400  1.0
  C  C886  1  0.932100  0.462600  0.363600  1.0
  C  C887  1  0.530500  0.462600  0.863600  1.0
  C  C888  1  0.067900  0.537400  0.636400  1.0
  C  C889  1  0.444510  0.502220  0.132800  1.0
  C  C890  1  0.942290  0.497780  0.367200  1.0
  C  C891  1  0.555490  0.497780  0.867200  1.0
  C  C892  1  0.057710  0.502220  0.632800  1.0
  C  C893  1  0.397090  0.483180  0.113400  1.0
  C  C894  1  0.913910  0.516820  0.386600  1.0
  C  C895  1  0.602910  0.516820  0.886600  1.0
  C  C896  1  0.086090  0.483180  0.613400  1.0
  C  C897  1  0.375360  0.500520  0.097700  1.0
  C  C898  1  0.874840  0.499480  0.402300  1.0
  C  C899  1  0.624640  0.499480  0.902300  1.0
  C  C900  1  0.125160  0.500520  0.597700  1.0
  C  C901  1  0.400250  0.535700  0.101200  1.0
  C  C902  1  0.864550  0.464300  0.398800  1.0
  C  C903  1  0.599750  0.464300  0.898800  1.0
  C  C904  1  0.135450  0.535700  0.601200  1.0
  C  C905  1  0.370800  0.445000  0.109000  1.0
  C  C906  1  0.925800  0.555000  0.391000  1.0
  C  C907  1  0.629200  0.555000  0.891000  1.0
  C  C908  1  0.074200  0.445000  0.609000  1.0
  C  C909  1  0.496100  0.611000  0.149300  1.0
  C  C910  1  0.885100  0.389000  0.350700  1.0
  C  C911  1  0.503900  0.389000  0.850700  1.0
  C  C912  1  0.114900  0.611000  0.649300  1.0
  C  C913  1  0.514490  0.650780  0.158400  1.0
  C  C914  1  0.863710  0.349220  0.341600  1.0
  C  C915  1  0.485510  0.349220  0.841600  1.0
  C  C916  1  0.136290  0.650780  0.658400  1.0
  C  C917  1  0.552500  0.670800  0.183500  1.0
  C  C918  1  0.881700  0.329200  0.316500  1.0
  C  C919  1  0.447500  0.329200  0.816500  1.0
  C  C920  1  0.118300  0.670800  0.683500  1.0
  C  C921  1  0.568800  0.706800  0.191900  1.0
  C  C922  1  0.862000  0.293200  0.308100  1.0
  C  C923  1  0.431200  0.293200  0.808100  1.0
  C  C924  1  0.138000  0.706800  0.691900  1.0
  C  C925  1  0.547270  0.722940  0.175200  1.0
  C  C926  1  0.824330  0.277060  0.324800  1.0
  C  C927  1  0.452730  0.277060  0.824800  1.0
  C  C928  1  0.175670  0.722940  0.675200  1.0
  C  C929  1  0.509300  0.703000  0.150100  1.0
  C  C930  1  0.806300  0.297000  0.349900  1.0
  C  C931  1  0.490700  0.297000  0.849900  1.0
  C  C932  1  0.193700  0.703000  0.650100  1.0
  C  C933  1  0.553220  0.776440  0.161100  1.0
  C  C934  1  0.776780  0.223560  0.338900  1.0
  C  C935  1  0.446780  0.223560  0.838900  1.0
  C  C936  1  0.223220  0.776440  0.661100  1.0
  C  C937  1  0.564170  0.762340  0.183400  1.0
  C  C938  1  0.801830  0.237660  0.316600  1.0
  C  C939  1  0.435830  0.237660  0.816600  1.0
  C  C940  1  0.198170  0.762340  0.683400  1.0
  C  C941  1  0.590600  0.784200  0.212100  1.0
  C  C942  1  0.806400  0.215800  0.287900  1.0
  C  C943  1  0.409400  0.215800  0.787900  1.0
  C  C944  1  0.193600  0.784200  0.712100  1.0
  C  C945  1  0.606000  0.820000  0.218700  1.0
  C  C946  1  0.786000  0.180000  0.281300  1.0
  C  C947  1  0.394000  0.180000  0.781300  1.0
  C  C948  1  0.214000  0.820000  0.718700  1.0
  C  C949  1  0.594950  0.834100  0.196500  1.0
  C  C950  1  0.760850  0.165900  0.303500  1.0
  C  C951  1  0.405050  0.165900  0.803500  1.0
  C  C952  1  0.239150  0.834100  0.696500  1.0
  C  C953  1  0.605700  0.870400  0.200700  1.0
  C  C954  1  0.735300  0.129600  0.299300  1.0
  C  C955  1  0.394300  0.129600  0.799300  1.0
  C  C956  1  0.264700  0.870400  0.700700  1.0
  C  C957  1  0.870600  0.892000  0.332100  1.0
  C  C958  1  0.978600  0.108000  0.167900  1.0
  C  C959  1  0.129400  0.108000  0.667900  1.0
  C  C960  1  0.021400  0.892000  0.832100  1.0
  C  C961  1  0.839120  0.854840  0.325400  1.0
  C  C962  1  0.984280  0.145160  0.174600  1.0
  C  C963  1  0.160880  0.145160  0.674600  1.0
  C  C964  1  0.015720  0.854840  0.825400  1.0
  C  C965  1  0.789700  0.839200  0.308200  1.0
  C  C966  1  0.950500  0.160800  0.191800  1.0
  C  C967  1  0.210300  0.160800  0.691800  1.0
  C  C968  1  0.049500  0.839200  0.808200  1.0
  C  C969  1  0.763400  0.803800  0.302500  1.0
  C  C970  1  0.959600  0.196200  0.197500  1.0
  C  C971  1  0.236600  0.196200  0.697500  1.0
  C  C972  1  0.040400  0.803800  0.802500  1.0
  C  C973  1  0.786500  0.784200  0.314000  1.0
  C  C974  1  0.002300  0.215800  0.186000  1.0
  C  C975  1  0.213500  0.215800  0.686000  1.0
  C  C976  1  0.997700  0.784200  0.814000  1.0
  C  C977  1  0.835900  0.800000  0.331200  1.0
  C  C978  1  0.035900  0.200000  0.168800  1.0
  C  C979  1  0.164100  0.200000  0.668800  1.0
  C  C980  1  0.964100  0.800000  0.831200  1.0
  C  C981  1  0.790600  0.726400  0.315300  1.0
  C  C982  1  0.064200  0.273600  0.184700  1.0
  C  C983  1  0.209400  0.273600  0.684700  1.0
  C  C984  1  0.935800  0.726400  0.815300  1.0
  C  C985  1  0.761370  0.745540  0.308300  1.0
  C  C986  1  0.015830  0.254460  0.191700  1.0
  C  C987  1  0.238630  0.254460  0.691700  1.0
  C  C988  1  0.984170  0.745540  0.808300  1.0
  C  C989  1  0.709000  0.729000  0.295300  1.0
  C  C990  1  0.980000  0.271000  0.204700  1.0
  C  C991  1  0.291000  0.271000  0.704700  1.0
  C  C992  1  0.020000  0.729000  0.795300  1.0
  C  C993  1  0.685800  0.693400  0.289300  1.0
  C  C994  1  0.992400  0.306600  0.210700  1.0
  C  C995  1  0.314200  0.306600  0.710700  1.0
  C  C996  1  0.007600  0.693400  0.789300  1.0
  C  C997  1  0.715010  0.674220  0.296400  1.0
  C  C998  1  0.040790  0.325780  0.203600  1.0
  C  C999  1  0.284990  0.325780  0.703600  1.0
  C  C1000  1  0.959210  0.674220  0.796400  1.0
  C  C1001  1  0.694600  0.636800  0.292900  1.0
  C  C1002  1  0.057800  0.363200  0.207100  1.0
  C  C1003  1  0.305400  0.363200  0.707100  1.0
  C  C1004  1  0.942200  0.636800  0.792900  1.0
  C  C1005  1  0.836910  0.915020  0.204500  1.0
  C  C1006  1  0.921890  0.084980  0.295500  1.0
  C  C1007  1  0.163090  0.084980  0.795500  1.0
  C  C1008  1  0.078110  0.915020  0.704500  1.0
  C  C1009  1  0.887200  0.932000  0.197400  1.0
  C  C1010  1  0.955200  0.068000  0.302600  1.0
  C  C1011  1  0.112800  0.068000  0.802600  1.0
  C  C1012  1  0.044800  0.932000  0.697400  1.0
  C  C1013  1  0.902600  0.967400  0.200700  1.0
  C  C1014  1  0.935200  0.032600  0.299300  1.0
  C  C1015  1  0.097400  0.032600  0.799300  1.0
  C  C1016  1  0.064800  0.967400  0.700700  1.0
  C  C1017  1  0.868430  0.986660  0.211100  1.0
  C  C1018  1  0.881770  0.013340  0.288900  1.0
  C  C1019  1  0.131570  0.013340  0.788900  1.0
  C  C1020  1  0.118230  0.986660  0.711100  1.0
  C  C1021  1  0.818100  0.969200  0.218100  1.0
  C  C1022  1  0.848900  0.030800  0.281900  1.0
  C  C1023  1  0.181900  0.030800  0.781900  1.0
  C  C1024  1  0.151100  0.969200  0.718100  1.0
  C  C1025  1  0.802400  0.933800  0.214800  1.0
  C  C1026  1  0.868600  0.066200  0.285200  1.0
  C  C1027  1  0.197600  0.066200  0.785200  1.0
  C  C1028  1  0.131400  0.933800  0.714800  1.0
  C  C1029  1  0.885600  0.025000  0.215400  1.0
  C  C1030  1  0.860600  0.975000  0.284600  1.0
  C  C1031  1  0.114400  0.975000  0.784600  1.0
  C  C1032  1  0.139400  0.025000  0.715400  1.0
  C  C1033  1  0.790300  0.862400  0.215600  1.0
  C  C1034  1  0.927900  0.137600  0.284400  1.0
  C  C1035  1  0.209700  0.137600  0.784400  1.0
  C  C1036  1  0.072100  0.862400  0.715600  1.0
  C  C1037  1  0.774440  0.825480  0.212900  1.0
  C  C1038  1  0.948960  0.174520  0.287100  1.0
  C  C1039  1  0.225560  0.174520  0.787100  1.0
  C  C1040  1  0.051040  0.825480  0.712900  1.0
  C  C1041  1  0.734010  0.809420  0.228200  1.0
  C  C1042  1  0.924590  0.190580  0.271800  1.0
  C  C1043  1  0.265990  0.190580  0.771800  1.0
  C  C1044  1  0.075410  0.809420  0.728200  1.0
  C  C1045  1  0.718420  0.773640  0.222400  1.0
  C  C1046  1  0.944780  0.226360  0.277600  1.0
  C  C1047  1  0.281580  0.226360  0.777600  1.0
  C  C1048  1  0.055220  0.773640  0.722400  1.0
  C  C1049  1  0.743260  0.753920  0.201400  1.0
  C  C1050  1  0.989340  0.246080  0.298600  1.0
  C  C1051  1  0.256740  0.246080  0.798600  1.0
  C  C1052  1  0.010660  0.753920  0.701400  1.0
  C  C1053  1  0.783790  0.769980  0.186100  1.0
  C  C1054  1  0.013810  0.230020  0.313900  1.0
  C  C1055  1  0.216210  0.230020  0.813900  1.0
  C  C1056  1  0.986190  0.769980  0.686100  1.0
  C  C1057  1  0.744090  0.694180  0.168800  1.0
  C  C1058  1  0.049910  0.305820  0.331200  1.0
  C  C1059  1  0.255910  0.305820  0.831200  1.0
  C  C1060  1  0.950090  0.694180  0.668800  1.0
  C  C1061  1  0.726970  0.714140  0.194400  1.0
  C  C1062  1  0.012830  0.285860  0.305600  1.0
  C  C1063  1  0.273030  0.285860  0.805600  1.0
  C  C1064  1  0.987170  0.714140  0.694400  1.0
  C  C1065  1  0.693990  0.698180  0.213200  1.0
  C  C1066  1  0.995810  0.301820  0.286800  1.0
  C  C1067  1  0.306010  0.301820  0.786800  1.0
  C  C1068  1  0.004190  0.698180  0.713200  1.0
  C  C1069  1  0.678130  0.662260  0.206400  1.0
  C  C1070  1  0.015870  0.337740  0.293600  1.0
  C  C1071  1  0.321870  0.337740  0.793600  1.0
  C  C1072  1  0.984130  0.662260  0.706400  1.0
  C  C1073  1  0.695250  0.642300  0.180900  1.0
  C  C1074  1  0.052950  0.357700  0.319100  1.0
  C  C1075  1  0.304750  0.357700  0.819100  1.0
  C  C1076  1  0.947050  0.642300  0.680900  1.0
  C  C1077  1  0.679000  0.604000  0.171400  1.0
  C  C1078  1  0.075000  0.396000  0.328600  1.0
  C  C1079  1  0.321000  0.396000  0.828600  1.0
  C  C1080  1  0.925000  0.604000  0.671400  1.0
  C  C1081  1  0.688410  0.550020  0.144100  1.0
  C  C1082  1  0.138390  0.449980  0.355900  1.0
  C  C1083  1  0.311590  0.449980  0.855900  1.0
  C  C1084  1  0.861610  0.550020  0.644100  1.0
  C  C1085  1  0.722440  0.530280  0.136700  1.0
  C  C1086  1  0.192160  0.469720  0.363300  1.0
  C  C1087  1  0.277560  0.469720  0.863300  1.0
  C  C1088  1  0.807840  0.530280  0.636700  1.0
  C  C1089  1  0.702250  0.494100  0.129100  1.0
  C  C1090  1  0.208150  0.505900  0.370900  1.0
  C  C1091  1  0.297750  0.505900  0.870900  1.0
  C  C1092  1  0.791850  0.494100  0.629100  1.0
  C  C1093  1  0.647850  0.476900  0.128600  1.0
  C  C1094  1  0.170950  0.523100  0.371400  1.0
  C  C1095  1  0.352150  0.523100  0.871400  1.0
  C  C1096  1  0.829050  0.476900  0.628600  1.0
  C  C1097  1  0.614220  0.497040  0.136200  1.0
  C  C1098  1  0.117180  0.502960  0.363800  1.0
  C  C1099  1  0.385780  0.502960  0.863800  1.0
  C  C1100  1  0.882820  0.497040  0.636200  1.0
  C  C1101  1  0.634220  0.533240  0.143900  1.0
  C  C1102  1  0.100980  0.466760  0.356100  1.0
  C  C1103  1  0.365780  0.466760  0.856100  1.0
  C  C1104  1  0.899020  0.533240  0.643900  1.0
  C  C1105  1  0.625990  0.437780  0.119600  1.0
  C  C1106  1  0.188210  0.562220  0.380400  1.0
  C  C1107  1  0.374010  0.562220  0.880400  1.0
  C  C1108  1  0.811790  0.437780  0.619600  1.0
  C  C1109  1  0.517360  0.936320  0.349100  1.0
  C  C1110  1  0.581040  0.063680  0.150900  1.0
  C  C1111  1  0.482640  0.063680  0.650900  1.0
  C  C1112  1  0.418960  0.936320  0.849100  1.0
  C  C1113  1  0.494820  0.960240  0.344600  1.0
  C  C1114  1  0.534580  0.039760  0.155400  1.0
  C  C1115  1  0.505180  0.039760  0.655400  1.0
  C  C1116  1  0.465420  0.960240  0.844600  1.0
  C  C1117  1  0.510590  0.994180  0.364900  1.0
  C  C1118  1  0.516410  0.005820  0.135100  1.0
  C  C1119  1  0.489410  0.005820  0.635100  1.0
  C  C1120  1  0.483590  0.994180  0.864900  1.0
  C  C1121  1  0.548980  0.004960  0.390200  1.0
  C  C1122  1  0.544020  0.995040  0.109800  1.0
  C  C1123  1  0.451020  0.995040  0.609800  1.0
  C  C1124  1  0.455980  0.004960  0.890200  1.0
  C  C1125  1  0.571120  0.980640  0.394500  1.0
  C  C1126  1  0.590480  0.019360  0.105500  1.0
  C  C1127  1  0.428880  0.019360  0.605500  1.0
  C  C1128  1  0.409520  0.980640  0.894500  1.0
  C  C1129  1  0.555620  0.946640  0.374200  1.0
  C  C1130  1  0.608980  0.053360  0.125800  1.0
  C  C1131  1  0.444380  0.053360  0.625800  1.0
  C  C1132  1  0.391020  0.946640  0.874200  1.0
  C  C1133  1  0.566830  0.041860  0.411700  1.0
  C  C1134  1  0.524970  0.958140  0.088300  1.0
  C  C1135  1  0.433170  0.958140  0.588300  1.0
  C  C1136  1  0.475030  0.041860  0.911700  1.0
  C  C1137  1  0.529400  0.885200  0.321900  1.0
  C  C1138  1  0.644200  0.114800  0.178100  1.0
  C  C1139  1  0.470600  0.114800  0.678100  1.0
  C  C1140  1  0.355800  0.885200  0.821900  1.0
  C  C1141  1  0.516730  0.847660  0.304000  1.0
  C  C1142  1  0.669070  0.152340  0.196000  1.0
  C  C1143  1  0.483270  0.152340  0.696000  1.0
  C  C1144  1  0.330930  0.847660  0.804000  1.0
  C  C1145  1  0.553000  0.829800  0.298400  1.0
  C  C1146  1  0.723200  0.170200  0.201600  1.0
  C  C1147  1  0.447000  0.170200  0.701600  1.0
  C  C1148  1  0.276800  0.829800  0.798400  1.0
  C  C1149  1  0.535200  0.793600  0.286400  1.0
  C  C1150  1  0.741600  0.206400  0.213600  1.0
  C  C1151  1  0.464800  0.206400  0.713600  1.0
  C  C1152  1  0.258400  0.793600  0.786400  1.0
  C  C1153  1  0.481250  0.775500  0.280000  1.0
  C  C1154  1  0.705750  0.224500  0.220000  1.0
  C  C1155  1  0.518750  0.224500  0.720000  1.0
  C  C1156  1  0.294250  0.775500  0.780000  1.0
  C  C1157  1  0.444900  0.793400  0.285600  1.0
  C  C1158  1  0.651500  0.206600  0.214400  1.0
  C  C1159  1  0.555100  0.206600  0.714400  1.0
  C  C1160  1  0.348500  0.793400  0.785600  1.0
  C  C1161  1  0.408300  0.720800  0.271000  1.0
  C  C1162  1  0.687500  0.279200  0.229000  1.0
  C  C1163  1  0.591700  0.279200  0.729000  1.0
  C  C1164  1  0.312500  0.720800  0.771000  1.0
  C  C1165  1  0.461650  0.737300  0.269400  1.0
  C  C1166  1  0.724350  0.262700  0.230600  1.0
  C  C1167  1  0.538350  0.262700  0.730600  1.0
  C  C1168  1  0.275650  0.737300  0.769400  1.0
  C  C1169  1  0.494500  0.717800  0.258000  1.0
  C  C1170  1  0.776700  0.282200  0.242000  1.0
  C  C1171  1  0.505500  0.282200  0.742000  1.0
  C  C1172  1  0.223300  0.717800  0.758000  1.0
  C  C1173  1  0.474000  0.681600  0.248200  1.0
  C  C1174  1  0.792400  0.318400  0.251800  1.0
  C  C1175  1  0.526000  0.318400  0.751800  1.0
  C  C1176  1  0.207600  0.681600  0.748200  1.0
  C  C1177  1  0.420630  0.665060  0.249800  1.0
  C  C1178  1  0.755570  0.334940  0.250200  1.0
  C  C1179  1  0.579370  0.334940  0.750200  1.0
  C  C1180  1  0.244430  0.665060  0.749800  1.0
  C  C1181  1  0.399000  0.629200  0.236600  1.0
  C  C1182  1  0.769800  0.370800  0.263400  1.0
  C  C1183  1  0.601000  0.370800  0.763400  1.0
  C  C1184  1  0.230200  0.629200  0.736600  1.0
  C  C1185  1  0.330600  0.573000  0.221800  1.0
  C  C1186  1  0.757600  0.427000  0.278200  1.0
  C  C1187  1  0.669400  0.427000  0.778200  1.0
  C  C1188  1  0.242400  0.573000  0.721800  1.0
  C  C1189  1  0.354400  0.554000  0.198900  1.0
  C  C1190  1  0.800400  0.446000  0.301100  1.0
  C  C1191  1  0.645600  0.446000  0.801100  1.0
  C  C1192  1  0.199600  0.554000  0.698900  1.0
  C  C1193  1  0.339300  0.518000  0.191600  1.0
  C  C1194  1  0.821300  0.482000  0.308400  1.0
  C  C1195  1  0.660700  0.482000  0.808400  1.0
  C  C1196  1  0.178700  0.518000  0.691600  1.0
  C  C1197  1  0.300100  0.499800  0.206800  1.0
  C  C1198  1  0.800300  0.500200  0.293200  1.0
  C  C1199  1  0.699900  0.500200  0.793200  1.0
  C  C1200  1  0.199700  0.499800  0.706800  1.0
  C  C1201  1  0.276600  0.519200  0.229700  1.0
  C  C1202  1  0.757400  0.480800  0.270300  1.0
  C  C1203  1  0.723400  0.480800  0.770300  1.0
  C  C1204  1  0.242600  0.519200  0.729700  1.0
  C  C1205  1  0.291600  0.555400  0.237100  1.0
  C  C1206  1  0.736200  0.444600  0.262900  1.0
  C  C1207  1  0.708400  0.444600  0.762900  1.0
  C  C1208  1  0.263800  0.555400  0.737100  1.0
  C  C1209  1  0.283000  0.460800  0.198200  1.0
  C  C1210  1  0.822200  0.539200  0.301800  1.0
  C  C1211  1  0.717000  0.539200  0.801800  1.0
  C  C1212  1  0.177800  0.460800  0.698200  1.0
  C  C1213  1  0.686100  0.942000  0.413300  1.0
  C  C1214  1  0.744100  0.058000  0.086700  1.0
  C  C1215  1  0.313900  0.058000  0.586700  1.0
  C  C1216  1  0.255900  0.942000  0.913300  1.0
  C  C1217  1  0.700600  0.956200  0.389200  1.0
  C  C1218  1  0.744400  0.043800  0.110800  1.0
  C  C1219  1  0.299400  0.043800  0.610800  1.0
  C  C1220  1  0.255600  0.956200  0.889200  1.0
  C  C1221  1  0.715200  0.992000  0.395000  1.0
  C  C1222  1  0.723200  0.008000  0.105000  1.0
  C  C1223  1  0.284800  0.008000  0.605000  1.0
  C  C1224  1  0.276800  0.992000  0.895000  1.0
  C  C1225  1  0.715800  0.014600  0.424800  1.0
  C  C1226  1  0.701200  0.985400  0.075200  1.0
  C  C1227  1  0.284200  0.985400  0.575200  1.0
  C  C1228  1  0.298800  0.014600  0.924800  1.0
  C  C1229  1  0.700800  0.999800  0.448700  1.0
  C  C1230  1  0.701000  0.000200  0.051300  1.0
  C  C1231  1  0.299200  0.000200  0.551300  1.0
  C  C1232  1  0.299000  0.999800  0.948700  1.0
  C  C1233  1  0.686200  0.964000  0.443100  1.0
  C  C1234  1  0.722200  0.036000  0.056900  1.0
  C  C1235  1  0.313800  0.036000  0.556900  1.0
  C  C1236  1  0.277800  0.964000  0.943100  1.0
  C  C1237  1  0.732900  0.053400  0.431100  1.0
  C  C1238  1  0.679500  0.946600  0.068900  1.0
  C  C1239  1  0.267100  0.946600  0.568900  1.0
  C  C1240  1  0.320500  0.053400  0.931100  1.0
  C  C1241  1  0.676500  0.886400  0.383000  1.0
  C  C1242  1  0.790100  0.113600  0.117000  1.0
  C  C1243  1  0.323500  0.113600  0.617000  1.0
  C  C1244  1  0.209900  0.886400  0.883000  1.0
  C  C1245  1  0.655470  0.846540  0.375100  1.0
  C  C1246  1  0.808930  0.153460  0.124900  1.0
  C  C1247  1  0.344530  0.153460  0.624900  1.0
  C  C1248  1  0.191070  0.846540  0.875100  1.0
  C  C1249  1  0.658000  0.825800  0.345500  1.0
  C  C1250  1  0.832200  0.174200  0.154500  1.0
  C  C1251  1  0.342000  0.174200  0.654500  1.0
  C  C1252  1  0.167800  0.825800  0.845500  1.0
  C  C1253  1  0.636200  0.789800  0.337600  1.0
  C  C1254  1  0.846400  0.210200  0.162400  1.0
  C  C1255  1  0.363800  0.210200  0.662400  1.0
  C  C1256  1  0.153600  0.789800  0.837600  1.0
  C  C1257  1  0.611810  0.774620  0.359400  1.0
  C  C1258  1  0.837190  0.225380  0.140600  1.0
  C  C1259  1  0.388190  0.225380  0.640600  1.0
  C  C1260  1  0.162810  0.774620  0.859400  1.0
  C  C1261  1  0.609300  0.795400  0.389100  1.0
  C  C1262  1  0.813900  0.204600  0.110900  1.0
  C  C1263  1  0.390700  0.204600  0.610900  1.0
  C  C1264  1  0.186100  0.795400  0.889100  1.0
  C  C1265  1  0.576890  0.720980  0.374900  1.0
  C  C1266  1  0.855910  0.279020  0.125100  1.0
  C  C1267  1  0.423110  0.279020  0.625100  1.0
  C  C1268  1  0.144090  0.720980  0.874900  1.0
  C  C1269  1  0.587060  0.736120  0.351400  1.0
  C  C1270  1  0.850940  0.263880  0.148600  1.0
  C  C1271  1  0.412940  0.263880  0.648600  1.0
  C  C1272  1  0.149060  0.736120  0.851400  1.0
  C  C1273  1  0.574700  0.715400  0.320500  1.0
  C  C1274  1  0.859300  0.284600  0.179500  1.0
  C  C1275  1  0.425300  0.284600  0.679500  1.0
  C  C1276  1  0.140700  0.715400  0.820500  1.0
  C  C1277  1  0.552100  0.679600  0.313200  1.0
  C  C1278  1  0.872500  0.320400  0.186800  1.0
  C  C1279  1  0.447900  0.320400  0.686800  1.0
  C  C1280  1  0.127500  0.679600  0.813200  1.0
  C  C1281  1  0.541800  0.664400  0.336800  1.0
  C  C1282  1  0.877400  0.335600  0.163200  1.0
  C  C1283  1  0.458200  0.335600  0.663200  1.0
  C  C1284  1  0.122600  0.664400  0.836800  1.0
  C  C1285  1  0.521100  0.625600  0.329500  1.0
  C  C1286  1  0.895500  0.374400  0.170500  1.0
  C  C1287  1  0.478900  0.374400  0.670500  1.0
  C  C1288  1  0.104500  0.625600  0.829500  1.0
  C  C1289  1  0.513110  0.772820  0.068900  1.0
  C  C1290  1  0.740290  0.227180  0.431100  1.0
  C  C1291  1  0.486890  0.227180  0.931100  1.0
  C  C1292  1  0.259710  0.772820  0.568900  1.0
  C  C1293  1  0.559180  0.764560  0.071800  1.0
  C  C1294  1  0.794620  0.235440  0.428200  1.0
  C  C1295  1  0.440820  0.235440  0.928200  1.0
  C  C1296  1  0.205380  0.764560  0.571800  1.0
  C  C1297  1  0.584770  0.754140  0.045600  1.0
  C  C1298  1  0.830630  0.245860  0.454400  1.0
  C  C1299  1  0.415230  0.245860  0.954400  1.0
  C  C1300  1  0.169370  0.754140  0.545600  1.0
  C  C1301  1  0.564970  0.751740  0.016100  1.0
  C  C1302  1  0.813230  0.248260  0.483900  1.0
  C  C1303  1  0.435030  0.248260  0.983900  1.0
  C  C1304  1  0.186770  0.751740  0.516100  1.0
  C  C1305  1  0.518620  0.760040  0.013500  1.0
  C  C1306  1  0.758580  0.239960  0.486500  1.0
  C  C1307  1  0.481380  0.239960  0.986500  1.0
  C  C1308  1  0.241420  0.760040  0.513500  1.0
  C  C1309  1  0.492800  0.770400  0.039600  1.0
  C  C1310  1  0.722400  0.229600  0.460400  1.0
  C  C1311  1  0.507200  0.229600  0.960400  1.0
  C  C1312  1  0.277600  0.770400  0.539600  1.0
  C  C1313  1  0.593400  0.741400  0.988000  1.0
  C  C1314  1  0.852000  0.258600  0.512000  1.0
  C  C1315  1  0.406600  0.258600  0.012000  1.0
  C  C1316  1  0.148000  0.741400  0.488000  1.0
  C  C1317  1  0.446200  0.782000  0.098600  1.0
  C  C1318  1  0.664200  0.218000  0.401400  1.0
  C  C1319  1  0.553800  0.218000  0.901400  1.0
  C  C1320  1  0.335800  0.782000  0.598600  1.0
  C  C1321  1  0.327500  0.896600  0.300200  1.0
  C  C1322  1  0.430900  0.103400  0.199800  1.0
  C  C1323  1  0.672500  0.103400  0.699800  1.0
  C  C1324  1  0.569100  0.896600  0.800200  1.0
  C  C1325  1  0.420900  0.798800  0.124500  1.0
  C  C1326  1  0.622100  0.201200  0.375500  1.0
  C  C1327  1  0.579100  0.201200  0.875500  1.0
  C  C1328  1  0.377900  0.798800  0.624500  1.0
  C  C1329  1  0.366800  0.791200  0.127000  1.0
  C  C1330  1  0.575600  0.208800  0.373000  1.0
  C  C1331  1  0.633200  0.208800  0.873000  1.0
  C  C1332  1  0.424400  0.791200  0.627000  1.0
  C  C1333  1  0.348900  0.807400  0.154300  1.0
  C  C1334  1  0.541500  0.192600  0.345700  1.0
  C  C1335  1  0.651100  0.192600  0.845700  1.0
  C  C1336  1  0.458500  0.807400  0.654300  1.0
  C  C1337  1  0.385100  0.831200  0.179000  1.0
  C  C1338  1  0.553900  0.168800  0.321000  1.0
  C  C1339  1  0.614900  0.168800  0.821000  1.0
  C  C1340  1  0.446100  0.831200  0.679000  1.0
  C  C1341  1  0.439180  0.838760  0.176500  1.0
  C  C1342  1  0.600420  0.161240  0.323500  1.0
  C  C1343  1  0.560820  0.161240  0.823500  1.0
  C  C1344  1  0.399580  0.838760  0.676500  1.0
  C  C1345  1  0.398500  0.852800  0.238800  1.0
  C  C1346  1  0.545700  0.147200  0.261200  1.0
  C  C1347  1  0.601500  0.147200  0.761200  1.0
  C  C1348  1  0.454300  0.852800  0.738800  1.0
  C  C1349  1  0.370300  0.849000  0.211500  1.0
  C  C1350  1  0.521300  0.151000  0.288500  1.0
  C  C1351  1  0.629700  0.151000  0.788500  1.0
  C  C1352  1  0.478700  0.849000  0.711500  1.0
  C  C1353  1  0.327300  0.861000  0.212700  1.0
  C  C1354  1  0.466300  0.139000  0.287300  1.0
  C  C1355  1  0.672700  0.139000  0.787300  1.0
  C  C1356  1  0.533700  0.861000  0.712700  1.0
  C  C1357  1  0.312500  0.876800  0.241200  1.0
  C  C1358  1  0.435700  0.123200  0.258800  1.0
  C  C1359  1  0.687500  0.123200  0.758800  1.0
  C  C1360  1  0.564300  0.876800  0.741200  1.0
  C  C1361  1  0.340800  0.880800  0.268500  1.0
  C  C1362  1  0.460000  0.119200  0.231500  1.0
  C  C1363  1  0.659200  0.119200  0.731500  1.0
  C  C1364  1  0.540000  0.880800  0.768500  1.0
  C  C1365  1  0.481000  0.572400  0.340600  1.0
  C  C1366  1  0.908600  0.427600  0.159400  1.0
  C  C1367  1  0.519000  0.427600  0.659400  1.0
  C  C1368  1  0.091400  0.572400  0.840600  1.0
  C  C1369  1  0.494970  0.552540  0.313400  1.0
  C  C1370  1  0.942430  0.447460  0.186600  1.0
  C  C1371  1  0.505030  0.447460  0.686600  1.0
  C  C1372  1  0.057570  0.552540  0.813400  1.0
  C  C1373  1  0.477770  0.516340  0.305600  1.0
  C  C1374  1  0.961430  0.483660  0.194400  1.0
  C  C1375  1  0.522230  0.483660  0.694400  1.0
  C  C1376  1  0.038570  0.516340  0.805600  1.0
  C  C1377  1  0.446410  0.499220  0.324600  1.0
  C  C1378  1  0.947190  0.500780  0.175400  1.0
  C  C1379  1  0.553590  0.500780  0.675400  1.0
  C  C1380  1  0.052810  0.499220  0.824600  1.0
  C  C1381  1  0.432860  0.519520  0.351800  1.0
  C  C1382  1  0.913340  0.480480  0.148200  1.0
  C  C1383  1  0.567140  0.480480  0.648200  1.0
  C  C1384  1  0.086660  0.519520  0.851800  1.0
  C  C1385  1  0.449870  0.555740  0.359800  1.0
  C  C1386  1  0.894130  0.444260  0.140200  1.0
  C  C1387  1  0.550130  0.444260  0.640200  1.0
  C  C1388  1  0.105870  0.555740  0.859800  1.0
  C  C1389  1  0.426840  0.460080  0.315700  1.0
  C  C1390  1  0.966760  0.539920  0.184300  1.0
  C  C1391  1  0.573160  0.539920  0.684300  1.0
  C  C1392  1  0.033240  0.460080  0.815700  1.0
  C  C1393  1  0.681200  0.587200  0.306000  1.0
  C  C1394  1  0.094000  0.412800  0.194000  1.0
  C  C1395  1  0.318800  0.412800  0.694000  1.0
  C  C1396  1  0.906000  0.587200  0.806000  1.0
  C  C1397  1  0.710800  0.566400  0.309100  1.0
  C  C1398  1  0.144400  0.433600  0.190900  1.0
  C  C1399  1  0.289200  0.433600  0.690900  1.0
  C  C1400  1  0.855600  0.566400  0.809100  1.0
  C  C1401  1  0.685300  0.531600  0.307100  1.0
  C  C1402  1  0.153700  0.468400  0.192900  1.0
  C  C1403  1  0.314700  0.468400  0.692900  1.0
  C  C1404  1  0.846300  0.531600  0.807100  1.0
  C  C1405  1  0.629900  0.517000  0.301800  1.0
  C  C1406  1  0.112900  0.483000  0.198200  1.0
  C  C1407  1  0.370100  0.483000  0.698200  1.0
  C  C1408  1  0.887100  0.517000  0.801800  1.0
  C  C1409  1  0.600700  0.538400  0.298800  1.0
  C  C1410  1  0.062300  0.461600  0.201200  1.0
  C  C1411  1  0.399300  0.461600  0.701200  1.0
  C  C1412  1  0.937700  0.538400  0.798800  1.0
  C  C1413  1  0.626000  0.573200  0.300800  1.0
  C  C1414  1  0.052800  0.426800  0.199200  1.0
  C  C1415  1  0.374000  0.426800  0.699200  1.0
  C  C1416  1  0.947200  0.573200  0.800800  1.0
  C  C1417  1  0.602600  0.479400  0.298800  1.0
  C  C1418  1  0.123200  0.520600  0.201200  1.0
  C  C1419  1  0.397400  0.520600  0.701200  1.0
  C  C1420  1  0.876800  0.479400  0.798800  1.0
  C  C1421  1  0.908200  0.902600  0.266200  1.0
  C  C1422  1  0.005600  0.097400  0.233800  1.0
  C  C1423  1  0.091800  0.097400  0.733800  1.0
  C  C1424  1  0.994400  0.902600  0.766200  1.0
  C  C1425  1  0.955900  0.926800  0.260600  1.0
  C  C1426  1  0.029100  0.073200  0.239400  1.0
  C  C1427  1  0.044100  0.073200  0.739400  1.0
  C  C1428  1  0.970900  0.926800  0.760600  1.0
  C  C1429  1  0.949600  0.941200  0.350500  0.246
  C  C1430  1  0.008400  0.058800  0.149500  0.246
  C  C1431  1  0.050400  0.058800  0.649500  0.246
  C  C1432  1  0.991600  0.941200  0.850500  0.246
  C  C1433  1  0.972000  0.952000  0.325900  0.246
  C  C1434  1  0.020000  0.048000  0.174100  0.246
  C  C1435  1  0.028000  0.048000  0.674100  0.246
  C  C1436  1  0.980000  0.952000  0.825900  0.246
  C  C1437  1  0.003300  0.986600  0.331100  0.246
  C  C1438  1  0.016700  0.013400  0.168900  0.246
  C  C1439  1  0.996700  0.013400  0.668900  0.246
  C  C1440  1  0.983300  0.986600  0.831100  0.246
  C  C1441  1  0.012700  0.011000  0.360800  0.246
  C  C1442  1  0.001700  0.989000  0.139200  0.246
  C  C1443  1  0.987300  0.989000  0.639200  0.246
  C  C1444  1  0.998300  0.011000  0.860800  0.246
  C  C1445  1  0.989800  0.999600  0.385300  0.246
  C  C1446  1  0.990200  0.000400  0.114700  0.246
  C  C1447  1  0.010200  0.000400  0.614700  0.246
  C  C1448  1  0.009800  0.999600  0.885300  0.246
  C  C1449  1  0.958500  0.965000  0.380200  0.246
  C  C1450  1  0.993500  0.035000  0.119800  0.246
  C  C1451  1  0.041500  0.035000  0.619800  0.246
  C  C1452  1  0.006500  0.965000  0.880200  0.246
  C  C1453  1  0.045300  0.048600  0.366000  0.246
  C  C1454  1  0.996700  0.951400  0.134000  0.246
  C  C1455  1  0.954700  0.951400  0.634000  0.246
  C  C1456  1  0.003300  0.048600  0.866000  0.246
  C  C1457  1  0.835240  0.570880  0.085300  0.367
  C  C1458  1  0.264360  0.429120  0.414700  0.367
  C  C1459  1  0.164760  0.429120  0.914700  0.367
  C  C1460  1  0.735640  0.570880  0.585300  0.367
  C  C1461  1  0.853700  0.566000  0.111900  0.367
  C  C1462  1  0.287700  0.434000  0.388100  0.367
  C  C1463  1  0.146300  0.434000  0.888100  0.367
  C  C1464  1  0.712300  0.566000  0.611900  0.367
  C  C1465  1  0.897400  0.554400  0.111400  0.367
  C  C1466  1  0.343000  0.445600  0.388600  0.367
  C  C1467  1  0.102600  0.445600  0.888600  0.367
  C  C1468  1  0.657000  0.554400  0.611400  0.367
  C  C1469  1  0.923400  0.547600  0.084600  0.367
  C  C1470  1  0.375800  0.452400  0.415400  0.367
  C  C1471  1  0.076600  0.452400  0.915400  0.367
  C  C1472  1  0.624200  0.547600  0.584600  0.367
  C  C1473  1  0.904500  0.552800  0.058200  0.367
  C  C1474  1  0.351700  0.447200  0.441800  0.367
  C  C1475  1  0.095500  0.447200  0.941800  0.367
  C  C1476  1  0.648300  0.552800  0.558200  0.367
  C  C1477  1  0.860860  0.564320  0.058500  0.367
  C  C1478  1  0.296540  0.435680  0.441500  0.367
  C  C1479  1  0.139140  0.435680  0.941500  0.367
  C  C1480  1  0.703460  0.564320  0.558500  0.367
  C  C1481  1  0.969800  0.534400  0.083900  0.367
  C  C1482  1  0.435400  0.465600  0.416100  0.367
  C  C1483  1  0.030200  0.465600  0.916100  0.367
  C  C1484  1  0.564600  0.534400  0.583900  0.367
  C  C1485  1  0.340100  0.920200  0.356400  0.424
  C  C1486  1  0.419900  0.079800  0.143600  0.424
  C  C1487  1  0.659900  0.079800  0.643600  0.424
  C  C1488  1  0.580100  0.920200  0.856400  0.424
  C  C1489  1  0.350360  0.956120  0.367000  0.424
  C  C1490  1  0.394240  0.043880  0.133000  0.424
  C  C1491  1  0.649640  0.043880  0.633000  0.424
  C  C1492  1  0.605760  0.956120  0.867000  0.424
  C  C1493  1  0.334160  0.971520  0.395400  0.424
  C  C1494  1  0.362640  0.028480  0.104600  0.424
  C  C1495  1  0.665840  0.028480  0.604600  0.424
  C  C1496  1  0.637360  0.971520  0.895400  0.424
  C  C1497  1  0.307640  0.951480  0.413800  0.424
  C  C1498  1  0.356160  0.048520  0.086200  0.424
  C  C1499  1  0.692360  0.048520  0.586200  0.424
  C  C1500  1  0.643840  0.951480  0.913800  0.424
  C  C1501  1  0.297420  0.915440  0.402700  0.424
  C  C1502  1  0.381980  0.084560  0.097300  0.424
  C  C1503  1  0.702580  0.084560  0.597300  0.424
  C  C1504  1  0.618020  0.915440  0.902700  0.424
  C  C1505  1  0.313540  0.899880  0.374400  0.424
  C  C1506  1  0.413660  0.100120  0.125600  0.424
  C  C1507  1  0.686460  0.100120  0.625600  0.424
  C  C1508  1  0.586340  0.899880  0.874400  0.424
  C  C1509  1  0.291450  0.968300  0.444700  0.424
  C  C1510  1  0.323150  0.031700  0.055300  0.424
  C  C1511  1  0.708550  0.031700  0.555300  0.424
  C  C1512  1  0.676850  0.968300  0.944700  0.424
  C  C1513  1  0.564500  0.716400  0.474700  0.48
  C  C1514  1  0.848100  0.283600  0.025300  0.48
  C  C1515  1  0.435500  0.283600  0.525300  0.48
  C  C1516  1  0.151900  0.716400  0.974700  0.48
  C  C1517  1  0.617600  0.732400  0.471200  0.48
  C  C1518  1  0.885200  0.267600  0.028800  0.48
  C  C1519  1  0.382400  0.267600  0.528800  0.48
  C  C1520  1  0.114800  0.732400  0.971200  0.48
  C  C1521  1  0.655500  0.747200  0.497000  0.48
  C  C1522  1  0.908300  0.252800  0.003000  0.48
  C  C1523  1  0.344500  0.252800  0.503000  0.48
  C  C1524  1  0.091700  0.747200  0.997000  0.48
  C  C1525  1  0.641400  0.746400  0.526600  0.48
  C  C1526  1  0.895000  0.253600  0.973400  0.48
  C  C1527  1  0.358600  0.253600  0.473400  0.48
  C  C1528  1  0.105000  0.746400  0.026600  0.48
  C  C1529  1  0.588000  0.730400  0.529700  0.48
  C  C1530  1  0.857600  0.269600  0.970300  0.48
  C  C1531  1  0.412000  0.269600  0.470300  0.48
  C  C1532  1  0.142400  0.730400  0.029700  0.48
  C  C1533  1  0.549800  0.715600  0.504000  0.48
  C  C1534  1  0.834200  0.284400  0.996000  0.48
  C  C1535  1  0.450200  0.284400  0.496000  0.48
  C  C1536  1  0.165800  0.715600  0.004000  0.48
  C  C1537  1  0.682700  0.761600  0.554200  0.48
  C  C1538  1  0.921100  0.238400  0.945800  0.48
  C  C1539  1  0.317300  0.238400  0.445800  0.48
  C  C1540  1  0.078900  0.761600  0.054200  0.48
  C  C1541  1  0.612020  0.921840  0.188500  0.484
  C  C1542  1  0.690180  0.078160  0.311500  0.484
  C  C1543  1  0.387980  0.078160  0.811500  0.484
  C  C1544  1  0.309820  0.921840  0.688500  0.484
  C  C1545  1  0.601580  0.931160  0.162700  0.484
  C  C1546  1  0.670420  0.068840  0.337300  0.484
  C  C1547  1  0.398420  0.068840  0.837300  0.484
  C  C1548  1  0.329580  0.931160  0.662700  0.484
  C  C1549  1  0.623000  0.965600  0.162900  0.484
  C  C1550  1  0.657400  0.034400  0.337100  0.484
  C  C1551  1  0.377000  0.034400  0.837100  0.484
  C  C1552  1  0.342600  0.965600  0.662900  0.484
  C  C1553  1  0.655210  0.991420  0.188700  0.484
  C  C1554  1  0.663790  0.008580  0.311300  0.484
  C  C1555  1  0.344790  0.008580  0.811300  0.484
  C  C1556  1  0.336210  0.991420  0.688700  0.484
  C  C1557  1  0.665150  0.981700  0.214500  0.484
  C  C1558  1  0.683450  0.018300  0.285500  0.484
  C  C1559  1  0.334850  0.018300  0.785500  0.484
  C  C1560  1  0.316550  0.981700  0.714500  0.484
  C  C1561  1  0.643840  0.947280  0.214500  0.484
  C  C1562  1  0.696560  0.052720  0.285500  0.484
  C  C1563  1  0.356160  0.052720  0.785500  0.484
  C  C1564  1  0.303440  0.947280  0.714500  0.484
  C  C1565  1  0.679400  0.028400  0.188600  0.484
  C  C1566  1  0.651000  0.971600  0.311400  0.484
  C  C1567  1  0.320600  0.971600  0.811400  0.484
  C  C1568  1  0.349000  0.028400  0.688600  0.484
  C  C1569  1  0.399600  0.027200  0.403900  0.5
  C  C1570  1  0.372400  0.972800  0.096100  0.5
  C  C1571  1  0.600400  0.972800  0.596100  0.5
  C  C1572  1  0.627600  0.027200  0.903900  0.5
  C  C1573  1  0.383100  0.018200  0.370400  0.5
  C  C1574  1  0.364900  0.981800  0.129600  0.5
  C  C1575  1  0.616900  0.981800  0.629600  0.5
  C  C1576  1  0.635100  0.018200  0.870400  0.5
  C  C1577  1  0.611250  0.921300  0.184000  0.516
  C  C1578  1  0.689950  0.078700  0.316000  0.516
  C  C1579  1  0.388750  0.078700  0.816000  0.516
  C  C1580  1  0.310050  0.921300  0.684000  0.516
  C  C1581  1  0.571400  0.935400  0.181300  0.516
  C  C1582  1  0.636000  0.064600  0.318700  0.516
  C  C1583  1  0.428600  0.064600  0.818700  0.516
  C  C1584  1  0.364000  0.935400  0.681300  0.516
  C  C1585  1  0.584100  0.970800  0.185500  0.516
  C  C1586  1  0.613300  0.029200  0.314500  0.516
  C  C1587  1  0.415900  0.029200  0.814500  0.516
  C  C1588  1  0.386700  0.970800  0.685500  0.516
  C  C1589  1  0.636940  0.993080  0.192500  0.516
  C  C1590  1  0.643860  0.006920  0.307500  0.516
  C  C1591  1  0.363060  0.006920  0.807500  0.516
  C  C1592  1  0.356140  0.993080  0.692500  0.516
  C  C1593  1  0.676620  0.978640  0.195200  0.516
  C  C1594  1  0.697980  0.021360  0.304800  0.516
  C  C1595  1  0.323380  0.021360  0.804800  0.516
  C  C1596  1  0.302020  0.978640  0.695200  0.516
  C  C1597  1  0.664060  0.943120  0.191000  0.516
  C  C1598  1  0.720940  0.056880  0.309000  0.516
  C  C1599  1  0.335940  0.056880  0.809000  0.516
  C  C1600  1  0.279060  0.943120  0.691000  0.516
  C  C1601  1  0.650730  0.031260  0.196300  0.516
  C  C1602  1  0.619470  0.968740  0.303700  0.516
  C  C1603  1  0.349270  0.968740  0.803700  0.516
  C  C1604  1  0.380530  0.031260  0.696300  0.516
  C  C1605  1  0.565100  0.705200  0.472300  0.52
  C  C1606  1  0.859900  0.294800  0.027700  0.52
  C  C1607  1  0.434900  0.294800  0.527700  0.52
  C  C1608  1  0.140100  0.705200  0.972300  0.52
  C  C1609  1  0.549600  0.699800  0.500300  0.52
  C  C1610  1  0.849800  0.300200  0.999700  0.52
  C  C1611  1  0.450400  0.300200  0.499700  0.52
  C  C1612  1  0.150200  0.699800  0.000300  0.52
  C  C1613  1  0.587600  0.709600  0.525400  0.52
  C  C1614  1  0.878000  0.290400  0.974600  0.52
  C  C1615  1  0.412400  0.290400  0.474600  0.52
  C  C1616  1  0.122000  0.709600  0.025400  0.52
  C  C1617  1  0.641600  0.724800  0.523100  0.52
  C  C1618  1  0.916800  0.275200  0.976900  0.52
  C  C1619  1  0.358400  0.275200  0.476900  0.52
  C  C1620  1  0.083200  0.724800  0.023100  0.52
  C  C1621  1  0.656500  0.730200  0.494900  0.52
  C  C1622  1  0.926300  0.269800  0.005100  0.52
  C  C1623  1  0.343500  0.269800  0.505100  0.52
  C  C1624  1  0.073700  0.730200  0.994900  0.52
  C  C1625  1  0.618800  0.720600  0.469700  0.52
  C  C1626  1  0.898200  0.279400  0.030300  0.52
  C  C1627  1  0.381200  0.279400  0.530300  0.52
  C  C1628  1  0.101800  0.720600  0.969700  0.52
  C  C1629  1  0.682600  0.734600  0.550000  0.52
  C  C1630  1  0.948000  0.265400  0.950000  0.52
  C  C1631  1  0.317400  0.265400  0.450000  0.52
  C  C1632  1  0.052000  0.734600  0.050000  0.52
  C  C1633  1  0.331810  0.906620  0.352500  0.576
  C  C1634  1  0.425190  0.093380  0.147500  0.576
  C  C1635  1  0.668190  0.093380  0.647500  0.576
  C  C1636  1  0.574810  0.906620  0.852500  0.576
  C  C1637  1  0.369670  0.926740  0.377900  0.576
  C  C1638  1  0.442930  0.073260  0.122100  0.576
  C  C1639  1  0.630330  0.073260  0.622100  0.576
  C  C1640  1  0.557070  0.926740  0.877900  0.576
  C  C1641  1  0.353720  0.939040  0.407200  0.576
  C  C1642  1  0.414680  0.060960  0.092800  0.576
  C  C1643  1  0.646280  0.060960  0.592800  0.576
  C  C1644  1  0.585320  0.939040  0.907200  0.576
  C  C1645  1  0.299760  0.931520  0.411800  0.576
  C  C1646  1  0.368240  0.068480  0.088200  0.576
  C  C1647  1  0.700240  0.068480  0.588200  0.576
  C  C1648  1  0.631760  0.931520  0.911800  0.576
  C  C1649  1  0.262290  0.911380  0.386100  0.576
  C  C1650  1  0.350910  0.088620  0.113900  0.576
  C  C1651  1  0.737710  0.088620  0.613900  0.576
  C  C1652  1  0.649090  0.911380  0.886100  0.576
  C  C1653  1  0.277890  0.898980  0.356800  0.576
  C  C1654  1  0.378910  0.101020  0.143200  0.576
  C  C1655  1  0.722110  0.101020  0.643200  0.576
  C  C1656  1  0.621090  0.898980  0.856800  0.576
  C  C1657  1  0.282750  0.944100  0.443600  0.576
  C  C1658  1  0.338650  0.055900  0.056400  0.576
  C  C1659  1  0.717250  0.055900  0.556400  0.576
  C  C1660  1  0.661350  0.944100  0.943600  0.576
  C  C1661  1  0.830100  0.563600  0.085900  0.633
  C  C1662  1  0.266500  0.436400  0.414100  0.633
  C  C1663  1  0.169900  0.436400  0.914100  0.633
  C  C1664  1  0.733500  0.563600  0.585900  0.633
  C  C1665  1  0.816400  0.528800  0.067700  0.633
  C  C1666  1  0.287600  0.471200  0.432300  0.633
  C  C1667  1  0.183600  0.471200  0.932300  0.633
  C  C1668  1  0.712400  0.528800  0.567700  0.633
  C  C1669  1  0.852400  0.510800  0.066400  0.633
  C  C1670  1  0.341600  0.489200  0.433600  0.633
  C  C1671  1  0.147600  0.489200  0.933600  0.633
  C  C1672  1  0.658400  0.510800  0.566400  0.633
  C  C1673  1  0.902700  0.527000  0.083200  0.633
  C  C1674  1  0.375700  0.473000  0.416800  0.633
  C  C1675  1  0.097300  0.473000  0.916800  0.633
  C  C1676  1  0.624300  0.527000  0.583200  0.633
  C  C1677  1  0.915900  0.562000  0.101300  0.633
  C  C1678  1  0.353900  0.438000  0.398700  0.633
  C  C1679  1  0.084100  0.438000  0.898700  0.633
  C  C1680  1  0.646100  0.562000  0.601300  0.633
  C  C1681  1  0.880200  0.580200  0.102700  0.633
  C  C1682  1  0.300000  0.419800  0.397300  0.633
  C  C1683  1  0.119800  0.419800  0.897300  0.633
  C  C1684  1  0.700000  0.580200  0.602700  0.633
  C  C1685  1  0.940900  0.507200  0.082400  0.633
  C  C1686  1  0.433700  0.492800  0.417600  0.633
  C  C1687  1  0.059100  0.492800  0.917600  0.633
  C  C1688  1  0.566300  0.507200  0.582400  0.633
  C  C1689  1  0.955380  0.939560  0.348000  0.754
  C  C1690  1  0.015820  0.060440  0.152000  0.754
  C  C1691  1  0.044620  0.060440  0.652000  0.754
  C  C1692  1  0.984180  0.939560  0.848000  0.754
  C  C1693  1  0.937700  0.968000  0.359300  0.754
  C  C1694  1  0.969700  0.032000  0.140700  0.754
  C  C1695  1  0.062300  0.032000  0.640700  0.754
  C  C1696  1  0.030300  0.968000  0.859300  0.754
  C  C1697  1  0.972670  0.001740  0.364100  0.754
  C  C1698  1  0.970930  0.998260  0.135900  0.754
  C  C1699  1  0.027330  0.998260  0.635900  0.754
  C  C1700  1  0.029070  0.001740  0.864100  0.754
  C  C1701  1  0.025600  0.007600  0.357700  0.754
  C  C1702  1  0.018000  0.992400  0.142300  0.754
  C  C1703  1  0.974400  0.992400  0.642300  0.754
  C  C1704  1  0.982000  0.007600  0.857700  0.754
  C  C1705  1  0.042900  0.978800  0.346600  0.754
  C  C1706  1  0.064100  0.021200  0.153400  0.754
  C  C1707  1  0.957100  0.021200  0.653400  0.754
  C  C1708  1  0.935900  0.978800  0.846600  0.754
  C  C1709  1  0.008200  0.945000  0.341700  0.754
  C  C1710  1  0.063200  0.055000  0.158300  0.754
  C  C1711  1  0.991800  0.055000  0.658300  0.754
  C  C1712  1  0.936800  0.945000  0.841700  0.754
  C  C1713  1  0.062900  0.044000  0.362200  0.754
  C  C1714  1  0.018900  0.956000  0.137800  0.754
  C  C1715  1  0.937100  0.956000  0.637800  0.754
  C  C1716  1  0.981100  0.044000  0.862200  0.754
  Cd  Cd1717  1  0.804820  0.655320  0.324580  1.0
  Cd  Cd1718  1  0.149500  0.344680  0.175420  1.0
  Cd  Cd1719  1  0.195180  0.344680  0.675420  1.0
  Cd  Cd1720  1  0.850500  0.655320  0.824580  1.0
  Cd  Cd1721  1  0.515600  0.652440  0.401110  1.0
  Cd  Cd1722  1  0.863160  0.347560  0.098890  1.0
  Cd  Cd1723  1  0.484400  0.347560  0.598890  1.0
  Cd  Cd1724  1  0.136840  0.652440  0.901110  1.0
  Cd  Cd1725  1  0.298030  0.649260  0.254630  1.0
  Cd  Cd1726  1  0.648770  0.350740  0.245370  1.0
  Cd  Cd1727  1  0.701970  0.350740  0.745370  1.0
  Cd  Cd1728  1  0.351230  0.649260  0.754630  1.0
  Cd  Cd1729  1  0.448740  0.627140  0.095420  1.0
  Cd  Cd1730  1  0.821600  0.372860  0.404580  1.0
  Cd  Cd1731  1  0.551260  0.372860  0.904580  1.0
  Cd  Cd1732  1  0.178400  0.627140  0.595420  1.0
  Cd  Cd1733  1  0.768400  0.622660  0.127380  1.0
  Cd  Cd1734  1  0.145740  0.377340  0.372620  1.0
  Cd  Cd1735  1  0.231600  0.377340  0.872620  1.0
  Cd  Cd1736  1  0.854260  0.622660  0.627380  1.0
  Cd  Cd1737  1  0.949070  0.865600  0.360350  1.0
  Cd  Cd1738  1  0.083470  0.134400  0.139650  1.0
  Cd  Cd1739  1  0.050930  0.134400  0.639650  1.0
  Cd  Cd1740  1  0.916530  0.865600  0.860350  1.0
  Cd  Cd1741  1  0.646480  0.871920  0.446490  1.0
  Cd  Cd1742  1  0.774560  0.128080  0.053510  1.0
  Cd  Cd1743  1  0.353520  0.128080  0.553510  1.0
  Cd  Cd1744  1  0.225440  0.871920  0.946490  1.0
  Cd  Cd1745  1  0.408000  0.863100  0.314580  1.0
  Cd  Cd1746  1  0.544900  0.136900  0.185420  1.0
  Cd  Cd1747  1  0.592000  0.136900  0.685420  1.0
  Cd  Cd1748  1  0.455100  0.863100  0.814580  1.0
  Cd  Cd1749  1  0.543410  0.840920  0.136560  1.0
  Cd  Cd1750  1  0.702490  0.159080  0.363440  1.0
  Cd  Cd1751  1  0.456590  0.159080  0.863440  1.0
  Cd  Cd1752  1  0.297510  0.840920  0.636560  1.0
  Cd  Cd1753  1  0.860250  0.837520  0.165910  1.0
  Cd  Cd1754  1  0.022730  0.162480  0.334090  1.0
  Cd  Cd1755  1  0.139750  0.162480  0.834090  1.0
  Cd  Cd1756  1  0.977270  0.837520  0.665910  1.0
  Cl  Cl1757  1  0.453590  0.766780  0.367990  1.0
  Cl  Cl1758  1  0.686810  0.233220  0.132010  1.0
  Cl  Cl1759  1  0.546410  0.233220  0.632010  1.0
  Cl  Cl1760  1  0.313190  0.766780  0.867990  1.0
  Cl  Cl1761  1  0.401840  0.739080  0.189330  1.0
  Cl  Cl1762  1  0.662760  0.260920  0.310670  1.0
  Cl  Cl1763  1  0.598160  0.260920  0.810670  1.0
  Cl  Cl1764  1  0.337240  0.739080  0.689330  1.0
  Cl  Cl1765  1  0.661280  0.733760  0.116060  1.0
  Cl  Cl1766  1  0.927520  0.266240  0.383940  1.0
  Cl  Cl1767  1  0.338720  0.266240  0.883940  1.0
  Cl  Cl1768  1  0.072480  0.733760  0.616060  1.0
  Cl  Cl1769  1  0.873830  0.748060  0.239580  1.0
  Cl  Cl1770  1  0.125770  0.251940  0.260420  1.0
  Cl  Cl1771  1  0.126170  0.251940  0.760420  1.0
  Cl  Cl1772  1  0.874230  0.748060  0.739580  1.0
  Cl  Cl1773  1  0.731740  0.760680  0.395040  1.0
  Cl  Cl1774  1  0.971060  0.239320  0.104960  1.0
  Cl  Cl1775  1  0.268260  0.239320  0.604960  1.0
  Cl  Cl1776  1  0.028940  0.760680  0.895040  1.0
  Cl  Cl1777  1  0.541220  0.592240  0.229820  1.0
  Cl  Cl1778  1  0.948980  0.407760  0.270180  1.0
  Cl  Cl1779  1  0.458780  0.407760  0.770180  1.0
  Cl  Cl1780  1  0.051020  0.592240  0.729820  1.0
  Cl  Cl1781  1  0.948010  0.777420  0.021640  1.0
  Cl  Cl1782  1  0.170590  0.222580  0.478360  1.0
  Cl  Cl1783  1  0.051990  0.222580  0.978360  1.0
  Cl  Cl1784  1  0.829410  0.777420  0.521640  1.0
  Cl  Cl1785  1  0.564580  0.334160  0.045410  1.0
  Cl  Cl1786  1  0.230420  0.665840  0.454590  1.0
  Cl  Cl1787  1  0.435420  0.665840  0.954590  1.0
  Cl  Cl1788  1  0.769580  0.334160  0.545410  1.0
  Cl  Cl1789  1  0.807580  0.100560  0.207380  1.0
  Cl  Cl1790  1  0.707020  0.899440  0.292620  1.0
  Cl  Cl1791  1  0.192420  0.899440  0.792620  1.0
  Cl  Cl1792  1  0.292980  0.100560  0.707380  1.0
  Cl  Cl1793  1  0.260590  0.497380  0.022700  1.0
  Cl  Cl1794  1  0.763210  0.502620  0.477300  1.0
  Cl  Cl1795  1  0.739410  0.502620  0.977300  1.0
  Cl  Cl1796  1  0.236790  0.497380  0.522700  1.0
  Cl  Cl1797  1  0.429860  0.376920  0.166400  1.0
  Cl  Cl1798  1  0.052940  0.623080  0.333600  1.0
  Cl  Cl1799  1  0.570140  0.623080  0.833600  1.0
  Cl  Cl1800  1  0.947060  0.376920  0.666400  1.0
  Cl  Cl1801  1  0.351200  0.186200  0.118900  0.331
  Cl  Cl1802  1  0.165000  0.813800  0.381100  0.331
  Cl  Cl1803  1  0.648800  0.813800  0.881100  0.331
  Cl  Cl1804  1  0.835000  0.186200  0.618900  0.331
  Cl  Cl1805  1  0.656900  0.086000  0.498200  0.442
  Cl  Cl1806  1  0.570900  0.914000  0.001800  0.442
  Cl  Cl1807  1  0.343100  0.914000  0.501800  0.442
  Cl  Cl1808  1  0.429100  0.086000  0.998200  0.442
  Cl  Cl1809  1  0.114100  0.608800  0.057000  0.5
  Cl  Cl1810  1  0.505300  0.391200  0.443000  0.5
  Cl  Cl1811  1  0.885900  0.391200  0.943000  0.5
  Cl  Cl1812  1  0.494700  0.608800  0.557000  0.5
  Cl  Cl1813  1  0.824400  0.936200  0.405800  0.5
  Cl  Cl1814  1  0.888200  0.063800  0.094200  0.5
  Cl  Cl1815  1  0.175600  0.063800  0.594200  0.5
  Cl  Cl1816  1  0.111800  0.936200  0.905800  0.5
  Cl  Cl1817  1  0.185200  0.909800  0.260500  0.5
  Cl  Cl1818  1  0.275400  0.090200  0.239500  0.5
  Cl  Cl1819  1  0.814800  0.090200  0.739500  0.5
  Cl  Cl1820  1  0.724600  0.909800  0.760500  0.5
  Cl  Cl1821  1  0.666300  0.110200  0.500800  0.558
  Cl  Cl1822  1  0.556100  0.889800  0.999200  0.558
  Cl  Cl1823  1  0.333700  0.889800  0.499200  0.558
  Cl  Cl1824  1  0.443900  0.110200  0.000800  0.558
  Cl  Cl1825  1  0.339710  0.184620  0.137200  0.669
  Cl  Cl1826  1  0.155090  0.815380  0.362800  0.669
  Cl  Cl1827  1  0.660290  0.815380  0.862800  0.669
  Cl  Cl1828  1  0.844910  0.184620  0.637200  0.669
  F  F1829  1  0.623840  0.750480  0.263300  1.0
  F  F1830  1  0.873360  0.249520  0.236700  1.0
  F  F1831  1  0.376160  0.249520  0.736700  1.0
  F  F1832  1  0.126640  0.750480  0.763300  1.0
  F  F1833  1  0.654000  0.805400  0.274000  0.44
  F  F1834  1  0.848600  0.194600  0.226000  0.44
  F  F1835  1  0.346000  0.194600  0.726000  0.44
  F  F1836  1  0.151400  0.805400  0.774000  0.44
  F  F1837  1  0.596900  0.694800  0.251000  0.56
  F  F1838  1  0.902100  0.305200  0.249000  0.56
  F  F1839  1  0.403100  0.305200  0.749000  0.56
  F  F1840  1  0.097900  0.694800  0.751000  0.56
  H  H1841  1  0.981200  0.703400  0.367900  1.0
  H  H1842  1  0.277800  0.296600  0.132100  1.0
  H  H1843  1  0.018800  0.296600  0.632100  1.0
  H  H1844  1  0.722200  0.703400  0.867900  1.0
  H  H1845  1  0.055000  0.708800  0.339600  1.0
  H  H1846  1  0.346200  0.291200  0.160400  1.0
  H  H1847  1  0.945000  0.291200  0.660400  1.0
  H  H1848  1  0.653800  0.708800  0.839600  1.0
  H  H1849  1  0.978200  0.732000  0.276000  1.0
  H  H1850  1  0.246200  0.268000  0.224000  1.0
  H  H1851  1  0.021800  0.268000  0.724000  1.0
  H  H1852  1  0.753800  0.732000  0.776000  1.0
  H  H1853  1  0.904400  0.726600  0.304200  1.0
  H  H1854  1  0.177800  0.273400  0.195800  1.0
  H  H1855  1  0.095600  0.273400  0.695800  1.0
  H  H1856  1  0.822200  0.726600  0.804200  1.0
  H  H1857  1  0.063700  0.727600  0.266900  1.0
  H  H1858  1  0.336100  0.272400  0.233100  1.0
  H  H1859  1  0.936300  0.272400  0.733100  1.0
  H  H1860  1  0.663900  0.727600  0.766900  1.0
  H  H1861  1  0.084300  0.705000  0.283600  1.0
  H  H1862  1  0.379300  0.295000  0.216400  1.0
  H  H1863  1  0.915700  0.295000  0.716400  1.0
  H  H1864  1  0.620700  0.705000  0.783600  1.0
  H  H1865  1  0.101400  0.746400  0.298900  1.0
  H  H1866  1  0.355000  0.253600  0.201100  1.0
  H  H1867  1  0.898600  0.253600  0.701100  1.0
  H  H1868  1  0.645000  0.746400  0.798900  1.0
  H  H1869  1  0.917500  0.722800  0.394800  1.0
  H  H1870  1  0.194700  0.277200  0.105200  1.0
  H  H1871  1  0.082500  0.277200  0.605200  1.0
  H  H1872  1  0.805300  0.722800  0.894800  1.0
  H  H1873  1  0.862100  0.726800  0.443500  1.0
  H  H1874  1  0.135300  0.273200  0.056500  1.0
  H  H1875  1  0.137900  0.273200  0.556500  1.0
  H  H1876  1  0.864700  0.726800  0.943500  1.0
  H  H1877  1  0.780300  0.706800  0.462300  1.0
  H  H1878  1  0.073500  0.293200  0.037700  1.0
  H  H1879  1  0.219700  0.293200  0.537700  1.0
  H  H1880  1  0.926500  0.706800  0.962300  1.0
  H  H1881  1  0.713100  0.652000  0.374400  1.0
  H  H1882  1  0.061100  0.348000  0.125600  1.0
  H  H1883  1  0.286900  0.348000  0.625600  1.0
  H  H1884  1  0.938900  0.652000  0.874400  1.0
  H  H1885  1  0.649600  0.671400  0.396100  1.0
  H  H1886  1  0.978200  0.328600  0.103900  1.0
  H  H1887  1  0.350400  0.328600  0.603900  1.0
  H  H1888  1  0.021800  0.671400  0.896100  1.0
  H  H1889  1  0.710700  0.654000  0.469200  1.0
  H  H1890  1  0.056700  0.346000  0.030800  1.0
  H  H1891  1  0.289300  0.346000  0.530800  1.0
  H  H1892  1  0.943300  0.654000  0.969200  1.0
  H  H1893  1  0.624800  0.629400  0.481200  1.0
  H  H1894  1  0.995400  0.370600  0.018800  1.0
  H  H1895  1  0.375200  0.370600  0.518800  1.0
  H  H1896  1  0.004600  0.629400  0.981200  1.0
  H  H1897  1  0.525600  0.610200  0.467200  1.0
  H  H1898  1  0.915400  0.389800  0.032800  1.0
  H  H1899  1  0.474400  0.389800  0.532800  1.0
  H  H1900  1  0.084600  0.610200  0.967200  1.0
  H  H1901  1  0.405000  0.593800  0.398800  1.0
  H  H1902  1  0.811200  0.406200  0.101200  1.0
  H  H1903  1  0.595000  0.406200  0.601200  1.0
  H  H1904  1  0.188800  0.593800  0.898800  1.0
  H  H1905  1  0.316800  0.575200  0.409400  1.0
  H  H1906  1  0.741600  0.424800  0.090600  1.0
  H  H1907  1  0.683200  0.424800  0.590600  1.0
  H  H1908  1  0.258400  0.575200  0.909400  1.0
  H  H1909  1  0.365800  0.595400  0.499800  1.0
  H  H1910  1  0.770400  0.404600  0.000200  1.0
  H  H1911  1  0.634200  0.404600  0.500200  1.0
  H  H1912  1  0.229600  0.595400  0.999800  1.0
  H  H1913  1  0.454100  0.614200  0.489300  1.0
  H  H1914  1  0.839900  0.385800  0.010700  1.0
  H  H1915  1  0.545900  0.385800  0.510700  1.0
  H  H1916  1  0.160100  0.614200  0.989300  1.0
  H  H1917  1  0.273400  0.577800  0.485200  1.0
  H  H1918  1  0.695600  0.422200  0.014800  1.0
  H  H1919  1  0.726600  0.422200  0.514800  1.0
  H  H1920  1  0.304400  0.577800  0.985200  1.0
  H  H1921  1  0.258600  0.547000  0.452900  1.0
  H  H1922  1  0.711600  0.453000  0.047100  1.0
  H  H1923  1  0.741400  0.453000  0.547100  1.0
  H  H1924  1  0.288400  0.547000  0.952900  1.0
  H  H1925  1  0.255200  0.584200  0.454500  1.0
  H  H1926  1  0.671000  0.415800  0.045500  1.0
  H  H1927  1  0.744800  0.415800  0.545500  1.0
  H  H1928  1  0.329000  0.584200  0.954500  1.0
  H  H1929  1  0.328300  0.724400  0.318800  1.0
  H  H1930  1  0.603900  0.275600  0.181200  1.0
  H  H1931  1  0.671700  0.275600  0.681200  1.0
  H  H1932  1  0.396100  0.724400  0.818800  1.0
  H  H1933  1  0.313100  0.741600  0.371100  1.0
  H  H1934  1  0.571500  0.258400  0.128900  1.0
  H  H1935  1  0.686900  0.258400  0.628900  1.0
  H  H1936  1  0.428500  0.741600  0.871100  1.0
  H  H1937  1  0.157900  0.722400  0.345600  1.0
  H  H1938  1  0.435500  0.277600  0.154400  1.0
  H  H1939  1  0.842100  0.277600  0.654400  1.0
  H  H1940  1  0.564500  0.722400  0.845600  1.0
  H  H1941  1  0.172800  0.705000  0.293400  1.0
  H  H1942  1  0.467800  0.295000  0.206600  1.0
  H  H1943  1  0.827200  0.295000  0.706600  1.0
  H  H1944  1  0.532200  0.705000  0.793400  1.0
  H  H1945  1  0.230500  0.727800  0.407300  1.0
  H  H1946  1  0.502700  0.272200  0.092700  1.0
  H  H1947  1  0.769500  0.272200  0.592700  1.0
  H  H1948  1  0.497300  0.727800  0.907300  1.0
  H  H1949  1  0.187100  0.743600  0.399200  1.0
  H  H1950  1  0.443500  0.256400  0.100800  1.0
  H  H1951  1  0.812900  0.256400  0.600800  1.0
  H  H1952  1  0.556500  0.743600  0.899200  1.0
  H  H1953  1  0.247800  0.767800  0.408300  1.0
  H  H1954  1  0.480000  0.232200  0.091700  1.0
  H  H1955  1  0.752200  0.232200  0.591700  1.0
  H  H1956  1  0.520000  0.767800  0.908300  1.0
  H  H1957  1  0.213800  0.715000  0.251000  1.0
  H  H1958  1  0.498800  0.285000  0.249000  1.0
  H  H1959  1  0.786200  0.285000  0.749000  1.0
  H  H1960  1  0.501200  0.715000  0.751000  1.0
  H  H1961  1  0.201600  0.701800  0.191300  1.0
  H  H1962  1  0.499800  0.298200  0.308700  1.0
  H  H1963  1  0.798400  0.298200  0.808700  1.0
  H  H1964  1  0.500200  0.701800  0.691300  1.0
  H  H1965  1  0.218300  0.673000  0.141600  1.0
  H  H1966  1  0.545300  0.327000  0.358400  1.0
  H  H1967  1  0.781700  0.327000  0.858400  1.0
  H  H1968  1  0.454700  0.673000  0.641600  1.0
  H  H1969  1  0.311800  0.633400  0.179700  1.0
  H  H1970  1  0.678400  0.366600  0.320300  1.0
  H  H1971  1  0.688200  0.366600  0.820300  1.0
  H  H1972  1  0.321600  0.633400  0.679700  1.0
  H  H1973  1  0.363800  0.647000  0.145600  1.0
  H  H1974  1  0.716800  0.353000  0.354400  1.0
  H  H1975  1  0.636200  0.353000  0.854400  1.0
  H  H1976  1  0.283200  0.647000  0.645600  1.0
  H  H1977  1  0.218100  0.614200  0.098700  1.0
  H  H1978  1  0.603900  0.385800  0.401300  1.0
  H  H1979  1  0.781900  0.385800  0.901300  1.0
  H  H1980  1  0.396100  0.614200  0.598700  1.0
  H  H1981  1  0.250200  0.586200  0.053900  1.0
  H  H1982  1  0.664000  0.413800  0.446100  1.0
  H  H1983  1  0.749800  0.413800  0.946100  1.0
  H  H1984  1  0.336000  0.586200  0.553900  1.0
  H  H1985  1  0.330700  0.569600  0.027500  1.0
  H  H1986  1  0.761100  0.430400  0.472500  1.0
  H  H1987  1  0.669300  0.430400  0.972500  1.0
  H  H1988  1  0.238900  0.569600  0.527500  1.0
  H  H1989  1  0.409700  0.595000  0.992300  1.0
  H  H1990  1  0.814700  0.405000  0.507700  1.0
  H  H1991  1  0.590300  0.405000  0.007700  1.0
  H  H1992  1  0.185300  0.595000  0.492300  1.0
  H  H1993  1  0.463600  0.579600  0.953800  1.0
  H  H1994  1  0.884000  0.420400  0.546200  1.0
  H  H1995  1  0.536400  0.420400  0.046200  1.0
  H  H1996  1  0.116000  0.579600  0.453800  1.0
  H  H1997  1  0.518700  0.531800  0.005300  1.0
  H  H1998  1  0.986900  0.468200  0.494700  1.0
  H  H1999  1  0.481300  0.468200  0.994700  1.0
  H  H2000  1  0.013100  0.531800  0.505300  1.0
  H  H2001  1  0.464800  0.547200  0.043800  1.0
  H  H2002  1  0.917600  0.452800  0.456200  1.0
  H  H2003  1  0.535200  0.452800  0.956200  1.0
  H  H2004  1  0.082400  0.547200  0.543800  1.0
  H  H2005  1  0.549000  0.528800  0.955900  1.0
  H  H2006  1  0.020200  0.471200  0.544100  1.0
  H  H2007  1  0.451000  0.471200  0.044100  1.0
  H  H2008  1  0.979800  0.528800  0.455900  1.0
  H  H2009  1  0.556600  0.563800  0.947500  1.0
  H  H2010  1  0.992800  0.436200  0.552500  1.0
  H  H2011  1  0.443400  0.436200  0.052500  1.0
  H  H2012  1  0.007200  0.563800  0.447500  1.0
  H  H2013  1  0.507900  0.529600  0.930600  1.0
  H  H2014  1  0.978300  0.470400  0.569400  1.0
  H  H2015  1  0.492100  0.470400  0.069400  1.0
  H  H2016  1  0.021700  0.529600  0.430600  1.0
  H  H2017  1  0.395500  0.699800  0.112600  1.0
  H  H2018  1  0.695700  0.300200  0.387400  1.0
  H  H2019  1  0.604500  0.300200  0.887400  1.0
  H  H2020  1  0.304300  0.699800  0.612600  1.0
  H  H2021  1  0.314500  0.709600  0.109600  1.0
  H  H2022  1  0.604900  0.290400  0.390400  1.0
  H  H2023  1  0.685500  0.290400  0.890400  1.0
  H  H2024  1  0.395100  0.709600  0.609600  1.0
  H  H2025  1  0.304900  0.674800  0.015500  1.0
  H  H2026  1  0.630100  0.325200  0.484500  1.0
  H  H2027  1  0.695100  0.325200  0.984500  1.0
  H  H2028  1  0.369900  0.674800  0.515500  1.0
  H  H2029  1  0.385900  0.664800  0.018400  1.0
  H  H2030  1  0.721100  0.335200  0.481600  1.0
  H  H2031  1  0.614100  0.335200  0.981600  1.0
  H  H2032  1  0.278900  0.664800  0.518400  1.0
  H  H2033  1  0.242100  0.702600  0.040600  1.0
  H  H2034  1  0.539500  0.297400  0.459400  1.0
  H  H2035  1  0.757900  0.297400  0.959400  1.0
  H  H2036  1  0.460500  0.702600  0.540600  1.0
  H  H2037  1  0.247800  0.718800  0.077600  1.0
  H  H2038  1  0.529000  0.281200  0.422400  1.0
  H  H2039  1  0.752200  0.281200  0.922400  1.0
  H  H2040  1  0.471000  0.718800  0.577600  1.0
  H  H2041  1  0.219800  0.678000  0.061500  1.0
  H  H2042  1  0.541800  0.322000  0.438500  1.0
  H  H2043  1  0.780200  0.322000  0.938500  1.0
  H  H2044  1  0.458200  0.678000  0.561500  1.0
  H  H2045  1  0.475200  0.688000  0.036500  1.0
  H  H2046  1  0.787200  0.312000  0.463500  1.0
  H  H2047  1  0.524800  0.312000  0.963500  1.0
  H  H2048  1  0.212800  0.688000  0.536500  1.0
  H  H2049  1  0.560800  0.678000  0.015000  1.0
  H  H2050  1  0.882800  0.322000  0.485000  1.0
  H  H2051  1  0.439200  0.322000  0.985000  1.0
  H  H2052  1  0.117200  0.678000  0.515000  1.0
  H  H2053  1  0.631100  0.656400  0.016400  1.0
  H  H2054  1  0.974700  0.343600  0.483600  1.0
  H  H2055  1  0.368900  0.343600  0.983600  1.0
  H  H2056  1  0.025300  0.656400  0.516400  1.0
  H  H2057  1  0.569200  0.617400  0.084700  1.0
  H  H2058  1  0.951800  0.382600  0.415300  1.0
  H  H2059  1  0.430800  0.382600  0.915300  1.0
  H  H2060  1  0.048200  0.617400  0.584700  1.0
  H  H2061  1  0.660700  0.635600  0.099300  1.0
  H  H2062  1  0.025100  0.364400  0.400700  1.0
  H  H2063  1  0.339300  0.364400  0.900700  1.0
  H  H2064  1  0.974900  0.635600  0.599300  1.0
  H  H2065  1  0.651200  0.600400  0.005400  1.0
  H  H2066  1  0.050800  0.399600  0.494600  1.0
  H  H2067  1  0.348800  0.399600  0.994600  1.0
  H  H2068  1  0.949200  0.600400  0.505400  1.0
  H  H2069  1  0.718400  0.576800  0.008500  1.0
  H  H2070  1  0.141600  0.423200  0.491500  1.0
  H  H2071  1  0.281600  0.423200  0.991500  1.0
  H  H2072  1  0.858400  0.576800  0.508500  1.0
  H  H2073  1  0.780300  0.566400  0.040300  1.0
  H  H2074  1  0.213900  0.433600  0.459700  1.0
  H  H2075  1  0.219700  0.433600  0.959700  1.0
  H  H2076  1  0.786100  0.566400  0.540300  1.0
  H  H2077  1  0.758200  0.691800  0.096200  1.0
  H  H2078  1  0.066400  0.308200  0.403800  1.0
  H  H2079  1  0.241800  0.308200  0.903800  1.0
  H  H2080  1  0.933600  0.691800  0.596200  1.0
  H  H2081  1  0.743900  0.704200  0.050600  1.0
  H  H2082  1  0.039700  0.295800  0.449400  1.0
  H  H2083  1  0.256100  0.295800  0.949400  1.0
  H  H2084  1  0.960300  0.704200  0.550600  1.0
  H  H2085  1  0.876300  0.683000  0.020100  1.0
  H  H2086  1  0.193300  0.317000  0.479900  1.0
  H  H2087  1  0.123700  0.317000  0.979900  1.0
  H  H2088  1  0.806700  0.683000  0.520100  1.0
  H  H2089  1  0.890700  0.670600  0.065700  1.0
  H  H2090  1  0.220100  0.329400  0.434300  1.0
  H  H2091  1  0.109300  0.329400  0.934300  1.0
  H  H2092  1  0.779900  0.670600  0.565700  1.0
  H  H2093  1  0.766600  0.708800  0.001400  1.0
  H  H2094  1  0.057800  0.291200  0.498600  1.0
  H  H2095  1  0.233400  0.291200  0.998600  1.0
  H  H2096  1  0.942200  0.708800  0.501400  1.0
  H  H2097  1  0.793200  0.680800  0.983100  1.0
  H  H2098  1  0.112400  0.319200  0.516900  1.0
  H  H2099  1  0.206800  0.319200  0.016900  1.0
  H  H2100  1  0.887600  0.680800  0.483100  1.0
  H  H2101  1  0.829000  0.720600  0.998300  1.0
  H  H2102  1  0.108400  0.279400  0.501700  1.0
  H  H2103  1  0.171000  0.279400  0.001700  1.0
  H  H2104  1  0.891600  0.720600  0.498300  1.0
  H  H2105  1  0.907700  0.695400  0.120500  1.0
  H  H2106  1  0.212300  0.304600  0.379500  1.0
  H  H2107  1  0.092300  0.304600  0.879500  1.0
  H  H2108  1  0.787700  0.695400  0.620500  1.0
  H  H2109  1  0.968300  0.693200  0.164500  1.0
  H  H2110  1  0.275100  0.306800  0.335500  1.0
  H  H2111  1  0.031700  0.306800  0.835500  1.0
  H  H2112  1  0.724900  0.693200  0.664500  1.0
  H  H2113  1  0.974800  0.679800  0.210400  1.0
  H  H2114  1  0.295000  0.320200  0.289600  1.0
  H  H2115  1  0.025200  0.320200  0.789600  1.0
  H  H2116  1  0.705000  0.679800  0.710400  1.0
  H  H2117  1  0.818100  0.624000  0.195900  1.0
  H  H2118  1  0.194100  0.376000  0.304100  1.0
  H  H2119  1  0.181900  0.376000  0.804100  1.0
  H  H2120  1  0.805900  0.624000  0.695900  1.0
  H  H2121  1  0.829100  0.654000  0.251700  1.0
  H  H2122  1  0.175100  0.346000  0.248300  1.0
  H  H2123  1  0.170900  0.346000  0.748300  1.0
  H  H2124  1  0.824900  0.654000  0.751700  1.0
  H  H2125  1  0.963600  0.629600  0.234400  1.0
  H  H2126  1  0.334000  0.370400  0.265600  1.0
  H  H2127  1  0.036400  0.370400  0.765600  1.0
  H  H2128  1  0.666000  0.629600  0.734400  1.0
  H  H2129  1  0.962900  0.616400  0.281000  1.0
  H  H2130  1  0.346500  0.383600  0.219000  1.0
  H  H2131  1  0.037100  0.383600  0.719000  1.0
  H  H2132  1  0.653500  0.616400  0.781000  1.0
  H  H2133  1  0.916800  0.612200  0.330200  1.0
  H  H2134  1  0.304600  0.387800  0.169800  1.0
  H  H2135  1  0.083200  0.387800  0.669800  1.0
  H  H2136  1  0.695400  0.612200  0.830200  1.0
  H  H2137  1  0.773100  0.600200  0.368600  1.0
  H  H2138  1  0.172900  0.399800  0.131400  1.0
  H  H2139  1  0.226900  0.399800  0.631400  1.0
  H  H2140  1  0.827100  0.600200  0.868600  1.0
  H  H2141  1  0.769900  0.591600  0.417300  1.0
  H  H2142  1  0.178300  0.408400  0.082700  1.0
  H  H2143  1  0.230100  0.408400  0.582700  1.0
  H  H2144  1  0.821700  0.591600  0.917300  1.0
  H  H2145  1  0.929600  0.637000  0.434500  1.0
  H  H2146  1  0.292600  0.363000  0.065500  1.0
  H  H2147  1  0.070400  0.363000  0.565500  1.0
  H  H2148  1  0.707400  0.637000  0.934500  1.0
  H  H2149  1  0.933000  0.645600  0.385800  1.0
  H  H2150  1  0.287400  0.354400  0.114200  1.0
  H  H2151  1  0.067000  0.354400  0.614200  1.0
  H  H2152  1  0.712600  0.645600  0.885800  1.0
  H  H2153  1  0.817700  0.615600  0.472700  1.0
  H  H2154  1  0.202100  0.384400  0.027300  1.0
  H  H2155  1  0.182300  0.384400  0.527300  1.0
  H  H2156  1  0.797900  0.615600  0.972700  1.0
  H  H2157  1  0.880500  0.623600  0.475700  1.0
  H  H2158  1  0.256900  0.376400  0.024300  1.0
  H  H2159  1  0.119500  0.376400  0.524300  1.0
  H  H2160  1  0.743100  0.623600  0.975700  1.0
  H  H2161  1  0.841600  0.584400  0.460800  1.0
  H  H2162  1  0.257200  0.415600  0.039200  1.0
  H  H2163  1  0.158400  0.415600  0.539200  1.0
  H  H2164  1  0.742800  0.584400  0.960800  1.0
  H  H2165  1  0.478600  0.716600  0.470400  1.0
  H  H2166  1  0.762000  0.283400  0.029600  1.0
  H  H2167  1  0.521400  0.283400  0.529600  1.0
  H  H2168  1  0.238000  0.716600  0.970400  1.0
  H  H2169  1  0.386500  0.718800  0.453400  1.0
  H  H2170  1  0.667700  0.281200  0.046600  1.0
  H  H2171  1  0.613500  0.281200  0.546600  1.0
  H  H2172  1  0.332300  0.718800  0.953400  1.0
  H  H2173  1  0.316900  0.696200  0.413700  1.0
  H  H2174  1  0.620700  0.303800  0.086300  1.0
  H  H2175  1  0.683100  0.303800  0.586300  1.0
  H  H2176  1  0.379300  0.696200  0.913700  1.0
  H  H2177  1  0.401200  0.642800  0.357800  1.0
  H  H2178  1  0.758400  0.357200  0.142200  1.0
  H  H2179  1  0.598800  0.357200  0.642200  1.0
  H  H2180  1  0.241600  0.642800  0.857800  1.0
  H  H2181  1  0.359300  0.660400  0.322500  1.0
  H  H2182  1  0.698900  0.339600  0.177500  1.0
  H  H2183  1  0.640700  0.339600  0.677500  1.0
  H  H2184  1  0.301100  0.660400  0.822500  1.0
  H  H2185  1  0.249500  0.644000  0.382800  1.0
  H  H2186  1  0.605500  0.356000  0.117200  1.0
  H  H2187  1  0.750500  0.356000  0.617200  1.0
  H  H2188  1  0.394500  0.644000  0.882800  1.0
  H  H2189  1  0.181700  0.623600  0.342300  1.0
  H  H2190  1  0.558100  0.376400  0.157700  1.0
  H  H2191  1  0.818300  0.376400  0.657700  1.0
  H  H2192  1  0.441900  0.623600  0.842300  1.0
  H  H2193  1  0.159700  0.618400  0.285900  1.0
  H  H2194  1  0.541300  0.381600  0.214100  1.0
  H  H2195  1  0.840300  0.381600  0.714100  1.0
  H  H2196  1  0.458700  0.618400  0.785900  1.0
  H  H2197  1  0.193400  0.587600  0.190300  1.0
  H  H2198  1  0.605800  0.412400  0.309700  1.0
  H  H2199  1  0.806600  0.412400  0.809700  1.0
  H  H2200  1  0.394200  0.587600  0.690300  1.0
  H  H2201  1  0.131900  0.587400  0.153500  1.0
  H  H2202  1  0.544500  0.412600  0.346500  1.0
  H  H2203  1  0.868100  0.412600  0.846500  1.0
  H  H2204  1  0.455500  0.587400  0.653500  1.0
  H  H2205  1  0.062100  0.638400  0.222400  1.0
  H  H2206  1  0.423700  0.361600  0.277600  1.0
  H  H2207  1  0.937900  0.361600  0.777600  1.0
  H  H2208  1  0.576300  0.638400  0.722400  1.0
  H  H2209  1  0.123500  0.638600  0.259300  1.0
  H  H2210  1  0.484900  0.361400  0.240700  1.0
  H  H2211  1  0.876500  0.361400  0.740700  1.0
  H  H2212  1  0.515100  0.638600  0.759300  1.0
  H  H2213  1  0.058800  0.601800  0.139300  1.0
  H  H2214  1  0.457000  0.398200  0.360700  1.0
  H  H2215  1  0.941200  0.398200  0.860700  1.0
  H  H2216  1  0.543000  0.601800  0.639300  1.0
  H  H2217  1  0.055300  0.637600  0.162000  1.0
  H  H2218  1  0.417700  0.362400  0.338000  1.0
  H  H2219  1  0.944700  0.362400  0.838000  1.0
  H  H2220  1  0.582300  0.637600  0.662000  1.0
  H  H2221  1  0.015400  0.601400  0.163600  1.0
  H  H2222  1  0.414000  0.398600  0.336400  1.0
  H  H2223  1  0.984600  0.398600  0.836400  1.0
  H  H2224  1  0.586000  0.601400  0.663600  1.0
  H  H2225  1  0.588000  0.809600  0.523700  1.0
  H  H2226  1  0.778400  0.190400  0.976300  1.0
  H  H2227  1  0.412000  0.190400  0.476300  1.0
  H  H2228  1  0.221600  0.809600  0.023700  1.0
  H  H2229  1  0.502600  0.790000  0.538400  1.0
  H  H2230  1  0.712600  0.210000  0.961600  1.0
  H  H2231  1  0.497400  0.210000  0.461600  1.0
  H  H2232  1  0.287400  0.790000  0.038400  1.0
  H  H2233  1  0.439800  0.788800  0.456400  1.0
  H  H2234  1  0.651000  0.211200  0.043600  1.0
  H  H2235  1  0.560200  0.211200  0.543600  1.0
  H  H2236  1  0.349000  0.788800  0.956400  1.0
  H  H2237  1  0.525100  0.808400  0.441700  1.0
  H  H2238  1  0.716700  0.191600  0.058300  1.0
  H  H2239  1  0.474900  0.191600  0.558300  1.0
  H  H2240  1  0.283300  0.808400  0.941700  1.0
  H  H2241  1  0.382600  0.781400  0.498000  1.0
  H  H2242  1  0.601200  0.218600  0.002000  1.0
  H  H2243  1  0.617400  0.218600  0.502000  1.0
  H  H2244  1  0.398800  0.781400  0.998000  1.0
  H  H2245  1  0.407400  0.782600  0.530600  1.0
  H  H2246  1  0.624800  0.217400  0.969400  1.0
  H  H2247  1  0.592600  0.217400  0.469400  1.0
  H  H2248  1  0.375200  0.782600  0.030600  1.0
  H  H2249  1  0.395100  0.748200  0.501400  1.0
  H  H2250  1  0.646900  0.251800  0.998600  1.0
  H  H2251  1  0.604900  0.251800  0.498600  1.0
  H  H2252  1  0.353100  0.748200  0.001400  1.0
  H  H2253  1  0.646500  0.801400  0.492800  1.0
  H  H2254  1  0.845100  0.198600  0.007200  1.0
  H  H2255  1  0.353500  0.198600  0.507200  1.0
  H  H2256  1  0.154900  0.801400  0.992800  1.0
  H  H2257  1  0.745000  0.813400  0.500300  1.0
  H  H2258  1  0.931600  0.186600  0.999700  1.0
  H  H2259  1  0.255000  0.186600  0.499700  1.0
  H  H2260  1  0.068400  0.813400  0.000300  1.0
  H  H2261  1  0.829900  0.835000  0.485800  1.0
  H  H2262  1  0.994900  0.165000  0.014200  1.0
  H  H2263  1  0.170100  0.165000  0.514200  1.0
  H  H2264  1  0.005100  0.835000  0.985800  1.0
  H  H2265  1  0.773100  0.882600  0.434900  1.0
  H  H2266  1  0.890500  0.117400  0.065100  1.0
  H  H2267  1  0.226900  0.117400  0.565100  1.0
  H  H2268  1  0.109500  0.882600  0.934900  1.0
  H  H2269  1  0.843500  0.853400  0.404000  1.0
  H  H2270  1  0.990100  0.146600  0.096000  1.0
  H  H2271  1  0.156500  0.146600  0.596000  1.0
  H  H2272  1  0.009900  0.853400  0.904000  1.0
  H  H2273  1  0.902200  0.901800  0.494300  1.0
  H  H2274  1  0.000400  0.098200  0.005700  1.0
  H  H2275  1  0.097800  0.098200  0.505700  1.0
  H  H2276  1  0.999600  0.901800  0.994300  1.0
  H  H2277  1  0.987100  0.922200  0.479100  1.0
  H  H2278  1  0.064900  0.077800  0.020900  1.0
  H  H2279  1  0.012900  0.077800  0.520900  1.0
  H  H2280  1  0.935100  0.922200  0.979100  1.0
  H  H2281  1  0.048500  0.929400  0.438800  1.0
  H  H2282  1  0.119100  0.070600  0.061200  1.0
  H  H2283  1  0.951500  0.070600  0.561200  1.0
  H  H2284  1  0.880900  0.929400  0.938800  1.0
  H  H2285  1  0.099200  0.970000  0.424100  1.0
  H  H2286  1  0.129200  0.030000  0.075900  1.0
  H  H2287  1  0.900800  0.030000  0.575900  1.0
  H  H2288  1  0.870800  0.970000  0.924100  1.0
  H  H2289  1  0.181800  0.998000  0.410200  1.0
  H  H2290  1  0.183800  0.002000  0.089800  1.0
  H  H2291  1  0.818200  0.002000  0.589800  1.0
  H  H2292  1  0.816200  0.998000  0.910200  1.0
  H  H2293  1  0.163400  0.913800  0.334600  1.0
  H  H2294  1  0.249600  0.086200  0.165400  1.0
  H  H2295  1  0.836600  0.086200  0.665400  1.0
  H  H2296  1  0.750400  0.913800  0.834600  1.0
  H  H2297  1  0.080800  0.885800  0.348400  1.0
  H  H2298  1  0.195000  0.114200  0.151600  1.0
  H  H2299  1  0.919200  0.114200  0.651600  1.0
  H  H2300  1  0.805000  0.885800  0.848400  1.0
  H  H2301  1  0.259600  0.989800  0.379900  1.0
  H  H2302  1  0.269800  0.010200  0.120100  1.0
  H  H2303  1  0.740400  0.010200  0.620100  1.0
  H  H2304  1  0.730200  0.989800  0.879900  1.0
  H  H2305  1  0.229600  0.994000  0.351500  1.0
  H  H2306  1  0.235600  0.006000  0.148500  1.0
  H  H2307  1  0.770400  0.006000  0.648500  1.0
  H  H2308  1  0.764400  0.994000  0.851500  1.0
  H  H2309  1  0.246900  0.960200  0.346900  1.0
  H  H2310  1  0.286700  0.039800  0.153100  1.0
  H  H2311  1  0.753100  0.039800  0.653100  1.0
  H  H2312  1  0.713300  0.960200  0.846900  1.0
  H  H2313  1  0.756600  0.935800  0.489800  1.0
  H  H2314  1  0.820800  0.064200  0.010200  1.0
  H  H2315  1  0.243400  0.064200  0.510200  1.0
  H  H2316  1  0.179200  0.935800  0.989800  1.0
  H  H2317  1  0.828300  0.946600  0.525200  1.0
  H  H2318  1  0.881700  0.053400  0.974800  1.0
  H  H2319  1  0.171700  0.053400  0.474800  1.0
  H  H2320  1  0.118300  0.946600  0.025200  1.0
  H  H2321  1  0.727100  0.925400  0.588800  1.0
  H  H2322  1  0.801700  0.074600  0.911200  1.0
  H  H2323  1  0.272900  0.074600  0.411200  1.0
  H  H2324  1  0.198300  0.925400  0.088800  1.0
  H  H2325  1  0.655200  0.914400  0.553500  1.0
  H  H2326  1  0.740800  0.085600  0.946500  1.0
  H  H2327  1  0.344800  0.085600  0.446500  1.0
  H  H2328  1  0.259200  0.914400  0.053500  1.0
  H  H2329  1  0.864800  0.949800  0.573800  1.0
  H  H2330  1  0.915000  0.050200  0.926200  1.0
  H  H2331  1  0.135200  0.050200  0.426200  1.0
  H  H2332  1  0.085000  0.949800  0.073800  1.0
  H  H2333  1  0.827800  0.922000  0.588600  1.0
  H  H2334  1  0.905800  0.078000  0.911400  1.0
  H  H2335  1  0.172200  0.078000  0.411400  1.0
  H  H2336  1  0.094200  0.922000  0.088600  1.0
  H  H2337  1  0.832600  0.962200  0.602200  1.0
  H  H2338  1  0.870400  0.037800  0.897800  1.0
  H  H2339  1  0.167400  0.037800  0.397800  1.0
  H  H2340  1  0.129600  0.962200  0.102200  1.0
  H  H2341  1  0.604900  0.924800  0.528900  1.0
  H  H2342  1  0.680100  0.075200  0.971100  1.0
  H  H2343  1  0.395100  0.075200  0.471100  1.0
  H  H2344  1  0.319900  0.924800  0.028900  1.0
  H  H2345  1  0.509800  0.915800  0.513900  1.0
  H  H2346  1  0.594000  0.084200  0.986100  1.0
  H  H2347  1  0.490200  0.084200  0.486100  1.0
  H  H2348  1  0.406000  0.915800  0.013900  1.0
  H  H2349  1  0.435200  0.892000  0.477300  1.0
  H  H2350  1  0.543200  0.108000  0.022700  1.0
  H  H2351  1  0.564800  0.108000  0.522700  1.0
  H  H2352  1  0.456800  0.892000  0.977300  1.0
  H  H2353  1  0.524500  0.858800  0.410500  1.0
  H  H2354  1  0.665700  0.141200  0.089500  1.0
  H  H2355  1  0.475500  0.141200  0.589500  1.0
  H  H2356  1  0.334300  0.858800  0.910500  1.0
  H  H2357  1  0.472400  0.879200  0.383600  1.0
  H  H2358  1  0.593200  0.120800  0.116400  1.0
  H  H2359  1  0.527600  0.120800  0.616400  1.0
  H  H2360  1  0.406800  0.879200  0.883600  1.0
  H  H2361  1  0.370600  0.836200  0.438000  1.0
  H  H2362  1  0.534400  0.163800  0.062000  1.0
  H  H2363  1  0.629400  0.163800  0.562000  1.0
  H  H2364  1  0.465600  0.836200  0.938000  1.0
  H  H2365  1  0.304200  0.810000  0.396200  1.0
  H  H2366  1  0.494200  0.190000  0.103800  1.0
  H  H2367  1  0.695800  0.190000  0.603800  1.0
  H  H2368  1  0.505800  0.810000  0.896200  1.0
  H  H2369  1  0.276600  0.799400  0.338000  1.0
  H  H2370  1  0.477200  0.200600  0.162000  1.0
  H  H2371  1  0.723400  0.200600  0.662000  1.0
  H  H2372  1  0.522800  0.799400  0.838000  1.0
  H  H2373  1  0.223900  0.812600  0.306500  1.0
  H  H2374  1  0.411300  0.187400  0.193500  1.0
  H  H2375  1  0.776100  0.187400  0.693500  1.0
  H  H2376  1  0.588700  0.812600  0.806500  1.0
  H  H2377  1  0.168000  0.796800  0.261100  1.0
  H  H2378  1  0.371200  0.203200  0.238900  1.0
  H  H2379  1  0.832000  0.203200  0.738900  1.0
  H  H2380  1  0.628800  0.796800  0.761100  1.0
  H  H2381  1  0.282600  0.772200  0.209500  1.0
  H  H2382  1  0.510400  0.227800  0.290500  1.0
  H  H2383  1  0.717400  0.227800  0.790500  1.0
  H  H2384  1  0.489600  0.772200  0.709500  1.0
  H  H2385  1  0.338600  0.788000  0.254900  1.0
  H  H2386  1  0.550600  0.212000  0.245100  1.0
  H  H2387  1  0.661400  0.212000  0.745100  1.0
  H  H2388  1  0.449400  0.788000  0.754900  1.0
  H  H2389  1  0.182400  0.748600  0.188000  1.0
  H  H2390  1  0.433800  0.251400  0.312000  1.0
  H  H2391  1  0.817600  0.251400  0.812000  1.0
  H  H2392  1  0.566200  0.748600  0.688000  1.0
  H  H2393  1  0.195100  0.788600  0.190000  1.0
  H  H2394  1  0.406500  0.211400  0.310000  1.0
  H  H2395  1  0.804900  0.211400  0.810000  1.0
  H  H2396  1  0.593500  0.788600  0.690000  1.0
  H  H2397  1  0.146600  0.770200  0.206600  1.0
  H  H2398  1  0.376400  0.229800  0.293400  1.0
  H  H2399  1  0.853400  0.229800  0.793400  1.0
  H  H2400  1  0.623600  0.770200  0.706600  1.0
  H  H2401  1  0.955500  0.781600  0.094700  1.0
  H  H2402  1  0.173900  0.218400  0.405300  1.0
  H  H2403  1  0.044500  0.218400  0.905300  1.0
  H  H2404  1  0.826100  0.781600  0.594700  1.0
  H  H2405  1  0.033200  0.772800  0.108700  1.0
  H  H2406  1  0.260400  0.227200  0.391300  1.0
  H  H2407  1  0.966800  0.227200  0.891300  1.0
  H  H2408  1  0.739600  0.772800  0.608700  1.0
  H  H2409  1  0.976400  0.760800  0.189000  1.0
  H  H2410  1  0.215600  0.239200  0.311000  1.0
  H  H2411  1  0.023600  0.239200  0.811000  1.0
  H  H2412  1  0.784400  0.760800  0.689000  1.0
  H  H2413  1  0.898500  0.769400  0.175100  1.0
  H  H2414  1  0.129100  0.230600  0.324900  1.0
  H  H2415  1  0.101500  0.230600  0.824900  1.0
  H  H2416  1  0.870900  0.769400  0.675100  1.0
  H  H2417  1  0.068100  0.765000  0.181600  1.0
  H  H2418  1  0.303100  0.235000  0.318400  1.0
  H  H2419  1  0.931900  0.235000  0.818400  1.0
  H  H2420  1  0.696900  0.765000  0.681600  1.0
  H  H2421  1  0.093200  0.773800  0.151700  1.0
  H  H2422  1  0.319400  0.226200  0.348300  1.0
  H  H2423  1  0.906800  0.226200  0.848300  1.0
  H  H2424  1  0.680600  0.773800  0.651700  1.0
  H  H2425  1  0.058800  0.734600  0.149200  1.0
  H  H2426  1  0.324200  0.265400  0.350800  1.0
  H  H2427  1  0.941200  0.265400  0.850800  1.0
  H  H2428  1  0.675800  0.734600  0.649200  1.0
  H  H2429  1  0.872000  0.769000  0.084200  1.0
  H  H2430  1  0.103000  0.231000  0.415800  1.0
  H  H2431  1  0.128000  0.231000  0.915800  1.0
  H  H2432  1  0.897000  0.769000  0.584200  1.0
  H  H2433  1  0.800400  0.772600  0.048000  1.0
  H  H2434  1  0.027800  0.227400  0.452000  1.0
  H  H2435  1  0.199600  0.227400  0.952000  1.0
  H  H2436  1  0.972200  0.772600  0.548000  1.0
  H  H2437  1  0.734000  0.795800  0.041500  1.0
  H  H2438  1  0.938200  0.204200  0.458500  1.0
  H  H2439  1  0.266000  0.204200  0.958500  1.0
  H  H2440  1  0.061800  0.795800  0.541500  1.0
  H  H2441  1  0.751100  0.845000  0.134100  1.0
  H  H2442  1  0.906100  0.155000  0.365900  1.0
  H  H2443  1  0.248900  0.155000  0.865900  1.0
  H  H2444  1  0.093900  0.845000  0.634100  1.0
  H  H2445  1  0.659900  0.828400  0.124400  1.0
  H  H2446  1  0.831500  0.171600  0.375600  1.0
  H  H2447  1  0.340100  0.171600  0.875600  1.0
  H  H2448  1  0.168500  0.828400  0.624400  1.0
  H  H2449  1  0.706500  0.846800  0.044300  1.0
  H  H2450  1  0.859700  0.153200  0.455700  1.0
  H  H2451  1  0.293500  0.153200  0.955700  1.0
  H  H2452  1  0.140300  0.846800  0.544300  1.0
  H  H2453  1  0.634600  0.866200  0.040400  1.0
  H  H2454  1  0.768400  0.133800  0.459600  1.0
  H  H2455  1  0.365400  0.133800  0.959600  1.0
  H  H2456  1  0.231600  0.866200  0.540400  1.0
  H  H2457  1  0.546200  0.872600  0.060300  1.0
  H  H2458  1  0.673600  0.127400  0.439700  1.0
  H  H2459  1  0.453800  0.127400  0.939700  1.0
  H  H2460  1  0.326400  0.872600  0.560300  1.0
  H  H2461  1  0.464600  0.890600  0.141700  1.0
  H  H2462  1  0.574000  0.109400  0.358300  1.0
  H  H2463  1  0.535400  0.109400  0.858300  1.0
  H  H2464  1  0.426000  0.890600  0.641700  1.0
  H  H2465  1  0.380900  0.895600  0.135100  1.0
  H  H2466  1  0.485300  0.104400  0.364900  1.0
  H  H2467  1  0.619100  0.104400  0.864900  1.0
  H  H2468  1  0.514700  0.895600  0.635100  1.0
  H  H2469  1  0.381800  0.861000  0.041600  1.0
  H  H2470  1  0.520800  0.139000  0.458400  1.0
  H  H2471  1  0.618200  0.139000  0.958400  1.0
  H  H2472  1  0.479200  0.861000  0.541600  1.0
  H  H2473  1  0.465600  0.856000  0.048200  1.0
  H  H2474  1  0.609600  0.144000  0.451800  1.0
  H  H2475  1  0.534400  0.144000  0.951800  1.0
  H  H2476  1  0.390400  0.856000  0.548200  1.0
  H  H2477  1  0.310700  0.881200  0.062200  1.0
  H  H2478  1  0.429500  0.118800  0.437800  1.0
  H  H2479  1  0.689300  0.118800  0.937800  1.0
  H  H2480  1  0.570500  0.881200  0.562200  1.0
  H  H2481  1  0.315800  0.902800  0.098200  1.0
  H  H2482  1  0.413000  0.097200  0.401800  1.0
  H  H2483  1  0.684200  0.097200  0.901800  1.0
  H  H2484  1  0.587000  0.902800  0.598200  1.0
  H  H2485  1  0.291100  0.861200  0.087100  1.0
  H  H2486  1  0.429900  0.138800  0.412900  1.0
  H  H2487  1  0.708900  0.138800  0.912900  1.0
  H  H2488  1  0.570100  0.861200  0.587100  1.0
  H  H2489  1  0.058900  0.818800  0.399400  1.0
  H  H2490  1  0.240100  0.181200  0.100600  1.0
  H  H2491  1  0.941100  0.181200  0.600600  1.0
  H  H2492  1  0.759900  0.818800  0.899400  1.0
  H  H2493  1  0.059200  0.808800  0.447400  1.0
  H  H2494  1  0.250400  0.191200  0.052600  1.0
  H  H2495  1  0.940800  0.191200  0.552600  1.0
  H  H2496  1  0.749600  0.808800  0.947400  1.0
  H  H2497  1  0.900800  0.792200  0.445900  1.0
  H  H2498  1  0.108600  0.207800  0.054100  1.0
  H  H2499  1  0.099200  0.207800  0.554100  1.0
  H  H2500  1  0.891400  0.792200  0.945900  1.0
  H  H2501  1  0.900400  0.802200  0.397900  1.0
  H  H2502  1  0.098200  0.197800  0.102100  1.0
  H  H2503  1  0.099600  0.197800  0.602100  1.0
  H  H2504  1  0.901800  0.802200  0.897900  1.0
  H  H2505  1  0.944500  0.777400  0.484400  1.0
  H  H2506  1  0.167100  0.222600  0.015600  1.0
  H  H2507  1  0.055500  0.222600  0.515600  1.0
  H  H2508  1  0.832900  0.777400  0.984400  1.0
  H  H2509  1  0.990000  0.814200  0.499400  1.0
  H  H2510  1  0.175800  0.185800  0.000600  1.0
  H  H2511  1  0.010000  0.185800  0.500600  1.0
  H  H2512  1  0.824200  0.814200  0.999400  1.0
  H  H2513  1  0.005600  0.780200  0.483200  1.0
  H  H2514  1  0.225400  0.219800  0.016800  1.0
  H  H2515  1  0.994400  0.219800  0.516800  1.0
  H  H2516  1  0.774600  0.780200  0.983200  1.0
  H  H2517  1  0.033100  0.799200  0.350000  1.0
  H  H2518  1  0.233900  0.200800  0.150000  1.0
  H  H2519  1  0.966900  0.200800  0.650000  1.0
  H  H2520  1  0.766100  0.799200  0.850000  1.0
  H  H2521  1  0.066500  0.799000  0.294700  1.0
  H  H2522  1  0.267500  0.201000  0.205300  1.0
  H  H2523  1  0.933500  0.201000  0.705300  1.0
  H  H2524  1  0.732500  0.799000  0.794700  1.0
  H  H2525  1  0.061100  0.813200  0.249000  1.0
  H  H2526  1  0.247900  0.186800  0.251000  1.0
  H  H2527  1  0.938900  0.186800  0.751000  1.0
  H  H2528  1  0.752100  0.813200  0.749000  1.0
  H  H2529  1  0.957600  0.863400  0.284500  1.0
  H  H2530  1  0.094200  0.136600  0.215500  1.0
  H  H2531  1  0.042400  0.136600  0.715500  1.0
  H  H2532  1  0.905800  0.863400  0.784500  1.0
  H  H2533  1  0.919400  0.837600  0.232600  1.0
  H  H2534  1  0.081800  0.162400  0.267400  1.0
  H  H2535  1  0.080600  0.162400  0.767400  1.0
  H  H2536  1  0.918200  0.837600  0.732600  1.0
  H  H2537  1  0.077100  0.861400  0.224300  1.0
  H  H2538  1  0.215700  0.138600  0.275700  1.0
  H  H2539  1  0.922900  0.138600  0.775700  1.0
  H  H2540  1  0.784300  0.861400  0.724300  1.0
  H  H2541  1  0.064300  0.872800  0.178000  1.0
  H  H2542  1  0.191500  0.127200  0.322000  1.0
  H  H2543  1  0.935700  0.127200  0.822000  1.0
  H  H2544  1  0.808500  0.872800  0.678000  1.0
  H  H2545  1  0.000700  0.876000  0.135700  1.0
  H  H2546  1  0.124700  0.124000  0.364300  1.0
  H  H2547  1  0.999300  0.124000  0.864300  1.0
  H  H2548  1  0.875300  0.876000  0.635700  1.0
  H  H2549  1  0.964700  0.852800  0.086100  1.0
  H  H2550  1  0.111900  0.147200  0.413900  1.0
  H  H2551  1  0.035300  0.147200  0.913900  1.0
  H  H2552  1  0.888100  0.852800  0.586100  1.0
  H  H2553  1  0.939300  0.859200  0.039500  1.0
  H  H2554  1  0.080100  0.140800  0.460500  1.0
  H  H2555  1  0.060700  0.140800  0.960500  1.0
  H  H2556  1  0.919900  0.859200  0.539500  1.0
  H  H2557  1  0.838900  0.908000  0.083200  1.0
  H  H2558  1  0.930900  0.092000  0.416800  1.0
  H  H2559  1  0.161100  0.092000  0.916800  1.0
  H  H2560  1  0.069100  0.908000  0.583200  1.0
  H  H2561  1  0.864200  0.901600  0.129800  1.0
  H  H2562  1  0.962600  0.098400  0.370200  1.0
  H  H2563  1  0.135800  0.098400  0.870200  1.0
  H  H2564  1  0.037400  0.901600  0.629800  1.0
  H  H2565  1  0.895300  0.911400  0.024800  1.0
  H  H2566  1  0.983900  0.088600  0.475200  1.0
  H  H2567  1  0.104700  0.088600  0.975200  1.0
  H  H2568  1  0.016100  0.911400  0.524800  1.0
  H  H2569  1  0.834700  0.889800  0.026200  1.0
  H  H2570  1  0.944900  0.110200  0.473800  1.0
  H  H2571  1  0.165300  0.110200  0.973800  1.0
  H  H2572  1  0.055100  0.889800  0.526200  1.0
  H  H2573  1  0.873800  0.870200  0.008800  1.0
  H  H2574  1  0.003600  0.129800  0.491200  1.0
  H  H2575  1  0.126200  0.129800  0.991200  1.0
  H  H2576  1  0.996400  0.870200  0.508800  1.0
  H  H2577  1  0.501600  0.549800  0.149600  1.0
  H  H2578  1  0.951800  0.450200  0.350400  1.0
  H  H2579  1  0.498400  0.450200  0.850400  1.0
  H  H2580  1  0.048200  0.549800  0.649600  1.0
  H  H2581  1  0.459800  0.491000  0.143700  1.0
  H  H2582  1  0.968800  0.509000  0.356300  1.0
  H  H2583  1  0.540200  0.509000  0.856300  1.0
  H  H2584  1  0.031200  0.491000  0.643700  1.0
  H  H2585  1  0.343200  0.488200  0.084500  1.0
  H  H2586  1  0.855000  0.511800  0.415500  1.0
  H  H2587  1  0.656800  0.511800  0.915500  1.0
  H  H2588  1  0.145000  0.488200  0.584500  1.0
  H  H2589  1  0.385000  0.547000  0.090400  1.0
  H  H2590  1  0.838000  0.453000  0.409600  1.0
  H  H2591  1  0.615000  0.453000  0.909600  1.0
  H  H2592  1  0.162000  0.547000  0.590400  1.0
  H  H2593  1  0.338800  0.441600  0.119900  1.0
  H  H2594  1  0.897200  0.558400  0.380100  1.0
  H  H2595  1  0.661200  0.558400  0.880100  1.0
  H  H2596  1  0.102800  0.441600  0.619900  1.0
  H  H2597  1  0.395500  0.436200  0.117400  1.0
  H  H2598  1  0.959300  0.563800  0.382600  1.0
  H  H2599  1  0.604500  0.563800  0.882600  1.0
  H  H2600  1  0.040700  0.436200  0.617400  1.0
  H  H2601  1  0.361200  0.432400  0.086800  1.0
  H  H2602  1  0.928800  0.567600  0.413200  1.0
  H  H2603  1  0.638800  0.567600  0.913200  1.0
  H  H2604  1  0.071200  0.432400  0.586800  1.0
  H  H2605  1  0.505400  0.600600  0.163500  1.0
  H  H2606  1  0.904800  0.399400  0.336500  1.0
  H  H2607  1  0.494600  0.399400  0.836500  1.0
  H  H2608  1  0.095200  0.600600  0.663500  1.0
  H  H2609  1  0.567200  0.659800  0.194900  1.0
  H  H2610  1  0.907400  0.340200  0.305100  1.0
  H  H2611  1  0.432800  0.340200  0.805100  1.0
  H  H2612  1  0.092600  0.659800  0.694900  1.0
  H  H2613  1  0.594700  0.720400  0.209100  1.0
  H  H2614  1  0.874300  0.279600  0.290900  1.0
  H  H2615  1  0.405300  0.279600  0.790900  1.0
  H  H2616  1  0.125700  0.720400  0.709100  1.0
  H  H2617  1  0.494600  0.714000  0.138700  1.0
  H  H2618  1  0.780600  0.286000  0.361300  1.0
  H  H2619  1  0.505400  0.286000  0.861300  1.0
  H  H2620  1  0.219400  0.714000  0.638700  1.0
  H  H2621  1  0.535200  0.761600  0.141500  1.0
  H  H2622  1  0.773600  0.238400  0.358500  1.0
  H  H2623  1  0.464800  0.238400  0.858500  1.0
  H  H2624  1  0.226400  0.761600  0.641500  1.0
  H  H2625  1  0.598200  0.774600  0.227300  1.0
  H  H2626  1  0.823600  0.225400  0.272700  1.0
  H  H2627  1  0.401800  0.225400  0.772700  1.0
  H  H2628  1  0.176400  0.774600  0.727300  1.0
  H  H2629  1  0.624100  0.835000  0.238300  1.0
  H  H2630  1  0.789100  0.165000  0.261700  1.0
  H  H2631  1  0.375900  0.165000  0.761700  1.0
  H  H2632  1  0.210900  0.835000  0.738300  1.0
  H  H2633  1  0.622100  0.885600  0.220600  1.0
  H  H2634  1  0.736500  0.114400  0.279400  1.0
  H  H2635  1  0.377900  0.114400  0.779400  1.0
  H  H2636  1  0.263500  0.885600  0.720600  1.0
  H  H2637  1  0.853400  0.906600  0.327500  1.0
  H  H2638  1  0.946800  0.093400  0.172500  1.0
  H  H2639  1  0.146600  0.093400  0.672500  1.0
  H  H2640  1  0.053200  0.906600  0.827500  1.0
  H  H2641  1  0.774000  0.852600  0.300300  1.0
  H  H2642  1  0.921400  0.147400  0.199700  1.0
  H  H2643  1  0.226000  0.147400  0.699700  1.0
  H  H2644  1  0.078600  0.852600  0.800300  1.0
  H  H2645  1  0.729600  0.793000  0.290700  1.0
  H  H2646  1  0.936600  0.207000  0.209300  1.0
  H  H2647  1  0.270400  0.207000  0.709300  1.0
  H  H2648  1  0.063400  0.793000  0.790700  1.0
  H  H2649  1  0.851700  0.786600  0.339100  1.0
  H  H2650  1  0.065100  0.213400  0.160900  1.0
  H  H2651  1  0.148300  0.213400  0.660900  1.0
  H  H2652  1  0.934900  0.786600  0.839100  1.0
  H  H2653  1  0.826400  0.737600  0.324200  1.0
  H  H2654  1  0.088800  0.262400  0.175800  1.0
  H  H2655  1  0.173600  0.262400  0.675800  1.0
  H  H2656  1  0.911200  0.737600  0.824200  1.0
  H  H2657  1  0.689000  0.742200  0.290500  1.0
  H  H2658  1  0.946800  0.257800  0.209500  1.0
  H  H2659  1  0.311000  0.257800  0.709500  1.0
  H  H2660  1  0.053200  0.742200  0.790500  1.0
  H  H2661  1  0.650000  0.682200  0.280500  1.0
  H  H2662  1  0.967800  0.317800  0.219500  1.0
  H  H2663  1  0.350000  0.317800  0.719500  1.0
  H  H2664  1  0.032200  0.682200  0.780500  1.0
  H  H2665  1  0.661700  0.624000  0.280500  1.0
  H  H2666  1  0.037700  0.376000  0.219500  1.0
  H  H2667  1  0.338300  0.376000  0.719500  1.0
  H  H2668  1  0.962300  0.624000  0.780500  1.0
  H  H2669  1  0.910900  0.919400  0.190300  1.0
  H  H2670  1  0.991500  0.080600  0.309700  1.0
  H  H2671  1  0.089100  0.080600  0.809700  1.0
  H  H2672  1  0.008500  0.919400  0.690300  1.0
  H  H2673  1  0.936700  0.978600  0.195700  1.0
  H  H2674  1  0.958100  0.021400  0.304300  1.0
  H  H2675  1  0.063300  0.021400  0.804300  1.0
  H  H2676  1  0.041900  0.978600  0.695700  1.0
  H  H2677  1  0.794300  0.981800  0.225100  1.0
  H  H2678  1  0.812500  0.018200  0.274900  1.0
  H  H2679  1  0.205700  0.018200  0.774900  1.0
  H  H2680  1  0.187500  0.981800  0.725100  1.0
  H  H2681  1  0.768200  0.922400  0.219700  1.0
  H  H2682  1  0.845800  0.077600  0.280300  1.0
  H  H2683  1  0.231800  0.077600  0.780300  1.0
  H  H2684  1  0.154200  0.922400  0.719700  1.0
  H  H2685  1  0.864700  0.035800  0.230400  1.0
  H  H2686  1  0.828900  0.964200  0.269600  1.0
  H  H2687  1  0.135300  0.964200  0.769600  1.0
  H  H2688  1  0.171100  0.035800  0.730400  1.0
  H  H2689  1  0.880100  0.028600  0.195500  1.0
  H  H2690  1  0.851500  0.971400  0.304500  1.0
  H  H2691  1  0.119900  0.971400  0.804500  1.0
  H  H2692  1  0.148500  0.028600  0.695500  1.0
  H  H2693  1  0.923300  0.035600  0.223200  1.0
  H  H2694  1  0.887700  0.964400  0.276800  1.0
  H  H2695  1  0.076700  0.964400  0.776800  1.0
  H  H2696  1  0.112300  0.035600  0.723200  1.0
  H  H2697  1  0.774800  0.876400  0.230600  1.0
  H  H2698  1  0.898400  0.123600  0.269400  1.0
  H  H2699  1  0.225200  0.123600  0.769400  1.0
  H  H2700  1  0.101600  0.876400  0.730600  1.0
  H  H2701  1  0.716900  0.822800  0.242600  1.0
  H  H2702  1  0.894100  0.177200  0.257400  1.0
  H  H2703  1  0.283100  0.177200  0.757400  1.0
  H  H2704  1  0.105900  0.822800  0.742600  1.0
  H  H2705  1  0.690800  0.762600  0.232900  1.0
  H  H2706  1  0.928200  0.237400  0.267100  1.0
  H  H2707  1  0.309200  0.237400  0.767100  1.0
  H  H2708  1  0.071800  0.762600  0.732900  1.0
  H  H2709  1  0.800800  0.756600  0.171700  1.0
  H  H2710  1  0.044200  0.243400  0.328300  1.0
  H  H2711  1  0.199200  0.243400  0.828300  1.0
  H  H2712  1  0.955800  0.756600  0.671700  1.0
  H  H2713  1  0.766600  0.705000  0.156000  1.0
  H  H2714  1  0.061600  0.295000  0.344000  1.0
  H  H2715  1  0.233400  0.295000  0.844000  1.0
  H  H2716  1  0.938400  0.705000  0.656000  1.0
  H  H2717  1  0.682200  0.711800  0.230600  1.0
  H  H2718  1  0.970400  0.288200  0.269400  1.0
  H  H2719  1  0.317800  0.288200  0.769400  1.0
  H  H2720  1  0.029600  0.711800  0.730600  1.0
  H  H2721  1  0.655600  0.651400  0.219300  1.0
  H  H2722  1  0.004200  0.348600  0.280700  1.0
  H  H2723  1  0.344400  0.348600  0.780700  1.0
  H  H2724  1  0.995800  0.651400  0.719300  1.0
  H  H2725  1  0.650400  0.591400  0.180200  1.0
  H  H2726  1  0.059000  0.408600  0.319800  1.0
  H  H2727  1  0.349600  0.408600  0.819800  1.0
  H  H2728  1  0.941000  0.591400  0.680200  1.0
  H  H2729  1  0.759300  0.541400  0.136900  1.0
  H  H2730  1  0.217900  0.458600  0.363100  1.0
  H  H2731  1  0.240700  0.458600  0.863100  1.0
  H  H2732  1  0.782100  0.541400  0.636900  1.0
  H  H2733  1  0.725700  0.481000  0.124100  1.0
  H  H2734  1  0.244700  0.519000  0.375900  1.0
  H  H2735  1  0.274300  0.519000  0.875900  1.0
  H  H2736  1  0.755300  0.481000  0.624100  1.0
  H  H2737  1  0.577400  0.486000  0.136100  1.0
  H  H2738  1  0.091400  0.514000  0.363900  1.0
  H  H2739  1  0.422600  0.514000  0.863900  1.0
  H  H2740  1  0.908600  0.486000  0.636100  1.0
  H  H2741  1  0.610800  0.546400  0.148900  1.0
  H  H2742  1  0.064400  0.453600  0.351100  1.0
  H  H2743  1  0.389200  0.453600  0.851100  1.0
  H  H2744  1  0.935600  0.546400  0.648900  1.0
  H  H2745  1  0.595000  0.431000  0.130700  1.0
  H  H2746  1  0.164000  0.569000  0.369300  1.0
  H  H2747  1  0.405000  0.569000  0.869300  1.0
  H  H2748  1  0.836000  0.431000  0.630700  1.0
  H  H2749  1  0.653300  0.429000  0.125100  1.0
  H  H2750  1  0.224300  0.571000  0.374900  1.0
  H  H2751  1  0.346700  0.571000  0.874900  1.0
  H  H2752  1  0.775700  0.429000  0.625100  1.0
  H  H2753  1  0.615700  0.428200  0.097200  1.0
  H  H2754  1  0.187500  0.571800  0.402800  1.0
  H  H2755  1  0.384300  0.571800  0.902800  1.0
  H  H2756  1  0.812500  0.428200  0.597200  1.0
  H  H2757  1  0.468800  0.953400  0.327600  1.0
  H  H2758  1  0.515400  0.046600  0.172400  1.0
  H  H2759  1  0.531200  0.046600  0.672400  1.0
  H  H2760  1  0.484600  0.953400  0.827600  1.0
  H  H2761  1  0.494900  0.010200  0.361700  1.0
  H  H2762  1  0.484700  0.989800  0.138300  1.0
  H  H2763  1  0.505100  0.989800  0.638300  1.0
  H  H2764  1  0.515300  0.010200  0.861700  1.0
  H  H2765  1  0.597200  0.987400  0.411500  1.0
  H  H2766  1  0.609800  0.012600  0.088500  1.0
  H  H2767  1  0.402800  0.012600  0.588500  1.0
  H  H2768  1  0.390200  0.987400  0.911500  1.0
  H  H2769  1  0.571100  0.930600  0.377400  1.0
  H  H2770  1  0.640500  0.069400  0.122600  1.0
  H  H2771  1  0.428900  0.069400  0.622600  1.0
  H  H2772  1  0.359500  0.930600  0.877400  1.0
  H  H2773  1  0.605700  0.050800  0.415100  1.0
  H  H2774  1  0.554900  0.949200  0.084900  1.0
  H  H2775  1  0.394300  0.949200  0.584900  1.0
  H  H2776  1  0.445100  0.050800  0.915100  1.0
  H  H2777  1  0.552100  0.042400  0.431600  1.0
  H  H2778  1  0.509700  0.957600  0.068400  1.0
  H  H2779  1  0.447900  0.957600  0.568400  1.0
  H  H2780  1  0.490300  0.042400  0.931600  1.0
  H  H2781  1  0.554300  0.056400  0.402300  1.0
  H  H2782  1  0.497900  0.943600  0.097700  1.0
  H  H2783  1  0.445700  0.943600  0.597700  1.0
  H  H2784  1  0.502100  0.056400  0.902300  1.0
  H  H2785  1  0.565800  0.898200  0.328300  1.0
  H  H2786  1  0.667600  0.101800  0.171700  1.0
  H  H2787  1  0.434200  0.101800  0.671700  1.0
  H  H2788  1  0.332400  0.898200  0.828300  1.0
  H  H2789  1  0.590000  0.842200  0.302800  1.0
  H  H2790  1  0.747800  0.157800  0.197200  1.0
  H  H2791  1  0.410000  0.157800  0.697200  1.0
  H  H2792  1  0.252200  0.842200  0.802800  1.0
  H  H2793  1  0.560100  0.781400  0.282600  1.0
  H  H2794  1  0.778700  0.218600  0.217400  1.0
  H  H2795  1  0.439900  0.218600  0.717400  1.0
  H  H2796  1  0.221300  0.781400  0.782600  1.0
  H  H2797  1  0.408000  0.781000  0.281200  1.0
  H  H2798  1  0.627000  0.219000  0.218800  1.0
  H  H2799  1  0.592000  0.219000  0.718800  1.0
  H  H2800  1  0.373000  0.781000  0.781200  1.0
  H  H2801  1  0.385700  0.734000  0.278700  1.0
  H  H2802  1  0.651700  0.266000  0.221300  1.0
  H  H2803  1  0.614300  0.266000  0.721300  1.0
  H  H2804  1  0.348300  0.734000  0.778700  1.0
  H  H2805  1  0.530900  0.729000  0.256900  1.0
  H  H2806  1  0.801900  0.271000  0.243100  1.0
  H  H2807  1  0.469100  0.271000  0.743100  1.0
  H  H2808  1  0.198100  0.729000  0.756900  1.0
  H  H2809  1  0.496400  0.668200  0.240400  1.0
  H  H2810  1  0.828200  0.331800  0.259600  1.0
  H  H2811  1  0.503600  0.331800  0.759600  1.0
  H  H2812  1  0.171800  0.668200  0.740400  1.0
  H  H2813  1  0.422600  0.616200  0.231300  1.0
  H  H2814  1  0.806400  0.383800  0.268700  1.0
  H  H2815  1  0.577400  0.383800  0.768700  1.0
  H  H2816  1  0.193600  0.616200  0.731300  1.0
  H  H2817  1  0.381000  0.565800  0.188400  1.0
  H  H2818  1  0.815200  0.434200  0.311600  1.0
  H  H2819  1  0.619000  0.434200  0.811600  1.0
  H  H2820  1  0.184800  0.565800  0.688400  1.0
  H  H2821  1  0.355900  0.505400  0.176000  1.0
  H  H2822  1  0.850500  0.494600  0.324000  1.0
  H  H2823  1  0.644100  0.494600  0.824000  1.0
  H  H2824  1  0.149500  0.505400  0.676000  1.0
  H  H2825  1  0.250200  0.507600  0.240300  1.0
  H  H2826  1  0.742600  0.492400  0.259700  1.0
  H  H2827  1  0.749800  0.492400  0.759700  1.0
  H  H2828  1  0.257400  0.507600  0.740300  1.0
  H  H2829  1  0.275200  0.568000  0.252700  1.0
  H  H2830  1  0.707200  0.432000  0.247300  1.0
  H  H2831  1  0.724800  0.432000  0.747300  1.0
  H  H2832  1  0.292800  0.568000  0.752700  1.0
  H  H2833  1  0.303600  0.451800  0.181900  1.0
  H  H2834  1  0.851800  0.548200  0.318100  1.0
  H  H2835  1  0.696400  0.548200  0.818100  1.0
  H  H2836  1  0.148200  0.451800  0.681900  1.0
  H  H2837  1  0.245200  0.451000  0.190700  1.0
  H  H2838  1  0.794200  0.549000  0.309300  1.0
  H  H2839  1  0.754800  0.549000  0.809300  1.0
  H  H2840  1  0.205800  0.451000  0.690700  1.0
  H  H2841  1  0.289000  0.454200  0.216500  1.0
  H  H2842  1  0.834800  0.545800  0.283500  1.0
  H  H2843  1  0.711000  0.545800  0.783500  1.0
  H  H2844  1  0.165200  0.454200  0.716500  1.0
  H  H2845  1  0.700600  0.941400  0.368900  1.0
  H  H2846  1  0.759200  0.058600  0.131100  1.0
  H  H2847  1  0.299400  0.058600  0.631100  1.0
  H  H2848  1  0.240800  0.941400  0.868900  1.0
  H  H2849  1  0.725000  0.001400  0.378500  1.0
  H  H2850  1  0.723600  0.998600  0.121500  1.0
  H  H2851  1  0.275000  0.998600  0.621500  1.0
  H  H2852  1  0.276400  0.001400  0.878500  1.0
  H  H2853  1  0.700800  0.014600  0.469000  1.0
  H  H2854  1  0.686200  0.985400  0.031000  1.0
  H  H2855  1  0.299200  0.985400  0.531000  1.0
  H  H2856  1  0.313800  0.014600  0.969000  1.0
  H  H2857  1  0.676200  0.954400  0.459500  1.0
  H  H2858  1  0.721800  0.045600  0.040500  1.0
  H  H2859  1  0.323800  0.045600  0.540500  1.0
  H  H2860  1  0.278200  0.954400  0.959500  1.0
  H  H2861  1  0.730600  0.064600  0.453100  1.0
  H  H2862  1  0.666000  0.935400  0.046900  1.0
  H  H2863  1  0.269400  0.935400  0.546900  1.0
  H  H2864  1  0.334000  0.064600  0.953100  1.0
  H  H2865  1  0.709500  0.058800  0.418200  1.0
  H  H2866  1  0.650700  0.941200  0.081800  1.0
  H  H2867  1  0.290500  0.941200  0.581800  1.0
  H  H2868  1  0.349300  0.058800  0.918200  1.0
  H  H2869  1  0.769500  0.061600  0.426200  1.0
  H  H2870  1  0.707900  0.938400  0.073800  1.0
  H  H2871  1  0.230500  0.938400  0.573800  1.0
  H  H2872  1  0.292100  0.061600  0.926200  1.0
  H  H2873  1  0.693500  0.897200  0.368400  1.0
  H  H2874  1  0.796300  0.102800  0.131600  1.0
  H  H2875  1  0.306500  0.102800  0.631600  1.0
  H  H2876  1  0.203700  0.897200  0.868400  1.0
  H  H2877  1  0.674600  0.836000  0.330500  1.0
  H  H2878  1  0.838600  0.164000  0.169500  1.0
  H  H2879  1  0.325400  0.164000  0.669500  1.0
  H  H2880  1  0.161400  0.836000  0.830500  1.0
  H  H2881  1  0.637900  0.775400  0.317300  1.0
  H  H2882  1  0.862500  0.224600  0.182700  1.0
  H  H2883  1  0.362100  0.224600  0.682700  1.0
  H  H2884  1  0.137500  0.775400  0.817300  1.0
  H  H2885  1  0.592700  0.785200  0.404000  1.0
  H  H2886  1  0.807500  0.214800  0.096000  1.0
  H  H2887  1  0.407300  0.214800  0.596000  1.0
  H  H2888  1  0.192500  0.785200  0.904000  1.0
  H  H2889  1  0.585400  0.735200  0.396000  1.0
  H  H2890  1  0.850200  0.264800  0.104000  1.0
  H  H2891  1  0.414600  0.264800  0.604000  1.0
  H  H2892  1  0.149800  0.735200  0.896000  1.0
  H  H2893  1  0.581700  0.725800  0.304400  1.0
  H  H2894  1  0.855900  0.274200  0.195600  1.0
  H  H2895  1  0.418300  0.274200  0.695600  1.0
  H  H2896  1  0.144100  0.725800  0.804400  1.0
  H  H2897  1  0.543500  0.665400  0.292100  1.0
  H  H2898  1  0.878100  0.334600  0.207900  1.0
  H  H2899  1  0.456500  0.334600  0.707900  1.0
  H  H2900  1  0.121900  0.665400  0.792100  1.0
  H  H2901  1  0.520800  0.611200  0.308900  1.0
  H  H2902  1  0.909600  0.388800  0.191100  1.0
  H  H2903  1  0.479200  0.388800  0.691100  1.0
  H  H2904  1  0.090400  0.611200  0.808900  1.0
  H  H2905  1  0.573100  0.766000  0.091600  1.0
  H  H2906  1  0.807100  0.234000  0.408400  1.0
  H  H2907  1  0.426900  0.234000  0.908400  1.0
  H  H2908  1  0.192900  0.766000  0.591600  1.0
  H  H2909  1  0.616000  0.748600  0.047800  1.0
  H  H2910  1  0.867400  0.251400  0.452200  1.0
  H  H2911  1  0.384000  0.251400  0.952200  1.0
  H  H2912  1  0.132600  0.748600  0.547800  1.0
  H  H2913  1  0.504500  0.758600  0.993700  1.0
  H  H2914  1  0.745900  0.241400  0.506300  1.0
  H  H2915  1  0.495500  0.241400  0.006300  1.0
  H  H2916  1  0.254100  0.758600  0.493700  1.0
  H  H2917  1  0.461500  0.776000  0.037500  1.0
  H  H2918  1  0.685500  0.224000  0.462500  1.0
  H  H2919  1  0.538500  0.224000  0.962500  1.0
  H  H2920  1  0.314500  0.776000  0.537500  1.0
  H  H2921  1  0.622500  0.761600  0.986900  1.0
  H  H2922  1  0.860900  0.238400  0.513100  1.0
  H  H2923  1  0.377500  0.238400  0.013100  1.0
  H  H2924  1  0.139100  0.761600  0.486900  1.0
  H  H2925  1  0.568400  0.732200  0.969200  1.0
  H  H2926  1  0.836200  0.267800  0.530800  1.0
  H  H2927  1  0.431600  0.267800  0.030800  1.0
  H  H2928  1  0.163800  0.732200  0.469200  1.0
  H  H2929  1  0.607700  0.723200  0.989600  1.0
  H  H2930  1  0.884500  0.276800  0.510400  1.0
  H  H2931  1  0.392300  0.276800  0.010400  1.0
  H  H2932  1  0.115500  0.723200  0.489600  1.0
  H  H2933  1  0.422500  0.765200  0.081300  1.0
  H  H2934  1  0.657300  0.234800  0.418700  1.0
  H  H2935  1  0.577500  0.234800  0.918700  1.0
  H  H2936  1  0.342700  0.765200  0.581300  1.0
  H  H2937  1  0.299400  0.906200  0.302600  1.0
  H  H2938  1  0.393200  0.093800  0.197400  1.0
  H  H2939  1  0.700600  0.093800  0.697400  1.0
  H  H2940  1  0.606800  0.906200  0.802600  1.0
  H  H2941  1  0.342000  0.774800  0.110100  1.0
  H  H2942  1  0.567200  0.225200  0.389900  1.0
  H  H2943  1  0.658000  0.225200  0.889900  1.0
  H  H2944  1  0.432800  0.774800  0.610100  1.0
  H  H2945  1  0.311900  0.802200  0.156000  1.0
  H  H2946  1  0.509700  0.197800  0.344000  1.0
  H  H2947  1  0.688100  0.197800  0.844000  1.0
  H  H2948  1  0.490300  0.802200  0.656000  1.0
  H  H2949  1  0.463900  0.855000  0.193400  1.0
  H  H2950  1  0.608900  0.145000  0.306600  1.0
  H  H2951  1  0.536100  0.145000  0.806600  1.0
  H  H2952  1  0.391100  0.855000  0.693400  1.0
  H  H2953  1  0.428000  0.844800  0.238000  1.0
  H  H2954  1  0.583200  0.155200  0.262000  1.0
  H  H2955  1  0.572000  0.155200  0.762000  1.0
  H  H2956  1  0.416800  0.844800  0.738000  1.0
  H  H2957  1  0.307900  0.858200  0.194000  1.0
  H  H2958  1  0.449700  0.141800  0.306000  1.0
  H  H2959  1  0.692100  0.141800  0.806000  1.0
  H  H2960  1  0.550300  0.858200  0.694000  1.0
  H  H2961  1  0.283100  0.885000  0.242000  1.0
  H  H2962  1  0.398100  0.115000  0.258000  1.0
  H  H2963  1  0.716900  0.115000  0.758000  1.0
  H  H2964  1  0.601900  0.885000  0.742000  1.0
  H  H2965  1  0.516200  0.563800  0.300300  1.0
  H  H2966  1  0.952400  0.436200  0.199700  1.0
  H  H2967  1  0.483800  0.436200  0.699700  1.0
  H  H2968  1  0.047600  0.563800  0.800300  1.0
  H  H2969  1  0.487600  0.503000  0.287100  1.0
  H  H2970  1  0.984600  0.497000  0.212900  1.0
  H  H2971  1  0.512400  0.497000  0.712900  1.0
  H  H2972  1  0.015400  0.503000  0.787100  1.0
  H  H2973  1  0.411700  0.508400  0.365100  1.0
  H  H2974  1  0.903300  0.491600  0.134900  1.0
  H  H2975  1  0.588300  0.491600  0.634900  1.0
  H  H2976  1  0.096700  0.508400  0.865100  1.0
  H  H2977  1  0.440200  0.569000  0.378300  1.0
  H  H2978  1  0.871200  0.431000  0.121700  1.0
  H  H2979  1  0.559800  0.431000  0.621700  1.0
  H  H2980  1  0.128800  0.569000  0.878300  1.0
  H  H2981  1  0.405700  0.452800  0.331600  1.0
  H  H2982  1  0.952900  0.547200  0.168400  1.0
  H  H2983  1  0.594300  0.547200  0.668400  1.0
  H  H2984  1  0.047100  0.452800  0.831600  1.0
  H  H2985  1  0.457300  0.451600  0.313900  1.0
  H  H2986  1  0.005700  0.548400  0.186100  1.0
  H  H2987  1  0.542700  0.548400  0.686100  1.0
  H  H2988  1  0.994300  0.451600  0.813900  1.0
  H  H2989  1  0.405000  0.450400  0.295700  1.0
  H  H2990  1  0.954600  0.549600  0.204300  1.0
  H  H2991  1  0.595000  0.549600  0.704300  1.0
  H  H2992  1  0.045400  0.450400  0.795700  1.0
  H  H2993  1  0.748400  0.575800  0.312700  1.0
  H  H2994  1  0.172600  0.424200  0.187300  1.0
  H  H2995  1  0.251600  0.424200  0.687300  1.0
  H  H2996  1  0.827400  0.575800  0.812700  1.0
  H  H2997  1  0.705900  0.517800  0.309300  1.0
  H  H2998  1  0.188100  0.482200  0.190700  1.0
  H  H2999  1  0.294100  0.482200  0.690700  1.0
  H  H3000  1  0.811900  0.517800  0.809300  1.0
  H  H3001  1  0.563100  0.529000  0.295300  1.0
  H  H3002  1  0.034100  0.471000  0.204700  1.0
  H  H3003  1  0.436900  0.471000  0.704700  1.0
  H  H3004  1  0.965900  0.529000  0.795300  1.0
  H  H3005  1  0.605600  0.587200  0.298700  1.0
  H  H3006  1  0.018400  0.412800  0.201300  1.0
  H  H3007  1  0.394400  0.412800  0.701300  1.0
  H  H3008  1  0.981600  0.587200  0.798700  1.0
  H  H3009  1  0.564100  0.473800  0.295200  1.0
  H  H3010  1  0.090300  0.526200  0.204800  1.0
  H  H3011  1  0.435900  0.526200  0.704800  1.0
  H  H3012  1  0.909700  0.473800  0.795200  1.0
  H  H3013  1  0.611000  0.475000  0.318000  1.0
  H  H3014  1  0.136000  0.525000  0.182000  1.0
  H  H3015  1  0.389000  0.525000  0.682000  1.0
  H  H3016  1  0.864000  0.475000  0.818000  1.0
  H  H3017  1  0.614800  0.464600  0.281300  1.0
  H  H3018  1  0.150200  0.535400  0.218700  1.0
  H  H3019  1  0.385200  0.535400  0.718700  1.0
  H  H3020  1  0.849800  0.464600  0.781300  1.0
  H  H3021  1  0.915600  0.881800  0.267400  1.0
  H  H3022  1  0.033800  0.118200  0.232600  1.0
  H  H3023  1  0.084400  0.118200  0.732600  1.0
  H  H3024  1  0.966200  0.881800  0.767400  1.0
  H  H3025  1  0.880500  0.895800  0.249100  1.0
  H  H3026  1  0.984700  0.104200  0.250900  1.0
  H  H3027  1  0.119500  0.104200  0.750900  1.0
  H  H3028  1  0.015300  0.895800  0.749100  1.0
  H  H3029  1  0.896100  0.913600  0.285700  1.0
  H  H3030  1  0.982500  0.086400  0.214300  1.0
  H  H3031  1  0.103900  0.086400  0.714300  1.0
  H  H3032  1  0.017500  0.913600  0.785700  1.0
  H  H3033  1  0.966000  0.936000  0.305600  0.246
  H  H3034  1  0.030000  0.064000  0.194400  0.246
  H  H3035  1  0.034000  0.064000  0.694400  0.246
  H  H3036  1  0.970000  0.936000  0.805600  0.246
  H  H3037  1  0.018400  0.993800  0.314200  0.246
  H  H3038  1  0.024600  0.006200  0.185800  0.246
  H  H3039  1  0.981600  0.006200  0.685800  0.246
  H  H3040  1  0.975400  0.993800  0.814200  0.246
  H  H3041  1  0.996200  0.015800  0.405600  0.246
  H  H3042  1  0.980400  0.984200  0.094400  0.246
  H  H3043  1  0.003800  0.984200  0.594400  0.246
  H  H3044  1  0.019600  0.015800  0.905600  0.246
  H  H3045  1  0.943700  0.957800  0.397100  0.246
  H  H3046  1  0.985900  0.042200  0.102900  0.246
  H  H3047  1  0.056300  0.042200  0.602900  0.246
  H  H3048  1  0.014100  0.957800  0.897100  0.246
  H  H3049  1  0.057800  0.051600  0.346600  0.246
  H  H3050  1  0.006200  0.948400  0.153400  0.246
  H  H3051  1  0.942200  0.948400  0.653400  0.246
  H  H3052  1  0.993800  0.051600  0.846600  0.246
  H  H3053  1  0.075900  0.055000  0.381400  0.246
  H  H3054  1  0.020900  0.945000  0.118600  0.246
  H  H3055  1  0.924100  0.945000  0.618600  0.246
  H  H3056  1  0.979100  0.055000  0.881400  0.246
  H  H3057  1  0.023600  0.063400  0.374200  0.246
  H  H3058  1  0.960200  0.936600  0.125800  0.246
  H  H3059  1  0.976400  0.936600  0.625800  0.246
  H  H3060  1  0.039800  0.063400  0.874200  0.246
  H  H3061  1  0.836500  0.570400  0.130200  0.367
  H  H3062  1  0.266100  0.429600  0.369800  0.367
  H  H3063  1  0.163500  0.429600  0.869800  0.367
  H  H3064  1  0.733900  0.570400  0.630200  0.367
  H  H3065  1  0.909600  0.551200  0.129600  0.367
  H  H3066  1  0.358400  0.448800  0.370400  0.367
  H  H3067  1  0.090400  0.448800  0.870400  0.367
  H  H3068  1  0.641600  0.551200  0.629600  0.367
  H  H3069  1  0.921700  0.548400  0.039800  0.367
  H  H3070  1  0.373300  0.451600  0.460200  0.367
  H  H3071  1  0.078300  0.451600  0.960200  0.367
  H  H3072  1  0.626700  0.548400  0.539800  0.367
  H  H3073  1  0.848600  0.567600  0.040300  0.367
  H  H3074  1  0.281000  0.432400  0.459700  0.367
  H  H3075  1  0.151400  0.432400  0.959700  0.367
  H  H3076  1  0.719000  0.567600  0.540300  0.367
  H  H3077  1  0.982800  0.531200  0.063400  0.367
  H  H3078  1  0.451600  0.468800  0.436600  0.367
  H  H3079  1  0.017200  0.468800  0.936600  0.367
  H  H3080  1  0.548400  0.531200  0.563400  0.367
  H  H3081  1  0.958400  0.512200  0.088200  0.367
  H  H3082  1  0.446200  0.487800  0.411800  0.367
  H  H3083  1  0.041600  0.487800  0.911800  0.367
  H  H3084  1  0.553800  0.512200  0.588200  0.367
  H  H3085  1  0.998200  0.551200  0.099800  0.367
  H  H3086  1  0.447000  0.448800  0.400200  0.367
  H  H3087  1  0.001800  0.448800  0.900200  0.367
  H  H3088  1  0.553000  0.551200  0.599800  0.367
  H  H3089  1  0.368400  0.970200  0.354900  0.424
  H  H3090  1  0.398200  0.029800  0.145100  0.424
  H  H3091  1  0.631600  0.029800  0.645100  0.424
  H  H3092  1  0.601800  0.970200  0.854900  0.424
  H  H3093  1  0.341300  0.996000  0.402400  0.424
  H  H3094  1  0.345300  0.004000  0.097600  0.424
  H  H3095  1  0.658700  0.004000  0.597600  0.424
  H  H3096  1  0.654700  0.996000  0.902400  0.424
  H  H3097  1  0.279400  0.901400  0.414800  0.424
  H  H3098  1  0.378000  0.098600  0.085200  0.424
  H  H3099  1  0.720600  0.098600  0.585200  0.424
  H  H3100  1  0.622000  0.901400  0.914800  0.424
  H  H3101  1  0.306300  0.875400  0.367300  0.424
  H  H3102  1  0.430900  0.124600  0.132700  0.424
  H  H3103  1  0.693700  0.124600  0.632700  0.424
  H  H3104  1  0.569100  0.875400  0.867300  0.424
  H  H3105  1  0.311100  0.965200  0.461300  0.424
  H  H3106  1  0.345900  0.034800  0.038700  0.424
  H  H3107  1  0.688900  0.034800  0.538700  0.424
  H  H3108  1  0.654100  0.965200  0.961300  0.424
  H  H3109  1  0.253200  0.957400  0.445200  0.424
  H  H3110  1  0.295800  0.042600  0.054800  0.424
  H  H3111  1  0.746800  0.042600  0.554800  0.424
  H  H3112  1  0.704200  0.957400  0.945200  0.424
  H  H3113  1  0.299300  0.993200  0.447900  0.424
  H  H3114  1  0.306100  0.006800  0.052100  0.424
  H  H3115  1  0.700700  0.006800  0.552100  0.424
  H  H3116  1  0.693900  0.993200  0.947900  0.424
  H  H3117  1  0.627900  0.733200  0.451300  0.48
  H  H3118  1  0.894700  0.266800  0.048700  0.48
  H  H3119  1  0.372100  0.266800  0.548700  0.48
  H  H3120  1  0.105300  0.733200  0.951300  0.48
  H  H3121  1  0.691500  0.758000  0.494400  0.48
  H  H3122  1  0.933500  0.242000  0.005600  0.48
  H  H3123  1  0.308500  0.242000  0.505600  0.48
  H  H3124  1  0.066500  0.758000  0.994400  0.48
  H  H3125  1  0.577600  0.729800  0.549600  0.48
  H  H3126  1  0.847800  0.270200  0.950400  0.48
  H  H3127  1  0.422400  0.270200  0.450400  0.48
  H  H3128  1  0.152200  0.729800  0.049600  0.48
  H  H3129  1  0.513800  0.704800  0.506600  0.48
  H  H3130  1  0.809000  0.295200  0.993400  0.48
  H  H3131  1  0.486200  0.295200  0.493400  0.48
  H  H3132  1  0.191000  0.704800  0.006600  0.48
  H  H3133  1  0.665600  0.758800  0.572800  0.48
  H  H3134  1  0.906800  0.241200  0.927200  0.48
  H  H3135  1  0.334400  0.241200  0.427200  0.48
  H  H3136  1  0.093200  0.758800  0.072800  0.48
  H  H3137  1  0.700200  0.786600  0.557200  0.48
  H  H3138  1  0.913600  0.213400  0.942800  0.48
  H  H3139  1  0.299800  0.213400  0.442800  0.48
  H  H3140  1  0.086400  0.786600  0.057200  0.48
  H  H3141  1  0.709200  0.749800  0.550600  0.48
  H  H3142  1  0.959400  0.250200  0.949400  0.48
  H  H3143  1  0.290800  0.250200  0.449400  0.48
  H  H3144  1  0.040600  0.749800  0.050600  0.48
  H  H3145  1  0.579800  0.914000  0.145000  0.484
  H  H3146  1  0.665800  0.086000  0.355000  0.484
  H  H3147  1  0.420200  0.086000  0.855000  0.484
  H  H3148  1  0.334200  0.914000  0.645000  0.484
  H  H3149  1  0.615600  0.971600  0.145200  0.484
  H  H3150  1  0.644000  0.028400  0.354800  0.484
  H  H3151  1  0.384400  0.028400  0.854800  0.484
  H  H3152  1  0.356000  0.971600  0.645200  0.484
  H  H3153  1  0.686800  0.998800  0.232300  0.484
  H  H3154  1  0.688000  0.001200  0.267700  0.484
  H  H3155  1  0.313200  0.001200  0.767700  0.484
  H  H3156  1  0.312000  0.998800  0.732300  0.484
  H  H3157  1  0.651100  0.941200  0.232200  0.484
  H  H3158  1  0.709900  0.058800  0.267800  0.484
  H  H3159  1  0.348900  0.058800  0.767800  0.484
  H  H3160  1  0.290100  0.941200  0.732200  0.484
  H  H3161  1  0.668000  0.030200  0.168800  0.484
  H  H3162  1  0.637800  0.969800  0.331200  0.484
  H  H3163  1  0.332000  0.969800  0.831200  0.484
  H  H3164  1  0.362200  0.030200  0.668800  0.484
  H  H3165  1  0.718100  0.035000  0.191200  0.484
  H  H3166  1  0.683100  0.965000  0.308800  0.484
  H  H3167  1  0.281900  0.965000  0.808800  0.484
  H  H3168  1  0.316900  0.035000  0.691200  0.484
  H  H3169  1  0.667500  0.043800  0.205700  0.484
  H  H3170  1  0.623700  0.956200  0.294300  0.484
  H  H3171  1  0.332500  0.956200  0.794300  0.484
  H  H3172  1  0.376300  0.043800  0.705700  0.484
  H  H3173  1  0.411100  0.031000  0.360500  0.5
  H  H3174  1  0.380100  0.969000  0.139500  0.5
  H  H3175  1  0.588900  0.969000  0.639500  0.5
  H  H3176  1  0.619900  0.031000  0.860500  0.5
  H  H3177  1  0.350900  0.024600  0.368200  0.5
  H  H3178  1  0.326300  0.975400  0.131800  0.5
  H  H3179  1  0.649100  0.975400  0.631800  0.5
  H  H3180  1  0.673700  0.024600  0.868200  0.5
  H  H3181  1  0.374500  0.993200  0.360400  0.5
  H  H3182  1  0.381300  0.006800  0.139600  0.5
  H  H3183  1  0.625500  0.006800  0.639600  0.5
  H  H3184  1  0.618700  0.993200  0.860400  0.5
  H  H3185  1  0.535300  0.920600  0.176500  0.516
  H  H3186  1  0.614700  0.079400  0.323500  0.516
  H  H3187  1  0.464700  0.079400  0.823500  0.516
  H  H3188  1  0.385300  0.920600  0.676500  0.516
  H  H3189  1  0.556700  0.980200  0.183700  0.516
  H  H3190  1  0.576500  0.019800  0.316300  0.516
  H  H3191  1  0.443300  0.019800  0.816300  0.516
  H  H3192  1  0.423500  0.980200  0.683700  0.516
  H  H3193  1  0.712500  0.993200  0.200000  0.516
  H  H3194  1  0.719300  0.006800  0.300000  0.516
  H  H3195  1  0.287500  0.006800  0.800000  0.516
  H  H3196  1  0.280700  0.993200  0.700000  0.516
  H  H3197  1  0.691400  0.933800  0.192900  0.516
  H  H3198  1  0.757600  0.066200  0.307100  0.516
  H  H3199  1  0.308600  0.066200  0.807100  0.516
  H  H3200  1  0.242400  0.933800  0.692900  0.516
  H  H3201  1  0.689200  0.042600  0.201100  0.516
  H  H3202  1  0.646600  0.957400  0.298900  0.516
  H  H3203  1  0.310800  0.957400  0.798900  0.516
  H  H3204  1  0.353400  0.042600  0.701100  0.516
  H  H3205  1  0.632800  0.042000  0.213300  0.516
  H  H3206  1  0.590800  0.958000  0.286700  0.516
  H  H3207  1  0.367200  0.958000  0.786700  0.516
  H  H3208  1  0.409200  0.042000  0.713300  0.516
  H  H3209  1  0.639300  0.034200  0.177000  0.516
  H  H3210  1  0.605100  0.965800  0.323000  0.516
  H  H3211  1  0.360700  0.965800  0.823000  0.516
  H  H3212  1  0.394900  0.034200  0.677000  0.516
  H  H3213  1  0.513200  0.689400  0.502200  0.52
  H  H3214  1  0.823800  0.310600  0.997800  0.52
  H  H3215  1  0.486800  0.310600  0.497800  0.52
  H  H3216  1  0.176200  0.689400  0.002200  0.52
  H  H3217  1  0.576600  0.705800  0.544300  0.52
  H  H3218  1  0.870800  0.294200  0.955700  0.52
  H  H3219  1  0.423400  0.294200  0.455700  0.52
  H  H3220  1  0.129200  0.705800  0.044300  0.52
  H  H3221  1  0.692900  0.740800  0.492900  0.52
  H  H3222  1  0.952100  0.259200  0.007100  0.52
  H  H3223  1  0.307100  0.259200  0.507100  0.52
  H  H3224  1  0.047900  0.740800  0.992900  0.52
  H  H3225  1  0.629600  0.724400  0.450700  0.52
  H  H3226  1  0.905200  0.275600  0.049300  0.52
  H  H3227  1  0.370400  0.275600  0.549300  0.52
  H  H3228  1  0.094800  0.724400  0.950700  0.52
  H  H3229  1  0.717900  0.745000  0.544200  0.52
  H  H3230  1  0.972900  0.255000  0.955800  0.52
  H  H3231  1  0.282100  0.255000  0.455800  0.52
  H  H3232  1  0.027100  0.745000  0.044200  0.52
  H  H3233  1  0.681400  0.713800  0.555400  0.52
  H  H3234  1  0.967600  0.286200  0.944600  0.52
  H  H3235  1  0.318600  0.286200  0.444600  0.52
  H  H3236  1  0.032400  0.713800  0.055400  0.52
  H  H3237  1  0.675200  0.751600  0.567900  0.52
  H  H3238  1  0.923600  0.248400  0.932100  0.52
  H  H3239  1  0.324800  0.248400  0.432100  0.52
  H  H3240  1  0.076400  0.751600  0.067900  0.52
  H  H3241  1  0.610200  0.723200  0.257400  0.56
  H  H3242  1  0.887000  0.276800  0.242600  0.56
  H  H3243  1  0.389800  0.276800  0.742600  0.56
  H  H3244  1  0.113000  0.723200  0.757400  0.56
  H  H3245  1  0.406300  0.932000  0.375200  0.576
  H  H3246  1  0.474300  0.068000  0.124800  0.576
  H  H3247  1  0.593700  0.068000  0.624800  0.576
  H  H3248  1  0.525700  0.932000  0.875200  0.576
  H  H3249  1  0.379800  0.952800  0.424300  0.576
  H  H3250  1  0.427000  0.047200  0.075700  0.576
  H  H3251  1  0.620200  0.047200  0.575700  0.576
  H  H3252  1  0.573000  0.952800  0.924300  0.576
  H  H3253  1  0.225500  0.906000  0.388800  0.576
  H  H3254  1  0.319500  0.094000  0.111200  0.576
  H  H3255  1  0.774500  0.094000  0.611200  0.576
  H  H3256  1  0.680500  0.906000  0.888800  0.576
  H  H3257  1  0.252000  0.885400  0.339600  0.576
  H  H3258  1  0.366600  0.114600  0.160400  0.576
  H  H3259  1  0.748000  0.114600  0.660400  0.576
  H  H3260  1  0.633400  0.885400  0.839600  0.576
  H  H3261  1  0.314100  0.957600  0.458600  0.576
  H  H3262  1  0.356500  0.042400  0.041400  0.576
  H  H3263  1  0.685900  0.042400  0.541400  0.576
  H  H3264  1  0.643500  0.957600  0.958600  0.576
  H  H3265  1  0.261900  0.924000  0.449800  0.576
  H  H3266  1  0.337900  0.076000  0.050200  0.576
  H  H3267  1  0.738100  0.076000  0.550200  0.576
  H  H3268  1  0.662100  0.924000  0.949800  0.576
  H  H3269  1  0.261000  0.958800  0.443200  0.576
  H  H3270  1  0.302200  0.041200  0.056800  0.576
  H  H3271  1  0.739000  0.041200  0.556800  0.576
  H  H3272  1  0.697800  0.958800  0.943200  0.576
  H  H3273  1  0.782500  0.517400  0.056200  0.633
  H  H3274  1  0.265100  0.482600  0.443800  0.633
  H  H3275  1  0.217500  0.482600  0.943800  0.633
  H  H3276  1  0.734900  0.517400  0.556200  0.633
  H  H3277  1  0.842700  0.487200  0.053900  0.633
  H  H3278  1  0.355500  0.512800  0.446100  0.633
  H  H3279  1  0.157300  0.512800  0.946100  0.633
  H  H3280  1  0.644500  0.487200  0.553900  0.633
  H  H3281  1  0.949900  0.573600  0.112800  0.633
  H  H3282  1  0.376300  0.426400  0.387200  0.633
  H  H3283  1  0.050100  0.426400  0.887200  0.633
  H  H3284  1  0.623700  0.573600  0.612800  0.633
  H  H3285  1  0.889800  0.603800  0.115200  0.633
  H  H3286  1  0.286000  0.396200  0.384800  0.633
  H  H3287  1  0.110200  0.396200  0.884800  0.633
  H  H3288  1  0.714000  0.603800  0.615200  0.633
  H  H3289  1  0.954400  0.510800  0.103600  0.633
  H  H3290  1  0.443600  0.489200  0.396400  0.633
  H  H3291  1  0.045600  0.489200  0.896400  0.633
  H  H3292  1  0.556400  0.510800  0.603600  0.633
  H  H3293  1  0.970700  0.515800  0.070900  0.633
  H  H3294  1  0.454900  0.484200  0.429100  0.633
  H  H3295  1  0.029300  0.484200  0.929100  0.633
  H  H3296  1  0.545100  0.515800  0.570900  0.633
  H  H3297  1  0.922600  0.482400  0.072000  0.633
  H  H3298  1  0.440200  0.517600  0.428000  0.633
  H  H3299  1  0.077400  0.517600  0.928000  0.633
  H  H3300  1  0.559800  0.482400  0.572000  0.633
  H  H3301  1  0.902000  0.964600  0.363600  0.754
  H  H3302  1  0.937400  0.035400  0.136400  0.754
  H  H3303  1  0.098000  0.035400  0.636400  0.754
  H  H3304  1  0.062600  0.964600  0.863600  0.754
  H  H3305  1  0.960200  0.021000  0.371700  0.754
  H  H3306  1  0.939200  0.979000  0.128300  0.754
  H  H3307  1  0.039800  0.979000  0.628300  0.754
  H  H3308  1  0.060800  0.021000  0.871700  0.754
  H  H3309  1  0.078700  0.982200  0.342200  0.754
  H  H3310  1  0.096500  0.017800  0.157800  0.754
  H  H3311  1  0.921300  0.017800  0.657800  0.754
  H  H3312  1  0.903500  0.982200  0.842200  0.754
  H  H3313  1  0.020500  0.925800  0.334200  0.754
  H  H3314  1  0.094700  0.074200  0.165800  0.754
  H  H3315  1  0.979500  0.074200  0.665800  0.754
  H  H3316  1  0.905300  0.925800  0.834200  0.754
  H  H3317  1  0.061200  0.059000  0.383000  0.754
  H  H3318  1  0.002200  0.941000  0.117000  0.754
  H  H3319  1  0.938800  0.941000  0.617000  0.754
  H  H3320  1  0.997800  0.059000  0.883000  0.754
  H  H3321  1  0.052300  0.053000  0.346600  0.754
  H  H3322  1  0.999300  0.947000  0.153400  0.754
  H  H3323  1  0.947700  0.947000  0.653400  0.754
  H  H3324  1  0.000700  0.053000  0.846600  0.754
  H  H3325  1  0.099100  0.043400  0.360000  0.754
  H  H3326  1  0.055700  0.956600  0.140000  0.754
  H  H3327  1  0.900900  0.956600  0.640000  0.754
  H  H3328  1  0.944300  0.043400  0.860000  0.754
  N  N3329  1  0.885800  0.704200  0.351700  1.0
  N  N3330  1  0.181600  0.295800  0.148300  1.0
  N  N3331  1  0.114200  0.295800  0.648300  1.0
  N  N3332  1  0.818400  0.704200  0.851700  1.0
  N  N3333  1  0.487800  0.619600  0.437900  1.0
  N  N3334  1  0.868200  0.380400  0.062100  1.0
  N  N3335  1  0.512200  0.380400  0.562100  1.0
  N  N3336  1  0.131800  0.619600  0.937900  1.0
  N  N3337  1  0.526900  0.701400  0.448900  1.0
  N  N3338  1  0.825500  0.298600  0.051100  1.0
  N  N3339  1  0.473100  0.298600  0.551100  1.0
  N  N3340  1  0.174500  0.701400  0.948900  1.0
  N  N3341  1  0.206200  0.614800  0.253700  1.0
  N  N3342  1  0.591400  0.385200  0.246300  1.0
  N  N3343  1  0.793800  0.385200  0.746300  1.0
  N  N3344  1  0.408600  0.614800  0.753700  1.0
  N  N3345  1  0.264500  0.699000  0.269300  1.0
  N  N3346  1  0.565500  0.301000  0.230700  1.0
  N  N3347  1  0.735500  0.301000  0.730700  1.0
  N  N3348  1  0.434500  0.699000  0.769300  1.0
  N  N3349  1  0.401200  0.585600  0.048000  1.0
  N  N3350  1  0.815600  0.414400  0.452000  1.0
  N  N3351  1  0.598800  0.414400  0.952000  1.0
  N  N3352  1  0.184400  0.585600  0.548000  1.0
  N  N3353  1  0.442900  0.669000  0.068300  1.0
  N  N3354  1  0.773900  0.331000  0.431700  1.0
  N  N3355  1  0.557100  0.331000  0.931700  1.0
  N  N3356  1  0.226100  0.669000  0.568300  1.0
  N  N3357  1  0.794000  0.582000  0.084700  1.0
  N  N3358  1  0.212000  0.418000  0.415300  1.0
  N  N3359  1  0.206000  0.418000  0.915300  1.0
  N  N3360  1  0.788000  0.582000  0.584700  1.0
  N  N3361  1  0.833700  0.669600  0.112800  1.0
  N  N3362  1  0.164100  0.330400  0.387200  1.0
  N  N3363  1  0.166300  0.330400  0.887200  1.0
  N  N3364  1  0.835900  0.669600  0.612800  1.0
  N  N3365  1  0.855800  0.626400  0.341000  1.0
  N  N3366  1  0.229400  0.373600  0.159000  1.0
  N  N3367  1  0.144200  0.373600  0.659000  1.0
  N  N3368  1  0.770600  0.626400  0.841000  1.0
  N  N3369  1  0.651100  0.911000  0.497700  1.0
  N  N3370  1  0.740100  0.089000  0.002300  1.0
  N  N3371  1  0.348900  0.089000  0.502300  1.0
  N  N3372  1  0.259900  0.911000  0.997700  1.0
  N  N3373  1  0.325100  0.816200  0.312000  1.0
  N  N3374  1  0.508900  0.183800  0.188000  1.0
  N  N3375  1  0.674900  0.183800  0.688000  1.0
  N  N3376  1  0.491100  0.816200  0.812000  1.0
  N  N3377  1  0.354100  0.897600  0.324600  1.0
  N  N3378  1  0.456500  0.102400  0.175400  1.0
  N  N3379  1  0.645900  0.102400  0.675400  1.0
  N  N3380  1  0.543500  0.897600  0.824600  1.0
  N  N3381  1  0.492400  0.786200  0.096200  1.0
  N  N3382  1  0.706200  0.213800  0.403800  1.0
  N  N3383  1  0.507600  0.213800  0.903800  1.0
  N  N3384  1  0.293800  0.786200  0.596200  1.0
  N  N3385  1  0.523700  0.866600  0.099500  1.0
  N  N3386  1  0.657100  0.133400  0.400500  1.0
  N  N3387  1  0.476300  0.133400  0.900500  1.0
  N  N3388  1  0.342900  0.866600  0.599500  1.0
  N  N3389  1  0.877600  0.788000  0.128900  1.0
  N  N3390  1  0.089600  0.212000  0.371100  1.0
  N  N3391  1  0.122400  0.212000  0.871100  1.0
  N  N3392  1  0.910400  0.788000  0.628900  1.0
  N  N3393  1  0.926000  0.869400  0.141100  1.0
  N  N3394  1  0.056600  0.130600  0.358900  1.0
  N  N3395  1  0.074000  0.130600  0.858900  1.0
  N  N3396  1  0.943400  0.869400  0.641100  1.0
  N  N3397  1  0.979500  0.821000  0.366100  1.0
  N  N3398  1  0.158500  0.179000  0.133900  1.0
  N  N3399  1  0.020500  0.179000  0.633900  1.0
  N  N3400  1  0.841500  0.821000  0.866100  1.0
  N  N3401  1  0.028800  0.906600  0.395400  1.0
  N  N3402  1  0.122200  0.093400  0.104600  1.0
  N  N3403  1  0.971200  0.093400  0.604600  1.0
  N  N3404  1  0.877800  0.906600  0.895400  1.0
  N  N3405  1  0.615800  0.827000  0.471900  1.0
  N  N3406  1  0.788800  0.173000  0.028100  1.0
  N  N3407  1  0.384200  0.173000  0.528100  1.0
  N  N3408  1  0.211200  0.827000  0.971900  1.0
  N  N3409  1  0.918800  0.905600  0.343400  1.0
  N  N3410  1  0.013200  0.094400  0.156600  1.0
  N  N3411  1  0.081200  0.094400  0.656600  1.0
  N  N3412  1  0.986800  0.905600  0.843400  1.0
  N  N3413  1  0.504100  0.611800  0.350200  1.0
  N  N3414  1  0.892300  0.388200  0.149800  1.0
  N  N3415  1  0.495900  0.388200  0.649800  1.0
  N  N3416  1  0.107700  0.611800  0.850200  1.0
  N  N3417  1  0.670900  0.903400  0.408200  1.0
  N  N3418  1  0.767500  0.096600  0.091800  1.0
  N  N3419  1  0.329100  0.096600  0.591800  1.0
  N  N3420  1  0.232500  0.903400  0.908200  1.0
  N  N3421  1  0.347000  0.612000  0.231100  1.0
  N  N3422  1  0.735000  0.388000  0.268900  1.0
  N  N3423  1  0.653000  0.388000  0.768900  1.0
  N  N3424  1  0.265000  0.612000  0.731100  1.0
  N  N3425  1  0.497600  0.901200  0.329200  1.0
  N  N3426  1  0.596400  0.098800  0.170800  1.0
  N  N3427  1  0.502400  0.098800  0.670800  1.0
  N  N3428  1  0.403600  0.901200  0.829200  1.0
  N  N3429  1  0.469600  0.591600  0.124400  1.0
  N  N3430  1  0.878000  0.408400  0.375600  1.0
  N  N3431  1  0.530400  0.408400  0.875600  1.0
  N  N3432  1  0.122000  0.591600  0.624400  1.0
  N  N3433  1  0.596100  0.885200  0.181100  1.0
  N  N3434  1  0.710900  0.114800  0.318900  1.0
  N  N3435  1  0.403900  0.114800  0.818900  1.0
  N  N3436  1  0.289100  0.885200  0.681100  1.0
  N  N3437  1  0.704200  0.587600  0.150900  1.0
  N  N3438  1  0.116600  0.412400  0.349100  1.0
  N  N3439  1  0.295800  0.412400  0.849100  1.0
  N  N3440  1  0.883400  0.587600  0.650900  1.0
  N  N3441  1  0.823900  0.878400  0.199300  1.0
  N  N3442  1  0.945500  0.121600  0.300700  1.0
  N  N3443  1  0.176100  0.121600  0.800700  1.0
  N  N3444  1  0.054500  0.878400  0.699300  1.0
  N  N3445  1  0.792000  0.679000  0.377200  1.0
  N  N3446  1  0.113000  0.321000  0.122800  1.0
  N  N3447  1  0.208000  0.321000  0.622800  1.0
  N  N3448  1  0.887000  0.679000  0.877200  1.0
  N  N3449  1  0.593600  0.648400  0.420500  1.0
  N  N3450  1  0.945200  0.351600  0.079500  1.0
  N  N3451  1  0.406400  0.351600  0.579500  1.0
  N  N3452  1  0.054800  0.648400  0.920500  1.0
  N  N3453  1  0.279500  0.664400  0.211500  1.0
  N  N3454  1  0.615100  0.335600  0.288500  1.0
  N  N3455  1  0.720500  0.335600  0.788500  1.0
  N  N3456  1  0.384900  0.664400  0.711500  1.0
  N  N3457  1  0.359700  0.618000  0.100500  1.0
  N  N3458  1  0.741700  0.382000  0.399500  1.0
  N  N3459  1  0.640300  0.382000  0.899500  1.0
  N  N3460  1  0.258300  0.618000  0.600500  1.0
  N  N3461  1  0.525760  0.642520  0.069700  1.0
  N  N3462  1  0.883240  0.357480  0.430300  1.0
  N  N3463  1  0.474240  0.357480  0.930300  1.0
  N  N3464  1  0.116760  0.642520  0.569700  1.0
  N  N3465  1  0.712390  0.609580  0.082700  1.0
  N  N3466  1  0.102810  0.390420  0.417300  1.0
  N  N3467  1  0.287610  0.390420  0.917300  1.0
  N  N3468  1  0.897190  0.609580  0.582700  1.0
  N  N3469  1  0.844710  0.646020  0.162200  1.0
  N  N3470  1  0.198690  0.353980  0.337800  1.0
  N  N3471  1  0.155290  0.353980  0.837800  1.0
  N  N3472  1  0.801310  0.646020  0.662200  1.0
  N  N3473  1  0.855890  0.638580  0.285300  1.0
  N  N3474  1  0.217310  0.361420  0.214700  1.0
  N  N3475  1  0.144110  0.361420  0.714700  1.0
  N  N3476  1  0.782690  0.638580  0.785300  1.0
  N  N3477  1  0.439500  0.671600  0.400800  1.0
  N  N3478  1  0.767900  0.328400  0.099200  1.0
  N  N3479  1  0.560500  0.328400  0.599200  1.0
  N  N3480  1  0.232100  0.671600  0.900800  1.0
  N  N3481  1  0.283010  0.640820  0.302400  1.0
  N  N3482  1  0.642190  0.359180  0.197600  1.0
  N  N3483  1  0.716990  0.359180  0.697600  1.0
  N  N3484  1  0.357810  0.640820  0.802400  1.0
  N  N3485  1  0.716910  0.855620  0.456800  1.0
  N  N3486  1  0.861290  0.144380  0.043200  1.0
  N  N3487  1  0.283090  0.144380  0.543200  1.0
  N  N3488  1  0.138710  0.855620  0.956800  1.0
  N  N3489  1  0.923000  0.879400  0.410300  1.0
  N  N3490  1  0.043600  0.120600  0.089700  1.0
  N  N3491  1  0.077000  0.120600  0.589700  1.0
  N  N3492  1  0.956400  0.879400  0.910300  1.0
  N  N3493  1  0.565700  0.884400  0.453200  1.0
  N  N3494  1  0.681300  0.115600  0.046800  1.0
  N  N3495  1  0.434300  0.115600  0.546800  1.0
  N  N3496  1  0.318700  0.884400  0.953200  1.0
  N  N3497  1  0.398950  0.849700  0.361300  1.0
  N  N3498  1  0.549250  0.150300  0.138700  1.0
  N  N3499  1  0.601050  0.150300  0.638700  1.0
  N  N3500  1  0.450750  0.849700  0.861300  1.0
  N  N3501  1  0.800590  0.816580  0.120500  1.0
  N  N3502  1  0.984010  0.183420  0.379500  1.0
  N  N3503  1  0.199410  0.183420  0.879500  1.0
  N  N3504  1  0.015990  0.816580  0.620500  1.0
  N  N3505  1  0.612150  0.847700  0.105100  1.0
  N  N3506  1  0.764450  0.152300  0.394900  1.0
  N  N3507  1  0.387850  0.152300  0.894900  1.0
  N  N3508  1  0.235550  0.847700  0.605100  1.0
  N  N3509  1  0.982930  0.841860  0.313700  1.0
  N  N3510  1  0.141070  0.158140  0.186300  1.0
  N  N3511  1  0.017070  0.158140  0.686300  1.0
  N  N3512  1  0.858930  0.841860  0.813700  1.0
  N  N3513  1  0.941230  0.851460  0.194000  1.0
  N  N3514  1  0.089770  0.148540  0.306000  1.0
  N  N3515  1  0.058770  0.148540  0.806000  1.0
  N  N3516  1  0.910230  0.851460  0.694000  1.0
  N  N3517  1  0.492833  0.666667  0.141700  1.0
  N  N3518  1  0.826167  0.333333  0.358300  1.0
  N  N3519  1  0.507167  0.333333  0.858300  1.0
  N  N3520  1  0.173833  0.666667  0.641700  1.0
  N  N3521  1  0.568560  0.812320  0.167700  1.0
  N  N3522  1  0.756240  0.187680  0.332300  1.0
  N  N3523  1  0.431440  0.187680  0.832300  1.0
  N  N3524  1  0.243760  0.812320  0.667700  1.0
  N  N3525  1  0.862200  0.835200  0.336900  1.0
  N  N3526  1  0.027000  0.164800  0.163100  1.0
  N  N3527  1  0.137800  0.164800  0.663100  1.0
  N  N3528  1  0.973000  0.835200  0.836900  1.0
  N  N3529  1  0.767400  0.690600  0.309300  1.0
  N  N3530  1  0.076800  0.309400  0.190700  1.0
  N  N3531  1  0.232600  0.309400  0.690700  1.0
  N  N3532  1  0.923200  0.690600  0.809300  1.0
  N  N3533  1  0.799280  0.805760  0.191900  1.0
  N  N3534  1  0.993520  0.194240  0.308100  1.0
  N  N3535  1  0.200720  0.194240  0.808100  1.0
  N  N3536  1  0.006480  0.805760  0.691900  1.0
  N  N3537  1  0.728230  0.658260  0.162100  1.0
  N  N3538  1  0.069970  0.341740  0.337900  1.0
  N  N3539  1  0.271770  0.341740  0.837900  1.0
  N  N3540  1  0.930030  0.658260  0.662100  1.0
  N  N3541  1  0.462600  0.829400  0.297600  1.0
  N  N3542  1  0.633200  0.170600  0.202400  1.0
  N  N3543  1  0.537400  0.170600  0.702400  1.0
  N  N3544  1  0.366800  0.829400  0.797600  1.0
  N  N3545  1  0.387700  0.684600  0.261200  1.0
  N  N3546  1  0.703100  0.315400  0.238800  1.0
  N  N3547  1  0.612300  0.315400  0.738800  1.0
  N  N3548  1  0.296900  0.684600  0.761200  1.0
  N  N3549  1  0.631110  0.831420  0.396900  1.0
  N  N3550  1  0.799690  0.168580  0.103100  1.0
  N  N3551  1  0.368890  0.168580  0.603100  1.0
  N  N3552  1  0.200310  0.831420  0.896900  1.0
  N  N3553  1  0.554300  0.685200  0.367600  1.0
  N  N3554  1  0.869100  0.314800  0.132400  1.0
  N  N3555  1  0.445700  0.314800  0.632400  1.0
  N  N3556  1  0.130900  0.685200  0.867600  1.0
  N  N3557  1  0.457100  0.822600  0.149300  1.0
  N  N3558  1  0.634500  0.177400  0.350700  1.0
  N  N3559  1  0.542900  0.177400  0.850700  1.0
  N  N3560  1  0.365500  0.822600  0.649300  1.0
  N  N3561  1  0.383800  0.868800  0.267400  1.0
  N  N3562  1  0.515000  0.131200  0.232600  1.0
  N  N3563  1  0.616200  0.131200  0.732600  1.0
  N  N3564  1  0.485000  0.868800  0.767400  1.0
  N  N3565  1  0.712700  0.620800  0.303200  1.0
  N  N3566  1  0.091900  0.379200  0.196800  1.0
  N  N3567  1  0.287300  0.379200  0.696800  1.0
  N  N3568  1  0.908100  0.620800  0.803200  1.0
  N  N3569  1  0.011700  0.946400  0.254300  1.0
  N  N3570  1  0.065300  0.053600  0.245700  1.0
  N  N3571  1  0.988300  0.053600  0.745700  1.0
  N  N3572  1  0.934700  0.946400  0.754300  1.0
  N  N3573  1  0.425400  0.035200  0.430200  0.5
  N  N3574  1  0.390200  0.964800  0.069800  0.5
  N  N3575  1  0.574600  0.964800  0.569800  0.5
  N  N3576  1  0.609800  0.035200  0.930200  0.5
  O  O3577  1  0.411200  0.708000  0.191700  1.0
  O  O3578  1  0.703200  0.292000  0.308300  1.0
  O  O3579  1  0.588800  0.292000  0.808300  1.0
  O  O3580  1  0.296800  0.708000  0.691700  1.0
  O  O3581  1  0.861300  0.780000  0.245400  1.0
  O  O3582  1  0.081300  0.220000  0.254600  1.0
  O  O3583  1  0.138700  0.220000  0.754600  1.0
  O  O3584  1  0.918700  0.780000  0.745400  1.0
  O  O3585  1  0.846200  0.726800  0.257200  1.0
  O  O3586  1  0.119400  0.273200  0.242800  1.0
  O  O3587  1  0.153800  0.273200  0.742800  1.0
  O  O3588  1  0.880600  0.726800  0.757200  1.0
  O  O3589  1  0.854100  0.728600  0.208200  1.0
  O  O3590  1  0.125500  0.271400  0.291800  1.0
  O  O3591  1  0.145900  0.271400  0.791800  1.0
  O  O3592  1  0.874500  0.728600  0.708200  1.0
  O  O3593  1  0.928500  0.752400  0.241100  1.0
  O  O3594  1  0.176100  0.247600  0.258900  1.0
  O  O3595  1  0.071500  0.247600  0.758900  1.0
  O  O3596  1  0.823900  0.752400  0.741100  1.0
  O  O3597  1  0.705500  0.725600  0.371200  1.0
  O  O3598  1  0.979900  0.274400  0.128800  1.0
  O  O3599  1  0.294500  0.274400  0.628800  1.0
  O  O3600  1  0.020100  0.725600  0.871200  1.0
  O  O3601  1  0.734900  0.792600  0.386200  1.0
  O  O3602  1  0.942300  0.207400  0.113800  1.0
  O  O3603  1  0.265100  0.207400  0.613800  1.0
  O  O3604  1  0.057700  0.792600  0.886200  1.0
  O  O3605  1  0.703000  0.763200  0.420100  1.0
  O  O3606  1  0.939800  0.236800  0.079900  1.0
  O  O3607  1  0.297000  0.236800  0.579900  1.0
  O  O3608  1  0.060200  0.763200  0.920100  1.0
  O  O3609  1  0.787600  0.763600  0.400300  1.0
  O  O3610  1  0.024000  0.236400  0.099700  1.0
  O  O3611  1  0.212400  0.236400  0.599700  1.0
  O  O3612  1  0.976000  0.763600  0.900300  1.0
  O  O3613  1  0.902900  0.776600  0.038600  1.0
  O  O3614  1  0.126300  0.223400  0.461400  1.0
  O  O3615  1  0.097100  0.223400  0.961400  1.0
  O  O3616  1  0.873700  0.776600  0.538600  1.0
  O  O3617  1  0.938100  0.782000  0.992500  1.0
  O  O3618  1  0.156100  0.218000  0.507500  1.0
  O  O3619  1  0.061900  0.218000  0.007500  1.0
  O  O3620  1  0.843900  0.782000  0.492500  1.0
  O  O3621  1  0.000600  0.803800  0.038900  1.0
  O  O3622  1  0.196800  0.196200  0.461100  1.0
  O  O3623  1  0.999400  0.196200  0.961100  1.0
  O  O3624  1  0.803200  0.803800  0.538900  1.0
  O  O3625  1  0.955400  0.743200  0.015200  1.0
  O  O3626  1  0.212200  0.256800  0.484800  1.0
  O  O3627  1  0.044600  0.256800  0.984800  1.0
  O  O3628  1  0.787800  0.743200  0.515200  1.0
  O  O3629  1  0.152400  0.931400  0.262900  0.181
  O  O3630  1  0.221000  0.068600  0.237100  0.181
  O  O3631  1  0.847600  0.068600  0.737100  0.181
  O  O3632  1  0.779000  0.931400  0.762900  0.181
  O  O3633  1  0.183000  0.890000  0.228300  0.181
  O  O3634  1  0.293000  0.110000  0.271700  0.181
  O  O3635  1  0.817000  0.110000  0.771700  0.181
  O  O3636  1  0.707000  0.890000  0.728300  0.181
  O  O3637  1  0.166300  0.886600  0.278500  0.181
  O  O3638  1  0.279700  0.113400  0.221500  0.181
  O  O3639  1  0.833700  0.113400  0.721500  0.181
  O  O3640  1  0.720300  0.886600  0.778500  0.181
  O  O3641  1  0.239100  0.931400  0.271500  0.181
  O  O3642  1  0.307700  0.068600  0.228500  0.181
  O  O3643  1  0.760900  0.068600  0.728500  0.181
  O  O3644  1  0.692300  0.931400  0.771500  0.181
  O  O3645  1  0.257100  0.530200  0.022300  0.214
  O  O3646  1  0.726900  0.469800  0.477700  0.214
  O  O3647  1  0.742900  0.469800  0.977700  0.214
  O  O3648  1  0.273100  0.530200  0.522300  0.214
  O  O3649  1  0.314000  0.501800  0.033200  0.214
  O  O3650  1  0.812200  0.498200  0.466800  0.214
  O  O3651  1  0.686000  0.498200  0.966800  0.214
  O  O3652  1  0.187800  0.501800  0.533200  0.214
  O  O3653  1  0.245200  0.472400  0.992100  0.214
  O  O3654  1  0.772800  0.527600  0.507900  0.214
  O  O3655  1  0.754800  0.527600  0.007900  0.214
  O  O3656  1  0.227200  0.472400  0.492100  0.214
  O  O3657  1  0.224400  0.484800  0.043600  0.214
  O  O3658  1  0.739600  0.515200  0.456400  0.214
  O  O3659  1  0.775600  0.515200  0.956400  0.214
  O  O3660  1  0.260400  0.484800  0.543600  0.214
  O  O3661  1  0.826200  0.961600  0.394200  0.25
  O  O3662  1  0.864600  0.038400  0.105800  0.25
  O  O3663  1  0.173800  0.038400  0.605800  0.25
  O  O3664  1  0.135400  0.961600  0.894200  0.25
  O  O3665  1  0.859200  0.946400  0.420000  0.25
  O  O3666  1  0.912800  0.053600  0.080000  0.25
  O  O3667  1  0.140800  0.053600  0.580000  0.25
  O  O3668  1  0.087200  0.946400  0.920000  0.25
  O  O3669  1  0.650500  0.726400  0.082900  0.274
  O  O3670  1  0.924100  0.273600  0.417100  0.274
  O  O3671  1  0.349500  0.273600  0.917100  0.274
  O  O3672  1  0.075900  0.726400  0.582900  0.274
  O  O3673  1  0.644800  0.762400  0.133500  0.274
  O  O3674  1  0.882400  0.237600  0.366500  0.274
  O  O3675  1  0.355200  0.237600  0.866500  0.274
  O  O3676  1  0.117600  0.762400  0.633500  0.274
  O  O3677  1  0.717500  0.740400  0.123100  0.274
  O  O3678  1  0.977100  0.259600  0.376900  0.274
  O  O3679  1  0.282500  0.259600  0.876900  0.274
  O  O3680  1  0.022900  0.740400  0.623100  0.274
  O  O3681  1  0.633000  0.702000  0.123500  0.274
  O  O3682  1  0.931000  0.298000  0.376500  0.274
  O  O3683  1  0.367000  0.298000  0.876500  0.274
  O  O3684  1  0.069000  0.702000  0.623500  0.274
  O  O3685  1  0.443100  0.772600  0.203600  0.311
  O  O3686  1  0.670500  0.227400  0.296400  0.311
  O  O3687  1  0.556900  0.227400  0.796400  0.311
  O  O3688  1  0.329500  0.772600  0.703600  0.311
  O  O3689  1  0.356400  0.739200  0.207100  0.311
  O  O3690  1  0.617200  0.260800  0.292900  0.311
  O  O3691  1  0.643600  0.260800  0.792900  0.311
  O  O3692  1  0.382800  0.739200  0.707100  0.311
  O  O3693  1  0.387000  0.735800  0.157300  0.311
  O  O3694  1  0.651200  0.264200  0.342700  0.311
  O  O3695  1  0.613000  0.264200  0.842700  0.311
  O  O3696  1  0.348800  0.735800  0.657300  0.311
  O  O3697  1  0.137300  0.914800  0.272000  0.319
  O  O3698  1  0.222500  0.085200  0.228000  0.319
  O  O3699  1  0.862700  0.085200  0.728000  0.319
  O  O3700  1  0.777500  0.914800  0.772000  0.319
  O  O3701  1  0.174400  0.874600  0.240600  0.319
  O  O3702  1  0.299800  0.125400  0.259400  0.319
  O  O3703  1  0.825600  0.125400  0.759400  0.319
  O  O3704  1  0.700200  0.874600  0.740600  0.319
  O  O3705  1  0.222000  0.916000  0.286600  0.319
  O  O3706  1  0.306000  0.084000  0.213400  0.319
  O  O3707  1  0.778000  0.084000  0.713400  0.319
  O  O3708  1  0.694000  0.916000  0.786600  0.319
  O  O3709  1  0.209200  0.933600  0.243700  0.319
  O  O3710  1  0.275600  0.066400  0.256300  0.319
  O  O3711  1  0.790800  0.066400  0.756300  0.319
  O  O3712  1  0.724400  0.933600  0.743700  0.319
  O  O3713  1  0.617600  0.358200  0.056100  0.33
  O  O3714  1  0.259400  0.641800  0.443900  0.33
  O  O3715  1  0.382400  0.641800  0.943900  0.33
  O  O3716  1  0.740600  0.358200  0.556100  0.33
  O  O3717  1  0.541600  0.345200  0.023300  0.33
  O  O3718  1  0.196400  0.654800  0.476700  0.33
  O  O3719  1  0.458400  0.654800  0.976700  0.33
  O  O3720  1  0.803600  0.345200  0.523300  0.33
  O  O3721  1  0.534300  0.335400  0.071800  0.33
  O  O3722  1  0.198900  0.664600  0.428200  0.33
  O  O3723  1  0.465700  0.664600  0.928200  0.33
  O  O3724  1  0.801100  0.335400  0.571800  0.33
  O  O3725  1  0.566900  0.299800  0.031800  0.33
  O  O3726  1  0.267100  0.700200  0.468200  0.33
  O  O3727  1  0.433100  0.700200  0.968200  0.33
  O  O3728  1  0.732900  0.299800  0.531800  0.33
  O  O3729  1  0.330500  0.196400  0.148400  0.331
  O  O3730  1  0.134100  0.803600  0.351600  0.331
  O  O3731  1  0.669500  0.803600  0.851600  0.331
  O  O3732  1  0.865900  0.196400  0.648400  0.331
  O  O3733  1  0.402900  0.184000  0.123800  0.331
  O  O3734  1  0.218900  0.816000  0.376200  0.331
  O  O3735  1  0.597100  0.816000  0.876200  0.331
  O  O3736  1  0.781100  0.184000  0.623800  0.331
  O  O3737  1  0.315100  0.153200  0.099900  0.331
  O  O3738  1  0.161900  0.846800  0.400100  0.331
  O  O3739  1  0.684900  0.846800  0.900100  0.331
  O  O3740  1  0.838100  0.153200  0.599900  0.331
  O  O3741  1  0.354400  0.212000  0.103800  0.331
  O  O3742  1  0.142400  0.788000  0.396200  0.331
  O  O3743  1  0.645600  0.788000  0.896200  0.331
  O  O3744  1  0.857600  0.212000  0.603800  0.331
  O  O3745  1  0.806400  0.110600  0.242500  0.36
  O  O3746  1  0.695800  0.889400  0.257500  0.36
  O  O3747  1  0.193600  0.889400  0.757500  0.36
  O  O3748  1  0.304200  0.110600  0.742500  0.36
  O  O3749  1  0.757900  0.101800  0.197600  0.36
  O  O3750  1  0.656100  0.898200  0.302400  0.36
  O  O3751  1  0.242100  0.898200  0.802400  0.36
  O  O3752  1  0.343900  0.101800  0.697600  0.36
  O  O3753  1  0.865300  0.102600  0.210100  0.36
  O  O3754  1  0.762700  0.897400  0.289900  0.36
  O  O3755  1  0.134700  0.897400  0.789900  0.36
  O  O3756  1  0.237300  0.102600  0.710100  0.36
  O  O3757  1  0.787100  0.057400  0.196400  0.36
  O  O3758  1  0.729700  0.942600  0.303600  0.36
  O  O3759  1  0.212900  0.942600  0.803600  0.36
  O  O3760  1  0.270300  0.057400  0.696400  0.36
  O  O3761  1  0.419700  0.775400  0.348500  0.407
  O  O3762  1  0.644300  0.224600  0.151500  0.407
  O  O3763  1  0.580300  0.224600  0.651500  0.407
  O  O3764  1  0.355700  0.775400  0.848500  0.407
  O  O3765  1  0.457200  0.732800  0.350800  0.407
  O  O3766  1  0.724400  0.267200  0.149200  0.407
  O  O3767  1  0.542800  0.267200  0.649200  0.407
  O  O3768  1  0.275600  0.732800  0.850800  0.407
  O  O3769  1  0.505700  0.792800  0.375400  0.407
  O  O3770  1  0.712900  0.207200  0.124600  0.407
  O  O3771  1  0.494300  0.207200  0.624600  0.407
  O  O3772  1  0.287100  0.792800  0.875400  0.407
  O  O3773  1  0.428300  0.764000  0.396000  0.407
  O  O3774  1  0.664300  0.236000  0.104000  0.407
  O  O3775  1  0.571700  0.236000  0.604000  0.407
  O  O3776  1  0.335700  0.764000  0.896000  0.407
  O  O3777  1  0.708900  0.092000  0.487500  0.442
  O  O3778  1  0.616900  0.908000  0.012500  0.442
  O  O3779  1  0.291100  0.908000  0.512500  0.442
  O  O3780  1  0.383100  0.092000  0.987500  0.442
  O  O3781  1  0.661800  0.104400  0.531000  0.442
  O  O3782  1  0.557400  0.895600  0.969000  0.442
  O  O3783  1  0.338200  0.895600  0.469000  0.442
  O  O3784  1  0.442600  0.104400  0.031000  0.442
  O  O3785  1  0.631800  0.049200  0.493000  0.442
  O  O3786  1  0.582600  0.950800  0.007000  0.442
  O  O3787  1  0.368200  0.950800  0.507000  0.442
  O  O3788  1  0.417400  0.049200  0.993000  0.442
  O  O3789  1  0.625100  0.098200  0.481500  0.442
  O  O3790  1  0.526900  0.901800  0.018500  0.442
  O  O3791  1  0.374900  0.901800  0.518500  0.442
  O  O3792  1  0.473100  0.098200  0.981500  0.442
  O  O3793  1  0.576000  0.596400  0.205700  0.462
  O  O3794  1  0.979600  0.403600  0.294300  0.462
  O  O3795  1  0.424000  0.403600  0.794300  0.462
  O  O3796  1  0.020400  0.596400  0.705700  0.462
  O  O3797  1  0.518100  0.555400  0.225700  0.462
  O  O3798  1  0.962700  0.444600  0.274300  0.462
  O  O3799  1  0.481900  0.444600  0.774300  0.462
  O  O3800  1  0.037300  0.555400  0.725700  0.462
  O  O3801  1  0.572000  0.609600  0.259700  0.462
  O  O3802  1  0.962400  0.390400  0.240300  0.462
  O  O3803  1  0.428000  0.390400  0.740300  0.462
  O  O3804  1  0.037600  0.609600  0.759700  0.462
  O  O3805  1  0.500400  0.607000  0.226900  0.462
  O  O3806  1  0.893400  0.393000  0.273100  0.462
  O  O3807  1  0.499600  0.393000  0.773100  0.462
  O  O3808  1  0.106600  0.607000  0.726900  0.462
  O  O3809  1  0.379500  0.378000  0.153600  0.478
  O  O3810  1  0.001500  0.622000  0.346400  0.478
  O  O3811  1  0.620500  0.622000  0.846400  0.478
  O  O3812  1  0.998500  0.378000  0.653600  0.478
  O  O3813  1  0.475300  0.406800  0.163600  0.478
  O  O3814  1  0.068500  0.593200  0.336400  0.478
  O  O3815  1  0.524700  0.593200  0.836400  0.478
  O  O3816  1  0.931500  0.406800  0.663600  0.478
  O  O3817  1  0.428500  0.379200  0.199700  0.478
  O  O3818  1  0.049300  0.620800  0.300300  0.478
  O  O3819  1  0.571500  0.620800  0.800300  0.478
  O  O3820  1  0.950700  0.379200  0.699700  0.478
  O  O3821  1  0.439000  0.343800  0.148900  0.478
  O  O3822  1  0.095200  0.656200  0.351100  0.478
  O  O3823  1  0.561000  0.656200  0.851100  0.478
  O  O3824  1  0.904800  0.343800  0.648900  0.478
  O  O3825  1  0.125000  0.626600  0.088500  0.5
  O  O3826  1  0.498400  0.373400  0.411500  0.5
  O  O3827  1  0.875000  0.373400  0.911500  0.5
  O  O3828  1  0.501600  0.626600  0.588500  0.5
  O  O3829  1  0.145600  0.588000  0.042100  0.5
  O  O3830  1  0.557600  0.412000  0.457900  0.5
  O  O3831  1  0.854400  0.412000  0.957900  0.5
  O  O3832  1  0.442400  0.588000  0.542100  0.5
  O  O3833  1  0.109100  0.630200  0.039900  0.5
  O  O3834  1  0.478900  0.369800  0.460100  0.5
  O  O3835  1  0.890900  0.369800  0.960100  0.5
  O  O3836  1  0.521100  0.630200  0.539900  0.5
  O  O3837  1  0.062300  0.582600  0.053500  0.5
  O  O3838  1  0.479700  0.417400  0.446500  0.5
  O  O3839  1  0.937700  0.417400  0.946500  0.5
  O  O3840  1  0.520300  0.582600  0.553500  0.5
  O  O3841  1  0.802900  0.941800  0.432600  0.5
  O  O3842  1  0.861100  0.058200  0.067400  0.5
  O  O3843  1  0.197100  0.058200  0.567400  0.5
  O  O3844  1  0.138900  0.941800  0.932600  0.5
  O  O3845  1  0.873700  0.936800  0.411400  0.5
  O  O3846  1  0.936900  0.063200  0.088600  0.5
  O  O3847  1  0.126300  0.063200  0.588600  0.5
  O  O3848  1  0.063100  0.936800  0.911400  0.5
  O  O3849  1  0.796500  0.905600  0.386300  0.5
  O  O3850  1  0.890900  0.094400  0.113700  0.5
  O  O3851  1  0.203500  0.094400  0.613700  0.5
  O  O3852  1  0.109100  0.905600  0.886300  0.5
  O  O3853  1  0.482700  0.391400  0.156000  0.522
  O  O3854  1  0.091300  0.608600  0.344000  0.522
  O  O3855  1  0.517300  0.608600  0.844000  0.522
  O  O3856  1  0.908700  0.391400  0.656000  0.522
  O  O3857  1  0.435000  0.360000  0.189900  0.522
  O  O3858  1  0.075000  0.640000  0.310100  0.522
  O  O3859  1  0.565000  0.640000  0.810100  0.522
  O  O3860  1  0.925000  0.360000  0.689900  0.522
  O  O3861  1  0.391400  0.351600  0.139600  0.522
  O  O3862  1  0.039800  0.648400  0.360400  0.522
  O  O3863  1  0.608600  0.648400  0.860400  0.522
  O  O3864  1  0.960200  0.351600  0.639600  0.522
  O  O3865  1  0.409600  0.406600  0.180000  0.522
  O  O3866  1  0.003000  0.593400  0.320000  0.522
  O  O3867  1  0.590400  0.593400  0.820000  0.522
  O  O3868  1  0.997000  0.406600  0.680000  0.522
  O  O3869  1  0.569900  0.577000  0.206200  0.538
  O  O3870  1  0.992900  0.423000  0.293800  0.538
  O  O3871  1  0.430100  0.423000  0.793800  0.538
  O  O3872  1  0.007100  0.577000  0.706200  0.538
  O  O3873  1  0.488400  0.587000  0.216600  0.538
  O  O3874  1  0.901400  0.413000  0.283400  0.538
  O  O3875  1  0.511600  0.413000  0.783400  0.538
  O  O3876  1  0.098600  0.587000  0.716600  0.538
  O  O3877  1  0.536000  0.576400  0.254400  0.538
  O  O3878  1  0.959600  0.423600  0.245600  0.538
  O  O3879  1  0.464000  0.423600  0.745600  0.538
  O  O3880  1  0.040400  0.576400  0.754400  0.538
  O  O3881  1  0.567200  0.629600  0.243100  0.538
  O  O3882  1  0.937600  0.370400  0.256900  0.538
  O  O3883  1  0.432800  0.370400  0.756900  0.538
  O  O3884  1  0.062400  0.629600  0.743100  0.538
  O  O3885  1  0.679100  0.147200  0.506900  0.558
  O  O3886  1  0.531900  0.852800  0.993100  0.558
  O  O3887  1  0.320900  0.852800  0.493100  0.558
  O  O3888  1  0.468100  0.147200  0.006900  0.558
  O  O3889  1  0.645600  0.101000  0.527600  0.558
  O  O3890  1  0.544600  0.899000  0.972400  0.558
  O  O3891  1  0.354400  0.899000  0.472400  0.558
  O  O3892  1  0.455400  0.101000  0.027600  0.558
  O  O3893  1  0.713600  0.100800  0.494500  0.558
  O  O3894  1  0.612800  0.899200  0.005500  0.558
  O  O3895  1  0.286400  0.899200  0.505500  0.558
  O  O3896  1  0.387200  0.100800  0.994500  0.558
  O  O3897  1  0.627000  0.091800  0.474400  0.558
  O  O3898  1  0.535200  0.908200  0.025600  0.558
  O  O3899  1  0.373000  0.908200  0.525600  0.558
  O  O3900  1  0.464800  0.091800  0.974400  0.558
  O  O3901  1  0.428600  0.744400  0.338400  0.593
  O  O3902  1  0.684200  0.255600  0.161600  0.593
  O  O3903  1  0.571400  0.255600  0.661600  0.593
  O  O3904  1  0.315800  0.744400  0.838400  0.593
  O  O3905  1  0.485400  0.751200  0.380900  0.593
  O  O3906  1  0.734200  0.248800  0.119100  0.593
  O  O3907  1  0.514600  0.248800  0.619100  0.593
  O  O3908  1  0.265800  0.751200  0.880900  0.593
  O  O3909  1  0.490000  0.800400  0.365000  0.593
  O  O3910  1  0.689600  0.199600  0.135000  0.593
  O  O3911  1  0.510000  0.199600  0.635000  0.593
  O  O3912  1  0.310400  0.800400  0.865000  0.593
  O  O3913  1  0.413500  0.773400  0.388000  0.593
  O  O3914  1  0.640100  0.226600  0.112000  0.593
  O  O3915  1  0.586500  0.226600  0.612000  0.593
  O  O3916  1  0.359900  0.773400  0.888000  0.593
  O  O3917  1  0.793000  0.093000  0.233500  0.64
  O  O3918  1  0.700000  0.907000  0.266500  0.64
  O  O3919  1  0.207000  0.907000  0.766500  0.64
  O  O3920  1  0.300000  0.093000  0.733500  0.64
  O  O3921  1  0.777200  0.092800  0.181800  0.64
  O  O3922  1  0.684400  0.907200  0.318200  0.64
  O  O3923  1  0.222800  0.907200  0.818200  0.64
  O  O3924  1  0.315600  0.092800  0.681800  0.64
  O  O3925  1  0.845900  0.090400  0.191900  0.64
  O  O3926  1  0.755500  0.909600  0.308100  0.64
  O  O3927  1  0.154100  0.909600  0.808100  0.64
  O  O3928  1  0.244500  0.090400  0.691900  0.64
  O  O3929  1  0.830000  0.142800  0.214100  0.64
  O  O3930  1  0.687200  0.857200  0.285900  0.64
  O  O3931  1  0.170000  0.857200  0.785900  0.64
  O  O3932  1  0.312800  0.142800  0.714100  0.64
  O  O3933  1  0.339500  0.194800  0.170700  0.669
  O  O3934  1  0.144700  0.805200  0.329300  0.669
  O  O3935  1  0.660500  0.805200  0.829300  0.669
  O  O3936  1  0.855300  0.194800  0.670700  0.669
  O  O3937  1  0.388000  0.178200  0.129100  0.669
  O  O3938  1  0.209800  0.821800  0.370900  0.669
  O  O3939  1  0.612000  0.821800  0.870900  0.669
  O  O3940  1  0.790200  0.178200  0.629100  0.669
  O  O3941  1  0.293300  0.154800  0.124100  0.669
  O  O3942  1  0.138500  0.845200  0.375900  0.669
  O  O3943  1  0.706700  0.845200  0.875900  0.669
  O  O3944  1  0.861500  0.154800  0.624100  0.669
  O  O3945  1  0.335600  0.213200  0.127400  0.669
  O  O3946  1  0.122400  0.786800  0.372600  0.669
  O  O3947  1  0.664400  0.786800  0.872600  0.669
  O  O3948  1  0.877600  0.213200  0.627400  0.669
  O  O3949  1  0.589380  0.369160  0.064800  0.67
  O  O3950  1  0.220220  0.630840  0.435200  0.67
  O  O3951  1  0.410620  0.630840  0.935200  0.67
  O  O3952  1  0.779780  0.369160  0.564800  0.67
  O  O3953  1  0.525300  0.333800  0.023300  0.67
  O  O3954  1  0.191500  0.666200  0.476700  0.67
  O  O3955  1  0.474700  0.666200  0.976700  0.67
  O  O3956  1  0.808500  0.333800  0.523300  0.67
  O  O3957  1  0.537100  0.312200  0.063300  0.67
  O  O3958  1  0.224900  0.687800  0.436700  0.67
  O  O3959  1  0.462900  0.687800  0.936700  0.67
  O  O3960  1  0.775100  0.312200  0.563300  0.67
  O  O3961  1  0.602400  0.319400  0.029300  0.67
  O  O3962  1  0.283000  0.680600  0.470700  0.67
  O  O3963  1  0.397600  0.680600  0.970700  0.67
  O  O3964  1  0.717000  0.319400  0.529300  0.67
  O  O3965  1  0.410100  0.764800  0.220000  0.689
  O  O3966  1  0.645300  0.235200  0.280000  0.689
  O  O3967  1  0.589900  0.235200  0.780000  0.689
  O  O3968  1  0.354700  0.764800  0.720000  0.689
  O  O3969  1  0.347800  0.730000  0.175500  0.689
  O  O3970  1  0.617800  0.270000  0.324500  0.689
  O  O3971  1  0.652200  0.270000  0.824500  0.689
  O  O3972  1  0.382200  0.730000  0.675500  0.689
  O  O3973  1  0.437100  0.752400  0.168100  0.689
  O  O3974  1  0.684700  0.247600  0.331900  0.689
  O  O3975  1  0.562900  0.247600  0.831900  0.689
  O  O3976  1  0.315300  0.752400  0.668100  0.689
  O  O3977  1  0.603700  0.720600  0.110200  0.726
  O  O3978  1  0.883100  0.279400  0.389800  0.726
  O  O3979  1  0.396300  0.279400  0.889800  0.726
  O  O3980  1  0.116900  0.720600  0.610200  0.726
  O  O3981  1  0.674700  0.768000  0.139300  0.726
  O  O3982  1  0.906700  0.232000  0.360700  0.726
  O  O3983  1  0.325300  0.232000  0.860700  0.726
  O  O3984  1  0.093300  0.768000  0.639300  0.726
  O  O3985  1  0.680500  0.710800  0.126800  0.726
  O  O3986  1  0.969700  0.289200  0.373200  0.726
  O  O3987  1  0.319500  0.289200  0.873200  0.726
  O  O3988  1  0.030300  0.710800  0.626800  0.726
  O  O3989  1  0.683900  0.738600  0.088100  0.726
  O  O3990  1  0.945300  0.261400  0.411900  0.726
  O  O3991  1  0.316100  0.261400  0.911900  0.726
  O  O3992  1  0.054700  0.738600  0.588100  0.726
  O  O3993  1  0.227700  0.516200  0.015300  0.786
  O  O3994  1  0.711500  0.483800  0.484700  0.786
  O  O3995  1  0.772300  0.483800  0.984700  0.786
  O  O3996  1  0.288500  0.516200  0.515300  0.786
  O  O3997  1  0.283700  0.515200  0.054000  0.786
  O  O3998  1  0.768500  0.484800  0.446000  0.786
  O  O3999  1  0.716300  0.484800  0.946000  0.786
  O  O4000  1  0.231500  0.515200  0.554000  0.786
  O  O4001  1  0.300700  0.498000  0.001000  0.786
  O  O4002  1  0.802700  0.502000  0.499000  0.786
  O  O4003  1  0.699300  0.502000  0.999000  0.786
  O  O4004  1  0.197300  0.498000  0.501000  0.786
  O  O4005  1  0.226900  0.462200  0.018600  0.786
  O  O4006  1  0.764700  0.537800  0.481400  0.786
  O  O4007  1  0.773100  0.537800  0.981400  0.786
  O  O4008  1  0.235300  0.462200  0.518600  0.786
