
#######################################################################
#
#                 Cambridge Crystallographic Data Centre
#                                CCDC 
#
#######################################################################
#
# If this CIF has been generated from an entry in the Cambridge 
# Structural Database, then it will include bibliographic, chemical, 
# crystal, experimental, refinement or atomic coordinate data resulting 
# from the CCDC's data processing and validation procedures.
#
#######################################################################

data_UQILEN
_chemical_formula_moiety         
'C240 H156 Fe4 N24 8+,8(F6 P1 1-),2.5(C6 H6),0.5(C2 H3 N1)'
_chemical_name_systematic        
"hexakis(\m-N,N'-(pyrene-2,7-diyldi-4,1-phenylene)bis(1-(pyridin-2-yl)methanimine))-tetra-iron octakis(hexafluorophosphate) acetonitrile benzene solvate"
_symmetry_cell_setting           triclinic
_symmetry_space_group_name_H-M   'P -1'
_symmetry_Int_Tables_number      2
_space_group_name_Hall           '-P 1'
loop_
_symmetry_equiv_pos_site_id
_symmetry_equiv_pos_as_xyz
1 x,y,z
2 -x,-y,-z
_cell_length_a                   24.4345(15)
_cell_length_b                   25.6731(16)
_cell_length_c                   28.6611(17)
_cell_angle_alpha                82.922(3)
_cell_angle_beta                 66.366(4)
_cell_angle_gamma                72.449(3)
_cell_volume                     15704.5
_exptl_crystal_colour            purple
_exptl_crystal_description       block
_cell_formula_units_Z            2
loop_
_atom_site_label
_atom_site_type_symbol
_atom_site_fract_x
_atom_site_fract_y
_atom_site_fract_z
Fe1 Fe 0.60901(5) 0.28291(4) 0.45396(4)
Fe2 Fe 0.41345(5) -0.41409(4) 0.84977(4)
Fe3 Fe -0.27778(6) 0.21694(5) 0.71639(5)
Fe4 Fe 0.10249(6) 0.32646(5) 1.22228(5)
N1 N 0.6578(3) 0.3273(2) 0.4626(2)
N2 N 0.5416(3) 0.3335(3) 0.5082(2)
N3 N -0.2578(4) 0.2798(3) 0.7315(3)
N4 N -0.3628(4) 0.2654(3) 0.7517(3)
N5 N 0.5828(3) 0.3368(2) 0.4061(2)
N6 N 0.5510(3) 0.2503(2) 0.4441(2)
N7 N 0.3917(3) -0.3801(2) 0.7917(2)
N8 N 0.3830(3) -0.4721(2) 0.8364(2)
N9 N 0.6807(3) 0.2357(2) 0.4022(2)
N10 N 0.6346(3) 0.2240(3) 0.4994(2)
N11 N 0.1815(3) 0.2721(2) 1.1858(3)
N12 N 0.1223(4) 0.2919(3) 1.2805(3)
N13 N 0.5007(3) -0.4451(3) 0.8036(3)
N14 N 0.4496(3) -0.3587(2) 0.8578(2)
N15 N 0.0500(4) 0.2783(3) 1.2314(3)
N16 N 0.0217(4) 0.3735(3) 1.2674(3)
N17 N 0.4253(3) -0.4536(2) 0.9096(3)
N18 N 0.3291(3) -0.3832(2) 0.9025(2)
N19 N -0.1914(3) 0.1751(3) 0.6773(3)
N20 N -0.2701(4) 0.2543(3) 0.6516(3)
N21 N -0.3074(4) 0.1593(3) 0.7061(4)
N22 N -0.2818(3) 0.1756(3) 0.7805(3)
N23 N 0.0910(3) 0.3625(2) 1.1612(3)
N24 N 0.1473(3) 0.3827(3) 1.2119(3)
C1 C 0.7204(5) 0.3210(3) 0.4370(3)
H1 H 0.7459 0.2905 0.4153
C2 C 0.7461(5) 0.3599(5) 0.4433(4)
H2 H 0.7890 0.3564 0.4245
C3 C 0.7121(6) 0.4018(4) 0.4749(4)
H3 H 0.7316 0.4264 0.4798
C4 C 0.6485(5) 0.4100(3) 0.5010(4)
H4 H 0.6231 0.4404 0.5228
C5 C 0.6247(4) 0.3713(3) 0.4932(3)
C6 C 0.5599(5) 0.3730(3) 0.5177(3)
H5 H 0.5310 0.4020 0.5401
C7 C 0.4778(4) 0.3373(3) 0.5296(3)
C8 C 0.4377(5) 0.3704(4) 0.5084(4)
H6 H 0.4530 0.3926 0.4800
C9 C 0.3754(4) 0.3718(5) 0.5278(4)
H7 H 0.3492 0.3952 0.5121
C10 C 0.3511(4) 0.3418(5) 0.5670(5)
C11 C 0.3923(4) 0.3070(4) 0.5885(4)
H8 H 0.3771 0.2839 0.6162
C12 C 0.4546(5) 0.3061(4) 0.5698(4)
H9 H 0.4809 0.2833 0.5856
C13 C 0.2873(4) 0.3344(5) 0.5830(3)
C14 C 0.2502(5) 0.3328(6) 0.6345(3)
H10 H 0.2670 0.3316 0.6594
C15 C 0.1885(5) 0.3331(6) 0.6494(4)
C16 C 0.1639(4) 0.3350(6) 0.6130(5)
C17 C 0.2009(5) 0.3366(6) 0.5615(5)
C18 C 0.2626(5) 0.3363(5) 0.5466(3)
H11 H 0.2880 0.3373 0.5114
C19 C 0.1707(10) 0.3381(9) 0.5228(8)
H12 H 0.1931 0.3415 0.4873
C20 C 0.1110(10) 0.3346(9) 0.5410(8)
H13 H 0.0915 0.3389 0.5175
C21 C 0.1522(10) 0.3296(9) 0.7039(8)
H14 H 0.1688 0.3318 0.7282
C22 C 0.0926(10) 0.3230(9) 0.7195(8)
H15 H 0.0696 0.3171 0.7544
C23 C 0.0998(5) 0.3292(6) 0.6298(5)
C24 C 0.0663(5) 0.3253(6) 0.6817(5)
C25 C 0.0079(5) 0.3165(6) 0.6991(3)
H16 H -0.0149 0.3138 0.7346
C26 C -0.0170(4) 0.3116(6) 0.6645(3)
C27 C 0.0164(5) 0.3156(6) 0.6125(3)
H17 H -0.0006 0.3122 0.5889
C28 C 0.0748(5) 0.3244(6) 0.5952(4)
C29 C -0.0803(4) 0.3033(5) 0.6831(5)
C30 C -0.1040(5) 0.2776(4) 0.7287(4)
H18 H -0.0797 0.2636 0.7487
C31 C -0.1639(5) 0.2722(4) 0.7454(5)
H19 H -0.1821 0.2573 0.7781
C32 C -0.1953(5) 0.2877(5) 0.7157(5)
C33 C -0.1724(7) 0.3147(7) 0.6701(6)
H20 H -0.1977 0.3296 0.6510
C34 C -0.1150(5) 0.3198(7) 0.6531(5)
H21 H -0.0978 0.3348 0.6203
C35 C -0.3042(5) 0.3218(4) 0.7517(4)
H22 H -0.2981 0.3552 0.7565
C36 C -0.3641(5) 0.3157(3) 0.7663(4)
C37 C -0.4210(5) 0.3530(4) 0.7933(4)
H23 H -0.4214 0.3870 0.8035
C38 C -0.4756(5) 0.3414(4) 0.8050(4)
H24 H -0.5142 0.3671 0.8225
C39 C -0.4735(5) 0.2893(4) 0.7904(4)
H25 H -0.5105 0.2786 0.7992
C40 C -0.4171(5) 0.2557(4) 0.7634(4)
H26 H -0.4163 0.2223 0.7519
C41 C 0.6002(4) 0.3829(3) 0.3864(3)
H27 H 0.6346 0.3889 0.3904
C42 C 0.5698(4) 0.4206(3) 0.3612(3)
H28 H 0.5834 0.4524 0.3484
C43 C 0.5206(5) 0.4147(3) 0.3535(3)
H29 H 0.4991 0.4421 0.3366
C44 C 0.5029(4) 0.3671(3) 0.3713(3)
H30 H 0.4699 0.3601 0.3659
C45 C 0.5350(4) 0.3305(3) 0.3969(3)
C46 C 0.5200(4) 0.2789(3) 0.4182(3)
H31 H 0.4892 0.2676 0.4131
C47 C 0.5340(4) 0.1999(3) 0.4662(3)
C48 C 0.5797(4) 0.1507(3) 0.4528(3)
H32 H 0.6200 0.1493 0.4279
C49 C 0.5653(4) 0.1026(3) 0.4770(3)
H33 H 0.5956 0.0683 0.4679
C50 C 0.5063(5) 0.1055(3) 0.5144(3)
C51 C 0.4602(4) 0.1547(3) 0.5252(4)
H34 H 0.4190 0.1563 0.5483
C52 C 0.4761(4) 0.2032(3) 0.5005(3)
H35 H 0.4457 0.2376 0.5083
C53 C 0.4915(5) 0.0540(3) 0.5436(3)
C54 C 0.4321(4) 0.0508(3) 0.5684(3)
H36 H 0.3989 0.0807 0.5662
C55 C 0.4183(4) 0.0046(3) 0.5972(3)
C56 C 0.4691(4) -0.0401(3) 0.5998(3)
C57 C 0.5299(4) -0.0368(3) 0.5725(4)
C58 C 0.5407(4) 0.0102(3) 0.5463(3)
H37 H 0.5821 0.0129 0.5298
C59 C 0.3577(5) -0.0004(3) 0.6220(4)
H38 H 0.3247 0.0286 0.6183
C60 C 0.3431(5) -0.0445(3) 0.6511(4)
H39 H 0.3010 -0.0453 0.6682
C61 C 0.5798(5) -0.0848(4) 0.5739(4)
H40 H 0.6218 -0.0843 0.5556
C62 C 0.5679(5) -0.1290(4) 0.6002(5)
H41 H 0.6015 -0.1594 0.6005
C63 C 0.4551(4) -0.0863(3) 0.6295(3)
C64 C 0.3933(4) -0.0898(3) 0.6551(3)
C65 C 0.3834(4) -0.1368(3) 0.6834(3)
H42 H 0.3417 -0.1383 0.7017
C66 C 0.4305(4) -0.1810(3) 0.6863(3)
C67 C 0.4926(4) -0.1785(3) 0.6582(4)
H43 H 0.5262 -0.2085 0.6594
C68 C 0.5049(4) -0.1323(3) 0.6285(3)
C69 C 0.4197(4) -0.2326(3) 0.7150(3)
C70 C 0.3602(4) -0.2388(3) 0.7413(3)
H44 H 0.3256 -0.2090 0.7419
C71 C 0.3494(4) -0.2854(3) 0.7662(3)
H45 H 0.3082 -0.2886 0.7830
C72 C 0.3995(4) -0.3279(3) 0.7666(3)
C73 C 0.4592(5) -0.3240(3) 0.7431(3)
H46 H 0.4934 -0.3536 0.7438
C74 C 0.4686(4) -0.2744(3) 0.7176(3)
H47 H 0.5095 -0.2702 0.7022
C75 C 0.3677(4) -0.4072(3) 0.7744(3)
H48 H 0.3557 -0.3937 0.7466
C76 C 0.3591(3) -0.4592(3) 0.7985(3)
C77 C 0.3346(4) -0.4926(3) 0.7859(3)
H49 H 0.3200 -0.4830 0.7589
C78 C 0.3304(4) -0.5420(3) 0.8125(3)
H50 H 0.3121 -0.5658 0.8047
C79 C 0.3532(4) -0.5547(3) 0.8498(3)
H51 H 0.3519 -0.5880 0.8682
C80 C 0.3785(4) -0.5183(3) 0.8607(3)
H52 H 0.3934 -0.5274 0.8875
C81 C 0.7026(4) 0.2432(3) 0.3516(3)
H53 H 0.6819 0.2747 0.3377
C82 C 0.7537(4) 0.2070(4) 0.3193(3)
H54 H 0.7681 0.2138 0.2836
C83 C 0.7848(4) 0.1599(4) 0.3385(4)
H55 H 0.8200 0.1339 0.3166
C84 C 0.7624(4) 0.1527(3) 0.3902(3)
H56 H 0.7828 0.1217 0.4048
C85 C 0.7108(4) 0.1901(3) 0.4210(3)
C86 C 0.6841(4) 0.1847(3) 0.4759(3)
H57 H 0.7012 0.1548 0.4935
C87 C 0.6031(4) 0.2179(3) 0.5521(3)
C88 C 0.5773(4) 0.1736(3) 0.5705(3)
H58 H 0.5848 0.1459 0.5478
C89 C 0.5411(4) 0.1704(3) 0.6213(3)
H59 H 0.5247 0.1400 0.6336
C90 C 0.5283(4) 0.2113(3) 0.6553(3)
C91 C 0.5577(4) 0.2529(3) 0.6369(3)
H60 H 0.5523 0.2794 0.6599
C92 C 0.5944(4) 0.2563(3) 0.5857(3)
H61 H 0.6136 0.2851 0.5739
C93 C 0.4850(4) 0.2113(3) 0.7087(3)
C94 C 0.4867(4) 0.1659(3) 0.7408(3)
H62 H 0.5169 0.1324 0.7275
C95 C 0.4463(4) 0.1677(3) 0.7909(3)
C96 C 0.4020(4) 0.2178(3) 0.8122(3)
C97 C 0.3967(4) 0.2641(3) 0.7799(3)
C98 C 0.4384(4) 0.2601(3) 0.7298(4)
H63 H 0.4356 0.2914 0.7085
C99 C 0.3499(5) 0.3129(3) 0.8013(4)
H64 H 0.3435 0.3431 0.7795
C100 C 0.3142(4) 0.3180(3) 0.8513(4)
H65 H 0.2845 0.3519 0.8639
C101 C 0.4503(4) 0.1217(3) 0.8255(4)
H66 H 0.4795 0.0875 0.8129
C102 C 0.4138(5) 0.1266(3) 0.8746(3)
H67 H 0.4165 0.0948 0.8952
C103 C 0.3636(4) 0.2218(3) 0.8642(3)
C104 C 0.3201(4) 0.2726(3) 0.8867(4)
C105 C 0.2877(4) 0.2776(3) 0.9389(3)
H68 H 0.2582 0.3112 0.9529
C106 C 0.2982(4) 0.2336(3) 0.9709(3)
C107 C 0.3359(4) 0.1842(3) 0.9503(3)
H69 H 0.3383 0.1537 0.9725
C108 C 0.3713(4) 0.1759(3) 0.8983(3)
C109 C 0.2679(4) 0.2424(3) 1.0266(3)
C110 C 0.2442(4) 0.2037(3) 1.0613(3)
H70 H 0.2473 0.1701 1.0485
C111 C 0.2171(4) 0.2118(3) 1.1122(3)
H71 H 0.2013 0.1843 1.1341
C112 C 0.2121(4) 0.2602(3) 1.1325(3)
C113 C 0.2372(4) 0.2995(3) 1.0993(4)
H72 H 0.2356 0.3325 1.1124
C114 C 0.2644(4) 0.2898(3) 1.0473(3)
H73 H 0.2813 0.3166 1.0251
C115 C 0.2081(5) 0.2431(4) 1.2146(4)
H74 H 0.2470 0.2165 1.2007
C116 C 0.1768(4) 0.2523(4) 1.2691(3)
C117 C 0.1990(6) 0.2239(5) 1.3048(4)
H75 H 0.2370 0.1956 1.2947
C118 C 0.1642(7) 0.2375(6) 1.3564(5)
H76 H 0.1792 0.2201 1.3819
C119 C 0.1102(8) 0.2751(7) 1.3685(5)
H77 H 0.0856 0.2833 1.4035
C120 C 0.0873(6) 0.3037(5) 1.3320(4)
H78 H 0.0483 0.3308 1.3423
C121 C 0.5242(4) -0.4881(3) 0.7730(3)
H79 H 0.4972 -0.5075 0.7718
C122 C 0.5863(5) -0.5051(4) 0.7432(4)
H80 H 0.6012 -0.5359 0.7218
C123 C 0.6278(5) -0.4787(4) 0.7435(4)
H81 H 0.6709 -0.4904 0.7228
C124 C 0.6032(5) -0.4344(4) 0.7754(4)
H82 H 0.6297 -0.4151 0.7774
C125 C 0.5404(4) -0.4177(4) 0.8044(4)
C126 C 0.5093(5) -0.3687(4) 0.8358(4)
H83 H 0.5313 -0.3459 0.8398
C127 C 0.4165(4) -0.3098(3) 0.8901(3)
C128 C 0.4007(4) -0.2598(3) 0.8667(3)
H84 H 0.4125 -0.2571 0.8308
C129 C 0.3669(5) -0.2140(4) 0.8978(4)
H85 H 0.3552 -0.1798 0.8823
C130 C 0.3499(4) -0.2160(3) 0.9497(3)
C131 C 0.3678(4) -0.2669(3) 0.9719(3)
H86 H 0.3577 -0.2696 1.0075
C132 C 0.4005(4) -0.3139(3) 0.9412(3)
H87 H 0.4114 -0.3485 0.9564
C133 C 0.3154(4) -0.1676(3) 0.9815(3)
C134 C 0.2586(5) -0.1349(3) 0.9797(3)
H88 H 0.2437 -0.1451 0.9572
C135 C 0.2224(5) -0.0872(3) 1.0101(3)
C136 C 0.2469(4) -0.0732(3) 1.0432(3)
C137 C 0.3023(5) -0.1057(3) 1.0459(3)
C138 C 0.3349(5) -0.1526(3) 1.0162(4)
H89 H 0.3718 -0.1752 1.0197
C139 C 0.3268(5) -0.0886(3) 1.0784(4)
H90 H 0.3651 -0.1098 1.0803
C140 C 0.2941(5) -0.0417(4) 1.1062(3)
H91 H 0.3106 -0.0305 1.1270
C141 C 0.1647(5) -0.0538(4) 1.0089(3)
H92 H 0.1482 -0.0634 0.9873
C142 C 0.1340(5) -0.0099(4) 1.0373(4)
H93 H 0.0958 0.0114 1.0354
C143 C 0.2377(5) -0.0099(3) 1.1052(3)
C144 C 0.2122(5) -0.0248(3) 1.0736(3)
C145 C 0.1554(4) 0.0076(3) 1.0715(3)
C146 C 0.1234(5) 0.0551(3) 1.1009(3)
H94 H 0.0851 0.0771 1.0995
C147 C 0.1472(5) 0.0706(3) 1.1325(3)
C148 C 0.2050(5) 0.0390(3) 1.1337(3)
H95 H 0.2221 0.0506 1.1538
C149 C 0.1159(4) 0.1244(3) 1.1627(3)
C150 C 0.0802(4) 0.1677(3) 1.1445(3)
H96 H 0.0725 0.1628 1.1156
C151 C 0.0553(4) 0.2184(3) 1.1682(3)
H97 H 0.0298 0.2481 1.1564
C152 C 0.0691(4) 0.2243(3) 1.2096(3)
C153 C 0.1017(4) 0.1801(4) 1.2291(3)
H98 H 0.1084 0.1839 1.2587
C154 C 0.1242(5) 0.1308(4) 1.2056(3)
H99 H 0.1462 0.1003 1.2195
C155 C -0.0071(5) 0.2960(4) 1.2621(4)
H100 H -0.0358 0.2751 1.2697
C156 C -0.0257(5) 0.3489(4) 1.2843(4)
C157 C -0.0851(5) 0.3750(5) 1.3184(4)
H101 H -0.1178 0.3581 1.3278
C158 C -0.0962(6) 0.4237(5) 1.3377(5)
H102 H -0.1352 0.4406 1.3631
C159 C -0.0461(6) 0.4494(5) 1.3181(5)
H103 H -0.0534 0.4852 1.3291
C160 C 0.0101(5) 0.4239(4) 1.2848(4)
H104 H 0.0423 0.4415 1.2732
C161 C 0.4778(4) -0.4904(3) 0.9125(4)
H105 H 0.5152 -0.4959 0.8830
C162 C 0.4794(5) -0.5188(3) 0.9543(4)
H106 H 0.5167 -0.5448 0.9539
C163 C 0.4270(6) -0.5100(4) 0.9979(4)
H107 H 0.4274 -0.5297 1.0281
C164 C 0.3724(5) -0.4715(4) 0.9973(4)
H108 H 0.3351 -0.4648 1.0270
C165 C 0.3744(4) -0.4440(3) 0.9529(3)
C166 C 0.3217(4) -0.4050(3) 0.9469(3)
H109 H 0.2826 -0.3954 0.9746
C167 C 0.2768(3) -0.3416(3) 0.8953(3)
C168 C 0.2634(4) -0.2891(3) 0.9099(3)
H110 H 0.2839 -0.2807 0.9288
C169 C 0.2199(4) -0.2484(3) 0.8973(3)
H111 H 0.2124 -0.2119 0.9064
C170 C 0.1867(3) -0.2590(3) 0.8716(3)
C171 C 0.1988(3) -0.3135(3) 0.8610(3)
H112 H 0.1752 -0.3230 0.8457
C172 C 0.2432(4) -0.3539(3) 0.8717(3)
H113 H 0.2508 -0.3906 0.8629
C173 C 0.1449(3) -0.2147(3) 0.8541(3)
C174 C 0.1185(4) -0.1625(3) 0.8764(3)
H114 H 0.1258 -0.1561 0.9051
C175 C 0.0819(4) -0.1199(3) 0.8575(3)
C176 C 0.0699(3) -0.1281(3) 0.8149(3)
C177 C 0.0951(3) -0.1812(3) 0.7928(3)
C178 C 0.1316(3) -0.2226(3) 0.8125(3)
H115 H 0.1483 -0.2577 0.7972
C179 C 0.0837(3) -0.1891(3) 0.7489(3)
H116 H 0.1025 -0.2235 0.7323
C180 C 0.0465(3) -0.1483(3) 0.7307(3)
H117 H 0.0383 -0.1549 0.7026
C181 C 0.0560(4) -0.0659(3) 0.8797(3)
H118 H 0.0622 -0.0594 0.9089
C182 C 0.0224(4) -0.0241(3) 0.8590(4)
H119 H 0.0073 0.0113 0.8733
C183 C 0.0321(3) -0.0848(3) 0.7960(3)
C184 C 0.0098(4) -0.0323(3) 0.8170(4)
C185 C -0.0282(4) 0.0093(3) 0.7962(4)
H120 H -0.0447 0.0449 0.8105
C186 C -0.0420(4) -0.0002(4) 0.7562(4)
C187 C -0.0180(4) -0.0535(3) 0.7354(3)
H121 H -0.0278 -0.0608 0.7084
C188 C 0.0201(4) -0.0957(3) 0.7543(3)
C189 C -0.0798(5) 0.0446(4) 0.7346(4)
C190 C -0.0680(5) 0.0957(4) 0.7244(4)
H122 H -0.0355 0.1015 0.7314
C191 C -0.1032(5) 0.1384(4) 0.7040(4)
H123 H -0.0934 0.1724 0.6954
C192 C -0.1525(5) 0.1299(4) 0.6966(4)
C193 C -0.1635(6) 0.0790(4) 0.7053(4)
H124 H -0.1958 0.0730 0.6979
C194 C -0.1268(5) 0.0358(4) 0.7251(4)
H125 H -0.1349 0.0011 0.7318
C195 C -0.1689(6) 0.1885(5) 0.6318(5)
H126 H -0.1279 0.1707 0.6096
C196 C -0.2102(6) 0.2336(5) 0.6150(5)
C197 C -0.1892(7) 0.2580(6) 0.5669(6)
H127 H -0.1470 0.2457 0.5443
C198 C -0.2306(7) 0.3000(5) 0.5530(6)
H128 H -0.2187 0.3146 0.5195
C199 C -0.2893(5) 0.3201(4) 0.5889(4)
H129 H -0.3180 0.3509 0.5816
C200 C -0.3055(5) 0.2946(4) 0.6358(4)
H130 H -0.3473 0.3080 0.6590
C201 C -0.3165(6) 0.1479(4) 0.6665(4)
H131 H -0.3070 0.1712 0.6377
C202 C -0.3387(6) 0.1049(5) 0.6624(5)
H132 H -0.3450 0.0995 0.6329
C203 C -0.3513(7) 0.0696(6) 0.7064(6)
H133 H -0.3668 0.0397 0.7071
C204 C -0.3402(6) 0.0801(5) 0.7472(5)
H134 H -0.3475 0.0565 0.7759
C205 C -0.3187(5) 0.1246(4) 0.7475(5)
C206 C -0.3063(5) 0.1371(4) 0.7877(4)
H135 H -0.3159 0.1175 0.8189
C207 C -0.2619(4) 0.1878(4) 0.8185(4)
C208 C -0.2893(4) 0.2367(4) 0.8449(3)
H136 H -0.3241 0.2625 0.8406
C209 C -0.2649(4) 0.2476(3) 0.8780(3)
H137 H -0.2850 0.2802 0.8975
C210 C -0.2125(4) 0.2121(3) 0.8831(3)
C211 C -0.1863(4) 0.1627(3) 0.8577(3)
H138 H -0.1513 0.1374 0.8620
C212 C -0.2109(4) 0.1494(4) 0.8255(3)
H139 H -0.1934 0.1151 0.8087
C213 C -0.1806(4) 0.2288(3) 0.9130(3)
C214 C -0.1901(4) 0.2832(3) 0.9211(3)
H140 H -0.2161 0.3099 0.9073
C215 C -0.1627(4) 0.3010(3) 0.9493(3)
C216 C -0.1217(4) 0.2603(3) 0.9672(3)
C217 C -0.1120(4) 0.2045(3) 0.9582(3)
C218 C -0.1425(4) 0.1911(4) 0.9321(3)
H141 H -0.1366 0.1535 0.9273
C219 C -0.1710(4) 0.3572(3) 0.9581(3)
H142 H -0.1956 0.3847 0.9437
C220 C -0.1451(4) 0.3725(3) 0.9859(3)
H143 H -0.1538 0.4100 0.9929
C221 C -0.0696(4) 0.1644(3) 0.9755(3)
H144 H -0.0618 0.1269 0.9690
C222 C -0.0400(4) 0.1786(3) 1.0012(3)
H145 H -0.0119 0.1508 1.0122
C223 C -0.0923(4) 0.2762(3) 0.9942(3)
C224 C -0.0506(4) 0.2352(3) 1.0119(3)
C225 C -0.0236(4) 0.2520(3) 1.0399(3)
H146 H 0.0037 0.2247 1.0520
C226 C -0.0342(4) 0.3059(3) 1.0512(3)
C227 C -0.0747(4) 0.3445(3) 1.0346(3)
H147 H -0.0839 0.3817 1.0430
C228 C -0.1036(4) 0.3307(3) 1.0051(3)
C229 C -0.0037(4) 0.3215(3) 1.0813(3)
C230 C -0.0354(4) 0.3502(3) 1.1249(3)
H148 H -0.0796 0.3615 1.1376
C231 C -0.0053(4) 0.3641(3) 1.1523(3)
H149 H -0.0288 0.3829 1.1838
C232 C 0.0583(4) 0.3501(3) 1.1332(3)
C233 C 0.0917(4) 0.3207(3) 1.0878(3)
H150 H 0.1358 0.3102 1.0748
C234 C 0.0619(4) 0.3068(3) 1.0620(4)
H151 H 0.0854 0.2872 1.0309
C235 C 0.1139(4) 0.4040(4) 1.1445(4)
H152 H 0.1093 0.4250 1.1159
C236 C 0.1457(4) 0.4157(4) 1.1712(4)
C237 C 0.1762(5) 0.4577(5) 1.1580(5)
H153 H 0.1741 0.4818 1.1304
C238 C 0.2088(6) 0.4629(5) 1.1860(5)
H154 H 0.2294 0.4908 1.1775
C239 C 0.2120(5) 0.4289(4) 1.2253(4)
H155 H 0.2354 0.4323 1.2439
C240 C 0.1794(5) 0.3876(4) 1.2387(4)
H156 H 0.1806 0.3638 1.2667
C241 C 0.4788(6) 0.7593(4) 0.0829(6)
H157 H 0.4555 0.7957 0.0937
C242 C 0.5401(6) 0.7402(5) 0.0789(6)
H158 H 0.5587 0.7635 0.0871
C243 C 0.5742(4) 0.6869(5) 0.0631(6)
H159 H 0.6161 0.6738 0.0604
C244 C 0.5470(6) 0.6528(4) 0.0512(6)
H160 H 0.5703 0.6164 0.0404
C245 C 0.4857(6) 0.6719(5) 0.0551(6)
H161 H 0.4671 0.6486 0.0470
C246 C 0.4516(4) 0.7252(5) 0.0710(5)
H162 H 0.4097 0.7382 0.0737
C247 C 0.2025(16) -0.0557(14) 0.7819(14)
H163 H 0.1704 -0.0500 0.7695
C248 C 0.2272(16) -0.0132(12) 0.7809(14)
H164 H 0.2120 0.0216 0.7679
C249 C 0.2740(16) -0.0215(11) 0.7991(13)
H165 H 0.2909 0.0076 0.7985
C250 C 0.2246(17) -0.1065(12) 0.8011(15)
C251 C 0.2715(16) -0.1148(11) 0.8193(14)
C252 C 0.2962(14) -0.0723(13) 0.8183(13)
H166 H 0.3282 -0.0780 0.8307
H167 H 0.2866 -0.1495 0.8323
H168 H 0.2077 -0.1355 0.8017
C253 C 0.0621(10) 0.2971(10) 0.9115(8)
H169 H 0.0266 0.2875 0.9361
C254 C 0.1210(13) 0.2697(8) 0.9106(8)
H170 H 0.1259 0.2413 0.9345
C255 C 0.1729(9) 0.2837(9) 0.8747(10)
H171 H 0.2131 0.2649 0.8740
C256 C 0.1658(10) 0.3251(10) 0.8397(8)
C257 C 0.0550(9) 0.3386(9) 0.8766(10)
C258 C 0.1068(13) 0.3526(8) 0.8407(8)
H172 H 0.2012 0.3347 0.8152
H173 H 0.0147 0.3573 0.8772
H174 H 0.1020 0.3809 0.8168
C259 C 0.3432(16) 0.1875(17) 0.7074(17)
H175 H 0.3818 0.1955 0.6977
C260 C 0.3399(16) 0.1441(16) 0.6851(15)
H176 H 0.3762 0.1224 0.6600
C261 C 0.283(2) 0.1324(13) 0.6993(15)
H177 H 0.2811 0.1027 0.6840
C262 C 0.2302(15) 0.1640(16) 0.7359(15)
C263 C 0.290(2) 0.2192(13) 0.7440(15)
C264 C 0.2334(16) 0.2075(15) 0.7583(13)
H178 H 0.2922 0.2489 0.7593
H179 H 0.1915 0.1560 0.7456
H180 H 0.1971 0.2291 0.7833
P1 P 0.78063(10) 0.37834(8) 0.27394(9)
F1 F 0.7766(3) 0.3524(2) 0.32801(18)
F2 F 0.8490(2) 0.33850(17) 0.24844(19)
F3 F 0.7515(2) 0.33291(17) 0.26475(18)
F4 F 0.7111(2) 0.41830(19) 0.29912(18)
F5 F 0.7843(2) 0.40298(17) 0.21910(18)
F6 F 0.8075(3) 0.42419(19) 0.2821(2)
P2 P 0.48548(16) 0.57945(10) 0.33670(10)
F7 F 0.5203(7) 0.5581(5) 0.3711(5)
F8 F 0.5182(6) 0.5318(5) 0.2979(5)
F9 F 0.4378(6) 0.5989(5) 0.3081(5)
F10 F 0.4376(6) 0.6269(5) 0.3773(5)
F11 F 0.4415(6) 0.5395(4) 0.3707(5)
F12 F 0.5263(5) 0.6183(4) 0.3004(5)
P3 P 0.32475(14) 0.57431(10) 0.13804(14)
F13 F 0.2770(7) 0.6313(4) 0.1663(5)
F14 F 0.3632(4) 0.5964(3) 0.0852(3)
F15 F 0.3788(4) 0.5681(3) 0.1563(3)
F16 F 0.2908(3) 0.5512(3) 0.1898(3)
F17 F 0.2733(3) 0.5766(3) 0.1186(3)
F18 F 0.3581(3) 0.5153(2) 0.1160(3)
P4 P 0.23969(13) 0.46031(9) 0.00033(12)
F19 F 0.2451(3) 0.5055(2) -0.0429(3)
F20 F 0.1677(4) 0.4785(4) 0.0325(5)
F21 F 0.2469(6) 0.4165(3) 0.0460(3)
F22 F 0.2426(4) 0.4184(2) -0.0365(3)
F23 F 0.3144(3) 0.4408(2) -0.0216(3)
F24 F 0.2421(3) 0.5038(2) 0.0337(3)
P5 P 0.9007(5) 0.2289(3) 0.4001(3)
F25 F 0.8839(10) 0.2916(9) 0.4215(8)
F26 F 0.8737(4) 0.2501(4) 0.3647(4)
F27 F 0.8251(11) 0.2234(9) 0.4502(9)
F28 F 0.9138(8) 0.1650(9) 0.3866(7)
F29 F 0.9736(12) 0.2305(10) 0.3608(10)
F30 F 0.9232(14) 0.1910(14) 0.4433(9)
P6 P 0.2942(3) 0.07598(18) 0.2230(2)
F31 F 0.3169(4) 0.1254(3) 0.2298(4)
F32 F 0.2213(5) 0.1145(4) 0.2590(5)
F33 F 0.2871(5) 0.1041(4) 0.1718(4)
F34 F 0.2623(4) 0.0297(3) 0.2249(4)
F35 F 0.2978(6) 0.0512(4) 0.2768(4)
F36 F 0.3600(5) 0.0416(5) 0.1932(5)
P7 P 0.9302(3) 0.3545(3) 0.4769(3)
F37 F 0.8933(12) 0.3822(10) 0.5276(7)
F38 F 0.9330(12) 0.2992(8) 0.5018(9)
F39 F 0.9886(9) 0.3408(9) 0.4880(9)
F40 F 0.8699(7) 0.3765(7) 0.4685(7)
F41 F 0.9387(12) 0.4077(8) 0.4516(8)
F42 F 0.9666(13) 0.3274(9) 0.4249(7)
P8 P 0.6583(4) -0.3306(4) 0.6302(4)
F43 F 0.6174(7) -0.3034(5) 0.5945(5)
F44 F 0.6168(13) -0.3712(11) 0.6623(11)
F45 F 0.6986(12) -0.3558(10) 0.6696(10)
F46 F 0.7032(14) -0.3813(12) 0.5935(11)
F47 F 0.7153(15) -0.3100(12) 0.6009(12)
F48 F 0.6309(16) -0.2712(12) 0.6651(14)
N25 N 0.2666(11) 0.4124(9) 0.7365(8)
C265 C 0.2207(13) 0.4281(10) 0.7322(10)
C266 C 0.1717(14) 0.4516(12) 0.7157(12)
H181 H 0.1879 0.4667 0.6814
H182 H 0.1408 0.4809 0.7391
H183 H 0.1521 0.4237 0.7151
loop_
_geom_bond_atom_site_label_1
_geom_bond_atom_site_label_2
_geom_bond_site_symmetry_1
_geom_bond_site_symmetry_2
Fe1 N1 1_555 1_555
Fe2 N7 1_555 1_555
Fe3 N3 1_555 1_555
Fe4 N11 1_555 1_555
N1 C1 1_555 1_555
N2 Fe1 1_555 1_555
N3 C32 1_555 1_555
N4 Fe3 1_555 1_555
N5 Fe1 1_555 1_555
N6 Fe1 1_555 1_555
N7 C72 1_555 1_555
N8 Fe2 1_555 1_555
N9 Fe1 1_555 1_555
N10 Fe1 1_555 1_555
N11 C112 1_555 1_555
N12 Fe4 1_555 1_555
N13 Fe2 1_555 1_555
N14 Fe2 1_555 1_555
N15 Fe4 1_555 1_555
N16 Fe4 1_555 1_555
N17 Fe2 1_555 1_555
N18 Fe2 1_555 1_555
N19 Fe3 1_555 1_555
N20 Fe3 1_555 1_555
N21 Fe3 1_555 1_555
N22 Fe3 1_555 1_555
N23 Fe4 1_555 1_555
N24 Fe4 1_555 1_555
C1 H1 1_555 1_555
C2 C1 1_555 1_555
H2 C2 1_555 1_555
C3 C2 1_555 1_555
H3 C3 1_555 1_555
C4 C3 1_555 1_555
H4 C4 1_555 1_555
C5 N1 1_555 1_555
C6 N2 1_555 1_555
H5 C6 1_555 1_555
C7 N2 1_555 1_555
C8 C7 1_555 1_555
H6 C8 1_555 1_555
C9 C8 1_555 1_555
H7 C9 1_555 1_555
C10 C9 1_555 1_555
C11 C10 1_555 1_555
H8 C11 1_555 1_555
C12 C7 1_555 1_555
H9 C12 1_555 1_555
C13 C10 1_555 1_555
C14 C13 1_555 1_555
H10 C14 1_555 1_555
C15 C14 1_555 1_555
C16 C15 1_555 1_555
C17 C16 1_555 1_555
C18 C13 1_555 1_555
H11 C18 1_555 1_555
C19 C17 1_555 1_555
H12 C19 1_555 1_555
C20 C19 1_555 1_555
H13 C20 1_555 1_555
C21 C15 1_555 1_555
H14 C21 1_555 1_555
C22 C21 1_555 1_555
H15 C22 1_555 1_555
C23 C16 1_555 1_555
C24 C22 1_555 1_555
C25 C24 1_555 1_555
H16 C25 1_555 1_555
C26 C25 1_555 1_555
C27 C26 1_555 1_555
H17 C27 1_555 1_555
C28 C20 1_555 1_555
C29 C26 1_555 1_555
C30 C29 1_555 1_555
H18 C30 1_555 1_555
C31 C30 1_555 1_555
H19 C31 1_555 1_555
C32 C31 1_555 1_555
C33 C32 1_555 1_555
H20 C33 1_555 1_555
C34 C29 1_555 1_555
H21 C34 1_555 1_555
C35 N3 1_555 1_555
H22 C35 1_555 1_555
C36 N4 1_555 1_555
C37 C36 1_555 1_555
H23 C37 1_555 1_555
C38 C37 1_555 1_555
H24 C38 1_555 1_555
C39 C38 1_555 1_555
H25 C39 1_555 1_555
C40 N4 1_555 1_555
H26 C40 1_555 1_555
C41 N5 1_555 1_555
H27 C41 1_555 1_555
C42 C41 1_555 1_555
H28 C42 1_555 1_555
C43 C42 1_555 1_555
H29 C43 1_555 1_555
C44 C43 1_555 1_555
H30 C44 1_555 1_555
C45 N5 1_555 1_555
C46 N6 1_555 1_555
H31 C46 1_555 1_555
C47 N6 1_555 1_555
C48 C47 1_555 1_555
H32 C48 1_555 1_555
C49 C48 1_555 1_555
H33 C49 1_555 1_555
C50 C49 1_555 1_555
C51 C50 1_555 1_555
H34 C51 1_555 1_555
C52 C47 1_555 1_555
H35 C52 1_555 1_555
C53 C50 1_555 1_555
C54 C53 1_555 1_555
H36 C54 1_555 1_555
C55 C54 1_555 1_555
C56 C55 1_555 1_555
C57 C56 1_555 1_555
C58 C53 1_555 1_555
H37 C58 1_555 1_555
C59 C55 1_555 1_555
H38 C59 1_555 1_555
C60 C59 1_555 1_555
H39 C60 1_555 1_555
C61 C57 1_555 1_555
H40 C61 1_555 1_555
C62 C61 1_555 1_555
H41 C62 1_555 1_555
C63 C56 1_555 1_555
C64 C60 1_555 1_555
C65 C64 1_555 1_555
H42 C65 1_555 1_555
C66 C65 1_555 1_555
C67 C66 1_555 1_555
H43 C67 1_555 1_555
C68 C62 1_555 1_555
C69 C66 1_555 1_555
C70 C69 1_555 1_555
H44 C70 1_555 1_555
C71 C70 1_555 1_555
H45 C71 1_555 1_555
C72 C71 1_555 1_555
C73 C72 1_555 1_555
H46 C73 1_555 1_555
C74 C69 1_555 1_555
H47 C74 1_555 1_555
C75 N7 1_555 1_555
H48 C75 1_555 1_555
C76 N8 1_555 1_555
C77 C76 1_555 1_555
H49 C77 1_555 1_555
C78 C77 1_555 1_555
H50 C78 1_555 1_555
C79 C78 1_555 1_555
H51 C79 1_555 1_555
C80 N8 1_555 1_555
H52 C80 1_555 1_555
C81 N9 1_555 1_555
H53 C81 1_555 1_555
C82 C81 1_555 1_555
H54 C82 1_555 1_555
C83 C82 1_555 1_555
H55 C83 1_555 1_555
C84 C83 1_555 1_555
H56 C84 1_555 1_555
C85 N9 1_555 1_555
C86 N10 1_555 1_555
H57 C86 1_555 1_555
C87 N10 1_555 1_555
C88 C87 1_555 1_555
H58 C88 1_555 1_555
C89 C88 1_555 1_555
H59 C89 1_555 1_555
C90 C89 1_555 1_555
C91 C90 1_555 1_555
H60 C91 1_555 1_555
C92 C87 1_555 1_555
H61 C92 1_555 1_555
C93 C90 1_555 1_555
C94 C93 1_555 1_555
H62 C94 1_555 1_555
C95 C94 1_555 1_555
C96 C95 1_555 1_555
C97 C96 1_555 1_555
C98 C93 1_555 1_555
H63 C98 1_555 1_555
C99 C97 1_555 1_555
H64 C99 1_555 1_555
C100 C99 1_555 1_555
H65 C100 1_555 1_555
C101 C95 1_555 1_555
H66 C101 1_555 1_555
C102 C101 1_555 1_555
H67 C102 1_555 1_555
C103 C96 1_555 1_555
C104 C100 1_555 1_555
C105 C104 1_555 1_555
H68 C105 1_555 1_555
C106 C105 1_555 1_555
C107 C106 1_555 1_555
H69 C107 1_555 1_555
C108 C102 1_555 1_555
C109 C106 1_555 1_555
C110 C109 1_555 1_555
H70 C110 1_555 1_555
C111 C110 1_555 1_555
H71 C111 1_555 1_555
C112 C111 1_555 1_555
C113 C112 1_555 1_555
H72 C113 1_555 1_555
C114 C109 1_555 1_555
H73 C114 1_555 1_555
C115 N11 1_555 1_555
H74 C115 1_555 1_555
C116 N12 1_555 1_555
C117 C116 1_555 1_555
H75 C117 1_555 1_555
C118 C117 1_555 1_555
H76 C118 1_555 1_555
C119 C118 1_555 1_555
H77 C119 1_555 1_555
C120 N12 1_555 1_555
H78 C120 1_555 1_555
C121 N13 1_555 1_555
H79 C121 1_555 1_555
C122 C121 1_555 1_555
H80 C122 1_555 1_555
C123 C122 1_555 1_555
H81 C123 1_555 1_555
C124 C123 1_555 1_555
H82 C124 1_555 1_555
C125 N13 1_555 1_555
C126 N14 1_555 1_555
H83 C126 1_555 1_555
C127 N14 1_555 1_555
C128 C127 1_555 1_555
H84 C128 1_555 1_555
C129 C128 1_555 1_555
H85 C129 1_555 1_555
C130 C129 1_555 1_555
C131 C130 1_555 1_555
H86 C131 1_555 1_555
C132 C127 1_555 1_555
H87 C132 1_555 1_555
C133 C130 1_555 1_555
C134 C133 1_555 1_555
H88 C134 1_555 1_555
C135 C134 1_555 1_555
C136 C135 1_555 1_555
C137 C136 1_555 1_555
C138 C133 1_555 1_555
H89 C138 1_555 1_555
C139 C137 1_555 1_555
H90 C139 1_555 1_555
C140 C139 1_555 1_555
H91 C140 1_555 1_555
C141 C135 1_555 1_555
H92 C141 1_555 1_555
C142 C141 1_555 1_555
H93 C142 1_555 1_555
C143 C140 1_555 1_555
C144 C136 1_555 1_555
C145 C142 1_555 1_555
C146 C145 1_555 1_555
H94 C146 1_555 1_555
C147 C146 1_555 1_555
C148 C143 1_555 1_555
H95 C148 1_555 1_555
C149 C147 1_555 1_555
C150 C149 1_555 1_555
H96 C150 1_555 1_555
C151 C150 1_555 1_555
H97 C151 1_555 1_555
C152 N15 1_555 1_555
C153 C152 1_555 1_555
H98 C153 1_555 1_555
C154 C149 1_555 1_555
H99 C154 1_555 1_555
C155 N15 1_555 1_555
H100 C155 1_555 1_555
C156 N16 1_555 1_555
C157 C156 1_555 1_555
H101 C157 1_555 1_555
C158 C157 1_555 1_555
H102 C158 1_555 1_555
C159 C158 1_555 1_555
H103 C159 1_555 1_555
C160 N16 1_555 1_555
H104 C160 1_555 1_555
C161 N17 1_555 1_555
H105 C161 1_555 1_555
C162 C161 1_555 1_555
H106 C162 1_555 1_555
C163 C162 1_555 1_555
H107 C163 1_555 1_555
C164 C163 1_555 1_555
H108 C164 1_555 1_555
C165 N17 1_555 1_555
C166 N18 1_555 1_555
H109 C166 1_555 1_555
C167 N18 1_555 1_555
C168 C167 1_555 1_555
H110 C168 1_555 1_555
C169 C168 1_555 1_555
H111 C169 1_555 1_555
C170 C169 1_555 1_555
C171 C170 1_555 1_555
H112 C171 1_555 1_555
C172 C167 1_555 1_555
H113 C172 1_555 1_555
C173 C170 1_555 1_555
C174 C173 1_555 1_555
H114 C174 1_555 1_555
C175 C174 1_555 1_555
C176 C175 1_555 1_555
C177 C176 1_555 1_555
C178 C173 1_555 1_555
H115 C178 1_555 1_555
C179 C177 1_555 1_555
H116 C179 1_555 1_555
C180 C179 1_555 1_555
H117 C180 1_555 1_555
C181 C175 1_555 1_555
H118 C181 1_555 1_555
C182 C181 1_555 1_555
H119 C182 1_555 1_555
C183 C176 1_555 1_555
C184 C182 1_555 1_555
C185 C184 1_555 1_555
H120 C185 1_555 1_555
C186 C185 1_555 1_555
C187 C186 1_555 1_555
H121 C187 1_555 1_555
C188 C180 1_555 1_555
C189 C186 1_555 1_555
C190 C189 1_555 1_555
H122 C190 1_555 1_555
C191 C190 1_555 1_555
H123 C191 1_555 1_555
C192 N19 1_555 1_555
C193 C192 1_555 1_555
H124 C193 1_555 1_555
C194 C189 1_555 1_555
H125 C194 1_555 1_555
C195 N19 1_555 1_555
H126 C195 1_555 1_555
C196 N20 1_555 1_555
C197 C196 1_555 1_555
H127 C197 1_555 1_555
C198 C197 1_555 1_555
H128 C198 1_555 1_555
C199 C198 1_555 1_555
H129 C199 1_555 1_555
C200 N20 1_555 1_555
H130 C200 1_555 1_555
C201 N21 1_555 1_555
H131 C201 1_555 1_555
C202 C201 1_555 1_555
H132 C202 1_555 1_555
C203 C202 1_555 1_555
H133 C203 1_555 1_555
C204 C203 1_555 1_555
H134 C204 1_555 1_555
C205 N21 1_555 1_555
C206 N22 1_555 1_555
H135 C206 1_555 1_555
C207 N22 1_555 1_555
C208 C207 1_555 1_555
H136 C208 1_555 1_555
C209 C208 1_555 1_555
H137 C209 1_555 1_555
C210 C209 1_555 1_555
C211 C210 1_555 1_555
H138 C211 1_555 1_555
C212 C207 1_555 1_555
H139 C212 1_555 1_555
C213 C210 1_555 1_555
C214 C213 1_555 1_555
H140 C214 1_555 1_555
C215 C214 1_555 1_555
C216 C215 1_555 1_555
C217 C216 1_555 1_555
C218 C213 1_555 1_555
H141 C218 1_555 1_555
C219 C215 1_555 1_555
H142 C219 1_555 1_555
C220 C219 1_555 1_555
H143 C220 1_555 1_555
C221 C217 1_555 1_555
H144 C221 1_555 1_555
C222 C221 1_555 1_555
H145 C222 1_555 1_555
C223 C216 1_555 1_555
C224 C222 1_555 1_555
C225 C224 1_555 1_555
H146 C225 1_555 1_555
C226 C225 1_555 1_555
C227 C226 1_555 1_555
H147 C227 1_555 1_555
C228 C220 1_555 1_555
C229 C226 1_555 1_555
C230 C229 1_555 1_555
H148 C230 1_555 1_555
C231 C230 1_555 1_555
H149 C231 1_555 1_555
C232 N23 1_555 1_555
C233 C232 1_555 1_555
H150 C233 1_555 1_555
C234 C229 1_555 1_555
H151 C234 1_555 1_555
C235 N23 1_555 1_555
H152 C235 1_555 1_555
C236 N24 1_555 1_555
C237 C236 1_555 1_555
H153 C237 1_555 1_555
C238 C237 1_555 1_555
H154 C238 1_555 1_555
C239 C238 1_555 1_555
H155 C239 1_555 1_555
C240 N24 1_555 1_555
H156 C240 1_555 1_555
C241 H157 1_555 1_555
C242 C241 1_555 1_555
H158 C242 1_555 1_555
C243 C242 1_555 1_555
H159 C243 1_555 1_555
C244 C243 1_555 1_555
H160 C244 1_555 1_555
C245 C244 1_555 1_555
H161 C245 1_555 1_555
C246 C241 1_555 1_555
H162 C246 1_555 1_555
C247 H163 1_555 1_555
C248 C247 1_555 1_555
H164 C248 1_555 1_555
C249 C248 1_555 1_555
H165 C249 1_555 1_555
C250 C247 1_555 1_555
C251 C250 1_555 1_555
C252 C249 1_555 1_555
H166 C252 1_555 1_555
H167 C251 1_555 1_555
H168 C250 1_555 1_555
C253 H169 1_555 1_555
C254 C253 1_555 1_555
H170 C254 1_555 1_555
C255 C254 1_555 1_555
H171 C255 1_555 1_555
C256 C255 1_555 1_555
C257 C253 1_555 1_555
C258 C256 1_555 1_555
H172 C256 1_555 1_555
H173 C257 1_555 1_555
H174 C258 1_555 1_555
C259 H175 1_555 1_555
C260 C259 1_555 1_555
H176 C260 1_555 1_555
C261 C260 1_555 1_555
H177 C261 1_555 1_555
C262 C261 1_555 1_555
C263 C259 1_555 1_555
C264 C262 1_555 1_555
H178 C263 1_555 1_555
H179 C262 1_555 1_555
H180 C264 1_555 1_555
P1 F1 1_555 1_555
F2 P1 1_555 1_555
F3 P1 1_555 1_555
F4 P1 1_555 1_555
F5 P1 1_555 1_555
F6 P1 1_555 1_555
P2 F7 1_555 1_555
F8 P2 1_555 1_555
F9 P2 1_555 1_555
F10 P2 1_555 1_555
F11 P2 1_555 1_555
F12 P2 1_555 1_555
P3 F13 1_555 1_555
F14 P3 1_555 1_555
F15 P3 1_555 1_555
F16 P3 1_555 1_555
F17 P3 1_555 1_555
F18 P3 1_555 1_555
P4 F19 1_555 1_555
F20 P4 1_555 1_555
F21 P4 1_555 1_555
F22 P4 1_555 1_555
F23 P4 1_555 1_555
F24 P4 1_555 1_555
P5 F25 1_555 1_555
F26 P5 1_555 1_555
F27 P5 1_555 1_555
F28 P5 1_555 1_555
F29 P5 1_555 1_555
F30 P5 1_555 1_555
P6 F31 1_555 1_555
F32 P6 1_555 1_555
F33 P6 1_555 1_555
F34 P6 1_555 1_555
F35 P6 1_555 1_555
F36 P6 1_555 1_555
P7 F37 1_555 1_555
F38 P7 1_555 1_555
F39 P7 1_555 1_555
F40 P7 1_555 1_555
F41 P7 1_555 1_555
F42 P7 1_555 1_555
P8 F43 1_555 1_555
F44 P8 1_555 1_555
F45 P8 1_555 1_555
F46 P8 1_555 1_555
F47 P8 1_555 1_555
F48 P8 1_555 1_555
N25 C265 1_555 1_555
C265 C266 1_555 1_555
C266 H181 1_555 1_555
H182 C266 1_555 1_555
H183 C266 1_555 1_555
C4 C5 1_555 1_555
C5 C6 1_555 1_555
C11 C12 1_555 1_555
C17 C18 1_555 1_555
C23 C24 1_555 1_555
C23 C28 1_555 1_555
C27 C28 1_555 1_555
C33 C34 1_555 1_555
C35 C36 1_555 1_555
C39 C40 1_555 1_555
C44 C45 1_555 1_555
C45 C46 1_555 1_555
C51 C52 1_555 1_555
C57 C58 1_555 1_555
C63 C64 1_555 1_555
C63 C68 1_555 1_555
C67 C68 1_555 1_555
C73 C74 1_555 1_555
C75 C76 1_555 1_555
C79 C80 1_555 1_555
C84 C85 1_555 1_555
C85 C86 1_555 1_555
C91 C92 1_555 1_555
C97 C98 1_555 1_555
C103 C104 1_555 1_555
C103 C108 1_555 1_555
C107 C108 1_555 1_555
C113 C114 1_555 1_555
C115 C116 1_555 1_555
C119 C120 1_555 1_555
C124 C125 1_555 1_555
C125 C126 1_555 1_555
C131 C132 1_555 1_555
C137 C138 1_555 1_555
C143 C144 1_555 1_555
C144 C145 1_555 1_555
C147 C148 1_555 1_555
C151 C152 1_555 1_555
C153 C154 1_555 1_555
C155 C156 1_555 1_555
C159 C160 1_555 1_555
C164 C165 1_555 1_555
C165 C166 1_555 1_555
C171 C172 1_555 1_555
C177 C178 1_555 1_555
C183 C184 1_555 1_555
C183 C188 1_555 1_555
C187 C188 1_555 1_555
C191 C192 1_555 1_555
C193 C194 1_555 1_555
C195 C196 1_555 1_555
C199 C200 1_555 1_555
C204 C205 1_555 1_555
C205 C206 1_555 1_555
C211 C212 1_555 1_555
C217 C218 1_555 1_555
C223 C224 1_555 1_555
C223 C228 1_555 1_555
C227 C228 1_555 1_555
C231 C232 1_555 1_555
C233 C234 1_555 1_555
C235 C236 1_555 1_555
C239 C240 1_555 1_555
C245 C246 1_555 1_555
C251 C252 1_555 1_555
C257 C258 1_555 1_555
C263 C264 1_555 1_555

#END
