# generated using pymatgen
data_Fe4P10H209C300N25F76
_symmetry_space_group_name_H-M   'P 1'
_cell_length_a   24.43450000
_cell_length_b   25.67310000
_cell_length_c   28.66110000
_cell_angle_alpha   82.92200000
_cell_angle_beta   66.36600000
_cell_angle_gamma   72.44900000
_symmetry_Int_Tables_number   1
_chemical_formula_structural   Fe4P10H209C300N25F76
_chemical_formula_sum   'Fe8 P20 H418 C600 N50 F152'
_cell_volume   15704.54066127
_cell_formula_units_Z   2
loop_
 _symmetry_equiv_pos_site_id
 _symmetry_equiv_pos_as_xyz
  1  'x, y, z'
loop_
 _atom_site_type_symbol
 _atom_site_label
 _atom_site_symmetry_multiplicity
 _atom_site_fract_x
 _atom_site_fract_y
 _atom_site_fract_z
 _atom_site_occupancy
  Fe  Fe1  1  0.609010  0.282910  0.453960  1
  Fe  Fe2  1  0.390990  0.717090  0.546040  1
  Fe  Fe3  1  0.413450  0.585910  0.849770  1
  Fe  Fe4  1  0.586550  0.414090  0.150230  1
  Fe  Fe5  1  0.722220  0.216940  0.716390  1
  Fe  Fe6  1  0.277780  0.783060  0.283610  1
  Fe  Fe7  1  0.102490  0.326460  0.222280  1
  Fe  Fe8  1  0.897510  0.673540  0.777720  1
  P  P9  1  0.780630  0.378340  0.273940  1
  P  P10  1  0.219370  0.621660  0.726060  1
  P  P11  1  0.485480  0.579450  0.336700  1
  P  P12  1  0.514520  0.420550  0.663300  1
  P  P13  1  0.324750  0.574310  0.138040  1
  P  P14  1  0.675250  0.425690  0.861960  1
  P  P15  1  0.239690  0.460310  0.000330  1
  P  P16  1  0.760310  0.539690  0.999670  1
  P  P17  1  0.900700  0.228900  0.400100  1
  P  P18  1  0.099300  0.771100  0.599900  1
  P  P19  1  0.294200  0.075980  0.223000  1
  P  P20  1  0.705800  0.924020  0.777000  1
  P  P21  1  0.930200  0.354500  0.476900  1
  P  P22  1  0.069800  0.645500  0.523100  1
  P  P23  1  0.658300  0.669400  0.630200  1
  P  P24  1  0.341700  0.330600  0.369800  1
  P  P25  1  0.643900  0.711200  0.741200  1
  P  P26  1  0.356100  0.288800  0.258800  1
  P  P27  1  0.814300  0.100700  0.534300  1
  P  P28  1  0.185700  0.899300  0.465700  1
  H  H29  1  0.745900  0.290500  0.415300  1
  H  H30  1  0.254100  0.709500  0.584700  1
  H  H31  1  0.789000  0.356400  0.424500  1
  H  H32  1  0.211000  0.643600  0.575500  1
  H  H33  1  0.731600  0.426400  0.479800  1
  H  H34  1  0.268400  0.573600  0.520200  1
  H  H35  1  0.623100  0.440400  0.522800  1
  H  H36  1  0.376900  0.559600  0.477200  1
  H  H37  1  0.531000  0.402000  0.540100  1
  H  H38  1  0.469000  0.598000  0.459900  1
  H  H39  1  0.453000  0.392600  0.480000  1
  H  H40  1  0.547000  0.607400  0.520000  1
  H  H41  1  0.349200  0.395200  0.512100  1
  H  H42  1  0.650800  0.604800  0.487900  1
  H  H43  1  0.377100  0.283900  0.616200  1
  H  H44  1  0.622900  0.716100  0.383800  1
  H  H45  1  0.480900  0.283300  0.585600  1
  H  H46  1  0.519100  0.716700  0.414400  1
  H  H47  1  0.267000  0.331600  0.659400  1
  H  H48  1  0.733000  0.668400  0.340600  1
  H  H49  1  0.288000  0.337300  0.511400  1
  H  H50  1  0.712000  0.662700  0.488600  1
  H  H51  1  0.193100  0.341500  0.487300  1
  H  H52  1  0.806900  0.658500  0.512700  1
  H  H53  1  0.091500  0.338900  0.517500  1
  H  H54  1  0.908500  0.661100  0.482500  1
  H  H55  1  0.168800  0.331800  0.728200  1
  H  H56  1  0.831200  0.668200  0.271800  1
  H  H57  1  0.069600  0.317100  0.754400  1
  H  H58  1  0.930400  0.682900  0.245600  1
  H  H59  1  0.985100  0.313800  0.734600  1
  H  H60  1  0.014900  0.686200  0.265400  1
  H  H61  1  0.999400  0.312200  0.588900  1
  H  H62  1  0.000600  0.687800  0.411100  1
  H  H63  1  0.920300  0.263600  0.748700  1
  H  H64  1  0.079700  0.736400  0.251300  1
  H  H65  1  0.817900  0.257300  0.778100  1
  H  H66  1  0.182100  0.742700  0.221900  1
  H  H67  1  0.802300  0.329600  0.651000  1
  H  H68  1  0.197700  0.670400  0.349000  1
  H  H69  1  0.902200  0.334800  0.620300  1
  H  H70  1  0.097800  0.665200  0.379700  1
  H  H71  1  0.701900  0.355200  0.756500  1
  H  H72  1  0.298100  0.644800  0.243500  1
  H  H73  1  0.578600  0.387000  0.803500  1
  H  H74  1  0.421400  0.613000  0.196500  1
  H  H75  1  0.485800  0.367100  0.822500  1
  H  H76  1  0.514200  0.632900  0.177500  1
  H  H77  1  0.489500  0.278600  0.799200  1
  H  H78  1  0.510500  0.721400  0.200800  1
  H  H79  1  0.583700  0.222300  0.751900  1
  H  H80  1  0.416300  0.777700  0.248100  1
  H  H81  1  0.634600  0.388900  0.390400  1
  H  H82  1  0.365400  0.611100  0.609600  1
  H  H83  1  0.583400  0.452400  0.348400  1
  H  H84  1  0.416600  0.547600  0.651600  1
  H  H85  1  0.499100  0.442100  0.336600  1
  H  H86  1  0.500900  0.557900  0.663400  1
  H  H87  1  0.469900  0.360100  0.365900  1
  H  H88  1  0.530100  0.639900  0.634100  1
  H  H89  1  0.489200  0.267600  0.413100  1
  H  H90  1  0.510800  0.732400  0.586900  1
  H  H91  1  0.620000  0.149300  0.427900  1
  H  H92  1  0.380000  0.850700  0.572100  1
  H  H93  1  0.595600  0.068300  0.467900  1
  H  H94  1  0.404400  0.931700  0.532100  1
  H  H95  1  0.419000  0.156300  0.548300  1
  H  H96  1  0.581000  0.843700  0.451700  1
  H  H97  1  0.445700  0.237600  0.508300  1
  H  H98  1  0.554300  0.762400  0.491700  1
  H  H99  1  0.398900  0.080700  0.566200  1
  H  H100  1  0.601100  0.919300  0.433800  1
  H  H101  1  0.582100  0.012900  0.529800  1
  H  H102  1  0.417900  0.987100  0.470200  1
  H  H103  1  0.324700  0.028600  0.618300  1
  H  H104  1  0.675300  0.971400  0.381700  1
  H  H105  1  0.301000  0.954700  0.668200  1
  H  H106  1  0.699000  0.045300  0.331800  1
  H  H107  1  0.621800  0.915700  0.555600  1
  H  H108  1  0.378200  0.084300  0.444400  1
  H  H109  1  0.601500  0.840600  0.600500  1
  H  H110  1  0.398500  0.159400  0.399500  1
  H  H111  1  0.341700  0.861700  0.701700  1
  H  H112  1  0.658300  0.138300  0.298300  1
  H  H113  1  0.526200  0.791500  0.659400  1
  H  H114  1  0.473800  0.208500  0.340600  1
  H  H115  1  0.325600  0.791000  0.741900  1
  H  H116  1  0.674400  0.209000  0.258100  1
  H  H117  1  0.308200  0.711400  0.783000  1
  H  H118  1  0.691800  0.288600  0.217000  1
  H  H119  1  0.493400  0.646400  0.743800  1
  H  H120  1  0.506600  0.353600  0.256200  1
  H  H121  1  0.509500  0.729800  0.702200  1
  H  H122  1  0.490500  0.270200  0.297800  1
  H  H123  1  0.355700  0.606300  0.746600  1
  H  H124  1  0.644300  0.393700  0.253400  1
  H  H125  1  0.320000  0.517000  0.758900  1
  H  H126  1  0.680000  0.483000  0.241100  1
  H  H127  1  0.312100  0.434200  0.804700  1
  H  H128  1  0.687900  0.565800  0.195300  1
  H  H129  1  0.351900  0.412000  0.868200  1
  H  H130  1  0.648100  0.588000  0.131800  1
  H  H131  1  0.393400  0.472600  0.887500  1
  H  H132  1  0.606600  0.527400  0.112500  1
  H  H133  1  0.681900  0.274700  0.337700  1
  H  H134  1  0.318100  0.725300  0.662300  1
  H  H135  1  0.768100  0.213800  0.283600  1
  H  H136  1  0.231900  0.786200  0.716400  1
  H  H137  1  0.820000  0.133900  0.316600  1
  H  H138  1  0.180000  0.866100  0.683400  1
  H  H139  1  0.782800  0.121700  0.404800  1
  H  H140  1  0.217200  0.878300  0.595200  1
  H  H141  1  0.701200  0.154800  0.493500  1
  H  H142  1  0.298800  0.845200  0.506500  1
  H  H143  1  0.584800  0.145900  0.547800  1
  H  H144  1  0.415200  0.854100  0.452200  1
  H  H145  1  0.524700  0.140000  0.633600  1
  H  H146  1  0.475300  0.860000  0.366400  1
  H  H147  1  0.552300  0.279400  0.659900  1
  H  H148  1  0.447700  0.720600  0.340100  1
  H  H149  1  0.613600  0.285100  0.573900  1
  H  H150  1  0.386400  0.714900  0.426100  1
  H  H151  1  0.516900  0.132400  0.727500  1
  H  H152  1  0.483100  0.867600  0.272500  1
  H  H153  1  0.435600  0.291400  0.708500  1
  H  H154  1  0.564400  0.708600  0.291500  1
  H  H155  1  0.343500  0.343100  0.779500  1
  H  H156  1  0.656500  0.656900  0.220500  1
  H  H157  1  0.284500  0.351900  0.863900  1
  H  H158  1  0.715500  0.648100  0.136100  1
  H  H159  1  0.479500  0.087500  0.812900  1
  H  H160  1  0.520500  0.912500  0.187100  1
  H  H161  1  0.416500  0.094800  0.895200  1
  H  H162  1  0.583500  0.905200  0.104800  1
  H  H163  1  0.258200  0.311200  0.952900  1
  H  H164  1  0.741800  0.688800  0.047100  1
  H  H165  1  0.338300  0.153700  0.972500  1
  H  H166  1  0.661700  0.846300  0.027500  1
  H  H167  1  0.247300  0.170100  0.048500  1
  H  H168  1  0.752700  0.829900  0.951500  1
  H  H169  1  0.201300  0.184300  0.134100  1
  H  H170  1  0.798700  0.815700  0.865900  1
  H  H171  1  0.235600  0.332500  0.112400  1
  H  H172  1  0.764400  0.667500  0.887600  1
  H  H173  1  0.281300  0.316600  0.025100  1
  H  H174  1  0.718700  0.683400  0.974900  1
  H  H175  1  0.247000  0.216500  0.200700  1
  H  H176  1  0.753000  0.783500  0.799300  1
  H  H177  1  0.237000  0.195600  0.294700  1
  H  H178  1  0.763000  0.804400  0.705300  1
  H  H179  1  0.179200  0.220100  0.381900  1
  H  H180  1  0.820800  0.779900  0.618100  1
  H  H181  1  0.085600  0.283300  0.403500  1
  H  H182  1  0.914400  0.716700  0.596500  1
  H  H183  1  0.048300  0.330800  0.342300  1
  H  H184  1  0.951700  0.669200  0.657700  1
  H  H185  1  0.497200  0.492500  0.771800  1
  H  H186  1  0.502800  0.507500  0.228200  1
  H  H187  1  0.601200  0.464100  0.721800  1
  H  H188  1  0.398800  0.535900  0.278200  1
  H  H189  1  0.670900  0.509600  0.722800  1
  H  H190  1  0.329100  0.490400  0.277200  1
  H  H191  1  0.629700  0.584900  0.777400  1
  H  H192  1  0.370300  0.415100  0.222600  1
  H  H193  1  0.531300  0.654100  0.839800  1
  H  H194  1  0.468700  0.345900  0.160200  1
  H  H195  1  0.412500  0.742900  0.830800  1
  H  H196  1  0.587500  0.257100  0.169200  1
  H  H197  1  0.355200  0.820200  0.882300  1
  H  H198  1  0.644800  0.179800  0.117700  1
  H  H199  1  0.357700  0.730400  0.007500  1
  H  H200  1  0.642300  0.269600  0.992500  1
  H  H201  1  0.411400  0.651500  0.956400  1
  H  H202  1  0.588600  0.348500  0.043600  1
  H  H203  1  0.243700  0.854900  0.957200  1
  H  H204  1  0.756300  0.145100  0.042800  1
  H  H205  1  0.371800  0.824800  0.019700  1
  H  H206  1  0.628200  0.175200  0.980300  1
  H  H207  1  0.365100  0.890200  0.080300  1
  H  H208  1  0.634900  0.109800  0.919700  1
  H  H209  1  0.310600  0.969500  0.127000  1
  H  H210  1  0.689400  0.030500  0.873000  1
  H  H211  1  0.148200  0.936600  0.987300  1
  H  H212  1  0.851800  0.063400  0.012700  1
  H  H213  1  0.095800  0.011400  0.035400  1
  H  H214  1  0.904200  0.988600  0.964600  1
  H  H215  1  0.085100  0.077100  0.099500  1
  H  H216  1  0.914900  0.922900  0.900500  1
  H  H217  1  0.222100  0.050600  0.153800  1
  H  H218  1  0.777900  0.949400  0.846200  1
  H  H219  1  0.072500  0.162800  0.115600  1
  H  H220  1  0.927500  0.837200  0.884400  1
  H  H221  1  0.029800  0.248100  0.156400  1
  H  H222  1  0.970200  0.751900  0.843600  1
  H  H223  1  0.108400  0.183900  0.258700  1
  H  H224  1  0.891600  0.816100  0.741300  1
  H  H225  1  0.146200  0.100300  0.219500  1
  H  H226  1  0.853800  0.899700  0.780500  1
  H  H227  1  0.964200  0.275100  0.269700  1
  H  H228  1  0.035800  0.724900  0.730300  1
  H  H229  1  0.882200  0.358100  0.327800  1
  H  H230  1  0.117800  0.641900  0.672200  1
  H  H231  1  0.864800  0.440600  0.363100  1
  H  H232  1  0.135200  0.559400  0.636900  1
  H  H233  1  0.946600  0.485200  0.329100  1
  H  H234  1  0.053400  0.514800  0.670900  1
  H  H235  1  0.042300  0.441500  0.273200  1
  H  H236  1  0.957700  0.558500  0.726800  1
  H  H237  1  0.515200  0.504100  0.883000  1
  H  H238  1  0.484800  0.495900  0.117000  1
  H  H239  1  0.516700  0.455200  0.953900  1
  H  H240  1  0.483300  0.544800  0.046100  1
  H  H241  1  0.427400  0.470300  0.028100  1
  H  H242  1  0.572600  0.529700  0.971900  1
  H  H243  1  0.335100  0.535200  0.027000  1
  H  H244  1  0.664900  0.464800  0.973000  1
  H  H245  1  0.282600  0.604600  0.974600  1
  H  H246  1  0.717400  0.395400  0.025400  1
  H  H247  1  0.283900  0.719300  0.928800  1
  H  H248  1  0.716100  0.280700  0.071200  1
  H  H249  1  0.212400  0.788100  0.906400  1
  H  H250  1  0.787600  0.211900  0.093600  1
  H  H251  1  0.175200  0.677000  0.845700  1
  H  H252  1  0.824800  0.323000  0.154300  1
  H  H253  1  0.250800  0.609400  0.862900  1
  H  H254  1  0.749200  0.390600  0.137100  1
  H  H255  1  0.125800  0.843900  0.905100  1
  H  H256  1  0.874200  0.156100  0.094900  1
  H  H257  1  0.148300  0.742300  0.797200  1
  H  H258  1  0.851700  0.257700  0.202800  1
  H  H259  1  0.102500  0.776500  0.732300  1
  H  H260  1  0.897500  0.223500  0.267700  1
  H  H261  1  0.038300  0.845100  0.702600  1
  H  H262  1  0.961700  0.154900  0.297400  1
  H  H263  1  0.062200  0.940600  0.908900  1
  H  H264  1  0.937800  0.059400  0.091100  1
  H  H265  1  0.007300  0.011300  0.873300  1
  H  H266  1  0.992700  0.988700  0.126700  1
  H  H267  1  0.955300  0.044900  0.810500  1
  H  H268  1  0.044700  0.955100  0.189500  1
  H  H269  1  0.972200  0.939200  0.708400  1
  H  H270  1  0.027800  0.060800  0.291600  1
  H  H271  1  0.964500  0.101500  0.731400  1
  H  H272  1  0.035500  0.898500  0.268600  1
  H  H273  1  0.906600  0.172400  0.695400  1
  H  H274  1  0.093400  0.827600  0.304600  1
  H  H275  1  0.804200  0.073000  0.697900  1
  H  H276  1  0.195800  0.927000  0.302100  1
  H  H277  1  0.865100  0.001100  0.731800  1
  H  H278  1  0.134900  0.998900  0.268200  1
  H  H279  1  0.872100  0.170700  0.609600  1
  H  H280  1  0.127900  0.829300  0.390400  1
  H  H281  1  0.853000  0.245700  0.544300  1
  H  H282  1  0.147000  0.754300  0.455700  1
  H  H283  1  0.781300  0.314600  0.519500  1
  H  H284  1  0.218700  0.685400  0.480500  1
  H  H285  1  0.682000  0.350900  0.581600  1
  H  H286  1  0.318000  0.649100  0.418400  1
  H  H287  1  0.652700  0.308000  0.659000  1
  H  H288  1  0.347300  0.692000  0.341000  1
  H  H289  1  0.693000  0.171200  0.637700  1
  H  H290  1  0.307000  0.828800  0.362300  1
  H  H291  1  0.655000  0.099500  0.632900  1
  H  H292  1  0.345000  0.900500  0.367100  1
  H  H293  1  0.633200  0.039700  0.707100  1
  H  H294  1  0.366800  0.960300  0.292900  1
  H  H295  1  0.652500  0.056500  0.775900  1
  H  H296  1  0.347500  0.943500  0.224100  1
  H  H297  1  0.684100  0.117500  0.818900  1
  H  H298  1  0.315900  0.882500  0.181100  1
  H  H299  1  0.675900  0.262500  0.840600  1
  H  H300  1  0.324100  0.737500  0.159400  1
  H  H301  1  0.715000  0.280200  0.897500  1
  H  H302  1  0.285000  0.719800  0.102500  1
  H  H303  1  0.848700  0.137400  0.862000  1
  H  H304  1  0.151300  0.862600  0.138000  1
  H  H305  1  0.806600  0.115100  0.808700  1
  H  H306  1  0.193400  0.884900  0.191300  1
  H  H307  1  0.783900  0.309900  0.907300  1
  H  H308  1  0.216100  0.690100  0.092700  1
  H  H309  1  0.863400  0.153500  0.927300  1
  H  H310  1  0.136600  0.846500  0.072700  1
  H  H311  1  0.804400  0.384700  0.943700  1
  H  H312  1  0.195600  0.615300  0.056300  1
  H  H313  1  0.846200  0.410000  0.992900  1
  H  H314  1  0.153800  0.590000  0.007100  1
  H  H315  1  0.938200  0.126900  0.969000  1
  H  H316  1  0.061800  0.873100  0.031000  1
  H  H317  1  0.988100  0.150800  0.012200  1
  H  H318  1  0.011900  0.849200  0.987800  1
  H  H319  1  0.003700  0.224700  0.052000  1
  H  H320  1  0.996300  0.775300  0.948000  1
  H  H321  1  0.916100  0.381700  0.043000  1
  H  H322  1  0.083900  0.618300  0.957000  1
  H  H323  1  0.920400  0.361500  0.137600  1
  H  H324  1  0.079600  0.638500  0.862400  1
  H  H325  1  0.971200  0.382900  0.183800  1
  H  H326  1  0.028800  0.617100  0.816200  1
  H  H327  1  0.135800  0.310200  0.074800  1
  H  H328  1  0.864200  0.689800  0.925200  1
  H  H329  1  0.085400  0.287200  0.030900  1
  H  H330  1  0.914600  0.712800  0.969100  1
  H  H331  1  0.109300  0.425000  0.115900  1
  H  H332  1  0.890700  0.575000  0.884100  1
  H  H333  1  0.174100  0.481800  0.130400  1
  H  H334  1  0.825900  0.518200  0.869600  1
  H  H335  1  0.229400  0.490800  0.177500  1
  H  H336  1  0.770600  0.509200  0.822500  1
  H  H337  1  0.235400  0.432300  0.243900  1
  H  H338  1  0.764600  0.567700  0.756100  1
  H  H339  1  0.180600  0.363800  0.266700  1
  H  H340  1  0.819400  0.636200  0.733300  1
  H  H341  1  0.455500  0.795700  0.093700  1
  H  H342  1  0.544500  0.204300  0.906300  1
  H  H343  1  0.558700  0.763500  0.087100  1
  H  H344  1  0.441300  0.236500  0.912900  1
  H  H345  1  0.616100  0.673800  0.060400  1
  H  H346  1  0.383900  0.326200  0.939600  1
  H  H347  1  0.570300  0.616400  0.040400  1
  H  H348  1  0.429700  0.383600  0.959600  1
  H  H349  1  0.467100  0.648600  0.047000  1
  H  H350  1  0.532900  0.351400  0.953000  1
  H  H351  1  0.409700  0.738200  0.073700  1
  H  H352  1  0.590300  0.261800  0.926300  1
  H  H353  1  0.170400  0.950000  0.769500  1
  H  H354  1  0.829600  0.050000  0.230500  1
  H  H355  1  0.212000  0.021600  0.767900  1
  H  H356  1  0.788000  0.978400  0.232100  1
  H  H357  1  0.290900  0.007600  0.798500  1
  H  H358  1  0.709100  0.992400  0.201500  1
  H  H359  1  0.328200  0.922000  0.830700  1
  H  H360  1  0.671800  0.078000  0.169300  1
  H  H361  1  0.286600  0.850500  0.832300  1
  H  H362  1  0.713400  0.149500  0.167700  1
  H  H363  1  0.207700  0.864500  0.801700  1
  H  H364  1  0.792300  0.135500  0.198300  1
  H  H365  1  0.026600  0.287500  0.936100  1
  H  H366  1  0.973400  0.712500  0.063900  1
  H  H367  1  0.125900  0.241300  0.934500  1
  H  H368  1  0.874100  0.758700  0.065500  1
  H  H369  1  0.213100  0.264900  0.874000  1
  H  H370  1  0.786900  0.735100  0.126000  1
  H  H371  1  0.201200  0.334700  0.815200  1
  H  H372  1  0.798800  0.665300  0.184800  1
  H  H373  1  0.014700  0.357300  0.877200  1
  H  H374  1  0.985300  0.642700  0.122800  1
  H  H375  1  0.102000  0.380900  0.816800  1
  H  H376  1  0.898000  0.619100  0.183200  1
  H  H377  1  0.381800  0.195500  0.697700  1
  H  H378  1  0.618200  0.804500  0.302300  1
  H  H379  1  0.376200  0.122400  0.660000  1
  H  H380  1  0.623800  0.877600  0.340000  1
  H  H381  1  0.281100  0.102700  0.684000  1
  H  H382  1  0.718900  0.897300  0.316000  1
  H  H383  1  0.292200  0.248900  0.759300  1
  H  H384  1  0.707800  0.751100  0.240700  1
  H  H385  1  0.191500  0.156000  0.745600  1
  H  H386  1  0.808500  0.844000  0.254400  1
  H  H387  1  0.197100  0.229100  0.783300  1
  H  H388  1  0.802900  0.770900  0.216700  1
  H  H389  1  0.187900  0.466700  0.681400  1
  H  H390  1  0.812100  0.533300  0.318600  1
  H  H391  1  0.140800  0.480900  0.739100  1
  H  H392  1  0.859200  0.519100  0.260900  1
  H  H393  1  0.152100  0.423700  0.715100  1
  H  H394  1  0.847900  0.576300  0.284900  1
  H  H395  1  0.302200  0.266900  0.627400  1
  H  H396  1  0.697800  0.733100  0.372600  1
  H  H397  1  0.249500  0.407800  0.555800  1
  H  H398  1  0.750500  0.592200  0.444200  1
  H  H399  1  0.141100  0.447300  0.560600  1
  H  H400  1  0.858900  0.552700  0.439400  1
  H  H401  1  0.040200  0.440600  0.599700  1
  H  H402  1  0.959800  0.559400  0.400300  1
  H  H403  1  0.223400  0.215000  0.678700  1
  H  H404  1  0.776600  0.785000  0.321300  1
  H  H405  1  0.119500  0.212900  0.713500  1
  H  H406  1  0.880500  0.787100  0.286500  1
  H  H407  1  0.016900  0.238600  0.700900  1
  H  H408  1  0.983100  0.761400  0.299100  1
  H  H409  1  0.972800  0.376000  0.621900  1
  H  H410  1  0.027200  0.624000  0.378100  1
  H  H411  1  0.598500  0.646500  0.042800  1
  H  H412  1  0.401500  0.353500  0.957200  1
  H  H413  1  0.596000  0.730500  0.068600  1
  H  H414  1  0.404000  0.269500  0.931400  1
  H  H415  1  0.501300  0.797900  0.101600  1
  H  H416  1  0.498700  0.202100  0.898400  1
  H  H417  1  0.409200  0.781300  0.108800  1
  H  H418  1  0.590800  0.218700  0.891200  1
  H  H419  1  0.411700  0.697300  0.083000  1
  H  H420  1  0.588300  0.302700  0.917000  1
  H  H421  1  0.506400  0.629900  0.050000  1
  H  H422  1  0.493600  0.370100  0.950000  1
  H  H423  1  0.180500  0.946500  0.745700  1
  H  H424  1  0.819500  0.053500  0.254300  1
  H  H425  1  0.219700  0.859200  0.774100  1
  H  H426  1  0.780300  0.140800  0.225900  1
  H  H427  1  0.264300  0.849100  0.834500  1
  H  H428  1  0.735700  0.150900  0.165500  1
  H  H429  1  0.269800  0.926100  0.866400  1
  H  H430  1  0.730200  0.073900  0.133600  1
  H  H431  1  0.230700  0.013400  0.838000  1
  H  H432  1  0.769300  0.986600  0.162000  1
  H  H433  1  0.186000  0.023500  0.777700  1
  H  H434  1  0.814000  0.976500  0.222300  1
  H  H435  1  0.388600  0.161800  0.654000  1
  H  H436  1  0.611400  0.838200  0.346000  1
  H  H437  1  0.342700  0.092500  0.658100  1
  H  H438  1  0.657300  0.907500  0.341900  1
  H  H439  1  0.259800  0.080500  0.732300  1
  H  H440  1  0.740200  0.919500  0.267700  1
  H  H441  1  0.222800  0.137900  0.802200  1
  H  H442  1  0.777200  0.862100  0.197800  1
  H  H443  1  0.268600  0.207200  0.798100  1
  H  H444  1  0.731400  0.792800  0.201900  1
  H  H445  1  0.351500  0.219100  0.723900  1
  H  H446  1  0.648500  0.780900  0.276100  1
  C  C447  1  0.720400  0.321000  0.437000  1
  C  C448  1  0.279600  0.679000  0.563000  1
  C  C449  1  0.746100  0.359900  0.443300  1
  C  C450  1  0.253900  0.640100  0.556700  1
  C  C451  1  0.712100  0.401800  0.474900  1
  C  C452  1  0.287900  0.598200  0.525100  1
  C  C453  1  0.648500  0.410000  0.501000  1
  C  C454  1  0.351500  0.590000  0.499000  1
  C  C455  1  0.624700  0.371300  0.493200  1
  C  C456  1  0.375300  0.628700  0.506800  1
  C  C457  1  0.559900  0.373000  0.517700  1
  C  C458  1  0.440100  0.627000  0.482300  1
  C  C459  1  0.477800  0.337300  0.529600  1
  C  C460  1  0.522200  0.662700  0.470400  1
  C  C461  1  0.437700  0.370400  0.508400  1
  C  C462  1  0.562300  0.629600  0.491600  1
  C  C463  1  0.375400  0.371800  0.527800  1
  C  C464  1  0.624600  0.628200  0.472200  1
  C  C465  1  0.351100  0.341800  0.567000  1
  C  C466  1  0.648900  0.658200  0.433000  1
  C  C467  1  0.392300  0.307000  0.588500  1
  C  C468  1  0.607700  0.693000  0.411500  1
  C  C469  1  0.454600  0.306100  0.569800  1
  C  C470  1  0.545400  0.693900  0.430200  1
  C  C471  1  0.287300  0.334400  0.583000  1
  C  C472  1  0.712700  0.665600  0.417000  1
  C  C473  1  0.250200  0.332800  0.634500  1
  C  C474  1  0.749800  0.667200  0.365500  1
  C  C475  1  0.188500  0.333100  0.649400  1
  C  C476  1  0.811500  0.666900  0.350600  1
  C  C477  1  0.163900  0.335000  0.613000  1
  C  C478  1  0.836100  0.665000  0.387000  1
  C  C479  1  0.200900  0.336600  0.561500  1
  C  C480  1  0.799100  0.663400  0.438500  1
  C  C481  1  0.262600  0.336300  0.546600  1
  C  C482  1  0.737400  0.663700  0.453400  1
  C  C483  1  0.170700  0.338100  0.522800  1
  C  C484  1  0.829300  0.661900  0.477200  1
  C  C485  1  0.111000  0.334600  0.541000  1
  C  C486  1  0.889000  0.665400  0.459000  1
  C  C487  1  0.152200  0.329600  0.703900  1
  C  C488  1  0.847800  0.670400  0.296100  1
  C  C489  1  0.092600  0.323000  0.719500  1
  C  C490  1  0.907400  0.677000  0.280500  1
  C  C491  1  0.099800  0.329200  0.629800  1
  C  C492  1  0.900200  0.670800  0.370200  1
  C  C493  1  0.066300  0.325300  0.681700  1
  C  C494  1  0.933700  0.674700  0.318300  1
  C  C495  1  0.007900  0.316500  0.699100  1
  C  C496  1  0.992100  0.683500  0.300900  1
  C  C497  1  0.983000  0.311600  0.664500  1
  C  C498  1  0.017000  0.688400  0.335500  1
  C  C499  1  0.016400  0.315600  0.612500  1
  C  C500  1  0.983600  0.684400  0.387500  1
  C  C501  1  0.074800  0.324400  0.595200  1
  C  C502  1  0.925200  0.675600  0.404800  1
  C  C503  1  0.919700  0.303300  0.683100  1
  C  C504  1  0.080300  0.696700  0.316900  1
  C  C505  1  0.896000  0.277600  0.728700  1
  C  C506  1  0.104000  0.722400  0.271300  1
  C  C507  1  0.836100  0.272200  0.745400  1
  C  C508  1  0.163900  0.727800  0.254600  1
  C  C509  1  0.804700  0.287700  0.715700  1
  C  C510  1  0.195300  0.712300  0.284300  1
  C  C511  1  0.827600  0.314700  0.670100  1
  C  C512  1  0.172400  0.685300  0.329900  1
  C  C513  1  0.885000  0.319800  0.653100  1
  C  C514  1  0.115000  0.680200  0.346900  1
  C  C515  1  0.695800  0.321800  0.751700  1
  C  C516  1  0.304200  0.678200  0.248300  1
  C  C517  1  0.635900  0.315700  0.766300  1
  C  C518  1  0.364100  0.684300  0.233700  1
  C  C519  1  0.579000  0.353000  0.793300  1
  C  C520  1  0.421000  0.647000  0.206700  1
  C  C521  1  0.524400  0.341400  0.805000  1
  C  C522  1  0.475600  0.658600  0.195000  1
  C  C523  1  0.526500  0.289300  0.790400  1
  C  C524  1  0.473500  0.710700  0.209600  1
  C  C525  1  0.582900  0.255700  0.763400  1
  C  C526  1  0.417100  0.744300  0.236600  1
  C  C527  1  0.600200  0.382900  0.386400  1
  C  C528  1  0.399800  0.617100  0.613600  1
  C  C529  1  0.569800  0.420600  0.361200  1
  C  C530  1  0.430200  0.579400  0.638800  1
  C  C531  1  0.520600  0.414700  0.353500  1
  C  C532  1  0.479400  0.585300  0.646500  1
  C  C533  1  0.502900  0.367100  0.371300  1
  C  C534  1  0.497100  0.632900  0.628700  1
  C  C535  1  0.535000  0.330500  0.396900  1
  C  C536  1  0.465000  0.669500  0.603100  1
  C  C537  1  0.520000  0.278900  0.418200  1
  C  C538  1  0.480000  0.721100  0.581800  1
  C  C539  1  0.534000  0.199900  0.466200  1
  C  C540  1  0.466000  0.800100  0.533800  1
  C  C541  1  0.579700  0.150700  0.452800  1
  C  C542  1  0.420300  0.849300  0.547200  1
  C  C543  1  0.565300  0.102600  0.477000  1
  C  C544  1  0.434700  0.897400  0.523000  1
  C  C545  1  0.506300  0.105500  0.514400  1
  C  C546  1  0.493700  0.894500  0.485600  1
  C  C547  1  0.460200  0.154700  0.525200  1
  C  C548  1  0.539800  0.845300  0.474800  1
  C  C549  1  0.476100  0.203200  0.500500  1
  C  C550  1  0.523900  0.796800  0.499500  1
  C  C551  1  0.491500  0.054000  0.543600  1
  C  C552  1  0.508500  0.946000  0.456400  1
  C  C553  1  0.432100  0.050800  0.568400  1
  C  C554  1  0.567900  0.949200  0.431600  1
  C  C555  1  0.418300  0.004600  0.597200  1
  C  C556  1  0.581700  0.995400  0.402800  1
  C  C557  1  0.469100  0.959900  0.599800  1
  C  C558  1  0.530900  0.040100  0.400200  1
  C  C559  1  0.529900  0.963200  0.572500  1
  C  C560  1  0.470100  0.036800  0.427500  1
  C  C561  1  0.540700  0.010200  0.546300  1
  C  C562  1  0.459300  0.989800  0.453700  1
  C  C563  1  0.357700  0.999600  0.622000  1
  C  C564  1  0.642300  0.000400  0.378000  1
  C  C565  1  0.343100  0.955500  0.651100  1
  C  C566  1  0.656900  0.044500  0.348900  1
  C  C567  1  0.579800  0.915200  0.573900  1
  C  C568  1  0.420200  0.084800  0.426100  1
  C  C569  1  0.567900  0.871000  0.600200  1
  C  C570  1  0.432100  0.129000  0.399800  1
  C  C571  1  0.455100  0.913700  0.629500  1
  C  C572  1  0.544900  0.086300  0.370500  1
  C  C573  1  0.393300  0.910200  0.655100  1
  C  C574  1  0.606700  0.089800  0.344900  1
  C  C575  1  0.383400  0.863200  0.683400  1
  C  C576  1  0.616600  0.136800  0.316600  1
  C  C577  1  0.430500  0.819000  0.686300  1
  C  C578  1  0.569500  0.181000  0.313700  1
  C  C579  1  0.492600  0.821500  0.658200  1
  C  C580  1  0.507400  0.178500  0.341800  1
  C  C581  1  0.504900  0.867700  0.628500  1
  C  C582  1  0.495100  0.132300  0.371500  1
  C  C583  1  0.419700  0.767400  0.715000  1
  C  C584  1  0.580300  0.232600  0.285000  1
  C  C585  1  0.360200  0.761200  0.741300  1
  C  C586  1  0.639800  0.238800  0.258700  1
  C  C587  1  0.349400  0.714600  0.766200  1
  C  C588  1  0.650600  0.285400  0.233800  1
  C  C589  1  0.399500  0.672100  0.766600  1
  C  C590  1  0.600500  0.327900  0.233400  1
  C  C591  1  0.459200  0.676000  0.743100  1
  C  C592  1  0.540800  0.324000  0.256900  1
  C  C593  1  0.468600  0.725600  0.717600  1
  C  C594  1  0.531400  0.274400  0.282400  1
  C  C595  1  0.367700  0.592800  0.774400  1
  C  C596  1  0.632300  0.407200  0.225600  1
  C  C597  1  0.359100  0.540800  0.798500  1
  C  C598  1  0.640900  0.459200  0.201500  1
  C  C599  1  0.334600  0.507400  0.785900  1
  C  C600  1  0.665400  0.492600  0.214100  1
  C  C601  1  0.330400  0.458000  0.812500  1
  C  C602  1  0.669600  0.542000  0.187500  1
  C  C603  1  0.353200  0.445300  0.849800  1
  C  C604  1  0.646800  0.554700  0.150200  1
  C  C605  1  0.378500  0.481700  0.860700  1
  C  C606  1  0.621500  0.518300  0.139300  1
  C  C607  1  0.702600  0.243200  0.351600  1
  C  C608  1  0.297400  0.756800  0.648400  1
  C  C609  1  0.753700  0.207000  0.319300  1
  C  C610  1  0.246300  0.793000  0.680700  1
  C  C611  1  0.784800  0.159900  0.338500  1
  C  C612  1  0.215200  0.840100  0.661500  1
  C  C613  1  0.762400  0.152700  0.390200  1
  C  C614  1  0.237600  0.847300  0.609800  1
  C  C615  1  0.710800  0.190100  0.421000  1
  C  C616  1  0.289200  0.809900  0.579000  1
  C  C617  1  0.684100  0.184700  0.475900  1
  C  C618  1  0.315900  0.815300  0.524100  1
  C  C619  1  0.603100  0.217900  0.552100  1
  C  C620  1  0.396900  0.782100  0.447900  1
  C  C621  1  0.577300  0.173600  0.570500  1
  C  C622  1  0.422700  0.826400  0.429500  1
  C  C623  1  0.541100  0.170400  0.621300  1
  C  C624  1  0.458900  0.829600  0.378700  1
  C  C625  1  0.528300  0.211300  0.655300  1
  C  C626  1  0.471700  0.788700  0.344700  1
  C  C627  1  0.557700  0.252900  0.636900  1
  C  C628  1  0.442300  0.747100  0.363100  1
  C  C629  1  0.594400  0.256300  0.585700  1
  C  C630  1  0.405600  0.743700  0.414300  1
  C  C631  1  0.485000  0.211300  0.708700  1
  C  C632  1  0.515000  0.788700  0.291300  1
  C  C633  1  0.486700  0.165900  0.740800  1
  C  C634  1  0.513300  0.834100  0.259200  1
  C  C635  1  0.446300  0.167700  0.790900  1
  C  C636  1  0.553700  0.832300  0.209100  1
  C  C637  1  0.402000  0.217800  0.812200  1
  C  C638  1  0.598000  0.782200  0.187800  1
  C  C639  1  0.396700  0.264100  0.779900  1
  C  C640  1  0.603300  0.735900  0.220100  1
  C  C641  1  0.438400  0.260100  0.729800  1
  C  C642  1  0.561600  0.739900  0.270200  1
  C  C643  1  0.349900  0.312900  0.801300  1
  C  C644  1  0.650100  0.687100  0.198700  1
  C  C645  1  0.314200  0.318000  0.851300  1
  C  C646  1  0.685800  0.682000  0.148700  1
  C  C647  1  0.450300  0.121700  0.825500  1
  C  C648  1  0.549700  0.878300  0.174500  1
  C  C649  1  0.413800  0.126600  0.874600  1
  C  C650  1  0.586200  0.873400  0.125400  1
  C  C651  1  0.363600  0.221800  0.864200  1
  C  C652  1  0.636400  0.778200  0.135800  1
  C  C653  1  0.320100  0.272600  0.886700  1
  C  C654  1  0.679900  0.727400  0.113300  1
  C  C655  1  0.287700  0.277600  0.938900  1
  C  C656  1  0.712300  0.722400  0.061100  1
  C  C657  1  0.298200  0.233600  0.970900  1
  C  C658  1  0.701800  0.766400  0.029100  1
  C  C659  1  0.335900  0.184200  0.950300  1
  C  C660  1  0.664100  0.815800  0.049700  1
  C  C661  1  0.371300  0.175900  0.898300  1
  C  C662  1  0.628700  0.824100  0.101700  1
  C  C663  1  0.267900  0.242400  0.026600  1
  C  C664  1  0.732100  0.757600  0.973400  1
  C  C665  1  0.244200  0.203700  0.061300  1
  C  C666  1  0.755800  0.796300  0.938700  1
  C  C667  1  0.217100  0.211800  0.112200  1
  C  C668  1  0.782900  0.788200  0.887800  1
  C  C669  1  0.212100  0.260200  0.132500  1
  C  C670  1  0.787900  0.739800  0.867500  1
  C  C671  1  0.237200  0.299500  0.099300  1
  C  C672  1  0.762800  0.700500  0.900700  1
  C  C673  1  0.264400  0.289800  0.047300  1
  C  C674  1  0.735600  0.710200  0.952700  1
  C  C675  1  0.208100  0.243100  0.214600  1
  C  C676  1  0.791900  0.756900  0.785400  1
  C  C677  1  0.176800  0.252300  0.269100  1
  C  C678  1  0.823200  0.747700  0.730900  1
  C  C679  1  0.199000  0.223900  0.304800  1
  C  C680  1  0.801000  0.776100  0.695200  1
  C  C681  1  0.164200  0.237500  0.356400  1
  C  C682  1  0.835800  0.762500  0.643600  1
  C  C683  1  0.110200  0.275100  0.368500  1
  C  C684  1  0.889800  0.724900  0.631500  1
  C  C685  1  0.087300  0.303700  0.332000  1
  C  C686  1  0.912700  0.696300  0.668000  1
  C  C687  1  0.524200  0.511900  0.773000  1
  C  C688  1  0.475800  0.488100  0.227000  1
  C  C689  1  0.586300  0.494900  0.743200  1
  C  C690  1  0.413700  0.505100  0.256800  1
  C  C691  1  0.627800  0.521300  0.743500  1
  C  C692  1  0.372200  0.478700  0.256500  1
  C  C693  1  0.603200  0.565600  0.775400  1
  C  C694  1  0.396800  0.434400  0.224600  1
  C  C695  1  0.540400  0.582300  0.804400  1
  C  C696  1  0.459600  0.417700  0.195600  1
  C  C697  1  0.509300  0.631300  0.835800  1
  C  C698  1  0.490700  0.368700  0.164200  1
  C  C699  1  0.416500  0.690200  0.890100  1
  C  C700  1  0.583500  0.309800  0.109900  1
  C  C701  1  0.400700  0.740200  0.866700  1
  C  C702  1  0.599300  0.259800  0.133300  1
  C  C703  1  0.366900  0.786000  0.897800  1
  C  C704  1  0.633100  0.214000  0.102200  1
  C  C705  1  0.349900  0.784000  0.949700  1
  C  C706  1  0.650100  0.216000  0.050300  1
  C  C707  1  0.367800  0.733100  0.971900  1
  C  C708  1  0.632200  0.266900  0.028100  1
  C  C709  1  0.400500  0.686100  0.941200  1
  C  C710  1  0.599500  0.313900  0.058800  1
  C  C711  1  0.315400  0.832400  0.981500  1
  C  C712  1  0.684600  0.167600  0.018500  1
  C  C713  1  0.258600  0.865100  0.979700  1
  C  C714  1  0.741400  0.134900  0.020300  1
  C  C715  1  0.222400  0.912800  0.010100  1
  C  C716  1  0.777600  0.087200  0.989900  1
  C  C717  1  0.246900  0.926800  0.043200  1
  C  C718  1  0.753100  0.073200  0.956800  1
  C  C719  1  0.302300  0.894300  0.045900  1
  C  C720  1  0.697700  0.105700  0.954100  1
  C  C721  1  0.334900  0.847400  0.016200  1
  C  C722  1  0.665100  0.152600  0.983800  1
  C  C723  1  0.326800  0.911400  0.078400  1
  C  C724  1  0.673200  0.088600  0.921600  1
  C  C725  1  0.294100  0.958300  0.106200  1
  C  C726  1  0.705900  0.041700  0.893800  1
  C  C727  1  0.164700  0.946200  0.008900  1
  C  C728  1  0.835300  0.053800  0.991100  1
  C  C729  1  0.134000  0.990100  0.037300  1
  C  C730  1  0.866000  0.009900  0.962700  1
  C  C731  1  0.237700  0.990100  0.105200  1
  C  C732  1  0.762300  0.009900  0.894800  1
  C  C733  1  0.212200  0.975200  0.073600  1
  C  C734  1  0.787800  0.024800  0.926400  1
  C  C735  1  0.155400  0.007600  0.071500  1
  C  C736  1  0.844600  0.992400  0.928500  1
  C  C737  1  0.123400  0.055100  0.100900  1
  C  C738  1  0.876600  0.944900  0.899100  1
  C  C739  1  0.147200  0.070600  0.132500  1
  C  C740  1  0.852800  0.929400  0.867500  1
  C  C741  1  0.205000  0.039000  0.133700  1
  C  C742  1  0.795000  0.961000  0.866300  1
  C  C743  1  0.115900  0.124400  0.162700  1
  C  C744  1  0.884100  0.875600  0.837300  1
  C  C745  1  0.080200  0.167700  0.144500  1
  C  C746  1  0.919800  0.832300  0.855500  1
  C  C747  1  0.055300  0.218400  0.168200  1
  C  C748  1  0.944700  0.781600  0.831800  1
  C  C749  1  0.069100  0.224300  0.209600  1
  C  C750  1  0.930900  0.775700  0.790400  1
  C  C751  1  0.101700  0.180100  0.229100  1
  C  C752  1  0.898300  0.819900  0.770900  1
  C  C753  1  0.124200  0.130800  0.205600  1
  C  C754  1  0.875800  0.869200  0.794400  1
  C  C755  1  0.992900  0.296000  0.262100  1
  C  C756  1  0.007100  0.704000  0.737900  1
  C  C757  1  0.974300  0.348900  0.284300  1
  C  C758  1  0.025700  0.651100  0.715700  1
  C  C759  1  0.914900  0.375000  0.318400  1
  C  C760  1  0.085100  0.625000  0.681600  1
  C  C761  1  0.903800  0.423700  0.337700  1
  C  C762  1  0.096200  0.576300  0.662300  1
  C  C763  1  0.953900  0.449400  0.318100  1
  C  C764  1  0.046100  0.550600  0.681900  1
  C  C765  1  0.010100  0.423900  0.284800  1
  C  C766  1  0.989900  0.576100  0.715200  1
  C  C767  1  0.477800  0.509600  0.912500  1
  C  C768  1  0.522200  0.490400  0.087500  1
  C  C769  1  0.479400  0.481200  0.954300  1
  C  C770  1  0.520600  0.518800  0.045700  1
  C  C771  1  0.427000  0.490000  0.997900  1
  C  C772  1  0.573000  0.510000  0.002100  1
  C  C773  1  0.372400  0.528500  0.997300  1
  C  C774  1  0.627600  0.471500  0.002700  1
  C  C775  1  0.374400  0.556000  0.952900  1
  C  C776  1  0.625600  0.444000  0.047100  1
  C  C777  1  0.321700  0.595000  0.946900  1
  C  C778  1  0.678300  0.405000  0.053100  1
  C  C779  1  0.276800  0.658400  0.895300  1
  C  C780  1  0.723200  0.341600  0.104700  1
  C  C781  1  0.263400  0.710900  0.909900  1
  C  C782  1  0.736600  0.289100  0.090100  1
  C  C783  1  0.219900  0.751600  0.897300  1
  C  C784  1  0.780100  0.248400  0.102700  1
  C  C785  1  0.186700  0.741000  0.871600  1
  C  C786  1  0.813300  0.259000  0.128400  1
  C  C787  1  0.198800  0.686500  0.861000  1
  C  C788  1  0.801200  0.313500  0.139000  1
  C  C789  1  0.243200  0.646100  0.871700  1
  C  C790  1  0.756800  0.353900  0.128300  1
  C  C791  1  0.144900  0.785300  0.854100  1
  C  C792  1  0.855100  0.214700  0.145900  1
  C  C793  1  0.118500  0.837500  0.876400  1
  C  C794  1  0.881500  0.162500  0.123600  1
  C  C795  1  0.081900  0.880100  0.857500  1
  C  C796  1  0.918100  0.119900  0.142500  1
  C  C797  1  0.069900  0.871900  0.814900  1
  C  C798  1  0.930100  0.128100  0.185100  1
  C  C799  1  0.095100  0.818800  0.792800  1
  C  C800  1  0.904900  0.181200  0.207200  1
  C  C801  1  0.131600  0.777400  0.812500  1
  C  C802  1  0.868400  0.222600  0.187500  1
  C  C803  1  0.083700  0.810900  0.748900  1
  C  C804  1  0.916300  0.189100  0.251100  1
  C  C805  1  0.046500  0.851700  0.730700  1
  C  C806  1  0.953500  0.148300  0.269300  1
  C  C807  1  0.056000  0.934100  0.879700  1
  C  C808  1  0.944000  0.065900  0.120300  1
  C  C809  1  0.022400  0.975900  0.859000  1
  C  C810  1  0.977600  0.024100  0.141000  1
  C  C811  1  0.032100  0.915200  0.796000  1
  C  C812  1  0.967900  0.084800  0.204000  1
  C  C813  1  0.009800  0.967700  0.817000  1
  C  C814  1  0.990200  0.032300  0.183000  1
  C  C815  1  0.971800  0.009300  0.796200  1
  C  C816  1  0.028200  0.990700  0.203800  1
  C  C817  1  0.958000  0.999800  0.756200  1
  C  C818  1  0.042000  0.000200  0.243800  1
  C  C819  1  0.982000  0.946500  0.735400  1
  C  C820  1  0.018000  0.053500  0.264600  1
  C  C821  1  0.020100  0.904300  0.754300  1
  C  C822  1  0.979900  0.095700  0.245700  1
  C  C823  1  0.920200  0.044600  0.734600  1
  C  C824  1  0.079800  0.955400  0.265400  1
  C  C825  1  0.932000  0.095700  0.724400  1
  C  C826  1  0.068000  0.904300  0.275600  1
  C  C827  1  0.896800  0.138400  0.704000  1
  C  C828  1  0.103200  0.861600  0.296000  1
  C  C829  1  0.847500  0.129900  0.696600  1
  C  C830  1  0.152500  0.870100  0.303400  1
  C  C831  1  0.836500  0.079000  0.705300  1
  C  C832  1  0.163500  0.921000  0.294700  1
  C  C833  1  0.873200  0.035800  0.725100  1
  C  C834  1  0.126800  0.964200  0.274900  1
  C  C835  1  0.831100  0.188500  0.631800  1
  C  C836  1  0.168900  0.811500  0.368200  1
  C  C837  1  0.789800  0.233600  0.615000  1
  C  C838  1  0.210200  0.766400  0.385000  1
  C  C839  1  0.810800  0.258000  0.566900  1
  C  C840  1  0.189200  0.742000  0.433100  1
  C  C841  1  0.769400  0.300000  0.553000  1
  C  C842  1  0.230600  0.700000  0.447000  1
  C  C843  1  0.710700  0.320100  0.588900  1
  C  C844  1  0.289300  0.679900  0.411100  1
  C  C845  1  0.694500  0.294600  0.635800  1
  C  C846  1  0.305500  0.705400  0.364200  1
  C  C847  1  0.683500  0.147900  0.666500  1
  C  C848  1  0.316500  0.852100  0.333500  1
  C  C849  1  0.661300  0.104900  0.662400  1
  C  C850  1  0.338700  0.895100  0.337600  1
  C  C851  1  0.648700  0.069600  0.706400  1
  C  C852  1  0.351300  0.930400  0.293600  1
  C  C853  1  0.659800  0.080100  0.747200  1
  C  C854  1  0.340200  0.919900  0.252800  1
  C  C855  1  0.681300  0.124600  0.747500  1
  C  C856  1  0.318700  0.875400  0.252500  1
  C  C857  1  0.693700  0.137100  0.787700  1
  C  C858  1  0.306300  0.862900  0.212300  1
  C  C859  1  0.738100  0.187800  0.818500  1
  C  C860  1  0.261900  0.812200  0.181500  1
  C  C861  1  0.710700  0.236700  0.844900  1
  C  C862  1  0.289300  0.763300  0.155100  1
  C  C863  1  0.735100  0.247600  0.878000  1
  C  C864  1  0.264900  0.752400  0.122000  1
  C  C865  1  0.787500  0.212100  0.883100  1
  C  C866  1  0.212500  0.787900  0.116900  1
  C  C867  1  0.813700  0.162700  0.857700  1
  C  C868  1  0.186300  0.837300  0.142300  1
  C  C869  1  0.789100  0.149400  0.825500  1
  C  C870  1  0.210900  0.850600  0.174500  1
  C  C871  1  0.819400  0.228800  0.913000  1
  C  C872  1  0.180600  0.771200  0.087000  1
  C  C873  1  0.809900  0.283200  0.921100  1
  C  C874  1  0.190100  0.716800  0.078900  1
  C  C875  1  0.837300  0.301000  0.949300  1
  C  C876  1  0.162700  0.699000  0.050700  1
  C  C877  1  0.878300  0.260300  0.967200  1
  C  C878  1  0.121700  0.739700  0.032800  1
  C  C879  1  0.888000  0.204500  0.958200  1
  C  C880  1  0.112000  0.795500  0.041800  1
  C  C881  1  0.857500  0.191100  0.932100  1
  C  C882  1  0.142500  0.808900  0.067900  1
  C  C883  1  0.829000  0.357200  0.958100  1
  C  C884  1  0.171000  0.642800  0.041900  1
  C  C885  1  0.854900  0.372500  0.985900  1
  C  C886  1  0.145100  0.627500  0.014100  1
  C  C887  1  0.930400  0.164400  0.975500  1
  C  C888  1  0.069600  0.835600  0.024500  1
  C  C889  1  0.960000  0.178600  0.001200  1
  C  C890  1  0.040000  0.821400  0.998800  1
  C  C891  1  0.907700  0.276200  0.994200  1
  C  C892  1  0.092300  0.723800  0.005800  1
  C  C893  1  0.949400  0.235200  0.011900  1
  C  C894  1  0.050600  0.764800  0.988100  1
  C  C895  1  0.976400  0.252000  0.039900  1
  C  C896  1  0.023600  0.748000  0.960100  1
  C  C897  1  0.965800  0.305900  0.051200  1
  C  C898  1  0.034200  0.694100  0.948800  1
  C  C899  1  0.925300  0.344500  0.034600  1
  C  C900  1  0.074700  0.655500  0.965400  1
  C  C901  1  0.896400  0.330700  0.005100  1
  C  C902  1  0.103600  0.669300  0.994900  1
  C  C903  1  0.996300  0.321500  0.081300  1
  C  C904  1  0.003700  0.678500  0.918700  1
  C  C905  1  0.964600  0.350200  0.124900  1
  C  C906  1  0.035400  0.649800  0.875100  1
  C  C907  1  0.994700  0.364100  0.152300  1
  C  C908  1  0.005300  0.635900  0.847700  1
  C  C909  1  0.058300  0.350100  0.133200  1
  C  C910  1  0.941700  0.649900  0.866800  1
  C  C911  1  0.091700  0.320700  0.087800  1
  C  C912  1  0.908300  0.679300  0.912200  1
  C  C913  1  0.061900  0.306800  0.062000  1
  C  C914  1  0.938100  0.693200  0.938000  1
  C  C915  1  0.113900  0.404000  0.144500  1
  C  C916  1  0.886100  0.596000  0.855500  1
  C  C917  1  0.145700  0.415700  0.171200  1
  C  C918  1  0.854300  0.584300  0.828800  1
  C  C919  1  0.176200  0.457700  0.158000  1
  C  C920  1  0.823800  0.542300  0.842000  1
  C  C921  1  0.208800  0.462900  0.186000  1
  C  C922  1  0.791200  0.537100  0.814000  1
  C  C923  1  0.212000  0.428900  0.225300  1
  C  C924  1  0.788000  0.571100  0.774700  1
  C  C925  1  0.179400  0.387600  0.238700  1
  C  C926  1  0.820600  0.612400  0.761300  1
  C  C927  1  0.478800  0.759300  0.082900  1
  C  C928  1  0.521200  0.240700  0.917100  1
  C  C929  1  0.540100  0.740200  0.078900  1
  C  C930  1  0.459900  0.259800  0.921100  1
  C  C931  1  0.574200  0.686900  0.063100  1
  C  C932  1  0.425800  0.313100  0.936900  1
  C  C933  1  0.547000  0.652800  0.051200  1
  C  C934  1  0.453000  0.347200  0.948800  1
  C  C935  1  0.485700  0.671900  0.055100  1
  C  C936  1  0.514300  0.328100  0.944900  1
  C  C937  1  0.451600  0.725200  0.071000  1
  C  C938  1  0.548400  0.274800  0.929000  1
  C  C939  1  0.202500  0.944300  0.781900  1
  C  C940  1  0.797500  0.055700  0.218100  1
  C  C941  1  0.227200  0.986800  0.780900  1
  C  C942  1  0.772800  0.013200  0.219100  1
  C  C943  1  0.274000  0.978500  0.799100  1
  C  C944  1  0.726000  0.021500  0.200900  1
  C  C945  1  0.224600  0.893500  0.801100  1
  C  C946  1  0.775400  0.106500  0.198900  1
  C  C947  1  0.271500  0.885200  0.819300  1
  C  C948  1  0.728500  0.114800  0.180700  1
  C  C949  1  0.296200  0.927700  0.818300  1
  C  C950  1  0.703800  0.072300  0.181700  1
  C  C951  1  0.062100  0.297100  0.911500  1
  C  C952  1  0.937900  0.702900  0.088500  1
  C  C953  1  0.121000  0.269700  0.910600  1
  C  C954  1  0.879000  0.730300  0.089400  1
  C  C955  1  0.172900  0.283700  0.874700  1
  C  C956  1  0.827100  0.716300  0.125300  1
  C  C957  1  0.165800  0.325100  0.839700  1
  C  C958  1  0.834200  0.674900  0.160300  1
  C  C959  1  0.055000  0.338600  0.876600  1
  C  C960  1  0.945000  0.661400  0.123400  1
  C  C961  1  0.106800  0.352600  0.840700  1
  C  C962  1  0.893200  0.647400  0.159300  1
  C  C963  1  0.343200  0.187500  0.707400  1
  C  C964  1  0.656800  0.812500  0.292600  1
  C  C965  1  0.339900  0.144100  0.685100  1
  C  C966  1  0.660100  0.855900  0.314900  1
  C  C967  1  0.283000  0.132400  0.699300  1
  C  C968  1  0.717000  0.867600  0.300700  1
  C  C969  1  0.230200  0.164000  0.735900  1
  C  C970  1  0.769800  0.836000  0.264100  1
  C  C971  1  0.290000  0.219200  0.744000  1
  C  C972  1  0.710000  0.780800  0.256000  1
  C  C973  1  0.233400  0.207500  0.758300  1
  C  C974  1  0.766600  0.792500  0.241700  1
  C  C975  1  0.220700  0.428100  0.732200  1
  C  C976  1  0.779300  0.571900  0.267800  1
  C  C977  1  0.171700  0.451600  0.715700  1
  C  C978  1  0.828300  0.548400  0.284300  1
  C  C979  1  0.285500  0.338000  0.588500  1
  C  C980  1  0.714500  0.662000  0.411500  1
  C  C981  1  0.270800  0.294000  0.619500  1
  C  C982  1  0.729200  0.706000  0.380500  1
  C  C983  1  0.210300  0.289800  0.639000  1
  C  C984  1  0.789700  0.710200  0.361000  1
  C  C985  1  0.164300  0.329600  0.627600  1
  C  C986  1  0.835700  0.670400  0.372400  1
  C  C987  1  0.179000  0.373500  0.596500  1
  C  C988  1  0.821000  0.626500  0.403500  1
  C  C989  1  0.239500  0.377700  0.577000  1
  C  C990  1  0.760500  0.622300  0.423000  1
  C  C991  1  0.131300  0.417300  0.581900  1
  C  C992  1  0.868700  0.582700  0.418100  1
  C  C993  1  0.073300  0.410500  0.601500  1
  C  C994  1  0.926700  0.589500  0.398500  1
  C  C995  1  0.192800  0.243200  0.670800  1
  C  C996  1  0.807200  0.756800  0.329200  1
  C  C997  1  0.131200  0.240300  0.689200  1
  C  C998  1  0.868800  0.759700  0.310800  1
  C  C999  1  0.099600  0.323700  0.644000  1
  C  C1000  1  0.900400  0.676300  0.356000  1
  C  C1001  1  0.084300  0.278400  0.672200  1
  C  C1002  1  0.915700  0.721600  0.327800  1
  C  C1003  1  0.027400  0.269500  0.681700  1
  C  C1004  1  0.972600  0.730500  0.318300  1
  C  C1005  1  0.985900  0.305900  0.662900  1
  C  C1006  1  0.014100  0.694100  0.337100  1
  C  C1007  1  0.001200  0.351100  0.634700  1
  C  C1008  1  0.998800  0.648900  0.365300  1
  C  C1009  1  0.058100  0.360000  0.625200  1
  C  C1010  1  0.941900  0.640000  0.374800  1
  C  C1011  1  0.560100  0.673900  0.056200  1
  C  C1012  1  0.439900  0.326100  0.943800  1
  C  C1013  1  0.558600  0.723800  0.071500  1
  C  C1014  1  0.441400  0.276200  0.928500  1
  C  C1015  1  0.502300  0.763800  0.091100  1
  C  C1016  1  0.497700  0.236200  0.908900  1
  C  C1017  1  0.447600  0.753900  0.095400  1
  C  C1018  1  0.552400  0.246100  0.904600  1
  C  C1019  1  0.449100  0.704000  0.080100  1
  C  C1020  1  0.550900  0.296000  0.919900  1
  C  C1021  1  0.505400  0.664000  0.060500  1
  C  C1022  1  0.494600  0.336000  0.939500  1
  C  C1023  1  0.198700  0.942300  0.770200  1
  C  C1024  1  0.801300  0.057700  0.229800  1
  C  C1025  1  0.221900  0.890500  0.787100  1
  C  C1026  1  0.778100  0.109500  0.212900  1
  C  C1027  1  0.248400  0.884500  0.822900  1
  C  C1028  1  0.751600  0.115500  0.177100  1
  C  C1029  1  0.228400  0.982100  0.825000  1
  C  C1030  1  0.771600  0.017900  0.175000  1
  C  C1031  1  0.201900  0.988100  0.789200  1
  C  C1032  1  0.798100  0.011900  0.210800  1
  C  C1033  1  0.354900  0.156900  0.684100  1
  C  C1034  1  0.645100  0.843100  0.315900  1
  C  C1035  1  0.327700  0.115800  0.686500  1
  C  C1036  1  0.672300  0.884200  0.313500  1
  C  C1037  1  0.278400  0.108700  0.730600  1
  C  C1038  1  0.721600  0.891300  0.269400  1
  C  C1039  1  0.256400  0.142700  0.772100  1
  C  C1040  1  0.743600  0.857300  0.227900  1
  C  C1041  1  0.283700  0.183900  0.769700  1
  C  C1042  1  0.716300  0.816100  0.230300  1
  C  C1043  1  0.332900  0.191000  0.725600  1
  C  C1044  1  0.667100  0.809000  0.274400  1
  C  C1045  1  0.251700  0.930300  0.841900  1
  C  C1046  1  0.748300  0.069700  0.158100  1
  N  N1047  1  0.657800  0.327300  0.462600  1
  N  N1048  1  0.342200  0.672700  0.537400  1
  N  N1049  1  0.541600  0.333500  0.508200  1
  N  N1050  1  0.458400  0.666500  0.491800  1
  N  N1051  1  0.742200  0.279800  0.731500  1
  N  N1052  1  0.257800  0.720200  0.268500  1
  N  N1053  1  0.637200  0.265400  0.751700  1
  N  N1054  1  0.362800  0.734600  0.248300  1
  N  N1055  1  0.582800  0.336800  0.406100  1
  N  N1056  1  0.417200  0.663200  0.593900  1
  N  N1057  1  0.551000  0.250300  0.444100  1
  N  N1058  1  0.449000  0.749700  0.555900  1
  N  N1059  1  0.391700  0.619900  0.791700  1
  N  N1060  1  0.608300  0.380100  0.208300  1
  N  N1061  1  0.383000  0.527900  0.836400  1
  N  N1062  1  0.617000  0.472100  0.163600  1
  N  N1063  1  0.680700  0.235700  0.402200  1
  N  N1064  1  0.319300  0.764300  0.597800  1
  N  N1065  1  0.634600  0.224000  0.499400  1
  N  N1066  1  0.365400  0.776000  0.500600  1
  N  N1067  1  0.181500  0.272100  0.185800  1
  N  N1068  1  0.818500  0.727900  0.814200  1
  N  N1069  1  0.122300  0.291900  0.280500  1
  N  N1070  1  0.877700  0.708100  0.719500  1
  N  N1071  1  0.500700  0.554900  0.803600  1
  N  N1072  1  0.499300  0.445100  0.196400  1
  N  N1073  1  0.449600  0.641300  0.857800  1
  N  N1074  1  0.550400  0.358700  0.142200  1
  N  N1075  1  0.050000  0.278300  0.231400  1
  N  N1076  1  0.950000  0.721700  0.768600  1
  N  N1077  1  0.021700  0.373500  0.267400  1
  N  N1078  1  0.978300  0.626500  0.732600  1
  N  N1079  1  0.425300  0.546400  0.909600  1
  N  N1080  1  0.574700  0.453600  0.090400  1
  N  N1081  1  0.329100  0.616800  0.902500  1
  N  N1082  1  0.670900  0.383200  0.097500  1
  N  N1083  1  0.808600  0.175100  0.677300  1
  N  N1084  1  0.191400  0.824900  0.322700  1
  N  N1085  1  0.729900  0.254300  0.651600  1
  N  N1086  1  0.270100  0.745700  0.348400  1
  N  N1087  1  0.692600  0.159300  0.706100  1
  N  N1088  1  0.307400  0.840700  0.293900  1
  N  N1089  1  0.718200  0.175600  0.780500  1
  N  N1090  1  0.281800  0.824400  0.219500  1
  N  N1091  1  0.091000  0.362500  0.161200  1
  N  N1092  1  0.909000  0.637500  0.838800  1
  N  N1093  1  0.147300  0.382700  0.211900  1
  N  N1094  1  0.852700  0.617300  0.788100  1
  N  N1095  1  0.266600  0.412400  0.736500  1
  N  N1096  1  0.733400  0.587600  0.263500  1
  F  F1097  1  0.776600  0.352400  0.328010  1
  F  F1098  1  0.223400  0.647600  0.671990  1
  F  F1099  1  0.849000  0.338500  0.248440  1
  F  F1100  1  0.151000  0.661500  0.751560  1
  F  F1101  1  0.751500  0.332910  0.264750  1
  F  F1102  1  0.248500  0.667090  0.735250  1
  F  F1103  1  0.711100  0.418300  0.299120  1
  F  F1104  1  0.288900  0.581700  0.700880  1
  F  F1105  1  0.784300  0.402980  0.219100  1
  F  F1106  1  0.215700  0.597020  0.780900  1
  F  F1107  1  0.807500  0.424190  0.282100  1
  F  F1108  1  0.192500  0.575810  0.717900  1
  F  F1109  1  0.520300  0.558100  0.371100  1
  F  F1110  1  0.479700  0.441900  0.628900  1
  F  F1111  1  0.518200  0.531800  0.297900  1
  F  F1112  1  0.481800  0.468200  0.702100  1
  F  F1113  1  0.437800  0.598900  0.308100  1
  F  F1114  1  0.562200  0.401100  0.691900  1
  F  F1115  1  0.437600  0.626900  0.377300  1
  F  F1116  1  0.562400  0.373100  0.622700  1
  F  F1117  1  0.441500  0.539500  0.370700  1
  F  F1118  1  0.558500  0.460500  0.629300  1
  F  F1119  1  0.526300  0.618300  0.300400  1
  F  F1120  1  0.473700  0.381700  0.699600  1
  F  F1121  1  0.277000  0.631300  0.166300  1
  F  F1122  1  0.723000  0.368700  0.833700  1
  F  F1123  1  0.363200  0.596400  0.085200  1
  F  F1124  1  0.636800  0.403600  0.914800  1
  F  F1125  1  0.378800  0.568100  0.156300  1
  F  F1126  1  0.621200  0.431900  0.843700  1
  F  F1127  1  0.290800  0.551200  0.189800  1
  F  F1128  1  0.709200  0.448800  0.810200  1
  F  F1129  1  0.273300  0.576600  0.118600  1
  F  F1130  1  0.726700  0.423400  0.881400  1
  F  F1131  1  0.358100  0.515300  0.116000  1
  F  F1132  1  0.641900  0.484700  0.884000  1
  F  F1133  1  0.245100  0.505500  0.957100  1
  F  F1134  1  0.754900  0.494500  0.042900  1
  F  F1135  1  0.167700  0.478500  0.032500  1
  F  F1136  1  0.832300  0.521500  0.967500  1
  F  F1137  1  0.246900  0.416500  0.046000  1
  F  F1138  1  0.753100  0.583500  0.954000  1
  F  F1139  1  0.242600  0.418400  0.963500  1
  F  F1140  1  0.757400  0.581600  0.036500  1
  F  F1141  1  0.314400  0.440800  0.978400  1
  F  F1142  1  0.685600  0.559200  0.021600  1
  F  F1143  1  0.242100  0.503800  0.033700  1
  F  F1144  1  0.757900  0.496200  0.966300  1
  F  F1145  1  0.883900  0.291600  0.421500  1
  F  F1146  1  0.116100  0.708400  0.578500  1
  F  F1147  1  0.873700  0.250100  0.364700  1
  F  F1148  1  0.126300  0.749900  0.635300  1
  F  F1149  1  0.825100  0.223400  0.450200  1
  F  F1150  1  0.174900  0.776600  0.549800  1
  F  F1151  1  0.913800  0.165000  0.386600  1
  F  F1152  1  0.086200  0.835000  0.613400  1
  F  F1153  1  0.973600  0.230500  0.360800  1
  F  F1154  1  0.026400  0.769500  0.639200  1
  F  F1155  1  0.923200  0.191000  0.443300  1
  F  F1156  1  0.076800  0.809000  0.556700  1
  F  F1157  1  0.316900  0.125400  0.229800  1
  F  F1158  1  0.683100  0.874600  0.770200  1
  F  F1159  1  0.221300  0.114500  0.259000  1
  F  F1160  1  0.778700  0.885500  0.741000  1
  F  F1161  1  0.287100  0.104100  0.171800  1
  F  F1162  1  0.712900  0.895900  0.828200  1
  F  F1163  1  0.262300  0.029700  0.224900  1
  F  F1164  1  0.737700  0.970300  0.775100  1
  F  F1165  1  0.297800  0.051200  0.276800  1
  F  F1166  1  0.702200  0.948800  0.723200  1
  F  F1167  1  0.360000  0.041600  0.193200  1
  F  F1168  1  0.640000  0.958400  0.806800  1
  F  F1169  1  0.893300  0.382200  0.527600  1
  F  F1170  1  0.106700  0.617800  0.472400  1
  F  F1171  1  0.933000  0.299200  0.501800  1
  F  F1172  1  0.067000  0.700800  0.498200  1
  F  F1173  1  0.988600  0.340800  0.488000  1
  F  F1174  1  0.011400  0.659200  0.512000  1
  F  F1175  1  0.869900  0.376500  0.468500  1
  F  F1176  1  0.130100  0.623500  0.531500  1
  F  F1177  1  0.938700  0.407700  0.451600  1
  F  F1178  1  0.061300  0.592300  0.548400  1
  F  F1179  1  0.966600  0.327400  0.424900  1
  F  F1180  1  0.033400  0.672600  0.575100  1
  F  F1181  1  0.617400  0.696600  0.594500  1
  F  F1182  1  0.382600  0.303400  0.405500  1
  F  F1183  1  0.616800  0.628800  0.662300  1
  F  F1184  1  0.383200  0.371200  0.337700  1
  F  F1185  1  0.698600  0.644200  0.669600  1
  F  F1186  1  0.301400  0.355800  0.330400  1
  F  F1187  1  0.703200  0.618700  0.593500  1
  F  F1188  1  0.296800  0.381300  0.406500  1
  F  F1189  1  0.715300  0.690000  0.600900  1
  F  F1190  1  0.284700  0.310000  0.399100  1
  F  F1191  1  0.630900  0.728800  0.665100  1
  F  F1192  1  0.369100  0.271200  0.334900  1
  F  F1193  1  0.489800  0.544200  0.383500  1
  F  F1194  1  0.510200  0.455800  0.616500  1
  F  F1195  1  0.537100  0.536400  0.297800  1
  F  F1196  1  0.462900  0.463600  0.702200  1
  F  F1197  1  0.473000  0.616600  0.294900  1
  F  F1198  1  0.527000  0.383400  0.705100  1
  F  F1199  1  0.425200  0.622100  0.375700  1
  F  F1200  1  0.574800  0.377900  0.624300  1
  F  F1201  1  0.439900  0.542500  0.340400  1
  F  F1202  1  0.560100  0.457500  0.659600  1
  F  F1203  1  0.532000  0.611100  0.342300  1
  F  F1204  1  0.468000  0.388900  0.657700  1
  F  F1205  1  0.321800  0.634800  0.149800  1
  F  F1206  1  0.678200  0.365200  0.850200  1
  F  F1207  1  0.168500  0.487600  0.005800  1
  F  F1208  1  0.831500  0.512400  0.994200  1
  F  F1209  1  0.218600  0.418100  0.042500  1
  F  F1210  1  0.781400  0.581900  0.957500  1
  F  F1211  1  0.939400  0.221000  0.438500  1
  F  F1212  1  0.060600  0.779000  0.561500  1
  F  F1213  1  0.316000  0.026500  0.184600  1
  F  F1214  1  0.684000  0.973500  0.815400  1
  F  F1215  1  0.253800  0.063000  0.282400  1
  F  F1216  1  0.746200  0.937000  0.717600  1
  F  F1217  1  0.356500  0.046700  0.235100  1
  F  F1218  1  0.643500  0.953300  0.764900  1
  F  F1219  1  0.613300  0.676700  0.727400  1
  F  F1220  1  0.386700  0.323300  0.272600  1
  F  F1221  1  0.642900  0.677100  0.792700  1
  F  F1222  1  0.357100  0.322900  0.207300  1
  F  F1223  1  0.573100  0.746900  0.770300  1
  F  F1224  1  0.426900  0.253100  0.229700  1
  F  F1225  1  0.660300  0.756000  0.755700  1
  F  F1226  1  0.339700  0.244000  0.244300  1
  F  F1227  1  0.716200  0.676200  0.707800  1
  F  F1228  1  0.283800  0.323800  0.292200  1
  F  F1229  1  0.643000  0.762200  0.695400  1
  F  F1230  1  0.357000  0.237800  0.304600  1
  F  F1231  1  0.824100  0.108900  0.477200  1
  F  F1232  1  0.175900  0.891100  0.522800  1
  F  F1233  1  0.858600  0.040100  0.521500  1
  F  F1234  1  0.141400  0.959900  0.478500  1
  F  F1235  1  0.807200  0.088200  0.592200  1
  F  F1236  1  0.192800  0.911800  0.407800  1
  F  F1237  1  0.772900  0.162300  0.544600  1
  F  F1238  1  0.227100  0.837700  0.455400  1
  F  F1239  1  0.758300  0.075200  0.545200  1
  F  F1240  1  0.241700  0.924800  0.454800  1
  F  F1241  1  0.874100  0.119700  0.525400  1
  F  F1242  1  0.125900  0.880300  0.474600  1
  F  F1243  1  0.811000  0.158200  0.506000  1
  F  F1244  1  0.189000  0.841800  0.494000  1
  F  F1245  1  0.742200  0.126500  0.557400  1
  F  F1246  1  0.257800  0.873500  0.442600  1
  F  F1247  1  0.881700  0.094000  0.491700  1
  F  F1248  1  0.118300  0.906000  0.508300  1
