
#######################################################################
#
#                 Cambridge Crystallographic Data Centre
#                                CCDC 
#
#######################################################################
#
# If this CIF has been generated from an entry in the Cambridge 
# Structural Database, then it will include bibliographic, chemical, 
# crystal, experimental, refinement or atomic coordinate data resulting 
# from the CCDC's data processing and validation procedures.
#
#######################################################################

data_UQOYUW
_chemical_formula_moiety         
'C184 H140 Mo8 N28 O52,C100 H88 Mo4 N16 O28,x(C4 H9 N1 O1)'
_chemical_name_systematic        
"octakis(\m-3,3'-((pyridine-2,6-dicarbonyl)bis(azanediyl))dibenzoato)-tetrakis(N,N-dimethylacetamide)-octa-molybdenum tetrakis(\m-3,3'-((pyridine-2,6-dicarbonyl)bis(azanediyl))dibenzoato)-tetrakis(N,N-dimethylacetamide)-tetra-molybdenum clathrate N,N-dimethylacetamide solvate"
_symmetry_cell_setting           tetragonal
_symmetry_space_group_name_H-M   'I 4/m'
_symmetry_Int_Tables_number      87
_space_group_name_Hall           '-I 4'
loop_
_symmetry_equiv_pos_site_id
_symmetry_equiv_pos_as_xyz
1 x,y,z
2 -x,-y,z
3 -y,x,z
4 y,-x,z
5 1/2+x,1/2+y,1/2+z
6 1/2-x,1/2-y,1/2+z
7 1/2-y,1/2+x,1/2+z
8 1/2+y,1/2-x,1/2+z
9 -x,-y,-z
10 x,y,-z
11 y,-x,-z
12 -y,x,-z
13 1/2-x,1/2-y,1/2-z
14 1/2+x,1/2+y,1/2-z
15 1/2+y,1/2-x,1/2-z
16 1/2-y,1/2+x,1/2-z
_cell_length_a                   31.220(10)
_cell_length_b                   31.220(10)
_cell_length_c                   24.656(8)
_cell_angle_alpha                90
_cell_angle_beta                 90
_cell_angle_gamma                90
_cell_volume                     24031.9
_exptl_crystal_colour            'light yellow'
_exptl_crystal_description       rod
_cell_formula_units_Z            2
loop_
_atom_site_label
_atom_site_type_symbol
_atom_site_fract_x
_atom_site_fract_y
_atom_site_fract_z
Mo1 Mo 0.0000 0.0000 0.63245(8)
Mo2 Mo 0.0000 0.0000 0.71727(9)
O1 O 0.0617(2) 0.0229(2) 0.6297(3)
O2 O 0.0642(2) 0.0205(2) 0.7199(3)
O3 O 0.2114(3) 0.1787(4) 0.6413(4)
N1 N 0.2035(5) 0.1677(3) 0.5000
N2 N 0.1807(4) 0.1261(4) 0.5900(5)
H1 H 0.1709 0.1198 0.5575
C1 C 0.0798(4) 0.0290(4) 0.6779(6)
C2 C 0.12246(19) 0.0494(3) 0.6735(3)
C3 C 0.1336(2) 0.0764(3) 0.6310(3)
H2 H 0.1144 0.0800 0.6009
C4 C 0.1724(3) 0.0981(2) 0.6320(3)
C5 C 0.20020(19) 0.0927(3) 0.6756(3)
H3 H 0.2270 0.1077 0.6763
C6 C 0.1891(2) 0.0657(3) 0.7181(3)
H4 H 0.2082 0.0620 0.7482
C7 C 0.1502(2) 0.0440(2) 0.7171(3)
H5 H 0.1425 0.0254 0.7465
C8 C 0.2031(5) 0.1626(7) 0.5965(6)
C9 C 0.2101(4) 0.1886(3) 0.54673(8)
C10 C 0.2246(4) 0.2310(3) 0.54924(7)
H6 H 0.2302 0.2447 0.5833
C11 C 0.2324(7) 0.2518(4) 0.5000
H7 H 0.2415 0.2812 0.5000
O4 O 0.0000 0.0000 0.5415(2)
O5 O 0.0000 0.0000 0.8150(9)
O1I O 0.0617(2) 0.0229(2) 0.3703(3)
O2I O 0.0642(2) 0.0205(2) 0.2801(3)
O3I O 0.2114(3) 0.1787(4) 0.3587(4)
N2I N 0.1807(4) 0.1261(4) 0.4100(5)
H1I H 0.1709 0.1198 0.4425
C1I C 0.0798(4) 0.0290(4) 0.3221(6)
C2I C 0.12246(19) 0.0494(3) 0.3265(3)
C3I C 0.1336(2) 0.0764(3) 0.3690(3)
H2I H 0.1144 0.0800 0.3991
C4I C 0.1724(3) 0.0981(2) 0.3680(3)
C5I C 0.20020(19) 0.0927(3) 0.3244(3)
H3I H 0.2270 0.1077 0.3237
C6I C 0.1891(2) 0.0657(3) 0.2819(3)
H4I H 0.2082 0.0620 0.2518
C7I C 0.1502(2) 0.0440(2) 0.2829(3)
H5I H 0.1425 0.0254 0.2535
C8I C 0.2031(5) 0.1626(7) 0.4035(6)
C9I C 0.2101(4) 0.1886(3) 0.45327(8)
C10I C 0.2246(4) 0.2310(3) 0.45076(7)
H6I H 0.2302 0.2447 0.4167
O1A O -0.0617(2) -0.0229(2) 0.6297(3)
O2A O -0.0642(2) -0.0205(2) 0.7199(3)
O3A O -0.2114(3) -0.1787(4) 0.6413(4)
N1A N -0.2035(5) -0.1677(3) 0.5000
N2A N -0.1807(4) -0.1261(4) 0.5900(5)
H1A H -0.1709 -0.1198 0.5575
C1A C -0.0798(4) -0.0290(4) 0.6779(6)
C2A C -0.12246(19) -0.0494(3) 0.6735(3)
C3A C -0.1336(2) -0.0764(3) 0.6310(3)
H2A H -0.1144 -0.0800 0.6009
C4A C -0.1724(3) -0.0981(2) 0.6320(3)
C5A C -0.20020(19) -0.0927(3) 0.6756(3)
H3A H -0.2270 -0.1077 0.6763
C6A C -0.1891(2) -0.0657(3) 0.7181(3)
H4A H -0.2082 -0.0620 0.7482
C7A C -0.1502(2) -0.0440(2) 0.7171(3)
H5A H -0.1425 -0.0254 0.7465
C8A C -0.2031(5) -0.1626(7) 0.5965(6)
C9A C -0.2101(4) -0.1886(3) 0.54673(8)
C10A C -0.2246(4) -0.2310(3) 0.54924(7)
H6A H -0.2302 -0.2447 0.5833
C11A C -0.2324(7) -0.2518(4) 0.5000
H7A H -0.2415 -0.2812 0.5000
O1H O -0.0617(2) -0.0229(2) 0.3703(3)
O2H O -0.0642(2) -0.0205(2) 0.2801(3)
O3H O -0.2114(3) -0.1787(4) 0.3587(4)
N2H N -0.1807(4) -0.1261(4) 0.4100(5)
H1H H -0.1709 -0.1198 0.4425
C1H C -0.0798(4) -0.0290(4) 0.3221(6)
C2H C -0.12246(19) -0.0494(3) 0.3265(3)
C3H C -0.1336(2) -0.0764(3) 0.3690(3)
H2H H -0.1144 -0.0800 0.3991
C4H C -0.1724(3) -0.0981(2) 0.3680(3)
C5H C -0.20020(19) -0.0927(3) 0.3244(3)
H3H H -0.2270 -0.1077 0.3237
C6H C -0.1891(2) -0.0657(3) 0.2819(3)
H4H H -0.2082 -0.0620 0.2518
C7H C -0.1502(2) -0.0440(2) 0.2829(3)
H5H H -0.1425 -0.0254 0.2535
C8H C -0.2031(5) -0.1626(7) 0.4035(6)
C9H C -0.2101(4) -0.1886(3) 0.45327(8)
C10H C -0.2246(4) -0.2310(3) 0.45076(7)
H6H H -0.2302 -0.2447 0.4167
O1B O -0.0229(2) 0.0617(2) 0.6297(3)
O2B O -0.0205(2) 0.0642(2) 0.7199(3)
O3B O -0.1787(4) 0.2114(3) 0.6413(4)
N1B N -0.1677(3) 0.2035(5) 0.5000
N2B N -0.1261(4) 0.1807(4) 0.5900(5)
H1B H -0.1198 0.1709 0.5575
C1B C -0.0290(4) 0.0798(4) 0.6779(6)
C2B C -0.0494(3) 0.12246(19) 0.6735(3)
C3B C -0.0764(3) 0.1336(2) 0.6310(3)
H2B H -0.0800 0.1144 0.6009
C4B C -0.0981(2) 0.1724(3) 0.6320(3)
C5B C -0.0927(3) 0.20020(19) 0.6756(3)
H3B H -0.1077 0.2270 0.6763
C6B C -0.0657(3) 0.1891(2) 0.7181(3)
H4B H -0.0620 0.2082 0.7482
C7B C -0.0440(2) 0.1502(2) 0.7171(3)
H5B H -0.0254 0.1425 0.7465
C8B C -0.1626(7) 0.2031(5) 0.5965(6)
C9B C -0.1886(3) 0.2101(4) 0.54673(8)
C10B C -0.2310(3) 0.2246(4) 0.54924(7)
H6B H -0.2447 0.2302 0.5833
C11B C -0.2518(4) 0.2324(7) 0.5000
H7B H -0.2812 0.2415 0.5000
O1K O -0.0229(2) 0.0617(2) 0.3703(3)
O2K O -0.0205(2) 0.0642(2) 0.2801(3)
O3K O -0.1787(4) 0.2114(3) 0.3587(4)
N2K N -0.1261(4) 0.1807(4) 0.4100(5)
H1K H -0.1198 0.1709 0.4425
C1K C -0.0290(4) 0.0798(4) 0.3221(6)
C2K C -0.0494(3) 0.12246(19) 0.3265(3)
C3K C -0.0764(3) 0.1336(2) 0.3690(3)
H2K H -0.0800 0.1144 0.3991
C4K C -0.0981(2) 0.1724(3) 0.3680(3)
C5K C -0.0927(3) 0.20020(19) 0.3244(3)
H3K H -0.1077 0.2270 0.3237
C6K C -0.0657(3) 0.1891(2) 0.2819(3)
H4K H -0.0620 0.2082 0.2518
C7K C -0.0440(2) 0.1502(2) 0.2829(3)
H5K H -0.0254 0.1425 0.2535
C8K C -0.1626(7) 0.2031(5) 0.4035(6)
C9K C -0.1886(3) 0.2101(4) 0.45327(8)
C10K C -0.2310(3) 0.2246(4) 0.45076(7)
H6K H -0.2447 0.2302 0.4167
O1C O 0.0229(2) -0.0617(2) 0.6297(3)
O2C O 0.0205(2) -0.0642(2) 0.7199(3)
O3C O 0.1787(4) -0.2114(3) 0.6413(4)
N1C N 0.1677(3) -0.2035(5) 0.5000
N2C N 0.1261(4) -0.1807(4) 0.5900(5)
H1C H 0.1198 -0.1709 0.5575
C1C C 0.0290(4) -0.0798(4) 0.6779(6)
C2C C 0.0494(3) -0.12246(19) 0.6735(3)
C3C C 0.0764(3) -0.1336(2) 0.6310(3)
H2C H 0.0800 -0.1144 0.6009
C4C C 0.0981(2) -0.1724(3) 0.6320(3)
C5C C 0.0927(3) -0.20020(19) 0.6756(3)
H3C H 0.1077 -0.2270 0.6763
C6C C 0.0657(3) -0.1891(2) 0.7181(3)
H4C H 0.0620 -0.2082 0.7482
C7C C 0.0440(2) -0.1502(2) 0.7171(3)
H5C H 0.0254 -0.1425 0.7465
C8C C 0.1626(7) -0.2031(5) 0.5965(6)
C9C C 0.1886(3) -0.2101(4) 0.54673(8)
C10C C 0.2310(3) -0.2246(4) 0.54924(7)
H6C H 0.2447 -0.2302 0.5833
C11C C 0.2518(4) -0.2324(7) 0.5000
H7C H 0.2812 -0.2415 0.5000
O1J O 0.0229(2) -0.0617(2) 0.3703(3)
O2J O 0.0205(2) -0.0642(2) 0.2801(3)
O3J O 0.1787(4) -0.2114(3) 0.3587(4)
N2J N 0.1261(4) -0.1807(4) 0.4100(5)
H1J H 0.1198 -0.1709 0.4425
C1J C 0.0290(4) -0.0798(4) 0.3221(6)
C2J C 0.0494(3) -0.12246(19) 0.3265(3)
C3J C 0.0764(3) -0.1336(2) 0.3690(3)
H2J H 0.0800 -0.1144 0.3991
C4J C 0.0981(2) -0.1724(3) 0.3680(3)
C5J C 0.0927(3) -0.20020(19) 0.3244(3)
H3J H 0.1077 -0.2270 0.3237
C6J C 0.0657(3) -0.1891(2) 0.2819(3)
H4J H 0.0620 -0.2082 0.2518
C7J C 0.0440(2) -0.1502(2) 0.2829(3)
H5J H 0.0254 -0.1425 0.2535
C8J C 0.1626(7) -0.2031(5) 0.4035(6)
C9J C 0.1886(3) -0.2101(4) 0.45327(8)
C10J C 0.2310(3) -0.2246(4) 0.45076(7)
H6J H 0.2447 -0.2302 0.4167
Mo1H Mo 0.0000 0.0000 0.36755(8)
Mo2H Mo 0.0000 0.0000 0.28273(9)
O4H O 0.0000 0.0000 0.4585(2)
O5H O 0.0000 0.0000 0.1850(9)
Mo3 Mo -0.06149(8) 0.25802(7) 0.5000
Mo4 Mo -0.02488(8) 0.31401(7) 0.5000
O6 O 0.2816(3) 0.1021(3) 0.5595(4)
O7 O 0.3397(3) 0.0615(3) 0.5609(4)
O8 O 0.0167(3) 0.2883(3) 0.5580(4)
O9 O -0.0224(3) 0.2296(3) 0.5582(3)
N3 N 0.1519(4) 0.2517(5) 0.6591(5)
H8 H 0.1741 0.2347 0.6633
N4 N 0.2960(4) 0.2226(5) 0.6804(5)
H9 H 0.2693 0.2181 0.6707
C12 C 0.0087(5) 0.2512(5) 0.5730(6)
C13 C 0.0424(3) 0.2315(3) 0.6068(4)
C14 C 0.0807(4) 0.2525(2) 0.6179(4)
H10 H 0.0849 0.2814 0.6055
C15 C 0.1128(3) 0.2318(3) 0.6467(4)
C16 C 0.1067(3) 0.1900(3) 0.6645(4)
H11 H 0.1289 0.1756 0.6844
C17 C 0.0684(3) 0.1689(2) 0.6535(4)
H12 H 0.0642 0.1401 0.6658
C18 C 0.0363(3) 0.1897(3) 0.6247(4)
H13 H 0.0099 0.1752 0.6170
N5 N 0.2283(4) 0.2770(3) 0.6842(3)
C19 C 0.1571(9) 0.2945(10) 0.6681(10)
C20 C 0.1970(3) 0.3061(4) 0.6836(4)
C21 C 0.2021(4) 0.3490(3) 0.6978(5)
H14 H 0.1781 0.3682 0.6969
C22 C 0.2428(5) 0.3626(3) 0.7138(4)
H15 H 0.2473 0.3919 0.7245
C23 C 0.2761(3) 0.3327(4) 0.7149(5)
H16 H 0.3044 0.3412 0.7259
C24 C 0.2668(3) 0.2907(4) 0.6997(4)
C25 C 0.3068(9) 0.2588(9) 0.6994(9)
O10 O 0.1267(5) 0.3176(5) 0.6603(7)
O11 O 0.3408(5) 0.2719(5) 0.7142(5)
C26 C 0.3251(4) 0.1894(4) 0.6691(6)
C27 C 0.3651(4) 0.1845(4) 0.6930(4)
H17 H 0.3752 0.2052 0.7187
C28 C 0.3905(3) 0.1494(5) 0.6798(5)
H18 H 0.4181 0.1460 0.6963
C29 C 0.3759(4) 0.1193(4) 0.6426(5)
H19 H 0.3934 0.0951 0.6334
C30 C 0.3359(4) 0.1243(4) 0.6186(4)
C31 C 0.3105(3) 0.1593(5) 0.6319(5)
H20 H 0.2829 0.1627 0.6153
C32 C 0.3203(7) 0.0949(8) 0.5753(9)
O12 O 0.0149(6) 0.3805(6) 0.5000
Mo3B Mo -0.25802(7) -0.06149(8) 0.5000
Mo4B Mo -0.31401(7) -0.02488(8) 0.5000
O6B O -0.1021(3) 0.2816(3) 0.5595(4)
O7B O -0.0615(3) 0.3397(3) 0.5609(4)
O8B O -0.2883(3) 0.0167(3) 0.5580(4)
O9B O -0.2296(3) -0.0224(3) 0.5582(3)
N3B N -0.2517(5) 0.1519(4) 0.6591(5)
H8B H -0.2347 0.1741 0.6633
N4B N -0.2226(5) 0.2960(4) 0.6804(5)
H9B H -0.2181 0.2693 0.6707
C12B C -0.2512(5) 0.0087(5) 0.5730(6)
C13B C -0.2315(3) 0.0424(3) 0.6068(4)
C14B C -0.2525(2) 0.0807(4) 0.6179(4)
H10B H -0.2814 0.0849 0.6055
C15B C -0.2318(3) 0.1128(3) 0.6467(4)
C16B C -0.1900(3) 0.1067(3) 0.6645(4)
H11B H -0.1756 0.1289 0.6844
C17B C -0.1689(2) 0.0684(3) 0.6535(4)
H12B H -0.1401 0.0642 0.6658
C18B C -0.1897(3) 0.0363(3) 0.6247(4)
H13B H -0.1752 0.0099 0.6170
N5B N -0.2770(3) 0.2283(4) 0.6842(3)
C19B C -0.2945(10) 0.1571(9) 0.6681(10)
C20B C -0.3061(4) 0.1970(3) 0.6836(4)
C21B C -0.3490(3) 0.2021(4) 0.6978(5)
H14B H -0.3682 0.1781 0.6969
C22B C -0.3626(3) 0.2428(5) 0.7138(4)
H15B H -0.3919 0.2473 0.7245
C23B C -0.3327(4) 0.2761(3) 0.7149(5)
H16B H -0.3412 0.3044 0.7259
C24B C -0.2907(4) 0.2668(3) 0.6997(4)
C25B C -0.2588(9) 0.3068(9) 0.6994(9)
O10B O -0.3176(5) 0.1267(5) 0.6603(7)
O11B O -0.2719(5) 0.3408(5) 0.7142(5)
C26B C -0.1894(4) 0.3251(4) 0.6691(6)
C27B C -0.1845(4) 0.3651(4) 0.6930(4)
H17B H -0.2052 0.3752 0.7187
C28B C -0.1494(5) 0.3905(3) 0.6798(5)
H18B H -0.1460 0.4181 0.6963
C29B C -0.1193(4) 0.3759(4) 0.6426(5)
H19B H -0.0951 0.3934 0.6334
C30B C -0.1243(4) 0.3359(4) 0.6186(4)
C31B C -0.1593(5) 0.3105(3) 0.6319(5)
H20B H -0.1627 0.2829 0.6153
C32B C -0.0949(8) 0.3203(7) 0.5753(9)
O12B O -0.3805(6) 0.0149(6) 0.5000
Mo3C Mo 0.25802(7) 0.06149(8) 0.5000
Mo4C Mo 0.31401(7) 0.02488(8) 0.5000
O6C O 0.1021(3) -0.2816(3) 0.5595(4)
O7C O 0.0615(3) -0.3397(3) 0.5609(4)
O8C O 0.2883(3) -0.0167(3) 0.5580(4)
O9C O 0.2296(3) 0.0224(3) 0.5582(3)
N3C N 0.2517(5) -0.1519(4) 0.6591(5)
H8C H 0.2347 -0.1741 0.6633
N4C N 0.2226(5) -0.2960(4) 0.6804(5)
H9C H 0.2181 -0.2693 0.6707
C12C C 0.2512(5) -0.0087(5) 0.5730(6)
C13C C 0.2315(3) -0.0424(3) 0.6068(4)
C14C C 0.2525(2) -0.0807(4) 0.6179(4)
H10C H 0.2814 -0.0849 0.6055
C15C C 0.2318(3) -0.1128(3) 0.6467(4)
C16C C 0.1900(3) -0.1067(3) 0.6645(4)
H11C H 0.1756 -0.1289 0.6844
C17C C 0.1689(2) -0.0684(3) 0.6535(4)
H12C H 0.1401 -0.0642 0.6658
C18C C 0.1897(3) -0.0363(3) 0.6247(4)
H13C H 0.1752 -0.0099 0.6170
N5C N 0.2770(3) -0.2283(4) 0.6842(3)
C19C C 0.2945(10) -0.1571(9) 0.6681(10)
C20C C 0.3061(4) -0.1970(3) 0.6836(4)
C21C C 0.3490(3) -0.2021(4) 0.6978(5)
H14C H 0.3682 -0.1781 0.6969
C22C C 0.3626(3) -0.2428(5) 0.7138(4)
H15C H 0.3919 -0.2473 0.7245
C23C C 0.3327(4) -0.2761(3) 0.7149(5)
H16C H 0.3412 -0.3044 0.7259
C24C C 0.2907(4) -0.2668(3) 0.6997(4)
C25C C 0.2588(9) -0.3068(9) 0.6994(9)
O10C O 0.3176(5) -0.1267(5) 0.6603(7)
O11C O 0.2719(5) -0.3408(5) 0.7142(5)
C26C C 0.1894(4) -0.3251(4) 0.6691(6)
C27C C 0.1845(4) -0.3651(4) 0.6930(4)
H17C H 0.2052 -0.3752 0.7187
C28C C 0.1494(5) -0.3905(3) 0.6798(5)
H18C H 0.1460 -0.4181 0.6963
C29C C 0.1193(4) -0.3759(4) 0.6426(5)
H19C H 0.0951 -0.3934 0.6334
C30C C 0.1243(4) -0.3359(4) 0.6186(4)
C31C C 0.1593(5) -0.3105(3) 0.6319(5)
H20C H 0.1627 -0.2829 0.6153
C32C C 0.0949(8) -0.3203(7) 0.5753(9)
O12C O 0.3805(6) -0.0149(6) 0.5000
O6I O 0.2816(3) 0.1021(3) 0.4405(4)
O7I O 0.3397(3) 0.0615(3) 0.4391(4)
O8I O 0.0167(3) 0.2883(3) 0.4420(4)
O9I O -0.0224(3) 0.2296(3) 0.4418(3)
N3I N 0.1519(4) 0.2517(5) 0.3409(5)
H8I H 0.1741 0.2347 0.3367
N4I N 0.2960(4) 0.2226(5) 0.3196(5)
H9I H 0.2693 0.2181 0.3293
C12I C 0.0087(5) 0.2512(5) 0.4270(6)
C13I C 0.0424(3) 0.2315(3) 0.3932(4)
C14I C 0.0807(4) 0.2525(2) 0.3821(4)
H10I H 0.0849 0.2814 0.3945
C15I C 0.1128(3) 0.2318(3) 0.3533(4)
C16I C 0.1067(3) 0.1900(3) 0.3355(4)
H11I H 0.1289 0.1756 0.3156
C17I C 0.0684(3) 0.1689(2) 0.3465(4)
H12I H 0.0642 0.1401 0.3342
C18I C 0.0363(3) 0.1897(3) 0.3753(4)
H13I H 0.0099 0.1752 0.3830
N5I N 0.2283(4) 0.2770(3) 0.3158(3)
C19I C 0.1571(9) 0.2945(10) 0.3319(10)
C20I C 0.1970(3) 0.3061(4) 0.3164(4)
C21I C 0.2021(4) 0.3490(3) 0.3022(5)
H14I H 0.1781 0.3682 0.3031
C22I C 0.2428(5) 0.3626(3) 0.2862(4)
H15I H 0.2473 0.3919 0.2755
C23I C 0.2761(3) 0.3327(4) 0.2851(5)
H16I H 0.3044 0.3412 0.2741
C24I C 0.2668(3) 0.2907(4) 0.3003(4)
C25I C 0.3068(9) 0.2588(9) 0.3006(9)
O10I O 0.1267(5) 0.3176(5) 0.3397(7)
O11I O 0.3408(5) 0.2719(5) 0.2858(5)
C26I C 0.3251(4) 0.1894(4) 0.3309(6)
C27I C 0.3651(4) 0.1845(4) 0.3070(4)
H17I H 0.3752 0.2052 0.2813
C28I C 0.3905(3) 0.1494(5) 0.3202(5)
H18I H 0.4181 0.1460 0.3037
C29I C 0.3759(4) 0.1193(4) 0.3574(5)
H19I H 0.3934 0.0951 0.3666
C30I C 0.3359(4) 0.1243(4) 0.3814(4)
C31I C 0.3105(3) 0.1593(5) 0.3681(5)
H20I H 0.2829 0.1627 0.3847
C32I C 0.3203(7) 0.0949(8) 0.4247(9)
O6J O 0.1021(3) -0.2816(3) 0.4405(4)
O7J O 0.0615(3) -0.3397(3) 0.4391(4)
O8J O 0.2883(3) -0.0167(3) 0.4420(4)
O9J O 0.2296(3) 0.0224(3) 0.4418(3)
N3J N 0.2517(5) -0.1519(4) 0.3409(5)
H8J H 0.2347 -0.1741 0.3367
N4J N 0.2226(5) -0.2960(4) 0.3196(5)
H9J H 0.2181 -0.2693 0.3293
C12J C 0.2512(5) -0.0087(5) 0.4270(6)
C13J C 0.2315(3) -0.0424(3) 0.3932(4)
C14J C 0.2525(2) -0.0807(4) 0.3821(4)
H10J H 0.2814 -0.0849 0.3945
C15J C 0.2318(3) -0.1128(3) 0.3533(4)
C16J C 0.1900(3) -0.1067(3) 0.3355(4)
H11J H 0.1756 -0.1289 0.3156
C17J C 0.1689(2) -0.0684(3) 0.3465(4)
H12J H 0.1401 -0.0642 0.3342
C18J C 0.1897(3) -0.0363(3) 0.3753(4)
H13J H 0.1752 -0.0099 0.3830
N5J N 0.2770(3) -0.2283(4) 0.3158(3)
C19J C 0.2945(10) -0.1571(9) 0.3319(10)
C20J C 0.3061(4) -0.1970(3) 0.3164(4)
C21J C 0.3490(3) -0.2021(4) 0.3022(5)
H14J H 0.3682 -0.1781 0.3031
C22J C 0.3626(3) -0.2428(5) 0.2862(4)
H15J H 0.3919 -0.2473 0.2755
C23J C 0.3327(4) -0.2761(3) 0.2851(5)
H16J H 0.3412 -0.3044 0.2741
C24J C 0.2907(4) -0.2668(3) 0.3003(4)
C25J C 0.2588(9) -0.3068(9) 0.3006(9)
O10J O 0.3176(5) -0.1267(5) 0.3397(7)
O11J O 0.2719(5) -0.3408(5) 0.2858(5)
C26J C 0.1894(4) -0.3251(4) 0.3309(6)
C27J C 0.1845(4) -0.3651(4) 0.3070(4)
H17J H 0.2052 -0.3752 0.2813
C28J C 0.1494(5) -0.3905(3) 0.3202(5)
H18J H 0.1460 -0.4181 0.3037
C29J C 0.1193(4) -0.3759(4) 0.3574(5)
H19J H 0.0951 -0.3934 0.3666
C30J C 0.1243(4) -0.3359(4) 0.3814(4)
C31J C 0.1593(5) -0.3105(3) 0.3681(5)
H20J H 0.1627 -0.2829 0.3847
C32J C 0.0949(8) -0.3203(7) 0.4247(9)
O6K O -0.1021(3) 0.2816(3) 0.4405(4)
O7K O -0.0615(3) 0.3397(3) 0.4391(4)
O8K O -0.2883(3) 0.0167(3) 0.4420(4)
O9K O -0.2296(3) -0.0224(3) 0.4418(3)
N3K N -0.2517(5) 0.1519(4) 0.3409(5)
H8K H -0.2347 0.1741 0.3367
N4K N -0.2226(5) 0.2960(4) 0.3196(5)
H9K H -0.2181 0.2693 0.3293
C12K C -0.2512(5) 0.0087(5) 0.4270(6)
C13K C -0.2315(3) 0.0424(3) 0.3932(4)
C14K C -0.2525(2) 0.0807(4) 0.3821(4)
H10K H -0.2814 0.0849 0.3945
C15K C -0.2318(3) 0.1128(3) 0.3533(4)
C16K C -0.1900(3) 0.1067(3) 0.3355(4)
H11K H -0.1756 0.1289 0.3156
C17K C -0.1689(2) 0.0684(3) 0.3465(4)
H12K H -0.1401 0.0642 0.3342
C18K C -0.1897(3) 0.0363(3) 0.3753(4)
H13K H -0.1752 0.0099 0.3830
N5K N -0.2770(3) 0.2283(4) 0.3158(3)
C19K C -0.2945(10) 0.1571(9) 0.3319(10)
C20K C -0.3061(4) 0.1970(3) 0.3164(4)
C21K C -0.3490(3) 0.2021(4) 0.3022(5)
H14K H -0.3682 0.1781 0.3031
C22K C -0.3626(3) 0.2428(5) 0.2862(4)
H15K H -0.3919 0.2473 0.2755
C23K C -0.3327(4) 0.2761(3) 0.2851(5)
H16K H -0.3412 0.3044 0.2741
C24K C -0.2907(4) 0.2668(3) 0.3003(4)
C25K C -0.2588(9) 0.3068(9) 0.3006(9)
O10K O -0.3176(5) 0.1267(5) 0.3397(7)
O11K O -0.2719(5) 0.3408(5) 0.2858(5)
C26K C -0.1894(4) 0.3251(4) 0.3309(6)
C27K C -0.1845(4) 0.3651(4) 0.3070(4)
H17K H -0.2052 0.3752 0.2813
C28K C -0.1494(5) 0.3905(3) 0.3202(5)
H18K H -0.1460 0.4181 0.3037
C29K C -0.1193(4) 0.3759(4) 0.3574(5)
H19K H -0.0951 0.3934 0.3666
C30K C -0.1243(4) 0.3359(4) 0.3814(4)
C31K C -0.1593(5) 0.3105(3) 0.3681(5)
H20K H -0.1627 0.2829 0.3847
C32K C -0.0949(8) 0.3203(7) 0.4247(9)
Mo3A Mo 0.06149(8) -0.25802(7) 0.5000
Mo4A Mo 0.02488(8) -0.31401(7) 0.5000
O6A O -0.2816(3) -0.1021(3) 0.5595(4)
O7A O -0.3397(3) -0.0615(3) 0.5609(4)
O8A O -0.0167(3) -0.2883(3) 0.5580(4)
O9A O 0.0224(3) -0.2296(3) 0.5582(3)
N3A N -0.1519(4) -0.2517(5) 0.6591(5)
H8A H -0.1741 -0.2347 0.6633
N4A N -0.2960(4) -0.2226(5) 0.6804(5)
H9A H -0.2693 -0.2181 0.6707
C12A C -0.0087(5) -0.2512(5) 0.5730(6)
C13A C -0.0424(3) -0.2315(3) 0.6068(4)
C14A C -0.0807(4) -0.2525(2) 0.6179(4)
H10A H -0.0849 -0.2814 0.6055
C15A C -0.1128(3) -0.2318(3) 0.6467(4)
C16A C -0.1067(3) -0.1900(3) 0.6645(4)
H11A H -0.1289 -0.1756 0.6844
C17A C -0.0684(3) -0.1689(2) 0.6535(4)
H12A H -0.0642 -0.1401 0.6658
C18A C -0.0363(3) -0.1897(3) 0.6247(4)
H13A H -0.0099 -0.1752 0.6170
N5A N -0.2283(4) -0.2770(3) 0.6842(3)
C19A C -0.1571(9) -0.2945(10) 0.6681(10)
C20A C -0.1970(3) -0.3061(4) 0.6836(4)
C21A C -0.2021(4) -0.3490(3) 0.6978(5)
H14A H -0.1781 -0.3682 0.6969
C22A C -0.2428(5) -0.3626(3) 0.7138(4)
H15A H -0.2473 -0.3919 0.7245
C23A C -0.2761(3) -0.3327(4) 0.7149(5)
H16A H -0.3044 -0.3412 0.7259
C24A C -0.2668(3) -0.2907(4) 0.6997(4)
C25A C -0.3068(9) -0.2588(9) 0.6994(9)
O10A O -0.1267(5) -0.3176(5) 0.6603(7)
O11A O -0.3408(5) -0.2719(5) 0.7142(5)
C26A C -0.3251(4) -0.1894(4) 0.6691(6)
C27A C -0.3651(4) -0.1845(4) 0.6930(4)
H17A H -0.3752 -0.2052 0.7187
C28A C -0.3905(3) -0.1494(5) 0.6798(5)
H18A H -0.4181 -0.1460 0.6963
C29A C -0.3759(4) -0.1193(4) 0.6426(5)
H19A H -0.3934 -0.0951 0.6334
C30A C -0.3359(4) -0.1243(4) 0.6186(4)
C31A C -0.3105(3) -0.1593(5) 0.6319(5)
H20A H -0.2829 -0.1627 0.6153
C32A C -0.3203(7) -0.0949(8) 0.5753(9)
O12A O -0.0149(6) -0.3805(6) 0.5000
O6H O -0.2816(3) -0.1021(3) 0.4405(4)
O7H O -0.3397(3) -0.0615(3) 0.4391(4)
O8H O -0.0167(3) -0.2883(3) 0.4420(4)
O9H O 0.0224(3) -0.2296(3) 0.4418(3)
N3H N -0.1519(4) -0.2517(5) 0.3409(5)
H8H H -0.1741 -0.2347 0.3367
N4H N -0.2960(4) -0.2226(5) 0.3196(5)
H9H H -0.2693 -0.2181 0.3293
C12H C -0.0087(5) -0.2512(5) 0.4270(6)
C13H C -0.0424(3) -0.2315(3) 0.3932(4)
C14H C -0.0807(4) -0.2525(2) 0.3821(4)
H10H H -0.0849 -0.2814 0.3945
C15H C -0.1128(3) -0.2318(3) 0.3533(4)
C16H C -0.1067(3) -0.1900(3) 0.3355(4)
H11H H -0.1289 -0.1756 0.3156
C17H C -0.0684(3) -0.1689(2) 0.3465(4)
H12H H -0.0642 -0.1401 0.3342
C18H C -0.0363(3) -0.1897(3) 0.3753(4)
H13H H -0.0099 -0.1752 0.3830
N5H N -0.2283(4) -0.2770(3) 0.3158(3)
C19H C -0.1571(9) -0.2945(10) 0.3319(10)
C20H C -0.1970(3) -0.3061(4) 0.3164(4)
C21H C -0.2021(4) -0.3490(3) 0.3022(5)
H14H H -0.1781 -0.3682 0.3031
C22H C -0.2428(5) -0.3626(3) 0.2862(4)
H15H H -0.2473 -0.3919 0.2755
C23H C -0.2761(3) -0.3327(4) 0.2851(5)
H16H H -0.3044 -0.3412 0.2741
C24H C -0.2668(3) -0.2907(4) 0.3003(4)
C25H C -0.3068(9) -0.2588(9) 0.3006(9)
O10H O -0.1267(5) -0.3176(5) 0.3397(7)
O11H O -0.3408(5) -0.2719(5) 0.2858(5)
C26H C -0.3251(4) -0.1894(4) 0.3309(6)
C27H C -0.3651(4) -0.1845(4) 0.3070(4)
H17H H -0.3752 -0.2052 0.2813
C28H C -0.3905(3) -0.1494(5) 0.3202(5)
H18H H -0.4181 -0.1460 0.3037
C29H C -0.3759(4) -0.1193(4) 0.3574(5)
H19H H -0.3934 -0.0951 0.3666
C30H C -0.3359(4) -0.1243(4) 0.3814(4)
C31H C -0.3105(3) -0.1593(5) 0.3681(5)
H20H H -0.2829 -0.1627 0.3847
C32H C -0.3203(7) -0.0949(8) 0.4247(9)
loop_
_geom_bond_atom_site_label_1
_geom_bond_atom_site_label_2
_geom_bond_site_symmetry_1
_geom_bond_site_symmetry_2
Mo1 Mo2 1_555 1_555
Mo2 O2 1_555 1_555
O1 Mo1 1_555 1_555
O2 C1 1_555 1_555
O3 C8 1_555 1_555
N1 C9 1_555 1_555
N2 H1 1_555 1_555
C1 O1 1_555 1_555
C2 C1 1_555 1_555
C3 C2 1_555 1_555
H2 C3 1_555 1_555
C4 N2 1_555 1_555
C5 C4 1_555 1_555
H3 C5 1_555 1_555
C6 C5 1_555 1_555
H4 C6 1_555 1_555
C7 C2 1_555 1_555
H5 C7 1_555 1_555
C8 N2 1_555 1_555
C9 C8 1_555 1_555
C10 C9 1_555 1_555
H6 C10 1_555 1_555
C11 C10 1_555 1_555
H7 C11 1_555 1_555
O4 Mo1 1_555 1_555
O5 Mo2 1_555 1_555
Mo3 Mo4 1_555 1_555
Mo4 O8 1_555 1_555
O6 C32 1_555 1_555
O7 C32 1_555 1_555
O8 C12 1_555 1_555
O9 Mo3 1_555 1_555
N3 H8 1_555 1_555
N4 H9 1_555 1_555
C12 O9 1_555 1_555
C13 C12 1_555 1_555
C14 C13 1_555 1_555
H10 C14 1_555 1_555
C15 N3 1_555 1_555
C16 C15 1_555 1_555
H11 C16 1_555 1_555
C17 C16 1_555 1_555
H12 C17 1_555 1_555
C18 C13 1_555 1_555
H13 C18 1_555 1_555
N5 C20 1_555 1_555
C19 N3 1_555 1_555
C20 C19 1_555 1_555
C21 C20 1_555 1_555
H14 C21 1_555 1_555
C22 C21 1_555 1_555
H15 C22 1_555 1_555
C23 C22 1_555 1_555
H16 C23 1_555 1_555
C24 N5 1_555 1_555
C25 N4 1_555 1_555
O10 C19 1_555 1_555
O11 C25 1_555 1_555
C26 N4 1_555 1_555
C27 C26 1_555 1_555
H17 C27 1_555 1_555
C28 C27 1_555 1_555
H18 C28 1_555 1_555
C29 C28 1_555 1_555
H19 C29 1_555 1_555
C30 C29 1_555 1_555
C31 C26 1_555 1_555
H20 C31 1_555 1_555
C32 C30 1_555 1_555
O12 Mo4 1_555 1_555
O1I C1I 1_555 1_555
O2I C1I 1_555 1_555
O3I C8I 1_555 1_555
N2I H1I 1_555 1_555
C1I C2I 1_555 1_555
C2I C3I 1_555 1_555
C3I H2I 1_555 1_555
C4I N2I 1_555 1_555
C5I C4I 1_555 1_555
H3I C5I 1_555 1_555
C6I C5I 1_555 1_555
H4I C6I 1_555 1_555
C7I C2I 1_555 1_555
H5I C7I 1_555 1_555
C8I N2I 1_555 1_555
C9I N1 1_555 1_555
C10I C11 1_555 1_555
H6I C10I 1_555 1_555
O1A Mo1 1_555 1_555
O2A Mo2 1_555 1_555
O3A C8A 1_555 1_555
N1A C9A 1_555 1_555
N2A H1A 1_555 1_555
C1A O1A 1_555 1_555
C2A C1A 1_555 1_555
C3A C2A 1_555 1_555
H2A C3A 1_555 1_555
C4A N2A 1_555 1_555
C5A C4A 1_555 1_555
H3A C5A 1_555 1_555
C6A C5A 1_555 1_555
H4A C6A 1_555 1_555
C7A C2A 1_555 1_555
H5A C7A 1_555 1_555
C8A N2A 1_555 1_555
C9A C8A 1_555 1_555
C10A C9A 1_555 1_555
H6A C10A 1_555 1_555
C11A C10A 1_555 1_555
H7A C11A 1_555 1_555
O1H C1H 1_555 1_555
O2H C1H 1_555 1_555
O3H C8H 1_555 1_555
N2H H1H 1_555 1_555
C1H C2H 1_555 1_555
C2H C3H 1_555 1_555
C3H H2H 1_555 1_555
C4H N2H 1_555 1_555
C5H C4H 1_555 1_555
H3H C5H 1_555 1_555
C6H C5H 1_555 1_555
H4H C6H 1_555 1_555
C7H C2H 1_555 1_555
H5H C7H 1_555 1_555
C8H N2H 1_555 1_555
C9H N1A 1_555 1_555
C10H C11A 1_555 1_555
H6H C10H 1_555 1_555
O1B Mo1 1_555 1_555
O2B Mo2 1_555 1_555
O3B C8B 1_555 1_555
N1B C9B 1_555 1_555
N2B H1B 1_555 1_555
C1B O1B 1_555 1_555
C2B C1B 1_555 1_555
C3B C2B 1_555 1_555
H2B C3B 1_555 1_555
C4B N2B 1_555 1_555
C5B C4B 1_555 1_555
H3B C5B 1_555 1_555
C6B C5B 1_555 1_555
H4B C6B 1_555 1_555
C7B C2B 1_555 1_555
H5B C7B 1_555 1_555
C8B N2B 1_555 1_555
C9B C8B 1_555 1_555
C10B C9B 1_555 1_555
H6B C10B 1_555 1_555
C11B C10B 1_555 1_555
H7B C11B 1_555 1_555
O1K C1K 1_555 1_555
O2K C1K 1_555 1_555
O3K C8K 1_555 1_555
N2K H1K 1_555 1_555
C1K C2K 1_555 1_555
C2K C3K 1_555 1_555
C3K H2K 1_555 1_555
C4K N2K 1_555 1_555
C5K C4K 1_555 1_555
H3K C5K 1_555 1_555
C6K C5K 1_555 1_555
H4K C6K 1_555 1_555
C7K C2K 1_555 1_555
H5K C7K 1_555 1_555
C8K N2K 1_555 1_555
C9K N1B 1_555 1_555
C10K C11B 1_555 1_555
H6K C10K 1_555 1_555
O1C Mo1 1_555 1_555
O2C Mo2 1_555 1_555
O3C C8C 1_555 1_555
N1C C9C 1_555 1_555
N2C H1C 1_555 1_555
C1C O1C 1_555 1_555
C2C C1C 1_555 1_555
C3C C2C 1_555 1_555
H2C C3C 1_555 1_555
C4C N2C 1_555 1_555
C5C C4C 1_555 1_555
H3C C5C 1_555 1_555
C6C C5C 1_555 1_555
H4C C6C 1_555 1_555
C7C C2C 1_555 1_555
H5C C7C 1_555 1_555
C8C N2C 1_555 1_555
C9C C8C 1_555 1_555
C10C C9C 1_555 1_555
H6C C10C 1_555 1_555
C11C C10C 1_555 1_555
H7C C11C 1_555 1_555
O1J C1J 1_555 1_555
O2J C1J 1_555 1_555
O3J C8J 1_555 1_555
N2J H1J 1_555 1_555
C1J C2J 1_555 1_555
C2J C3J 1_555 1_555
C3J H2J 1_555 1_555
C4J N2J 1_555 1_555
C5J C4J 1_555 1_555
H3J C5J 1_555 1_555
C6J C5J 1_555 1_555
H4J C6J 1_555 1_555
C7J C2J 1_555 1_555
H5J C7J 1_555 1_555
C8J N2J 1_555 1_555
C9J N1C 1_555 1_555
C10J C11C 1_555 1_555
H6J C10J 1_555 1_555
Mo1H O1I 1_555 1_555
Mo2H O2I 1_555 1_555
O4H Mo1H 1_555 1_555
O5H Mo2H 1_555 1_555
Mo3B Mo4B 1_555 1_555
Mo4B O8B 1_555 1_555
O6B Mo3 1_555 1_555
O7B Mo4 1_555 1_555
O8B C12B 1_555 1_555
O9B Mo3B 1_555 1_555
N3B H8B 1_555 1_555
N4B H9B 1_555 1_555
C12B O9B 1_555 1_555
C13B C12B 1_555 1_555
C14B C13B 1_555 1_555
H10B C14B 1_555 1_555
C15B N3B 1_555 1_555
C16B C15B 1_555 1_555
H11B C16B 1_555 1_555
C17B C16B 1_555 1_555
H12B C17B 1_555 1_555
C18B C13B 1_555 1_555
H13B C18B 1_555 1_555
N5B C20B 1_555 1_555
C19B N3B 1_555 1_555
C20B C19B 1_555 1_555
C21B C20B 1_555 1_555
H14B C21B 1_555 1_555
C22B C21B 1_555 1_555
H15B C22B 1_555 1_555
C23B C22B 1_555 1_555
H16B C23B 1_555 1_555
C24B N5B 1_555 1_555
C25B N4B 1_555 1_555
O10B C19B 1_555 1_555
O11B C25B 1_555 1_555
C26B N4B 1_555 1_555
C27B C26B 1_555 1_555
H17B C27B 1_555 1_555
C28B C27B 1_555 1_555
H18B C28B 1_555 1_555
C29B C28B 1_555 1_555
H19B C29B 1_555 1_555
C30B C29B 1_555 1_555
C31B C26B 1_555 1_555
H20B C31B 1_555 1_555
C32B O6B 1_555 1_555
O12B Mo4B 1_555 1_555
Mo3C O6 1_555 1_555
Mo4C O7 1_555 1_555
O6C C32C 1_555 1_555
O7C C32C 1_555 1_555
O8C Mo4C 1_555 1_555
O9C Mo3C 1_555 1_555
N3C H8C 1_555 1_555
N4C H9C 1_555 1_555
C12C O8C 1_555 1_555
C13C C12C 1_555 1_555
C14C C13C 1_555 1_555
H10C C14C 1_555 1_555
C15C N3C 1_555 1_555
C16C C15C 1_555 1_555
H11C C16C 1_555 1_555
C17C C16C 1_555 1_555
H12C C17C 1_555 1_555
C18C C13C 1_555 1_555
H13C C18C 1_555 1_555
N5C C20C 1_555 1_555
C19C N3C 1_555 1_555
C20C C19C 1_555 1_555
C21C C20C 1_555 1_555
H14C C21C 1_555 1_555
C22C C21C 1_555 1_555
H15C C22C 1_555 1_555
C23C C22C 1_555 1_555
H16C C23C 1_555 1_555
C24C N5C 1_555 1_555
C25C N4C 1_555 1_555
O10C C19C 1_555 1_555
O11C C25C 1_555 1_555
C26C N4C 1_555 1_555
C27C C26C 1_555 1_555
H17C C27C 1_555 1_555
C28C C27C 1_555 1_555
H18C C28C 1_555 1_555
C29C C28C 1_555 1_555
H19C C29C 1_555 1_555
C30C C29C 1_555 1_555
C31C C26C 1_555 1_555
H20C C31C 1_555 1_555
C32C C30C 1_555 1_555
O12C Mo4C 1_555 1_555
O6I Mo3C 1_555 1_555
O7I Mo4C 1_555 1_555
O8I Mo4 1_555 1_555
O9I Mo3 1_555 1_555
N3I H8I 1_555 1_555
N4I H9I 1_555 1_555
C12I O8I 1_555 1_555
C13I C12I 1_555 1_555
C14I C13I 1_555 1_555
H10I C14I 1_555 1_555
C15I N3I 1_555 1_555
C16I C15I 1_555 1_555
H11I C16I 1_555 1_555
C17I C16I 1_555 1_555
H12I C17I 1_555 1_555
C18I C13I 1_555 1_555
H13I C18I 1_555 1_555
N5I C20I 1_555 1_555
C19I N3I 1_555 1_555
C20I C19I 1_555 1_555
C21I C20I 1_555 1_555
H14I C21I 1_555 1_555
C22I C21I 1_555 1_555
H15I C22I 1_555 1_555
C23I C22I 1_555 1_555
H16I C23I 1_555 1_555
C24I N5I 1_555 1_555
C25I N4I 1_555 1_555
O10I C19I 1_555 1_555
O11I C25I 1_555 1_555
C26I N4I 1_555 1_555
C27I C26I 1_555 1_555
H17I C27I 1_555 1_555
C28I C27I 1_555 1_555
H18I C28I 1_555 1_555
C29I C28I 1_555 1_555
H19I C29I 1_555 1_555
C30I C29I 1_555 1_555
C31I C26I 1_555 1_555
H20I C31I 1_555 1_555
C32I O6I 1_555 1_555
O6J C32J 1_555 1_555
O7J C32J 1_555 1_555
O8J Mo4C 1_555 1_555
O9J Mo3C 1_555 1_555
N3J H8J 1_555 1_555
N4J H9J 1_555 1_555
C12J O8J 1_555 1_555
C13J C12J 1_555 1_555
C14J C13J 1_555 1_555
H10J C14J 1_555 1_555
C15J N3J 1_555 1_555
C16J C15J 1_555 1_555
H11J C16J 1_555 1_555
C17J C16J 1_555 1_555
H12J C17J 1_555 1_555
C18J C13J 1_555 1_555
H13J C18J 1_555 1_555
N5J C20J 1_555 1_555
C19J N3J 1_555 1_555
C20J C19J 1_555 1_555
C21J C20J 1_555 1_555
H14J C21J 1_555 1_555
C22J C21J 1_555 1_555
H15J C22J 1_555 1_555
C23J C22J 1_555 1_555
H16J C23J 1_555 1_555
C24J N5J 1_555 1_555
C25J N4J 1_555 1_555
O10J C19J 1_555 1_555
O11J C25J 1_555 1_555
C26J N4J 1_555 1_555
C27J C26J 1_555 1_555
H17J C27J 1_555 1_555
C28J C27J 1_555 1_555
H18J C28J 1_555 1_555
C29J C28J 1_555 1_555
H19J C29J 1_555 1_555
C30J C29J 1_555 1_555
C31J C26J 1_555 1_555
H20J C31J 1_555 1_555
C32J C30J 1_555 1_555
O6K Mo3 1_555 1_555
O7K Mo4 1_555 1_555
O8K Mo4B 1_555 1_555
O9K Mo3B 1_555 1_555
N3K H8K 1_555 1_555
N4K H9K 1_555 1_555
C12K O8K 1_555 1_555
C13K C12K 1_555 1_555
C14K C13K 1_555 1_555
H10K C14K 1_555 1_555
C15K N3K 1_555 1_555
C16K C15K 1_555 1_555
H11K C16K 1_555 1_555
C17K C16K 1_555 1_555
H12K C17K 1_555 1_555
C18K C13K 1_555 1_555
H13K C18K 1_555 1_555
N5K C20K 1_555 1_555
C19K N3K 1_555 1_555
C20K C19K 1_555 1_555
C21K C20K 1_555 1_555
H14K C21K 1_555 1_555
C22K C21K 1_555 1_555
H15K C22K 1_555 1_555
C23K C22K 1_555 1_555
H16K C23K 1_555 1_555
C24K N5K 1_555 1_555
C25K N4K 1_555 1_555
O10K C19K 1_555 1_555
O11K C25K 1_555 1_555
C26K N4K 1_555 1_555
C27K C26K 1_555 1_555
H17K C27K 1_555 1_555
C28K C27K 1_555 1_555
H18K C28K 1_555 1_555
C29K C28K 1_555 1_555
H19K C29K 1_555 1_555
C30K C29K 1_555 1_555
C31K C26K 1_555 1_555
H20K C31K 1_555 1_555
C32K O6K 1_555 1_555
Mo3A O6C 1_555 1_555
Mo4A O7C 1_555 1_555
O6A Mo3B 1_555 1_555
O7A Mo4B 1_555 1_555
O8A Mo4A 1_555 1_555
O9A Mo3A 1_555 1_555
N3A H8A 1_555 1_555
N4A H9A 1_555 1_555
C12A O8A 1_555 1_555
C13A C12A 1_555 1_555
C14A C13A 1_555 1_555
H10A C14A 1_555 1_555
C15A N3A 1_555 1_555
C16A C15A 1_555 1_555
H11A C16A 1_555 1_555
C17A C16A 1_555 1_555
H12A C17A 1_555 1_555
C18A C13A 1_555 1_555
H13A C18A 1_555 1_555
N5A C20A 1_555 1_555
C19A N3A 1_555 1_555
C20A C19A 1_555 1_555
C21A C20A 1_555 1_555
H14A C21A 1_555 1_555
C22A C21A 1_555 1_555
H15A C22A 1_555 1_555
C23A C22A 1_555 1_555
H16A C23A 1_555 1_555
C24A N5A 1_555 1_555
C25A N4A 1_555 1_555
O10A C19A 1_555 1_555
O11A C25A 1_555 1_555
C26A N4A 1_555 1_555
C27A C26A 1_555 1_555
H17A C27A 1_555 1_555
C28A C27A 1_555 1_555
H18A C28A 1_555 1_555
C29A C28A 1_555 1_555
H19A C29A 1_555 1_555
C30A C29A 1_555 1_555
C31A C26A 1_555 1_555
H20A C31A 1_555 1_555
C32A O6A 1_555 1_555
O12A Mo4A 1_555 1_555
O6H Mo3B 1_555 1_555
O7H Mo4B 1_555 1_555
O8H Mo4A 1_555 1_555
O9H Mo3A 1_555 1_555
N3H H8H 1_555 1_555
N4H H9H 1_555 1_555
C12H O8H 1_555 1_555
C13H C12H 1_555 1_555
C14H C13H 1_555 1_555
H10H C14H 1_555 1_555
C15H N3H 1_555 1_555
C16H C15H 1_555 1_555
H11H C16H 1_555 1_555
C17H C16H 1_555 1_555
H12H C17H 1_555 1_555
C18H C13H 1_555 1_555
H13H C18H 1_555 1_555
N5H C20H 1_555 1_555
C19H N3H 1_555 1_555
C20H C19H 1_555 1_555
C21H C20H 1_555 1_555
H14H C21H 1_555 1_555
C22H C21H 1_555 1_555
H15H C22H 1_555 1_555
C23H C22H 1_555 1_555
H16H C23H 1_555 1_555
C24H N5H 1_555 1_555
C25H N4H 1_555 1_555
O10H C19H 1_555 1_555
O11H C25H 1_555 1_555
C26H N4H 1_555 1_555
C27H C26H 1_555 1_555
H17H C27H 1_555 1_555
C28H C27H 1_555 1_555
H18H C28H 1_555 1_555
C29H C28H 1_555 1_555
H19H C29H 1_555 1_555
C30H C29H 1_555 1_555
C31H C26H 1_555 1_555
H20H C31H 1_555 1_555
C32H O6H 1_555 1_555
C3 C4 1_555 1_555
C6 C7 1_555 1_555
C14 C15 1_555 1_555
C17 C18 1_555 1_555
C23 C24 1_555 1_555
C24 C25 1_555 1_555
C30 C31 1_555 1_555
C3I C4I 1_555 1_555
C6I C7I 1_555 1_555
C8I C9I 1_555 1_555
C9I C10I 1_555 1_555
O2A C1A 1_555 1_555
C3A C4A 1_555 1_555
C6A C7A 1_555 1_555
O1H Mo1H 1_555 1_555
O2H Mo2H 1_555 1_555
C3H C4H 1_555 1_555
C6H C7H 1_555 1_555
C8H C9H 1_555 1_555
C9H C10H 1_555 1_555
O2B C1B 1_555 1_555
C3B C4B 1_555 1_555
C6B C7B 1_555 1_555
O1K Mo1H 1_555 1_555
O2K Mo2H 1_555 1_555
C3K C4K 1_555 1_555
C6K C7K 1_555 1_555
C8K C9K 1_555 1_555
C9K C10K 1_555 1_555
O2C C1C 1_555 1_555
C3C C4C 1_555 1_555
C6C C7C 1_555 1_555
O1J Mo1H 1_555 1_555
O2J Mo2H 1_555 1_555
C3J C4J 1_555 1_555
C6J C7J 1_555 1_555
C8J C9J 1_555 1_555
C9J C10J 1_555 1_555
Mo1H Mo2H 1_555 1_555
O7B C32B 1_555 1_555
C14B C15B 1_555 1_555
C17B C18B 1_555 1_555
C23B C24B 1_555 1_555
C24B C25B 1_555 1_555
C30B C31B 1_555 1_555
C30B C32B 1_555 1_555
Mo3C Mo4C 1_555 1_555
O9C C12C 1_555 1_555
C14C C15C 1_555 1_555
C17C C18C 1_555 1_555
C23C C24C 1_555 1_555
C24C C25C 1_555 1_555
C30C C31C 1_555 1_555
O7I C32I 1_555 1_555
O9I C12I 1_555 1_555
C14I C15I 1_555 1_555
C17I C18I 1_555 1_555
C23I C24I 1_555 1_555
C24I C25I 1_555 1_555
C30I C31I 1_555 1_555
C30I C32I 1_555 1_555
O6J Mo3A 1_555 1_555
O7J Mo4A 1_555 1_555
O9J C12J 1_555 1_555
C14J C15J 1_555 1_555
C17J C18J 1_555 1_555
C23J C24J 1_555 1_555
C24J C25J 1_555 1_555
C30J C31J 1_555 1_555
O7K C32K 1_555 1_555
O9K C12K 1_555 1_555
C14K C15K 1_555 1_555
C17K C18K 1_555 1_555
C23K C24K 1_555 1_555
C24K C25K 1_555 1_555
C30K C31K 1_555 1_555
C30K C32K 1_555 1_555
Mo3A Mo4A 1_555 1_555
O7A C32A 1_555 1_555
O9A C12A 1_555 1_555
C14A C15A 1_555 1_555
C17A C18A 1_555 1_555
C23A C24A 1_555 1_555
C24A C25A 1_555 1_555
C30A C31A 1_555 1_555
C30A C32A 1_555 1_555
O7H C32H 1_555 1_555
O9H C12H 1_555 1_555
C14H C15H 1_555 1_555
C17H C18H 1_555 1_555
C23H C24H 1_555 1_555
C24H C25H 1_555 1_555
C30H C31H 1_555 1_555
C30H C32H 1_555 1_555

#END
