
#######################################################################
#
#                 Cambridge Crystallographic Data Centre
#                                CCDC 
#
#######################################################################
#
# If this CIF has been generated from an entry in the Cambridge 
# Structural Database, then it will include bibliographic, chemical, 
# crystal, experimental, refinement or atomic coordinate data resulting 
# from the CCDC's data processing and validation procedures.
#
#######################################################################

data_UQOYIK
_chemical_name_common            'MOP 2'
_chemical_formula_moiety         'C200 H176 Cu8 N32 O56,x(C4 H9 N1 O1)'
_chemical_name_systematic        
"octakis(\m-3,3'-((pyridine-2,6-dicarbonyl)bis(azanediyl))dibenzoato)-octakis(N,N-dimethylacetamide)-octa-copper N,N-dimethylacetamide solvate"
_symmetry_cell_setting           orthorhombic
_symmetry_space_group_name_H-M   'C m c a'
_symmetry_Int_Tables_number      64
_space_group_name_Hall           '-C 2ac 2'
loop_
_symmetry_equiv_pos_site_id
_symmetry_equiv_pos_as_xyz
1 x,y,z
2 -x,1/2-y,1/2+z
3 x,-y,-z
4 -x,1/2+y,1/2-z
5 1/2+x,1/2+y,z
6 1/2-x,-y,1/2+z
7 1/2+x,1/2-y,-z
8 1/2-x,y,1/2-z
9 -x,-y,-z
10 x,1/2+y,1/2-z
11 -x,y,z
12 x,1/2-y,1/2+z
13 1/2-x,1/2-y,-z
14 1/2+x,y,1/2-z
15 1/2-x,1/2+y,z
16 1/2+x,-y,1/2+z
_cell_length_a                   23.524(5)
_cell_length_b                   31.791(7)
_cell_length_c                   48.797(10)
_cell_angle_alpha                90
_cell_angle_beta                 90
_cell_angle_gamma                90
_cell_volume                     36492.9
_exptl_crystal_colour            green
_exptl_crystal_description       octahedron
_cell_formula_units_Z            4
loop_
_atom_site_label
_atom_site_type_symbol
_atom_site_fract_x
_atom_site_fract_y
_atom_site_fract_z
Cu1 Cu 0.5000 -0.47571(4) 0.15099(3)
Cu2 Cu 0.5000 -0.41031(5) 0.18423(4)
Cu3 Cu 0.5000 -0.20507(6) -0.05194(3)
Cu4 Cu 0.5000 -0.25950(6) -0.01052(3)
O1 O 0.5000 -0.5329(3) 0.12386(17)
O2 O 0.4407(2) -0.44579(13) 0.12916(11)
O3 O 0.4407(3) -0.39215(18) 0.15919(16)
O4 O 0.4433(3) -0.1750(2) -0.03142(12)
O5 O 0.5000 -0.3530(3) 0.20643(17)
O6 O 0.5000 -0.1535(3) -0.08388(17)
O7 O 0.5000 -0.2994(3) 0.02562(17)
O8 O 0.4429(2) -0.22167(19) 0.00327(11)
O9 O 0.3106(5) -0.2916(3) 0.16671(14)
O10 O 0.3098(5) -0.0982(2) 0.09460(15)
O11 O 0.4428(2) -0.5597(2) -0.20481(15)
O12 O 0.4424(2) -0.50374(16) -0.17659(10)
O13 O 0.4431(3) -0.2428(3) -0.06639(14)
O14 O 0.4422(2) -0.2925(2) -0.03059(11)
O15 O 0.3429(5) -0.2460(2) -0.14241(14)
O16 O 0.3251(5) -0.3584(3) -0.26525(13)
N1 N 0.3023(3) -0.2023(2) 0.12173(16)
N2 N 0.3066(6) -0.2863(2) 0.12013(17)
H1 H 0.2962 -0.2683 0.1068
N3 N 0.3246(5) -0.1611(3) 0.07567(12)
H2 H 0.3240 -0.1892 0.0779
N4 N 0.3387(3) -0.3146(2) -0.19907(13)
N5 N 0.3411(6) -0.3177(3) -0.14180(11)
H3 H 0.3399 -0.3405 -0.1527
N6 N 0.3371(6) -0.38992(19) -0.22224(15)
H4 H 0.3463 -0.3836 -0.2048
C1 C 0.4227(4) -0.4110(3) 0.1389(2)
C2 C 0.3791(2) -0.38859(19) 0.12131(13)
C3 C 0.3522(3) -0.40980(14) 0.10003(14)
H5 H 0.3628 -0.4379 0.0958
C4 C 0.3099(3) -0.38989(18) 0.08496(12)
H6 H 0.2916 -0.4044 0.0704
C5 C 0.2945(2) -0.34878(19) 0.09116(13)
H7 H 0.2656 -0.3352 0.0808
C6 C 0.3213(3) -0.32757(14) 0.11243(14)
C7 C 0.3636(3) -0.34747(19) 0.12751(12)
H8 H 0.3820 -0.3330 0.1421
C8 C 0.3081(7) -0.2693(3) 0.14560(16)
C9 C 0.2983(3) -0.2226(3) 0.14571(15)
C10 C 0.2951(5) -0.2078(3) 0.17224(17)
H9 H 0.2924 -0.2253 0.1879
C11 C 0.2963(4) -0.1644(3) 0.1733(2)
H10 H 0.2944 -0.1506 0.1906
C12 C 0.3004(5) -0.1408(3) 0.14967(15)
H11 H 0.3011 -0.1110 0.1507
C13 C 0.3033(4) -0.1604(2) 0.12444(16)
C14 C 0.3130(7) -0.1371(3) 0.09786(16)
C15 C 0.3332(3) -0.1470(2) 0.04866(10)
C16 C 0.3131(3) -0.10950(19) 0.03772(12)
H12 H 0.2882 -0.0923 0.0481
C17 C 0.3294(3) -0.09720(16) 0.01155(13)
H13 H 0.3157 -0.0715 0.0041
C18 C 0.3659(3) -0.1224(2) -0.00369(10)
H14 H 0.3771 -0.1140 -0.0216
C19 C 0.3860(3) -0.15995(19) 0.00725(13)
C20 C 0.3697(3) -0.17226(16) 0.03342(13)
H15 H 0.3834 -0.1979 0.0409
C21 C 0.4269(4) -0.1897(3) -0.0071(2)
C22 C 0.4267(5) -0.2786(4) -0.0562(2)
C23 C 0.3894(3) -0.30672(19) -0.07074(11)
C24 C 0.3668(3) -0.3426(2) -0.05864(8)
H16 H 0.3742 -0.3485 -0.0399
C25 C 0.3333(3) -0.36987(17) -0.07399(11)
H17 H 0.3179 -0.3944 -0.0657
C26 C 0.3225(3) -0.36126(19) -0.10142(11)
H18 H 0.2996 -0.3799 -0.1119
C27 C 0.3451(3) -0.3254(2) -0.11351(8)
C28 C 0.3786(3) -0.29812(17) -0.09817(11)
H19 H 0.3940 -0.2736 -0.1064
C29 C 0.3442(7) -0.2804(3) -0.15499(15)
C30 C 0.3331(3) -0.2781(2) -0.18554(14)
C31 C 0.3179(4) -0.2402(3) -0.19713(15)
H20 H 0.3144 -0.2149 -0.1869
C32 C 0.3082(5) -0.2422(3) -0.22498(15)
H21 H 0.2975 -0.2174 -0.2345
C33 C 0.3136(5) -0.2794(2) -0.23935(18)
H22 H 0.3067 -0.2798 -0.2585
C34 C 0.3291(3) -0.3160(2) -0.22612(13)
C35 C 0.3359(5) -0.3578(2) -0.24032(15)
C36 C 0.3485(3) -0.43186(14) -0.22968(12)
C37 C 0.3291(3) -0.44892(18) -0.25419(11)
H23 H 0.3077 -0.4321 -0.2665
C38 C 0.3411(3) -0.49057(18) -0.26064(10)
H24 H 0.3278 -0.5022 -0.2774
C39 C 0.3725(3) -0.51517(14) -0.24260(12)
H25 H 0.3806 -0.5436 -0.2470
C40 C 0.3919(3) -0.49812(18) -0.21810(11)
C41 C 0.3799(3) -0.45647(19) -0.21164(10)
H26 H 0.3932 -0.4448 -0.1949
C42 C 0.4301(5) -0.5200(3) -0.19877(19)
Cu1B Cu 0.5000 -0.52429(4) -0.15099(3)
Cu2B Cu 0.5000 -0.58969(5) -0.18423(4)
Cu3B Cu 0.5000 -0.79493(6) 0.05194(3)
Cu4B Cu 0.5000 -0.74050(6) 0.01052(3)
O1B O 0.5000 -0.4671(3) -0.12386(17)
O2B O 0.4407(2) -0.55421(13) -0.12916(11)
O3B O 0.4407(3) -0.60785(18) -0.15919(16)
O4B O 0.4433(3) -0.8250(2) 0.03142(12)
O5B O 0.5000 -0.6470(3) -0.20643(17)
O6B O 0.5000 -0.8465(3) 0.08388(17)
O7B O 0.5000 -0.7006(3) -0.02562(17)
O8B O 0.4429(2) -0.77833(19) -0.00327(11)
O9B O 0.3106(5) -0.7084(3) -0.16671(14)
O10B O 0.3098(5) -0.9018(2) -0.09460(15)
O11B O 0.4428(2) -0.4403(2) 0.20481(15)
O12B O 0.4424(2) -0.49626(16) 0.17659(10)
O13B O 0.4431(3) -0.7572(3) 0.06639(14)
O14B O 0.4422(2) -0.7075(2) 0.03059(11)
O15B O 0.3429(5) -0.7540(2) 0.14241(14)
O16B O 0.3251(5) -0.6416(3) 0.26525(13)
N1B N 0.3023(3) -0.7977(2) -0.12173(16)
N2B N 0.3066(6) -0.7137(2) -0.12013(17)
H1B H 0.2962 -0.7317 -0.1068
N3B N 0.3246(5) -0.8389(3) -0.07567(12)
H2B H 0.3240 -0.8108 -0.0779
N4B N 0.3387(3) -0.6854(2) 0.19907(13)
N5B N 0.3411(6) -0.6823(3) 0.14180(11)
H3B H 0.3399 -0.6595 0.1527
N6B N 0.3371(6) -0.61008(19) 0.22224(15)
H4B H 0.3463 -0.6164 0.2048
C1B C 0.4227(4) -0.5890(3) -0.1389(2)
C2B C 0.3791(2) -0.61141(19) -0.12131(13)
C3B C 0.3522(3) -0.59020(14) -0.10003(14)
H5B H 0.3628 -0.5621 -0.0958
C4B C 0.3099(3) -0.61011(18) -0.08496(12)
H6B H 0.2916 -0.5956 -0.0704
C5B C 0.2945(2) -0.65122(19) -0.09116(13)
H7B H 0.2656 -0.6648 -0.0808
C6B C 0.3213(3) -0.67243(14) -0.11243(14)
C7B C 0.3636(3) -0.65253(19) -0.12751(12)
H8B H 0.3820 -0.6670 -0.1421
C8B C 0.3081(7) -0.7307(3) -0.14560(16)
C9B C 0.2983(3) -0.7774(3) -0.14571(15)
C10B C 0.2951(5) -0.7922(3) -0.17224(17)
H9B H 0.2924 -0.7747 -0.1879
C11B C 0.2963(4) -0.8356(3) -0.1733(2)
H10B H 0.2944 -0.8494 -0.1906
C12B C 0.3004(5) -0.8592(3) -0.14967(15)
H11B H 0.3011 -0.8890 -0.1507
C13B C 0.3033(4) -0.8396(2) -0.12444(16)
C14B C 0.3130(7) -0.8629(3) -0.09786(16)
C15B C 0.3332(3) -0.8530(2) -0.04866(10)
C16B C 0.3131(3) -0.89050(19) -0.03772(12)
H12B H 0.2882 -0.9077 -0.0481
C17B C 0.3294(3) -0.90280(16) -0.01155(13)
H13B H 0.3157 -0.9285 -0.0041
C18B C 0.3659(3) -0.8776(2) 0.00369(10)
H14B H 0.3771 -0.8860 0.0216
C19B C 0.3860(3) -0.84005(19) -0.00725(13)
C20B C 0.3697(3) -0.82774(16) -0.03342(13)
H15B H 0.3834 -0.8021 -0.0409
C21B C 0.4269(4) -0.8103(3) 0.0071(2)
C22B C 0.4267(5) -0.7214(4) 0.0562(2)
C23B C 0.3894(3) -0.69328(19) 0.07074(11)
C24B C 0.3668(3) -0.6574(2) 0.05864(8)
H16B H 0.3742 -0.6515 0.0399
C25B C 0.3333(3) -0.63013(17) 0.07399(11)
H17B H 0.3179 -0.6056 0.0657
C26B C 0.3225(3) -0.63874(19) 0.10142(11)
H18B H 0.2996 -0.6201 0.1119
C27B C 0.3451(3) -0.6746(2) 0.11351(8)
C28B C 0.3786(3) -0.70188(17) 0.09817(11)
H19B H 0.3940 -0.7264 0.1064
C29B C 0.3442(7) -0.7196(3) 0.15499(15)
C30B C 0.3331(3) -0.7219(2) 0.18554(14)
C31B C 0.3179(4) -0.7598(3) 0.19713(15)
H20B H 0.3144 -0.7851 0.1869
C32B C 0.3082(5) -0.7578(3) 0.22498(15)
H21B H 0.2975 -0.7826 0.2345
C33B C 0.3136(5) -0.7206(2) 0.23935(18)
H22B H 0.3067 -0.7202 0.2585
C34B C 0.3291(3) -0.6840(2) 0.22612(13)
C35B C 0.3359(5) -0.6422(2) 0.24032(15)
C36B C 0.3485(3) -0.56814(14) 0.22968(12)
C37B C 0.3291(3) -0.55108(18) 0.25419(11)
H23B H 0.3077 -0.5679 0.2665
C38B C 0.3411(3) -0.50943(18) 0.26064(10)
H24B H 0.3278 -0.4978 0.2774
C39B C 0.3725(3) -0.48483(14) 0.24260(12)
H25B H 0.3806 -0.4564 0.2470
C40B C 0.3919(3) -0.50188(18) 0.21810(11)
C41B C 0.3799(3) -0.54353(19) 0.21164(10)
H26B H 0.3932 -0.5552 0.1949
C42B C 0.4301(5) -0.4800(3) 0.19877(19)
O2H O 0.5593(2) -0.55421(13) -0.12916(11)
O3H O 0.5593(3) -0.60785(18) -0.15919(16)
O4H O 0.5567(3) -0.8250(2) 0.03142(12)
O8H O 0.5571(2) -0.77833(19) -0.00327(11)
O9H O 0.6894(5) -0.7084(3) -0.16671(14)
O10H O 0.6902(5) -0.9018(2) -0.09460(15)
O11H O 0.5572(2) -0.4403(2) 0.20481(15)
O12H O 0.5576(2) -0.49626(16) 0.17659(10)
O13H O 0.5569(3) -0.7572(3) 0.06639(14)
O14H O 0.5578(2) -0.7075(2) 0.03059(11)
O15H O 0.6571(5) -0.7540(2) 0.14241(14)
O16H O 0.6749(5) -0.6416(3) 0.26525(13)
N1H N 0.6977(3) -0.7977(2) -0.12173(16)
N2H N 0.6934(6) -0.7137(2) -0.12013(17)
H1H H 0.7038 -0.7317 -0.1068
N3H N 0.6754(5) -0.8389(3) -0.07567(12)
H2H H 0.6760 -0.8108 -0.0779
N4H N 0.6613(3) -0.6854(2) 0.19907(13)
N5H N 0.6589(6) -0.6823(3) 0.14180(11)
H3H H 0.6601 -0.6595 0.1527
N6H N 0.6629(6) -0.61008(19) 0.22224(15)
H4H H 0.6537 -0.6164 0.2048
C1H C 0.5773(4) -0.5890(3) -0.1389(2)
C2H C 0.6209(2) -0.61141(19) -0.12131(13)
C3H C 0.6478(3) -0.59020(14) -0.10003(14)
H5H H 0.6372 -0.5621 -0.0958
C4H C 0.6901(3) -0.61011(18) -0.08496(12)
H6H H 0.7084 -0.5956 -0.0704
C5H C 0.7055(2) -0.65122(19) -0.09116(13)
H7H H 0.7344 -0.6648 -0.0808
C6H C 0.6787(3) -0.67243(14) -0.11243(14)
C7H C 0.6364(3) -0.65253(19) -0.12751(12)
H8H H 0.6180 -0.6670 -0.1421
C8H C 0.6919(7) -0.7307(3) -0.14560(16)
C9H C 0.7017(3) -0.7774(3) -0.14571(15)
C10H C 0.7049(5) -0.7922(3) -0.17224(17)
H9H H 0.7076 -0.7747 -0.1879
C11H C 0.7037(4) -0.8356(3) -0.1733(2)
H10H H 0.7056 -0.8494 -0.1906
C12H C 0.6996(5) -0.8592(3) -0.14967(15)
H11H H 0.6989 -0.8890 -0.1507
C13H C 0.6967(4) -0.8396(2) -0.12444(16)
C14H C 0.6870(7) -0.8629(3) -0.09786(16)
C15H C 0.6668(3) -0.8530(2) -0.04866(10)
C16H C 0.6869(3) -0.89050(19) -0.03772(12)
H12H H 0.7118 -0.9077 -0.0481
C17H C 0.6706(3) -0.90280(16) -0.01155(13)
H13H H 0.6843 -0.9285 -0.0041
C18H C 0.6341(3) -0.8776(2) 0.00369(10)
H14H H 0.6229 -0.8860 0.0216
C19H C 0.6140(3) -0.84005(19) -0.00725(13)
C20H C 0.6303(3) -0.82774(16) -0.03342(13)
H15H H 0.6166 -0.8021 -0.0409
C21H C 0.5731(4) -0.8103(3) 0.0071(2)
C22H C 0.5733(5) -0.7214(4) 0.0562(2)
C23H C 0.6106(3) -0.69328(19) 0.07074(11)
C24H C 0.6332(3) -0.6574(2) 0.05864(8)
H16H H 0.6258 -0.6515 0.0399
C25H C 0.6667(3) -0.63013(17) 0.07399(11)
H17H H 0.6821 -0.6056 0.0657
C26H C 0.6775(3) -0.63874(19) 0.10142(11)
H18H H 0.7004 -0.6201 0.1119
C27H C 0.6549(3) -0.6746(2) 0.11351(8)
C28H C 0.6214(3) -0.70188(17) 0.09817(11)
H19H H 0.6060 -0.7264 0.1064
C29H C 0.6558(7) -0.7196(3) 0.15499(15)
C30H C 0.6669(3) -0.7219(2) 0.18554(14)
C31H C 0.6821(4) -0.7598(3) 0.19713(15)
H20H H 0.6856 -0.7851 0.1869
C32H C 0.6918(5) -0.7578(3) 0.22498(15)
H21H H 0.7025 -0.7826 0.2345
C33H C 0.6864(5) -0.7206(2) 0.23935(18)
H22H H 0.6933 -0.7202 0.2585
C34H C 0.6709(3) -0.6840(2) 0.22612(13)
C35H C 0.6641(5) -0.6422(2) 0.24032(15)
C36H C 0.6515(3) -0.56814(14) 0.22968(12)
C37H C 0.6709(3) -0.55108(18) 0.25419(11)
H23H H 0.6923 -0.5679 0.2665
C38H C 0.6589(3) -0.50943(18) 0.26064(10)
H24H H 0.6722 -0.4978 0.2774
C39H C 0.6275(3) -0.48483(14) 0.24260(12)
H25H H 0.6194 -0.4564 0.2470
C40H C 0.6081(3) -0.50188(18) 0.21810(11)
C41H C 0.6201(3) -0.54353(19) 0.21164(10)
H26H H 0.6068 -0.5552 0.1949
C42H C 0.5699(5) -0.4800(3) 0.19877(19)
O2J O 0.5593(2) -0.44579(13) 0.12916(11)
O3J O 0.5593(3) -0.39215(18) 0.15919(16)
O4J O 0.5567(3) -0.1750(2) -0.03142(12)
O8J O 0.5571(2) -0.22167(19) 0.00327(11)
O9J O 0.6894(5) -0.2916(3) 0.16671(14)
O10J O 0.6902(5) -0.0982(2) 0.09460(15)
O11J O 0.5572(2) -0.5597(2) -0.20481(15)
O12J O 0.5576(2) -0.50374(16) -0.17659(10)
O13J O 0.5569(3) -0.2428(3) -0.06639(14)
O14J O 0.5578(2) -0.2925(2) -0.03059(11)
O15J O 0.6571(5) -0.2460(2) -0.14241(14)
O16J O 0.6749(5) -0.3584(3) -0.26525(13)
N1J N 0.6977(3) -0.2023(2) 0.12173(16)
N2J N 0.6934(6) -0.2863(2) 0.12013(17)
H1J H 0.7038 -0.2683 0.1068
N3J N 0.6754(5) -0.1611(3) 0.07567(12)
H2J H 0.6760 -0.1892 0.0779
N4J N 0.6613(3) -0.3146(2) -0.19907(13)
N5J N 0.6589(6) -0.3177(3) -0.14180(11)
H3J H 0.6601 -0.3405 -0.1527
N6J N 0.6629(6) -0.38992(19) -0.22224(15)
H4J H 0.6537 -0.3836 -0.2048
C1J C 0.5773(4) -0.4110(3) 0.1389(2)
C2J C 0.6209(2) -0.38859(19) 0.12131(13)
C3J C 0.6478(3) -0.40980(14) 0.10003(14)
H5J H 0.6372 -0.4379 0.0958
C4J C 0.6901(3) -0.38989(18) 0.08496(12)
H6J H 0.7084 -0.4044 0.0704
C5J C 0.7055(2) -0.34878(19) 0.09116(13)
H7J H 0.7344 -0.3352 0.0808
C6J C 0.6787(3) -0.32757(14) 0.11243(14)
C7J C 0.6364(3) -0.34747(19) 0.12751(12)
H8J H 0.6180 -0.3330 0.1421
C8J C 0.6919(7) -0.2693(3) 0.14560(16)
C9J C 0.7017(3) -0.2226(3) 0.14571(15)
C10J C 0.7049(5) -0.2078(3) 0.17224(17)
H9J H 0.7076 -0.2253 0.1879
C11J C 0.7037(4) -0.1644(3) 0.1733(2)
H10J H 0.7056 -0.1506 0.1906
C12J C 0.6996(5) -0.1408(3) 0.14967(15)
H11J H 0.6989 -0.1110 0.1507
C13J C 0.6967(4) -0.1604(2) 0.12444(16)
C14J C 0.6870(7) -0.1371(3) 0.09786(16)
C15J C 0.6668(3) -0.1470(2) 0.04866(10)
C16J C 0.6869(3) -0.10950(19) 0.03772(12)
H12J H 0.7118 -0.0923 0.0481
C17J C 0.6706(3) -0.09720(16) 0.01155(13)
H13J H 0.6843 -0.0715 0.0041
C18J C 0.6341(3) -0.1224(2) -0.00369(10)
H14J H 0.6229 -0.1140 -0.0216
C19J C 0.6140(3) -0.15995(19) 0.00725(13)
C20J C 0.6303(3) -0.17226(16) 0.03342(13)
H15J H 0.6166 -0.1979 0.0409
C21J C 0.5731(4) -0.1897(3) -0.0071(2)
C22J C 0.5733(5) -0.2786(4) -0.0562(2)
C23J C 0.6106(3) -0.30672(19) -0.07074(11)
C24J C 0.6332(3) -0.3426(2) -0.05864(8)
H16J H 0.6258 -0.3485 -0.0399
C25J C 0.6667(3) -0.36987(17) -0.07399(11)
H17J H 0.6821 -0.3944 -0.0657
C26J C 0.6775(3) -0.36126(19) -0.10142(11)
H18J H 0.7004 -0.3799 -0.1119
C27J C 0.6549(3) -0.3254(2) -0.11351(8)
C28J C 0.6214(3) -0.29812(17) -0.09817(11)
H19J H 0.6060 -0.2736 -0.1064
C29J C 0.6558(7) -0.2804(3) -0.15499(15)
C30J C 0.6669(3) -0.2781(2) -0.18554(14)
C31J C 0.6821(4) -0.2402(3) -0.19713(15)
H20J H 0.6856 -0.2149 -0.1869
C32J C 0.6918(5) -0.2422(3) -0.22498(15)
H21J H 0.7025 -0.2174 -0.2345
C33J C 0.6864(5) -0.2794(2) -0.23935(18)
H22J H 0.6933 -0.2798 -0.2585
C34J C 0.6709(3) -0.3160(2) -0.22612(13)
C35J C 0.6641(5) -0.3578(2) -0.24032(15)
C36J C 0.6515(3) -0.43186(14) -0.22968(12)
C37J C 0.6709(3) -0.44892(18) -0.25419(11)
H23J H 0.6923 -0.4321 -0.2665
C38J C 0.6589(3) -0.49057(18) -0.26064(10)
H24J H 0.6722 -0.5022 -0.2774
C39J C 0.6275(3) -0.51517(14) -0.24260(12)
H25J H 0.6194 -0.5436 -0.2470
C40J C 0.6081(3) -0.49812(18) -0.21810(11)
C41J C 0.6201(3) -0.45647(19) -0.21164(10)
H26J H 0.6068 -0.4448 -0.1949
C42J C 0.5699(5) -0.5200(3) -0.19877(19)
loop_
_geom_bond_atom_site_label_1
_geom_bond_atom_site_label_2
_geom_bond_site_symmetry_1
_geom_bond_site_symmetry_2
Cu1 O1 1_555 1_555
Cu2 O3 1_555 1_555
Cu3 O4 1_555 1_555
Cu4 O7 1_555 1_555
O2 Cu1 1_555 1_555
O3 C1 1_555 1_555
O4 C21 1_555 1_555
O5 Cu2 1_555 1_555
O6 Cu3 1_555 1_555
O8 Cu4 1_555 1_555
O9 C8 1_555 1_555
O10 C14 1_555 1_555
O11 C42 1_555 1_555
O12 C42 1_555 1_555
O13 Cu3 1_555 1_555
O14 Cu4 1_555 1_555
O15 C29 1_555 1_555
O16 C35 1_555 1_555
N1 C9 1_555 1_555
N2 H1 1_555 1_555
N3 H2 1_555 1_555
N4 C30 1_555 1_555
N5 H3 1_555 1_555
N6 H4 1_555 1_555
C1 O2 1_555 1_555
C2 C1 1_555 1_555
C3 C2 1_555 1_555
H5 C3 1_555 1_555
C4 C3 1_555 1_555
H6 C4 1_555 1_555
C5 C4 1_555 1_555
H7 C5 1_555 1_555
C6 N2 1_555 1_555
C7 C2 1_555 1_555
H8 C7 1_555 1_555
C8 N2 1_555 1_555
C9 C8 1_555 1_555
C10 C9 1_555 1_555
H9 C10 1_555 1_555
C11 C10 1_555 1_555
H10 C11 1_555 1_555
C12 C11 1_555 1_555
H11 C12 1_555 1_555
C13 N1 1_555 1_555
C14 N3 1_555 1_555
C15 N3 1_555 1_555
C16 C15 1_555 1_555
H12 C16 1_555 1_555
C17 C16 1_555 1_555
H13 C17 1_555 1_555
C18 C17 1_555 1_555
H14 C18 1_555 1_555
C19 C18 1_555 1_555
C20 C15 1_555 1_555
H15 C20 1_555 1_555
C21 O8 1_555 1_555
C22 O13 1_555 1_555
C23 C22 1_555 1_555
C24 C23 1_555 1_555
H16 C24 1_555 1_555
C25 C24 1_555 1_555
H17 C25 1_555 1_555
C26 C25 1_555 1_555
H18 C26 1_555 1_555
C27 N5 1_555 1_555
C28 C23 1_555 1_555
H19 C28 1_555 1_555
C29 N5 1_555 1_555
C30 C29 1_555 1_555
C31 C30 1_555 1_555
H20 C31 1_555 1_555
C32 C31 1_555 1_555
H21 C32 1_555 1_555
C33 C32 1_555 1_555
H22 C33 1_555 1_555
C34 N4 1_555 1_555
C35 N6 1_555 1_555
C36 N6 1_555 1_555
C37 C36 1_555 1_555
H23 C37 1_555 1_555
C38 C37 1_555 1_555
H24 C38 1_555 1_555
C39 C38 1_555 1_555
H25 C39 1_555 1_555
C40 C39 1_555 1_555
C41 C36 1_555 1_555
H26 C41 1_555 1_555
C42 C40 1_555 1_555
Cu1B O12 1_555 1_555
Cu2B O11 1_555 1_555
Cu3B O4B 1_555 1_555
Cu4B O7B 1_555 1_555
O1B Cu1B 1_555 1_555
O2B Cu1B 1_555 1_555
O3B Cu2B 1_555 1_555
O4B C21B 1_555 1_555
O5B Cu2B 1_555 1_555
O6B Cu3B 1_555 1_555
O8B Cu4B 1_555 1_555
O9B C8B 1_555 1_555
O10B C14B 1_555 1_555
O11B Cu2 1_555 1_555
O12B Cu1 1_555 1_555
O13B Cu3B 1_555 1_555
O14B Cu4B 1_555 1_555
O15B C29B 1_555 1_555
O16B C35B 1_555 1_555
N1B C9B 1_555 1_555
N2B H1B 1_555 1_555
N3B H2B 1_555 1_555
N4B C30B 1_555 1_555
N5B H3B 1_555 1_555
N6B H4B 1_555 1_555
C1B O2B 1_555 1_555
C2B C1B 1_555 1_555
C3B C2B 1_555 1_555
H5B C3B 1_555 1_555
C4B C3B 1_555 1_555
H6B C4B 1_555 1_555
C5B C4B 1_555 1_555
H7B C5B 1_555 1_555
C6B N2B 1_555 1_555
C7B C2B 1_555 1_555
H8B C7B 1_555 1_555
C8B N2B 1_555 1_555
C9B C8B 1_555 1_555
C10B C9B 1_555 1_555
H9B C10B 1_555 1_555
C11B C10B 1_555 1_555
H10B C11B 1_555 1_555
C12B C11B 1_555 1_555
H11B C12B 1_555 1_555
C13B N1B 1_555 1_555
C14B N3B 1_555 1_555
C15B N3B 1_555 1_555
C16B C15B 1_555 1_555
H12B C16B 1_555 1_555
C17B C16B 1_555 1_555
H13B C17B 1_555 1_555
C18B C17B 1_555 1_555
H14B C18B 1_555 1_555
C19B C18B 1_555 1_555
C20B C15B 1_555 1_555
H15B C20B 1_555 1_555
C21B O8B 1_555 1_555
C22B O13B 1_555 1_555
C23B C22B 1_555 1_555
C24B C23B 1_555 1_555
H16B C24B 1_555 1_555
C25B C24B 1_555 1_555
H17B C25B 1_555 1_555
C26B C25B 1_555 1_555
H18B C26B 1_555 1_555
C27B N5B 1_555 1_555
C28B C23B 1_555 1_555
H19B C28B 1_555 1_555
C29B N5B 1_555 1_555
C30B C29B 1_555 1_555
C31B C30B 1_555 1_555
H20B C31B 1_555 1_555
C32B C31B 1_555 1_555
H21B C32B 1_555 1_555
C33B C32B 1_555 1_555
H22B C33B 1_555 1_555
C34B N4B 1_555 1_555
C35B N6B 1_555 1_555
C36B N6B 1_555 1_555
C37B C36B 1_555 1_555
H23B C37B 1_555 1_555
C38B C37B 1_555 1_555
H24B C38B 1_555 1_555
C39B C38B 1_555 1_555
H25B C39B 1_555 1_555
C40B C39B 1_555 1_555
C41B C36B 1_555 1_555
H26B C41B 1_555 1_555
C42B O11B 1_555 1_555
O2H Cu1B 1_555 1_555
O3H Cu2B 1_555 1_555
O4H Cu3B 1_555 1_555
O8H Cu4B 1_555 1_555
O9H C8H 1_555 1_555
O10H C14H 1_555 1_555
O11H Cu2 1_555 1_555
O12H Cu1 1_555 1_555
O13H Cu3B 1_555 1_555
O14H Cu4B 1_555 1_555
O15H C29H 1_555 1_555
O16H C35H 1_555 1_555
N1H C9H 1_555 1_555
N2H H1H 1_555 1_555
N3H H2H 1_555 1_555
N4H C30H 1_555 1_555
N5H H3H 1_555 1_555
N6H H4H 1_555 1_555
C1H O2H 1_555 1_555
C2H C1H 1_555 1_555
C3H C2H 1_555 1_555
H5H C3H 1_555 1_555
C4H C3H 1_555 1_555
H6H C4H 1_555 1_555
C5H C4H 1_555 1_555
H7H C5H 1_555 1_555
C6H N2H 1_555 1_555
C7H C2H 1_555 1_555
H8H C7H 1_555 1_555
C8H N2H 1_555 1_555
C9H C8H 1_555 1_555
C10H C9H 1_555 1_555
H9H C10H 1_555 1_555
C11H C10H 1_555 1_555
H10H C11H 1_555 1_555
C12H C11H 1_555 1_555
H11H C12H 1_555 1_555
C13H N1H 1_555 1_555
C14H N3H 1_555 1_555
C15H N3H 1_555 1_555
C16H C15H 1_555 1_555
H12H C16H 1_555 1_555
C17H C16H 1_555 1_555
H13H C17H 1_555 1_555
C18H C17H 1_555 1_555
H14H C18H 1_555 1_555
C19H C18H 1_555 1_555
C20H C15H 1_555 1_555
H15H C20H 1_555 1_555
C21H O4H 1_555 1_555
C22H O13H 1_555 1_555
C23H C22H 1_555 1_555
C24H C23H 1_555 1_555
H16H C24H 1_555 1_555
C25H C24H 1_555 1_555
H17H C25H 1_555 1_555
C26H C25H 1_555 1_555
H18H C26H 1_555 1_555
C27H N5H 1_555 1_555
C28H C23H 1_555 1_555
H19H C28H 1_555 1_555
C29H N5H 1_555 1_555
C30H C29H 1_555 1_555
C31H C30H 1_555 1_555
H20H C31H 1_555 1_555
C32H C31H 1_555 1_555
H21H C32H 1_555 1_555
C33H C32H 1_555 1_555
H22H C33H 1_555 1_555
C34H N4H 1_555 1_555
C35H N6H 1_555 1_555
C36H N6H 1_555 1_555
C37H C36H 1_555 1_555
H23H C37H 1_555 1_555
C38H C37H 1_555 1_555
H24H C38H 1_555 1_555
C39H C38H 1_555 1_555
H25H C39H 1_555 1_555
C40H C39H 1_555 1_555
C41H C36H 1_555 1_555
H26H C41H 1_555 1_555
C42H O11H 1_555 1_555
O2J Cu1 1_555 1_555
O3J Cu2 1_555 1_555
O4J Cu3 1_555 1_555
O8J Cu4 1_555 1_555
O9J C8J 1_555 1_555
O10J C14J 1_555 1_555
O11J Cu2B 1_555 1_555
O12J Cu1B 1_555 1_555
O13J Cu3 1_555 1_555
O14J Cu4 1_555 1_555
O15J C29J 1_555 1_555
O16J C35J 1_555 1_555
N1J C9J 1_555 1_555
N2J H1J 1_555 1_555
N3J H2J 1_555 1_555
N4J C30J 1_555 1_555
N5J H3J 1_555 1_555
N6J H4J 1_555 1_555
C1J O2J 1_555 1_555
C2J C1J 1_555 1_555
C3J C2J 1_555 1_555
H5J C3J 1_555 1_555
C4J C3J 1_555 1_555
H6J C4J 1_555 1_555
C5J C4J 1_555 1_555
H7J C5J 1_555 1_555
C6J N2J 1_555 1_555
C7J C2J 1_555 1_555
H8J C7J 1_555 1_555
C8J N2J 1_555 1_555
C9J C8J 1_555 1_555
C10J C9J 1_555 1_555
H9J C10J 1_555 1_555
C11J C10J 1_555 1_555
H10J C11J 1_555 1_555
C12J C11J 1_555 1_555
H11J C12J 1_555 1_555
C13J N1J 1_555 1_555
C14J N3J 1_555 1_555
C15J N3J 1_555 1_555
C16J C15J 1_555 1_555
H12J C16J 1_555 1_555
C17J C16J 1_555 1_555
H13J C17J 1_555 1_555
C18J C17J 1_555 1_555
H14J C18J 1_555 1_555
C19J C18J 1_555 1_555
C20J C15J 1_555 1_555
H15J C20J 1_555 1_555
C21J O4J 1_555 1_555
C22J O13J 1_555 1_555
C23J C22J 1_555 1_555
C24J C23J 1_555 1_555
H16J C24J 1_555 1_555
C25J C24J 1_555 1_555
H17J C25J 1_555 1_555
C26J C25J 1_555 1_555
H18J C26J 1_555 1_555
C27J N5J 1_555 1_555
C28J C23J 1_555 1_555
H19J C28J 1_555 1_555
C29J N5J 1_555 1_555
C30J C29J 1_555 1_555
C31J C30J 1_555 1_555
H20J C31J 1_555 1_555
C32J C31J 1_555 1_555
H21J C32J 1_555 1_555
C33J C32J 1_555 1_555
H22J C33J 1_555 1_555
C34J N4J 1_555 1_555
C35J N6J 1_555 1_555
C36J N6J 1_555 1_555
C37J C36J 1_555 1_555
H23J C37J 1_555 1_555
C38J C37J 1_555 1_555
H24J C38J 1_555 1_555
C39J C38J 1_555 1_555
H25J C39J 1_555 1_555
C40J C39J 1_555 1_555
C41J C36J 1_555 1_555
H26J C41J 1_555 1_555
C42J O11J 1_555 1_555
O14 C22 1_555 1_555
C5 C6 1_555 1_555
C6 C7 1_555 1_555
C12 C13 1_555 1_555
C13 C14 1_555 1_555
C19 C20 1_555 1_555
C19 C21 1_555 1_555
C26 C27 1_555 1_555
C27 C28 1_555 1_555
C33 C34 1_555 1_555
C34 C35 1_555 1_555
C40 C41 1_555 1_555
O3B C1B 1_555 1_555
O12B C42B 1_555 1_555
O14B C22B 1_555 1_555
C5B C6B 1_555 1_555
C6B C7B 1_555 1_555
C12B C13B 1_555 1_555
C13B C14B 1_555 1_555
C19B C20B 1_555 1_555
C19B C21B 1_555 1_555
C26B C27B 1_555 1_555
C27B C28B 1_555 1_555
C33B C34B 1_555 1_555
C34B C35B 1_555 1_555
C40B C41B 1_555 1_555
C40B C42B 1_555 1_555
O3H C1H 1_555 1_555
O8H C21H 1_555 1_555
O12H C42H 1_555 1_555
O14H C22H 1_555 1_555
C5H C6H 1_555 1_555
C6H C7H 1_555 1_555
C12H C13H 1_555 1_555
C13H C14H 1_555 1_555
C19H C20H 1_555 1_555
C19H C21H 1_555 1_555
C26H C27H 1_555 1_555
C27H C28H 1_555 1_555
C33H C34H 1_555 1_555
C34H C35H 1_555 1_555
C40H C41H 1_555 1_555
C40H C42H 1_555 1_555
O3J C1J 1_555 1_555
O8J C21J 1_555 1_555
O12J C42J 1_555 1_555
O14J C22J 1_555 1_555
C5J C6J 1_555 1_555
C6J C7J 1_555 1_555
C12J C13J 1_555 1_555
C13J C14J 1_555 1_555
C19J C20J 1_555 1_555
C19J C21J 1_555 1_555
C26J C27J 1_555 1_555
C27J C28J 1_555 1_555
C33J C34J 1_555 1_555
C34J C35J 1_555 1_555
C40J C41J 1_555 1_555
C40J C42J 1_555 1_555

#END
