
#######################################################################
#
#                 Cambridge Crystallographic Data Centre
#                                CCDC 
#
#######################################################################
#
# If this CIF has been generated from an entry in the Cambridge 
# Structural Database, then it will include bibliographic, chemical, 
# crystal, experimental, refinement or atomic coordinate data resulting 
# from the CCDC's data processing and validation procedures.
#
#######################################################################

data_UQOYEG
_chemical_name_common            'MOP 1'
_chemical_formula_moiety         'C208 H192 Mo8 N32 O56,C5 H11 N1 O1'
_chemical_name_systematic        
"octakis(\m-3,3'-((pyridine-2,6-dicarbonyl)bis(azanediyl))dibenzoato)-octakis(diethylformamide)-octa-molybdenum diethylformamide solvate"
_symmetry_cell_setting           tetragonal
_symmetry_space_group_name_H-M   'I 4/m'
_symmetry_Int_Tables_number      87
_space_group_name_Hall           '-I 4'
loop_
_symmetry_equiv_pos_site_id
_symmetry_equiv_pos_as_xyz
1 x,y,z
2 -y,x,z
3 -x,-y,z
4 y,-x,z
5 1/2+x,1/2+y,1/2+z
6 1/2-y,1/2+x,1/2+z
7 1/2-x,1/2-y,1/2+z
8 1/2+y,1/2-x,1/2+z
9 -x,-y,-z
10 y,-x,-z
11 x,y,-z
12 -y,x,-z
13 1/2-x,1/2-y,1/2-z
14 1/2+y,1/2-x,1/2-z
15 1/2+x,1/2+y,1/2-z
16 1/2-y,1/2+x,1/2-z
_cell_length_a                   34.623(2)
_cell_length_b                   34.623(2)
_cell_length_c                   16.4266(10)
_cell_angle_alpha                90
_cell_angle_beta                 90
_cell_angle_gamma                90
_cell_volume                     19691.4
_exptl_crystal_colour            orange
_exptl_crystal_description       octahedron
_cell_formula_units_Z            2
loop_
_atom_site_label
_atom_site_type_symbol
_atom_site_fract_x
_atom_site_fract_y
_atom_site_fract_z
Mo1 Mo 0.041596(13) 0.222301(14) 0.0000
Mo2 Mo 0.092898(13) 0.255477(14) 0.0000
O1 O 0.06349(7) 0.18480(7) 0.09046(17)
O2 O 0.11768(7) 0.22001(7) 0.08992(17)
O3 O 0.29326(7) -0.07040(7) 0.08986(17)
O4 O 0.25797(7) -0.01660(7) 0.08858(16)
O5 O 0.20913(13) 0.21126(10) 0.2947(3)
O6 O 0.38082(10) 0.10321(10) 0.2965(3)
N1 N 0.28776(10) 0.14538(9) 0.2895(2)
N2 N 0.20935(10) 0.14663(10) 0.2742(2)
H1 H 0.2234 0.1248 0.2765
N3 N 0.32177(10) 0.07703(9) 0.2708(3)
H2 H 0.2963 0.0823 0.2725
C1 C 0.09803(11) 0.19149(11) 0.1161(3)
C2 C 0.11481(12) 0.16474(12) 0.1761(3)
C3 C 0.09331(14) 0.13418(15) 0.2089(3)
H3 H 0.0674 0.1298 0.1902
C4 C 0.10972(14) 0.10985(16) 0.2639(4)
H4 H 0.0941 0.0906 0.2903
C5 C 0.14817(16) 0.11446(17) 0.2863(3)
H5 H 0.1601 0.0961 0.3222
C6 C 0.16988(11) 0.14408(13) 0.2544(3)
C7 C 0.15315(12) 0.16843(11) 0.1984(3)
H6 H 0.1685 0.1887 0.1749
C8 C 0.22696(12) 0.18076(12) 0.2877(4)
C9 C 0.27044(11) 0.17987(9) 0.2954(2)
C10 C 0.29058(11) 0.21376(11) 0.3078(3)
H7 H 0.2768 0.2377 0.3113
C11 C 0.33028(11) 0.21266(11) 0.3147(3)
H8 H 0.3448 0.2358 0.3245
C12 C 0.34856(12) 0.17736(9) 0.3088(3)
H9 H 0.3761 0.1756 0.3146
C13 C 0.32633(10) 0.14481(10) 0.2963(3)
C14 C 0.34617(12) 0.10611(11) 0.2887(3)
C15 C 0.33156(13) 0.03909(11) 0.2478(3)
C16 C 0.30671(11) 0.02051(12) 0.1968(3)
H10 H 0.2841 0.0335 0.1770
C17 C 0.31423(11) -0.01740(12) 0.1708(3)
C18 C 0.34757(12) -0.03619(12) 0.1967(3)
H11 H 0.3531 -0.0618 0.1775
C19 C 0.37276(16) -0.01640(16) 0.2503(4)
H12 H 0.3956 -0.0294 0.2686
C20 C 0.36506(14) 0.02097(14) 0.2739(4)
H13 H 0.3825 0.0342 0.3099
C21 C 0.28703(11) -0.03623(11) 0.1130(2)
O7 O -0.01986(16) 0.1819(2) 0.0000
O8 O 0.15505(16) 0.2948(2) 0.0000
Mo1A Mo -0.222301(14) 0.041596(13) 0.0000
Mo2A Mo -0.255477(14) 0.092898(13) 0.0000
O1A O -0.18480(7) 0.06349(7) 0.09046(17)
O2A O -0.22001(7) 0.11768(7) 0.08992(17)
O3A O 0.07040(7) 0.29326(7) 0.08986(17)
O4A O 0.01660(7) 0.25797(7) 0.08858(16)
O5A O -0.21126(10) 0.20913(13) 0.2947(3)
O6A O -0.10321(10) 0.38082(10) 0.2965(3)
N1A N -0.14538(9) 0.28776(10) 0.2895(2)
N2A N -0.14663(10) 0.20935(10) 0.2742(2)
H1A H -0.1248 0.2234 0.2765
N3A N -0.07703(9) 0.32177(10) 0.2708(3)
H2A H -0.0823 0.2963 0.2725
C1A C -0.19149(11) 0.09803(11) 0.1161(3)
C2A C -0.16474(12) 0.11481(12) 0.1761(3)
C3A C -0.13418(15) 0.09331(14) 0.2089(3)
H3A H -0.1298 0.0674 0.1902
C4A C -0.10985(16) 0.10972(14) 0.2639(4)
H4A H -0.0906 0.0941 0.2903
C5A C -0.11446(17) 0.14817(16) 0.2863(3)
H5A H -0.0961 0.1601 0.3222
C6A C -0.14408(13) 0.16988(11) 0.2544(3)
C7A C -0.16843(11) 0.15315(12) 0.1984(3)
H6A H -0.1887 0.1685 0.1749
C8A C -0.18076(12) 0.22696(12) 0.2877(4)
C9A C -0.17987(9) 0.27044(11) 0.2954(2)
C10A C -0.21376(11) 0.29058(11) 0.3078(3)
H7A H -0.2377 0.2768 0.3113
C11A C -0.21266(11) 0.33028(11) 0.3147(3)
H8A H -0.2358 0.3448 0.3245
C12A C -0.17736(9) 0.34856(12) 0.3088(3)
H9A H -0.1756 0.3761 0.3146
C13A C -0.14481(10) 0.32633(10) 0.2963(3)
C14A C -0.10611(11) 0.34617(12) 0.2887(3)
C15A C -0.03909(11) 0.33156(13) 0.2478(3)
C16A C -0.02051(12) 0.30671(11) 0.1968(3)
H10A H -0.0335 0.2841 0.1770
C17A C 0.01740(12) 0.31423(11) 0.1708(3)
C18A C 0.03619(12) 0.34757(12) 0.1967(3)
H11A H 0.0618 0.3531 0.1775
C19A C 0.01640(16) 0.37276(16) 0.2503(4)
H12A H 0.0294 0.3956 0.2686
C20A C -0.02097(14) 0.36506(14) 0.2739(4)
H13A H -0.0342 0.3825 0.3099
C21A C 0.03623(11) 0.28703(11) 0.1130(2)
O7A O -0.1819(2) -0.01986(16) 0.0000
O8A O -0.2948(2) 0.15505(16) 0.0000
Mo1B Mo -0.041596(13) -0.222301(14) 0.0000
Mo2B Mo -0.092898(13) -0.255477(14) 0.0000
O1B O -0.06349(7) -0.18480(7) 0.09046(17)
O2B O -0.11768(7) -0.22001(7) 0.08992(17)
O3B O -0.29326(7) 0.07040(7) 0.08986(17)
O4B O -0.25797(7) 0.01660(7) 0.08858(16)
O5B O -0.20913(13) -0.21126(10) 0.2947(3)
O6B O -0.38082(10) -0.10321(10) 0.2965(3)
N1B N -0.28776(10) -0.14538(9) 0.2895(2)
N2B N -0.20935(10) -0.14663(10) 0.2742(2)
H1B H -0.2234 -0.1248 0.2765
N3B N -0.32177(10) -0.07703(9) 0.2708(3)
H2B H -0.2963 -0.0823 0.2725
C1B C -0.09803(11) -0.19149(11) 0.1161(3)
C2B C -0.11481(12) -0.16474(12) 0.1761(3)
C3B C -0.09331(14) -0.13418(15) 0.2089(3)
H3B H -0.0674 -0.1298 0.1902
C4B C -0.10972(14) -0.10985(16) 0.2639(4)
H4B H -0.0941 -0.0906 0.2903
C5B C -0.14817(16) -0.11446(17) 0.2863(3)
H5B H -0.1601 -0.0961 0.3222
C6B C -0.16988(11) -0.14408(13) 0.2544(3)
C7B C -0.15315(12) -0.16843(11) 0.1984(3)
H6B H -0.1685 -0.1887 0.1749
C8B C -0.22696(12) -0.18076(12) 0.2877(4)
C9B C -0.27044(11) -0.17987(9) 0.2954(2)
C10B C -0.29058(11) -0.21376(11) 0.3078(3)
H7B H -0.2768 -0.2377 0.3113
C11B C -0.33028(11) -0.21266(11) 0.3147(3)
H8B H -0.3448 -0.2358 0.3245
C12B C -0.34856(12) -0.17736(9) 0.3088(3)
H9B H -0.3761 -0.1756 0.3146
C13B C -0.32633(10) -0.14481(10) 0.2963(3)
C14B C -0.34617(12) -0.10611(11) 0.2887(3)
C15B C -0.33156(13) -0.03909(11) 0.2478(3)
C16B C -0.30671(11) -0.02051(12) 0.1968(3)
H10B H -0.2841 -0.0335 0.1770
C17B C -0.31423(11) 0.01740(12) 0.1708(3)
C18B C -0.34757(12) 0.03619(12) 0.1967(3)
H11B H -0.3531 0.0618 0.1775
C19B C -0.37276(16) 0.01640(16) 0.2503(4)
H12B H -0.3956 0.0294 0.2686
C20B C -0.36506(14) -0.02097(14) 0.2739(4)
H13B H -0.3825 -0.0342 0.3099
C21B C -0.28703(11) 0.03623(11) 0.1130(2)
O7B O 0.01986(16) -0.1819(2) 0.0000
O8B O -0.15505(16) -0.2948(2) 0.0000
Mo1C Mo 0.222301(14) -0.041596(13) 0.0000
Mo2C Mo 0.255477(14) -0.092898(13) 0.0000
O1C O 0.18480(7) -0.06349(7) 0.09046(17)
O2C O 0.22001(7) -0.11768(7) 0.08992(17)
O3C O -0.07040(7) -0.29326(7) 0.08986(17)
O4C O -0.01660(7) -0.25797(7) 0.08858(16)
O5C O 0.21126(10) -0.20913(13) 0.2947(3)
O6C O 0.10321(10) -0.38082(10) 0.2965(3)
N1C N 0.14538(9) -0.28776(10) 0.2895(2)
N2C N 0.14663(10) -0.20935(10) 0.2742(2)
H1C H 0.1248 -0.2234 0.2765
N3C N 0.07703(9) -0.32177(10) 0.2708(3)
H2C H 0.0823 -0.2963 0.2725
C1C C 0.19149(11) -0.09803(11) 0.1161(3)
C2C C 0.16474(12) -0.11481(12) 0.1761(3)
C3C C 0.13418(15) -0.09331(14) 0.2089(3)
H3C H 0.1298 -0.0674 0.1902
C4C C 0.10985(16) -0.10972(14) 0.2639(4)
H4C H 0.0906 -0.0941 0.2903
C5C C 0.11446(17) -0.14817(16) 0.2863(3)
H5C H 0.0961 -0.1601 0.3222
C6C C 0.14408(13) -0.16988(11) 0.2544(3)
C7C C 0.16843(11) -0.15315(12) 0.1984(3)
H6C H 0.1887 -0.1685 0.1749
C8C C 0.18076(12) -0.22696(12) 0.2877(4)
C9C C 0.17987(9) -0.27044(11) 0.2954(2)
C10C C 0.21376(11) -0.29058(11) 0.3078(3)
H7C H 0.2377 -0.2768 0.3113
C11C C 0.21266(11) -0.33028(11) 0.3147(3)
H8C H 0.2358 -0.3448 0.3245
C12C C 0.17736(9) -0.34856(12) 0.3088(3)
H9C H 0.1756 -0.3761 0.3146
C13C C 0.14481(10) -0.32633(10) 0.2963(3)
C14C C 0.10611(11) -0.34617(12) 0.2887(3)
C15C C 0.03909(11) -0.33156(13) 0.2478(3)
C16C C 0.02051(12) -0.30671(11) 0.1968(3)
H10C H 0.0335 -0.2841 0.1770
C17C C -0.01740(12) -0.31423(11) 0.1708(3)
C18C C -0.03619(12) -0.34757(12) 0.1967(3)
H11C H -0.0618 -0.3531 0.1775
C19C C -0.01640(16) -0.37276(16) 0.2503(4)
H12C H -0.0294 -0.3956 0.2686
C20C C 0.02097(14) -0.36506(14) 0.2739(4)
H13C H 0.0342 -0.3825 0.3099
C21C C -0.03623(11) -0.28703(11) 0.1130(2)
O7C O 0.1819(2) 0.01986(16) 0.0000
O8C O 0.2948(2) -0.15505(16) 0.0000
O1H O -0.06349(7) -0.18480(7) -0.09046(17)
O2H O -0.11768(7) -0.22001(7) -0.08992(17)
O3H O -0.29326(7) 0.07040(7) -0.08986(17)
O4H O -0.25797(7) 0.01660(7) -0.08858(16)
O5H O -0.20913(13) -0.21126(10) -0.2947(3)
O6H O -0.38082(10) -0.10321(10) -0.2965(3)
N1H N -0.28776(10) -0.14538(9) -0.2895(2)
N2H N -0.20935(10) -0.14663(10) -0.2742(2)
H1H H -0.2234 -0.1248 -0.2765
N3H N -0.32177(10) -0.07703(9) -0.2708(3)
H2H H -0.2963 -0.0823 -0.2725
C1H C -0.09803(11) -0.19149(11) -0.1161(3)
C2H C -0.11481(12) -0.16474(12) -0.1761(3)
C3H C -0.09331(14) -0.13418(15) -0.2089(3)
H3H H -0.0674 -0.1298 -0.1902
C4H C -0.10972(14) -0.10985(16) -0.2639(4)
H4H H -0.0941 -0.0906 -0.2903
C5H C -0.14817(16) -0.11446(17) -0.2863(3)
H5H H -0.1601 -0.0961 -0.3222
C6H C -0.16988(11) -0.14408(13) -0.2544(3)
C7H C -0.15315(12) -0.16843(11) -0.1984(3)
H6H H -0.1685 -0.1887 -0.1749
C8H C -0.22696(12) -0.18076(12) -0.2877(4)
C9H C -0.27044(11) -0.17987(9) -0.2954(2)
C10H C -0.29058(11) -0.21376(11) -0.3078(3)
H7H H -0.2768 -0.2377 -0.3113
C11H C -0.33028(11) -0.21266(11) -0.3147(3)
H8H H -0.3448 -0.2358 -0.3245
C12H C -0.34856(12) -0.17736(9) -0.3088(3)
H9H H -0.3761 -0.1756 -0.3146
C13H C -0.32633(10) -0.14481(10) -0.2963(3)
C14H C -0.34617(12) -0.10611(11) -0.2887(3)
C15H C -0.33156(13) -0.03909(11) -0.2478(3)
C16H C -0.30671(11) -0.02051(12) -0.1968(3)
H10H H -0.2841 -0.0335 -0.1770
C17H C -0.31423(11) 0.01740(12) -0.1708(3)
C18H C -0.34757(12) 0.03619(12) -0.1967(3)
H11H H -0.3531 0.0618 -0.1775
C19H C -0.37276(16) 0.01640(16) -0.2503(4)
H12H H -0.3956 0.0294 -0.2686
C20H C -0.36506(14) -0.02097(14) -0.2739(4)
H13H H -0.3825 -0.0342 -0.3099
C21H C -0.28703(11) 0.03623(11) -0.1130(2)
O1I O 0.18480(7) -0.06349(7) -0.09046(17)
O2I O 0.22001(7) -0.11768(7) -0.08992(17)
O3I O -0.07040(7) -0.29326(7) -0.08986(17)
O4I O -0.01660(7) -0.25797(7) -0.08858(16)
O5I O 0.21126(10) -0.20913(13) -0.2947(3)
O6I O 0.10321(10) -0.38082(10) -0.2965(3)
N1I N 0.14538(9) -0.28776(10) -0.2895(2)
N2I N 0.14663(10) -0.20935(10) -0.2742(2)
H1I H 0.1248 -0.2234 -0.2765
N3I N 0.07703(9) -0.32177(10) -0.2708(3)
H2I H 0.0823 -0.2963 -0.2725
C1I C 0.19149(11) -0.09803(11) -0.1161(3)
C2I C 0.16474(12) -0.11481(12) -0.1761(3)
C3I C 0.13418(15) -0.09331(14) -0.2089(3)
H3I H 0.1298 -0.0674 -0.1902
C4I C 0.10985(16) -0.10972(14) -0.2639(4)
H4I H 0.0906 -0.0941 -0.2903
C5I C 0.11446(17) -0.14817(16) -0.2863(3)
H5I H 0.0961 -0.1601 -0.3222
C6I C 0.14408(13) -0.16988(11) -0.2544(3)
C7I C 0.16843(11) -0.15315(12) -0.1984(3)
H6I H 0.1887 -0.1685 -0.1749
C8I C 0.18076(12) -0.22696(12) -0.2877(4)
C9I C 0.17987(9) -0.27044(11) -0.2954(2)
C10I C 0.21376(11) -0.29058(11) -0.3078(3)
H7I H 0.2377 -0.2768 -0.3113
C11I C 0.21266(11) -0.33028(11) -0.3147(3)
H8I H 0.2358 -0.3448 -0.3245
C12I C 0.17736(9) -0.34856(12) -0.3088(3)
H9I H 0.1756 -0.3761 -0.3146
C13I C 0.14481(10) -0.32633(10) -0.2963(3)
C14I C 0.10611(11) -0.34617(12) -0.2887(3)
C15I C 0.03909(11) -0.33156(13) -0.2478(3)
C16I C 0.02051(12) -0.30671(11) -0.1968(3)
H10I H 0.0335 -0.2841 -0.1770
C17I C -0.01740(12) -0.31423(11) -0.1708(3)
C18I C -0.03619(12) -0.34757(12) -0.1967(3)
H11I H -0.0618 -0.3531 -0.1775
C19I C -0.01640(16) -0.37276(16) -0.2503(4)
H12I H -0.0294 -0.3956 -0.2686
C20I C 0.02097(14) -0.36506(14) -0.2739(4)
H13I H 0.0342 -0.3825 -0.3099
C21I C -0.03623(11) -0.28703(11) -0.1130(2)
O1J O 0.06349(7) 0.18480(7) -0.09046(17)
O2J O 0.11768(7) 0.22001(7) -0.08992(17)
O3J O 0.29326(7) -0.07040(7) -0.08986(17)
O4J O 0.25797(7) -0.01660(7) -0.08858(16)
O5J O 0.20913(13) 0.21126(10) -0.2947(3)
O6J O 0.38082(10) 0.10321(10) -0.2965(3)
N1J N 0.28776(10) 0.14538(9) -0.2895(2)
N2J N 0.20935(10) 0.14663(10) -0.2742(2)
H1J H 0.2234 0.1248 -0.2765
N3J N 0.32177(10) 0.07703(9) -0.2708(3)
H2J H 0.2963 0.0823 -0.2725
C1J C 0.09803(11) 0.19149(11) -0.1161(3)
C2J C 0.11481(12) 0.16474(12) -0.1761(3)
C3J C 0.09331(14) 0.13418(15) -0.2089(3)
H3J H 0.0674 0.1298 -0.1902
C4J C 0.10972(14) 0.10985(16) -0.2639(4)
H4J H 0.0941 0.0906 -0.2903
C5J C 0.14817(16) 0.11446(17) -0.2863(3)
H5J H 0.1601 0.0961 -0.3222
C6J C 0.16988(11) 0.14408(13) -0.2544(3)
C7J C 0.15315(12) 0.16843(11) -0.1984(3)
H6J H 0.1685 0.1887 -0.1749
C8J C 0.22696(12) 0.18076(12) -0.2877(4)
C9J C 0.27044(11) 0.17987(9) -0.2954(2)
C10J C 0.29058(11) 0.21376(11) -0.3078(3)
H7J H 0.2768 0.2377 -0.3113
C11J C 0.33028(11) 0.21266(11) -0.3147(3)
H8J H 0.3448 0.2358 -0.3245
C12J C 0.34856(12) 0.17736(9) -0.3088(3)
H9J H 0.3761 0.1756 -0.3146
C13J C 0.32633(10) 0.14481(10) -0.2963(3)
C14J C 0.34617(12) 0.10611(11) -0.2887(3)
C15J C 0.33156(13) 0.03909(11) -0.2478(3)
C16J C 0.30671(11) 0.02051(12) -0.1968(3)
H10J H 0.2841 0.0335 -0.1770
C17J C 0.31423(11) -0.01740(12) -0.1708(3)
C18J C 0.34757(12) -0.03619(12) -0.1967(3)
H11J H 0.3531 -0.0618 -0.1775
C19J C 0.37276(16) -0.01640(16) -0.2503(4)
H12J H 0.3956 -0.0294 -0.2686
C20J C 0.36506(14) 0.02097(14) -0.2739(4)
H13J H 0.3825 0.0342 -0.3099
C21J C 0.28703(11) -0.03623(11) -0.1130(2)
O1K O -0.18480(7) 0.06349(7) -0.09046(17)
O2K O -0.22001(7) 0.11768(7) -0.08992(17)
O3K O 0.07040(7) 0.29326(7) -0.08986(17)
O4K O 0.01660(7) 0.25797(7) -0.08858(16)
O5K O -0.21126(10) 0.20913(13) -0.2947(3)
O6K O -0.10321(10) 0.38082(10) -0.2965(3)
N1K N -0.14538(9) 0.28776(10) -0.2895(2)
N2K N -0.14663(10) 0.20935(10) -0.2742(2)
H1K H -0.1248 0.2234 -0.2765
N3K N -0.07703(9) 0.32177(10) -0.2708(3)
H2K H -0.0823 0.2963 -0.2725
C1K C -0.19149(11) 0.09803(11) -0.1161(3)
C2K C -0.16474(12) 0.11481(12) -0.1761(3)
C3K C -0.13418(15) 0.09331(14) -0.2089(3)
H3K H -0.1298 0.0674 -0.1902
C4K C -0.10985(16) 0.10972(14) -0.2639(4)
H4K H -0.0906 0.0941 -0.2903
C5K C -0.11446(17) 0.14817(16) -0.2863(3)
H5K H -0.0961 0.1601 -0.3222
C6K C -0.14408(13) 0.16988(11) -0.2544(3)
C7K C -0.16843(11) 0.15315(12) -0.1984(3)
H6K H -0.1887 0.1685 -0.1749
C8K C -0.18076(12) 0.22696(12) -0.2877(4)
C9K C -0.17987(9) 0.27044(11) -0.2954(2)
C10K C -0.21376(11) 0.29058(11) -0.3078(3)
H7K H -0.2377 0.2768 -0.3113
C11K C -0.21266(11) 0.33028(11) -0.3147(3)
H8K H -0.2358 0.3448 -0.3245
C12K C -0.17736(9) 0.34856(12) -0.3088(3)
H9K H -0.1756 0.3761 -0.3146
C13K C -0.14481(10) 0.32633(10) -0.2963(3)
C14K C -0.10611(11) 0.34617(12) -0.2887(3)
C15K C -0.03909(11) 0.33156(13) -0.2478(3)
C16K C -0.02051(12) 0.30671(11) -0.1968(3)
H10K H -0.0335 0.2841 -0.1770
C17K C 0.01740(12) 0.31423(11) -0.1708(3)
C18K C 0.03619(12) 0.34757(12) -0.1967(3)
H11K H 0.0618 0.3531 -0.1775
C19K C 0.01640(16) 0.37276(16) -0.2503(4)
H12K H 0.0294 0.3956 -0.2686
C20K C -0.02097(14) 0.36506(14) -0.2739(4)
H13K H -0.0342 0.3825 -0.3099
C21K C 0.03623(11) 0.28703(11) -0.1130(2)
loop_
_geom_bond_atom_site_label_1
_geom_bond_atom_site_label_2
_geom_bond_site_symmetry_1
_geom_bond_site_symmetry_2
Mo1 Mo2 1_555 1_555
Mo2 O2 1_555 1_555
O1 Mo1 1_555 1_555
O2 C1 1_555 1_555
O3 C21 1_555 1_555
O4 C21 1_555 1_555
O5 C8 1_555 1_555
O6 C14 1_555 1_555
N1 C9 1_555 1_555
N2 H1 1_555 1_555
N3 H2 1_555 1_555
C1 O1 1_555 1_555
C2 C1 1_555 1_555
C3 C2 1_555 1_555
H3 C3 1_555 1_555
C4 C3 1_555 1_555
H4 C4 1_555 1_555
C5 C4 1_555 1_555
H5 C5 1_555 1_555
C6 N2 1_555 1_555
C7 C2 1_555 1_555
H6 C7 1_555 1_555
C8 N2 1_555 1_555
C9 C8 1_555 1_555
C10 C9 1_555 1_555
H7 C10 1_555 1_555
C11 C10 1_555 1_555
H8 C11 1_555 1_555
C12 C11 1_555 1_555
H9 C12 1_555 1_555
C13 N1 1_555 1_555
C14 N3 1_555 1_555
C15 N3 1_555 1_555
C16 C15 1_555 1_555
H10 C16 1_555 1_555
C17 C16 1_555 1_555
C18 C17 1_555 1_555
H11 C18 1_555 1_555
C19 C18 1_555 1_555
H12 C19 1_555 1_555
C20 C15 1_555 1_555
H13 C20 1_555 1_555
C21 C17 1_555 1_555
O7 Mo1 1_555 1_555
O8 Mo2 1_555 1_555
Mo1A Mo2A 1_555 1_555
Mo2A O2A 1_555 1_555
O1A Mo1A 1_555 1_555
O2A C1A 1_555 1_555
O3A Mo2 1_555 1_555
O4A Mo1 1_555 1_555
O5A C8A 1_555 1_555
O6A C14A 1_555 1_555
N1A C9A 1_555 1_555
N2A H1A 1_555 1_555
N3A H2A 1_555 1_555
C1A O1A 1_555 1_555
C2A C1A 1_555 1_555
C3A C2A 1_555 1_555
H3A C3A 1_555 1_555
C4A C3A 1_555 1_555
H4A C4A 1_555 1_555
C5A C4A 1_555 1_555
H5A C5A 1_555 1_555
C6A N2A 1_555 1_555
C7A C2A 1_555 1_555
H6A C7A 1_555 1_555
C8A N2A 1_555 1_555
C9A C8A 1_555 1_555
C10A C9A 1_555 1_555
H7A C10A 1_555 1_555
C11A C10A 1_555 1_555
H8A C11A 1_555 1_555
C12A C11A 1_555 1_555
H9A C12A 1_555 1_555
C13A N1A 1_555 1_555
C14A N3A 1_555 1_555
C15A N3A 1_555 1_555
C16A C15A 1_555 1_555
H10A C16A 1_555 1_555
C17A C16A 1_555 1_555
C18A C17A 1_555 1_555
H11A C18A 1_555 1_555
C19A C18A 1_555 1_555
H12A C19A 1_555 1_555
C20A C15A 1_555 1_555
H13A C20A 1_555 1_555
C21A O3A 1_555 1_555
O7A Mo1A 1_555 1_555
O8A Mo2A 1_555 1_555
Mo1B Mo2B 1_555 1_555
Mo2B O2B 1_555 1_555
O1B Mo1B 1_555 1_555
O2B C1B 1_555 1_555
O3B Mo2A 1_555 1_555
O4B Mo1A 1_555 1_555
O5B C8B 1_555 1_555
O6B C14B 1_555 1_555
N1B C9B 1_555 1_555
N2B H1B 1_555 1_555
N3B H2B 1_555 1_555
C1B O1B 1_555 1_555
C2B C1B 1_555 1_555
C3B C2B 1_555 1_555
H3B C3B 1_555 1_555
C4B C3B 1_555 1_555
H4B C4B 1_555 1_555
C5B C4B 1_555 1_555
H5B C5B 1_555 1_555
C6B N2B 1_555 1_555
C7B C2B 1_555 1_555
H6B C7B 1_555 1_555
C8B N2B 1_555 1_555
C9B C8B 1_555 1_555
C10B C9B 1_555 1_555
H7B C10B 1_555 1_555
C11B C10B 1_555 1_555
H8B C11B 1_555 1_555
C12B C11B 1_555 1_555
H9B C12B 1_555 1_555
C13B N1B 1_555 1_555
C14B N3B 1_555 1_555
C15B N3B 1_555 1_555
C16B C15B 1_555 1_555
H10B C16B 1_555 1_555
C17B C16B 1_555 1_555
C18B C17B 1_555 1_555
H11B C18B 1_555 1_555
C19B C18B 1_555 1_555
H12B C19B 1_555 1_555
C20B C15B 1_555 1_555
H13B C20B 1_555 1_555
C21B O3B 1_555 1_555
O7B Mo1B 1_555 1_555
O8B Mo2B 1_555 1_555
Mo1C O4 1_555 1_555
Mo2C O3 1_555 1_555
O1C Mo1C 1_555 1_555
O2C Mo2C 1_555 1_555
O3C Mo2B 1_555 1_555
O4C Mo1B 1_555 1_555
O5C C8C 1_555 1_555
O6C C14C 1_555 1_555
N1C C9C 1_555 1_555
N2C H1C 1_555 1_555
N3C H2C 1_555 1_555
C1C O1C 1_555 1_555
C2C C1C 1_555 1_555
C3C C2C 1_555 1_555
H3C C3C 1_555 1_555
C4C C3C 1_555 1_555
H4C C4C 1_555 1_555
C5C C4C 1_555 1_555
H5C C5C 1_555 1_555
C6C N2C 1_555 1_555
C7C C2C 1_555 1_555
H6C C7C 1_555 1_555
C8C N2C 1_555 1_555
C9C C8C 1_555 1_555
C10C C9C 1_555 1_555
H7C C10C 1_555 1_555
C11C C10C 1_555 1_555
H8C C11C 1_555 1_555
C12C C11C 1_555 1_555
H9C C12C 1_555 1_555
C13C N1C 1_555 1_555
C14C N3C 1_555 1_555
C15C N3C 1_555 1_555
C16C C15C 1_555 1_555
H10C C16C 1_555 1_555
C17C C16C 1_555 1_555
C18C C17C 1_555 1_555
H11C C18C 1_555 1_555
C19C C18C 1_555 1_555
H12C C19C 1_555 1_555
C20C C15C 1_555 1_555
H13C C20C 1_555 1_555
C21C O3C 1_555 1_555
O7C Mo1C 1_555 1_555
O8C Mo2C 1_555 1_555
O1H Mo1B 1_555 1_555
O2H Mo2B 1_555 1_555
O3H Mo2A 1_555 1_555
O4H Mo1A 1_555 1_555
O5H C8H 1_555 1_555
O6H C14H 1_555 1_555
N1H C9H 1_555 1_555
N2H H1H 1_555 1_555
N3H H2H 1_555 1_555
C1H O1H 1_555 1_555
C2H C1H 1_555 1_555
C3H C2H 1_555 1_555
H3H C3H 1_555 1_555
C4H C3H 1_555 1_555
H4H C4H 1_555 1_555
C5H C4H 1_555 1_555
H5H C5H 1_555 1_555
C6H N2H 1_555 1_555
C7H C2H 1_555 1_555
H6H C7H 1_555 1_555
C8H N2H 1_555 1_555
C9H C8H 1_555 1_555
C10H C9H 1_555 1_555
H7H C10H 1_555 1_555
C11H C10H 1_555 1_555
H8H C11H 1_555 1_555
C12H C11H 1_555 1_555
H9H C12H 1_555 1_555
C13H N1H 1_555 1_555
C14H N3H 1_555 1_555
C15H N3H 1_555 1_555
C16H C15H 1_555 1_555
H10H C16H 1_555 1_555
C17H C16H 1_555 1_555
C18H C17H 1_555 1_555
H11H C18H 1_555 1_555
C19H C18H 1_555 1_555
H12H C19H 1_555 1_555
C20H C15H 1_555 1_555
H13H C20H 1_555 1_555
C21H O3H 1_555 1_555
O1I Mo1C 1_555 1_555
O2I Mo2C 1_555 1_555
O3I Mo2B 1_555 1_555
O4I Mo1B 1_555 1_555
O5I C8I 1_555 1_555
O6I C14I 1_555 1_555
N1I C9I 1_555 1_555
N2I H1I 1_555 1_555
N3I H2I 1_555 1_555
C1I O1I 1_555 1_555
C2I C1I 1_555 1_555
C3I C2I 1_555 1_555
H3I C3I 1_555 1_555
C4I C3I 1_555 1_555
H4I C4I 1_555 1_555
C5I C4I 1_555 1_555
H5I C5I 1_555 1_555
C6I N2I 1_555 1_555
C7I C2I 1_555 1_555
H6I C7I 1_555 1_555
C8I N2I 1_555 1_555
C9I C8I 1_555 1_555
C10I C9I 1_555 1_555
H7I C10I 1_555 1_555
C11I C10I 1_555 1_555
H8I C11I 1_555 1_555
C12I C11I 1_555 1_555
H9I C12I 1_555 1_555
C13I N1I 1_555 1_555
C14I N3I 1_555 1_555
C15I N3I 1_555 1_555
C16I C15I 1_555 1_555
H10I C16I 1_555 1_555
C17I C16I 1_555 1_555
C18I C17I 1_555 1_555
H11I C18I 1_555 1_555
C19I C18I 1_555 1_555
H12I C19I 1_555 1_555
C20I C15I 1_555 1_555
H13I C20I 1_555 1_555
C21I O3I 1_555 1_555
O1J Mo1 1_555 1_555
O2J Mo2 1_555 1_555
O3J Mo2C 1_555 1_555
O4J Mo1C 1_555 1_555
O5J C8J 1_555 1_555
O6J C14J 1_555 1_555
N1J C9J 1_555 1_555
N2J H1J 1_555 1_555
N3J H2J 1_555 1_555
C1J O1J 1_555 1_555
C2J C1J 1_555 1_555
C3J C2J 1_555 1_555
H3J C3J 1_555 1_555
C4J C3J 1_555 1_555
H4J C4J 1_555 1_555
C5J C4J 1_555 1_555
H5J C5J 1_555 1_555
C6J N2J 1_555 1_555
C7J C2J 1_555 1_555
H6J C7J 1_555 1_555
C8J N2J 1_555 1_555
C9J C8J 1_555 1_555
C10J C9J 1_555 1_555
H7J C10J 1_555 1_555
C11J C10J 1_555 1_555
H8J C11J 1_555 1_555
C12J C11J 1_555 1_555
H9J C12J 1_555 1_555
C13J N1J 1_555 1_555
C14J N3J 1_555 1_555
C15J N3J 1_555 1_555
C16J C15J 1_555 1_555
H10J C16J 1_555 1_555
C17J C16J 1_555 1_555
C18J C17J 1_555 1_555
H11J C18J 1_555 1_555
C19J C18J 1_555 1_555
H12J C19J 1_555 1_555
C20J C15J 1_555 1_555
H13J C20J 1_555 1_555
C21J O3J 1_555 1_555
O1K Mo1A 1_555 1_555
O2K Mo2A 1_555 1_555
O3K Mo2 1_555 1_555
O4K Mo1 1_555 1_555
O5K C8K 1_555 1_555
O6K C14K 1_555 1_555
N1K C9K 1_555 1_555
N2K H1K 1_555 1_555
N3K H2K 1_555 1_555
C1K O1K 1_555 1_555
C2K C1K 1_555 1_555
C3K C2K 1_555 1_555
H3K C3K 1_555 1_555
C4K C3K 1_555 1_555
H4K C4K 1_555 1_555
C5K C4K 1_555 1_555
H5K C5K 1_555 1_555
C6K N2K 1_555 1_555
C7K C2K 1_555 1_555
H6K C7K 1_555 1_555
C8K N2K 1_555 1_555
C9K C8K 1_555 1_555
C10K C9K 1_555 1_555
H7K C10K 1_555 1_555
C11K C10K 1_555 1_555
H8K C11K 1_555 1_555
C12K C11K 1_555 1_555
H9K C12K 1_555 1_555
C13K N1K 1_555 1_555
C14K N3K 1_555 1_555
C15K N3K 1_555 1_555
C16K C15K 1_555 1_555
H10K C16K 1_555 1_555
C17K C16K 1_555 1_555
C18K C17K 1_555 1_555
H11K C18K 1_555 1_555
C19K C18K 1_555 1_555
H12K C19K 1_555 1_555
C20K C15K 1_555 1_555
H13K C20K 1_555 1_555
C21K O3K 1_555 1_555
C5 C6 1_555 1_555
C6 C7 1_555 1_555
C12 C13 1_555 1_555
C13 C14 1_555 1_555
C19 C20 1_555 1_555
O4A C21A 1_555 1_555
C5A C6A 1_555 1_555
C6A C7A 1_555 1_555
C12A C13A 1_555 1_555
C13A C14A 1_555 1_555
C17A C21A 1_555 1_555
C19A C20A 1_555 1_555
O4B C21B 1_555 1_555
C5B C6B 1_555 1_555
C6B C7B 1_555 1_555
C12B C13B 1_555 1_555
C13B C14B 1_555 1_555
C17B C21B 1_555 1_555
C19B C20B 1_555 1_555
Mo1C Mo2C 1_555 1_555
O2C C1C 1_555 1_555
O4C C21C 1_555 1_555
C5C C6C 1_555 1_555
C6C C7C 1_555 1_555
C12C C13C 1_555 1_555
C13C C14C 1_555 1_555
C17C C21C 1_555 1_555
C19C C20C 1_555 1_555
O2H C1H 1_555 1_555
O4H C21H 1_555 1_555
C5H C6H 1_555 1_555
C6H C7H 1_555 1_555
C12H C13H 1_555 1_555
C13H C14H 1_555 1_555
C17H C21H 1_555 1_555
C19H C20H 1_555 1_555
O2I C1I 1_555 1_555
O4I C21I 1_555 1_555
C5I C6I 1_555 1_555
C6I C7I 1_555 1_555
C12I C13I 1_555 1_555
C13I C14I 1_555 1_555
C17I C21I 1_555 1_555
C19I C20I 1_555 1_555
O2J C1J 1_555 1_555
O4J C21J 1_555 1_555
C5J C6J 1_555 1_555
C6J C7J 1_555 1_555
C12J C13J 1_555 1_555
C13J C14J 1_555 1_555
C17J C21J 1_555 1_555
C19J C20J 1_555 1_555
O2K C1K 1_555 1_555
O4K C21K 1_555 1_555
C5K C6K 1_555 1_555
C6K C7K 1_555 1_555
C12K C13K 1_555 1_555
C13K C14K 1_555 1_555
C17K C21K 1_555 1_555
C19K C20K 1_555 1_555

#END
