
#######################################################################
#
#                 Cambridge Crystallographic Data Centre
#                                CCDC 
#
#######################################################################
#
# If this CIF has been generated from an entry in the Cambridge 
# Structural Database, then it will include bibliographic, chemical, 
# crystal, experimental, refinement or atomic coordinate data resulting 
# from the CCDC's data processing and validation procedures.
#
#######################################################################

data_UQOYOQ
_chemical_name_common            
"dodecakis(mu-3,3'-(pyridine-2,6-diylbis(carbonylimino))dibenzoato)-dodecakis(N,N-dimethylacetamide)-dodeca-copper N,N-dimethylacetamide solvate"
_chemical_formula_moiety         'C300 H264 Cu12 N48 O84,x(C4 H9 N1 O1)'
_chemical_name_systematic        
"dodecakis(\m-3,3'-((pyridine-2,6-dicarbonyl)bis(azanediyl))dibenzoato)-dodecakis(N,N-dimethylacetamide)-dodeca-copper N,N-dimethylacetamide solvate"
_symmetry_cell_setting           triclinic
_symmetry_space_group_name_H-M   'P -1'
_symmetry_Int_Tables_number      2
_space_group_name_Hall           '-P 1'
loop_
_symmetry_equiv_pos_site_id
_symmetry_equiv_pos_as_xyz
1 x,y,z
2 -x,-y,-z
_cell_length_a                   26.273(5)
_cell_length_b                   26.687(5)
_cell_length_c                   29.106(6)
_cell_angle_alpha                90.067(3)
_cell_angle_beta                 108.930(2)
_cell_angle_gamma                105.381(2)
_cell_volume                     18527.2
_exptl_crystal_colour            blue
_exptl_crystal_description       'square plate'
_cell_formula_units_Z            1
loop_
_atom_site_label
_atom_site_type_symbol
_atom_site_fract_x
_atom_site_fract_y
_atom_site_fract_z
Cu1 Cu 0.92070(3) 0.40442(3) 0.06699(3)
Cu2 Cu 0.83476(3) 0.32338(3) 0.06186(3)
Cu3 Cu 0.81514(3) -0.20869(3) 0.32674(3)
Cu4 Cu 0.75530(3) -0.16367(3) 0.25762(3)
Cu5 Cu 0.38537(3) 0.22463(3) 0.32329(3)
Cu6 Cu 0.41523(3) 0.18678(3) 0.25586(3)
O1 O 0.99714(15) 0.47375(13) 0.08046(14)
O2 O 0.96357(14) 0.36507(14) 0.11563(13)
O3 O 0.76171(15) 0.25547(14) 0.05439(15)
O4 O 0.88919(16) 0.29790(14) 0.11270(14)
O5 O 0.87736(15) -0.14644(14) 0.33115(14)
O6 O 0.86696(14) -0.24082(13) 0.38487(13)
O7 O 0.70629(17) -0.12535(15) 0.20167(15)
O8 O 0.82502(16) -0.10569(13) 0.27498(14)
O9 O 0.36762(14) 0.25879(14) 0.38225(13)
O10 O 1.17349(19) 0.27710(18) 0.27319(18)
O11 O 0.44096(17) 0.15617(15) 0.19850(16)
O12 O 1.1294(2) 0.0484(2) 0.3901(2)
O13 O 0.82952(15) -0.24338(14) 0.27488(15)
O14 O 0.78171(15) -0.20143(15) 0.21470(14)
O15 O 0.66523(15) -0.25158(14) -0.27072(15)
O16 O 0.63544(16) -0.22526(14) -0.21392(13)
O17 O 0.89766(18) -0.39756(14) 0.12369(15)
O18 O 0.86403(16) -0.36039(17) -0.12285(16)
O19 O 0.79457(18) -0.16946(18) 0.37009(15)
O20 O 0.73723(15) -0.13610(14) 0.31097(18)
O21 O 0.43799(18) 0.19370(16) 0.36894(15)
O22 O 0.45738(14) 0.15353(13) 0.31020(16)
O23 O 0.5481(3) 0.0624(2) 0.56028(19)
O24 O 0.6788(2) -0.1299(2) 0.54478(18)
O25 O 0.44977(17) 0.28672(15) 0.32858(15)
O26 O 0.47841(16) 0.25182(16) 0.27441(15)
O27 O 0.89900(17) 0.43366(15) 0.11745(15)
O28 O 0.82441(16) 0.36513(16) 0.11289(15)
O29 O 0.85979(16) 0.59987(15) 0.28065(14)
O30 O 0.66621(16) 0.51754(14) 0.40028(15)
O31 O 0.86622(19) 0.43016(17) 0.0172(2)
O32 O 0.79327(17) 0.36273(17) 0.0097(2)
O33 O 0.25464(19) 0.26253(17) -0.3127(2)
O34 O 0.30523(17) 0.22724(17) -0.2526(2)
O35 O 0.43703(18) 0.50152(16) -0.2778(2)
O36 O 0.72920(18) 0.57476(17) -0.14325(19)
O37 O 0.32789(18) 0.15661(17) 0.30623(18)
O38 O 0.34834(18) 0.12716(16) 0.24801(17)
O39 O 0.06977(18) -0.36499(17) -0.01529(17)
O40 O 0.14173(18) -0.29459(16) -0.01092(17)
O41 O -0.02908(17) -0.26738(16) 0.14377(16)
O42 O 0.07567(17) -0.01801(16) 0.26929(17)
N1 N 1.1283(2) 0.1597(2) 0.3221(2)
N2 N 1.08643(19) 0.22379(17) 0.26123(17)
H1 H 1.0692 0.1950 0.2709
N3 N 1.0565(2) 0.06886(15) 0.33291(19)
H2 H 1.0478 0.0940 0.3152
N4 N 0.86906(19) -0.36578(17) 0.00103(17)
N5 N 0.85092(18) -0.34202(17) 0.08466(15)
H3 H 0.8370 -0.3321 0.0555
N6 N 0.81797(17) -0.32649(16) -0.08091(15)
H4 H 0.8157 -0.3224 -0.0517
N7 N 0.6220(2) -0.0247(2) 0.53804(16)
N8 N 0.5741(2) 0.04805(19) 0.49461(18)
H5 H 0.5944 0.0319 0.4847
N9 N 0.6757(2) -0.0707(2) 0.49021(17)
H6 H 0.6661 -0.0417 0.4831
N10 N 0.75464(19) 0.53913(17) 0.32825(18)
N11 N 0.80032(19) 0.51506(18) 0.26695(16)
H7 H 0.7739 0.4942 0.2760
N12 N 0.66822(17) 0.46511(16) 0.33740(17)
H8 H 0.6868 0.4637 0.3174
N13 N 0.5823(2) 0.52005(19) -0.2067(2)
N14 N 0.48213(18) 0.44411(18) -0.2392(2)
H9 H 0.5145 0.4380 -0.2241
N15 N 0.66991(19) 0.49599(19) -0.1408(2)
H10 H 0.6354 0.4758 -0.1541
N16 N 0.04374(19) -0.13956(19) 0.2008(2)
N17 N 0.0503(2) -0.20984(18) 0.13902(18)
H11 H 0.0746 -0.1793 0.1514
N18 N 0.12610(19) -0.04848(17) 0.23035(19)
H12 H 0.1245 -0.0729 0.2091
C1 C 0.9402(3) 0.3213(3) 0.1263(2)
C2 C 0.97987(16) 0.29595(16) 0.16063(14)
C3 C 1.03765(17) 0.31684(13) 0.17436(15)
H13 H 1.0529 0.3473 0.1610
C4 C 1.07306(11) 0.29314(15) 0.20763(15)
H14 H 1.1126 0.3074 0.2170
C5 C 1.05068(16) 0.24856(16) 0.22717(14)
C6 C 0.99290(17) 0.22767(13) 0.21344(15)
H15 H 0.9776 0.1972 0.2268
C7 C 0.95749(11) 0.25137(15) 0.18017(15)
H16 H 0.9180 0.2371 0.1708
C8 C 1.1425(2) 0.2379(3) 0.2808(3)
C9 C 1.1661(3) 0.2019(2) 0.3164(2)
C10 C 1.2235(3) 0.2154(2) 0.3385(2)
H17 H 1.2477 0.2456 0.3316
C11 C 1.2436(3) 0.1820(2) 0.3712(2)
H18 H 1.2828 0.1892 0.3878
C12 C 1.2075(3) 0.1382(2) 0.3801(2)
H19 H 1.2208 0.1153 0.4029
C13 C 1.1510(3) 0.1291(2) 0.3543(2)
C14 C 1.1112(3) 0.0784(3) 0.3599(3)
C15 C 1.01103(13) 0.02453(12) 0.32876(14)
C16 C 1.01568(12) -0.01708(15) 0.35700(12)
H20 H 1.0503 -0.0159 0.3816
C17 C 0.96967(16) -0.06043(12) 0.34930(13)
H21 H 0.9729 -0.0889 0.3686
C18 C 0.91900(13) -0.06218(12) 0.31336(14)
C19 C 0.91434(12) -0.02058(15) 0.28512(12)
H22 H 0.8797 -0.0218 0.2606
C20 C 0.96035(16) 0.02278(12) 0.29283(13)
H23 H 0.9572 0.0512 0.2735
C21 C 0.8684(3) -0.1113(2) 0.3049(2)
C22 C 0.8112(2) -0.2347(2) 0.2318(3)
C23 C 0.81949(16) -0.26301(14) 0.19274(14)
C24 C 0.84407(15) -0.30340(16) 0.20562(11)
H24 H 0.8541 -0.3120 0.2384
C25 C 0.85389(14) -0.33121(12) 0.17052(16)
H25 H 0.8707 -0.3588 0.1793
C26 C 0.83914(16) -0.31864(14) 0.12254(14)
C27 C 0.81456(15) -0.27825(16) 0.10965(11)
H26 H 0.8045 -0.2697 0.0769
C28 C 0.80473(14) -0.25044(12) 0.14475(16)
H27 H 0.7879 -0.2228 0.1359
C29 C 0.8803(2) -0.3772(2) 0.0864(2)
C30 C 0.8910(2) -0.3887(2) 0.04059(18)
C31 C 0.9218(2) -0.4229(2) 0.0390(2)
H28 H 0.9349 -0.4401 0.0671
C32 C 0.9341(2) -0.4332(2) -0.00209(17)
H29 H 0.9553 -0.4566 -0.0033
C33 C 0.9131(2) -0.4067(2) -0.0412(2)
H30 H 0.9222 -0.4100 -0.0699
C34 C 0.8791(2) -0.3756(2) -0.03984(19)
C35 C 0.8540(3) -0.3527(2) -0.0859(2)
C36 C 0.78403(14) -0.30542(13) -0.11945(13)
C37 C 0.78511(14) -0.30424(13) -0.16688(15)
H31 H 0.8115 -0.3172 -0.1754
C38 C 0.74754(17) -0.28404(14) -0.20183(10)
H32 H 0.7483 -0.2832 -0.2342
C39 C 0.70890(14) -0.26501(13) -0.18936(13)
C40 C 0.70783(14) -0.26620(13) -0.14194(16)
H33 H 0.6814 -0.2532 -0.1334
C41 C 0.74539(17) -0.28640(14) -0.10698(10)
H34 H 0.7447 -0.2872 -0.0746
C42 C 0.6689(3) -0.2453(2) -0.2288(2)
C43 C 0.7603(4) -0.1451(3) 0.3552(3)
C44 C 0.73732(18) -0.12381(17) 0.38820(15)
C45 C 0.70016(18) -0.09354(16) 0.37432(11)
H35 H 0.6888 -0.0844 0.3418
C46 C 0.67966(15) -0.07661(15) 0.40809(17)
H36 H 0.6543 -0.0559 0.3986
C47 C 0.69631(18) -0.08996(17) 0.45575(15)
C48 C 0.73346(18) -0.12023(16) 0.46963(11)
H37 H 0.7448 -0.1294 0.5022
C49 C 0.75397(15) -0.13716(15) 0.43586(17)
H38 H 0.7794 -0.1578 0.4453
C50 C 0.6682(3) -0.0889(3) 0.5315(2)
C51 C 0.6458(3) -0.0604(2) 0.5611(2)
C52 C 0.6456(3) -0.0778(2) 0.6056(2)
H39 H 0.6594 -0.1063 0.6179
C53 C 0.6235(3) -0.0506(2) 0.63094(18)
H40 H 0.6237 -0.0587 0.6628
C54 C 0.6011(3) -0.0116(2) 0.6097(2)
H41 H 0.5857 0.0070 0.6271
C55 C 0.6009(3) 0.0008(2) 0.5637(2)
C56 C 0.5717(3) 0.0406(3) 0.5402(2)
C57 C 0.54674(16) 0.07963(16) 0.46166(15)
C58 C 0.54797(17) 0.07611(15) 0.41440(17)
H42 H 0.5664 0.0534 0.4056
C59 C 0.52223(18) 0.10578(18) 0.38003(12)
H43 H 0.5231 0.1034 0.3477
C60 C 0.49526(17) 0.13898(16) 0.39292(15)
C61 C 0.49403(17) 0.14250(14) 0.44018(17)
H44 H 0.4756 0.1652 0.4490
C62 C 0.51977(18) 0.11283(17) 0.47455(11)
H45 H 0.5189 0.1152 0.5068
C63 C 0.4588(3) 0.1653(3) 0.3567(3)
C64 C 0.4804(3) 0.2867(3) 0.3041(3)
C65 C 0.53125(13) 0.33206(12) 0.31440(16)
C66 C 0.56696(18) 0.33751(14) 0.28729(13)
H46 H 0.5604 0.3109 0.2626
C67 C 0.61221(15) 0.38182(17) 0.29628(14)
H47 H 0.6366 0.3855 0.2778
C68 C 0.62174(13) 0.42070(12) 0.33238(16)
C69 C 0.58604(18) 0.41526(14) 0.35949(13)
H48 H 0.5926 0.4418 0.3842
C70 C 0.54079(15) 0.37094(17) 0.35050(14)
H49 H 0.5164 0.3672 0.3690
C71 C 0.6876(2) 0.5084(2) 0.3679(2)
C72 C 0.7355(2) 0.5516(2) 0.3629(2)
C73 C 0.7529(2) 0.59854(19) 0.3911(2)
H50 H 0.7369 0.6040 0.4150
C74 C 0.7948(2) 0.6371(2) 0.3828(2)
H51 H 0.8091 0.6697 0.4020
C75 C 0.8163(2) 0.6291(2) 0.3469(2)
H52 H 0.8427 0.6559 0.3384
C76 C 0.7962(2) 0.57885(19) 0.3244(2)
C77 C 0.8202(3) 0.5642(2) 0.2879(2)
C78 C 0.81643(18) 0.49319(16) 0.23259(13)
C79 C 0.78665(14) 0.44137(16) 0.21639(15)
H53 H 0.7578 0.4242 0.2286
C80 C 0.79908(16) 0.41467(11) 0.18229(15)
H54 H 0.7787 0.3793 0.1712
C81 C 0.84128(18) 0.43978(16) 0.16438(13)
C82 C 0.87106(14) 0.49160(16) 0.18058(15)
H55 H 0.8999 0.5088 0.1683
C83 C 0.85863(16) 0.51831(11) 0.21468(15)
H56 H 0.8790 0.5537 0.2258
C84 C 0.8551(3) 0.4103(2) 0.1274(2)
C85 C 0.8185(3) 0.4063(3) -0.0024(3)
C86 C 0.77784(17) 0.42718(18) -0.03846(17)
C87 C 0.80011(12) 0.47563(17) -0.05237(18)
H57 H 0.8391 0.4925 -0.0388
C88 C 0.76527(19) 0.49935(14) -0.08622(18)
H58 H 0.7805 0.5325 -0.0957
C89 C 0.70817(18) 0.47460(18) -0.10615(17)
C90 C 0.68591(12) 0.42615(17) -0.09224(18)
H59 H 0.6469 0.4092 -0.1059
C91 C 0.72074(19) 0.40244(14) -0.05839(19)
H60 H 0.7055 0.3693 -0.0489
C92 C 0.6813(3) 0.5444(2) -0.1553(3)
C93 C 0.6311(2) 0.5576(2) -0.1903(3)
C94 C 0.6399(2) 0.6063(2) -0.2075(3)
H61 H 0.6757 0.6312 -0.1953
C95 C 0.5959(2) 0.6180(2) -0.2426(3)
H62 H 0.6008 0.6506 -0.2560
C96 C 0.5446(2) 0.5807(2) -0.2576(3)
H63 H 0.5126 0.5886 -0.2794
C97 C 0.5398(2) 0.5319(2) -0.2407(3)
C98 C 0.4836(3) 0.4925(2) -0.2521(3)
C99 C 0.43349(16) 0.40211(14) -0.24767(19)
C100 C 0.3837(2) 0.39890(15) -0.28534(18)
H64 H 0.3794 0.4281 -0.3034
C101 C 0.34002(15) 0.35301(19) -0.29665(16)
H65 H 0.3060 0.3508 -0.3224
C102 C 0.34621(16) 0.31033(14) -0.27028(19)
C103 C 0.3960(2) 0.31353(15) -0.23261(17)
H66 H 0.4003 0.2844 -0.2146
C104 C 0.43967(15) 0.35942(19) -0.22131(15)
H67 H 0.4737 0.3616 -0.1956
C105 C 0.2948(3) 0.2625(3) -0.2816(3)
C106 C 0.3197(3) 0.1253(3) 0.2747(3)
C107 C 0.26989(14) 0.08005(14) 0.26421(17)
C108 C 0.23395(19) 0.07771(14) 0.29071(14)
H68 H 0.2422 0.1047 0.3156
C109 C 0.18600(17) 0.03593(18) 0.28085(16)
H69 H 0.1614 0.0343 0.2990
C110 C 0.17400(14) -0.00351(14) 0.24448(17)
C111 C 0.20995(19) -0.00116(14) 0.21798(14)
H70 H 0.2017 -0.0281 0.1931
C112 C 0.25789(17) 0.04062(18) 0.22785(16)
H71 H 0.2825 0.0422 0.2097
C113 C 0.0831(2) -0.0553(2) 0.2481(3)
C114 C 0.0372(2) -0.1060(2) 0.2313(2)
C115 C -0.0041(2) -0.1128(2) 0.2523(2)
H72 H -0.0056 -0.0862 0.2730
C116 C -0.0429(2) -0.1613(2) 0.2407(2)
H73 H -0.0720 -0.1691 0.2544
C117 C -0.0402(2) -0.1987(2) 0.2094(2)
H74 H -0.0665 -0.2323 0.2014
C118 C 0.0028(2) -0.1846(2) 0.1903(2)
C119 C 0.0057(3) -0.2226(2) 0.1531(2)
C120 C 0.0634(2) -0.23916(17) 0.10684(15)
C121 C 0.10887(17) -0.21487(12) 0.09255(16)
H75 H 0.1313 -0.1807 0.1064
C122 C 0.12155(15) -0.24063(17) 0.05800(17)
H76 H 0.1526 -0.2240 0.0482
C123 C 0.08876(19) -0.29068(17) 0.03773(14)
C124 C 0.04330(17) -0.31497(12) 0.05202(16)
H77 H 0.0209 -0.3492 0.0382
C125 C 0.03062(15) -0.28921(17) 0.08657(17)
H78 H -0.0005 -0.3058 0.0963
C126 C 0.0971(3) -0.3223(3) -0.0006(3)
Cu1A Cu 0.07930(3) -0.40442(3) -0.06699(3)
Cu2A Cu 0.16524(3) -0.32338(3) -0.06186(3)
Cu3A Cu 0.18486(3) 0.20869(3) -0.32674(3)
Cu4A Cu 0.24470(3) 0.16367(3) -0.25762(3)
Cu5A Cu 0.61463(3) -0.22463(3) -0.32329(3)
Cu6A Cu 0.58477(3) -0.18678(3) -0.25586(3)
O1A O 0.00286(15) -0.47375(13) -0.08046(14)
O2A O 0.03643(14) -0.36507(14) -0.11563(13)
O3A O 0.23829(15) -0.25547(14) -0.05439(15)
O4A O 0.11081(16) -0.29790(14) -0.11270(14)
O5A O 0.12264(15) 0.14644(14) -0.33115(14)
O6A O 0.13304(14) 0.24082(13) -0.38487(13)
O7A O 0.29371(17) 0.12535(15) -0.20167(15)
O8A O 0.17498(16) 0.10569(13) -0.27498(14)
O9A O 0.63238(14) -0.25879(14) -0.38225(13)
O10A O -0.17349(19) -0.27710(18) -0.27319(18)
O11A O 0.55904(17) -0.15617(15) -0.19850(16)
O12A O -0.1294(2) -0.0484(2) -0.3901(2)
O13A O 0.17048(15) 0.24338(14) -0.27488(15)
O14A O 0.21829(15) 0.20143(15) -0.21470(14)
O15A O 0.33477(15) 0.25158(14) 0.27072(15)
O16A O 0.36456(16) 0.22526(14) 0.21392(13)
O17A O 0.10234(18) 0.39756(14) -0.12369(15)
O18A O 0.13597(16) 0.36039(17) 0.12285(16)
O19A O 0.20543(18) 0.16946(18) -0.37009(15)
O20A O 0.26277(15) 0.13610(14) -0.31097(18)
O21A O 0.56201(18) -0.19370(16) -0.36894(15)
O22A O 0.54262(14) -0.15353(13) -0.31020(16)
O23A O 0.4519(3) -0.0624(2) -0.56028(19)
O24A O 0.3212(2) 0.1299(2) -0.54478(18)
O25A O 0.55023(17) -0.28672(15) -0.32858(15)
O26A O 0.52159(16) -0.25182(16) -0.27441(15)
O27A O 0.10100(17) -0.43366(15) -0.11745(15)
O28A O 0.17559(16) -0.36513(16) -0.11289(15)
O29A O 0.14021(16) -0.59987(15) -0.28065(14)
O30A O 0.33379(16) -0.51754(14) -0.40028(15)
O31A O 0.13378(19) -0.43016(17) -0.0172(2)
O32A O 0.20673(17) -0.36273(17) -0.0097(2)
O33A O 0.74536(19) -0.26253(17) 0.3127(2)
O34A O 0.69477(17) -0.22724(17) 0.2526(2)
O35A O 0.56297(18) -0.50152(16) 0.2778(2)
O36A O 0.27080(18) -0.57476(17) 0.14325(19)
O37A O 0.67211(18) -0.15661(17) -0.30623(18)
O38A O 0.65166(18) -0.12716(16) -0.24801(17)
O39A O 0.93023(18) 0.36499(17) 0.01529(17)
O40A O 0.85827(18) 0.29459(16) 0.01092(17)
O41A O 1.02908(17) 0.26738(16) -0.14377(16)
O42A O 0.92433(17) 0.01801(16) -0.26929(17)
N1A N -0.1283(2) -0.1597(2) -0.3221(2)
N2A N -0.08643(19) -0.22379(17) -0.26123(17)
H1A H -0.0692 -0.1950 -0.2709
N3A N -0.0565(2) -0.06886(15) -0.33291(19)
H2A H -0.0478 -0.0940 -0.3152
N4A N 0.13094(19) 0.36578(17) -0.00103(17)
N5A N 0.14908(18) 0.34202(17) -0.08466(15)
H3A H 0.1630 0.3321 -0.0555
N6A N 0.18203(17) 0.32649(16) 0.08091(15)
H4A H 0.1843 0.3224 0.0517
N7A N 0.3780(2) 0.0247(2) -0.53804(16)
N8A N 0.4259(2) -0.04805(19) -0.49461(18)
H5A H 0.4056 -0.0319 -0.4847
N9A N 0.3243(2) 0.0707(2) -0.49021(17)
H6A H 0.3339 0.0417 -0.4831
N10A N 0.24536(19) -0.53913(17) -0.32825(18)
N11A N 0.19968(19) -0.51506(18) -0.26695(16)
H7A H 0.2261 -0.4942 -0.2760
N12A N 0.33178(17) -0.46511(16) -0.33740(17)
H8A H 0.3132 -0.4637 -0.3174
N13A N 0.4177(2) -0.52005(19) 0.2067(2)
N14A N 0.51787(18) -0.44411(18) 0.2392(2)
H9A H 0.4855 -0.4380 0.2241
N15A N 0.33009(19) -0.49599(19) 0.1408(2)
H10A H 0.3646 -0.4758 0.1541
N16A N 0.95626(19) 0.13956(19) -0.2008(2)
N17A N 0.9497(2) 0.20984(18) -0.13902(18)
H11A H 0.9254 0.1793 -0.1514
N18A N 0.87390(19) 0.04848(17) -0.23035(19)
H12A H 0.8755 0.0729 -0.2091
C1A C 0.0598(3) -0.3213(3) -0.1263(2)
C2A C 0.02013(16) -0.29595(16) -0.16063(14)
C3A C -0.03765(17) -0.31684(13) -0.17436(15)
H13A H -0.0529 -0.3473 -0.1610
C4A C -0.07306(11) -0.29314(15) -0.20763(15)
H14A H -0.1126 -0.3074 -0.2170
C5A C -0.05068(16) -0.24856(16) -0.22717(14)
C6A C 0.00710(17) -0.22767(13) -0.21344(15)
H15A H 0.0224 -0.1972 -0.2268
C7A C 0.04251(11) -0.25137(15) -0.18017(15)
H16A H 0.0820 -0.2371 -0.1708
C8A C -0.1425(2) -0.2379(3) -0.2808(3)
C9A C -0.1661(3) -0.2019(2) -0.3164(2)
C10A C -0.2235(3) -0.2154(2) -0.3385(2)
H17A H -0.2477 -0.2456 -0.3316
C11A C -0.2436(3) -0.1820(2) -0.3712(2)
H18A H -0.2828 -0.1892 -0.3878
C12A C -0.2075(3) -0.1382(2) -0.3801(2)
H19A H -0.2208 -0.1153 -0.4029
C13A C -0.1510(3) -0.1291(2) -0.3543(2)
C14A C -0.1112(3) -0.0784(3) -0.3599(3)
C15A C -0.01103(13) -0.02453(12) -0.32876(14)
C16A C -0.01568(12) 0.01708(15) -0.35700(12)
H20A H -0.0503 0.0159 -0.3816
C17A C 0.03033(16) 0.06043(12) -0.34930(13)
H21A H 0.0271 0.0889 -0.3686
C18A C 0.08100(13) 0.06218(12) -0.31336(14)
C19A C 0.08566(12) 0.02058(15) -0.28512(12)
H22A H 0.1203 0.0218 -0.2606
C20A C 0.03965(16) -0.02278(12) -0.29283(13)
H23A H 0.0428 -0.0512 -0.2735
C21A C 0.1316(3) 0.1113(2) -0.3049(2)
C22A C 0.1888(2) 0.2347(2) -0.2318(3)
C23A C 0.18051(16) 0.26301(14) -0.19274(14)
C24A C 0.15593(15) 0.30340(16) -0.20562(11)
H24A H 0.1459 0.3120 -0.2384
C25A C 0.14611(14) 0.33121(12) -0.17052(16)
H25A H 0.1293 0.3588 -0.1793
C26A C 0.16086(16) 0.31864(14) -0.12254(14)
C27A C 0.18544(15) 0.27825(16) -0.10965(11)
H26A H 0.1955 0.2697 -0.0769
C28A C 0.19527(14) 0.25044(12) -0.14475(16)
H27A H 0.2121 0.2228 -0.1359
C29A C 0.1197(2) 0.3772(2) -0.0864(2)
C30A C 0.1090(2) 0.3887(2) -0.04059(18)
C31A C 0.0782(2) 0.4229(2) -0.0390(2)
H28A H 0.0651 0.4401 -0.0671
C32A C 0.0659(2) 0.4332(2) 0.00209(17)
H29A H 0.0447 0.4566 0.0033
C33A C 0.0869(2) 0.4067(2) 0.0412(2)
H30A H 0.0778 0.4100 0.0699
C34A C 0.1209(2) 0.3756(2) 0.03984(19)
C35A C 0.1460(3) 0.3527(2) 0.0859(2)
C36A C 0.21597(14) 0.30542(13) 0.11945(13)
C37A C 0.21489(14) 0.30424(13) 0.16688(15)
H31A H 0.1885 0.3172 0.1754
C38A C 0.25246(17) 0.28404(14) 0.20183(10)
H32A H 0.2517 0.2832 0.2342
C39A C 0.29110(14) 0.26501(13) 0.18936(13)
C40A C 0.29217(14) 0.26620(13) 0.14194(16)
H33A H 0.3186 0.2532 0.1334
C41A C 0.25461(17) 0.28640(14) 0.10698(10)
H34A H 0.2553 0.2872 0.0746
C42A C 0.3311(3) 0.2453(2) 0.2288(2)
C43A C 0.2397(4) 0.1451(3) -0.3552(3)
C44A C 0.26268(18) 0.12381(17) -0.38820(15)
C45A C 0.29984(18) 0.09354(16) -0.37432(11)
H35A H 0.3112 0.0844 -0.3418
C46A C 0.32034(15) 0.07661(15) -0.40809(17)
H36A H 0.3457 0.0559 -0.3986
C47A C 0.30369(18) 0.08996(17) -0.45575(15)
C48A C 0.26654(18) 0.12023(16) -0.46963(11)
H37A H 0.2552 0.1294 -0.5022
C49A C 0.24603(15) 0.13716(15) -0.43586(17)
H38A H 0.2206 0.1578 -0.4453
C50A C 0.3318(3) 0.0889(3) -0.5315(2)
C51A C 0.3542(3) 0.0604(2) -0.5611(2)
C52A C 0.3544(3) 0.0778(2) -0.6056(2)
H39A H 0.3406 0.1063 -0.6179
C53A C 0.3765(3) 0.0506(2) -0.63094(18)
H40A H 0.3763 0.0587 -0.6628
C54A C 0.3989(3) 0.0116(2) -0.6097(2)
H41A H 0.4143 -0.0070 -0.6271
C55A C 0.3991(3) -0.0008(2) -0.5637(2)
C56A C 0.4283(3) -0.0406(3) -0.5402(2)
C57A C 0.45326(16) -0.07963(16) -0.46166(15)
C58A C 0.45203(17) -0.07611(15) -0.41440(17)
H42A H 0.4336 -0.0534 -0.4056
C59A C 0.47777(18) -0.10578(18) -0.38003(12)
H43A H 0.4769 -0.1034 -0.3477
C60A C 0.50474(17) -0.13898(16) -0.39292(15)
C61A C 0.50597(17) -0.14250(14) -0.44018(17)
H44A H 0.5244 -0.1652 -0.4490
C62A C 0.48023(18) -0.11283(17) -0.47455(11)
H45A H 0.4811 -0.1152 -0.5068
C63A C 0.5412(3) -0.1653(3) -0.3567(3)
C64A C 0.5196(3) -0.2867(3) -0.3041(3)
C65A C 0.46875(13) -0.33206(12) -0.31440(16)
C66A C 0.43304(18) -0.33751(14) -0.28729(13)
H46A H 0.4396 -0.3109 -0.2626
C67A C 0.38779(15) -0.38182(17) -0.29628(14)
H47A H 0.3634 -0.3855 -0.2778
C68A C 0.37826(13) -0.42070(12) -0.33238(16)
C69A C 0.41396(18) -0.41526(14) -0.35949(13)
H48A H 0.4074 -0.4418 -0.3842
C70A C 0.45921(15) -0.37094(17) -0.35050(14)
H49A H 0.4836 -0.3672 -0.3690
C71A C 0.3124(2) -0.5084(2) -0.3679(2)
C72A C 0.2645(2) -0.5516(2) -0.3629(2)
C73A C 0.2471(2) -0.59854(19) -0.3911(2)
H50A H 0.2631 -0.6040 -0.4150
C74A C 0.2052(2) -0.6371(2) -0.3828(2)
H51A H 0.1909 -0.6697 -0.4020
C75A C 0.1837(2) -0.6291(2) -0.3469(2)
H52A H 0.1573 -0.6559 -0.3384
C76A C 0.2038(2) -0.57885(19) -0.3244(2)
C77A C 0.1798(3) -0.5642(2) -0.2879(2)
C78A C 0.18357(18) -0.49319(16) -0.23259(13)
C79A C 0.21335(14) -0.44137(16) -0.21639(15)
H53A H 0.2422 -0.4242 -0.2286
C80A C 0.20092(16) -0.41467(11) -0.18229(15)
H54A H 0.2213 -0.3793 -0.1712
C81A C 0.15872(18) -0.43978(16) -0.16438(13)
C82A C 0.12894(14) -0.49160(16) -0.18058(15)
H55A H 0.1001 -0.5088 -0.1683
C83A C 0.14137(16) -0.51831(11) -0.21468(15)
H56A H 0.1210 -0.5537 -0.2258
C84A C 0.1449(3) -0.4103(2) -0.1274(2)
C85A C 0.1815(3) -0.4063(3) 0.0024(3)
C86A C 0.22216(17) -0.42718(18) 0.03846(17)
C87A C 0.19989(12) -0.47563(17) 0.05237(18)
H57A H 0.1609 -0.4925 0.0388
C88A C 0.23473(19) -0.49935(14) 0.08622(18)
H58A H 0.2195 -0.5325 0.0957
C89A C 0.29183(18) -0.47460(18) 0.10615(17)
C90A C 0.31409(12) -0.42615(17) 0.09224(18)
H59A H 0.3531 -0.4092 0.1059
C91A C 0.27926(19) -0.40244(14) 0.05839(19)
H60A H 0.2945 -0.3693 0.0489
C92A C 0.3187(3) -0.5444(2) 0.1553(3)
C93A C 0.3689(2) -0.5576(2) 0.1903(3)
C94A C 0.3601(2) -0.6063(2) 0.2075(3)
H61A H 0.3243 -0.6312 0.1953
C95A C 0.4041(2) -0.6180(2) 0.2426(3)
H62A H 0.3992 -0.6506 0.2560
C96A C 0.4554(2) -0.5807(2) 0.2576(3)
H63A H 0.4874 -0.5886 0.2794
C97A C 0.4602(2) -0.5319(2) 0.2407(3)
C98A C 0.5164(3) -0.4925(2) 0.2521(3)
C99A C 0.56651(16) -0.40211(14) 0.24767(19)
C100A C 0.6163(2) -0.39890(15) 0.28534(18)
H64A H 0.6206 -0.4281 0.3034
C101A C 0.65998(15) -0.35301(19) 0.29665(16)
H65A H 0.6940 -0.3508 0.3224
C102A C 0.65379(16) -0.31033(14) 0.27028(19)
C103A C 0.6040(2) -0.31353(15) 0.23261(17)
H66A H 0.5997 -0.2844 0.2146
C104A C 0.56033(15) -0.35942(19) 0.22131(15)
H67A H 0.5263 -0.3616 0.1956
C105A C 0.7052(3) -0.2625(3) 0.2816(3)
C106A C 0.6803(3) -0.1253(3) -0.2747(3)
C107A C 0.73011(14) -0.08005(14) -0.26421(17)
C108A C 0.76605(19) -0.07771(14) -0.29071(14)
H68A H 0.7578 -0.1047 -0.3156
C109A C 0.81400(17) -0.03593(18) -0.28085(16)
H69A H 0.8386 -0.0343 -0.2990
C110A C 0.82600(14) 0.00351(14) -0.24448(17)
C111A C 0.79005(19) 0.00116(14) -0.21798(14)
H70A H 0.7983 0.0281 -0.1931
C112A C 0.74211(17) -0.04062(18) -0.22785(16)
H71A H 0.7175 -0.0422 -0.2097
C113A C 0.9169(2) 0.0553(2) -0.2481(3)
C114A C 0.9628(2) 0.1060(2) -0.2313(2)
C115A C 1.0041(2) 0.1128(2) -0.2523(2)
H72A H 1.0056 0.0862 -0.2730
C116A C 1.0429(2) 0.1613(2) -0.2407(2)
H73A H 1.0720 0.1691 -0.2544
C117A C 1.0402(2) 0.1987(2) -0.2094(2)
H74A H 1.0665 0.2323 -0.2014
C118A C 0.9972(2) 0.1846(2) -0.1903(2)
C119A C 0.9943(3) 0.2226(2) -0.1531(2)
C120A C 0.9366(2) 0.23916(17) -0.10684(15)
C121A C 0.89113(17) 0.21487(12) -0.09255(16)
H75A H 0.8687 0.1807 -0.1064
C122A C 0.87845(15) 0.24063(17) -0.05800(17)
H76A H 0.8474 0.2240 -0.0482
C123A C 0.91124(19) 0.29068(17) -0.03773(14)
C124A C 0.95670(17) 0.31497(12) -0.05202(16)
H77A H 0.9791 0.3492 -0.0382
C125A C 0.96938(15) 0.28921(17) -0.08657(17)
H78A H 1.0005 0.3058 -0.0963
C126A C 0.9029(3) 0.3223(3) 0.0006(3)
loop_
_geom_bond_atom_site_label_1
_geom_bond_atom_site_label_2
_geom_bond_site_symmetry_1
_geom_bond_site_symmetry_2
Cu1 O1 1_555 1_555
Cu2 O3 1_555 1_555
Cu3 O5 1_555 1_555
Cu4 O7 1_555 1_555
Cu5 O9 1_555 1_555
Cu6 O11 1_555 1_555
O2 Cu1 1_555 1_555
O4 Cu2 1_555 1_555
O5 C21 1_555 1_555
O6 Cu3 1_555 1_555
O8 Cu4 1_555 1_555
O10 C8 1_555 1_555
O12 C14 1_555 1_555
O13 Cu3 1_555 1_555
O14 Cu4 1_555 1_555
O15 C42 1_555 1_555
O16 C42 1_555 1_555
O17 C29 1_555 1_555
O18 C35 1_555 1_555
O19 Cu3 1_555 1_555
O20 Cu4 1_555 1_555
O21 Cu5 1_555 1_555
O22 Cu6 1_555 1_555
O23 C56 1_555 1_555
O24 C50 1_555 1_555
O25 Cu5 1_555 1_555
O26 Cu6 1_555 1_555
O27 Cu1 1_555 1_555
O28 Cu2 1_555 1_555
O29 C77 1_555 1_555
O30 C71 1_555 1_555
O31 Cu1 1_555 1_555
O32 Cu2 1_555 1_555
O33 C105 1_555 1_555
O34 C105 1_555 1_555
O35 C98 1_555 1_555
O36 C92 1_555 1_555
O37 Cu5 1_555 1_555
O38 Cu6 1_555 1_555
O39 C126 1_555 1_555
O40 C126 1_555 1_555
O41 C119 1_555 1_555
O42 C113 1_555 1_555
N1 C9 1_555 1_555
N2 H1 1_555 1_555
N3 H2 1_555 1_555
N4 C30 1_555 1_555
N5 H3 1_555 1_555
N6 H4 1_555 1_555
N7 C51 1_555 1_555
N8 H5 1_555 1_555
N9 H6 1_555 1_555
N10 C72 1_555 1_555
N11 H7 1_555 1_555
N12 H8 1_555 1_555
N13 C93 1_555 1_555
N14 H9 1_555 1_555
N15 H10 1_555 1_555
N16 C114 1_555 1_555
N17 H11 1_555 1_555
N18 H12 1_555 1_555
C1 O2 1_555 1_555
C2 C1 1_555 1_555
C3 C2 1_555 1_555
H13 C3 1_555 1_555
C4 C3 1_555 1_555
H14 C4 1_555 1_555
C5 N2 1_555 1_555
C6 C5 1_555 1_555
H15 C6 1_555 1_555
C7 C2 1_555 1_555
H16 C7 1_555 1_555
C8 N2 1_555 1_555
C9 C8 1_555 1_555
C10 C9 1_555 1_555
H17 C10 1_555 1_555
C11 C10 1_555 1_555
H18 C11 1_555 1_555
C12 C11 1_555 1_555
H19 C12 1_555 1_555
C13 N1 1_555 1_555
C14 N3 1_555 1_555
C15 N3 1_555 1_555
C16 C15 1_555 1_555
H20 C16 1_555 1_555
C17 C16 1_555 1_555
H21 C17 1_555 1_555
C18 C17 1_555 1_555
C19 C18 1_555 1_555
H22 C19 1_555 1_555
C20 C15 1_555 1_555
H23 C20 1_555 1_555
C21 O8 1_555 1_555
C22 O13 1_555 1_555
C23 C22 1_555 1_555
C24 C23 1_555 1_555
H24 C24 1_555 1_555
C25 C24 1_555 1_555
H25 C25 1_555 1_555
C26 N5 1_555 1_555
C27 C26 1_555 1_555
H26 C27 1_555 1_555
C28 C23 1_555 1_555
H27 C28 1_555 1_555
C29 N5 1_555 1_555
C30 C29 1_555 1_555
C31 C30 1_555 1_555
H28 C31 1_555 1_555
C32 C31 1_555 1_555
H29 C32 1_555 1_555
C33 C32 1_555 1_555
H30 C33 1_555 1_555
C34 N4 1_555 1_555
C35 N6 1_555 1_555
C36 N6 1_555 1_555
C37 C36 1_555 1_555
H31 C37 1_555 1_555
C38 C37 1_555 1_555
H32 C38 1_555 1_555
C39 C38 1_555 1_555
C40 C39 1_555 1_555
H33 C40 1_555 1_555
C41 C36 1_555 1_555
H34 C41 1_555 1_555
C42 C39 1_555 1_555
C43 O19 1_555 1_555
C44 C43 1_555 1_555
C45 C44 1_555 1_555
H35 C45 1_555 1_555
C46 C45 1_555 1_555
H36 C46 1_555 1_555
C47 N9 1_555 1_555
C48 C47 1_555 1_555
H37 C48 1_555 1_555
C49 C44 1_555 1_555
H38 C49 1_555 1_555
C50 N9 1_555 1_555
C51 C50 1_555 1_555
C52 C51 1_555 1_555
H39 C52 1_555 1_555
C53 C52 1_555 1_555
H40 C53 1_555 1_555
C54 C53 1_555 1_555
H41 C54 1_555 1_555
C55 N7 1_555 1_555
C56 N8 1_555 1_555
C57 N8 1_555 1_555
C58 C57 1_555 1_555
H42 C58 1_555 1_555
C59 C58 1_555 1_555
H43 C59 1_555 1_555
C60 C59 1_555 1_555
C61 C60 1_555 1_555
H44 C61 1_555 1_555
C62 C57 1_555 1_555
H45 C62 1_555 1_555
C63 O21 1_555 1_555
C64 O25 1_555 1_555
C65 C64 1_555 1_555
C66 C65 1_555 1_555
H46 C66 1_555 1_555
C67 C66 1_555 1_555
H47 C67 1_555 1_555
C68 N12 1_555 1_555
C69 C68 1_555 1_555
H48 C69 1_555 1_555
C70 C65 1_555 1_555
H49 C70 1_555 1_555
C71 N12 1_555 1_555
C72 C71 1_555 1_555
C73 C72 1_555 1_555
H50 C73 1_555 1_555
C74 C73 1_555 1_555
H51 C74 1_555 1_555
C75 C74 1_555 1_555
H52 C75 1_555 1_555
C76 N10 1_555 1_555
C77 N11 1_555 1_555
C78 N11 1_555 1_555
C79 C78 1_555 1_555
H53 C79 1_555 1_555
C80 C79 1_555 1_555
H54 C80 1_555 1_555
C81 C80 1_555 1_555
C82 C81 1_555 1_555
H55 C82 1_555 1_555
C83 C78 1_555 1_555
H56 C83 1_555 1_555
C84 O27 1_555 1_555
C85 O31 1_555 1_555
C86 C85 1_555 1_555
C87 C86 1_555 1_555
H57 C87 1_555 1_555
C88 C87 1_555 1_555
H58 C88 1_555 1_555
C89 N15 1_555 1_555
C90 C89 1_555 1_555
H59 C90 1_555 1_555
C91 C86 1_555 1_555
H60 C91 1_555 1_555
C92 N15 1_555 1_555
C93 C92 1_555 1_555
C94 C93 1_555 1_555
H61 C94 1_555 1_555
C95 C94 1_555 1_555
H62 C95 1_555 1_555
C96 C95 1_555 1_555
H63 C96 1_555 1_555
C97 N13 1_555 1_555
C98 N14 1_555 1_555
C99 N14 1_555 1_555
C100 C99 1_555 1_555
H64 C100 1_555 1_555
C101 C100 1_555 1_555
H65 C101 1_555 1_555
C102 C101 1_555 1_555
C103 C102 1_555 1_555
H66 C103 1_555 1_555
C104 C99 1_555 1_555
H67 C104 1_555 1_555
C105 C102 1_555 1_555
C106 O37 1_555 1_555
C107 C106 1_555 1_555
C108 C107 1_555 1_555
H68 C108 1_555 1_555
C109 C108 1_555 1_555
H69 C109 1_555 1_555
C110 N18 1_555 1_555
C111 C110 1_555 1_555
H70 C111 1_555 1_555
C112 C107 1_555 1_555
H71 C112 1_555 1_555
C113 N18 1_555 1_555
C114 C113 1_555 1_555
C115 C114 1_555 1_555
H72 C115 1_555 1_555
C116 C115 1_555 1_555
H73 C116 1_555 1_555
C117 C116 1_555 1_555
H74 C117 1_555 1_555
C118 N16 1_555 1_555
C119 N17 1_555 1_555
C120 N17 1_555 1_555
C121 C120 1_555 1_555
H75 C121 1_555 1_555
C122 C121 1_555 1_555
H76 C122 1_555 1_555
C123 C122 1_555 1_555
C124 C123 1_555 1_555
H77 C124 1_555 1_555
C125 C120 1_555 1_555
H78 C125 1_555 1_555
C126 C123 1_555 1_555
Cu1A O39 1_555 1_555
Cu2A O40 1_555 1_555
Cu3A O33 1_555 1_555
Cu4A O34 1_555 1_555
Cu5A O15 1_555 1_555
Cu6A O16 1_555 1_555
O1A Cu1A 1_555 1_555
O2A Cu1A 1_555 1_555
O3A Cu2A 1_555 1_555
O4A Cu2A 1_555 1_555
O5A Cu3A 1_555 1_555
O6A Cu3A 1_555 1_555
O7A Cu4A 1_555 1_555
O8A Cu4A 1_555 1_555
O9A Cu5A 1_555 1_555
O10A C8A 1_555 1_555
O11A Cu6A 1_555 1_555
O12A C14A 1_555 1_555
O13A Cu3A 1_555 1_555
O14A Cu4A 1_555 1_555
O15A Cu5 1_555 1_555
O16A Cu6 1_555 1_555
O17A C29A 1_555 1_555
O18A C35A 1_555 1_555
O19A Cu3A 1_555 1_555
O20A Cu4A 1_555 1_555
O21A Cu5A 1_555 1_555
O22A Cu6A 1_555 1_555
O23A C56A 1_555 1_555
O24A C50A 1_555 1_555
O25A Cu5A 1_555 1_555
O26A Cu6A 1_555 1_555
O27A Cu1A 1_555 1_555
O28A Cu2A 1_555 1_555
O29A C77A 1_555 1_555
O30A C71A 1_555 1_555
O31A Cu1A 1_555 1_555
O32A Cu2A 1_555 1_555
O33A Cu3 1_555 1_555
O34A Cu4 1_555 1_555
O35A C98A 1_555 1_555
O36A C92A 1_555 1_555
O37A Cu5A 1_555 1_555
O38A Cu6A 1_555 1_555
O39A Cu1 1_555 1_555
O40A Cu2 1_555 1_555
O41A C119A 1_555 1_555
O42A C113A 1_555 1_555
N1A C9A 1_555 1_555
N2A H1A 1_555 1_555
N3A H2A 1_555 1_555
N4A C30A 1_555 1_555
N5A H3A 1_555 1_555
N6A H4A 1_555 1_555
N7A C51A 1_555 1_555
N8A H5A 1_555 1_555
N9A H6A 1_555 1_555
N10A C72A 1_555 1_555
N11A H7A 1_555 1_555
N12A H8A 1_555 1_555
N13A C93A 1_555 1_555
N14A H9A 1_555 1_555
N15A H10A 1_555 1_555
N16A C114A 1_555 1_555
N17A H11A 1_555 1_555
N18A H12A 1_555 1_555
C1A O2A 1_555 1_555
C2A C1A 1_555 1_555
C3A C2A 1_555 1_555
H13A C3A 1_555 1_555
C4A C3A 1_555 1_555
H14A C4A 1_555 1_555
C5A N2A 1_555 1_555
C6A C5A 1_555 1_555
H15A C6A 1_555 1_555
C7A C2A 1_555 1_555
H16A C7A 1_555 1_555
C8A N2A 1_555 1_555
C9A C8A 1_555 1_555
C10A C9A 1_555 1_555
H17A C10A 1_555 1_555
C11A C10A 1_555 1_555
H18A C11A 1_555 1_555
C12A C11A 1_555 1_555
H19A C12A 1_555 1_555
C13A N1A 1_555 1_555
C14A N3A 1_555 1_555
C15A N3A 1_555 1_555
C16A C15A 1_555 1_555
H20A C16A 1_555 1_555
C17A C16A 1_555 1_555
H21A C17A 1_555 1_555
C18A C17A 1_555 1_555
C19A C18A 1_555 1_555
H22A C19A 1_555 1_555
C20A C15A 1_555 1_555
H23A C20A 1_555 1_555
C21A O5A 1_555 1_555
C22A O13A 1_555 1_555
C23A C22A 1_555 1_555
C24A C23A 1_555 1_555
H24A C24A 1_555 1_555
C25A C24A 1_555 1_555
H25A C25A 1_555 1_555
C26A N5A 1_555 1_555
C27A C26A 1_555 1_555
H26A C27A 1_555 1_555
C28A C23A 1_555 1_555
H27A C28A 1_555 1_555
C29A N5A 1_555 1_555
C30A C29A 1_555 1_555
C31A C30A 1_555 1_555
H28A C31A 1_555 1_555
C32A C31A 1_555 1_555
H29A C32A 1_555 1_555
C33A C32A 1_555 1_555
H30A C33A 1_555 1_555
C34A N4A 1_555 1_555
C35A N6A 1_555 1_555
C36A N6A 1_555 1_555
C37A C36A 1_555 1_555
H31A C37A 1_555 1_555
C38A C37A 1_555 1_555
H32A C38A 1_555 1_555
C39A C38A 1_555 1_555
C40A C39A 1_555 1_555
H33A C40A 1_555 1_555
C41A C36A 1_555 1_555
H34A C41A 1_555 1_555
C42A O15A 1_555 1_555
C43A O19A 1_555 1_555
C44A C43A 1_555 1_555
C45A C44A 1_555 1_555
H35A C45A 1_555 1_555
C46A C45A 1_555 1_555
H36A C46A 1_555 1_555
C47A N9A 1_555 1_555
C48A C47A 1_555 1_555
H37A C48A 1_555 1_555
C49A C44A 1_555 1_555
H38A C49A 1_555 1_555
C50A N9A 1_555 1_555
C51A C50A 1_555 1_555
C52A C51A 1_555 1_555
H39A C52A 1_555 1_555
C53A C52A 1_555 1_555
H40A C53A 1_555 1_555
C54A C53A 1_555 1_555
H41A C54A 1_555 1_555
C55A N7A 1_555 1_555
C56A N8A 1_555 1_555
C57A N8A 1_555 1_555
C58A C57A 1_555 1_555
H42A C58A 1_555 1_555
C59A C58A 1_555 1_555
H43A C59A 1_555 1_555
C60A C59A 1_555 1_555
C61A C60A 1_555 1_555
H44A C61A 1_555 1_555
C62A C57A 1_555 1_555
H45A C62A 1_555 1_555
C63A O21A 1_555 1_555
C64A O25A 1_555 1_555
C65A C64A 1_555 1_555
C66A C65A 1_555 1_555
H46A C66A 1_555 1_555
C67A C66A 1_555 1_555
H47A C67A 1_555 1_555
C68A N12A 1_555 1_555
C69A C68A 1_555 1_555
H48A C69A 1_555 1_555
C70A C65A 1_555 1_555
H49A C70A 1_555 1_555
C71A N12A 1_555 1_555
C72A C71A 1_555 1_555
C73A C72A 1_555 1_555
H50A C73A 1_555 1_555
C74A C73A 1_555 1_555
H51A C74A 1_555 1_555
C75A C74A 1_555 1_555
H52A C75A 1_555 1_555
C76A N10A 1_555 1_555
C77A N11A 1_555 1_555
C78A N11A 1_555 1_555
C79A C78A 1_555 1_555
H53A C79A 1_555 1_555
C80A C79A 1_555 1_555
H54A C80A 1_555 1_555
C81A C80A 1_555 1_555
C82A C81A 1_555 1_555
H55A C82A 1_555 1_555
C83A C78A 1_555 1_555
H56A C83A 1_555 1_555
C84A O27A 1_555 1_555
C85A O31A 1_555 1_555
C86A C85A 1_555 1_555
C87A C86A 1_555 1_555
H57A C87A 1_555 1_555
C88A C87A 1_555 1_555
H58A C88A 1_555 1_555
C89A N15A 1_555 1_555
C90A C89A 1_555 1_555
H59A C90A 1_555 1_555
C91A C86A 1_555 1_555
H60A C91A 1_555 1_555
C92A N15A 1_555 1_555
C93A C92A 1_555 1_555
C94A C93A 1_555 1_555
H61A C94A 1_555 1_555
C95A C94A 1_555 1_555
H62A C95A 1_555 1_555
C96A C95A 1_555 1_555
H63A C96A 1_555 1_555
C97A N13A 1_555 1_555
C98A N14A 1_555 1_555
C99A N14A 1_555 1_555
C100A C99A 1_555 1_555
H64A C100A 1_555 1_555
C101A C100A 1_555 1_555
H65A C101A 1_555 1_555
C102A C101A 1_555 1_555
C103A C102A 1_555 1_555
H66A C103A 1_555 1_555
C104A C99A 1_555 1_555
H67A C104A 1_555 1_555
C105A O33A 1_555 1_555
C106A O37A 1_555 1_555
C107A C106A 1_555 1_555
C108A C107A 1_555 1_555
H68A C108A 1_555 1_555
C109A C108A 1_555 1_555
H69A C109A 1_555 1_555
C110A N18A 1_555 1_555
C111A C110A 1_555 1_555
H70A C111A 1_555 1_555
C112A C107A 1_555 1_555
H71A C112A 1_555 1_555
C113A N18A 1_555 1_555
C114A C113A 1_555 1_555
C115A C114A 1_555 1_555
H72A C115A 1_555 1_555
C116A C115A 1_555 1_555
H73A C116A 1_555 1_555
C117A C116A 1_555 1_555
H74A C117A 1_555 1_555
C118A N16A 1_555 1_555
C119A N17A 1_555 1_555
C120A N17A 1_555 1_555
C121A C120A 1_555 1_555
H75A C121A 1_555 1_555
C122A C121A 1_555 1_555
H76A C122A 1_555 1_555
C123A C122A 1_555 1_555
C124A C123A 1_555 1_555
H77A C124A 1_555 1_555
C125A C120A 1_555 1_555
H78A C125A 1_555 1_555
C126A O39A 1_555 1_555
O4 C1 1_555 1_555
O14 C22 1_555 1_555
O20 C43 1_555 1_555
O22 C63 1_555 1_555
O26 C64 1_555 1_555
O28 C84 1_555 1_555
O32 C85 1_555 1_555
O38 C106 1_555 1_555
C4 C5 1_555 1_555
C6 C7 1_555 1_555
C12 C13 1_555 1_555
C13 C14 1_555 1_555
C18 C21 1_555 1_555
C19 C20 1_555 1_555
C25 C26 1_555 1_555
C27 C28 1_555 1_555
C33 C34 1_555 1_555
C34 C35 1_555 1_555
C40 C41 1_555 1_555
C46 C47 1_555 1_555
C48 C49 1_555 1_555
C54 C55 1_555 1_555
C55 C56 1_555 1_555
C60 C63 1_555 1_555
C61 C62 1_555 1_555
C67 C68 1_555 1_555
C69 C70 1_555 1_555
C75 C76 1_555 1_555
C76 C77 1_555 1_555
C81 C84 1_555 1_555
C82 C83 1_555 1_555
C88 C89 1_555 1_555
C90 C91 1_555 1_555
C96 C97 1_555 1_555
C97 C98 1_555 1_555
C103 C104 1_555 1_555
C109 C110 1_555 1_555
C111 C112 1_555 1_555
C117 C118 1_555 1_555
C118 C119 1_555 1_555
C124 C125 1_555 1_555
O4A C1A 1_555 1_555
O8A C21A 1_555 1_555
O14A C22A 1_555 1_555
O16A C42A 1_555 1_555
O20A C43A 1_555 1_555
O22A C63A 1_555 1_555
O26A C64A 1_555 1_555
O28A C84A 1_555 1_555
O32A C85A 1_555 1_555
O34A C105A 1_555 1_555
O38A C106A 1_555 1_555
O40A C126A 1_555 1_555
C4A C5A 1_555 1_555
C6A C7A 1_555 1_555
C12A C13A 1_555 1_555
C13A C14A 1_555 1_555
C18A C21A 1_555 1_555
C19A C20A 1_555 1_555
C25A C26A 1_555 1_555
C27A C28A 1_555 1_555
C33A C34A 1_555 1_555
C34A C35A 1_555 1_555
C39A C42A 1_555 1_555
C40A C41A 1_555 1_555
C46A C47A 1_555 1_555
C48A C49A 1_555 1_555
C54A C55A 1_555 1_555
C55A C56A 1_555 1_555
C60A C63A 1_555 1_555
C61A C62A 1_555 1_555
C67A C68A 1_555 1_555
C69A C70A 1_555 1_555
C75A C76A 1_555 1_555
C76A C77A 1_555 1_555
C81A C84A 1_555 1_555
C82A C83A 1_555 1_555
C88A C89A 1_555 1_555
C90A C91A 1_555 1_555
C96A C97A 1_555 1_555
C97A C98A 1_555 1_555
C102A C105A 1_555 1_555
C103A C104A 1_555 1_555
C109A C110A 1_555 1_555
C111A C112A 1_555 1_555
C117A C118A 1_555 1_555
C118A C119A 1_555 1_555
C123A C126A 1_555 1_555
C124A C125A 1_555 1_555

#END
