
#######################################################################
#
#                 Cambridge Crystallographic Data Centre
#                                CCDC 
#
#######################################################################
#
# If this CIF has been generated from an entry in the Cambridge 
# Structural Database, then it will include bibliographic, chemical, 
# crystal, experimental, refinement or atomic coordinate data resulting 
# from the CCDC's data processing and validation procedures.
#
#######################################################################

data_UQOZAD
_chemical_formula_moiety         
'C180 H132 Mo8 N28 O52,C90 H66 Cu4 N14 O26,x(C3 H7 N1 O1)'
_chemical_name_systematic        
"octakis(\m-3,3'-((pyridine-2,6-dicarbonyl)bis(azanediyl))dibenzoato)-tetrakis(N,N-dimethylformamide)-octa-molybdenum tetrakis(\m-3,3'-((pyridine-2,6-dicarbonyl)bis(azanediyl))dibenzoato)-bis(N,N-dimethylformamide)-tetra-copper clathrate N,N-dimethylformamide solvate"
_symmetry_cell_setting           tetragonal
_symmetry_space_group_name_H-M   'I 4/m'
_symmetry_Int_Tables_number      87
_space_group_name_Hall           '-I 4'
loop_
_symmetry_equiv_pos_site_id
_symmetry_equiv_pos_as_xyz
1 x,y,z
2 -y,x,z
3 -x,-y,z
4 y,-x,z
5 1/2+x,1/2+y,1/2+z
6 1/2-y,1/2+x,1/2+z
7 1/2-x,1/2-y,1/2+z
8 1/2+y,1/2-x,1/2+z
9 -x,-y,-z
10 y,-x,-z
11 x,y,-z
12 -y,x,-z
13 1/2-x,1/2-y,1/2-z
14 1/2+y,1/2-x,1/2-z
15 1/2+x,1/2+y,1/2-z
16 1/2-y,1/2+x,1/2-z
_cell_length_a                   31.22(3)
_cell_length_b                   31.22(3)
_cell_length_c                   25.05(3)
_cell_angle_alpha                90
_cell_angle_beta                 90
_cell_angle_gamma                90
_cell_volume                     24415.9
_exptl_crystal_colour            'dark green'
_exptl_crystal_description       rod
_cell_formula_units_Z            2
loop_
_atom_site_label
_atom_site_type_symbol
_atom_site_fract_x
_atom_site_fract_y
_atom_site_fract_z
Cu1 Cu 0.0000 0.0000 0.12603(15)
Cu2 Cu 0.0000 0.0000 0.22777(17)
O1 O 0.0000 0.0000 0.3167(7)
O2 O 0.0323(3) 0.0520(3) 0.1320(4)
O3 O 0.0164(3) 0.0614(3) 0.2190(4)
O4 O 0.1779(3) 0.2084(3) 0.1392(4)
N1 N 0.1672(5) 0.1971(4) 0.0000
N2 N 0.1248(3) 0.1785(3) 0.0900(4)
H1 H 0.1190 0.1706 0.0571
C1 C 0.0286(4) 0.0750(4) 0.1739(7)
C2 C 0.0499(3) 0.1175(2) 0.1737(4)
C3 C 0.0428(2) 0.1460(3) 0.2154(3)
H2 H 0.0248 0.1381 0.2443
C4 C 0.0621(3) 0.1862(2) 0.2147(3)
H3 H 0.0573 0.2056 0.2432
C5 C 0.0885(3) 0.1978(2) 0.1724(4)
H4 H 0.1016 0.2252 0.1719
C6 C 0.0955(2) 0.1692(3) 0.1307(3)
C7 C 0.0762(3) 0.1291(3) 0.1313(3)
H5 H 0.0810 0.1096 0.1028
C8 C 0.1619(4) 0.1993(4) 0.1002(5)
C9 C 0.1842(3) 0.2065(3) 0.0477(3)
C10 C 0.2250(3) 0.2235(3) 0.0485(4)
H6 H 0.2387 0.2308 0.0811
C11 C 0.2452(6) 0.2294(5) 0.0000
H7 H 0.2744 0.2380 0.0000
O2J O 0.0323(3) 0.0520(3) -0.1320(4)
O3J O 0.0164(3) 0.0614(3) -0.2190(4)
O4J O 0.1779(3) 0.2084(3) -0.1392(4)
N2J N 0.1248(3) 0.1785(3) -0.0900(4)
H1J H 0.1190 0.1706 -0.0571
C1J C 0.0286(4) 0.0750(4) -0.1739(7)
C2J C 0.0499(3) 0.1175(2) -0.1737(4)
C3J C 0.0428(2) 0.1460(3) -0.2154(3)
H2J H 0.0248 0.1381 -0.2443
C4J C 0.0621(3) 0.1862(2) -0.2147(3)
H3J H 0.0573 0.2056 -0.2432
C5J C 0.0885(3) 0.1978(2) -0.1724(4)
H4J H 0.1016 0.2252 -0.1719
C6J C 0.0955(2) 0.1692(3) -0.1307(3)
C7J C 0.0762(3) 0.1291(3) -0.1313(3)
H5J H 0.0810 0.1096 -0.1028
C8J C 0.1619(4) 0.1993(4) -0.1002(5)
C9J C 0.1842(3) 0.2065(3) -0.0477(3)
C10J C 0.2250(3) 0.2235(3) -0.0485(4)
H6J H 0.2387 0.2308 -0.0811
O2A O -0.0520(3) 0.0323(3) 0.1320(4)
O3A O -0.0614(3) 0.0164(3) 0.2190(4)
O4A O -0.2084(3) 0.1779(3) 0.1392(4)
N1A N -0.1971(4) 0.1672(5) 0.0000
N2A N -0.1785(3) 0.1248(3) 0.0900(4)
H1A H -0.1706 0.1190 0.0571
C1A C -0.0750(4) 0.0286(4) 0.1739(7)
C2A C -0.1175(2) 0.0499(3) 0.1737(4)
C3A C -0.1460(3) 0.0428(2) 0.2154(3)
H2A H -0.1381 0.0248 0.2443
C4A C -0.1862(2) 0.0621(3) 0.2147(3)
H3A H -0.2056 0.0573 0.2432
C5A C -0.1978(2) 0.0885(3) 0.1724(4)
H4A H -0.2252 0.1016 0.1719
C6A C -0.1692(3) 0.0955(2) 0.1307(3)
C7A C -0.1291(3) 0.0762(3) 0.1313(3)
H5A H -0.1096 0.0810 0.1028
C8A C -0.1993(4) 0.1619(4) 0.1002(5)
C9A C -0.2065(3) 0.1842(3) 0.0477(3)
C10A C -0.2235(3) 0.2250(3) 0.0485(4)
H6A H -0.2308 0.2387 0.0811
C11A C -0.2294(5) 0.2452(6) 0.0000
H7A H -0.2380 0.2744 0.0000
O2K O -0.0520(3) 0.0323(3) -0.1320(4)
O3K O -0.0614(3) 0.0164(3) -0.2190(4)
O4K O -0.2084(3) 0.1779(3) -0.1392(4)
N2K N -0.1785(3) 0.1248(3) -0.0900(4)
H1K H -0.1706 0.1190 -0.0571
C1K C -0.0750(4) 0.0286(4) -0.1739(7)
C2K C -0.1175(2) 0.0499(3) -0.1737(4)
C3K C -0.1460(3) 0.0428(2) -0.2154(3)
H2K H -0.1381 0.0248 -0.2443
C4K C -0.1862(2) 0.0621(3) -0.2147(3)
H3K H -0.2056 0.0573 -0.2432
C5K C -0.1978(2) 0.0885(3) -0.1724(4)
H4K H -0.2252 0.1016 -0.1719
C6K C -0.1692(3) 0.0955(2) -0.1307(3)
C7K C -0.1291(3) 0.0762(3) -0.1313(3)
H5K H -0.1096 0.0810 -0.1028
C8K C -0.1993(4) 0.1619(4) -0.1002(5)
C9K C -0.2065(3) 0.1842(3) -0.0477(3)
C10K C -0.2235(3) 0.2250(3) -0.0485(4)
H6K H -0.2308 0.2387 -0.0811
O2B O -0.0323(3) -0.0520(3) 0.1320(4)
O3B O -0.0164(3) -0.0614(3) 0.2190(4)
O4B O -0.1779(3) -0.2084(3) 0.1392(4)
N1B N -0.1672(5) -0.1971(4) 0.0000
N2B N -0.1248(3) -0.1785(3) 0.0900(4)
H1B H -0.1190 -0.1706 0.0571
C1B C -0.0286(4) -0.0750(4) 0.1739(7)
C2B C -0.0499(3) -0.1175(2) 0.1737(4)
C3B C -0.0428(2) -0.1460(3) 0.2154(3)
H2B H -0.0248 -0.1381 0.2443
C4B C -0.0621(3) -0.1862(2) 0.2147(3)
H3B H -0.0573 -0.2056 0.2432
C5B C -0.0885(3) -0.1978(2) 0.1724(4)
H4B H -0.1016 -0.2252 0.1719
C6B C -0.0955(2) -0.1692(3) 0.1307(3)
C7B C -0.0762(3) -0.1291(3) 0.1313(3)
H5B H -0.0810 -0.1096 0.1028
C8B C -0.1619(4) -0.1993(4) 0.1002(5)
C9B C -0.1842(3) -0.2065(3) 0.0477(3)
C10B C -0.2250(3) -0.2235(3) 0.0485(4)
H6B H -0.2387 -0.2308 0.0811
C11B C -0.2452(6) -0.2294(5) 0.0000
H7B H -0.2744 -0.2380 0.0000
O2H O -0.0323(3) -0.0520(3) -0.1320(4)
O3H O -0.0164(3) -0.0614(3) -0.2190(4)
O4H O -0.1779(3) -0.2084(3) -0.1392(4)
N2H N -0.1248(3) -0.1785(3) -0.0900(4)
H1H H -0.1190 -0.1706 -0.0571
C1H C -0.0286(4) -0.0750(4) -0.1739(7)
C2H C -0.0499(3) -0.1175(2) -0.1737(4)
C3H C -0.0428(2) -0.1460(3) -0.2154(3)
H2H H -0.0248 -0.1381 -0.2443
C4H C -0.0621(3) -0.1862(2) -0.2147(3)
H3H H -0.0573 -0.2056 -0.2432
C5H C -0.0885(3) -0.1978(2) -0.1724(4)
H4H H -0.1016 -0.2252 -0.1719
C6H C -0.0955(2) -0.1692(3) -0.1307(3)
C7H C -0.0762(3) -0.1291(3) -0.1313(3)
H5H H -0.0810 -0.1096 -0.1028
C8H C -0.1619(4) -0.1993(4) -0.1002(5)
C9H C -0.1842(3) -0.2065(3) -0.0477(3)
C10H C -0.2250(3) -0.2235(3) -0.0485(4)
H6H H -0.2387 -0.2308 -0.0811
O2C O 0.0520(3) -0.0323(3) 0.1320(4)
O3C O 0.0614(3) -0.0164(3) 0.2190(4)
O4C O 0.2084(3) -0.1779(3) 0.1392(4)
N1C N 0.1971(4) -0.1672(5) 0.0000
N2C N 0.1785(3) -0.1248(3) 0.0900(4)
H1C H 0.1706 -0.1190 0.0571
C1C C 0.0750(4) -0.0286(4) 0.1739(7)
C2C C 0.1175(2) -0.0499(3) 0.1737(4)
C3C C 0.1460(3) -0.0428(2) 0.2154(3)
H2C H 0.1381 -0.0248 0.2443
C4C C 0.1862(2) -0.0621(3) 0.2147(3)
H3C H 0.2056 -0.0573 0.2432
C5C C 0.1978(2) -0.0885(3) 0.1724(4)
H4C H 0.2252 -0.1016 0.1719
C6C C 0.1692(3) -0.0955(2) 0.1307(3)
C7C C 0.1291(3) -0.0762(3) 0.1313(3)
H5C H 0.1096 -0.0810 0.1028
C8C C 0.1993(4) -0.1619(4) 0.1002(5)
C9C C 0.2065(3) -0.1842(3) 0.0477(3)
C10C C 0.2235(3) -0.2250(3) 0.0485(4)
H6C H 0.2308 -0.2387 0.0811
C11C C 0.2294(5) -0.2452(6) 0.0000
H7C H 0.2380 -0.2744 0.0000
O2I O 0.0520(3) -0.0323(3) -0.1320(4)
O3I O 0.0614(3) -0.0164(3) -0.2190(4)
O4I O 0.2084(3) -0.1779(3) -0.1392(4)
N2I N 0.1785(3) -0.1248(3) -0.0900(4)
H1I H 0.1706 -0.1190 -0.0571
C1I C 0.0750(4) -0.0286(4) -0.1739(7)
C2I C 0.1175(2) -0.0499(3) -0.1737(4)
C3I C 0.1460(3) -0.0428(2) -0.2154(3)
H2I H 0.1381 -0.0248 -0.2443
C4I C 0.1862(2) -0.0621(3) -0.2147(3)
H3I H 0.2056 -0.0573 -0.2432
C5I C 0.1978(2) -0.0885(3) -0.1724(4)
H4I H 0.2252 -0.1016 -0.1719
C6I C 0.1692(3) -0.0955(2) -0.1307(3)
C7I C 0.1291(3) -0.0762(3) -0.1313(3)
H5I H 0.1096 -0.0810 -0.1028
C8I C 0.1993(4) -0.1619(4) -0.1002(5)
C9I C 0.2065(3) -0.1842(3) -0.0477(3)
C10I C 0.2235(3) -0.2250(3) -0.0485(4)
H6I H 0.2308 -0.2387 -0.0811
Cu1H Cu 0.0000 0.0000 -0.12603(15)
Cu2H Cu 0.0000 0.0000 -0.22777(17)
O1H O 0.0000 0.0000 -0.3167(7)
Mo1 Mo 0.25408(8) -0.06221(8) 0.0000
Mo2 Mo 0.31415(9) -0.02486(9) 0.0000
O5 O 0.0622(3) 0.3374(3) 0.0573(4)
O6 O 0.1013(3) 0.2765(3) 0.0564(4)
O7 O 0.3786(4) 0.0142(4) 0.0000
O8 O 0.2889(2) 0.0147(2) 0.0557(3)
O9 O 0.2271(2) -0.0239(3) 0.0555(3)
O10 O 0.2696(4) 0.3389(4) 0.2181(5)
O11 O 0.3171(4) 0.1220(3) 0.1697(5)
N3 N 0.2781(4) 0.2258(4) 0.1891(4)
N4 N 0.2223(3) 0.2943(4) 0.1793(6)
H8 H 0.2182 0.2670 0.1722
N5 N 0.2499(4) 0.1487(3) 0.1617(6)
H9 H 0.2341 0.1719 0.1643
C12 C 0.0970(6) 0.3136(5) 0.0728(7)
C13 C 0.1241(3) 0.3326(3) 0.1149(3)
C14 C 0.1581(4) 0.3068(2) 0.1304(4)
H10 H 0.1616 0.2792 0.1149
C15 C 0.1871(3) 0.3212(3) 0.1685(4)
C16 C 0.1820(3) 0.3616(3) 0.1911(3)
H11 H 0.2018 0.3714 0.2172
C17 C 0.1480(3) 0.3874(2) 0.1756(4)
H12 H 0.1445 0.4150 0.1911
C18 C 0.1190(3) 0.3730(3) 0.1375(4)
H13 H 0.0958 0.3907 0.1269
C19 C 0.2613(4) 0.3043(5) 0.1988(7)
C20 C 0.2892(5) 0.2653(4) 0.2048(4)
C21 C 0.3285(4) 0.2796(5) 0.2228(5)
H14 H 0.3359 0.3077 0.2338
C22 C 0.3545(5) 0.2439(4) 0.2213(4)
H15 H 0.3828 0.2498 0.2330
C23 C 0.3492(4) 0.2015(4) 0.2068(5)
H16 H 0.3709 0.1803 0.2081
C24 C 0.3076(4) 0.1947(4) 0.1902(4)
C25 C 0.2927(4) 0.1522(4) 0.1689(8)
C26 C 0.2297(3) 0.1094(2) 0.1503(4)
C27 C 0.1879(3) 0.1038(2) 0.1680(3)
H17 H 0.1744 0.1254 0.1887
C28 C 0.1659(2) 0.0664(3) 0.1554(4)
H18 H 0.1373 0.0626 0.1675
C29 C 0.1856(3) 0.0348(2) 0.1252(4)
H19 H 0.1706 0.0093 0.1166
C30 C 0.2275(3) 0.0404(3) 0.1075(3)
C31 C 0.2495(2) 0.0778(3) 0.1201(4)
H20 H 0.2781 0.0817 0.1080
C32 C 0.2479(5) 0.0100(5) 0.0714(6)
Mo1A Mo 0.06221(8) 0.25408(8) 0.0000
Mo2A Mo 0.02486(9) 0.31415(9) 0.0000
O5A O -0.3374(3) 0.0622(3) 0.0573(4)
O6A O -0.2765(3) 0.1013(3) 0.0564(4)
O7A O -0.0142(4) 0.3786(4) 0.0000
O8A O -0.0147(2) 0.2889(2) 0.0557(3)
O9A O 0.0239(3) 0.2271(2) 0.0555(3)
O10A O -0.3389(4) 0.2696(4) 0.2181(5)
O11A O -0.1220(3) 0.3171(4) 0.1697(5)
N3A N -0.2258(4) 0.2781(4) 0.1891(4)
N4A N -0.2943(4) 0.2223(3) 0.1793(6)
H8A H -0.2670 0.2182 0.1722
N5A N -0.1487(3) 0.2499(4) 0.1617(6)
H9A H -0.1719 0.2341 0.1643
C12A C -0.3136(5) 0.0970(6) 0.0728(7)
C13A C -0.3326(3) 0.1241(3) 0.1149(3)
C14A C -0.3068(2) 0.1581(4) 0.1304(4)
H10A H -0.2792 0.1616 0.1149
C15A C -0.3212(3) 0.1871(3) 0.1685(4)
C16A C -0.3616(3) 0.1820(3) 0.1911(3)
H11A H -0.3714 0.2018 0.2172
C17A C -0.3874(2) 0.1480(3) 0.1756(4)
H12A H -0.4150 0.1445 0.1911
C18A C -0.3730(3) 0.1190(3) 0.1375(4)
H13A H -0.3907 0.0958 0.1269
C19A C -0.3043(5) 0.2613(4) 0.1988(7)
C20A C -0.2653(4) 0.2892(5) 0.2048(4)
C21A C -0.2796(5) 0.3285(4) 0.2228(5)
H14A H -0.3077 0.3359 0.2338
C22A C -0.2439(4) 0.3545(5) 0.2213(4)
H15A H -0.2498 0.3828 0.2330
C23A C -0.2015(4) 0.3492(4) 0.2068(5)
H16A H -0.1803 0.3709 0.2081
C24A C -0.1947(4) 0.3076(4) 0.1902(4)
C25A C -0.1522(4) 0.2927(4) 0.1689(8)
C26A C -0.1094(2) 0.2297(3) 0.1503(4)
C27A C -0.1038(2) 0.1879(3) 0.1680(3)
H17A H -0.1254 0.1744 0.1887
C28A C -0.0664(3) 0.1659(2) 0.1554(4)
H18A H -0.0626 0.1373 0.1675
C29A C -0.0348(2) 0.1856(3) 0.1252(4)
H19A H -0.0093 0.1706 0.1166
C30A C -0.0404(3) 0.2275(3) 0.1075(3)
C31A C -0.0778(3) 0.2495(2) 0.1201(4)
H20A H -0.0817 0.2781 0.1080
C32A C -0.0100(5) 0.2479(5) 0.0714(6)
Mo1C Mo -0.06221(8) -0.25408(8) 0.0000
Mo2C Mo -0.02486(9) -0.31415(9) 0.0000
O5C O 0.3374(3) -0.0622(3) 0.0573(4)
O6C O 0.2765(3) -0.1013(3) 0.0564(4)
O7C O 0.0142(4) -0.3786(4) 0.0000
O8C O 0.0147(2) -0.2889(2) 0.0557(3)
O9C O -0.0239(3) -0.2271(2) 0.0555(3)
O10C O 0.3389(4) -0.2696(4) 0.2181(5)
O11C O 0.1220(3) -0.3171(4) 0.1697(5)
N3C N 0.2258(4) -0.2781(4) 0.1891(4)
N4C N 0.2943(4) -0.2223(3) 0.1793(6)
H8C H 0.2670 -0.2182 0.1722
N5C N 0.1487(3) -0.2499(4) 0.1617(6)
H9C H 0.1719 -0.2341 0.1643
C12C C 0.3136(5) -0.0970(6) 0.0728(7)
C13C C 0.3326(3) -0.1241(3) 0.1149(3)
C14C C 0.3068(2) -0.1581(4) 0.1304(4)
H10C H 0.2792 -0.1616 0.1149
C15C C 0.3212(3) -0.1871(3) 0.1685(4)
C16C C 0.3616(3) -0.1820(3) 0.1911(3)
H11C H 0.3714 -0.2018 0.2172
C17C C 0.3874(2) -0.1480(3) 0.1756(4)
H12C H 0.4150 -0.1445 0.1911
C18C C 0.3730(3) -0.1190(3) 0.1375(4)
H13C H 0.3907 -0.0958 0.1269
C19C C 0.3043(5) -0.2613(4) 0.1988(7)
C20C C 0.2653(4) -0.2892(5) 0.2048(4)
C21C C 0.2796(5) -0.3285(4) 0.2228(5)
H14C H 0.3077 -0.3359 0.2338
C22C C 0.2439(4) -0.3545(5) 0.2213(4)
H15C H 0.2498 -0.3828 0.2330
C23C C 0.2015(4) -0.3492(4) 0.2068(5)
H16C H 0.1803 -0.3709 0.2081
C24C C 0.1947(4) -0.3076(4) 0.1902(4)
C25C C 0.1522(4) -0.2927(4) 0.1689(8)
C26C C 0.1094(2) -0.2297(3) 0.1503(4)
C27C C 0.1038(2) -0.1879(3) 0.1680(3)
H17C H 0.1254 -0.1744 0.1887
C28C C 0.0664(3) -0.1659(2) 0.1554(4)
H18C H 0.0626 -0.1373 0.1675
C29C C 0.0348(2) -0.1856(3) 0.1252(4)
H19C H 0.0093 -0.1706 0.1166
C30C C 0.0404(3) -0.2275(3) 0.1075(3)
C31C C 0.0778(3) -0.2495(2) 0.1201(4)
H20C H 0.0817 -0.2781 0.1080
C32C C 0.0100(5) -0.2479(5) 0.0714(6)
O5I O 0.3374(3) -0.0622(3) -0.0573(4)
O6I O 0.2765(3) -0.1013(3) -0.0564(4)
O8I O 0.0147(2) -0.2889(2) -0.0557(3)
O9I O -0.0239(3) -0.2271(2) -0.0555(3)
O10I O 0.3389(4) -0.2696(4) -0.2181(5)
O11I O 0.1220(3) -0.3171(4) -0.1697(5)
N3I N 0.2258(4) -0.2781(4) -0.1891(4)
N4I N 0.2943(4) -0.2223(3) -0.1793(6)
H8I H 0.2670 -0.2182 -0.1722
N5I N 0.1487(3) -0.2499(4) -0.1617(6)
H9I H 0.1719 -0.2341 -0.1643
C12I C 0.3136(5) -0.0970(6) -0.0728(7)
C13I C 0.3326(3) -0.1241(3) -0.1149(3)
C14I C 0.3068(2) -0.1581(4) -0.1304(4)
H10I H 0.2792 -0.1616 -0.1149
C15I C 0.3212(3) -0.1871(3) -0.1685(4)
C16I C 0.3616(3) -0.1820(3) -0.1911(3)
H11I H 0.3714 -0.2018 -0.2172
C17I C 0.3874(2) -0.1480(3) -0.1756(4)
H12I H 0.4150 -0.1445 -0.1911
C18I C 0.3730(3) -0.1190(3) -0.1375(4)
H13I H 0.3907 -0.0958 -0.1269
C19I C 0.3043(5) -0.2613(4) -0.1988(7)
C20I C 0.2653(4) -0.2892(5) -0.2048(4)
C21I C 0.2796(5) -0.3285(4) -0.2228(5)
H14I H 0.3077 -0.3359 -0.2338
C22I C 0.2439(4) -0.3545(5) -0.2213(4)
H15I H 0.2498 -0.3828 -0.2330
C23I C 0.2015(4) -0.3492(4) -0.2068(5)
H16I H 0.1803 -0.3709 -0.2081
C24I C 0.1947(4) -0.3076(4) -0.1902(4)
C25I C 0.1522(4) -0.2927(4) -0.1689(8)
C26I C 0.1094(2) -0.2297(3) -0.1503(4)
C27I C 0.1038(2) -0.1879(3) -0.1680(3)
H17I H 0.1254 -0.1744 -0.1887
C28I C 0.0664(3) -0.1659(2) -0.1554(4)
H18I H 0.0626 -0.1373 -0.1675
C29I C 0.0348(2) -0.1856(3) -0.1252(4)
H19I H 0.0093 -0.1706 -0.1166
C30I C 0.0404(3) -0.2275(3) -0.1075(3)
C31I C 0.0778(3) -0.2495(2) -0.1201(4)
H20I H 0.0817 -0.2781 -0.1080
C32I C 0.0100(5) -0.2479(5) -0.0714(6)
O5J O 0.0622(3) 0.3374(3) -0.0573(4)
O6J O 0.1013(3) 0.2765(3) -0.0564(4)
O8J O 0.2889(2) 0.0147(2) -0.0557(3)
O9J O 0.2271(2) -0.0239(3) -0.0555(3)
O10J O 0.2696(4) 0.3389(4) -0.2181(5)
O11J O 0.3171(4) 0.1220(3) -0.1697(5)
N3J N 0.2781(4) 0.2258(4) -0.1891(4)
N4J N 0.2223(3) 0.2943(4) -0.1793(6)
H8J H 0.2182 0.2670 -0.1722
N5J N 0.2499(4) 0.1487(3) -0.1617(6)
H9J H 0.2341 0.1719 -0.1643
C12J C 0.0970(6) 0.3136(5) -0.0728(7)
C13J C 0.1241(3) 0.3326(3) -0.1149(3)
C14J C 0.1581(4) 0.3068(2) -0.1304(4)
H10J H 0.1616 0.2792 -0.1149
C15J C 0.1871(3) 0.3212(3) -0.1685(4)
C16J C 0.1820(3) 0.3616(3) -0.1911(3)
H11J H 0.2018 0.3714 -0.2172
C17J C 0.1480(3) 0.3874(2) -0.1756(4)
H12J H 0.1445 0.4150 -0.1911
C18J C 0.1190(3) 0.3730(3) -0.1375(4)
H13J H 0.0958 0.3907 -0.1269
C19J C 0.2613(4) 0.3043(5) -0.1988(7)
C20J C 0.2892(5) 0.2653(4) -0.2048(4)
C21J C 0.3285(4) 0.2796(5) -0.2228(5)
H14J H 0.3359 0.3077 -0.2338
C22J C 0.3545(5) 0.2439(4) -0.2213(4)
H15J H 0.3828 0.2498 -0.2330
C23J C 0.3492(4) 0.2015(4) -0.2068(5)
H16J H 0.3709 0.1803 -0.2081
C24J C 0.3076(4) 0.1947(4) -0.1902(4)
C25J C 0.2927(4) 0.1522(4) -0.1689(8)
C26J C 0.2297(3) 0.1094(2) -0.1503(4)
C27J C 0.1879(3) 0.1038(2) -0.1680(3)
H17J H 0.1744 0.1254 -0.1887
C28J C 0.1659(2) 0.0664(3) -0.1554(4)
H18J H 0.1373 0.0626 -0.1675
C29J C 0.1856(3) 0.0348(2) -0.1252(4)
H19J H 0.1706 0.0093 -0.1166
C30J C 0.2275(3) 0.0404(3) -0.1075(3)
C31J C 0.2495(2) 0.0778(3) -0.1201(4)
H20J H 0.2781 0.0817 -0.1080
C32J C 0.2479(5) 0.0100(5) -0.0714(6)
O5K O -0.3374(3) 0.0622(3) -0.0573(4)
O6K O -0.2765(3) 0.1013(3) -0.0564(4)
O8K O -0.0147(2) 0.2889(2) -0.0557(3)
O9K O 0.0239(3) 0.2271(2) -0.0555(3)
O10K O -0.3389(4) 0.2696(4) -0.2181(5)
O11K O -0.1220(3) 0.3171(4) -0.1697(5)
N3K N -0.2258(4) 0.2781(4) -0.1891(4)
N4K N -0.2943(4) 0.2223(3) -0.1793(6)
H8K H -0.2670 0.2182 -0.1722
N5K N -0.1487(3) 0.2499(4) -0.1617(6)
H9K H -0.1719 0.2341 -0.1643
C12K C -0.3136(5) 0.0970(6) -0.0728(7)
C13K C -0.3326(3) 0.1241(3) -0.1149(3)
C14K C -0.3068(2) 0.1581(4) -0.1304(4)
H10K H -0.2792 0.1616 -0.1149
C15K C -0.3212(3) 0.1871(3) -0.1685(4)
C16K C -0.3616(3) 0.1820(3) -0.1911(3)
H11K H -0.3714 0.2018 -0.2172
C17K C -0.3874(2) 0.1480(3) -0.1756(4)
H12K H -0.4150 0.1445 -0.1911
C18K C -0.3730(3) 0.1190(3) -0.1375(4)
H13K H -0.3907 0.0958 -0.1269
C19K C -0.3043(5) 0.2613(4) -0.1988(7)
C20K C -0.2653(4) 0.2892(5) -0.2048(4)
C21K C -0.2796(5) 0.3285(4) -0.2228(5)
H14K H -0.3077 0.3359 -0.2338
C22K C -0.2439(4) 0.3545(5) -0.2213(4)
H15K H -0.2498 0.3828 -0.2330
C23K C -0.2015(4) 0.3492(4) -0.2068(5)
H16K H -0.1803 0.3709 -0.2081
C24K C -0.1947(4) 0.3076(4) -0.1902(4)
C25K C -0.1522(4) 0.2927(4) -0.1689(8)
C26K C -0.1094(2) 0.2297(3) -0.1503(4)
C27K C -0.1038(2) 0.1879(3) -0.1680(3)
H17K H -0.1254 0.1744 -0.1887
C28K C -0.0664(3) 0.1659(2) -0.1554(4)
H18K H -0.0626 0.1373 -0.1675
C29K C -0.0348(2) 0.1856(3) -0.1252(4)
H19K H -0.0093 0.1706 -0.1166
C30K C -0.0404(3) 0.2275(3) -0.1075(3)
C31K C -0.0778(3) 0.2495(2) -0.1201(4)
H20K H -0.0817 0.2781 -0.1080
C32K C -0.0100(5) 0.2479(5) -0.0714(6)
Mo1B Mo -0.25408(8) 0.06221(8) 0.0000
Mo2B Mo -0.31415(9) 0.02486(9) 0.0000
O5B O -0.0622(3) -0.3374(3) 0.0573(4)
O6B O -0.1013(3) -0.2765(3) 0.0564(4)
O7B O -0.3786(4) -0.0142(4) 0.0000
O8B O -0.2889(2) -0.0147(2) 0.0557(3)
O9B O -0.2271(2) 0.0239(3) 0.0555(3)
O10B O -0.2696(4) -0.3389(4) 0.2181(5)
O11B O -0.3171(4) -0.1220(3) 0.1697(5)
N3B N -0.2781(4) -0.2258(4) 0.1891(4)
N4B N -0.2223(3) -0.2943(4) 0.1793(6)
H8B H -0.2182 -0.2670 0.1722
N5B N -0.2499(4) -0.1487(3) 0.1617(6)
H9B H -0.2341 -0.1719 0.1643
C12B C -0.0970(6) -0.3136(5) 0.0728(7)
C13B C -0.1241(3) -0.3326(3) 0.1149(3)
C14B C -0.1581(4) -0.3068(2) 0.1304(4)
H10B H -0.1616 -0.2792 0.1149
C15B C -0.1871(3) -0.3212(3) 0.1685(4)
C16B C -0.1820(3) -0.3616(3) 0.1911(3)
H11B H -0.2018 -0.3714 0.2172
C17B C -0.1480(3) -0.3874(2) 0.1756(4)
H12B H -0.1445 -0.4150 0.1911
C18B C -0.1190(3) -0.3730(3) 0.1375(4)
H13B H -0.0958 -0.3907 0.1269
C19B C -0.2613(4) -0.3043(5) 0.1988(7)
C20B C -0.2892(5) -0.2653(4) 0.2048(4)
C21B C -0.3285(4) -0.2796(5) 0.2228(5)
H14B H -0.3359 -0.3077 0.2338
C22B C -0.3545(5) -0.2439(4) 0.2213(4)
H15B H -0.3828 -0.2498 0.2330
C23B C -0.3492(4) -0.2015(4) 0.2068(5)
H16B H -0.3709 -0.1803 0.2081
C24B C -0.3076(4) -0.1947(4) 0.1902(4)
C25B C -0.2927(4) -0.1522(4) 0.1689(8)
C26B C -0.2297(3) -0.1094(2) 0.1503(4)
C27B C -0.1879(3) -0.1038(2) 0.1680(3)
H17B H -0.1744 -0.1254 0.1887
C28B C -0.1659(2) -0.0664(3) 0.1554(4)
H18B H -0.1373 -0.0626 0.1675
C29B C -0.1856(3) -0.0348(2) 0.1252(4)
H19B H -0.1706 -0.0093 0.1166
C30B C -0.2275(3) -0.0404(3) 0.1075(3)
C31B C -0.2495(2) -0.0778(3) 0.1201(4)
H20B H -0.2781 -0.0817 0.1080
C32B C -0.2479(5) -0.0100(5) 0.0714(6)
O5H O -0.0622(3) -0.3374(3) -0.0573(4)
O6H O -0.1013(3) -0.2765(3) -0.0564(4)
O8H O -0.2889(2) -0.0147(2) -0.0557(3)
O9H O -0.2271(2) 0.0239(3) -0.0555(3)
O10H O -0.2696(4) -0.3389(4) -0.2181(5)
O11H O -0.3171(4) -0.1220(3) -0.1697(5)
N3H N -0.2781(4) -0.2258(4) -0.1891(4)
N4H N -0.2223(3) -0.2943(4) -0.1793(6)
H8H H -0.2182 -0.2670 -0.1722
N5H N -0.2499(4) -0.1487(3) -0.1617(6)
H9H H -0.2341 -0.1719 -0.1643
C12H C -0.0970(6) -0.3136(5) -0.0728(7)
C13H C -0.1241(3) -0.3326(3) -0.1149(3)
C14H C -0.1581(4) -0.3068(2) -0.1304(4)
H10H H -0.1616 -0.2792 -0.1149
C15H C -0.1871(3) -0.3212(3) -0.1685(4)
C16H C -0.1820(3) -0.3616(3) -0.1911(3)
H11H H -0.2018 -0.3714 -0.2172
C17H C -0.1480(3) -0.3874(2) -0.1756(4)
H12H H -0.1445 -0.4150 -0.1911
C18H C -0.1190(3) -0.3730(3) -0.1375(4)
H13H H -0.0958 -0.3907 -0.1269
C19H C -0.2613(4) -0.3043(5) -0.1988(7)
C20H C -0.2892(5) -0.2653(4) -0.2048(4)
C21H C -0.3285(4) -0.2796(5) -0.2228(5)
H14H H -0.3359 -0.3077 -0.2338
C22H C -0.3545(5) -0.2439(4) -0.2213(4)
H15H H -0.3828 -0.2498 -0.2330
C23H C -0.3492(4) -0.2015(4) -0.2068(5)
H16H H -0.3709 -0.1803 -0.2081
C24H C -0.3076(4) -0.1947(4) -0.1902(4)
C25H C -0.2927(4) -0.1522(4) -0.1689(8)
C26H C -0.2297(3) -0.1094(2) -0.1503(4)
C27H C -0.1879(3) -0.1038(2) -0.1680(3)
H17H H -0.1744 -0.1254 -0.1887
C28H C -0.1659(2) -0.0664(3) -0.1554(4)
H18H H -0.1373 -0.0626 -0.1675
C29H C -0.1856(3) -0.0348(2) -0.1252(4)
H19H H -0.1706 -0.0093 -0.1166
C30H C -0.2275(3) -0.0404(3) -0.1075(3)
C31H C -0.2495(2) -0.0778(3) -0.1201(4)
H20H H -0.2781 -0.0817 -0.1080
C32H C -0.2479(5) -0.0100(5) -0.0714(6)
Cu3? Cu 0.25408(8) -0.06221(8) 0.0000
Cu4? Cu 0.31415(9) -0.02486(9) 0.0000
loop_
_geom_bond_atom_site_label_1
_geom_bond_atom_site_label_2
_geom_bond_site_symmetry_1
_geom_bond_site_symmetry_2
Cu1 O2 1_555 1_555
Cu2 O1 1_555 1_555
O2 C1 1_555 1_555
O3 Cu2 1_555 1_555
O4 C8 1_555 1_555
N1 C9 1_555 1_555
N2 H1 1_555 1_555
C1 O3 1_555 1_555
C2 C1 1_555 1_555
C3 C2 1_555 1_555
H2 C3 1_555 1_555
C4 C3 1_555 1_555
H3 C4 1_555 1_555
C5 C4 1_555 1_555
H4 C5 1_555 1_555
C6 N2 1_555 1_555
C7 C2 1_555 1_555
H5 C7 1_555 1_555
C8 N2 1_555 1_555
C9 C8 1_555 1_555
C10 C9 1_555 1_555
H6 C10 1_555 1_555
C11 C10 1_555 1_555
H7 C11 1_555 1_555
Mo1 Mo2 1_555 1_555
Mo2 O7 1_555 1_555
O5 C12 1_555 1_555
O6 C12 1_555 1_555
O8 Mo2 1_555 1_555
O9 Mo1 1_555 1_555
O10 C19 1_555 1_555
O11 C25 1_555 1_555
N3 C20 1_555 1_555
N4 H8 1_555 1_555
N5 H9 1_555 1_555
C12 C13 1_555 1_555
C13 C14 1_555 1_555
C14 H10 1_555 1_555
C15 N4 1_555 1_555
C16 C15 1_555 1_555
H11 C16 1_555 1_555
C17 C16 1_555 1_555
H12 C17 1_555 1_555
C18 C13 1_555 1_555
H13 C18 1_555 1_555
C19 N4 1_555 1_555
C20 C19 1_555 1_555
C21 C20 1_555 1_555
H14 C21 1_555 1_555
C22 C21 1_555 1_555
H15 C22 1_555 1_555
C23 C22 1_555 1_555
H16 C23 1_555 1_555
C24 N3 1_555 1_555
C25 N5 1_555 1_555
C26 N5 1_555 1_555
C27 C26 1_555 1_555
H17 C27 1_555 1_555
C28 C27 1_555 1_555
H18 C28 1_555 1_555
C29 C28 1_555 1_555
H19 C29 1_555 1_555
C30 C29 1_555 1_555
C31 C26 1_555 1_555
H20 C31 1_555 1_555
C32 O8 1_555 1_555
O2J C1J 1_555 1_555
O3J C1J 1_555 1_555
O4J C8J 1_555 1_555
N2J H1J 1_555 1_555
C1J C2J 1_555 1_555
C2J C3J 1_555 1_555
C3J H2J 1_555 1_555
C4J C3J 1_555 1_555
H3J C4J 1_555 1_555
C5J C4J 1_555 1_555
H4J C5J 1_555 1_555
C6J N2J 1_555 1_555
C7J C2J 1_555 1_555
H5J C7J 1_555 1_555
C8J N2J 1_555 1_555
C9J N1 1_555 1_555
C10J C11 1_555 1_555
H6J C10J 1_555 1_555
O2A Cu1 1_555 1_555
O3A Cu2 1_555 1_555
O4A C8A 1_555 1_555
N1A C9A 1_555 1_555
N2A H1A 1_555 1_555
C1A O2A 1_555 1_555
C2A C1A 1_555 1_555
C3A C2A 1_555 1_555
H2A C3A 1_555 1_555
C4A C3A 1_555 1_555
H3A C4A 1_555 1_555
C5A C4A 1_555 1_555
H4A C5A 1_555 1_555
C6A N2A 1_555 1_555
C7A C2A 1_555 1_555
H5A C7A 1_555 1_555
C8A N2A 1_555 1_555
C9A C8A 1_555 1_555
C10A C9A 1_555 1_555
H6A C10A 1_555 1_555
C11A C10A 1_555 1_555
H7A C11A 1_555 1_555
O2K C1K 1_555 1_555
O3K C1K 1_555 1_555
O4K C8K 1_555 1_555
N2K H1K 1_555 1_555
C1K C2K 1_555 1_555
C2K C3K 1_555 1_555
C3K H2K 1_555 1_555
C4K C3K 1_555 1_555
H3K C4K 1_555 1_555
C5K C4K 1_555 1_555
H4K C5K 1_555 1_555
C6K N2K 1_555 1_555
C7K C2K 1_555 1_555
H5K C7K 1_555 1_555
C8K N2K 1_555 1_555
C9K N1A 1_555 1_555
C10K C11A 1_555 1_555
H6K C10K 1_555 1_555
O2B Cu1 1_555 1_555
O3B Cu2 1_555 1_555
O4B C8B 1_555 1_555
N1B C9B 1_555 1_555
N2B H1B 1_555 1_555
C1B O2B 1_555 1_555
C2B C1B 1_555 1_555
C3B C2B 1_555 1_555
H2B C3B 1_555 1_555
C4B C3B 1_555 1_555
H3B C4B 1_555 1_555
C5B C4B 1_555 1_555
H4B C5B 1_555 1_555
C6B N2B 1_555 1_555
C7B C2B 1_555 1_555
H5B C7B 1_555 1_555
C8B N2B 1_555 1_555
C9B C8B 1_555 1_555
C10B C9B 1_555 1_555
H6B C10B 1_555 1_555
C11B C10B 1_555 1_555
H7B C11B 1_555 1_555
O2H C1H 1_555 1_555
O3H C1H 1_555 1_555
O4H C8H 1_555 1_555
N2H H1H 1_555 1_555
C1H C2H 1_555 1_555
C2H C3H 1_555 1_555
C3H H2H 1_555 1_555
C4H C3H 1_555 1_555
H3H C4H 1_555 1_555
C5H C4H 1_555 1_555
H4H C5H 1_555 1_555
C6H N2H 1_555 1_555
C7H C2H 1_555 1_555
H5H C7H 1_555 1_555
C8H N2H 1_555 1_555
C9H N1B 1_555 1_555
C10H C11B 1_555 1_555
H6H C10H 1_555 1_555
O2C Cu1 1_555 1_555
O3C Cu2 1_555 1_555
O4C C8C 1_555 1_555
N1C C9C 1_555 1_555
N2C H1C 1_555 1_555
C1C O2C 1_555 1_555
C2C C1C 1_555 1_555
C3C C2C 1_555 1_555
H2C C3C 1_555 1_555
C4C C3C 1_555 1_555
H3C C4C 1_555 1_555
C5C C4C 1_555 1_555
H4C C5C 1_555 1_555
C6C N2C 1_555 1_555
C7C C2C 1_555 1_555
H5C C7C 1_555 1_555
C8C N2C 1_555 1_555
C9C C8C 1_555 1_555
C10C C9C 1_555 1_555
H6C C10C 1_555 1_555
C11C C10C 1_555 1_555
H7C C11C 1_555 1_555
O2I C1I 1_555 1_555
O3I C1I 1_555 1_555
O4I C8I 1_555 1_555
N2I H1I 1_555 1_555
C1I C2I 1_555 1_555
C2I C3I 1_555 1_555
C3I H2I 1_555 1_555
C4I C3I 1_555 1_555
H3I C4I 1_555 1_555
C5I C4I 1_555 1_555
H4I C5I 1_555 1_555
C6I N2I 1_555 1_555
C7I C2I 1_555 1_555
H5I C7I 1_555 1_555
C8I N2I 1_555 1_555
C9I N1C 1_555 1_555
C10I C11C 1_555 1_555
H6I C10I 1_555 1_555
Cu1H O2J 1_555 1_555
Cu2H O3J 1_555 1_555
O1H Cu2H 1_555 1_555
Mo1A O6 1_555 1_555
Mo2A O5 1_555 1_555
O5A C12A 1_555 1_555
O6A C12A 1_555 1_555
O7A Mo2A 1_555 1_555
O8A Mo2A 1_555 1_555
O9A Mo1A 1_555 1_555
O10A C19A 1_555 1_555
O11A C25A 1_555 1_555
N3A C20A 1_555 1_555
N4A H8A 1_555 1_555
N5A H9A 1_555 1_555
C12A C13A 1_555 1_555
C13A C14A 1_555 1_555
C14A H10A 1_555 1_555
C15A N4A 1_555 1_555
C16A C15A 1_555 1_555
H11A C16A 1_555 1_555
C17A C16A 1_555 1_555
H12A C17A 1_555 1_555
C18A C13A 1_555 1_555
H13A C18A 1_555 1_555
C19A N4A 1_555 1_555
C20A C19A 1_555 1_555
C21A C20A 1_555 1_555
H14A C21A 1_555 1_555
C22A C21A 1_555 1_555
H15A C22A 1_555 1_555
C23A C22A 1_555 1_555
H16A C23A 1_555 1_555
C24A N3A 1_555 1_555
C25A N5A 1_555 1_555
C26A N5A 1_555 1_555
C27A C26A 1_555 1_555
H17A C27A 1_555 1_555
C28A C27A 1_555 1_555
H18A C28A 1_555 1_555
C29A C28A 1_555 1_555
H19A C29A 1_555 1_555
C30A C29A 1_555 1_555
C31A C26A 1_555 1_555
H20A C31A 1_555 1_555
C32A O8A 1_555 1_555
Mo1C Mo2C 1_555 1_555
Mo2C O7C 1_555 1_555
O5C Mo2 1_555 1_555
O6C Mo1 1_555 1_555
O8C Mo2C 1_555 1_555
O9C Mo1C 1_555 1_555
O10C C19C 1_555 1_555
O11C C25C 1_555 1_555
N3C C20C 1_555 1_555
N4C H8C 1_555 1_555
N5C H9C 1_555 1_555
C12C O5C 1_555 1_555
C13C C12C 1_555 1_555
C14C C13C 1_555 1_555
H10C C14C 1_555 1_555
C15C N4C 1_555 1_555
C16C C15C 1_555 1_555
H11C C16C 1_555 1_555
C17C C16C 1_555 1_555
H12C C17C 1_555 1_555
C18C C13C 1_555 1_555
H13C C18C 1_555 1_555
C19C N4C 1_555 1_555
C20C C19C 1_555 1_555
C21C C20C 1_555 1_555
H14C C21C 1_555 1_555
C22C C21C 1_555 1_555
H15C C22C 1_555 1_555
C23C C22C 1_555 1_555
H16C C23C 1_555 1_555
C24C N3C 1_555 1_555
C25C N5C 1_555 1_555
C26C N5C 1_555 1_555
C27C C26C 1_555 1_555
H17C C27C 1_555 1_555
C28C C27C 1_555 1_555
H18C C28C 1_555 1_555
C29C C28C 1_555 1_555
H19C C29C 1_555 1_555
C30C C29C 1_555 1_555
C31C C26C 1_555 1_555
H20C C31C 1_555 1_555
C32C O8C 1_555 1_555
O5I Mo2 1_555 1_555
O6I Mo1 1_555 1_555
O8I Mo2C 1_555 1_555
O9I Mo1C 1_555 1_555
O10I C19I 1_555 1_555
O11I C25I 1_555 1_555
N3I C20I 1_555 1_555
N4I H8I 1_555 1_555
N5I H9I 1_555 1_555
C12I O5I 1_555 1_555
C13I C12I 1_555 1_555
C14I C13I 1_555 1_555
H10I C14I 1_555 1_555
C15I N4I 1_555 1_555
C16I C15I 1_555 1_555
H11I C16I 1_555 1_555
C17I C16I 1_555 1_555
H12I C17I 1_555 1_555
C18I C13I 1_555 1_555
H13I C18I 1_555 1_555
C19I N4I 1_555 1_555
C20I C19I 1_555 1_555
C21I C20I 1_555 1_555
H14I C21I 1_555 1_555
C22I C21I 1_555 1_555
H15I C22I 1_555 1_555
C23I C22I 1_555 1_555
H16I C23I 1_555 1_555
C24I N3I 1_555 1_555
C25I N5I 1_555 1_555
C26I N5I 1_555 1_555
C27I C26I 1_555 1_555
H17I C27I 1_555 1_555
C28I C27I 1_555 1_555
H18I C28I 1_555 1_555
C29I C28I 1_555 1_555
H19I C29I 1_555 1_555
C30I C29I 1_555 1_555
C31I C26I 1_555 1_555
H20I C31I 1_555 1_555
C32I O8I 1_555 1_555
O5J Mo2A 1_555 1_555
O6J Mo1A 1_555 1_555
O8J Mo2 1_555 1_555
O9J Mo1 1_555 1_555
O10J C19J 1_555 1_555
O11J C25J 1_555 1_555
N3J C20J 1_555 1_555
N4J H8J 1_555 1_555
N5J H9J 1_555 1_555
C12J O5J 1_555 1_555
C13J C12J 1_555 1_555
C14J C13J 1_555 1_555
H10J C14J 1_555 1_555
C15J N4J 1_555 1_555
C16J C15J 1_555 1_555
H11J C16J 1_555 1_555
C17J C16J 1_555 1_555
H12J C17J 1_555 1_555
C18J C13J 1_555 1_555
H13J C18J 1_555 1_555
C19J N4J 1_555 1_555
C20J C19J 1_555 1_555
C21J C20J 1_555 1_555
H14J C21J 1_555 1_555
C22J C21J 1_555 1_555
H15J C22J 1_555 1_555
C23J C22J 1_555 1_555
H16J C23J 1_555 1_555
C24J N3J 1_555 1_555
C25J N5J 1_555 1_555
C26J N5J 1_555 1_555
C27J C26J 1_555 1_555
H17J C27J 1_555 1_555
C28J C27J 1_555 1_555
H18J C28J 1_555 1_555
C29J C28J 1_555 1_555
H19J C29J 1_555 1_555
C30J C29J 1_555 1_555
C31J C26J 1_555 1_555
H20J C31J 1_555 1_555
C32J O8J 1_555 1_555
O5K C12K 1_555 1_555
O6K C12K 1_555 1_555
O8K Mo2A 1_555 1_555
O9K Mo1A 1_555 1_555
O10K C19K 1_555 1_555
O11K C25K 1_555 1_555
N3K C20K 1_555 1_555
N4K H8K 1_555 1_555
N5K H9K 1_555 1_555
C12K C13K 1_555 1_555
C13K C14K 1_555 1_555
C14K H10K 1_555 1_555
C15K N4K 1_555 1_555
C16K C15K 1_555 1_555
H11K C16K 1_555 1_555
C17K C16K 1_555 1_555
H12K C17K 1_555 1_555
C18K C13K 1_555 1_555
H13K C18K 1_555 1_555
C19K N4K 1_555 1_555
C20K C19K 1_555 1_555
C21K C20K 1_555 1_555
H14K C21K 1_555 1_555
C22K C21K 1_555 1_555
H15K C22K 1_555 1_555
C23K C22K 1_555 1_555
H16K C23K 1_555 1_555
C24K N3K 1_555 1_555
C25K N5K 1_555 1_555
C26K N5K 1_555 1_555
C27K C26K 1_555 1_555
H17K C27K 1_555 1_555
C28K C27K 1_555 1_555
H18K C28K 1_555 1_555
C29K C28K 1_555 1_555
H19K C29K 1_555 1_555
C30K C29K 1_555 1_555
C31K C26K 1_555 1_555
H20K C31K 1_555 1_555
C32K O8K 1_555 1_555
Mo1B O6A 1_555 1_555
Mo2B O5A 1_555 1_555
O5B Mo2C 1_555 1_555
O6B Mo1C 1_555 1_555
O7B Mo2B 1_555 1_555
O8B Mo2B 1_555 1_555
O9B Mo1B 1_555 1_555
O10B C19B 1_555 1_555
O11B C25B 1_555 1_555
N3B C20B 1_555 1_555
N4B H8B 1_555 1_555
N5B H9B 1_555 1_555
C12B O5B 1_555 1_555
C13B C12B 1_555 1_555
C14B C13B 1_555 1_555
H10B C14B 1_555 1_555
C15B N4B 1_555 1_555
C16B C15B 1_555 1_555
H11B C16B 1_555 1_555
C17B C16B 1_555 1_555
H12B C17B 1_555 1_555
C18B C13B 1_555 1_555
H13B C18B 1_555 1_555
C19B N4B 1_555 1_555
C20B C19B 1_555 1_555
C21B C20B 1_555 1_555
H14B C21B 1_555 1_555
C22B C21B 1_555 1_555
H15B C22B 1_555 1_555
C23B C22B 1_555 1_555
H16B C23B 1_555 1_555
C24B N3B 1_555 1_555
C25B N5B 1_555 1_555
C26B N5B 1_555 1_555
C27B C26B 1_555 1_555
H17B C27B 1_555 1_555
C28B C27B 1_555 1_555
H18B C28B 1_555 1_555
C29B C28B 1_555 1_555
H19B C29B 1_555 1_555
C30B C29B 1_555 1_555
C31B C26B 1_555 1_555
H20B C31B 1_555 1_555
C32B O8B 1_555 1_555
O5H Mo2C 1_555 1_555
O6H Mo1C 1_555 1_555
O8H Mo2B 1_555 1_555
O9H Mo1B 1_555 1_555
O10H C19H 1_555 1_555
O11H C25H 1_555 1_555
N3H C20H 1_555 1_555
N4H H8H 1_555 1_555
N5H H9H 1_555 1_555
C12H O5H 1_555 1_555
C13H C12H 1_555 1_555
C14H C13H 1_555 1_555
H10H C14H 1_555 1_555
C15H N4H 1_555 1_555
C16H C15H 1_555 1_555
H11H C16H 1_555 1_555
C17H C16H 1_555 1_555
H12H C17H 1_555 1_555
C18H C13H 1_555 1_555
H13H C18H 1_555 1_555
C19H N4H 1_555 1_555
C20H C19H 1_555 1_555
C21H C20H 1_555 1_555
H14H C21H 1_555 1_555
C22H C21H 1_555 1_555
H15H C22H 1_555 1_555
C23H C22H 1_555 1_555
H16H C23H 1_555 1_555
C24H N3H 1_555 1_555
C25H N5H 1_555 1_555
C26H N5H 1_555 1_555
C27H C26H 1_555 1_555
H17H C27H 1_555 1_555
C28H C27H 1_555 1_555
H18H C28H 1_555 1_555
C29H C28H 1_555 1_555
H19H C29H 1_555 1_555
C30H C29H 1_555 1_555
C31H C26H 1_555 1_555
H20H C31H 1_555 1_555
C32H O8H 1_555 1_555
C5 C6 1_555 1_555
C6 C7 1_555 1_555
O9 C32 1_555 1_555
C14 C15 1_555 1_555
C17 C18 1_555 1_555
C23 C24 1_555 1_555
C24 C25 1_555 1_555
C30 C31 1_555 1_555
C30 C32 1_555 1_555
C5J C6J 1_555 1_555
C6J C7J 1_555 1_555
C8J C9J 1_555 1_555
C9J C10J 1_555 1_555
O3A C1A 1_555 1_555
C5A C6A 1_555 1_555
C6A C7A 1_555 1_555
O2K Cu1H 1_555 1_555
O3K Cu2H 1_555 1_555
C5K C6K 1_555 1_555
C6K C7K 1_555 1_555
C8K C9K 1_555 1_555
C9K C10K 1_555 1_555
O3B C1B 1_555 1_555
C5B C6B 1_555 1_555
C6B C7B 1_555 1_555
O2H Cu1H 1_555 1_555
O3H Cu2H 1_555 1_555
C5H C6H 1_555 1_555
C6H C7H 1_555 1_555
C8H C9H 1_555 1_555
C9H C10H 1_555 1_555
O3C C1C 1_555 1_555
C5C C6C 1_555 1_555
C6C C7C 1_555 1_555
O2I Cu1H 1_555 1_555
O3I Cu2H 1_555 1_555
C5I C6I 1_555 1_555
C6I C7I 1_555 1_555
C8I C9I 1_555 1_555
C9I C10I 1_555 1_555
Mo1A Mo2A 1_555 1_555
O9A C32A 1_555 1_555
C14A C15A 1_555 1_555
C17A C18A 1_555 1_555
C23A C24A 1_555 1_555
C24A C25A 1_555 1_555
C30A C31A 1_555 1_555
C30A C32A 1_555 1_555
O6C C12C 1_555 1_555
O9C C32C 1_555 1_555
C14C C15C 1_555 1_555
C17C C18C 1_555 1_555
C23C C24C 1_555 1_555
C24C C25C 1_555 1_555
C30C C31C 1_555 1_555
C30C C32C 1_555 1_555
O6I C12I 1_555 1_555
O9I C32I 1_555 1_555
C14I C15I 1_555 1_555
C17I C18I 1_555 1_555
C23I C24I 1_555 1_555
C24I C25I 1_555 1_555
C30I C31I 1_555 1_555
C30I C32I 1_555 1_555
O6J C12J 1_555 1_555
O9J C32J 1_555 1_555
C14J C15J 1_555 1_555
C17J C18J 1_555 1_555
C23J C24J 1_555 1_555
C24J C25J 1_555 1_555
C30J C31J 1_555 1_555
C30J C32J 1_555 1_555
O5K Mo2B 1_555 1_555
O6K Mo1B 1_555 1_555
O9K C32K 1_555 1_555
C14K C15K 1_555 1_555
C17K C18K 1_555 1_555
C23K C24K 1_555 1_555
C24K C25K 1_555 1_555
C30K C31K 1_555 1_555
C30K C32K 1_555 1_555
Mo1B Mo2B 1_555 1_555
O6B C12B 1_555 1_555
O9B C32B 1_555 1_555
C14B C15B 1_555 1_555
C17B C18B 1_555 1_555
C23B C24B 1_555 1_555
C24B C25B 1_555 1_555
C30B C31B 1_555 1_555
C30B C32B 1_555 1_555
O6H C12H 1_555 1_555
O9H C32H 1_555 1_555
C14H C15H 1_555 1_555
C17H C18H 1_555 1_555
C23H C24H 1_555 1_555
C24H C25H 1_555 1_555
C30H C31H 1_555 1_555
C30H C32H 1_555 1_555

#END
