
#######################################################################
#
#                 Cambridge Crystallographic Data Centre
#                                CCDC 
#
#######################################################################
#
# If this CIF has been generated from an entry in the Cambridge 
# Structural Database, then it will include bibliographic, chemical, 
# crystal, experimental, refinement or atomic coordinate data resulting 
# from the CCDC's data processing and validation procedures.
#
#######################################################################

data_UQUCEQ
_chemical_formula_moiety         'C168 H144 Fe4 N48 8+,4(O4 S1 2-)'
_chemical_name_systematic        
"tetrakis(\m-N,N',N''-trimethyl-N,N',N''-tris(4-((pyridin-2-ylmethylene)amino)phenyl)-1,3,5-triazine-2,4,6-triamine)-tetra-iron tetrakis(sulfate) unknown solvate"
_symmetry_cell_setting           cubic
_symmetry_space_group_name_H-M   'I 2 3'
_symmetry_Int_Tables_number      197
_space_group_name_Hall           'I 2 2 3'
loop_
_symmetry_equiv_pos_site_id
_symmetry_equiv_pos_as_xyz
1 x,y,z
2 -x,-y,z
3 -x,y,-z
4 x,-y,-z
5 z,x,y
6 z,-x,-y
7 -z,-x,y
8 -z,x,-y
9 y,z,x
10 -y,z,-x
11 y,-z,-x
12 -y,-z,x
13 1/2+x,1/2+y,1/2+z
14 1/2-x,1/2-y,1/2+z
15 1/2-x,1/2+y,1/2-z
16 1/2+x,1/2-y,1/2-z
17 1/2+z,1/2+x,1/2+y
18 1/2+z,1/2-x,1/2-y
19 1/2-z,1/2-x,1/2+y
20 1/2-z,1/2+x,1/2-y
21 1/2+y,1/2+z,1/2+x
22 1/2-y,1/2+z,1/2-x
23 1/2+y,1/2-z,1/2-x
24 1/2-y,1/2-z,1/2+x
_cell_length_a                   22.7502(9)
_cell_length_b                   22.7502(9)
_cell_length_c                   22.7502(9)
_cell_angle_alpha                90
_cell_angle_beta                 90
_cell_angle_gamma                90
_cell_volume                     11774.9
_exptl_crystal_colour            purple
_exptl_crystal_description       Prism
_cell_formula_units_Z            2
loop_
_atom_site_label
_atom_site_type_symbol
_atom_site_fract_x
_atom_site_fract_y
_atom_site_fract_z
Fe1 Fe 0.24142(4) 0.24142(4) 0.24142(4)
N1 N 0.2667(2) 0.2187(2) 0.1606(2)
N2 N 0.1176(2) 0.2007(2) -0.0353(2)
N3 N 0.1603(2) 0.1187(2) -0.0755(2)
N4 N 0.3269(2) 0.2231(3) 0.2551(3)
C1 C 0.3562(3) 0.2247(4) 0.3061(3)
H1 H 0.3357 0.2362 0.3406
C2 C 0.4154(3) 0.2103(4) 0.3106(3)
H2 H 0.4345 0.2105 0.3477
C3 C 0.4454(3) 0.1958(4) 0.2609(4)
H3 H 0.4862 0.1869 0.2630
C4 C 0.4163(3) 0.1941(5) 0.2072(3)
H4 H 0.4367 0.1845 0.1721
C5 C 0.3565(3) 0.2068(4) 0.2065(3)
C6 C 0.3204(4) 0.2055(4) 0.1551(4)
H5 H 0.3362 0.1950 0.1179
C7 C 0.23114(17) 0.21513(16) 0.10910(15)
C8 C 0.21245(19) 0.15995(13) 0.09069(17)
H6 H 0.2245 0.1258 0.1115
C9 C 0.17618(19) 0.15472(13) 0.04181(17)
H7 H 0.1634 0.1170 0.0292
C10 C 0.15859(17) 0.20467(16) 0.01134(14)
C11 C 0.17727(19) 0.25985(13) 0.02975(16)
H8 H 0.1653 0.2940 0.0089
C12 C 0.21355(19) 0.26508(13) 0.07863(17)
H9 H 0.2263 0.3028 0.0912
C13 C 0.0722(5) 0.2500(5) -0.0364(4)
H10 H 0.0417 0.2408 -0.0655
H11 H 0.0914 0.2871 -0.0470
H12 H 0.0542 0.2539 0.0025
C14 C 0.1183(2) 0.1573(3) -0.0776(3)
N1G N -0.1606(2) 0.2667(2) -0.2187(2)
N2G N 0.0353(2) 0.1176(2) -0.2007(2)
N3G N 0.0755(2) 0.1603(2) -0.1187(2)
N4G N -0.2551(3) 0.3269(2) -0.2231(3)
C1G C -0.3061(3) 0.3562(3) -0.2247(4)
H1G H -0.3406 0.3357 -0.2362
C2G C -0.3106(3) 0.4154(3) -0.2103(4)
H2G H -0.3477 0.4345 -0.2105
C3G C -0.2609(4) 0.4454(3) -0.1958(4)
H3G H -0.2630 0.4862 -0.1869
C4G C -0.2072(3) 0.4163(3) -0.1941(5)
H4G H -0.1721 0.4367 -0.1845
C5G C -0.2065(3) 0.3565(3) -0.2068(4)
C6G C -0.1551(4) 0.3204(4) -0.2055(4)
H5G H -0.1179 0.3362 -0.1950
C7G C -0.10910(15) 0.23114(17) -0.21513(16)
C8G C -0.09069(17) 0.21245(19) -0.15995(13)
H6G H -0.1115 0.2245 -0.1258
C9G C -0.04181(17) 0.17618(19) -0.15472(13)
H7G H -0.0292 0.1634 -0.1170
C10G C -0.01134(14) 0.15859(17) -0.20467(16)
C11G C -0.02975(16) 0.17727(19) -0.25985(13)
H8G H -0.0089 0.1653 -0.2940
C12G C -0.07863(17) 0.21355(19) -0.26508(13)
H9G H -0.0912 0.2263 -0.3028
C13G C 0.0364(4) 0.0722(5) -0.2500(5)
H10G H 0.0655 0.0417 -0.2408
H11G H 0.0470 0.0914 -0.2871
H12G H -0.0025 0.0542 -0.2539
C14G C 0.0776(3) 0.1183(2) -0.1573(3)
N1J N 0.2187(2) -0.1606(2) -0.2667(2)
N2J N 0.2007(2) 0.0353(2) -0.1176(2)
N3J N 0.1187(2) 0.0755(2) -0.1603(2)
N4J N 0.2231(3) -0.2551(3) -0.3269(2)
C1J C 0.2247(4) -0.3061(3) -0.3562(3)
H1J H 0.2362 -0.3406 -0.3357
C2J C 0.2103(4) -0.3106(3) -0.4154(3)
H2J H 0.2105 -0.3477 -0.4345
C3J C 0.1958(4) -0.2609(4) -0.4454(3)
H3J H 0.1869 -0.2630 -0.4862
C4J C 0.1941(5) -0.2072(3) -0.4163(3)
H4J H 0.1845 -0.1721 -0.4367
C5J C 0.2068(4) -0.2065(3) -0.3565(3)
C6J C 0.2055(4) -0.1551(4) -0.3204(4)
H5J H 0.1950 -0.1179 -0.3362
C7J C 0.21513(16) -0.10910(15) -0.23114(17)
C8J C 0.15995(13) -0.09069(17) -0.21245(19)
H6J H 0.1258 -0.1115 -0.2245
C9J C 0.15472(13) -0.04181(17) -0.17618(19)
H7J H 0.1170 -0.0292 -0.1634
C10J C 0.20467(16) -0.01134(14) -0.15859(17)
C11J C 0.25985(13) -0.02975(16) -0.17727(19)
H8J H 0.2940 -0.0089 -0.1653
C12J C 0.26508(13) -0.07863(17) -0.21355(19)
H9J H 0.3028 -0.0912 -0.2263
C13J C 0.2500(5) 0.0364(4) -0.0722(5)
H10J H 0.2408 0.0655 -0.0417
H11J H 0.2871 0.0470 -0.0914
H12J H 0.2539 -0.0025 -0.0542
C14J C 0.1573(3) 0.0776(3) -0.1183(2)
Fe1B Fe -0.24142(4) 0.24142(4) -0.24142(4)
N1B N -0.2667(2) 0.2187(2) -0.1606(2)
N2B N -0.1176(2) 0.2007(2) 0.0353(2)
N3B N -0.1603(2) 0.1187(2) 0.0755(2)
N4B N -0.3269(2) 0.2231(3) -0.2551(3)
C1B C -0.3562(3) 0.2247(4) -0.3061(3)
H1B H -0.3357 0.2362 -0.3406
C2B C -0.4154(3) 0.2103(4) -0.3106(3)
H2B H -0.4345 0.2105 -0.3477
C3B C -0.4454(3) 0.1958(4) -0.2609(4)
H3B H -0.4862 0.1869 -0.2630
C4B C -0.4163(3) 0.1941(5) -0.2072(3)
H4B H -0.4367 0.1845 -0.1721
C5B C -0.3565(3) 0.2068(4) -0.2065(3)
C6B C -0.3204(4) 0.2055(4) -0.1551(4)
H5B H -0.3362 0.1950 -0.1179
C7B C -0.23114(17) 0.21513(16) -0.10910(15)
C8B C -0.21245(19) 0.15995(13) -0.09069(17)
H6B H -0.2245 0.1258 -0.1115
C9B C -0.17618(19) 0.15472(13) -0.04181(17)
H7B H -0.1634 0.1170 -0.0292
C10B C -0.15859(17) 0.20467(16) -0.01134(14)
C11B C -0.17727(19) 0.25985(13) -0.02975(16)
H8B H -0.1653 0.2940 -0.0089
C12B C -0.21355(19) 0.26508(13) -0.07863(17)
H9B H -0.2263 0.3028 -0.0912
C13B C -0.0722(5) 0.2500(5) 0.0364(4)
H10B H -0.0417 0.2408 0.0655
H11B H -0.0914 0.2871 0.0470
H12B H -0.0542 0.2539 -0.0025
C14B C -0.1183(2) 0.1573(3) 0.0776(3)
N1D N 0.1606(2) 0.2667(2) 0.2187(2)
N2D N -0.0353(2) 0.1176(2) 0.2007(2)
N3D N -0.0755(2) 0.1603(2) 0.1187(2)
N4D N 0.2551(3) 0.3269(2) 0.2231(3)
C1D C 0.3061(3) 0.3562(3) 0.2247(4)
H1D H 0.3406 0.3357 0.2362
C2D C 0.3106(3) 0.4154(3) 0.2103(4)
H2D H 0.3477 0.4345 0.2105
C3D C 0.2609(4) 0.4454(3) 0.1958(4)
H3D H 0.2630 0.4862 0.1869
C4D C 0.2072(3) 0.4163(3) 0.1941(5)
H4D H 0.1721 0.4367 0.1845
C5D C 0.2065(3) 0.3565(3) 0.2068(4)
C6D C 0.1551(4) 0.3204(4) 0.2055(4)
H5D H 0.1179 0.3362 0.1950
C7D C 0.10910(15) 0.23114(17) 0.21513(16)
C8D C 0.09069(17) 0.21245(19) 0.15995(13)
H6D H 0.1115 0.2245 0.1258
C9D C 0.04181(17) 0.17618(19) 0.15472(13)
H7D H 0.0292 0.1634 0.1170
C10D C 0.01134(14) 0.15859(17) 0.20467(16)
C11D C 0.02975(16) 0.17727(19) 0.25985(13)
H8D H 0.0089 0.1653 0.2940
C12D C 0.07863(17) 0.21355(19) 0.26508(13)
H9D H 0.0912 0.2263 0.3028
C13D C -0.0364(4) 0.0722(5) 0.2500(5)
H10D H -0.0655 0.0417 0.2408
H11D H -0.0470 0.0914 0.2871
H12D H 0.0025 0.0542 0.2539
C14D C -0.0776(3) 0.1183(2) 0.1573(3)
N1K N -0.2187(2) -0.1606(2) 0.2667(2)
N2K N -0.2007(2) 0.0353(2) 0.1176(2)
N3K N -0.1187(2) 0.0755(2) 0.1603(2)
N4K N -0.2231(3) -0.2551(3) 0.3269(2)
C1K C -0.2247(4) -0.3061(3) 0.3562(3)
H1K H -0.2362 -0.3406 0.3357
C2K C -0.2103(4) -0.3106(3) 0.4154(3)
H2K H -0.2105 -0.3477 0.4345
C3K C -0.1958(4) -0.2609(4) 0.4454(3)
H3K H -0.1869 -0.2630 0.4862
C4K C -0.1941(5) -0.2072(3) 0.4163(3)
H4K H -0.1845 -0.1721 0.4367
C5K C -0.2068(4) -0.2065(3) 0.3565(3)
C6K C -0.2055(4) -0.1551(4) 0.3204(4)
H5K H -0.1950 -0.1179 0.3362
C7K C -0.21513(16) -0.10910(15) 0.23114(17)
C8K C -0.15995(13) -0.09069(17) 0.21245(19)
H6K H -0.1258 -0.1115 0.2245
C9K C -0.15472(13) -0.04181(17) 0.17618(19)
H7K H -0.1170 -0.0292 0.1634
C10K C -0.20467(16) -0.01134(14) 0.15859(17)
C11K C -0.25985(13) -0.02975(16) 0.17727(19)
H8K H -0.2940 -0.0089 0.1653
C12K C -0.26508(13) -0.07863(17) 0.21355(19)
H9K H -0.3028 -0.0912 0.2263
C13K C -0.2500(5) 0.0364(4) 0.0722(5)
H10K H -0.2408 0.0655 0.0417
H11K H -0.2871 0.0470 0.0914
H12K H -0.2539 -0.0025 0.0542
C14K C -0.1573(3) 0.0776(3) 0.1183(2)
Fe1C Fe 0.24142(4) -0.24142(4) -0.24142(4)
N1C N 0.2667(2) -0.2187(2) -0.1606(2)
N2C N 0.1176(2) -0.2007(2) 0.0353(2)
N3C N 0.1603(2) -0.1187(2) 0.0755(2)
N4C N 0.3269(2) -0.2231(3) -0.2551(3)
C1C C 0.3562(3) -0.2247(4) -0.3061(3)
H1C H 0.3357 -0.2362 -0.3406
C2C C 0.4154(3) -0.2103(4) -0.3106(3)
H2C H 0.4345 -0.2105 -0.3477
C3C C 0.4454(3) -0.1958(4) -0.2609(4)
H3C H 0.4862 -0.1869 -0.2630
C4C C 0.4163(3) -0.1941(5) -0.2072(3)
H4C H 0.4367 -0.1845 -0.1721
C5C C 0.3565(3) -0.2068(4) -0.2065(3)
C6C C 0.3204(4) -0.2055(4) -0.1551(4)
H5C H 0.3362 -0.1950 -0.1179
C7C C 0.23114(17) -0.21513(16) -0.10910(15)
C8C C 0.21245(19) -0.15995(13) -0.09069(17)
H6C H 0.2245 -0.1258 -0.1115
C9C C 0.17618(19) -0.15472(13) -0.04181(17)
H7C H 0.1634 -0.1170 -0.0292
C10C C 0.15859(17) -0.20467(16) -0.01134(14)
C11C C 0.17727(19) -0.25985(13) -0.02975(16)
H8C H 0.1653 -0.2940 -0.0089
C12C C 0.21355(19) -0.26508(13) -0.07863(17)
H9C H 0.2263 -0.3028 -0.0912
C13C C 0.0722(5) -0.2500(5) 0.0364(4)
H10C H 0.0417 -0.2408 0.0655
H11C H 0.0914 -0.2871 0.0470
H12C H 0.0542 -0.2539 -0.0025
C14C C 0.1183(2) -0.1573(3) 0.0776(3)
N1F N -0.1606(2) -0.2667(2) 0.2187(2)
N2F N 0.0353(2) -0.1176(2) 0.2007(2)
N3F N 0.0755(2) -0.1603(2) 0.1187(2)
N4F N -0.2551(3) -0.3269(2) 0.2231(3)
C1F C -0.3061(3) -0.3562(3) 0.2247(4)
H1F H -0.3406 -0.3357 0.2362
C2F C -0.3106(3) -0.4154(3) 0.2103(4)
H2F H -0.3477 -0.4345 0.2105
C3F C -0.2609(4) -0.4454(3) 0.1958(4)
H3F H -0.2630 -0.4862 0.1869
C4F C -0.2072(3) -0.4163(3) 0.1941(5)
H4F H -0.1721 -0.4367 0.1845
C5F C -0.2065(3) -0.3565(3) 0.2068(4)
C6F C -0.1551(4) -0.3204(4) 0.2055(4)
H5F H -0.1179 -0.3362 0.1950
C7F C -0.10910(15) -0.23114(17) 0.21513(16)
C8F C -0.09069(17) -0.21245(19) 0.15995(13)
H6F H -0.1115 -0.2245 0.1258
C9F C -0.04181(17) -0.17618(19) 0.15472(13)
H7F H -0.0292 -0.1634 0.1170
C10F C -0.01134(14) -0.15859(17) 0.20467(16)
C11F C -0.02975(16) -0.17727(19) 0.25985(13)
H8F H -0.0089 -0.1653 0.2940
C12F C -0.07863(17) -0.21355(19) 0.26508(13)
H9F H -0.0912 -0.2263 0.3028
C13F C 0.0364(4) -0.0722(5) 0.2500(5)
H10F H 0.0655 -0.0417 0.2408
H11F H 0.0470 -0.0914 0.2871
H12F H -0.0025 -0.0542 0.2539
C14F C 0.0776(3) -0.1183(2) 0.1573(3)
N1H N 0.2187(2) 0.1606(2) 0.2667(2)
N2H N 0.2007(2) -0.0353(2) 0.1176(2)
N3H N 0.1187(2) -0.0755(2) 0.1603(2)
N4H N 0.2231(3) 0.2551(3) 0.3269(2)
C1H C 0.2247(4) 0.3061(3) 0.3562(3)
H1H H 0.2362 0.3406 0.3357
C2H C 0.2103(4) 0.3106(3) 0.4154(3)
H2H H 0.2105 0.3477 0.4345
C3H C 0.1958(4) 0.2609(4) 0.4454(3)
H3H H 0.1869 0.2630 0.4862
C4H C 0.1941(5) 0.2072(3) 0.4163(3)
H4H H 0.1845 0.1721 0.4367
C5H C 0.2068(4) 0.2065(3) 0.3565(3)
C6H C 0.2055(4) 0.1551(4) 0.3204(4)
H5H H 0.1950 0.1179 0.3362
C7H C 0.21513(16) 0.10910(15) 0.23114(17)
C8H C 0.15995(13) 0.09069(17) 0.21245(19)
H6H H 0.1258 0.1115 0.2245
C9H C 0.15472(13) 0.04181(17) 0.17618(19)
H7H H 0.1170 0.0292 0.1634
C10H C 0.20467(16) 0.01134(14) 0.15859(17)
C11H C 0.25985(13) 0.02975(16) 0.17727(19)
H8H H 0.2940 0.0089 0.1653
C12H C 0.26508(13) 0.07863(17) 0.21355(19)
H9H H 0.3028 0.0912 0.2263
C13H C 0.2500(5) -0.0364(4) 0.0722(5)
H10H H 0.2408 -0.0655 0.0417
H11H H 0.2871 -0.0470 0.0914
H12H H 0.2539 0.0025 0.0542
C14H C 0.1573(3) -0.0776(3) 0.1183(2)
N1E N 0.1606(2) -0.2667(2) -0.2187(2)
N2E N -0.0353(2) -0.1176(2) -0.2007(2)
N3E N -0.0755(2) -0.1603(2) -0.1187(2)
N4E N 0.2551(3) -0.3269(2) -0.2231(3)
C1E C 0.3061(3) -0.3562(3) -0.2247(4)
H1E H 0.3406 -0.3357 -0.2362
C2E C 0.3106(3) -0.4154(3) -0.2103(4)
H2E H 0.3477 -0.4345 -0.2105
C3E C 0.2609(4) -0.4454(3) -0.1958(4)
H3E H 0.2630 -0.4862 -0.1869
C4E C 0.2072(3) -0.4163(3) -0.1941(5)
H4E H 0.1721 -0.4367 -0.1845
C5E C 0.2065(3) -0.3565(3) -0.2068(4)
C6E C 0.1551(4) -0.3204(4) -0.2055(4)
H5E H 0.1179 -0.3362 -0.1950
C7E C 0.10910(15) -0.23114(17) -0.21513(16)
C8E C 0.09069(17) -0.21245(19) -0.15995(13)
H6E H 0.1115 -0.2245 -0.1258
C9E C 0.04181(17) -0.17618(19) -0.15472(13)
H7E H 0.0292 -0.1634 -0.1170
C10E C 0.01134(14) -0.15859(17) -0.20467(16)
C11E C 0.02975(16) -0.17727(19) -0.25985(13)
H8E H 0.0089 -0.1653 -0.2940
C12E C 0.07863(17) -0.21355(19) -0.26508(13)
H9E H 0.0912 -0.2263 -0.3028
C13E C -0.0364(4) -0.0722(5) -0.2500(5)
H10E H -0.0655 -0.0417 -0.2408
H11E H -0.0470 -0.0914 -0.2871
H12E H 0.0025 -0.0542 -0.2539
C14E C -0.0776(3) -0.1183(2) -0.1573(3)
N1I N -0.2187(2) 0.1606(2) -0.2667(2)
N2I N -0.2007(2) -0.0353(2) -0.1176(2)
N3I N -0.1187(2) -0.0755(2) -0.1603(2)
N4I N -0.2231(3) 0.2551(3) -0.3269(2)
C1I C -0.2247(4) 0.3061(3) -0.3562(3)
H1I H -0.2362 0.3406 -0.3357
C2I C -0.2103(4) 0.3106(3) -0.4154(3)
H2I H -0.2105 0.3477 -0.4345
C3I C -0.1958(4) 0.2609(4) -0.4454(3)
H3I H -0.1869 0.2630 -0.4862
C4I C -0.1941(5) 0.2072(3) -0.4163(3)
H4I H -0.1845 0.1721 -0.4367
C5I C -0.2068(4) 0.2065(3) -0.3565(3)
C6I C -0.2055(4) 0.1551(4) -0.3204(4)
H5I H -0.1950 0.1179 -0.3362
C7I C -0.21513(16) 0.10910(15) -0.23114(17)
C8I C -0.15995(13) 0.09069(17) -0.21245(19)
H6I H -0.1258 0.1115 -0.2245
C9I C -0.15472(13) 0.04181(17) -0.17618(19)
H7I H -0.1170 0.0292 -0.1634
C10I C -0.20467(16) 0.01134(14) -0.15859(17)
C11I C -0.25985(13) 0.02975(16) -0.17727(19)
H8I H -0.2940 0.0089 -0.1653
C12I C -0.26508(13) 0.07863(17) -0.21355(19)
H9I H -0.3028 0.0912 -0.2263
C13I C -0.2500(5) -0.0364(4) -0.0722(5)
H10I H -0.2408 -0.0655 -0.0417
H11I H -0.2871 -0.0470 -0.0914
H12I H -0.2539 0.0025 -0.0542
C14I C -0.1573(3) -0.0776(3) -0.1183(2)
N1A N -0.2667(2) -0.2187(2) 0.1606(2)
N2A N -0.1176(2) -0.2007(2) -0.0353(2)
N3A N -0.1603(2) -0.1187(2) -0.0755(2)
N4A N -0.3269(2) -0.2231(3) 0.2551(3)
C1A C -0.3562(3) -0.2247(4) 0.3061(3)
H1A H -0.3357 -0.2362 0.3406
C2A C -0.4154(3) -0.2103(4) 0.3106(3)
H2A H -0.4345 -0.2105 0.3477
C3A C -0.4454(3) -0.1958(4) 0.2609(4)
H3A H -0.4862 -0.1869 0.2630
C4A C -0.4163(3) -0.1941(5) 0.2072(3)
H4A H -0.4367 -0.1845 0.1721
C5A C -0.3565(3) -0.2068(4) 0.2065(3)
C6A C -0.3204(4) -0.2055(4) 0.1551(4)
H5A H -0.3362 -0.1950 0.1179
C7A C -0.23114(17) -0.21513(16) 0.10910(15)
C8A C -0.21245(19) -0.15995(13) 0.09069(17)
H6A H -0.2245 -0.1258 0.1115
C9A C -0.17618(19) -0.15472(13) 0.04181(17)
H7A H -0.1634 -0.1170 0.0292
C10A C -0.15859(17) -0.20467(16) 0.01134(14)
C11A C -0.17727(19) -0.25985(13) 0.02975(16)
H8A H -0.1653 -0.2940 0.0089
C12A C -0.21355(19) -0.26508(13) 0.07863(17)
H9A H -0.2263 -0.3028 0.0912
C13A C -0.0722(5) -0.2500(5) -0.0364(4)
H10A H -0.0417 -0.2408 -0.0655
H11A H -0.0914 -0.2871 -0.0470
H12A H -0.0542 -0.2539 0.0025
C14A C -0.1183(2) -0.1573(3) -0.0776(3)
Fe1A Fe -0.24142(4) -0.24142(4) 0.24142(4)
loop_
_geom_bond_atom_site_label_1
_geom_bond_atom_site_label_2
_geom_bond_site_symmetry_1
_geom_bond_site_symmetry_2
Fe1 N1 1_555 1_555
N1 C6 1_555 1_555
N2 C10 1_555 1_555
N3 C14 1_555 1_555
N4 Fe1 1_555 1_555
C1 N4 1_555 1_555
H1 C1 1_555 1_555
C2 C1 1_555 1_555
H2 C2 1_555 1_555
C3 C2 1_555 1_555
H3 C3 1_555 1_555
C4 C3 1_555 1_555
H4 C4 1_555 1_555
C5 N4 1_555 1_555
C6 C5 1_555 1_555
H5 C6 1_555 1_555
C7 N1 1_555 1_555
C8 C7 1_555 1_555
H6 C8 1_555 1_555
C9 C8 1_555 1_555
H7 C9 1_555 1_555
C10 C9 1_555 1_555
C11 C10 1_555 1_555
H8 C11 1_555 1_555
C12 C7 1_555 1_555
H9 C12 1_555 1_555
C13 N2 1_555 1_555
H10 C13 1_555 1_555
H11 C13 1_555 1_555
H12 C13 1_555 1_555
C14 N2 1_555 1_555
N1G C6G 1_555 1_555
N2G C10G 1_555 1_555
N3G C14 1_555 1_555
N4G C1G 1_555 1_555
C1G H1G 1_555 1_555
C2G C1G 1_555 1_555
H2G C2G 1_555 1_555
C3G C2G 1_555 1_555
H3G C3G 1_555 1_555
C4G C3G 1_555 1_555
H4G C4G 1_555 1_555
C5G N4G 1_555 1_555
C6G C5G 1_555 1_555
H5G C6G 1_555 1_555
C7G N1G 1_555 1_555
C8G C7G 1_555 1_555
H6G C8G 1_555 1_555
C9G C8G 1_555 1_555
H7G C9G 1_555 1_555
C10G C9G 1_555 1_555
C11G C10G 1_555 1_555
H8G C11G 1_555 1_555
C12G C7G 1_555 1_555
H9G C12G 1_555 1_555
C13G N2G 1_555 1_555
H10G C13G 1_555 1_555
H11G C13G 1_555 1_555
H12G C13G 1_555 1_555
C14G N2G 1_555 1_555
N1J C6J 1_555 1_555
N2J C10J 1_555 1_555
N3J C14G 1_555 1_555
N4J C1J 1_555 1_555
C1J H1J 1_555 1_555
C2J C1J 1_555 1_555
H2J C2J 1_555 1_555
C3J C2J 1_555 1_555
H3J C3J 1_555 1_555
C4J C3J 1_555 1_555
H4J C4J 1_555 1_555
C5J N4J 1_555 1_555
C6J C5J 1_555 1_555
H5J C6J 1_555 1_555
C7J N1J 1_555 1_555
C8J C7J 1_555 1_555
H6J C8J 1_555 1_555
C9J C8J 1_555 1_555
H7J C9J 1_555 1_555
C10J C9J 1_555 1_555
C11J C10J 1_555 1_555
H8J C11J 1_555 1_555
C12J C7J 1_555 1_555
H9J C12J 1_555 1_555
C13J N2J 1_555 1_555
H10J C13J 1_555 1_555
H11J C13J 1_555 1_555
H12J C13J 1_555 1_555
C14J N3 1_555 1_555
Fe1B N1G 1_555 1_555
N1B Fe1B 1_555 1_555
N2B C10B 1_555 1_555
N3B C14B 1_555 1_555
N4B Fe1B 1_555 1_555
C1B N4B 1_555 1_555
H1B C1B 1_555 1_555
C2B C1B 1_555 1_555
H2B C2B 1_555 1_555
C3B C2B 1_555 1_555
H3B C3B 1_555 1_555
C4B C3B 1_555 1_555
H4B C4B 1_555 1_555
C5B N4B 1_555 1_555
C6B N1B 1_555 1_555
H5B C6B 1_555 1_555
C7B N1B 1_555 1_555
C8B C7B 1_555 1_555
H6B C8B 1_555 1_555
C9B C8B 1_555 1_555
H7B C9B 1_555 1_555
C10B C9B 1_555 1_555
C11B C10B 1_555 1_555
H8B C11B 1_555 1_555
C12B C7B 1_555 1_555
H9B C12B 1_555 1_555
C13B N2B 1_555 1_555
H10B C13B 1_555 1_555
H11B C13B 1_555 1_555
H12B C13B 1_555 1_555
C14B N2B 1_555 1_555
N1D Fe1 1_555 1_555
N2D C10D 1_555 1_555
N3D C14B 1_555 1_555
N4D Fe1 1_555 1_555
C1D N4D 1_555 1_555
H1D C1D 1_555 1_555
C2D C1D 1_555 1_555
H2D C2D 1_555 1_555
C3D C2D 1_555 1_555
H3D C3D 1_555 1_555
C4D C3D 1_555 1_555
H4D C4D 1_555 1_555
C5D N4D 1_555 1_555
C6D N1D 1_555 1_555
H5D C6D 1_555 1_555
C7D N1D 1_555 1_555
C8D C7D 1_555 1_555
H6D C8D 1_555 1_555
C9D C8D 1_555 1_555
H7D C9D 1_555 1_555
C10D C9D 1_555 1_555
C11D C10D 1_555 1_555
H8D C11D 1_555 1_555
C12D C7D 1_555 1_555
H9D C12D 1_555 1_555
C13D N2D 1_555 1_555
H10D C13D 1_555 1_555
H11D C13D 1_555 1_555
H12D C13D 1_555 1_555
C14D N2D 1_555 1_555
N1K C6K 1_555 1_555
N2K C10K 1_555 1_555
N3K C14D 1_555 1_555
N4K C1K 1_555 1_555
C1K H1K 1_555 1_555
C2K C1K 1_555 1_555
H2K C2K 1_555 1_555
C3K C2K 1_555 1_555
H3K C3K 1_555 1_555
C4K C3K 1_555 1_555
H4K C4K 1_555 1_555
C5K N4K 1_555 1_555
C6K C5K 1_555 1_555
H5K C6K 1_555 1_555
C7K N1K 1_555 1_555
C8K C7K 1_555 1_555
H6K C8K 1_555 1_555
C9K C8K 1_555 1_555
H7K C9K 1_555 1_555
C10K C9K 1_555 1_555
C11K C10K 1_555 1_555
H8K C11K 1_555 1_555
C12K C7K 1_555 1_555
H9K C12K 1_555 1_555
C13K N2K 1_555 1_555
H10K C13K 1_555 1_555
H11K C13K 1_555 1_555
H12K C13K 1_555 1_555
C14K N3B 1_555 1_555
Fe1C N1J 1_555 1_555
N1C Fe1C 1_555 1_555
N2C C10C 1_555 1_555
N3C C14C 1_555 1_555
N4C Fe1C 1_555 1_555
C1C N4C 1_555 1_555
H1C C1C 1_555 1_555
C2C C1C 1_555 1_555
H2C C2C 1_555 1_555
C3C C2C 1_555 1_555
H3C C3C 1_555 1_555
C4C C3C 1_555 1_555
H4C C4C 1_555 1_555
C5C N4C 1_555 1_555
C6C N1C 1_555 1_555
H5C C6C 1_555 1_555
C7C N1C 1_555 1_555
C8C C7C 1_555 1_555
H6C C8C 1_555 1_555
C9C C8C 1_555 1_555
H7C C9C 1_555 1_555
C10C C9C 1_555 1_555
C11C C10C 1_555 1_555
H8C C11C 1_555 1_555
C12C C7C 1_555 1_555
H9C C12C 1_555 1_555
C13C N2C 1_555 1_555
H10C C13C 1_555 1_555
H11C C13C 1_555 1_555
H12C C13C 1_555 1_555
C14C N2C 1_555 1_555
N1F C6F 1_555 1_555
N2F C10F 1_555 1_555
N3F C14C 1_555 1_555
N4F C1F 1_555 1_555
C1F H1F 1_555 1_555
C2F C1F 1_555 1_555
H2F C2F 1_555 1_555
C3F C2F 1_555 1_555
H3F C3F 1_555 1_555
C4F C3F 1_555 1_555
H4F C4F 1_555 1_555
C5F N4F 1_555 1_555
C6F C5F 1_555 1_555
H5F C6F 1_555 1_555
C7F N1F 1_555 1_555
C8F C7F 1_555 1_555
H6F C8F 1_555 1_555
C9F C8F 1_555 1_555
H7F C9F 1_555 1_555
C10F C9F 1_555 1_555
C11F C10F 1_555 1_555
H8F C11F 1_555 1_555
C12F C7F 1_555 1_555
H9F C12F 1_555 1_555
C13F N2F 1_555 1_555
H10F C13F 1_555 1_555
H11F C13F 1_555 1_555
H12F C13F 1_555 1_555
C14F N2F 1_555 1_555
N1H Fe1 1_555 1_555
N2H C10H 1_555 1_555
N3H C14F 1_555 1_555
N4H Fe1 1_555 1_555
C1H N4H 1_555 1_555
H1H C1H 1_555 1_555
C2H C1H 1_555 1_555
H2H C2H 1_555 1_555
C3H C2H 1_555 1_555
H3H C3H 1_555 1_555
C4H C3H 1_555 1_555
H4H C4H 1_555 1_555
C5H N4H 1_555 1_555
C6H N1H 1_555 1_555
H5H C6H 1_555 1_555
C7H N1H 1_555 1_555
C8H C7H 1_555 1_555
H6H C8H 1_555 1_555
C9H C8H 1_555 1_555
H7H C9H 1_555 1_555
C10H C9H 1_555 1_555
C11H C10H 1_555 1_555
H8H C11H 1_555 1_555
C12H C7H 1_555 1_555
H9H C12H 1_555 1_555
C13H N2H 1_555 1_555
H10H C13H 1_555 1_555
H11H C13H 1_555 1_555
H12H C13H 1_555 1_555
C14H N3C 1_555 1_555
N1E Fe1C 1_555 1_555
N2E C10E 1_555 1_555
N3E C14E 1_555 1_555
N4E Fe1C 1_555 1_555
C1E N4E 1_555 1_555
H1E C1E 1_555 1_555
C2E C1E 1_555 1_555
H2E C2E 1_555 1_555
C3E C2E 1_555 1_555
H3E C3E 1_555 1_555
C4E C3E 1_555 1_555
H4E C4E 1_555 1_555
C5E N4E 1_555 1_555
C6E N1E 1_555 1_555
H5E C6E 1_555 1_555
C7E N1E 1_555 1_555
C8E C7E 1_555 1_555
H6E C8E 1_555 1_555
C9E C8E 1_555 1_555
H7E C9E 1_555 1_555
C10E C9E 1_555 1_555
C11E C10E 1_555 1_555
H8E C11E 1_555 1_555
C12E C7E 1_555 1_555
H9E C12E 1_555 1_555
C13E N2E 1_555 1_555
H10E C13E 1_555 1_555
H11E C13E 1_555 1_555
H12E C13E 1_555 1_555
C14E N2E 1_555 1_555
N1I Fe1B 1_555 1_555
N2I C10I 1_555 1_555
N3I C14E 1_555 1_555
N4I Fe1B 1_555 1_555
C1I N4I 1_555 1_555
H1I C1I 1_555 1_555
C2I C1I 1_555 1_555
H2I C2I 1_555 1_555
C3I C2I 1_555 1_555
H3I C3I 1_555 1_555
C4I C3I 1_555 1_555
H4I C4I 1_555 1_555
C5I N4I 1_555 1_555
C6I N1I 1_555 1_555
H5I C6I 1_555 1_555
C7I N1I 1_555 1_555
C8I C7I 1_555 1_555
H6I C8I 1_555 1_555
C9I C8I 1_555 1_555
H7I C9I 1_555 1_555
C10I C9I 1_555 1_555
C11I C10I 1_555 1_555
H8I C11I 1_555 1_555
C12I C7I 1_555 1_555
H9I C12I 1_555 1_555
C13I N2I 1_555 1_555
H10I C13I 1_555 1_555
H11I C13I 1_555 1_555
H12I C13I 1_555 1_555
C14I N2I 1_555 1_555
N1A C6A 1_555 1_555
N2A C10A 1_555 1_555
N3A C14I 1_555 1_555
N4A C1A 1_555 1_555
C1A H1A 1_555 1_555
C2A C1A 1_555 1_555
H2A C2A 1_555 1_555
C3A C2A 1_555 1_555
H3A C3A 1_555 1_555
C4A C3A 1_555 1_555
H4A C4A 1_555 1_555
C5A N4A 1_555 1_555
C6A C5A 1_555 1_555
H5A C6A 1_555 1_555
C7A N1A 1_555 1_555
C8A C7A 1_555 1_555
H6A C8A 1_555 1_555
C9A C8A 1_555 1_555
H7A C9A 1_555 1_555
C10A C9A 1_555 1_555
C11A C10A 1_555 1_555
H8A C11A 1_555 1_555
C12A C7A 1_555 1_555
H9A C12A 1_555 1_555
C13A N2A 1_555 1_555
H10A C13A 1_555 1_555
H11A C13A 1_555 1_555
H12A C13A 1_555 1_555
C14A N3E 1_555 1_555
Fe1A N1K 1_555 1_555
C4 C5 1_555 1_555
C11 C12 1_555 1_555
N3G C14G 1_555 1_555
N4G Fe1B 1_555 1_555
C4G C5G 1_555 1_555
C11G C12G 1_555 1_555
N2J C14J 1_555 1_555
N3J C14J 1_555 1_555
N4J Fe1C 1_555 1_555
C4J C5J 1_555 1_555
C11J C12J 1_555 1_555
C4B C5B 1_555 1_555
C5B C6B 1_555 1_555
C11B C12B 1_555 1_555
N3D C14D 1_555 1_555
C4D C5D 1_555 1_555
C5D C6D 1_555 1_555
C11D C12D 1_555 1_555
N2K C14K 1_555 1_555
N3K C14K 1_555 1_555
N4K Fe1A 1_555 1_555
C4K C5K 1_555 1_555
C11K C12K 1_555 1_555
C4C C5C 1_555 1_555
C5C C6C 1_555 1_555
C11C C12C 1_555 1_555
N1F Fe1A 1_555 1_555
N3F C14F 1_555 1_555
N4F Fe1A 1_555 1_555
C4F C5F 1_555 1_555
C11F C12F 1_555 1_555
N2H C14H 1_555 1_555
N3H C14H 1_555 1_555
C4H C5H 1_555 1_555
C5H C6H 1_555 1_555
C11H C12H 1_555 1_555
C4E C5E 1_555 1_555
C5E C6E 1_555 1_555
C11E C12E 1_555 1_555
N3I C14I 1_555 1_555
C4I C5I 1_555 1_555
C5I C6I 1_555 1_555
C11I C12I 1_555 1_555
N1A Fe1A 1_555 1_555
N2A C14A 1_555 1_555
N3A C14A 1_555 1_555
N4A Fe1A 1_555 1_555
C4A C5A 1_555 1_555
C11A C12A 1_555 1_555

#END
