
#######################################################################
#
#                 Cambridge Crystallographic Data Centre
#                                CCDC 
#
#######################################################################
#
# If this CIF has been generated from an entry in the Cambridge 
# Structural Database, then it will include bibliographic, chemical, 
# crystal, experimental, refinement or atomic coordinate data resulting 
# from the CCDC's data processing and validation procedures.
#
#######################################################################

data_UVUYIV
_chemical_formula_moiety         
'C176 H248 N96 Pd20 40+,C28 H24 O4,58(H2 O1),40(N1 O3 1-)'
_chemical_name_systematic        
"octakis(\m-2'-(pyridin-3-yl)-5,4':6',5''-terpyrimidine)-icosakis(ethane-1,2-diamine)-icosa-palladium tetracontanitrate calix[4]arene hydrate"
_symmetry_cell_setting           monoclinic
_symmetry_space_group_name_H-M   'C 2/c'
_symmetry_Int_Tables_number      15
_space_group_name_Hall           '-C 2yn'
loop_
_symmetry_equiv_pos_site_id
_symmetry_equiv_pos_as_xyz
1 x,y,z
2 -x,y,1/2-z
3 1/2+x,1/2+y,z
4 1/2-x,1/2+y,1/2-z
5 -x,-y,-z
6 x,-y,1/2+z
7 1/2-x,1/2-y,-z
8 1/2+x,1/2-y,1/2+z
_cell_length_a                   48.457(8)
_cell_length_b                   27.761(4)
_cell_length_c                   37.941(6)
_cell_angle_alpha                90
_cell_angle_beta                 108.713(5)
_cell_angle_gamma                90
_cell_volume                     48340.8
_exptl_crystal_colour            yellow
_exptl_crystal_description       plate
_cell_formula_units_Z            4
_exptl_crystal_recrystallization_method water/methanol
loop_
_atom_site_label
_atom_site_type_symbol
_atom_site_fract_x
_atom_site_fract_y
_atom_site_fract_z
Pd1 Pd 0.06178(4) 0.04385(6) 0.36713(5)
Pd2 Pd 0.18745(4) 0.40254(6) 0.25313(5)
Pd3 Pd 0.09656(4) 0.45604(7) 0.31813(5)
Pd4 Pd 0.01767(4) 0.23430(6) 0.38377(5)
Pd5 Pd 0.08229(4) 0.01717(7) 0.52478(5)
Pd6 Pd 0.04629(4) 0.21202(7) 0.54541(5)
Pd7 Pd 0.17119(4) 0.57627(7) 0.43757(6)
Pd8 Pd 0.24870(5) -0.05310(7) 0.64620(5)
Pd9 Pd 0.13170(5) 0.36590(7) 0.66912(6)
Pd10 Pd 0.16563(5) 0.00719(7) 0.28606(6)
C1 C 0.0319(8) -0.0407(13) 0.3285(9)
H1 H 0.0384 -0.0675 0.3158
H2 H 0.0156 -0.0525 0.3364
C2 C 0.0214(9) 0.0005(9) 0.3014(10)
H3 H 0.0285 -0.0048 0.2799
H4 H -0.0001 -0.0003 0.2920
C3 C 0.1634(6) 0.4097(13) 0.1734(9)
H5 H 0.1516 0.3945 0.1498
H6 H 0.1593 0.4447 0.1719
C4 C 0.1955(6) 0.4007(13) 0.1802(7)
H7 H 0.1992 0.3660 0.1777
H8 H 0.2023 0.4188 0.1620
C5 C 0.0388(9) 0.4938(14) 0.2882(11)
H9 H 0.0280 0.4652 0.2924
H10 H 0.0258 0.5222 0.2852
C6 C 0.0465(8) 0.4869(12) 0.2537(10)
H11 H 0.0532 0.5174 0.2457
H12 H 0.0296 0.4745 0.2332
C7 C -0.0338(11) 0.2453(17) 0.3223(14)
H13 H -0.0508 0.2234 0.3162
H14 H -0.0347 0.2627 0.2992
C8 C -0.0368(8) 0.2796(12) 0.3486(9)
H15 H -0.0571 0.2782 0.3492
H16 H -0.0337 0.3122 0.3400
C9 C 0.0610(9) -0.0750(13) 0.5404(11)
H17 H 0.0481 -0.1026 0.5295
H18 H 0.0782 -0.0872 0.5604
C10 C 0.0458(10) -0.0412(15) 0.5551(13)
H19 H 0.0428 -0.0544 0.5779
H20 H 0.0264 -0.0346 0.5367
C11 C 0.0011(13) 0.2594(16) 0.5728(13)
H21 H -0.0202 0.2644 0.5632
H22 H 0.0101 0.2859 0.5901
C12 C 0.0085(7) 0.2106(13) 0.5920(13)
H23 H 0.0109 0.2149 0.6187
H24 H -0.0083 0.1888 0.5815
C13 C 0.1687(8) 0.6810(14) 0.4521(12)
H25 H 0.1781 0.7055 0.4712
H26 H 0.1617 0.6971 0.4275
C14 C 0.1450(10) 0.6584(16) 0.4605(14)
H27 H 0.1281 0.6807 0.4538
H28 H 0.1507 0.6526 0.4876
C15 C 0.2439(10) -0.1559(15) 0.6667(12)
H29 H 0.2635 -0.1659 0.6829
H30 H 0.2322 -0.1850 0.6568
C16 C 0.2280(10) -0.1224(15) 0.6893(13)
H31 H 0.2066 -0.1240 0.6773
H32 H 0.2327 -0.1343 0.7152
C17 C 0.0741(13) 0.385(2) 0.6762(17)
H33 H 0.0616 0.4110 0.6814
H34 H 0.0615 0.3613 0.6594
C18 C 0.0911(11) 0.3642(18) 0.7086(15)
H35 H 0.0783 0.3437 0.7181
H36 H 0.0986 0.3902 0.7271
C19 C 0.1209(11) -0.0367(16) 0.2304(14)
H37 H 0.1029 -0.0355 0.2373
H38 H 0.1149 -0.0433 0.2033
C20 C 0.1372(11) -0.0758(17) 0.2486(14)
H39 H 0.1487 -0.0884 0.2333
H40 H 0.1237 -0.1017 0.2507
C21 C 0.1592(7) 0.4426(11) 0.6384(10)
H41 H 0.1660 0.4534 0.6635
C22 C 0.1666(6) 0.4681(10) 0.6103(8)
H42 H 0.1783 0.4962 0.6173
C23 C 0.1582(6) 0.4551(10) 0.5745(9)
H43 H 0.1629 0.4728 0.5558
C24 C 0.1410(5) 0.4111(9) 0.5673(7)
C25 C 0.1338(5) 0.3883(9) 0.5938(7)
H44 H 0.1218 0.3604 0.5872
C26 C 0.1368(5) 0.5050(9) 0.3870(7)
H45 H 0.1397 0.5277 0.3697
C27 C 0.1448(5) 0.4819(7) 0.4476(6)
H46 H 0.1534 0.4889 0.4733
C28 C 0.1284(5) 0.4411(8) 0.4373(7)
C29 C 0.1145(6) 0.4323(9) 0.3981(7)
H47 H 0.1023 0.4049 0.3900
C30 C 0.0398(5) 0.2329(8) 0.4656(6)
H48 H 0.0258 0.2079 0.4618
C31 C 0.0746(5) 0.2772(7) 0.5058(6)
H49 H 0.0860 0.2862 0.5303
C32 C 0.0788(5) 0.3010(8) 0.4762(7)
C33 C 0.0631(5) 0.2864(8) 0.4426(7)
H50 H 0.0674 0.2998 0.4219
C34 C 0.1283(6) 0.3976(9) 0.5259(7)
C35 C 0.1239(6) 0.4095(9) 0.4645(7)
C36 C 0.1080(5) 0.3671(8) 0.4568(7)
H51 H 0.1018 0.3549 0.4322
C37 C 0.1009(5) 0.3427(8) 0.4835(7)
C38 C 0.1970(9) 0.0933(14) 0.2768(12)
H52 H 0.2067 0.0702 0.2665
C39 C 0.2096(12) 0.1438(17) 0.2837(14)
H53 H 0.2292 0.1519 0.2863
C40 C 0.1874(8) 0.1779(14) 0.2857(11)
H54 H 0.1880 0.2110 0.2796
C41 C 0.1644(6) 0.1576(9) 0.2975(7)
C42 C 0.1592(5) 0.1117(8) 0.2968(6)
H55 H 0.1442 0.1009 0.3060
C43 C 0.1453(5) 0.4164(8) 0.2936(6)
H56 H 0.1466 0.4488 0.2862
C44 C 0.1604(5) 0.3390(8) 0.2945(7)
H57 H 0.1724 0.3159 0.2881
C45 C 0.1401(5) 0.3224(8) 0.3146(6)
C46 C 0.1226(5) 0.3615(8) 0.3206(6)
H58 H 0.1079 0.3546 0.3314
C47 C 0.0483(5) 0.1455(7) 0.3768(6)
H59 H 0.0333 0.1307 0.3841
C48 C 0.0883(5) 0.1386(8) 0.3560(6)
H60 H 0.1003 0.1185 0.3469
C49 C 0.0920(5) 0.1850(8) 0.3560(7)
C50 C 0.0710(4) 0.2149(7) 0.3647(5)
H61 H 0.0721 0.2490 0.3631
C51 C 0.1492(6) 0.1964(10) 0.3129(8)
C52 C 0.1137(5) 0.2084(7) 0.3395(6)
C53 C 0.1170(5) 0.2570(8) 0.3375(7)
H62 H 0.1065 0.2789 0.3477
C54 C 0.1368(5) 0.2733(8) 0.3196(7)
C55 C 0.1934(8) 0.3399(14) 0.6969(10)
H63 H 0.1958 0.3723 0.7054
C56 C 0.2186(11) 0.3095(17) 0.7049(13)
H64 H 0.2371 0.3223 0.7188
C57 C 0.2172(9) 0.2673(14) 0.6943(11)
H65 H 0.2337 0.2466 0.7020
C58 C 0.1903(7) 0.2511(11) 0.6705(9)
C59 C 0.1654(6) 0.2775(9) 0.6617(7)
H66 H 0.1475 0.2656 0.6453
C60 C 0.0743(5) 0.1200(8) 0.5385(6)
H67 H 0.0551 0.1140 0.5226
C61 C 0.1068(5) 0.1744(8) 0.5756(7)
H68 H 0.1110 0.2057 0.5860
C62 C 0.1288(5) 0.1386(8) 0.5831(7)
C63 C 0.1205(6) 0.0960(9) 0.5665(7)
H69 H 0.1350 0.0716 0.5708
C64 C 0.2750(5) 0.0339(8) 0.6890(7)
H70 H 0.2899 0.0112 0.7004
C65 C 0.2305(7) 0.0467(10) 0.6471(8)
H71 H 0.2137 0.0347 0.6284
C66 C 0.2315(5) 0.0970(8) 0.6587(6)
C67 C 0.2557(5) 0.1102(8) 0.6860(7)
H72 H 0.2571 0.1423 0.6952
C68 C 0.2066(5) 0.1296(8) 0.6444(7)
C69 C 0.1810(5) 0.1171(8) 0.6176(7)
H73 H 0.1787 0.0864 0.6059
C70 C 0.1878(6) 0.2036(9) 0.6499(8)
C71 C 0.1594(5) 0.1492(8) 0.6084(7)
C72 C 0.2275(9) -0.0011(13) 0.3361(12)
H74 H 0.2325 -0.0097 0.3146
C73 C 0.2483(10) 0.0067(14) 0.3698(12)
H75 H 0.2678 0.0136 0.3707
C74 C 0.2415(7) 0.0047(11) 0.4039(10)
H76 H 0.2566 0.0021 0.4271
C75 C 0.2150(6) 0.0066(9) 0.4028(8)
C76 C 0.1928(5) 0.0035(8) 0.3670(6)
H77 H 0.1732 0.0007 0.3665
C77 C 0.0827(5) 0.0348(7) 0.4494(6)
H78 H 0.0628 0.0417 0.4461
C78 C 0.1206(5) 0.0298(7) 0.4242(6)
H79 H 0.1275 0.0314 0.4034
C79 C 0.1408(5) 0.0209(7) 0.4613(6)
C80 C 0.1286(5) 0.0214(8) 0.4886(7)
H80 H 0.1412 0.0192 0.5136
C81 C 0.2839(5) -0.0511(8) 0.5972(7)
H81 H 0.2980 -0.0632 0.6190
C82 C 0.2377(5) -0.0216(8) 0.5682(6)
H82 H 0.2193 -0.0124 0.5700
C83 C 0.2428(6) -0.0168(9) 0.5336(7)
C84 C 0.2702(5) -0.0307(8) 0.5330(7)
H83 H 0.2747 -0.0290 0.5104
C85 C 0.2080(6) 0.0068(9) 0.4365(7)
C86 C 0.2203(5) -0.0039(8) 0.5010(7)
C87 C 0.1910(6) 0.0063(9) 0.4980(8)
H84 H 0.1859 0.0075 0.5201
C88 C 0.1700(6) 0.0144(9) 0.4654(7)
N1 N 0.0563(4) -0.0263(6) 0.3617(5)
H85 H 0.0730 -0.0399 0.3604
H86 H 0.0529 -0.0382 0.3823
N2 N 0.0308(5) 0.0485(7) 0.3168(6)
H87 H 0.0152 0.0649 0.3190
H88 H 0.0379 0.0651 0.3009
N3 N 0.1560(5) 0.3876(8) 0.2061(6)
H89 H 0.1541 0.3552 0.2031
H90 H 0.1388 0.3998 0.2069
N4 N 0.2107(4) 0.4172(7) 0.2182(5)
H91 H 0.2138 0.4496 0.2179
H92 H 0.2284 0.4025 0.2268
N5 N 0.0653(5) 0.5012(8) 0.3214(7)
H93 H 0.0609 0.4955 0.3426
H94 H 0.0715 0.5322 0.3220
N6 N 0.0710(5) 0.4498(8) 0.2649(7)
H95 H 0.0822 0.4532 0.2498
H96 H 0.0632 0.4197 0.2613
N7 N -0.0087(4) 0.2171(7) 0.3325(6)
H97 H 0.0011 0.2214 0.3158
H98 H -0.0137 0.1855 0.3320
N8 N -0.0165(5) 0.2726(7) 0.3872(6)
H99 H -0.0256 0.2566 0.4012
H100 H -0.0104 0.3016 0.3980
N9 N 0.0707(5) -0.0495(7) 0.5101(6)
H101 H 0.0558 -0.0497 0.4881
H102 H 0.0859 -0.0657 0.5066
N10 N 0.0635(4) 0.0053(7) 0.5643(5)
H103 H 0.0775 0.0027 0.5870
H104 H 0.0517 0.0304 0.5651
N11 N 0.0135(4) 0.2569(7) 0.5417(6)
H105 H 0.0195 0.2871 0.5383
H106 H -0.0013 0.2491 0.5207
N12 N 0.0352(5) 0.1865(8) 0.5890(7)
H107 H 0.0320 0.1543 0.5863
H108 H 0.0502 0.1914 0.6104
N13 N 0.1917(6) 0.6385(9) 0.4518(9)
H109 H 0.2051 0.6359 0.4748
H110 H 0.2012 0.6461 0.4354
N14 N 0.1355(5) 0.6100(8) 0.4398(7)
H111 H 0.1232 0.6155 0.4164
H112 H 0.1260 0.5915 0.4521
N15 N 0.2463(6) -0.1232(9) 0.6343(7)
H113 H 0.2305 -0.1285 0.6139
H114 H 0.2624 -0.1319 0.6285
N16 N 0.2376(5) -0.0737(8) 0.6896(6)
H115 H 0.2533 -0.0693 0.7104
H116 H 0.2232 -0.0540 0.6914
N17 N 0.0949(6) 0.4055(9) 0.6602(8)
H117 H 0.0999 0.4355 0.6698
H118 H 0.0861 0.4088 0.6352
N18 N 0.1179(6) 0.3326(10) 0.7079(9)
H119 H 0.1123 0.3017 0.7011
H120 H 0.1320 0.3324 0.7305
N19 N 0.1331(6) 0.0079(9) 0.2362(8)
H121 H 0.1194 0.0303 0.2365
H122 H 0.1404 0.0155 0.2176
N20 N 0.1574(5) -0.0643(8) 0.2867(7)
H123 H 0.1742 -0.0816 0.2916
H124 H 0.1490 -0.0712 0.3043
N21 N 0.1421(4) 0.4020(6) 0.6287(5)
N22 N 0.1491(5) 0.5125(7) 0.4220(6)
N23 N 0.1190(5) 0.4632(7) 0.3731(6)
N24 N 0.0557(4) 0.2427(6) 0.5014(5)
N25 N 0.0416(4) 0.2541(6) 0.4357(5)
N26 N 0.1111(4) 0.3552(7) 0.5199(6)
N27 N 0.1347(5) 0.4230(8) 0.5004(6)
N28 N 0.1733(5) 0.0791(7) 0.2841(6)
N29 N 0.1623(4) 0.3847(7) 0.2854(5)
N30 N 0.1262(4) 0.4071(7) 0.3114(6)
N31 N 0.0679(4) 0.1180(6) 0.3683(5)
N32 N 0.0495(4) 0.1941(6) 0.3752(5)
N33 N 0.1293(4) 0.1748(7) 0.3280(6)
N34 N 0.1528(4) 0.2424(7) 0.3080(5)
N35 N 0.1674(5) 0.3245(8) 0.6785(6)
N36 N 0.0802(4) 0.1630(7) 0.5534(6)
N37 N 0.0933(4) 0.0847(6) 0.5442(5)
N38 N 0.2520(4) 0.0188(7) 0.6620(5)
N39 N 0.2786(4) 0.0790(7) 0.7011(5)
N40 N 0.1618(5) 0.1945(7) 0.6237(6)
N41 N 0.2105(4) 0.1730(7) 0.6616(6)
N42 N 0.1978(5) 0.0041(7) 0.3348(6)
N43 N 0.0917(4) 0.0357(6) 0.4195(5)
N44 N 0.1000(4) 0.0248(6) 0.4830(5)
N45 N 0.2909(4) -0.0469(7) 0.5647(6)
N46 N 0.2580(4) -0.0387(7) 0.5985(6)
N47 N 0.1786(5) 0.0150(7) 0.4324(6)
N48 N 0.2276(5) -0.0035(7) 0.4683(6)
Pd1F Pd 0.43822(4) 0.45615(6) 0.63287(5)
Pd2F Pd 0.31255(4) 0.09746(6) 0.74687(5)
Pd3F Pd 0.40344(4) 0.04396(7) 0.68187(5)
Pd4F Pd 0.48233(4) 0.26570(6) 0.61623(5)
Pd5F Pd 0.41771(4) 0.48283(7) 0.47522(5)
Pd6F Pd 0.45371(4) 0.28798(7) 0.45459(5)
Pd7F Pd 0.32881(4) -0.07627(7) 0.56243(6)
Pd8F Pd 0.25130(5) 0.55310(7) 0.35380(5)
Pd9F Pd 0.36830(5) 0.13410(7) 0.33088(6)
Pd10F Pd 0.33437(5) 0.49281(7) 0.71394(6)
C1F C 0.4681(8) 0.5407(13) 0.6715(9)
H1F H 0.4616 0.5675 0.6842
H2F H 0.4844 0.5525 0.6636
C2F C 0.4786(9) 0.4995(9) 0.6986(10)
H3F H 0.4715 0.5048 0.7201
H4F H 0.5001 0.5003 0.7080
C3F C 0.3366(6) 0.0903(13) 0.8266(9)
H5F H 0.3484 0.1055 0.8502
H6F H 0.3407 0.0553 0.8281
C4F C 0.3045(6) 0.0993(13) 0.8198(7)
H7F H 0.3008 0.1340 0.8223
H8F H 0.2977 0.0812 0.8380
C5F C 0.4612(9) 0.0062(14) 0.7118(11)
H9F H 0.4720 0.0348 0.7076
H10F H 0.4742 -0.0222 0.7148
C6F C 0.4535(8) 0.0131(12) 0.7463(10)
H11F H 0.4468 -0.0174 0.7543
H12F H 0.4704 0.0255 0.7668
C7F C 0.5338(11) 0.2547(17) 0.6777(14)
H13F H 0.5508 0.2766 0.6838
H14F H 0.5347 0.2373 0.7008
C8F C 0.5368(8) 0.2204(12) 0.6514(9)
H15F H 0.5571 0.2218 0.6508
H16F H 0.5337 0.1878 0.6600
C9F C 0.4390(9) 0.5750(13) 0.4596(11)
H17F H 0.4519 0.6026 0.4705
H18F H 0.4218 0.5872 0.4396
C10F C 0.4542(10) 0.5412(15) 0.4449(13)
H19F H 0.4572 0.5544 0.4221
H20F H 0.4736 0.5346 0.4633
C11F C 0.4989(13) 0.2406(16) 0.4272(13)
H21F H 0.5202 0.2356 0.4368
H22F H 0.4899 0.2141 0.4099
C12F C 0.4915(7) 0.2894(13) 0.4080(13)
H23F H 0.4891 0.2851 0.3813
H24F H 0.5083 0.3112 0.4185
C13F C 0.3313(8) -0.1810(14) 0.5479(12)
H25F H 0.3219 -0.2055 0.5288
H26F H 0.3383 -0.1971 0.5725
C14F C 0.3550(10) -0.1584(16) 0.5395(14)
H27F H 0.3719 -0.1807 0.5462
H28F H 0.3493 -0.1526 0.5124
C15F C 0.2561(10) 0.6559(15) 0.3333(12)
H29F H 0.2365 0.6659 0.3171
H30F H 0.2678 0.6850 0.3432
C16F C 0.2720(10) 0.6224(15) 0.3107(13)
H31F H 0.2934 0.6240 0.3227
H32F H 0.2673 0.6343 0.2848
C17F C 0.4259(13) 0.115(2) 0.3238(17)
H33F H 0.4384 0.0890 0.3186
H34F H 0.4385 0.1387 0.3406
C18F C 0.4089(11) 0.1358(18) 0.2914(15)
H35F H 0.4217 0.1563 0.2819
H36F H 0.4014 0.1098 0.2729
C19F C 0.3791(11) 0.5367(16) 0.7696(14)
H37F H 0.3971 0.5355 0.7627
H38F H 0.3851 0.5433 0.7967
C20F C 0.3628(11) 0.5758(17) 0.7514(14)
H39F H 0.3513 0.5884 0.7667
H40F H 0.3763 0.6017 0.7493
C21F C 0.3408(7) 0.0574(11) 0.3616(10)
H41F H 0.3340 0.0466 0.3365
C22F C 0.3334(6) 0.0319(10) 0.3897(8)
H42F H 0.3217 0.0038 0.3827
C23F C 0.3418(6) 0.0449(10) 0.4255(9)
H43F H 0.3371 0.0272 0.4442
C24F C 0.3590(5) 0.0889(9) 0.4327(7)
C25F C 0.3662(5) 0.1117(9) 0.4062(7)
H44F H 0.3782 0.1396 0.4128
C26F C 0.3632(5) -0.0050(9) 0.6130(7)
H45F H 0.3603 -0.0277 0.6303
C27F C 0.3552(5) 0.0181(7) 0.5524(6)
H46F H 0.3466 0.0111 0.5267
C28F C 0.3716(5) 0.0589(8) 0.5627(7)
C29F C 0.3855(6) 0.0677(9) 0.6019(7)
H47F H 0.3977 0.0951 0.6100
C30F C 0.4602(5) 0.2671(8) 0.5344(6)
H48F H 0.4742 0.2921 0.5382
C31F C 0.4254(5) 0.2228(7) 0.4942(6)
H49F H 0.4140 0.2138 0.4697
C32F C 0.4212(5) 0.1990(8) 0.5238(7)
C33F C 0.4369(5) 0.2136(8) 0.5574(7)
H50F H 0.4326 0.2002 0.5781
C34F C 0.3717(6) 0.1024(9) 0.4741(7)
C35F C 0.3761(6) 0.0905(9) 0.5355(7)
C36F C 0.3920(5) 0.1329(8) 0.5432(7)
H51F H 0.3982 0.1451 0.5678
C37F C 0.3991(5) 0.1573(8) 0.5165(7)
C38F C 0.3030(9) 0.4067(14) 0.7232(12)
H52F H 0.2933 0.4298 0.7335
C39F C 0.2904(12) 0.3562(17) 0.7163(14)
H53F H 0.2708 0.3481 0.7137
C40F C 0.3126(8) 0.3221(14) 0.7143(11)
H54F H 0.3120 0.2890 0.7204
C41F C 0.3356(6) 0.3424(9) 0.7025(7)
C42F C 0.3408(5) 0.3883(8) 0.7032(6)
H55F H 0.3558 0.3991 0.6940
C43F C 0.3547(5) 0.0836(8) 0.7064(6)
H56F H 0.3534 0.0512 0.7138
C44F C 0.3396(5) 0.1610(8) 0.7055(7)
H57F H 0.3276 0.1841 0.7119
C45F C 0.3599(5) 0.1776(8) 0.6854(6)
C46F C 0.3774(5) 0.1385(8) 0.6794(6)
H58F H 0.3921 0.1454 0.6686
C47F C 0.4517(5) 0.3545(7) 0.6232(6)
H59F H 0.4667 0.3693 0.6159
C48F C 0.4117(5) 0.3614(8) 0.6440(6)
H60F H 0.3997 0.3815 0.6531
C49F C 0.4080(5) 0.3150(8) 0.6440(7)
C50F C 0.4290(4) 0.2851(7) 0.6353(5)
H61F H 0.4279 0.2510 0.6369
C51F C 0.3508(6) 0.3036(10) 0.6871(8)
C52F C 0.3863(5) 0.2916(7) 0.6605(6)
C53F C 0.3830(5) 0.2430(8) 0.6625(7)
H62F H 0.3935 0.2211 0.6523
C54F C 0.3632(5) 0.2267(8) 0.6804(7)
C55F C 0.3066(8) 0.1601(14) 0.3031(10)
H63F H 0.3042 0.1277 0.2946
C56F C 0.2814(11) 0.1905(17) 0.2951(13)
H64F H 0.2629 0.1777 0.2812
C57F C 0.2828(9) 0.2327(14) 0.3057(11)
H65F H 0.2663 0.2534 0.2980
C58F C 0.3097(7) 0.2489(11) 0.3295(9)
C59F C 0.3346(6) 0.2225(9) 0.3383(7)
H66F H 0.3525 0.2344 0.3547
C60F C 0.4257(5) 0.3800(8) 0.4615(6)
H67F H 0.4449 0.3860 0.4774
C61F C 0.3932(5) 0.3256(8) 0.4244(7)
H68F H 0.3890 0.2943 0.4140
C62F C 0.3712(5) 0.3614(8) 0.4169(7)
C63F C 0.3795(6) 0.4040(9) 0.4335(7)
H69F H 0.3650 0.4284 0.4292
C64F C 0.2250(5) 0.4661(8) 0.3110(7)
H70F H 0.2101 0.4888 0.2996
C65F C 0.2695(7) 0.4533(10) 0.3529(8)
H71F H 0.2863 0.4653 0.3716
C66F C 0.2685(5) 0.4030(8) 0.3413(6)
C67F C 0.2443(5) 0.3898(8) 0.3140(7)
H72F H 0.2429 0.3577 0.3048
C68F C 0.2934(5) 0.3704(8) 0.3556(7)
C69F C 0.3190(5) 0.3829(8) 0.3824(7)
H73F H 0.3213 0.4136 0.3941
C70F C 0.3122(6) 0.2964(9) 0.3501(8)
C71F C 0.3406(5) 0.3508(8) 0.3916(7)
C72F C 0.2725(9) 0.5011(13) 0.6639(12)
H74F H 0.2675 0.5097 0.6854
C73F C 0.2517(10) 0.4933(14) 0.6302(12)
H75F H 0.2322 0.4864 0.6293
C74F C 0.2585(7) 0.4953(11) 0.5961(10)
H76F H 0.2434 0.4979 0.5729
C75F C 0.2850(6) 0.4934(9) 0.5972(8)
C76F C 0.3072(5) 0.4965(8) 0.6330(6)
H77F H 0.3268 0.4993 0.6335
C77F C 0.4173(5) 0.4652(7) 0.5506(6)
H78F H 0.4372 0.4583 0.5539
C78F C 0.3794(5) 0.4702(7) 0.5758(6)
H79F H 0.3725 0.4686 0.5966
C79F C 0.3592(5) 0.4791(7) 0.5387(6)
C80F C 0.3714(5) 0.4786(8) 0.5114(7)
H80F H 0.3588 0.4808 0.4864
C81F C 0.2161(5) 0.5511(8) 0.4028(7)
H81F H 0.2020 0.5632 0.3810
C82F C 0.2623(5) 0.5216(8) 0.4318(6)
H82F H 0.2807 0.5124 0.4300
C83F C 0.2572(6) 0.5168(9) 0.4664(7)
C84F C 0.2298(5) 0.5307(8) 0.4670(7)
H83F H 0.2253 0.5290 0.4896
C85F C 0.2920(6) 0.4932(9) 0.5635(7)
C86F C 0.2797(5) 0.5039(8) 0.4990(7)
C87F C 0.3090(6) 0.4937(9) 0.5020(8)
H84F H 0.3141 0.4925 0.4799
C88F C 0.3300(6) 0.4856(9) 0.5346(7)
N1F N 0.4437(4) 0.5263(6) 0.6383(5)
H85F H 0.4270 0.5399 0.6396
H86F H 0.4471 0.5382 0.6177
N2F N 0.4692(5) 0.4515(7) 0.6832(6)
H87F H 0.4848 0.4351 0.6810
H88F H 0.4621 0.4349 0.6991
N3F N 0.3440(5) 0.1124(8) 0.7939(6)
H89F H 0.3459 0.1448 0.7969
H90F H 0.3612 0.1002 0.7931
N4F N 0.2893(4) 0.0828(7) 0.7818(5)
H91F H 0.2862 0.0504 0.7821
H92F H 0.2716 0.0975 0.7732
N5F N 0.4347(5) -0.0012(8) 0.6786(7)
H93F H 0.4391 0.0045 0.6574
H94F H 0.4285 -0.0322 0.6780
N6F N 0.4290(5) 0.0502(8) 0.7351(7)
H95F H 0.4178 0.0468 0.7502
H96F H 0.4368 0.0803 0.7387
N7F N 0.5087(4) 0.2829(7) 0.6675(6)
H97F H 0.4989 0.2786 0.6842
H98F H 0.5137 0.3145 0.6680
N8F N 0.5165(5) 0.2274(7) 0.6128(6)
H99F H 0.5256 0.2434 0.5988
H100F H 0.5104 0.1984 0.6020
N9F N 0.4293(5) 0.5495(7) 0.4899(6)
H101F H 0.4442 0.5497 0.5119
H102F H 0.4141 0.5657 0.4934
N10F N 0.4365(4) 0.4947(7) 0.4357(5)
H103F H 0.4225 0.4973 0.4130
H104F H 0.4483 0.4696 0.4349
N11F N 0.4865(4) 0.2431(7) 0.4583(6)
H105F H 0.4805 0.2129 0.4617
H106F H 0.5013 0.2509 0.4793
N12F N 0.4648(5) 0.3135(8) 0.4110(7)
H107F H 0.4680 0.3457 0.4137
H108F H 0.4498 0.3086 0.3896
N13F N 0.3083(6) -0.1385(9) 0.5482(9)
H109F H 0.2949 -0.1359 0.5252
H110F H 0.2988 -0.1461 0.5646
N14F N 0.3645(5) -0.1100(8) 0.5602(7)
H111F H 0.3768 -0.1155 0.5836
H112F H 0.3740 -0.0915 0.5479
N15F N 0.2537(6) 0.6232(9) 0.3657(7)
H113F H 0.2695 0.6285 0.3861
H114F H 0.2376 0.6319 0.3715
N16F N 0.2624(5) 0.5737(8) 0.3104(6)
H115F H 0.2467 0.5693 0.2896
H116F H 0.2768 0.5540 0.3086
N17F N 0.4051(6) 0.0945(9) 0.3398(8)
H117F H 0.4001 0.0645 0.3302
H118F H 0.4139 0.0912 0.3648
N18F N 0.3821(6) 0.1674(10) 0.2921(9)
H119F H 0.3877 0.1983 0.2989
H120F H 0.3680 0.1676 0.2695
N19F N 0.3669(6) 0.4921(9) 0.7638(8)
H121F H 0.3806 0.4697 0.7635
H122F H 0.3596 0.4845 0.7824
N20F N 0.3426(5) 0.5643(8) 0.7133(7)
H123F H 0.3258 0.5816 0.7084
H124F H 0.3510 0.5712 0.6957
N21F N 0.3579(4) 0.0980(6) 0.3713(5)
N22F N 0.3509(5) -0.0125(7) 0.5780(6)
N23F N 0.3810(5) 0.0368(7) 0.6269(6)
N24F N 0.4443(4) 0.2573(6) 0.4986(5)
N25F N 0.4584(4) 0.2459(6) 0.5643(5)
N26F N 0.3889(4) 0.1448(7) 0.4801(6)
N27F N 0.3653(5) 0.0770(8) 0.4996(6)
N28F N 0.3267(5) 0.4209(7) 0.7159(6)
N29F N 0.3377(4) 0.1153(7) 0.7146(5)
N30F N 0.3738(4) 0.0929(7) 0.6886(6)
N31F N 0.4321(4) 0.3820(6) 0.6317(5)
N32F N 0.4505(4) 0.3059(6) 0.6248(5)
N33F N 0.3707(4) 0.3252(7) 0.6720(6)
N34F N 0.3472(4) 0.2576(7) 0.6920(5)
N35F N 0.3326(5) 0.1755(8) 0.3215(6)
N36F N 0.4198(4) 0.3370(7) 0.4466(6)
N37F N 0.4067(4) 0.4153(6) 0.4558(5)
N38F N 0.2480(4) 0.4812(7) 0.3380(5)
N39F N 0.2214(4) 0.4210(7) 0.2989(5)
N40F N 0.3382(5) 0.3055(7) 0.3763(6)
N41F N 0.2895(4) 0.3270(7) 0.3384(6)
N42F N 0.3022(5) 0.4959(7) 0.6652(6)
N43F N 0.4083(4) 0.4643(6) 0.5805(5)
N44F N 0.4000(4) 0.4752(6) 0.5170(5)
N45F N 0.2091(4) 0.5469(7) 0.4353(6)
N46F N 0.2420(4) 0.5387(7) 0.4015(6)
N47F N 0.3214(5) 0.4850(7) 0.5676(6)
N48F N 0.2724(5) 0.5035(7) 0.5317(6)
O1 O 0.3447(7) 0.2918(11) 0.5761(9)
H125 H 0.3463 0.2766 0.5578
O2 O 0.3226(7) 0.3666(11) 0.5256(9)
H126 H 0.3240 0.3505 0.5075
O3 O 0.3269(7) 0.3149(12) 0.4666(9)
H127 H 0.3369 0.2897 0.4686
O4 O 0.3497(7) 0.2388(11) 0.5160(10)
H128 H 0.3503 0.2488 0.4953
C89 C 0.3233(9) 0.2710(15) 0.5877(12)
C90 C 0.3029(11) 0.3090(18) 0.5950(14)
C91 C 0.2841(11) 0.2796(17) 0.6102(13)
C92 C 0.2830(10) 0.2355(15) 0.6198(13)
C93 C 0.3011(10) 0.2070(16) 0.6053(13)
H129 H 0.2983 0.1731 0.6043
C94 C 0.3232(10) 0.2258(16) 0.5923(13)
C95 C 0.3015(10) 0.3552(14) 0.5911(12)
H130 H 0.3217 0.3674 0.5979
H131 H 0.2929 0.3682 0.6096
C96 C 0.3408(11) 0.1903(19) 0.5784(14)
H132 H 0.3446 0.1617 0.5949
H133 H 0.3599 0.2051 0.5808
C97 C 0.2848(10) 0.3765(15) 0.5540(13)
C98 C 0.2547(12) 0.3780(19) 0.5498(16)
H134 H 0.2471 0.3689 0.5690
C99 C 0.2349(12) 0.3959(18) 0.5106(15)
C100 C 0.2445(9) 0.3957(13) 0.4835(12)
H135 H 0.2320 0.4034 0.4593
C101 C 0.2711(11) 0.3852(17) 0.4883(15)
C102 C 0.2944(11) 0.3769(17) 0.5204(14)
C103 C 0.2791(13) 0.3833(19) 0.4470(15)
H136 H 0.2645 0.4028 0.4282
H137 H 0.2984 0.3986 0.4511
C104 C 0.2797(10) 0.3373(16) 0.4326(13)
C105 C 0.2995(12) 0.3073(19) 0.4417(15)
C106 C 0.2980(12) 0.250(2) 0.4271(16)
C107 C 0.2503(11) 0.3244(18) 0.4054(14)
H138 H 0.2353 0.3480 0.3990
C108 C 0.2444(12) 0.2768(18) 0.3890(15)
C109 C 0.2661(12) 0.243(2) 0.4012(15)
C110 C 0.3151(9) 0.2160(14) 0.4414(12)
H139 H 0.3347 0.2303 0.4467
H140 H 0.3129 0.1935 0.4204
C111 C 0.3175(10) 0.1890(15) 0.4688(12)
C112 C 0.3296(11) 0.1979(17) 0.5102(14)
C113 C 0.3259(13) 0.172(2) 0.5350(17)
C114 C 0.3092(9) 0.1337(14) 0.5307(12)
H141 H 0.3061 0.1166 0.5508
C115 C 0.2974(12) 0.1516(18) 0.4655(16)
H142 H 0.2833 0.1470 0.4417
C116 C 0.2963(11) 0.1210(18) 0.4932(14)
O1F O 0.1553(7) 0.2082(11) 0.4239(9)
H125F H 0.1537 0.2234 0.4422
O2F O 0.1774(7) 0.1334(11) 0.4744(9)
H126F H 0.1760 0.1495 0.4925
O3F O 0.1731(7) 0.1851(12) 0.5334(9)
H127F H 0.1631 0.2103 0.5314
O4F O 0.1503(7) 0.2612(11) 0.4840(10)
H128F H 0.1497 0.2512 0.5047
C89F C 0.1767(9) 0.2290(15) 0.4123(12)
C90F C 0.1971(11) 0.1910(18) 0.4050(14)
C91F C 0.2159(11) 0.2204(17) 0.3898(13)
C92F C 0.2170(10) 0.2645(15) 0.3802(13)
C93F C 0.1989(10) 0.2930(16) 0.3947(13)
H129F H 0.2017 0.3269 0.3957
C94F C 0.1768(10) 0.2742(16) 0.4077(13)
C95F C 0.1985(10) 0.1448(14) 0.4089(12)
H130F H 0.1783 0.1326 0.4021
H131F H 0.2071 0.1318 0.3904
C96F C 0.1592(11) 0.3097(19) 0.4216(14)
H132F H 0.1554 0.3383 0.4051
H133F H 0.1401 0.2949 0.4192
C97F C 0.2152(10) 0.1235(15) 0.4460(13)
C98F C 0.2453(12) 0.1220(19) 0.4502(16)
H134F H 0.2529 0.1311 0.4310
C99F C 0.2651(12) 0.1041(18) 0.4894(15)
C100F C 0.2555(9) 0.1043(13) 0.5165(12)
H135F H 0.2680 0.0966 0.5407
C101F C 0.2289(11) 0.1148(17) 0.5117(15)
C102F C 0.2056(11) 0.1231(17) 0.4796(14)
C103F C 0.2209(13) 0.1167(19) 0.5530(15)
H136F H 0.2355 0.0972 0.5718
H137F H 0.2016 0.1014 0.5489
C104F C 0.2203(10) 0.1627(16) 0.5674(13)
C105F C 0.2005(12) 0.1927(19) 0.5583(15)
C106F C 0.2020(12) 0.250(2) 0.5729(16)
C107F C 0.2497(11) 0.1756(18) 0.5946(14)
H138F H 0.2647 0.1520 0.6010
C108F C 0.2556(12) 0.2232(18) 0.6110(15)
C109F C 0.2339(12) 0.257(2) 0.5988(15)
C110F C 0.1849(9) 0.2840(14) 0.5586(12)
H139F H 0.1653 0.2697 0.5533
H140F H 0.1871 0.3065 0.5796
C111F C 0.1825(10) 0.3110(15) 0.5312(12)
C112F C 0.1704(11) 0.3021(17) 0.4898(14)
C113F C 0.1741(13) 0.328(2) 0.4650(17)
C114F C 0.1908(9) 0.3663(14) 0.4693(12)
H141F H 0.1939 0.3834 0.4492
C115F C 0.2026(12) 0.3484(18) 0.5345(16)
H142F H 0.2167 0.3530 0.5583
C116F C 0.2037(11) 0.3790(18) 0.5068(14)
N49 N 0.0543(5) 0.3480(8) 0.3503(6)
O5 O 0.0787(4) 0.3333(6) 0.3689(5)
O6 O 0.0322(4) 0.3256(7) 0.3490(5)
O7 O 0.0509(5) 0.3869(8) 0.3304(6)
N50 N 0.1925(5) 0.4419(9) 0.3759(7)
O8 O 0.1823(4) 0.4746(6) 0.3551(5)
O9 O 0.1882(7) 0.4366(12) 0.4054(10)
O10 O 0.2101(9) 0.4126(13) 0.3706(11)
N51 N 0.0969(5) 0.1552(8) 0.4654(6)
O11 O 0.0727(4) 0.1398(6) 0.4598(5)
O12 O 0.1162(9) 0.1324(14) 0.4632(11)
O13 O 0.1067(9) 0.1972(14) 0.4808(11)
N52 N 0.2080(9) 0.2738(14) 0.2441(12)
O14 O 0.2187(5) 0.2359(8) 0.2325(7)
O15 O 0.1798(9) 0.2797(13) 0.2242(12)
O16 O 0.2149(7) 0.2882(10) 0.2707(9)
N53 N 0.0989(11) 0.1267(17) 0.6474(14)
O17 O 0.0850(8) 0.0953(13) 0.6286(10)
O18 O 0.1256(9) 0.1241(12) 0.6642(11)
O19 O 0.0877(10) 0.1581(17) 0.6638(13)
N54 N 0.2368(7) -0.1319(11) 0.5134(9)
O20 O 0.2445(8) -0.1360(13) 0.5483(9)
O21 O 0.2116(7) -0.1177(15) 0.4958(10)
O22 O 0.2543(11) -0.142(2) 0.4962(13)
N55 N 0.2073(8) 0.9668(12) 0.2210(10)
O23 O 0.2304(10) 0.9706(14) 0.2476(12)
O24 O 0.1959(8) 0.9994(12) 0.1992(10)
O25 O 0.1946(8) 0.9255(13) 0.2155(10)
N56 N 0.0121(5) 0.1067(9) 0.4552(7)
O26 O 0.0257(4) 0.0668(7) 0.4668(6)
O27 O 0.0101(5) 0.1338(7) 0.4801(6)
O28 O 0.0034(5) 0.1181(8) 0.4233(7)
N57 N 0.1643(5) 0.9769(8) 0.5886(7)
O29 O 0.1378(5) 0.9646(7) 0.5749(6)
O30 O 0.1739(4) 1.0124(6) 0.5763(5)
O31 O 0.1819(6) 0.9549(9) 0.6171(8)
N58 N 1.0025(8) 0.0814(11) 0.5505(9)
O32 O 1.0256(7) 0.0859(9) 0.5643(8)
O33 O 0.9839(8) 0.1166(12) 0.5468(10)
O34 O 0.9904(8) 0.0418(12) 0.5428(10)
N59 N 0.0865(7) 0.2903(11) 0.6072(9)
O35 O 0.1023(5) 0.2843(8) 0.5956(7)
O36 O 0.0820(10) 0.2652(15) 0.6358(13)
O37 O 0.0677(10) 0.3186(16) 0.6024(13)
N60 N 0.1594(7) 0.5660(11) 0.3131(9)
O38 O 0.1566(5) 0.5884(8) 0.3406(7)
O39 O 0.1391(7) 0.5461(11) 0.2926(9)
O40 O 0.1841(6) 0.5681(9) 0.3084(8)
N61 N 0.1904(8) 0.5602(14) 0.5422(11)
O41 O 0.1918(6) 0.5626(9) 0.5745(7)
O42 O 0.1922(7) 0.5264(11) 0.5243(9)
O43 O 0.2023(15) 0.586(2) 0.533(2)
N62 N 0.1062(6) 0.0227(11) 0.3190(8)
O44 O 0.1249(5) 0.0415(7) 0.3429(6)
O45 O 0.0907(8) 0.0493(12) 0.2905(10)
O46 O 0.1046(8) -0.0230(13) 0.3149(10)
N63 N 0.2255(6) 0.4575(9) 0.7151(8)
O47 O 0.2188(4) 0.4856(7) 0.6915(6)
O48 O 0.2158(7) 0.4623(11) 0.7452(10)
O49 O 0.2408(6) 0.4228(9) 0.7192(7)
N64 N 0.0408(8) 0.1414(13) 0.2667(10)
O50 O 0.0293(7) 0.1517(11) 0.2908(9)
O51 O 0.0497(8) 0.1811(12) 0.2539(10)
O52 O 0.0380(7) 0.1056(12) 0.2520(10)
N65 N 0.1004(11) 0.5180(18) 0.6995(15)
O53 O 0.1053(6) 0.5634(11) 0.7124(8)
O54 O 0.0927(7) 0.4823(12) 0.7120(9)
O55 O 0.1044(12) 0.5189(19) 0.6655(17)
N66 N 0.1187(9) -0.0812(14) 0.4270(11)
O56 O 0.0963(10) -0.0738(18) 0.4362(13)
O57 O 0.1191(10) -0.0699(17) 0.3953(12)
O58 O 0.1408(11) -0.101(3) 0.4497(16)
N67 N 0.0847(10) 0.5254(16) 0.4434(13)
O59 O 0.100(2) 0.550(3) 0.4709(17)
O60 O 0.0744(12) 0.4857(17) 0.4488(14)
O61 O 0.0798(12) 0.5407(18) 0.4107(14)
O62 O 0.0422(11) 0.4023(17) 0.4205(14)
O63 O 0.2028(6) 0.6606(10) 0.3807(8)
O64 O 0.9812(6) 0.1112(9) 0.3231(7)
O65 O 0.0034(6) 0.0215(9) 0.3908(8)
O66 O 0.1454(7) 0.9643(10) 0.1446(9)
O67 O 0.0982(8) 0.9766(12) 0.6401(10)
O68 O 0.1603(12) 0.4889(19) 0.7401(15)
O69 O -0.0087(7) 0.3863(11) 0.2826(9)
O70 O 0.1084(9) 0.3113(14) 0.2149(12)
O71 O 0.2448(11) 0.6243(17) 0.6116(14)
O72 O 0.9062(16) 0.134(2) 0.272(2)
O73 O 0.1741(18) 0.320(3) 0.777(2)
O74 O 0.1247(11) 0.2183(17) 0.7092(14)
O75 O 0.0449(14) -0.175(2) 0.3439(18)
O76 O 0.152(2) -0.079(3) 0.672(3)
O77 O 0.1296(8) 0.8666(12) 0.5855(10)
O78 O 0.1659(9) 0.1167(13) 0.5237(11)
O79 O 0.2666(12) 0.2630(19) 0.2099(16)
O80 O -0.0193(9) 0.3717(13) 0.3890(11)
O81 O 0.1225(9) 0.2564(14) 0.4297(12)
O82 O -0.0496(11) -0.0130(17) 0.3409(14)
O83 O -0.058(3) 0.338(6) 0.444(4)
O84 O 0.8803(13) 0.216(2) 0.3014(16)
O85 O -0.0665(13) 0.360(2) 0.5464(17)
O86 O 0.2351(12) 0.7121(18) 0.6381(15)
O87 O -0.0767(15) 0.222(2) 0.5846(19)
O88 O 0.0655(14) 0.418(2) 0.5734(17)
O89 O 0.0853(14) -0.137(2) 0.3027(19)
O90 O -0.0402(18) 0.212(3) 0.481(2)
O91 O 0.0915(9) 0.5879(15) 0.3104(12)
O92 O 0.0057(11) 0.5845(17) 0.1945(14)
O93 O 0.0010(13) 0.335(2) 0.6490(17)
O94 O 0.0548(10) -0.0055(15) 0.2304(13)
O95 O 0.0000 -0.130(2) 0.2500
O96 O 0.2134(10) -0.1128(16) 0.3183(13)
O97 O 0.9542(15) 0.270(2) 0.215(2)
loop_
_geom_bond_atom_site_label_1
_geom_bond_atom_site_label_2
_geom_bond_site_symmetry_1
_geom_bond_site_symmetry_2
Pd1 N1 1_555 1_555
Pd2 N3 1_555 1_555
Pd3 N5 1_555 1_555
Pd4 N7 1_555 1_555
Pd5 N9 1_555 1_555
Pd6 N11 1_555 1_555
Pd7 N13 1_555 1_555
Pd8 N15 1_555 1_555
Pd9 N17 1_555 1_555
Pd10 N19 1_555 1_555
C1 H1 1_555 1_555
H2 C1 1_555 1_555
C2 C1 1_555 1_555
H3 C2 1_555 1_555
H4 C2 1_555 1_555
C3 H5 1_555 1_555
H6 C3 1_555 1_555
C4 C3 1_555 1_555
H7 C4 1_555 1_555
H8 C4 1_555 1_555
C5 H9 1_555 1_555
H10 C5 1_555 1_555
C6 C5 1_555 1_555
H11 C6 1_555 1_555
H12 C6 1_555 1_555
C7 H13 1_555 1_555
H14 C7 1_555 1_555
C8 C7 1_555 1_555
H15 C8 1_555 1_555
H16 C8 1_555 1_555
C9 H17 1_555 1_555
H18 C9 1_555 1_555
C10 C9 1_555 1_555
H19 C10 1_555 1_555
H20 C10 1_555 1_555
C11 H21 1_555 1_555
H22 C11 1_555 1_555
C12 C11 1_555 1_555
H23 C12 1_555 1_555
H24 C12 1_555 1_555
C13 H25 1_555 1_555
H26 C13 1_555 1_555
C14 C13 1_555 1_555
H27 C14 1_555 1_555
H28 C14 1_555 1_555
C15 H29 1_555 1_555
H30 C15 1_555 1_555
C16 C15 1_555 1_555
H31 C16 1_555 1_555
H32 C16 1_555 1_555
C17 H33 1_555 1_555
H34 C17 1_555 1_555
C18 C17 1_555 1_555
H35 C18 1_555 1_555
H36 C18 1_555 1_555
C19 H37 1_555 1_555
H38 C19 1_555 1_555
C20 C19 1_555 1_555
H39 C20 1_555 1_555
H40 C20 1_555 1_555
C21 H41 1_555 1_555
C22 C21 1_555 1_555
H42 C22 1_555 1_555
C23 C22 1_555 1_555
H43 C23 1_555 1_555
C24 C23 1_555 1_555
C25 C24 1_555 1_555
H44 C25 1_555 1_555
C26 H45 1_555 1_555
C27 H46 1_555 1_555
C28 C27 1_555 1_555
C29 C28 1_555 1_555
H47 C29 1_555 1_555
C30 H48 1_555 1_555
C31 H49 1_555 1_555
C32 C31 1_555 1_555
C33 C32 1_555 1_555
H50 C33 1_555 1_555
C34 C24 1_555 1_555
C35 C28 1_555 1_555
C36 C35 1_555 1_555
H51 C36 1_555 1_555
C37 C32 1_555 1_555
C38 H52 1_555 1_555
C39 C38 1_555 1_555
H53 C39 1_555 1_555
C40 C39 1_555 1_555
H54 C40 1_555 1_555
C41 C40 1_555 1_555
C42 C41 1_555 1_555
H55 C42 1_555 1_555
C43 H56 1_555 1_555
C44 H57 1_555 1_555
C45 C44 1_555 1_555
C46 C45 1_555 1_555
H58 C46 1_555 1_555
C47 H59 1_555 1_555
C48 H60 1_555 1_555
C49 C48 1_555 1_555
C50 C49 1_555 1_555
H61 C50 1_555 1_555
C51 C41 1_555 1_555
C52 C49 1_555 1_555
C53 C52 1_555 1_555
H62 C53 1_555 1_555
C54 C45 1_555 1_555
C55 H63 1_555 1_555
C56 C55 1_555 1_555
H64 C56 1_555 1_555
C57 C56 1_555 1_555
H65 C57 1_555 1_555
C58 C57 1_555 1_555
C59 C58 1_555 1_555
H66 C59 1_555 1_555
C60 H67 1_555 1_555
C61 H68 1_555 1_555
C62 C61 1_555 1_555
C63 C62 1_555 1_555
H69 C63 1_555 1_555
C64 H70 1_555 1_555
C65 H71 1_555 1_555
C66 C65 1_555 1_555
C67 C66 1_555 1_555
H72 C67 1_555 1_555
C68 C66 1_555 1_555
C69 C68 1_555 1_555
H73 C69 1_555 1_555
C70 C58 1_555 1_555
C71 C62 1_555 1_555
C72 H74 1_555 1_555
C73 C72 1_555 1_555
H75 C73 1_555 1_555
C74 C73 1_555 1_555
H76 C74 1_555 1_555
C75 C74 1_555 1_555
C76 C75 1_555 1_555
H77 C76 1_555 1_555
C77 H78 1_555 1_555
C78 H79 1_555 1_555
C79 C78 1_555 1_555
C80 C79 1_555 1_555
H80 C80 1_555 1_555
C81 H81 1_555 1_555
C82 H82 1_555 1_555
C83 C82 1_555 1_555
C84 C83 1_555 1_555
H83 C84 1_555 1_555
C85 C75 1_555 1_555
C86 C83 1_555 1_555
C87 C86 1_555 1_555
H84 C87 1_555 1_555
C88 C79 1_555 1_555
N1 C1 1_555 1_555
H85 N1 1_555 1_555
H86 N1 1_555 1_555
N2 Pd1 1_555 1_555
H87 N2 1_555 1_555
H88 N2 1_555 1_555
N3 C3 1_555 1_555
H89 N3 1_555 1_555
H90 N3 1_555 1_555
N4 Pd2 1_555 1_555
H91 N4 1_555 1_555
H92 N4 1_555 1_555
N5 C5 1_555 1_555
H93 N5 1_555 1_555
H94 N5 1_555 1_555
N6 Pd3 1_555 1_555
H95 N6 1_555 1_555
H96 N6 1_555 1_555
N7 C7 1_555 1_555
H97 N7 1_555 1_555
H98 N7 1_555 1_555
N8 Pd4 1_555 1_555
H99 N8 1_555 1_555
H100 N8 1_555 1_555
N9 C9 1_555 1_555
H101 N9 1_555 1_555
H102 N9 1_555 1_555
N10 Pd5 1_555 1_555
H103 N10 1_555 1_555
H104 N10 1_555 1_555
N11 C11 1_555 1_555
H105 N11 1_555 1_555
H106 N11 1_555 1_555
N12 Pd6 1_555 1_555
H107 N12 1_555 1_555
H108 N12 1_555 1_555
N13 C13 1_555 1_555
H109 N13 1_555 1_555
H110 N13 1_555 1_555
N14 Pd7 1_555 1_555
H111 N14 1_555 1_555
H112 N14 1_555 1_555
N15 C15 1_555 1_555
H113 N15 1_555 1_555
H114 N15 1_555 1_555
N16 Pd8 1_555 1_555
H115 N16 1_555 1_555
H116 N16 1_555 1_555
N17 C17 1_555 1_555
H117 N17 1_555 1_555
H118 N17 1_555 1_555
N18 Pd9 1_555 1_555
H119 N18 1_555 1_555
H120 N18 1_555 1_555
N19 C19 1_555 1_555
H121 N19 1_555 1_555
H122 N19 1_555 1_555
N20 Pd10 1_555 1_555
H123 N20 1_555 1_555
H124 N20 1_555 1_555
N21 Pd9 1_555 1_555
N22 Pd7 1_555 1_555
N23 Pd3 1_555 1_555
N24 Pd6 1_555 1_555
N25 Pd4 1_555 1_555
N26 C34 1_555 1_555
N27 C34 1_555 1_555
N28 Pd10 1_555 1_555
N29 Pd2 1_555 1_555
N30 Pd3 1_555 1_555
N31 Pd1 1_555 1_555
N32 Pd4 1_555 1_555
N33 C51 1_555 1_555
N34 C51 1_555 1_555
N35 Pd9 1_555 1_555
N36 Pd6 1_555 1_555
N37 Pd5 1_555 1_555
N38 Pd8 1_555 1_555
N39 C64 1_555 1_555
N40 C70 1_555 1_555
N41 C68 1_555 1_555
N42 Pd10 1_555 1_555
N43 Pd1 1_555 1_555
N44 Pd5 1_555 1_555
N45 C81 1_555 1_555
N46 Pd8 1_555 1_555
N47 C85 1_555 1_555
N48 C85 1_555 1_555
O1 H125 1_555 1_555
O2 H126 1_555 1_555
O3 H127 1_555 1_555
O4 H128 1_555 1_555
C89 O1 1_555 1_555
C90 C89 1_555 1_555
C91 C90 1_555 1_555
C92 C91 1_555 1_555
C93 C92 1_555 1_555
H129 C93 1_555 1_555
C94 C89 1_555 1_555
C95 C90 1_555 1_555
H130 C95 1_555 1_555
H131 C95 1_555 1_555
C96 C94 1_555 1_555
H132 C96 1_555 1_555
H133 C96 1_555 1_555
C97 C95 1_555 1_555
C98 C97 1_555 1_555
H134 C98 1_555 1_555
C99 C98 1_555 1_555
C100 C99 1_555 1_555
H135 C100 1_555 1_555
C101 C100 1_555 1_555
C102 O2 1_555 1_555
C103 C101 1_555 1_555
H136 C103 1_555 1_555
H137 C103 1_555 1_555
C104 C103 1_555 1_555
C105 O3 1_555 1_555
C106 C105 1_555 1_555
C107 C104 1_555 1_555
H138 C107 1_555 1_555
C108 C107 1_555 1_555
C109 C106 1_555 1_555
C110 C106 1_555 1_555
H139 C110 1_555 1_555
H140 C110 1_555 1_555
C111 C110 1_555 1_555
C112 O4 1_555 1_555
C113 C96 1_555 1_555
C114 C113 1_555 1_555
H141 C114 1_555 1_555
C115 C111 1_555 1_555
H142 C115 1_555 1_555
C116 C114 1_555 1_555
N49 O5 1_555 1_555
O6 N49 1_555 1_555
O7 N49 1_555 1_555
N50 O8 1_555 1_555
O9 N50 1_555 1_555
O10 N50 1_555 1_555
N51 O11 1_555 1_555
O12 N51 1_555 1_555
O13 N51 1_555 1_555
N52 O14 1_555 1_555
O15 N52 1_555 1_555
O16 N52 1_555 1_555
N53 O17 1_555 1_555
O18 N53 1_555 1_555
O19 N53 1_555 1_555
N54 O20 1_555 1_555
O21 N54 1_555 1_555
O22 N54 1_555 1_555
N55 O23 1_555 1_555
O24 N55 1_555 1_555
O25 N55 1_555 1_555
N56 O26 1_555 1_555
O27 N56 1_555 1_555
O28 N56 1_555 1_555
N57 O29 1_555 1_555
O30 N57 1_555 1_555
O31 N57 1_555 1_555
N58 O32 1_555 1_555
O33 N58 1_555 1_555
O34 N58 1_555 1_555
N59 O35 1_555 1_555
O36 N59 1_555 1_555
O37 N59 1_555 1_555
N60 O38 1_555 1_555
O39 N60 1_555 1_555
O40 N60 1_555 1_555
N61 O41 1_555 1_555
O42 N61 1_555 1_555
O43 N61 1_555 1_555
N62 O44 1_555 1_555
O45 N62 1_555 1_555
O46 N62 1_555 1_555
N63 O47 1_555 1_555
O48 N63 1_555 1_555
O49 N63 1_555 1_555
N64 O50 1_555 1_555
O51 N64 1_555 1_555
O52 N64 1_555 1_555
N65 O53 1_555 1_555
O54 N65 1_555 1_555
O55 N65 1_555 1_555
N66 O56 1_555 1_555
O57 N66 1_555 1_555
O58 N66 1_555 1_555
N67 O59 1_555 1_555
O60 N67 1_555 1_555
O61 N67 1_555 1_555
Pd1F N1F 1_555 1_555
Pd2F N39 1_555 1_555
Pd3F N5F 1_555 1_555
Pd4F N7F 1_555 1_555
Pd5F N9F 1_555 1_555
Pd6F N11F 1_555 1_555
Pd7F N45 1_555 1_555
Pd8F N15F 1_555 1_555
Pd9F N17F 1_555 1_555
Pd10F N19F 1_555 1_555
C1F H1F 1_555 1_555
H2F C1F 1_555 1_555
C2F C1F 1_555 1_555
H3F C2F 1_555 1_555
H4F C2F 1_555 1_555
C3F H5F 1_555 1_555
H6F C3F 1_555 1_555
C4F C3F 1_555 1_555
H7F C4F 1_555 1_555
H8F C4F 1_555 1_555
C5F H9F 1_555 1_555
H10F C5F 1_555 1_555
C6F C5F 1_555 1_555
H11F C6F 1_555 1_555
H12F C6F 1_555 1_555
C7F H13F 1_555 1_555
H14F C7F 1_555 1_555
C8F C7F 1_555 1_555
H15F C8F 1_555 1_555
H16F C8F 1_555 1_555
C9F H17F 1_555 1_555
H18F C9F 1_555 1_555
C10F C9F 1_555 1_555
H19F C10F 1_555 1_555
H20F C10F 1_555 1_555
C11F H21F 1_555 1_555
H22F C11F 1_555 1_555
C12F C11F 1_555 1_555
H23F C12F 1_555 1_555
H24F C12F 1_555 1_555
C13F H25F 1_555 1_555
H26F C13F 1_555 1_555
C14F C13F 1_555 1_555
H27F C14F 1_555 1_555
H28F C14F 1_555 1_555
C15F H29F 1_555 1_555
H30F C15F 1_555 1_555
C16F C15F 1_555 1_555
H31F C16F 1_555 1_555
H32F C16F 1_555 1_555
C17F H33F 1_555 1_555
H34F C17F 1_555 1_555
C18F C17F 1_555 1_555
H35F C18F 1_555 1_555
H36F C18F 1_555 1_555
C19F H37F 1_555 1_555
H38F C19F 1_555 1_555
C20F C19F 1_555 1_555
H39F C20F 1_555 1_555
H40F C20F 1_555 1_555
C21F H41F 1_555 1_555
C22F C21F 1_555 1_555
H42F C22F 1_555 1_555
C23F C22F 1_555 1_555
H43F C23F 1_555 1_555
C24F C23F 1_555 1_555
C25F C24F 1_555 1_555
H44F C25F 1_555 1_555
C26F H45F 1_555 1_555
C27F H46F 1_555 1_555
C28F C27F 1_555 1_555
C29F C28F 1_555 1_555
H47F C29F 1_555 1_555
C30F H48F 1_555 1_555
C31F H49F 1_555 1_555
C32F C31F 1_555 1_555
C33F C32F 1_555 1_555
H50F C33F 1_555 1_555
C34F C24F 1_555 1_555
C35F C28F 1_555 1_555
C36F C35F 1_555 1_555
H51F C36F 1_555 1_555
C37F C32F 1_555 1_555
C38F H52F 1_555 1_555
C39F C38F 1_555 1_555
H53F C39F 1_555 1_555
C40F C39F 1_555 1_555
H54F C40F 1_555 1_555
C41F C40F 1_555 1_555
C42F C41F 1_555 1_555
H55F C42F 1_555 1_555
C43F H56F 1_555 1_555
C44F H57F 1_555 1_555
C45F C44F 1_555 1_555
C46F C45F 1_555 1_555
H58F C46F 1_555 1_555
C47F H59F 1_555 1_555
C48F H60F 1_555 1_555
C49F C48F 1_555 1_555
C50F C49F 1_555 1_555
H61F C50F 1_555 1_555
C51F C41F 1_555 1_555
C52F C49F 1_555 1_555
C53F C52F 1_555 1_555
H62F C53F 1_555 1_555
C54F C45F 1_555 1_555
C55F H63F 1_555 1_555
C56F C55F 1_555 1_555
H64F C56F 1_555 1_555
C57F C56F 1_555 1_555
H65F C57F 1_555 1_555
C58F C57F 1_555 1_555
C59F C58F 1_555 1_555
H66F C59F 1_555 1_555
C60F H67F 1_555 1_555
C61F H68F 1_555 1_555
C62F C61F 1_555 1_555
C63F C62F 1_555 1_555
H69F C63F 1_555 1_555
C64F H70F 1_555 1_555
C65F H71F 1_555 1_555
C66F C65F 1_555 1_555
C67F C66F 1_555 1_555
H72F C67F 1_555 1_555
C68F C66F 1_555 1_555
C69F C68F 1_555 1_555
H73F C69F 1_555 1_555
C70F C58F 1_555 1_555
C71F C62F 1_555 1_555
C72F H74F 1_555 1_555
C73F C72F 1_555 1_555
H75F C73F 1_555 1_555
C74F C73F 1_555 1_555
H76F C74F 1_555 1_555
C75F C74F 1_555 1_555
C76F C75F 1_555 1_555
H77F C76F 1_555 1_555
C77F H78F 1_555 1_555
C78F H79F 1_555 1_555
C79F C78F 1_555 1_555
C80F C79F 1_555 1_555
H80F C80F 1_555 1_555
C81F H81F 1_555 1_555
C82F H82F 1_555 1_555
C83F C82F 1_555 1_555
C84F C83F 1_555 1_555
H83F C84F 1_555 1_555
C85F C75F 1_555 1_555
C86F C83F 1_555 1_555
C87F C86F 1_555 1_555
H84F C87F 1_555 1_555
C88F C79F 1_555 1_555
N1F C1F 1_555 1_555
H85F N1F 1_555 1_555
H86F N1F 1_555 1_555
N2F Pd1F 1_555 1_555
H87F N2F 1_555 1_555
H88F N2F 1_555 1_555
N3F Pd2F 1_555 1_555
H89F N3F 1_555 1_555
H90F N3F 1_555 1_555
N4F Pd2F 1_555 1_555
H91F N4F 1_555 1_555
H92F N4F 1_555 1_555
N5F C5F 1_555 1_555
H93F N5F 1_555 1_555
H94F N5F 1_555 1_555
N6F Pd3F 1_555 1_555
H95F N6F 1_555 1_555
H96F N6F 1_555 1_555
N7F C7F 1_555 1_555
H97F N7F 1_555 1_555
H98F N7F 1_555 1_555
N8F Pd4F 1_555 1_555
H99F N8F 1_555 1_555
H100F N8F 1_555 1_555
N9F C9F 1_555 1_555
H101F N9F 1_555 1_555
H102F N9F 1_555 1_555
N10F Pd5F 1_555 1_555
H103F N10F 1_555 1_555
H104F N10F 1_555 1_555
N11F C11F 1_555 1_555
H105F N11F 1_555 1_555
H106F N11F 1_555 1_555
N12F Pd6F 1_555 1_555
H107F N12F 1_555 1_555
H108F N12F 1_555 1_555
N13F Pd7F 1_555 1_555
H109F N13F 1_555 1_555
H110F N13F 1_555 1_555
N14F Pd7F 1_555 1_555
H111F N14F 1_555 1_555
H112F N14F 1_555 1_555
N15F C15F 1_555 1_555
H113F N15F 1_555 1_555
H114F N15F 1_555 1_555
N16F Pd8F 1_555 1_555
H115F N16F 1_555 1_555
H116F N16F 1_555 1_555
N17F C17F 1_555 1_555
H117F N17F 1_555 1_555
H118F N17F 1_555 1_555
N18F Pd9F 1_555 1_555
H119F N18F 1_555 1_555
H120F N18F 1_555 1_555
N19F C19F 1_555 1_555
H121F N19F 1_555 1_555
H122F N19F 1_555 1_555
N20F Pd10F 1_555 1_555
H123F N20F 1_555 1_555
H124F N20F 1_555 1_555
N21F Pd9F 1_555 1_555
N22F Pd7F 1_555 1_555
N23F Pd3F 1_555 1_555
N24F Pd6F 1_555 1_555
N25F Pd4F 1_555 1_555
N26F C34F 1_555 1_555
N27F C34F 1_555 1_555
N28F Pd10F 1_555 1_555
N29F Pd2F 1_555 1_555
N30F Pd3F 1_555 1_555
N31F Pd1F 1_555 1_555
N32F Pd4F 1_555 1_555
N33F C51F 1_555 1_555
N34F C51F 1_555 1_555
N35F Pd9F 1_555 1_555
N36F Pd6F 1_555 1_555
N37F Pd5F 1_555 1_555
N38F Pd8F 1_555 1_555
N39F Pd2 1_555 1_555
N40F C70F 1_555 1_555
N41F C68F 1_555 1_555
N42F Pd10F 1_555 1_555
N43F Pd1F 1_555 1_555
N44F Pd5F 1_555 1_555
N45F Pd7 1_555 1_555
N46F Pd8F 1_555 1_555
N47F C85F 1_555 1_555
N48F C85F 1_555 1_555
O1F H125F 1_555 1_555
O2F H126F 1_555 1_555
O3F H127F 1_555 1_555
O4F H128F 1_555 1_555
C89F O1F 1_555 1_555
C90F C89F 1_555 1_555
C91F C90F 1_555 1_555
C92F C91F 1_555 1_555
C93F C92F 1_555 1_555
H129F C93F 1_555 1_555
C94F C89F 1_555 1_555
C95F C90F 1_555 1_555
H130F C95F 1_555 1_555
H131F C95F 1_555 1_555
C96F C94F 1_555 1_555
H132F C96F 1_555 1_555
H133F C96F 1_555 1_555
C97F C95F 1_555 1_555
C98F C97F 1_555 1_555
H134F C98F 1_555 1_555
C99F C98F 1_555 1_555
C100F C99F 1_555 1_555
H135F C100F 1_555 1_555
C101F C100F 1_555 1_555
C102F O2F 1_555 1_555
C103F C101F 1_555 1_555
H136F C103F 1_555 1_555
H137F C103F 1_555 1_555
C104F C103F 1_555 1_555
C105F O3F 1_555 1_555
C106F C105F 1_555 1_555
C107F C104F 1_555 1_555
H138F C107F 1_555 1_555
C108F C107F 1_555 1_555
C109F C106F 1_555 1_555
C110F C106F 1_555 1_555
H139F C110F 1_555 1_555
H140F C110F 1_555 1_555
C111F C110F 1_555 1_555
C112F O4F 1_555 1_555
C113F C96F 1_555 1_555
C114F C113F 1_555 1_555
H141F C114F 1_555 1_555
C115F C111F 1_555 1_555
H142F C115F 1_555 1_555
C116F C114F 1_555 1_555
C2 N2 1_555 1_555
C4 N4 1_555 1_555
C6 N6 1_555 1_555
C8 N8 1_555 1_555
C10 N10 1_555 1_555
C12 N12 1_555 1_555
C14 N14 1_555 1_555
C16 N16 1_555 1_555
C18 N18 1_555 1_555
C20 N20 1_555 1_555
C21 N21 1_555 1_555
C25 N21 1_555 1_555
C26 N22 1_555 1_555
C26 N23 1_555 1_555
C27 N22 1_555 1_555
C29 N23 1_555 1_555
C30 N24 1_555 1_555
C30 N25 1_555 1_555
C31 N24 1_555 1_555
C33 N25 1_555 1_555
C35 N27 1_555 1_555
C36 C37 1_555 1_555
C37 N26 1_555 1_555
C38 N28 1_555 1_555
C42 N28 1_555 1_555
C43 N29 1_555 1_555
C43 N30 1_555 1_555
C44 N29 1_555 1_555
C46 N30 1_555 1_555
C47 N31 1_555 1_555
C47 N32 1_555 1_555
C48 N31 1_555 1_555
C50 N32 1_555 1_555
C52 N33 1_555 1_555
C53 C54 1_555 1_555
C54 N34 1_555 1_555
C55 N35 1_555 1_555
C59 N35 1_555 1_555
C60 N36 1_555 1_555
C60 N37 1_555 1_555
C61 N36 1_555 1_555
C63 N37 1_555 1_555
C64 N38 1_555 1_555
C65 N38 1_555 1_555
C67 N39 1_555 1_555
C69 C71 1_555 1_555
C70 N41 1_555 1_555
C71 N40 1_555 1_555
C72 N42 1_555 1_555
C76 N42 1_555 1_555
C77 N43 1_555 1_555
C77 N44 1_555 1_555
C78 N43 1_555 1_555
C80 N44 1_555 1_555
C81 N46 1_555 1_555
C82 N46 1_555 1_555
C84 N45 1_555 1_555
C86 N48 1_555 1_555
C87 C88 1_555 1_555
C88 N47 1_555 1_555
C93 C94 1_555 1_555
C97 C102 1_555 1_555
C101 C102 1_555 1_555
C104 C105 1_555 1_555
C108 C109 1_555 1_555
C111 C112 1_555 1_555
C112 C113 1_555 1_555
C115 C116 1_555 1_555
C2F N2F 1_555 1_555
C3F N3F 1_555 1_555
C4F N4F 1_555 1_555
C6F N6F 1_555 1_555
C8F N8F 1_555 1_555
C10F N10F 1_555 1_555
C12F N12F 1_555 1_555
C13F N13F 1_555 1_555
C14F N14F 1_555 1_555
C16F N16F 1_555 1_555
C18F N18F 1_555 1_555
C20F N20F 1_555 1_555
C21F N21F 1_555 1_555
C25F N21F 1_555 1_555
C26F N22F 1_555 1_555
C26F N23F 1_555 1_555
C27F N22F 1_555 1_555
C29F N23F 1_555 1_555
C30F N24F 1_555 1_555
C30F N25F 1_555 1_555
C31F N24F 1_555 1_555
C33F N25F 1_555 1_555
C35F N27F 1_555 1_555
C36F C37F 1_555 1_555
C37F N26F 1_555 1_555
C38F N28F 1_555 1_555
C42F N28F 1_555 1_555
C43F N29F 1_555 1_555
C43F N30F 1_555 1_555
C44F N29F 1_555 1_555
C46F N30F 1_555 1_555
C47F N31F 1_555 1_555
C47F N32F 1_555 1_555
C48F N31F 1_555 1_555
C50F N32F 1_555 1_555
C52F N33F 1_555 1_555
C53F C54F 1_555 1_555
C54F N34F 1_555 1_555
C55F N35F 1_555 1_555
C59F N35F 1_555 1_555
C60F N36F 1_555 1_555
C60F N37F 1_555 1_555
C61F N36F 1_555 1_555
C63F N37F 1_555 1_555
C64F N38F 1_555 1_555
C64F N39F 1_555 1_555
C65F N38F 1_555 1_555
C67F N39F 1_555 1_555
C69F C71F 1_555 1_555
C70F N41F 1_555 1_555
C71F N40F 1_555 1_555
C72F N42F 1_555 1_555
C76F N42F 1_555 1_555
C77F N43F 1_555 1_555
C77F N44F 1_555 1_555
C78F N43F 1_555 1_555
C80F N44F 1_555 1_555
C81F N45F 1_555 1_555
C81F N46F 1_555 1_555
C82F N46F 1_555 1_555
C84F N45F 1_555 1_555
C86F N48F 1_555 1_555
C87F C88F 1_555 1_555
C88F N47F 1_555 1_555
C93F C94F 1_555 1_555
C97F C102F 1_555 1_555
C101F C102F 1_555 1_555
C104F C105F 1_555 1_555
C108F C109F 1_555 1_555
C111F C112F 1_555 1_555
C112F C113F 1_555 1_555
C115F C116F 1_555 1_555

#END
