# generated using pymatgen
data_Si6H524Pd40C392N237O239
_symmetry_space_group_name_H-M   'P 1'
_cell_length_a   25.73400000
_cell_length_b   37.30300000
_cell_length_c   46.60300000
_cell_angle_alpha   113.39800000
_cell_angle_beta   90.00000000
_cell_angle_gamma   90.00000000
_symmetry_Int_Tables_number   1
_chemical_formula_structural   Si6H524Pd40C392N237O239
_chemical_formula_sum   'Si12 H1048 Pd80 C784 N474 O478'
_cell_volume   41058.02677086
_cell_formula_units_Z   2
loop_
 _symmetry_equiv_pos_site_id
 _symmetry_equiv_pos_as_xyz
  1  'x, y, z'
loop_
 _atom_site_type_symbol
 _atom_site_label
 _atom_site_symmetry_multiplicity
 _atom_site_fract_x
 _atom_site_fract_y
 _atom_site_fract_z
 _atom_site_occupancy
  Si  Si1  1  0.156800  0.550200  0.489700  1.0
  Si  Si2  1  0.656800  0.949800  0.510300  1.0
  Si  Si3  1  0.843200  0.449800  0.510300  1.0
  Si  Si4  1  0.343200  0.050200  0.489700  1.0
  Si  Si5  1  0.082000  0.063900  0.093300  1.0
  Si  Si6  1  0.582000  0.436100  0.906700  1.0
  Si  Si7  1  0.918000  0.936100  0.906700  1.0
  Si  Si8  1  0.418000  0.563900  0.093300  1.0
  Si  Si9  1  0.922800  0.470100  0.401400  1.0
  Si  Si10  1  0.422800  0.029900  0.598600  1.0
  Si  Si11  1  0.077200  0.529900  0.598600  1.0
  Si  Si12  1  0.577200  0.970100  0.401400  1.0
  H  H13  1  0.301600  0.766300  0.487300  1.0
  H  H14  1  0.801600  0.733700  0.512700  1.0
  H  H15  1  0.698400  0.233700  0.512700  1.0
  H  H16  1  0.198400  0.266300  0.487300  1.0
  H  H17  1  0.382500  0.773000  0.512000  1.0
  H  H18  1  0.882500  0.727000  0.488000  1.0
  H  H19  1  0.617500  0.227000  0.488000  1.0
  H  H20  1  0.117500  0.273000  0.512000  1.0
  H  H21  1  0.397000  0.833200  0.558100  1.0
  H  H22  1  0.897000  0.666800  0.441900  1.0
  H  H23  1  0.603000  0.166800  0.441900  1.0
  H  H24  1  0.103000  0.333200  0.558100  1.0
  H  H25  1  0.255900  0.873600  0.542600  1.0
  H  H26  1  0.755900  0.626400  0.457400  1.0
  H  H27  1  0.744100  0.126400  0.457400  1.0
  H  H28  1  0.244100  0.373600  0.542600  1.0
  H  H29  1  0.559000  0.938300  0.683000  1.0
  H  H30  1  0.059000  0.561700  0.317000  1.0
  H  H31  1  0.441000  0.061700  0.317000  1.0
  H  H32  1  0.941000  0.438300  0.683000  1.0
  H  H33  1  0.435500  0.989800  0.667300  1.0
  H  H34  1  0.935500  0.510200  0.332700  1.0
  H  H35  1  0.564500  0.010200  0.332700  1.0
  H  H36  1  0.064500  0.489800  0.667300  1.0
  H  H37  1  0.463100  0.881500  0.610100  1.0
  H  H38  1  0.963100  0.618500  0.389900  1.0
  H  H39  1  0.536900  0.118500  0.389900  1.0
  H  H40  1  0.036900  0.381500  0.610100  1.0
  H  H41  1  0.165100  0.053400  0.637600  1.0
  H  H42  1  0.665100  0.446600  0.362400  1.0
  H  H43  1  0.834900  0.946600  0.362400  1.0
  H  H44  1  0.334900  0.553400  0.637600  1.0
  H  H45  1  0.224900  0.957600  0.581700  1.0
  H  H46  1  0.724900  0.542400  0.418300  1.0
  H  H47  1  0.775100  0.042400  0.418300  1.0
  H  H48  1  0.275100  0.457600  0.581700  1.0
  H  H49  1  0.297500  0.025400  0.658700  1.0
  H  H50  1  0.797500  0.474600  0.341300  1.0
  H  H51  1  0.702500  0.974600  0.341300  1.0
  H  H52  1  0.202500  0.525400  0.658700  1.0
  H  H53  1  0.360900  0.987300  0.645400  1.0
  H  H54  1  0.860900  0.512700  0.354600  1.0
  H  H55  1  0.639100  0.012700  0.354600  1.0
  H  H56  1  0.139100  0.487300  0.645400  1.0
  H  H57  1  0.580700  0.276700  0.624200  1.0
  H  H58  1  0.080700  0.223300  0.375800  1.0
  H  H59  1  0.419300  0.723300  0.375800  1.0
  H  H60  1  0.919300  0.776700  0.624200  1.0
  H  H61  1  0.633400  0.230100  0.641300  1.0
  H  H62  1  0.133400  0.269900  0.358700  1.0
  H  H63  1  0.366600  0.769900  0.358700  1.0
  H  H64  1  0.866600  0.730100  0.641300  1.0
  H  H65  1  0.584900  0.174000  0.644000  1.0
  H  H66  1  0.084900  0.326000  0.356000  1.0
  H  H67  1  0.415100  0.826000  0.356000  1.0
  H  H68  1  0.915100  0.674000  0.644000  1.0
  H  H69  1  0.456200  0.221200  0.633800  1.0
  H  H70  1  0.956200  0.278800  0.366200  1.0
  H  H71  1  0.543800  0.778800  0.366200  1.0
  H  H72  1  0.043800  0.721200  0.633800  1.0
  H  H73  1  0.216400  0.160100  0.668500  1.0
  H  H74  1  0.716400  0.339900  0.331500  1.0
  H  H75  1  0.783600  0.839900  0.331500  1.0
  H  H76  1  0.283600  0.660100  0.668500  1.0
  H  H77  1  0.348900  0.104000  0.675300  1.0
  H  H78  1  0.848900  0.396000  0.324700  1.0
  H  H79  1  0.651100  0.896000  0.324700  1.0
  H  H80  1  0.151100  0.604000  0.675300  1.0
  H  H81  1  0.347800  0.191800  0.645800  1.0
  H  H82  1  0.847800  0.308200  0.354200  1.0
  H  H83  1  0.652200  0.808200  0.354200  1.0
  H  H84  1  0.152200  0.691800  0.645800  1.0
  H  H85  1  0.614600  0.039900  0.712600  1.0
  H  H86  1  0.114600  0.460100  0.287400  1.0
  H  H87  1  0.385400  0.960100  0.287400  1.0
  H  H88  1  0.885400  0.539900  0.712600  1.0
  H  H89  1  0.479700  0.064400  0.691800  1.0
  H  H90  1  0.979700  0.435600  0.308200  1.0
  H  H91  1  0.520300  0.935600  0.308200  1.0
  H  H92  1  0.020300  0.564400  0.691800  1.0
  H  H93  1  0.591100  0.115100  0.670300  1.0
  H  H94  1  0.091100  0.384900  0.329700  1.0
  H  H95  1  0.408900  0.884900  0.329700  1.0
  H  H96  1  0.908900  0.615100  0.670300  1.0
  H  H97  1  0.431200  0.097000  0.674400  1.0
  H  H98  1  0.931200  0.403000  0.325600  1.0
  H  H99  1  0.568800  0.903000  0.325600  1.0
  H  H100  1  0.068800  0.597000  0.674400  1.0
  H  H101  1  0.533100  0.284800  0.569900  1.0
  H  H102  1  0.033100  0.215200  0.430100  1.0
  H  H103  1  0.466900  0.715200  0.430100  1.0
  H  H104  1  0.966900  0.784800  0.569900  1.0
  H  H105  1  0.543100  0.249200  0.517800  1.0
  H  H106  1  0.043100  0.250800  0.482200  1.0
  H  H107  1  0.456900  0.750800  0.482200  1.0
  H  H108  1  0.956900  0.749200  0.517800  1.0
  H  H109  1  0.477200  0.209000  0.491600  1.0
  H  H110  1  0.977200  0.291000  0.508400  1.0
  H  H111  1  0.522800  0.791000  0.508400  1.0
  H  H112  1  0.022800  0.709000  0.491600  1.0
  H  H113  1  0.408100  0.231100  0.577000  1.0
  H  H114  1  0.908100  0.268900  0.423000  1.0
  H  H115  1  0.591900  0.768900  0.423000  1.0
  H  H116  1  0.091900  0.731100  0.577000  1.0
  H  H117  1  0.341500  0.095600  0.354900  1.0
  H  H118  1  0.841500  0.404400  0.645100  1.0
  H  H119  1  0.658500  0.904400  0.645100  1.0
  H  H120  1  0.158500  0.595600  0.354900  1.0
  H  H121  1  0.274000  0.102700  0.434100  1.0
  H  H122  1  0.774000  0.397300  0.565900  1.0
  H  H123  1  0.726000  0.897300  0.565900  1.0
  H  H124  1  0.226000  0.602700  0.434100  1.0
  H  H125  1  0.417000  0.153700  0.434500  1.0
  H  H126  1  0.917000  0.346300  0.565500  1.0
  H  H127  1  0.583000  0.846300  0.565500  1.0
  H  H128  1  0.083000  0.653700  0.434500  1.0
  H  H129  1  0.167300  0.166600  0.600300  1.0
  H  H130  1  0.667300  0.333400  0.399700  1.0
  H  H131  1  0.832700  0.833400  0.399700  1.0
  H  H132  1  0.332700  0.666600  0.600300  1.0
  H  H133  1  0.224300  0.126400  0.512300  1.0
  H  H134  1  0.724300  0.373600  0.487700  1.0
  H  H135  1  0.775700  0.873600  0.487700  1.0
  H  H136  1  0.275700  0.626400  0.512300  1.0
  H  H137  1  0.305800  0.198800  0.587000  1.0
  H  H138  1  0.805800  0.301200  0.413000  1.0
  H  H139  1  0.694200  0.801200  0.413000  1.0
  H  H140  1  0.194200  0.698800  0.587000  1.0
  H  H141  1  0.284100  0.126200  0.481400  1.0
  H  H142  1  0.784100  0.373800  0.518600  1.0
  H  H143  1  0.715900  0.873800  0.518600  1.0
  H  H144  1  0.215900  0.626200  0.481400  1.0
  H  H145  1  0.250000  0.772800  0.426400  1.0
  H  H146  1  0.750000  0.727200  0.573600  1.0
  H  H147  1  0.750000  0.227200  0.573600  1.0
  H  H148  1  0.250000  0.272800  0.426400  1.0
  H  H149  1  0.278400  0.790400  0.386100  1.0
  H  H150  1  0.778400  0.709600  0.613900  1.0
  H  H151  1  0.721600  0.209600  0.613900  1.0
  H  H152  1  0.221600  0.290400  0.386100  1.0
  H  H153  1  0.271000  0.855200  0.391300  1.0
  H  H154  1  0.771000  0.644800  0.608700  1.0
  H  H155  1  0.729000  0.144800  0.608700  1.0
  H  H156  1  0.229000  0.355200  0.391300  1.0
  H  H157  1  0.206700  0.884800  0.477100  1.0
  H  H158  1  0.706700  0.615200  0.522900  1.0
  H  H159  1  0.793300  0.115200  0.522900  1.0
  H  H160  1  0.293300  0.384800  0.477100  1.0
  H  H161  1  0.119900  0.069300  0.574900  1.0
  H  H162  1  0.619900  0.430700  0.425100  1.0
  H  H163  1  0.880100  0.930700  0.425100  1.0
  H  H164  1  0.380100  0.569300  0.574900  1.0
  H  H165  1  0.177300  0.052300  0.491000  1.0
  H  H166  1  0.677300  0.447700  0.509000  1.0
  H  H167  1  0.822700  0.947700  0.509000  1.0
  H  H168  1  0.322700  0.552300  0.491000  1.0
  H  H169  1  0.174100  0.966700  0.521300  1.0
  H  H170  1  0.674100  0.533300  0.478700  1.0
  H  H171  1  0.825900  0.033300  0.478700  1.0
  H  H172  1  0.325900  0.466700  0.521300  1.0
  H  H173  1  0.290500  0.989600  0.324500  1.0
  H  H174  1  0.790500  0.510400  0.675500  1.0
  H  H175  1  0.709500  0.010400  0.675500  1.0
  H  H176  1  0.209500  0.489600  0.324500  1.0
  H  H177  1  0.241100  0.032500  0.410600  1.0
  H  H178  1  0.741100  0.467500  0.589400  1.0
  H  H179  1  0.758900  0.967500  0.589400  1.0
  H  H180  1  0.258900  0.532500  0.410600  1.0
  H  H181  1  0.281500  0.917700  0.365400  1.0
  H  H182  1  0.781500  0.582300  0.634600  1.0
  H  H183  1  0.718500  0.082300  0.634600  1.0
  H  H184  1  0.218500  0.417700  0.365400  1.0
  H  H185  1  0.229000  0.022200  0.451800  1.0
  H  H186  1  0.729000  0.477800  0.548200  1.0
  H  H187  1  0.771000  0.977800  0.548200  1.0
  H  H188  1  0.271000  0.522200  0.451800  1.0
  H  H189  1  0.044200  0.211100  0.929700  1.0
  H  H190  1  0.544200  0.288900  0.070300  1.0
  H  H191  1  0.955800  0.788900  0.070300  1.0
  H  H192  1  0.455800  0.711100  0.929700  1.0
  H  H193  1  0.048100  0.218000  0.981800  1.0
  H  H194  1  0.548100  0.282000  0.018200  1.0
  H  H195  1  0.951900  0.782000  0.018200  1.0
  H  H196  1  0.451900  0.718000  0.981800  1.0
  H  H197  1  0.978800  0.196700  0.003600  1.0
  H  H198  1  0.478800  0.303300  0.996400  1.0
  H  H199  1  0.021200  0.803300  0.996400  1.0
  H  H200  1  0.521200  0.696700  0.003600  1.0
  H  H201  1  0.901700  0.161600  0.921100  1.0
  H  H202  1  0.401700  0.338400  0.078900  1.0
  H  H203  1  0.098300  0.838400  0.078900  1.0
  H  H204  1  0.598300  0.661600  0.921100  1.0
  H  H205  1  0.827900  0.248400  0.144100  1.0
  H  H206  1  0.327900  0.251600  0.855900  1.0
  H  H207  1  0.172100  0.751600  0.855900  1.0
  H  H208  1  0.672100  0.748400  0.144100  1.0
  H  H209  1  0.780400  0.172100  0.072900  1.0
  H  H210  1  0.280400  0.327900  0.927100  1.0
  H  H211  1  0.219600  0.827900  0.927100  1.0
  H  H212  1  0.719600  0.672100  0.072900  1.0
  H  H213  1  0.909600  0.220600  0.071200  1.0
  H  H214  1  0.409600  0.279400  0.928800  1.0
  H  H215  1  0.090400  0.779400  0.928800  1.0
  H  H216  1  0.590400  0.720600  0.071200  1.0
  H  H217  1  0.660100  0.064400  0.902800  1.0
  H  H218  1  0.160100  0.435600  0.097200  1.0
  H  H219  1  0.339900  0.935600  0.097200  1.0
  H  H220  1  0.839900  0.564400  0.902800  1.0
  H  H221  1  0.729700  0.114500  0.987500  1.0
  H  H222  1  0.229700  0.385500  0.012500  1.0
  H  H223  1  0.270300  0.885500  0.012500  1.0
  H  H224  1  0.770300  0.614500  0.987500  1.0
  H  H225  1  0.805000  0.109800  0.909700  1.0
  H  H226  1  0.305000  0.390200  0.090300  1.0
  H  H227  1  0.195000  0.890200  0.090300  1.0
  H  H228  1  0.695000  0.609800  0.909700  1.0
  H  H229  1  0.782500  0.136400  0.013700  1.0
  H  H230  1  0.282500  0.363600  0.986300  1.0
  H  H231  1  0.217500  0.863600  0.986300  1.0
  H  H232  1  0.717500  0.636400  0.013700  1.0
  H  H233  1  0.755600  0.848000  0.077700  1.0
  H  H234  1  0.255600  0.652000  0.922300  1.0
  H  H235  1  0.244400  0.152000  0.922300  1.0
  H  H236  1  0.744400  0.348000  0.077700  1.0
  H  H237  1  0.769100  0.909200  0.118200  1.0
  H  H238  1  0.269100  0.590800  0.881800  1.0
  H  H239  1  0.230900  0.090800  0.881800  1.0
  H  H240  1  0.730900  0.409200  0.118200  1.0
  H  H241  1  0.756100  0.966100  0.109500  1.0
  H  H242  1  0.256100  0.533900  0.890500  1.0
  H  H243  1  0.243900  0.033900  0.890500  1.0
  H  H244  1  0.743900  0.466100  0.109500  1.0
  H  H245  1  0.716100  0.900700  0.019700  1.0
  H  H246  1  0.216100  0.599300  0.980300  1.0
  H  H247  1  0.283900  0.099300  0.980300  1.0
  H  H248  1  0.783900  0.400700  0.019700  1.0
  H  H249  1  0.595800  0.994600  0.932900  1.0
  H  H250  1  0.095800  0.505400  0.067100  1.0
  H  H251  1  0.404200  0.005400  0.067100  1.0
  H  H252  1  0.904200  0.494600  0.932900  1.0
  H  H253  1  0.676300  0.064200  0.007500  1.0
  H  H254  1  0.176300  0.435800  0.992500  1.0
  H  H255  1  0.323700  0.935800  0.992500  1.0
  H  H256  1  0.823700  0.564200  0.007500  1.0
  H  H257  1  0.688600  0.945100  0.978300  1.0
  H  H258  1  0.188600  0.554900  0.021700  1.0
  H  H259  1  0.311400  0.054900  0.021700  1.0
  H  H260  1  0.811400  0.445100  0.978300  1.0
  H  H261  1  0.791300  0.167900  0.175400  1.0
  H  H262  1  0.291300  0.332100  0.824600  1.0
  H  H263  1  0.208700  0.832100  0.824600  1.0
  H  H264  1  0.708700  0.667900  0.175400  1.0
  H  H265  1  0.728900  0.116600  0.088700  1.0
  H  H266  1  0.228900  0.383400  0.911300  1.0
  H  H267  1  0.271100  0.883400  0.911300  1.0
  H  H268  1  0.771100  0.616600  0.088700  1.0
  H  H269  1  0.776200  0.050200  0.134700  1.0
  H  H270  1  0.276200  0.449800  0.865300  1.0
  H  H271  1  0.223800  0.949800  0.865300  1.0
  H  H272  1  0.723800  0.550200  0.134700  1.0
  H  H273  1  0.711200  0.066700  0.048200  1.0
  H  H274  1  0.211200  0.433300  0.951800  1.0
  H  H275  1  0.288800  0.933300  0.951800  1.0
  H  H276  1  0.788800  0.566700  0.048200  1.0
  H  H277  1  0.796800  0.775400  0.015000  1.0
  H  H278  1  0.296800  0.724600  0.985000  1.0
  H  H279  1  0.203200  0.224600  0.985000  1.0
  H  H280  1  0.703200  0.275400  0.015000  1.0
  H  H281  1  0.874200  0.755600  0.986800  1.0
  H  H282  1  0.374200  0.744400  0.013200  1.0
  H  H283  1  0.125800  0.244400  0.013200  1.0
  H  H284  1  0.625800  0.255600  0.986800  1.0
  H  H285  1  0.893700  0.776100  0.946700  1.0
  H  H286  1  0.393700  0.723900  0.053300  1.0
  H  H287  1  0.106300  0.223900  0.053300  1.0
  H  H288  1  0.606300  0.276100  0.946700  1.0
  H  H289  1  0.758200  0.836300  0.962900  1.0
  H  H290  1  0.258200  0.663700  0.037100  1.0
  H  H291  1  0.241800  0.163700  0.037100  1.0
  H  H292  1  0.741800  0.336300  0.962900  1.0
  H  H293  1  0.057800  0.757100  0.818400  1.0
  H  H294  1  0.557800  0.742900  0.181600  1.0
  H  H295  1  0.942200  0.242900  0.181600  1.0
  H  H296  1  0.442200  0.257100  0.818400  1.0
  H  H297  1  0.928500  0.824500  0.835000  1.0
  H  H298  1  0.428500  0.675500  0.165000  1.0
  H  H299  1  0.071500  0.175500  0.165000  1.0
  H  H300  1  0.571500  0.324500  0.835000  1.0
  H  H301  1  0.969400  0.774700  0.894900  1.0
  H  H302  1  0.469400  0.725300  0.105100  1.0
  H  H303  1  0.030600  0.225300  0.105100  1.0
  H  H304  1  0.530600  0.274700  0.894900  1.0
  H  H305  1  0.665800  0.923200  0.862600  1.0
  H  H306  1  0.165800  0.576800  0.137400  1.0
  H  H307  1  0.334200  0.076800  0.137400  1.0
  H  H308  1  0.834200  0.423200  0.862600  1.0
  H  H309  1  0.806100  0.869400  0.845800  1.0
  H  H310  1  0.306100  0.630600  0.154200  1.0
  H  H311  1  0.193900  0.130600  0.154200  1.0
  H  H312  1  0.693900  0.369400  0.845800  1.0
  H  H313  1  0.721100  0.875300  0.920800  1.0
  H  H314  1  0.221100  0.624700  0.079200  1.0
  H  H315  1  0.278900  0.124700  0.079200  1.0
  H  H316  1  0.778900  0.375300  0.920800  1.0
  H  H317  1  0.866100  0.840600  0.856600  1.0
  H  H318  1  0.366100  0.659400  0.143400  1.0
  H  H319  1  0.133900  0.159400  0.143400  1.0
  H  H320  1  0.633900  0.340600  0.856600  1.0
  H  H321  1  0.084600  0.146700  0.872300  1.0
  H  H322  1  0.584600  0.353300  0.127700  1.0
  H  H323  1  0.915400  0.853300  0.127700  1.0
  H  H324  1  0.415400  0.646700  0.872300  1.0
  H  H325  1  0.127600  0.086400  0.853100  1.0
  H  H326  1  0.627600  0.413600  0.146900  1.0
  H  H327  1  0.872400  0.913600  0.146900  1.0
  H  H328  1  0.372400  0.586400  0.853100  1.0
  H  H329  1  0.080000  0.028400  0.838300  1.0
  H  H330  1  0.580000  0.471600  0.161700  1.0
  H  H331  1  0.920000  0.971600  0.161700  1.0
  H  H332  1  0.420000  0.528400  0.838300  1.0
  H  H333  1  0.946300  0.090900  0.862000  1.0
  H  H334  1  0.446300  0.409100  0.138000  1.0
  H  H335  1  0.053700  0.909100  0.138000  1.0
  H  H336  1  0.553700  0.590900  0.862000  1.0
  H  H337  1  0.718600  0.986500  0.830900  1.0
  H  H338  1  0.218600  0.513500  0.169100  1.0
  H  H339  1  0.281400  0.013500  0.169100  1.0
  H  H340  1  0.781400  0.486500  0.830900  1.0
  H  H341  1  0.853900  0.927600  0.822800  1.0
  H  H342  1  0.353900  0.572400  0.177200  1.0
  H  H343  1  0.146100  0.072400  0.177200  1.0
  H  H344  1  0.646100  0.427600  0.822800  1.0
  H  H345  1  0.855200  0.045300  0.851300  1.0
  H  H346  1  0.355200  0.454700  0.148700  1.0
  H  H347  1  0.144800  0.954700  0.148700  1.0
  H  H348  1  0.644800  0.545300  0.851300  1.0
  H  H349  1  0.118300  0.830900  0.796600  1.0
  H  H350  1  0.618300  0.669100  0.203400  1.0
  H  H351  1  0.881700  0.169100  0.203400  1.0
  H  H352  1  0.381700  0.330900  0.796600  1.0
  H  H353  1  0.973400  0.877100  0.808400  1.0
  H  H354  1  0.473400  0.622900  0.191600  1.0
  H  H355  1  0.026600  0.122900  0.191600  1.0
  H  H356  1  0.526600  0.377100  0.808400  1.0
  H  H357  1  0.099200  0.947700  0.823900  1.0
  H  H358  1  0.599200  0.552300  0.176100  1.0
  H  H359  1  0.900800  0.052300  0.176100  1.0
  H  H360  1  0.400800  0.447700  0.823900  1.0
  H  H361  1  0.924700  0.925400  0.823900  1.0
  H  H362  1  0.424700  0.574600  0.176100  1.0
  H  H363  1  0.075300  0.074600  0.176100  1.0
  H  H364  1  0.575300  0.425400  0.823900  1.0
  H  H365  1  0.190800  0.783000  0.528200  1.0
  H  H366  1  0.690800  0.717000  0.471800  1.0
  H  H367  1  0.809200  0.217000  0.471800  1.0
  H  H368  1  0.309200  0.283000  0.528200  1.0
  H  H369  1  0.166100  0.822000  0.541200  1.0
  H  H370  1  0.666100  0.678000  0.458800  1.0
  H  H371  1  0.833900  0.178000  0.458800  1.0
  H  H372  1  0.333900  0.322000  0.541200  1.0
  H  H373  1  0.126400  0.754700  0.498500  1.0
  H  H374  1  0.626400  0.745300  0.501500  1.0
  H  H375  1  0.873600  0.245300  0.501500  1.0
  H  H376  1  0.373600  0.254700  0.498500  1.0
  H  H377  1  0.100200  0.782900  0.530600  1.0
  H  H378  1  0.600200  0.717100  0.469400  1.0
  H  H379  1  0.899800  0.217100  0.469400  1.0
  H  H380  1  0.399800  0.282900  0.530600  1.0
  H  H381  1  0.083300  0.827000  0.511300  1.0
  H  H382  1  0.583300  0.673000  0.488700  1.0
  H  H383  1  0.916700  0.173000  0.488700  1.0
  H  H384  1  0.416700  0.327000  0.511300  1.0
  H  H385  1  0.061000  0.785200  0.488100  1.0
  H  H386  1  0.561000  0.714800  0.511900  1.0
  H  H387  1  0.939000  0.214800  0.511900  1.0
  H  H388  1  0.439000  0.285200  0.488100  1.0
  H  H389  1  0.117300  0.820500  0.465000  1.0
  H  H390  1  0.617300  0.679500  0.535000  1.0
  H  H391  1  0.882700  0.179500  0.535000  1.0
  H  H392  1  0.382700  0.320500  0.465000  1.0
  H  H393  1  0.126600  0.778000  0.454200  1.0
  H  H394  1  0.626600  0.722000  0.545800  1.0
  H  H395  1  0.873400  0.222000  0.545800  1.0
  H  H396  1  0.373400  0.278000  0.454200  1.0
  H  H397  1  0.106200  0.951000  0.611600  1.0
  H  H398  1  0.606200  0.549000  0.388400  1.0
  H  H399  1  0.893800  0.049000  0.388400  1.0
  H  H400  1  0.393800  0.451000  0.611600  1.0
  H  H401  1  0.093800  0.991300  0.633900  1.0
  H  H402  1  0.593800  0.508700  0.366100  1.0
  H  H403  1  0.906200  0.008700  0.366100  1.0
  H  H404  1  0.406200  0.491300  0.633900  1.0
  H  H405  1  0.019400  0.948000  0.611900  1.0
  H  H406  1  0.519400  0.552000  0.388100  1.0
  H  H407  1  0.980600  0.052000  0.388100  1.0
  H  H408  1  0.480600  0.448000  0.611900  1.0
  H  H409  1  0.015100  0.992000  0.615000  1.0
  H  H410  1  0.515100  0.508000  0.385000  1.0
  H  H411  1  0.984900  0.008000  0.385000  1.0
  H  H412  1  0.484900  0.492000  0.615000  1.0
  H  H413  1  0.986000  0.952200  0.566500  1.0
  H  H414  1  0.486000  0.547800  0.433500  1.0
  H  H415  1  0.014000  0.047800  0.433500  1.0
  H  H416  1  0.514000  0.452200  0.566500  1.0
  H  H417  1  0.038500  0.926700  0.559400  1.0
  H  H418  1  0.538500  0.573300  0.440600  1.0
  H  H419  1  0.961500  0.073300  0.440600  1.0
  H  H420  1  0.461500  0.426700  0.559400  1.0
  H  H421  1  0.029800  0.003500  0.565300  1.0
  H  H422  1  0.529800  0.496500  0.434700  1.0
  H  H423  1  0.970200  0.996500  0.434700  1.0
  H  H424  1  0.470200  0.503500  0.565300  1.0
  H  H425  1  0.054400  0.971000  0.539100  1.0
  H  H426  1  0.554400  0.529000  0.460900  1.0
  H  H427  1  0.945600  0.029000  0.460900  1.0
  H  H428  1  0.445600  0.471000  0.539100  1.0
  H  H429  1  0.098500  0.189400  0.556500  1.0
  H  H430  1  0.598500  0.310600  0.443500  1.0
  H  H431  1  0.901500  0.810600  0.443500  1.0
  H  H432  1  0.401500  0.689400  0.556500  1.0
  H  H433  1  0.100700  0.173900  0.522000  1.0
  H  H434  1  0.600700  0.326100  0.478000  1.0
  H  H435  1  0.899300  0.826100  0.478000  1.0
  H  H436  1  0.399300  0.673900  0.522000  1.0
  H  H437  1  0.016500  0.187300  0.532600  1.0
  H  H438  1  0.516500  0.312700  0.467400  1.0
  H  H439  1  0.983500  0.812700  0.467400  1.0
  H  H440  1  0.483500  0.687300  0.532600  1.0
  H  H441  1  0.018100  0.168000  0.557700  1.0
  H  H442  1  0.518100  0.332000  0.442300  1.0
  H  H443  1  0.981900  0.832000  0.442300  1.0
  H  H444  1  0.481900  0.668000  0.557700  1.0
  H  H445  1  0.977100  0.121100  0.515000  1.0
  H  H446  1  0.477100  0.378900  0.485000  1.0
  H  H447  1  0.022900  0.878900  0.485000  1.0
  H  H448  1  0.522900  0.621100  0.515000  1.0
  H  H449  1  0.018200  0.126200  0.490700  1.0
  H  H450  1  0.518200  0.373800  0.509300  1.0
  H  H451  1  0.981800  0.873800  0.509300  1.0
  H  H452  1  0.481800  0.626200  0.490700  1.0
  H  H453  1  0.056600  0.078900  0.499100  1.0
  H  H454  1  0.556600  0.421100  0.500900  1.0
  H  H455  1  0.943400  0.921100  0.500900  1.0
  H  H456  1  0.443400  0.578900  0.499100  1.0
  H  H457  1  0.033400  0.088800  0.530100  1.0
  H  H458  1  0.533400  0.411200  0.469900  1.0
  H  H459  1  0.966600  0.911200  0.469900  1.0
  H  H460  1  0.466600  0.588800  0.530100  1.0
  H  H461  1  0.215000  0.891300  0.309500  1.0
  H  H462  1  0.715000  0.608700  0.690500  1.0
  H  H463  1  0.785000  0.108700  0.690500  1.0
  H  H464  1  0.285000  0.391300  0.309500  1.0
  H  H465  1  0.215700  0.899800  0.281300  1.0
  H  H466  1  0.715700  0.600200  0.718700  1.0
  H  H467  1  0.784300  0.100200  0.718700  1.0
  H  H468  1  0.284300  0.399800  0.281300  1.0
  H  H469  1  0.239000  0.824400  0.281800  1.0
  H  H470  1  0.739000  0.675600  0.718200  1.0
  H  H471  1  0.761000  0.175600  0.718200  1.0
  H  H472  1  0.261000  0.324400  0.281800  1.0
  H  H473  1  0.196400  0.832000  0.259300  1.0
  H  H474  1  0.696400  0.668000  0.740700  1.0
  H  H475  1  0.803600  0.168000  0.740700  1.0
  H  H476  1  0.303600  0.332000  0.259300  1.0
  H  H477  1  0.258300  0.849100  0.232300  1.0
  H  H478  1  0.758300  0.650900  0.767700  1.0
  H  H479  1  0.741700  0.150900  0.767700  1.0
  H  H480  1  0.241700  0.349100  0.232300  1.0
  H  H481  1  0.279500  0.810000  0.234200  1.0
  H  H482  1  0.779500  0.690000  0.765800  1.0
  H  H483  1  0.720500  0.190000  0.765800  1.0
  H  H484  1  0.220500  0.310000  0.234200  1.0
  H  H485  1  0.338200  0.865800  0.244800  1.0
  H  H486  1  0.838200  0.634200  0.755200  1.0
  H  H487  1  0.661800  0.134200  0.755200  1.0
  H  H488  1  0.161800  0.365800  0.244800  1.0
  H  H489  1  0.345600  0.840800  0.262400  1.0
  H  H490  1  0.845600  0.659200  0.737600  1.0
  H  H491  1  0.654400  0.159200  0.737600  1.0
  H  H492  1  0.154400  0.340800  0.262400  1.0
  H  H493  1  0.230800  0.243400  0.700400  1.0
  H  H494  1  0.730800  0.256600  0.299600  1.0
  H  H495  1  0.769200  0.756600  0.299600  1.0
  H  H496  1  0.269200  0.743400  0.700400  1.0
  H  H497  1  0.275500  0.263300  0.693700  1.0
  H  H498  1  0.775500  0.236700  0.306300  1.0
  H  H499  1  0.724500  0.736700  0.306300  1.0
  H  H500  1  0.224500  0.763300  0.693700  1.0
  H  H501  1  0.183700  0.292800  0.709900  1.0
  H  H502  1  0.683700  0.207200  0.290100  1.0
  H  H503  1  0.816300  0.707200  0.290100  1.0
  H  H504  1  0.316300  0.792800  0.709900  1.0
  H  H505  1  0.231500  0.313700  0.701000  1.0
  H  H506  1  0.731500  0.186300  0.299000  1.0
  H  H507  1  0.768500  0.686300  0.299000  1.0
  H  H508  1  0.268500  0.813700  0.701000  1.0
  H  H509  1  0.181500  0.315700  0.665700  1.0
  H  H510  1  0.681500  0.184300  0.334300  1.0
  H  H511  1  0.818500  0.684300  0.334300  1.0
  H  H512  1  0.318500  0.815700  0.665700  1.0
  H  H513  1  0.144900  0.281300  0.666900  1.0
  H  H514  1  0.644900  0.218700  0.333100  1.0
  H  H515  1  0.855100  0.718700  0.333100  1.0
  H  H516  1  0.355100  0.781300  0.666900  1.0
  H  H517  1  0.233200  0.274900  0.634000  1.0
  H  H518  1  0.733200  0.225100  0.366000  1.0
  H  H519  1  0.766800  0.725100  0.366000  1.0
  H  H520  1  0.266800  0.774900  0.634000  1.0
  H  H521  1  0.185100  0.252500  0.623600  1.0
  H  H522  1  0.685100  0.247500  0.376400  1.0
  H  H523  1  0.814900  0.747500  0.376400  1.0
  H  H524  1  0.314900  0.752500  0.623600  1.0
  H  H525  1  0.367400  0.189900  0.369700  1.0
  H  H526  1  0.867400  0.310100  0.630300  1.0
  H  H527  1  0.632600  0.810100  0.630300  1.0
  H  H528  1  0.132600  0.689900  0.369700  1.0
  H  H529  1  0.409400  0.213800  0.390000  1.0
  H  H530  1  0.909400  0.286200  0.610000  1.0
  H  H531  1  0.590600  0.786200  0.610000  1.0
  H  H532  1  0.090600  0.713800  0.390000  1.0
  H  H533  1  0.409100  0.184900  0.324000  1.0
  H  H534  1  0.909100  0.315100  0.676000  1.0
  H  H535  1  0.590900  0.815100  0.676000  1.0
  H  H536  1  0.090900  0.684900  0.324000  1.0
  H  H537  1  0.408500  0.230500  0.346700  1.0
  H  H538  1  0.908500  0.269500  0.653300  1.0
  H  H539  1  0.591500  0.769500  0.653300  1.0
  H  H540  1  0.091500  0.730500  0.346700  1.0
  H  H541  1  0.494200  0.225100  0.364600  1.0
  H  H542  1  0.994200  0.274900  0.635400  1.0
  H  H543  1  0.505800  0.774900  0.635400  1.0
  H  H544  1  0.005800  0.725100  0.364600  1.0
  H  H545  1  0.495600  0.208400  0.326800  1.0
  H  H546  1  0.995600  0.291600  0.673200  1.0
  H  H547  1  0.504400  0.791600  0.673200  1.0
  H  H548  1  0.004400  0.708400  0.326800  1.0
  H  H549  1  0.524200  0.164100  0.351400  1.0
  H  H550  1  0.024200  0.335900  0.648600  1.0
  H  H551  1  0.475800  0.835900  0.648600  1.0
  H  H552  1  0.975800  0.664100  0.351400  1.0
  H  H553  1  0.492200  0.147200  0.323100  1.0
  H  H554  1  0.992200  0.352800  0.676900  1.0
  H  H555  1  0.507800  0.852800  0.676900  1.0
  H  H556  1  0.007800  0.647200  0.323100  1.0
  H  H557  1  0.447300  0.975600  0.739500  1.0
  H  H558  1  0.947300  0.524400  0.260500  1.0
  H  H559  1  0.552700  0.024400  0.260500  1.0
  H  H560  1  0.052700  0.475600  0.739500  1.0
  H  H561  1  0.497800  0.955300  0.734600  1.0
  H  H562  1  0.997800  0.544700  0.265400  1.0
  H  H563  1  0.502200  0.044700  0.265400  1.0
  H  H564  1  0.002200  0.455300  0.734600  1.0
  H  H565  1  0.528700  0.991900  0.779300  1.0
  H  H566  1  0.028700  0.508100  0.220700  1.0
  H  H567  1  0.471300  0.008100  0.220700  1.0
  H  H568  1  0.971300  0.491900  0.779300  1.0
  H  H569  1  0.469200  0.986100  0.786500  1.0
  H  H570  1  0.969200  0.513900  0.213500  1.0
  H  H571  1  0.530800  0.013900  0.213500  1.0
  H  H572  1  0.030800  0.486100  0.786500  1.0
  H  H573  1  0.446300  0.049400  0.787900  1.0
  H  H574  1  0.946300  0.450600  0.212100  1.0
  H  H575  1  0.553700  0.950600  0.212100  1.0
  H  H576  1  0.053700  0.549400  0.787900  1.0
  H  H577  1  0.496800  0.056100  0.809900  1.0
  H  H578  1  0.996800  0.443900  0.190100  1.0
  H  H579  1  0.503200  0.943900  0.190100  1.0
  H  H580  1  0.003200  0.556100  0.809900  1.0
  H  H581  1  0.549100  0.059900  0.771600  1.0
  H  H582  1  0.049100  0.440100  0.228400  1.0
  H  H583  1  0.450900  0.940100  0.228400  1.0
  H  H584  1  0.950900  0.559900  0.771600  1.0
  H  H585  1  0.502300  0.078800  0.765700  1.0
  H  H586  1  0.002300  0.421200  0.234300  1.0
  H  H587  1  0.497700  0.921200  0.234300  1.0
  H  H588  1  0.997700  0.578800  0.765700  1.0
  H  H589  1  0.165600  0.059400  0.708300  1.0
  H  H590  1  0.665600  0.440600  0.291700  1.0
  H  H591  1  0.834400  0.940600  0.291700  1.0
  H  H592  1  0.334400  0.559400  0.708300  1.0
  H  H593  1  0.216100  0.049100  0.717900  1.0
  H  H594  1  0.716100  0.450900  0.282100  1.0
  H  H595  1  0.783900  0.950900  0.282100  1.0
  H  H596  1  0.283900  0.549100  0.717900  1.0
  H  H597  1  0.151900  0.106800  0.749700  1.0
  H  H598  1  0.651900  0.393200  0.250300  1.0
  H  H599  1  0.848100  0.893200  0.250300  1.0
  H  H600  1  0.348100  0.606800  0.749700  1.0
  H  H601  1  0.189800  0.083000  0.762700  1.0
  H  H602  1  0.689800  0.417000  0.237300  1.0
  H  H603  1  0.810200  0.917000  0.237300  1.0
  H  H604  1  0.310200  0.583000  0.762700  1.0
  H  H605  1  0.250200  0.122300  0.770700  1.0
  H  H606  1  0.750200  0.377700  0.229300  1.0
  H  H607  1  0.749800  0.877700  0.229300  1.0
  H  H608  1  0.249800  0.622300  0.770700  1.0
  H  H609  1  0.201100  0.150900  0.776000  1.0
  H  H610  1  0.701100  0.349100  0.224000  1.0
  H  H611  1  0.798900  0.849100  0.224000  1.0
  H  H612  1  0.298900  0.650900  0.776000  1.0
  H  H613  1  0.271500  0.147100  0.737200  1.0
  H  H614  1  0.771500  0.352900  0.262800  1.0
  H  H615  1  0.728500  0.852900  0.262800  1.0
  H  H616  1  0.228500  0.647100  0.737200  1.0
  H  H617  1  0.218300  0.158800  0.733300  1.0
  H  H618  1  0.718300  0.341200  0.266700  1.0
  H  H619  1  0.781700  0.841200  0.266700  1.0
  H  H620  1  0.281700  0.658800  0.733300  1.0
  H  H621  1  0.189700  0.023100  0.319300  1.0
  H  H622  1  0.689700  0.476900  0.680700  1.0
  H  H623  1  0.810300  0.976900  0.680700  1.0
  H  H624  1  0.310300  0.523100  0.319300  1.0
  H  H625  1  0.157000  0.036000  0.347500  1.0
  H  H626  1  0.657000  0.464000  0.652500  1.0
  H  H627  1  0.843000  0.964000  0.652500  1.0
  H  H628  1  0.343000  0.536000  0.347500  1.0
  H  H629  1  0.160800  0.066200  0.303900  1.0
  H  H630  1  0.660800  0.433800  0.696100  1.0
  H  H631  1  0.839200  0.933800  0.696100  1.0
  H  H632  1  0.339200  0.566200  0.303900  1.0
  H  H633  1  0.114800  0.070600  0.328400  1.0
  H  H634  1  0.614800  0.429400  0.671600  1.0
  H  H635  1  0.885200  0.929400  0.671600  1.0
  H  H636  1  0.385200  0.570600  0.328400  1.0
  H  H637  1  0.143500  0.120700  0.361000  1.0
  H  H638  1  0.643500  0.379300  0.639000  1.0
  H  H639  1  0.856500  0.879300  0.639000  1.0
  H  H640  1  0.356500  0.620700  0.361000  1.0
  H  H641  1  0.168300  0.124400  0.331200  1.0
  H  H642  1  0.668300  0.375600  0.668800  1.0
  H  H643  1  0.831700  0.875600  0.668800  1.0
  H  H644  1  0.331700  0.624400  0.331200  1.0
  H  H645  1  0.218900  0.137700  0.379700  1.0
  H  H646  1  0.718900  0.362300  0.620300  1.0
  H  H647  1  0.781100  0.862300  0.620300  1.0
  H  H648  1  0.281100  0.637700  0.379700  1.0
  H  H649  1  0.245000  0.125200  0.349000  1.0
  H  H650  1  0.745000  0.374800  0.651000  1.0
  H  H651  1  0.755000  0.874800  0.651000  1.0
  H  H652  1  0.255000  0.625200  0.349000  1.0
  H  H653  1  0.630700  0.815000  0.040700  1.0
  H  H654  1  0.130700  0.685000  0.959300  1.0
  H  H655  1  0.369300  0.185000  0.959300  1.0
  H  H656  1  0.869300  0.315000  0.040700  1.0
  H  H657  1  0.624000  0.851500  0.036200  1.0
  H  H658  1  0.124000  0.648500  0.963800  1.0
  H  H659  1  0.376000  0.148500  0.963800  1.0
  H  H660  1  0.876000  0.351500  0.036200  1.0
  H  H661  1  0.556300  0.807300  0.011500  1.0
  H  H662  1  0.056300  0.692700  0.988500  1.0
  H  H663  1  0.443700  0.192700  0.988500  1.0
  H  H664  1  0.943700  0.307300  0.011500  1.0
  H  H665  1  0.588800  0.818400  0.986400  1.0
  H  H666  1  0.088800  0.681600  0.013600  1.0
  H  H667  1  0.411200  0.181600  0.013600  1.0
  H  H668  1  0.911200  0.318400  0.986400  1.0
  H  H669  1  0.590900  0.749400  0.971700  1.0
  H  H670  1  0.090900  0.750600  0.028300  1.0
  H  H671  1  0.409100  0.250600  0.028300  1.0
  H  H672  1  0.909100  0.249400  0.971700  1.0
  H  H673  1  0.615900  0.756400  0.005200  1.0
  H  H674  1  0.115900  0.743600  0.994800  1.0
  H  H675  1  0.384100  0.243600  0.994800  1.0
  H  H676  1  0.884100  0.256400  0.005200  1.0
  H  H677  1  0.668300  0.773900  0.957100  1.0
  H  H678  1  0.168300  0.726100  0.042900  1.0
  H  H679  1  0.331700  0.226100  0.042900  1.0
  H  H680  1  0.831700  0.273900  0.957100  1.0
  H  H681  1  0.690800  0.750100  0.973000  1.0
  H  H682  1  0.190800  0.749900  0.027000  1.0
  H  H683  1  0.309200  0.249900  0.027000  1.0
  H  H684  1  0.809200  0.250100  0.973000  1.0
  H  H685  1  0.889500  0.309000  0.105800  1.0
  H  H686  1  0.389500  0.191000  0.894200  1.0
  H  H687  1  0.110500  0.691000  0.894200  1.0
  H  H688  1  0.610500  0.809000  0.105800  1.0
  H  H689  1  0.873200  0.324300  0.138800  1.0
  H  H690  1  0.373200  0.175700  0.861200  1.0
  H  H691  1  0.126800  0.675700  0.861200  1.0
  H  H692  1  0.626800  0.824300  0.138800  1.0
  H  H693  1  0.945900  0.349800  0.112100  1.0
  H  H694  1  0.445900  0.150200  0.887900  1.0
  H  H695  1  0.054100  0.650200  0.887900  1.0
  H  H696  1  0.554100  0.849800  0.112100  1.0
  H  H697  1  0.911700  0.373800  0.142000  1.0
  H  H698  1  0.411700  0.126200  0.858000  1.0
  H  H699  1  0.088300  0.626200  0.858000  1.0
  H  H700  1  0.588300  0.873800  0.142000  1.0
  H  H701  1  0.966700  0.372500  0.172500  1.0
  H  H702  1  0.466700  0.127500  0.827500  1.0
  H  H703  1  0.033300  0.627500  0.827500  1.0
  H  H704  1  0.533300  0.872500  0.172500  1.0
  H  H705  1  0.003700  0.368000  0.143500  1.0
  H  H706  1  0.503700  0.132000  0.856500  1.0
  H  H707  1  0.996300  0.632000  0.856500  1.0
  H  H708  1  0.496300  0.868000  0.143500  1.0
  H  H709  1  0.002700  0.318300  0.169000  1.0
  H  H710  1  0.502700  0.181700  0.831000  1.0
  H  H711  1  0.997300  0.681700  0.831000  1.0
  H  H712  1  0.497300  0.818300  0.169000  1.0
  H  H713  1  0.023500  0.308700  0.137300  1.0
  H  H714  1  0.523500  0.191300  0.862700  1.0
  H  H715  1  0.976500  0.691300  0.862700  1.0
  H  H716  1  0.476500  0.808700  0.137300  1.0
  H  H717  1  0.446400  0.319500  0.678700  1.0
  H  H718  1  0.946400  0.180500  0.321300  1.0
  H  H719  1  0.553600  0.680500  0.321300  1.0
  H  H720  1  0.053600  0.819500  0.678700  1.0
  H  H721  1  0.496900  0.337200  0.677400  1.0
  H  H722  1  0.996900  0.162800  0.322600  1.0
  H  H723  1  0.503100  0.662800  0.322600  1.0
  H  H724  1  0.003100  0.837200  0.677400  1.0
  H  H725  1  0.405300  0.366800  0.681900  1.0
  H  H726  1  0.905300  0.133200  0.318100  1.0
  H  H727  1  0.594700  0.633200  0.318100  1.0
  H  H728  1  0.094700  0.866800  0.681900  1.0
  H  H729  1  0.459900  0.388500  0.687800  1.0
  H  H730  1  0.959900  0.111500  0.312200  1.0
  H  H731  1  0.540100  0.611500  0.312200  1.0
  H  H732  1  0.040100  0.888500  0.687800  1.0
  H  H733  1  0.459600  0.393500  0.646300  1.0
  H  H734  1  0.959600  0.106500  0.353700  1.0
  H  H735  1  0.540400  0.606500  0.353700  1.0
  H  H736  1  0.040400  0.893500  0.646300  1.0
  H  H737  1  0.398200  0.390400  0.650300  1.0
  H  H738  1  0.898200  0.109600  0.349700  1.0
  H  H739  1  0.601800  0.609600  0.349700  1.0
  H  H740  1  0.101800  0.890400  0.650300  1.0
  H  H741  1  0.443800  0.345500  0.601700  1.0
  H  H742  1  0.943800  0.154500  0.398300  1.0
  H  H743  1  0.556200  0.654500  0.398300  1.0
  H  H744  1  0.056200  0.845500  0.601700  1.0
  H  H745  1  0.396200  0.332400  0.612400  1.0
  H  H746  1  0.896200  0.167600  0.387600  1.0
  H  H747  1  0.603800  0.667600  0.387600  1.0
  H  H748  1  0.103800  0.832400  0.612400  1.0
  H  H749  1  0.009200  0.816000  0.737100  1.0
  H  H750  1  0.509200  0.684000  0.262900  1.0
  H  H751  1  0.990800  0.184000  0.262900  1.0
  H  H752  1  0.490800  0.316000  0.737100  1.0
  H  H753  1  0.045200  0.782300  0.728400  1.0
  H  H754  1  0.545200  0.717700  0.271600  1.0
  H  H755  1  0.954800  0.217700  0.271600  1.0
  H  H756  1  0.454800  0.282300  0.728400  1.0
  H  H757  1  0.940300  0.781300  0.726100  1.0
  H  H758  1  0.440300  0.718700  0.273900  1.0
  H  H759  1  0.059700  0.218700  0.273900  1.0
  H  H760  1  0.559700  0.281300  0.726100  1.0
  H  H761  1  0.979100  0.759200  0.698000  1.0
  H  H762  1  0.479100  0.740800  0.302000  1.0
  H  H763  1  0.020900  0.240800  0.302000  1.0
  H  H764  1  0.520900  0.259200  0.698000  1.0
  H  H765  1  0.992300  0.713300  0.712800  1.0
  H  H766  1  0.492300  0.786700  0.287200  1.0
  H  H767  1  0.007700  0.286700  0.287200  1.0
  H  H768  1  0.507700  0.213300  0.712800  1.0
  H  H769  1  0.931200  0.722200  0.717500  1.0
  H  H770  1  0.431200  0.777800  0.282500  1.0
  H  H771  1  0.068800  0.277800  0.282500  1.0
  H  H772  1  0.568800  0.222200  0.717500  1.0
  H  H773  1  0.990000  0.722800  0.762100  1.0
  H  H774  1  0.490000  0.777200  0.237900  1.0
  H  H775  1  0.010000  0.277200  0.237900  1.0
  H  H776  1  0.510000  0.222800  0.762100  1.0
  H  H777  1  0.939600  0.743400  0.768100  1.0
  H  H778  1  0.439600  0.756600  0.231900  1.0
  H  H779  1  0.060400  0.256600  0.231900  1.0
  H  H780  1  0.560400  0.243400  0.768100  1.0
  H  H781  1  0.778900  0.061100  0.800500  1.0
  H  H782  1  0.278900  0.438900  0.199500  1.0
  H  H783  1  0.221100  0.938900  0.199500  1.0
  H  H784  1  0.721100  0.561100  0.800500  1.0
  H  H785  1  0.724800  0.046900  0.795000  1.0
  H  H786  1  0.224800  0.453100  0.205000  1.0
  H  H787  1  0.275200  0.953100  0.205000  1.0
  H  H788  1  0.775200  0.546900  0.795000  1.0
  H  H789  1  0.759800  0.120600  0.812100  1.0
  H  H790  1  0.259800  0.379400  0.187900  1.0
  H  H791  1  0.240200  0.879400  0.187900  1.0
  H  H792  1  0.740200  0.620600  0.812100  1.0
  H  H793  1  0.718400  0.098200  0.785400  1.0
  H  H794  1  0.218400  0.401800  0.214600  1.0
  H  H795  1  0.281600  0.901800  0.214600  1.0
  H  H796  1  0.781600  0.598200  0.785400  1.0
  H  H797  1  0.657700  0.105600  0.819800  1.0
  H  H798  1  0.157700  0.394400  0.180200  1.0
  H  H799  1  0.342300  0.894400  0.180200  1.0
  H  H800  1  0.842300  0.605600  0.819800  1.0
  H  H801  1  0.684800  0.147200  0.827600  1.0
  H  H802  1  0.184800  0.352800  0.172400  1.0
  H  H803  1  0.315200  0.852800  0.172400  1.0
  H  H804  1  0.815200  0.647200  0.827600  1.0
  H  H805  1  0.676500  0.126300  0.871100  1.0
  H  H806  1  0.176500  0.373700  0.128900  1.0
  H  H807  1  0.323500  0.873700  0.128900  1.0
  H  H808  1  0.823500  0.626300  0.871100  1.0
  H  H809  1  0.727400  0.143000  0.868400  1.0
  H  H810  1  0.227400  0.357000  0.131600  1.0
  H  H811  1  0.272600  0.857000  0.131600  1.0
  H  H812  1  0.772600  0.643000  0.868400  1.0
  H  H813  1  0.737600  0.272800  0.153800  1.0
  H  H814  1  0.237600  0.227200  0.846200  1.0
  H  H815  1  0.262400  0.727200  0.846200  1.0
  H  H816  1  0.762400  0.772800  0.153800  1.0
  H  H817  1  0.714400  0.257700  0.122200  1.0
  H  H818  1  0.214400  0.242300  0.877800  1.0
  H  H819  1  0.285600  0.742300  0.877800  1.0
  H  H820  1  0.785600  0.757700  0.122200  1.0
  H  H821  1  0.668300  0.274200  0.177000  1.0
  H  H822  1  0.168300  0.225800  0.823000  1.0
  H  H823  1  0.331700  0.725800  0.823000  1.0
  H  H824  1  0.831700  0.774200  0.177000  1.0
  H  H825  1  0.644600  0.276400  0.146100  1.0
  H  H826  1  0.144600  0.223600  0.853900  1.0
  H  H827  1  0.355400  0.723600  0.853900  1.0
  H  H828  1  0.855400  0.776400  0.146100  1.0
  H  H829  1  0.623500  0.215800  0.127000  1.0
  H  H830  1  0.123500  0.284200  0.873000  1.0
  H  H831  1  0.376500  0.784200  0.873000  1.0
  H  H832  1  0.876500  0.715800  0.127000  1.0
  H  H833  1  0.607400  0.232400  0.163300  1.0
  H  H834  1  0.107400  0.267600  0.836700  1.0
  H  H835  1  0.392600  0.767600  0.836700  1.0
  H  H836  1  0.892600  0.732400  0.163300  1.0
  H  H837  1  0.660500  0.173300  0.145000  1.0
  H  H838  1  0.160500  0.326700  0.855000  1.0
  H  H839  1  0.339500  0.826700  0.855000  1.0
  H  H840  1  0.839500  0.673300  0.145000  1.0
  H  H841  1  0.678800  0.204300  0.174500  1.0
  H  H842  1  0.178800  0.295700  0.825500  1.0
  H  H843  1  0.321200  0.795700  0.825500  1.0
  H  H844  1  0.821200  0.704300  0.174500  1.0
  H  H845  1  0.601300  0.147300  0.963000  1.0
  H  H846  1  0.101300  0.352700  0.037000  1.0
  H  H847  1  0.398700  0.852700  0.037000  1.0
  H  H848  1  0.898700  0.647300  0.963000  1.0
  H  H849  1  0.578200  0.120300  0.933400  1.0
  H  H850  1  0.078200  0.379700  0.066600  1.0
  H  H851  1  0.421800  0.879700  0.066600  1.0
  H  H852  1  0.921800  0.620300  0.933400  1.0
  H  H853  1  0.528100  0.162400  0.980000  1.0
  H  H854  1  0.028100  0.337600  0.020000  1.0
  H  H855  1  0.471900  0.837600  0.020000  1.0
  H  H856  1  0.971900  0.662400  0.980000  1.0
  H  H857  1  0.504900  0.126700  0.950900  1.0
  H  H858  1  0.004900  0.373300  0.049100  1.0
  H  H859  1  0.495100  0.873300  0.049100  1.0
  H  H860  1  0.995100  0.626700  0.950900  1.0
  H  H861  1  0.479300  0.113800  0.987400  1.0
  H  H862  1  0.979300  0.386200  0.012600  1.0
  H  H863  1  0.520700  0.886200  0.012600  1.0
  H  H864  1  0.020700  0.613800  0.987400  1.0
  H  H865  1  0.529600  0.131800  0.008400  1.0
  H  H866  1  0.029600  0.368200  0.991600  1.0
  H  H867  1  0.470400  0.868200  0.991600  1.0
  H  H868  1  0.970400  0.631800  0.008400  1.0
  H  H869  1  0.522200  0.058300  0.959800  1.0
  H  H870  1  0.022200  0.441700  0.040200  1.0
  H  H871  1  0.477800  0.941700  0.040200  1.0
  H  H872  1  0.977800  0.558300  0.959800  1.0
  H  H873  1  0.543000  0.067400  0.991500  1.0
  H  H874  1  0.043000  0.432600  0.008500  1.0
  H  H875  1  0.457000  0.932600  0.008500  1.0
  H  H876  1  0.957000  0.567400  0.991500  1.0
  H  H877  1  0.549100  0.931300  0.958000  1.0
  H  H878  1  0.049100  0.568700  0.042000  1.0
  H  H879  1  0.450900  0.068700  0.042000  1.0
  H  H880  1  0.950900  0.431300  0.958000  1.0
  H  H881  1  0.530200  0.939200  0.931100  1.0
  H  H882  1  0.030200  0.560800  0.068900  1.0
  H  H883  1  0.469800  0.060800  0.068900  1.0
  H  H884  1  0.969800  0.439200  0.931100  1.0
  H  H885  1  0.532000  0.870600  0.937800  1.0
  H  H886  1  0.032000  0.629400  0.062200  1.0
  H  H887  1  0.468000  0.129400  0.062200  1.0
  H  H888  1  0.968000  0.370600  0.937800  1.0
  H  H889  1  0.484900  0.888700  0.925700  1.0
  H  H890  1  0.984900  0.611300  0.074300  1.0
  H  H891  1  0.515100  0.111300  0.074300  1.0
  H  H892  1  0.015100  0.388700  0.925700  1.0
  H  H893  1  0.514300  0.868700  0.879800  1.0
  H  H894  1  0.014300  0.631300  0.120200  1.0
  H  H895  1  0.485700  0.131300  0.120200  1.0
  H  H896  1  0.985700  0.368700  0.879800  1.0
  H  H897  1  0.526600  0.833600  0.890300  1.0
  H  H898  1  0.026600  0.666400  0.109700  1.0
  H  H899  1  0.473400  0.166400  0.109700  1.0
  H  H900  1  0.973400  0.333600  0.890300  1.0
  H  H901  1  0.597000  0.863800  0.869100  1.0
  H  H902  1  0.097000  0.636200  0.130900  1.0
  H  H903  1  0.403000  0.136200  0.130900  1.0
  H  H904  1  0.903000  0.363800  0.869100  1.0
  H  H905  1  0.609700  0.844300  0.890200  1.0
  H  H906  1  0.109700  0.655700  0.109800  1.0
  H  H907  1  0.390300  0.155700  0.109800  1.0
  H  H908  1  0.890300  0.344300  0.890200  1.0
  H  H909  1  0.002500  0.154300  0.818000  1.0
  H  H910  1  0.502500  0.345700  0.182000  1.0
  H  H911  1  0.997500  0.845700  0.182000  1.0
  H  H912  1  0.497500  0.654300  0.818000  1.0
  H  H913  1  0.945000  0.151200  0.817600  1.0
  H  H914  1  0.445000  0.348800  0.182400  1.0
  H  H915  1  0.055000  0.848800  0.182400  1.0
  H  H916  1  0.555000  0.651200  0.817600  1.0
  H  H917  1  0.002100  0.218400  0.839400  1.0
  H  H918  1  0.502100  0.281600  0.160600  1.0
  H  H919  1  0.997900  0.781600  0.160600  1.0
  H  H920  1  0.497900  0.718400  0.839400  1.0
  H  H921  1  0.963000  0.205300  0.810400  1.0
  H  H922  1  0.463000  0.294700  0.189600  1.0
  H  H923  1  0.037000  0.794700  0.189600  1.0
  H  H924  1  0.537000  0.705300  0.810400  1.0
  H  H925  1  0.934000  0.254200  0.854800  1.0
  H  H926  1  0.434000  0.245800  0.145200  1.0
  H  H927  1  0.066000  0.745800  0.145200  1.0
  H  H928  1  0.566000  0.754200  0.854800  1.0
  H  H929  1  0.895800  0.217200  0.840600  1.0
  H  H930  1  0.395800  0.282800  0.159400  1.0
  H  H931  1  0.104200  0.782800  0.159400  1.0
  H  H932  1  0.604200  0.717200  0.840600  1.0
  H  H933  1  0.900700  0.218200  0.887700  1.0
  H  H934  1  0.400700  0.281800  0.112300  1.0
  H  H935  1  0.099300  0.781800  0.112300  1.0
  H  H936  1  0.599300  0.718200  0.887700  1.0
  H  H937  1  0.949100  0.241200  0.895800  1.0
  H  H938  1  0.449100  0.258800  0.104200  1.0
  H  H939  1  0.050900  0.758800  0.104200  1.0
  H  H940  1  0.550900  0.741200  0.895800  1.0
  H  H941  1  0.712900  0.121100  0.212500  1.0
  H  H942  1  0.212900  0.378900  0.787500  1.0
  H  H943  1  0.287100  0.878900  0.787500  1.0
  H  H944  1  0.787100  0.621100  0.212500  1.0
  H  H945  1  0.717300  0.078200  0.197500  1.0
  H  H946  1  0.217300  0.421800  0.802500  1.0
  H  H947  1  0.282700  0.921800  0.802500  1.0
  H  H948  1  0.782700  0.578200  0.197500  1.0
  H  H949  1  0.725000  0.125200  0.258000  1.0
  H  H950  1  0.225000  0.374800  0.742000  1.0
  H  H951  1  0.275000  0.874800  0.742000  1.0
  H  H952  1  0.775000  0.625200  0.258000  1.0
  H  H953  1  0.700100  0.082500  0.242800  1.0
  H  H954  1  0.200100  0.417500  0.757200  1.0
  H  H955  1  0.299900  0.917500  0.757200  1.0
  H  H956  1  0.799900  0.582500  0.242800  1.0
  H  H957  1  0.775300  0.054800  0.237400  1.0
  H  H958  1  0.275300  0.445200  0.762600  1.0
  H  H959  1  0.224700  0.945200  0.762600  1.0
  H  H960  1  0.724700  0.554800  0.237400  1.0
  H  H961  1  0.772000  0.087800  0.272300  1.0
  H  H962  1  0.272000  0.412200  0.727700  1.0
  H  H963  1  0.228000  0.912200  0.727700  1.0
  H  H964  1  0.728000  0.587800  0.272300  1.0
  H  H965  1  0.849800  0.089600  0.243400  1.0
  H  H966  1  0.349800  0.410400  0.756600  1.0
  H  H967  1  0.150200  0.910400  0.756600  1.0
  H  H968  1  0.650200  0.589600  0.243400  1.0
  H  H969  1  0.823900  0.127800  0.258800  1.0
  H  H970  1  0.323900  0.372200  0.741200  1.0
  H  H971  1  0.176100  0.872200  0.741200  1.0
  H  H972  1  0.676100  0.627800  0.258800  1.0
  H  H973  1  0.701900  0.921900  0.763900  1.0
  H  H974  1  0.201900  0.578100  0.236100  1.0
  H  H975  1  0.298100  0.078100  0.236100  1.0
  H  H976  1  0.798100  0.421900  0.763900  1.0
  H  H977  1  0.757000  0.910300  0.757600  1.0
  H  H978  1  0.257000  0.589700  0.242400  1.0
  H  H979  1  0.243000  0.089700  0.242400  1.0
  H  H980  1  0.743000  0.410300  0.757600  1.0
  H  H981  1  0.692300  0.868100  0.725300  1.0
  H  H982  1  0.192300  0.631900  0.274700  1.0
  H  H983  1  0.307700  0.131900  0.274700  1.0
  H  H984  1  0.807700  0.368100  0.725300  1.0
  H  H985  1  0.742300  0.850300  0.735000  1.0
  H  H986  1  0.242300  0.649700  0.265000  1.0
  H  H987  1  0.257700  0.149700  0.265000  1.0
  H  H988  1  0.757700  0.350300  0.735000  1.0
  H  H989  1  0.678900  0.817800  0.740900  1.0
  H  H990  1  0.178900  0.682200  0.259100  1.0
  H  H991  1  0.321100  0.182200  0.259100  1.0
  H  H992  1  0.821100  0.317800  0.740900  1.0
  H  H993  1  0.643500  0.855900  0.757400  1.0
  H  H994  1  0.143500  0.644100  0.242600  1.0
  H  H995  1  0.356500  0.144100  0.242600  1.0
  H  H996  1  0.856500  0.355900  0.757400  1.0
  H  H997  1  0.725100  0.831800  0.784000  1.0
  H  H998  1  0.225100  0.668200  0.216000  1.0
  H  H999  1  0.274900  0.168200  0.216000  1.0
  H  H1000  1  0.774900  0.331800  0.784000  1.0
  H  H1001  1  0.674700  0.847700  0.798700  1.0
  H  H1002  1  0.174700  0.652300  0.201300  1.0
  H  H1003  1  0.325300  0.152300  0.201300  1.0
  H  H1004  1  0.825300  0.347700  0.798700  1.0
  H  H1005  1  0.142600  0.592300  0.552700  1.0
  H  H1006  1  0.642600  0.907700  0.447300  1.0
  H  H1007  1  0.857400  0.407700  0.447300  1.0
  H  H1008  1  0.357400  0.092300  0.552700  1.0
  H  H1009  1  0.077400  0.628200  0.587100  1.0
  H  H1010  1  0.577400  0.871800  0.412900  1.0
  H  H1011  1  0.922600  0.371800  0.412900  1.0
  H  H1012  1  0.422600  0.128200  0.587100  1.0
  H  H1013  1  0.000000  0.642500  0.567500  1.0
  H  H1014  1  0.500000  0.857500  0.432500  1.0
  H  H1015  1  0.000000  0.357500  0.432500  1.0
  H  H1016  1  0.500000  0.142500  0.567500  1.0
  H  H1017  1  0.077100  0.566300  0.454900  1.0
  H  H1018  1  0.577100  0.933700  0.545100  1.0
  H  H1019  1  0.922900  0.433700  0.545100  1.0
  H  H1020  1  0.422900  0.066300  0.454900  1.0
  H  H1021  1  0.999700  0.580700  0.435300  1.0
  H  H1022  1  0.499700  0.919300  0.564700  1.0
  H  H1023  1  0.000300  0.419300  0.564700  1.0
  H  H1024  1  0.500300  0.080700  0.435300  1.0
  H  H1025  1  0.934500  0.616600  0.469700  1.0
  H  H1026  1  0.434500  0.883400  0.530300  1.0
  H  H1027  1  0.065500  0.383400  0.530300  1.0
  H  H1028  1  0.565500  0.116600  0.469700  1.0
  H  H1029  1  0.946700  0.638200  0.523700  1.0
  H  H1030  1  0.446700  0.861800  0.476300  1.0
  H  H1031  1  0.053300  0.361800  0.476300  1.0
  H  H1032  1  0.553300  0.138200  0.523700  1.0
  H  H1033  1  0.131200  0.990500  0.084600  1.0
  H  H1034  1  0.631200  0.509500  0.915400  1.0
  H  H1035  1  0.868800  0.009500  0.915400  1.0
  H  H1036  1  0.368800  0.490500  0.084600  1.0
  H  H1037  1  0.107800  0.925300  0.071700  1.0
  H  H1038  1  0.607800  0.574700  0.928300  1.0
  H  H1039  1  0.892200  0.074700  0.928300  1.0
  H  H1040  1  0.392200  0.425300  0.071700  1.0
  H  H1041  1  0.020100  0.907200  0.065700  1.0
  H  H1042  1  0.520100  0.592800  0.934300  1.0
  H  H1043  1  0.979900  0.092800  0.934300  1.0
  H  H1044  1  0.479900  0.407200  0.065700  1.0
  H  H1045  1  0.976800  0.054800  0.091800  1.0
  H  H1046  1  0.476800  0.445200  0.908200  1.0
  H  H1047  1  0.023200  0.945200  0.908200  1.0
  H  H1048  1  0.523200  0.554800  0.091800  1.0
  H  H1049  1  0.889100  0.036700  0.085800  1.0
  H  H1050  1  0.389100  0.463300  0.914200  1.0
  H  H1051  1  0.110900  0.963300  0.914200  1.0
  H  H1052  1  0.610900  0.536700  0.085800  1.0
  H  H1053  1  0.865600  0.971600  0.072900  1.0
  H  H1054  1  0.365600  0.528400  0.927100  1.0
  H  H1055  1  0.134400  0.028400  0.927100  1.0
  H  H1056  1  0.634400  0.471600  0.072900  1.0
  H  H1057  1  0.929800  0.924500  0.066100  1.0
  H  H1058  1  0.429800  0.575500  0.933900  1.0
  H  H1059  1  0.070200  0.075500  0.933900  1.0
  H  H1060  1  0.570200  0.424500  0.066100  1.0
  Pd  Pd1061  1  0.201800  0.812400  0.490000  1.0
  Pd  Pd1062  1  0.701800  0.687600  0.510000  1.0
  Pd  Pd1063  1  0.798200  0.187600  0.510000  1.0
  Pd  Pd1064  1  0.298200  0.312400  0.490000  1.0
  Pd  Pd1065  1  0.119240  0.995560  0.582250  1.0
  Pd  Pd1066  1  0.619240  0.504440  0.417750  1.0
  Pd  Pd1067  1  0.880760  0.004440  0.417750  1.0
  Pd  Pd1068  1  0.380760  0.495560  0.582250  1.0
  Pd  Pd1069  1  0.116600  0.120540  0.537490  1.0
  Pd  Pd1070  1  0.616600  0.379460  0.462510  1.0
  Pd  Pd1071  1  0.883400  0.879460  0.462510  1.0
  Pd  Pd1072  1  0.383400  0.620540  0.537490  1.0
  Pd  Pd1073  1  0.308760  0.905220  0.300500  1.0
  Pd  Pd1074  1  0.808760  0.594780  0.699500  1.0
  Pd  Pd1075  1  0.691240  0.094780  0.699500  1.0
  Pd  Pd1076  1  0.191240  0.405220  0.300500  1.0
  Pd  Pd1077  1  0.241090  0.217280  0.643400  1.0
  Pd  Pd1078  1  0.741090  0.282720  0.356600  1.0
  Pd  Pd1079  1  0.758910  0.782720  0.356600  1.0
  Pd  Pd1080  1  0.258910  0.717280  0.643400  1.0
  Pd  Pd1081  1  0.440630  0.144940  0.366780  1.0
  Pd  Pd1082  1  0.940630  0.355060  0.633220  1.0
  Pd  Pd1083  1  0.559370  0.855060  0.633220  1.0
  Pd  Pd1084  1  0.059370  0.644940  0.366780  1.0
  Pd  Pd1085  1  0.509540  0.013030  0.721570  1.0
  Pd  Pd1086  1  0.009540  0.486970  0.278430  1.0
  Pd  Pd1087  1  0.490460  0.986970  0.278430  1.0
  Pd  Pd1088  1  0.990460  0.513030  0.721570  1.0
  Pd  Pd1089  1  0.234200  0.096210  0.692740  1.0
  Pd  Pd1090  1  0.734200  0.403790  0.307260  1.0
  Pd  Pd1091  1  0.765800  0.903790  0.307260  1.0
  Pd  Pd1092  1  0.265800  0.596210  0.692740  1.0
  Pd  Pd1093  1  0.244210  0.068240  0.363870  1.0
  Pd  Pd1094  1  0.744210  0.431760  0.636130  1.0
  Pd  Pd1095  1  0.755790  0.931760  0.636130  1.0
  Pd  Pd1096  1  0.255790  0.568240  0.363870  1.0
  Pd  Pd1097  1  0.699400  0.820930  0.010240  1.0
  Pd  Pd1098  1  0.199400  0.679070  0.989760  1.0
  Pd  Pd1099  1  0.300600  0.179070  0.989760  1.0
  Pd  Pd1100  1  0.800600  0.320930  0.010240  1.0
  Pd  Pd1101  1  0.936300  0.276290  0.131030  1.0
  Pd  Pd1102  1  0.436300  0.223710  0.868970  1.0
  Pd  Pd1103  1  0.063700  0.723710  0.868970  1.0
  Pd  Pd1104  1  0.563700  0.776290  0.131030  1.0
  Pd  Pd1105  1  0.472120  0.295650  0.623520  1.0
  Pd  Pd1106  1  0.972120  0.204350  0.376480  1.0
  Pd  Pd1107  1  0.527880  0.704350  0.376480  1.0
  Pd  Pd1108  1  0.027880  0.795650  0.623520  1.0
  Pd  Pd1109  1  0.008400  0.793290  0.780410  1.0
  Pd  Pd1110  1  0.508400  0.706710  0.219590  1.0
  Pd  Pd1111  1  0.991600  0.206710  0.219590  1.0
  Pd  Pd1112  1  0.491600  0.293290  0.780410  1.0
  Pd  Pd1113  1  0.740300  0.072300  0.854370  1.0
  Pd  Pd1114  1  0.240300  0.427700  0.145630  1.0
  Pd  Pd1115  1  0.259700  0.927700  0.145630  1.0
  Pd  Pd1116  1  0.759700  0.572300  0.854370  1.0
  Pd  Pd1117  1  0.739900  0.200770  0.133430  1.0
  Pd  Pd1118  1  0.239900  0.299230  0.866570  1.0
  Pd  Pd1119  1  0.260100  0.799230  0.866570  1.0
  Pd  Pd1120  1  0.760100  0.700770  0.133430  1.0
  Pd  Pd1121  1  0.615000  0.079830  0.960080  1.0
  Pd  Pd1122  1  0.115000  0.420170  0.039920  1.0
  Pd  Pd1123  1  0.385000  0.920170  0.039920  1.0
  Pd  Pd1124  1  0.885000  0.579830  0.960080  1.0
  Pd  Pd1125  1  0.618700  0.911730  0.918170  1.0
  Pd  Pd1126  1  0.118700  0.588270  0.081830  1.0
  Pd  Pd1127  1  0.381300  0.088270  0.081830  1.0
  Pd  Pd1128  1  0.881300  0.411730  0.918170  1.0
  Pd  Pd1129  1  0.973500  0.171870  0.874630  1.0
  Pd  Pd1130  1  0.473500  0.328130  0.125370  1.0
  Pd  Pd1131  1  0.026500  0.828130  0.125370  1.0
  Pd  Pd1132  1  0.526500  0.671870  0.874630  1.0
  Pd  Pd1133  1  0.808700  0.105460  0.200260  1.0
  Pd  Pd1134  1  0.308700  0.394540  0.799740  1.0
  Pd  Pd1135  1  0.191300  0.894540  0.799740  1.0
  Pd  Pd1136  1  0.691300  0.605460  0.200260  1.0
  Pd  Pd1137  1  0.732300  0.902550  0.806960  1.0
  Pd  Pd1138  1  0.232300  0.597450  0.193040  1.0
  Pd  Pd1139  1  0.267700  0.097450  0.193040  1.0
  Pd  Pd1140  1  0.767700  0.402550  0.806960  1.0
  C  C1141  1  0.310200  0.790500  0.503800  1.0
  C  C1142  1  0.810200  0.709500  0.496200  1.0
  C  C1143  1  0.689800  0.209500  0.496200  1.0
  C  C1144  1  0.189800  0.290500  0.503800  1.0
  C  C1145  1  0.357700  0.793600  0.518900  1.0
  C  C1146  1  0.857700  0.706400  0.481100  1.0
  C  C1147  1  0.642300  0.206400  0.481100  1.0
  C  C1148  1  0.142300  0.293600  0.518900  1.0
  C  C1149  1  0.367300  0.829200  0.545100  1.0
  C  C1150  1  0.867300  0.670800  0.454900  1.0
  C  C1151  1  0.632700  0.170800  0.454900  1.0
  C  C1152  1  0.132700  0.329200  0.545100  1.0
  C  C1153  1  0.329100  0.858000  0.550100  1.0
  C  C1154  1  0.829100  0.642000  0.449900  1.0
  C  C1155  1  0.670900  0.142000  0.449900  1.0
  C  C1156  1  0.170900  0.358000  0.550100  1.0
  C  C1157  1  0.281500  0.853600  0.535300  1.0
  C  C1158  1  0.781500  0.646400  0.464700  1.0
  C  C1159  1  0.718500  0.146400  0.464700  1.0
  C  C1160  1  0.218500  0.353600  0.535300  1.0
  C  C1161  1  0.529500  0.937000  0.670400  1.0
  C  C1162  1  0.029500  0.563000  0.329600  1.0
  C  C1163  1  0.470500  0.063000  0.329600  1.0
  C  C1164  1  0.970500  0.437000  0.670400  1.0
  C  C1165  1  0.456300  0.966900  0.661000  1.0
  C  C1166  1  0.956300  0.533100  0.339000  1.0
  C  C1167  1  0.543700  0.033100  0.339000  1.0
  C  C1168  1  0.043700  0.466900  0.661000  1.0
  C  C1169  1  0.440600  0.935200  0.635100  1.0
  C  C1170  1  0.940600  0.564800  0.364900  1.0
  C  C1171  1  0.559400  0.064800  0.364900  1.0
  C  C1172  1  0.059400  0.435200  0.635100  1.0
  C  C1173  1  0.471800  0.904600  0.627700  1.0
  C  C1174  1  0.971800  0.595400  0.372300  1.0
  C  C1175  1  0.528200  0.095400  0.372300  1.0
  C  C1176  1  0.028200  0.404600  0.627700  1.0
  C  C1177  1  0.195100  0.037200  0.631900  1.0
  C  C1178  1  0.695100  0.462800  0.368100  1.0
  C  C1179  1  0.804900  0.962800  0.368100  1.0
  C  C1180  1  0.304900  0.537200  0.631900  1.0
  C  C1181  1  0.227600  0.981500  0.599600  1.0
  C  C1182  1  0.727600  0.518500  0.400400  1.0
  C  C1183  1  0.772400  0.018500  0.400400  1.0
  C  C1184  1  0.272400  0.481500  0.599600  1.0
  C  C1185  1  0.270300  0.988200  0.619200  1.0
  C  C1186  1  0.770300  0.511800  0.380800  1.0
  C  C1187  1  0.729700  0.011800  0.380800  1.0
  C  C1188  1  0.229700  0.488200  0.619200  1.0
  C  C1189  1  0.269900  0.020400  0.644100  1.0
  C  C1190  1  0.769900  0.479600  0.355900  1.0
  C  C1191  1  0.730100  0.979600  0.355900  1.0
  C  C1192  1  0.230100  0.520400  0.644100  1.0
  C  C1193  1  0.341800  0.895000  0.574800  1.0
  C  C1194  1  0.841800  0.605000  0.425200  1.0
  C  C1195  1  0.658200  0.105000  0.425200  1.0
  C  C1196  1  0.158200  0.395000  0.574800  1.0
  C  C1197  1  0.311700  0.958700  0.609200  1.0
  C  C1198  1  0.811700  0.541300  0.390800  1.0
  C  C1199  1  0.688300  0.041300  0.390800  1.0
  C  C1200  1  0.188300  0.458700  0.609200  1.0
  C  C1201  1  0.356100  0.963800  0.627400  1.0
  C  C1202  1  0.856100  0.536200  0.372600  1.0
  C  C1203  1  0.643900  0.036200  0.372600  1.0
  C  C1204  1  0.143900  0.463800  0.627400  1.0
  C  C1205  1  0.393400  0.934500  0.619300  1.0
  C  C1206  1  0.893400  0.565500  0.380700  1.0
  C  C1207  1  0.606600  0.065500  0.380700  1.0
  C  C1208  1  0.106600  0.434500  0.619300  1.0
  C  C1209  1  0.564800  0.257200  0.629500  1.0
  C  C1210  1  0.064800  0.242800  0.370500  1.0
  C  C1211  1  0.435200  0.742800  0.370500  1.0
  C  C1212  1  0.935200  0.757200  0.629500  1.0
  C  C1213  1  0.597000  0.227700  0.638300  1.0
  C  C1214  1  0.097000  0.272300  0.361700  1.0
  C  C1215  1  0.403000  0.772300  0.361700  1.0
  C  C1216  1  0.903000  0.727700  0.638300  1.0
  C  C1217  1  0.566800  0.195000  0.641900  1.0
  C  C1218  1  0.066800  0.305000  0.358100  1.0
  C  C1219  1  0.433200  0.805000  0.358100  1.0
  C  C1220  1  0.933200  0.695000  0.641900  1.0
  C  C1221  1  0.515800  0.195300  0.642100  1.0
  C  C1222  1  0.015800  0.304700  0.357900  1.0
  C  C1223  1  0.484200  0.804700  0.357900  1.0
  C  C1224  1  0.984200  0.695300  0.642100  1.0
  C  C1225  1  0.493000  0.222700  0.635300  1.0
  C  C1226  1  0.993000  0.277300  0.364700  1.0
  C  C1227  1  0.507000  0.777300  0.364700  1.0
  C  C1228  1  0.007000  0.722700  0.635300  1.0
  C  C1229  1  0.252400  0.154500  0.665200  1.0
  C  C1230  1  0.752400  0.345500  0.334800  1.0
  C  C1231  1  0.747600  0.845500  0.334800  1.0
  C  C1232  1  0.247600  0.654500  0.665200  1.0
  C  C1233  1  0.331600  0.123400  0.670400  1.0
  C  C1234  1  0.831600  0.376600  0.329600  1.0
  C  C1235  1  0.668400  0.876600  0.329600  1.0
  C  C1236  1  0.168400  0.623400  0.670400  1.0
  C  C1237  1  0.358900  0.144100  0.661200  1.0
  C  C1238  1  0.858900  0.355900  0.338800  1.0
  C  C1239  1  0.641100  0.855900  0.338800  1.0
  C  C1240  1  0.141100  0.644100  0.661200  1.0
  C  C1241  1  0.329100  0.173800  0.651600  1.0
  C  C1242  1  0.829100  0.326200  0.348400  1.0
  C  C1243  1  0.670900  0.826200  0.348400  1.0
  C  C1244  1  0.170900  0.673800  0.651600  1.0
  C  C1245  1  0.592400  0.053700  0.704200  1.0
  C  C1246  1  0.092400  0.446300  0.295800  1.0
  C  C1247  1  0.407600  0.946300  0.295800  1.0
  C  C1248  1  0.907600  0.553700  0.704200  1.0
  C  C1249  1  0.516200  0.067900  0.691300  1.0
  C  C1250  1  0.016200  0.432100  0.308700  1.0
  C  C1251  1  0.483800  0.932100  0.308700  1.0
  C  C1252  1  0.983800  0.567900  0.691300  1.0
  C  C1253  1  0.529400  0.093700  0.679400  1.0
  C  C1254  1  0.029400  0.406300  0.320600  1.0
  C  C1255  1  0.470600  0.906300  0.320600  1.0
  C  C1256  1  0.970600  0.593700  0.679400  1.0
  C  C1257  1  0.577300  0.098800  0.679800  1.0
  C  C1258  1  0.077300  0.401200  0.320200  1.0
  C  C1259  1  0.422700  0.901200  0.320200  1.0
  C  C1260  1  0.922700  0.598800  0.679800  1.0
  C  C1261  1  0.490100  0.167100  0.648500  1.0
  C  C1262  1  0.990100  0.332900  0.351500  1.0
  C  C1263  1  0.509900  0.832900  0.351500  1.0
  C  C1264  1  0.009900  0.667100  0.648500  1.0
  C  C1265  1  0.500500  0.122000  0.668900  1.0
  C  C1266  1  0.000500  0.378000  0.331100  1.0
  C  C1267  1  0.499500  0.878000  0.331100  1.0
  C  C1268  1  0.999500  0.622000  0.668900  1.0
  C  C1269  1  0.446600  0.116300  0.668700  1.0
  C  C1270  1  0.946600  0.383700  0.331300  1.0
  C  C1271  1  0.553400  0.883700  0.331300  1.0
  C  C1272  1  0.053400  0.616300  0.668700  1.0
  C  C1273  1  0.416400  0.142100  0.659100  1.0
  C  C1274  1  0.916400  0.357900  0.340900  1.0
  C  C1275  1  0.583600  0.857900  0.340900  1.0
  C  C1276  1  0.083600  0.642100  0.659100  1.0
  C  C1277  1  0.508200  0.264800  0.560500  1.0
  C  C1278  1  0.008200  0.235200  0.439500  1.0
  C  C1279  1  0.491800  0.735200  0.439500  1.0
  C  C1280  1  0.991800  0.764800  0.560500  1.0
  C  C1281  1  0.513700  0.245100  0.528500  1.0
  C  C1282  1  0.013700  0.254900  0.471500  1.0
  C  C1283  1  0.486300  0.754900  0.471500  1.0
  C  C1284  1  0.986300  0.745100  0.528500  1.0
  C  C1285  1  0.477600  0.221200  0.513700  1.0
  C  C1286  1  0.977600  0.278800  0.486300  1.0
  C  C1287  1  0.522400  0.778800  0.486300  1.0
  C  C1288  1  0.022400  0.721200  0.513700  1.0
  C  C1289  1  0.434600  0.212700  0.533500  1.0
  C  C1290  1  0.934600  0.287300  0.466500  1.0
  C  C1291  1  0.565400  0.787300  0.466500  1.0
  C  C1292  1  0.065400  0.712700  0.533500  1.0
  C  C1293  1  0.435400  0.233800  0.564300  1.0
  C  C1294  1  0.935400  0.266200  0.435700  1.0
  C  C1295  1  0.564600  0.766200  0.435700  1.0
  C  C1296  1  0.064600  0.733800  0.564300  1.0
  C  C1297  1  0.342500  0.105000  0.377100  1.0
  C  C1298  1  0.842500  0.395000  0.622900  1.0
  C  C1299  1  0.657500  0.895000  0.622900  1.0
  C  C1300  1  0.157500  0.605000  0.377100  1.0
  C  C1301  1  0.301900  0.107900  0.423000  1.0
  C  C1302  1  0.801900  0.392100  0.577000  1.0
  C  C1303  1  0.698100  0.892100  0.577000  1.0
  C  C1304  1  0.198100  0.607900  0.423000  1.0
  C  C1305  1  0.350900  0.131500  0.437900  1.0
  C  C1306  1  0.850900  0.368500  0.562100  1.0
  C  C1307  1  0.649100  0.868500  0.562100  1.0
  C  C1308  1  0.149100  0.631500  0.437900  1.0
  C  C1309  1  0.387300  0.139600  0.423700  1.0
  C  C1310  1  0.887300  0.360400  0.576300  1.0
  C  C1311  1  0.612700  0.860400  0.576300  1.0
  C  C1312  1  0.112700  0.639600  0.423700  1.0
  C  C1313  1  0.194100  0.165100  0.585900  1.0
  C  C1314  1  0.694100  0.334900  0.414100  1.0
  C  C1315  1  0.805900  0.834900  0.414100  1.0
  C  C1316  1  0.305900  0.665100  0.585900  1.0
  C  C1317  1  0.227600  0.142000  0.534000  1.0
  C  C1318  1  0.727600  0.358000  0.466000  1.0
  C  C1319  1  0.772400  0.858000  0.466000  1.0
  C  C1320  1  0.272400  0.642000  0.534000  1.0
  C  C1321  1  0.272900  0.160700  0.543800  1.0
  C  C1322  1  0.772900  0.339300  0.456200  1.0
  C  C1323  1  0.727100  0.839300  0.456200  1.0
  C  C1324  1  0.227100  0.660700  0.543800  1.0
  C  C1325  1  0.275900  0.183500  0.578300  1.0
  C  C1326  1  0.775900  0.316500  0.421700  1.0
  C  C1327  1  0.724100  0.816500  0.421700  1.0
  C  C1328  1  0.224100  0.683500  0.578300  1.0
  C  C1329  1  0.394800  0.187000  0.518700  1.0
  C  C1330  1  0.894800  0.313000  0.481300  1.0
  C  C1331  1  0.605200  0.813000  0.481300  1.0
  C  C1332  1  0.105200  0.687000  0.518700  1.0
  C  C1333  1  0.314500  0.159500  0.521500  1.0
  C  C1334  1  0.814500  0.340500  0.478500  1.0
  C  C1335  1  0.685500  0.840500  0.478500  1.0
  C  C1336  1  0.185500  0.659500  0.521500  1.0
  C  C1337  1  0.313000  0.142400  0.490800  1.0
  C  C1338  1  0.813000  0.357600  0.509200  1.0
  C  C1339  1  0.687000  0.857600  0.509200  1.0
  C  C1340  1  0.187000  0.642400  0.490800  1.0
  C  C1341  1  0.350300  0.146600  0.471800  1.0
  C  C1342  1  0.850300  0.353400  0.528200  1.0
  C  C1343  1  0.649700  0.853400  0.528200  1.0
  C  C1344  1  0.149700  0.646600  0.471800  1.0
  C  C1345  1  0.247000  0.799100  0.428500  1.0
  C  C1346  1  0.747000  0.700900  0.571500  1.0
  C  C1347  1  0.753000  0.200900  0.571500  1.0
  C  C1348  1  0.253000  0.299100  0.428500  1.0
  C  C1349  1  0.263900  0.809600  0.404600  1.0
  C  C1350  1  0.763900  0.690400  0.595400  1.0
  C  C1351  1  0.736100  0.190400  0.595400  1.0
  C  C1352  1  0.236100  0.309600  0.404600  1.0
  C  C1353  1  0.259500  0.848100  0.407700  1.0
  C  C1354  1  0.759500  0.651900  0.592300  1.0
  C  C1355  1  0.740500  0.151900  0.592300  1.0
  C  C1356  1  0.240500  0.348100  0.407700  1.0
  C  C1357  1  0.238200  0.876100  0.434700  1.0
  C  C1358  1  0.738200  0.623900  0.565300  1.0
  C  C1359  1  0.761800  0.123900  0.565300  1.0
  C  C1360  1  0.261800  0.376100  0.434700  1.0
  C  C1361  1  0.221300  0.865600  0.458600  1.0
  C  C1362  1  0.721300  0.634400  0.541400  1.0
  C  C1363  1  0.778700  0.134400  0.541400  1.0
  C  C1364  1  0.278700  0.365600  0.458600  1.0
  C  C1365  1  0.133700  0.053000  0.555100  1.0
  C  C1366  1  0.633700  0.447000  0.444900  1.0
  C  C1367  1  0.866300  0.947000  0.444900  1.0
  C  C1368  1  0.366300  0.553000  0.555100  1.0
  C  C1369  1  0.167300  0.042600  0.506200  1.0
  C  C1370  1  0.667300  0.457400  0.493800  1.0
  C  C1371  1  0.832700  0.957400  0.493800  1.0
  C  C1372  1  0.332700  0.542600  0.506200  1.0
  C  C1373  1  0.180300  0.004500  0.498600  1.0
  C  C1374  1  0.680300  0.495500  0.501400  1.0
  C  C1375  1  0.819700  0.995500  0.501400  1.0
  C  C1376  1  0.319700  0.504500  0.498600  1.0
  C  C1377  1  0.166600  0.992600  0.523700  1.0
  C  C1378  1  0.666600  0.507400  0.476300  1.0
  C  C1379  1  0.833400  0.007400  0.476300  1.0
  C  C1380  1  0.333400  0.492600  0.523700  1.0
  C  C1381  1  0.281900  0.986100  0.343000  1.0
  C  C1382  1  0.781900  0.513900  0.657000  1.0
  C  C1383  1  0.718100  0.013900  0.657000  1.0
  C  C1384  1  0.218100  0.486100  0.343000  1.0
  C  C1385  1  0.252400  0.011200  0.392400  1.0
  C  C1386  1  0.752400  0.488800  0.607600  1.0
  C  C1387  1  0.747600  0.988800  0.607600  1.0
  C  C1388  1  0.247600  0.511200  0.392400  1.0
  C  C1389  1  0.257300  0.972700  0.392500  1.0
  C  C1390  1  0.757300  0.527300  0.607500  1.0
  C  C1391  1  0.742700  0.027300  0.607500  1.0
  C  C1392  1  0.242700  0.472700  0.392500  1.0
  C  C1393  1  0.276900  0.943400  0.366300  1.0
  C  C1394  1  0.776900  0.556600  0.633700  1.0
  C  C1395  1  0.723100  0.056600  0.633700  1.0
  C  C1396  1  0.223100  0.443400  0.366300  1.0
  C  C1397  1  0.233600  0.918100  0.441500  1.0
  C  C1398  1  0.733600  0.581900  0.558500  1.0
  C  C1399  1  0.766400  0.081900  0.558500  1.0
  C  C1400  1  0.266400  0.418100  0.441500  1.0
  C  C1401  1  0.243500  0.960900  0.417100  1.0
  C  C1402  1  0.743500  0.539100  0.582900  1.0
  C  C1403  1  0.756500  0.039100  0.582900  1.0
  C  C1404  1  0.256500  0.460900  0.417100  1.0
  C  C1405  1  0.226400  0.995300  0.448300  1.0
  C  C1406  1  0.726400  0.504700  0.551700  1.0
  C  C1407  1  0.773600  0.004700  0.551700  1.0
  C  C1408  1  0.273600  0.495300  0.448300  1.0
  C  C1409  1  0.204700  0.980500  0.472800  1.0
  C  C1410  1  0.704700  0.519500  0.527200  1.0
  C  C1411  1  0.795300  0.019500  0.527200  1.0
  C  C1412  1  0.295300  0.480500  0.472800  1.0
  C  C1413  1  0.016000  0.202400  0.938600  1.0
  C  C1414  1  0.516000  0.297600  0.061400  1.0
  C  C1415  1  0.984000  0.797600  0.061400  1.0
  C  C1416  1  0.484000  0.702400  0.938600  1.0
  C  C1417  1  0.018400  0.206500  0.969500  1.0
  C  C1418  1  0.518400  0.293500  0.030500  1.0
  C  C1419  1  0.981600  0.793500  0.030500  1.0
  C  C1420  1  0.481600  0.706500  0.969500  1.0
  C  C1421  1  0.977200  0.193900  0.982400  1.0
  C  C1422  1  0.477200  0.306100  0.017600  1.0
  C  C1423  1  0.022800  0.806100  0.017600  1.0
  C  C1424  1  0.522800  0.693900  0.982400  1.0
  C  C1425  1  0.933700  0.177100  0.964400  1.0
  C  C1426  1  0.433700  0.322900  0.035600  1.0
  C  C1427  1  0.066300  0.822900  0.035600  1.0
  C  C1428  1  0.566300  0.677100  0.964400  1.0
  C  C1429  1  0.931400  0.173000  0.933500  1.0
  C  C1430  1  0.431400  0.327000  0.066500  1.0
  C  C1431  1  0.068600  0.827000  0.066500  1.0
  C  C1432  1  0.568600  0.673000  0.933500  1.0
  C  C1433  1  0.835200  0.229700  0.123700  1.0
  C  C1434  1  0.335200  0.270300  0.876300  1.0
  C  C1435  1  0.164800  0.770300  0.876300  1.0
  C  C1436  1  0.664800  0.729700  0.123700  1.0
  C  C1437  1  0.809000  0.188900  0.082800  1.0
  C  C1438  1  0.309000  0.311100  0.917200  1.0
  C  C1439  1  0.191000  0.811100  0.917200  1.0
  C  C1440  1  0.691000  0.688900  0.082800  1.0
  C  C1441  1  0.852000  0.191900  0.059600  1.0
  C  C1442  1  0.352000  0.308100  0.940400  1.0
  C  C1443  1  0.148000  0.808100  0.940400  1.0
  C  C1444  1  0.648000  0.691900  0.059600  1.0
  C  C1445  1  0.880000  0.215000  0.081300  1.0
  C  C1446  1  0.380000  0.285000  0.918700  1.0
  C  C1447  1  0.120000  0.785000  0.918700  1.0
  C  C1448  1  0.620000  0.715000  0.081300  1.0
  C  C1449  1  0.689100  0.077300  0.915200  1.0
  C  C1450  1  0.189100  0.422700  0.084800  1.0
  C  C1451  1  0.310900  0.922700  0.084800  1.0
  C  C1452  1  0.810900  0.577300  0.915200  1.0
  C  C1453  1  0.730400  0.107100  0.965500  1.0
  C  C1454  1  0.230400  0.392900  0.034500  1.0
  C  C1455  1  0.269600  0.892900  0.034500  1.0
  C  C1456  1  0.769600  0.607100  0.965500  1.0
  C  C1457  1  0.774000  0.115100  0.951500  1.0
  C  C1458  1  0.274000  0.384900  0.048500  1.0
  C  C1459  1  0.226000  0.884900  0.048500  1.0
  C  C1460  1  0.726000  0.615100  0.951500  1.0
  C  C1461  1  0.775200  0.104300  0.919300  1.0
  C  C1462  1  0.275200  0.395700  0.080700  1.0
  C  C1463  1  0.224800  0.895700  0.080700  1.0
  C  C1464  1  0.724800  0.604300  0.919300  1.0
  C  C1465  1  0.888400  0.165800  0.978400  1.0
  C  C1466  1  0.388400  0.334200  0.021600  1.0
  C  C1467  1  0.111600  0.834200  0.021600  1.0
  C  C1468  1  0.611600  0.665800  0.978400  1.0
  C  C1469  1  0.810000  0.137700  0.971600  1.0
  C  C1470  1  0.310000  0.362300  0.028400  1.0
  C  C1471  1  0.190000  0.862300  0.028400  1.0
  C  C1472  1  0.690000  0.637700  0.971600  1.0
  C  C1473  1  0.809700  0.146500  0.005200  1.0
  C  C1474  1  0.309700  0.353500  0.994800  1.0
  C  C1475  1  0.190300  0.853500  0.994800  1.0
  C  C1476  1  0.690300  0.646500  0.005200  1.0
  C  C1477  1  0.851000  0.170700  0.026200  1.0
  C  C1478  1  0.351000  0.329300  0.973800  1.0
  C  C1479  1  0.149000  0.829300  0.973800  1.0
  C  C1480  1  0.649000  0.670700  0.026200  1.0
  C  C1481  1  0.750300  0.871100  0.074100  1.0
  C  C1482  1  0.250300  0.628900  0.925900  1.0
  C  C1483  1  0.249700  0.128900  0.925900  1.0
  C  C1484  1  0.749700  0.371100  0.074100  1.0
  C  C1485  1  0.758000  0.907500  0.098200  1.0
  C  C1486  1  0.258000  0.592500  0.901800  1.0
  C  C1487  1  0.242000  0.092500  0.901800  1.0
  C  C1488  1  0.742000  0.407500  0.098200  1.0
  C  C1489  1  0.751000  0.941300  0.093000  1.0
  C  C1490  1  0.251000  0.558700  0.907000  1.0
  C  C1491  1  0.249000  0.058700  0.907000  1.0
  C  C1492  1  0.749000  0.441300  0.093000  1.0
  C  C1493  1  0.734900  0.938800  0.063800  1.0
  C  C1494  1  0.234900  0.561200  0.936200  1.0
  C  C1495  1  0.265100  0.061200  0.936200  1.0
  C  C1496  1  0.765100  0.438800  0.063800  1.0
  C  C1497  1  0.726900  0.902500  0.039700  1.0
  C  C1498  1  0.226900  0.597500  0.960300  1.0
  C  C1499  1  0.273100  0.097500  0.960300  1.0
  C  C1500  1  0.773100  0.402500  0.039700  1.0
  C  C1501  1  0.623000  0.996300  0.947300  1.0
  C  C1502  1  0.123000  0.503700  0.052700  1.0
  C  C1503  1  0.377000  0.003700  0.052700  1.0
  C  C1504  1  0.877000  0.496300  0.947300  1.0
  C  C1505  1  0.668000  0.038200  0.993900  1.0
  C  C1506  1  0.168000  0.461800  0.006100  1.0
  C  C1507  1  0.332000  0.961800  0.006100  1.0
  C  C1508  1  0.832000  0.538200  0.993900  1.0
  C  C1509  1  0.683000  0.003300  0.998600  1.0
  C  C1510  1  0.183000  0.496700  0.001400  1.0
  C  C1511  1  0.317000  0.996700  0.001400  1.0
  C  C1512  1  0.817000  0.503300  0.998600  1.0
  C  C1513  1  0.676000  0.967500  0.975700  1.0
  C  C1514  1  0.176000  0.532500  0.024300  1.0
  C  C1515  1  0.324000  0.032500  0.024300  1.0
  C  C1516  1  0.824000  0.467500  0.975700  1.0
  C  C1517  1  0.780800  0.145100  0.158200  1.0
  C  C1518  1  0.280800  0.354900  0.841800  1.0
  C  C1519  1  0.219200  0.854900  0.841800  1.0
  C  C1520  1  0.719200  0.645100  0.158200  1.0
  C  C1521  1  0.743700  0.114600  0.106700  1.0
  C  C1522  1  0.243700  0.385400  0.893300  1.0
  C  C1523  1  0.256300  0.885400  0.893300  1.0
  C  C1524  1  0.756300  0.614600  0.106700  1.0
  C  C1525  1  0.750100  0.078100  0.107700  1.0
  C  C1526  1  0.250100  0.421900  0.892300  1.0
  C  C1527  1  0.249900  0.921900  0.892300  1.0
  C  C1528  1  0.749900  0.578100  0.107700  1.0
  C  C1529  1  0.771800  0.075100  0.134000  1.0
  C  C1530  1  0.271800  0.424900  0.866000  1.0
  C  C1531  1  0.228200  0.924900  0.866000  1.0
  C  C1532  1  0.728200  0.575100  0.134000  1.0
  C  C1533  1  0.733600  0.975900  0.061800  1.0
  C  C1534  1  0.233600  0.524100  0.938200  1.0
  C  C1535  1  0.266400  0.024100  0.938200  1.0
  C  C1536  1  0.766400  0.475900  0.061800  1.0
  C  C1537  1  0.741300  0.045700  0.078900  1.0
  C  C1538  1  0.241300  0.454300  0.921100  1.0
  C  C1539  1  0.258700  0.954300  0.921100  1.0
  C  C1540  1  0.758700  0.545700  0.078900  1.0
  C  C1541  1  0.716900  0.043600  0.051600  1.0
  C  C1542  1  0.216900  0.456400  0.948400  1.0
  C  C1543  1  0.283100  0.956400  0.948400  1.0
  C  C1544  1  0.783100  0.543600  0.051600  1.0
  C  C1545  1  0.700900  0.007700  0.029500  1.0
  C  C1546  1  0.200900  0.492300  0.970500  1.0
  C  C1547  1  0.299100  0.992300  0.970500  1.0
  C  C1548  1  0.799100  0.507700  0.029500  1.0
  C  C1549  1  0.804700  0.783800  0.998700  1.0
  C  C1550  1  0.304700  0.716200  0.001300  1.0
  C  C1551  1  0.195300  0.216200  0.001300  1.0
  C  C1552  1  0.695300  0.283800  0.998700  1.0
  C  C1553  1  0.850700  0.772000  0.982000  1.0
  C  C1554  1  0.350700  0.728000  0.018000  1.0
  C  C1555  1  0.149300  0.228000  0.018000  1.0
  C  C1556  1  0.649300  0.272000  0.982000  1.0
  C  C1557  1  0.862300  0.784200  0.958100  1.0
  C  C1558  1  0.362300  0.715800  0.041900  1.0
  C  C1559  1  0.137700  0.215800  0.041900  1.0
  C  C1560  1  0.637700  0.284200  0.958100  1.0
  C  C1561  1  0.827800  0.808200  0.951000  1.0
  C  C1562  1  0.327800  0.691800  0.049000  1.0
  C  C1563  1  0.172200  0.191800  0.049000  1.0
  C  C1564  1  0.672200  0.308200  0.951000  1.0
  C  C1565  1  0.781800  0.819900  0.967800  1.0
  C  C1566  1  0.281800  0.680100  0.032200  1.0
  C  C1567  1  0.218200  0.180100  0.032200  1.0
  C  C1568  1  0.718200  0.319900  0.967800  1.0
  C  C1569  1  0.028300  0.768600  0.831000  1.0
  C  C1570  1  0.528300  0.731400  0.169000  1.0
  C  C1571  1  0.971700  0.231400  0.169000  1.0
  C  C1572  1  0.471700  0.268600  0.831000  1.0
  C  C1573  1  0.951600  0.808600  0.840900  1.0
  C  C1574  1  0.451600  0.691400  0.159100  1.0
  C  C1575  1  0.048400  0.191400  0.159100  1.0
  C  C1576  1  0.548400  0.308600  0.840900  1.0
  C  C1577  1  0.942200  0.802300  0.867900  1.0
  C  C1578  1  0.442200  0.697700  0.132100  1.0
  C  C1579  1  0.057800  0.197700  0.132100  1.0
  C  C1580  1  0.557800  0.302300  0.867900  1.0
  C  C1581  1  0.975800  0.779100  0.876400  1.0
  C  C1582  1  0.475800  0.720900  0.123600  1.0
  C  C1583  1  0.024200  0.220900  0.123600  1.0
  C  C1584  1  0.524200  0.279100  0.876400  1.0
  C  C1585  1  0.692300  0.909400  0.868200  1.0
  C  C1586  1  0.192300  0.590600  0.131800  1.0
  C  C1587  1  0.307700  0.090600  0.131800  1.0
  C  C1588  1  0.807700  0.409400  0.868200  1.0
  C  C1589  1  0.775600  0.877500  0.858200  1.0
  C  C1590  1  0.275600  0.622500  0.141800  1.0
  C  C1591  1  0.224400  0.122500  0.141800  1.0
  C  C1592  1  0.724400  0.377500  0.858200  1.0
  C  C1593  1  0.769700  0.869200  0.884600  1.0
  C  C1594  1  0.269700  0.630800  0.115400  1.0
  C  C1595  1  0.230300  0.130800  0.115400  1.0
  C  C1596  1  0.730300  0.369200  0.884600  1.0
  C  C1597  1  0.725100  0.881000  0.902800  1.0
  C  C1598  1  0.225100  0.619000  0.097200  1.0
  C  C1599  1  0.274900  0.119000  0.097200  1.0
  C  C1600  1  0.774900  0.381000  0.902800  1.0
  C  C1601  1  0.838700  0.820400  0.927400  1.0
  C  C1602  1  0.338700  0.679600  0.072600  1.0
  C  C1603  1  0.161300  0.179600  0.072600  1.0
  C  C1604  1  0.661300  0.320400  0.927400  1.0
  C  C1605  1  0.812900  0.848100  0.891000  1.0
  C  C1606  1  0.312900  0.651900  0.109000  1.0
  C  C1607  1  0.187100  0.151900  0.109000  1.0
  C  C1608  1  0.687100  0.348100  0.891000  1.0
  C  C1609  1  0.859200  0.835400  0.874700  1.0
  C  C1610  1  0.359200  0.664600  0.125300  1.0
  C  C1611  1  0.140800  0.164600  0.125300  1.0
  C  C1612  1  0.640800  0.335400  0.874700  1.0
  C  C1613  1  0.895200  0.815200  0.884700  1.0
  C  C1614  1  0.395200  0.684800  0.115300  1.0
  C  C1615  1  0.104800  0.184800  0.115300  1.0
  C  C1616  1  0.604800  0.315200  0.884700  1.0
  C  C1617  1  0.065300  0.123100  0.866300  1.0
  C  C1618  1  0.565300  0.376900  0.133700  1.0
  C  C1619  1  0.934700  0.876900  0.133700  1.0
  C  C1620  1  0.434700  0.623100  0.866300  1.0
  C  C1621  1  0.090800  0.087300  0.854900  1.0
  C  C1622  1  0.590800  0.412700  0.145100  1.0
  C  C1623  1  0.909200  0.912700  0.145100  1.0
  C  C1624  1  0.409200  0.587300  0.854900  1.0
  C  C1625  1  0.062500  0.052900  0.846100  1.0
  C  C1626  1  0.562500  0.447100  0.153900  1.0
  C  C1627  1  0.937500  0.947100  0.153900  1.0
  C  C1628  1  0.437500  0.552900  0.846100  1.0
  C  C1629  1  0.008700  0.054200  0.848700  1.0
  C  C1630  1  0.508700  0.445800  0.151300  1.0
  C  C1631  1  0.991300  0.945800  0.151300  1.0
  C  C1632  1  0.491300  0.554200  0.848700  1.0
  C  C1633  1  0.983100  0.090000  0.860200  1.0
  C  C1634  1  0.483100  0.410000  0.139800  1.0
  C  C1635  1  0.016900  0.910000  0.139800  1.0
  C  C1636  1  0.516900  0.590000  0.860200  1.0
  C  C1637  1  0.755400  0.986500  0.832600  1.0
  C  C1638  1  0.255400  0.513500  0.167400  1.0
  C  C1639  1  0.244600  0.013500  0.167400  1.0
  C  C1640  1  0.744600  0.486500  0.832600  1.0
  C  C1641  1  0.835700  0.951500  0.827700  1.0
  C  C1642  1  0.335700  0.548500  0.172300  1.0
  C  C1643  1  0.164300  0.048500  0.172300  1.0
  C  C1644  1  0.664300  0.451500  0.827700  1.0
  C  C1645  1  0.863100  0.986400  0.837400  1.0
  C  C1646  1  0.363100  0.513600  0.162600  1.0
  C  C1647  1  0.136900  0.013600  0.162600  1.0
  C  C1648  1  0.636900  0.486400  0.837400  1.0
  C  C1649  1  0.836600  0.021400  0.844700  1.0
  C  C1650  1  0.336600  0.478600  0.155300  1.0
  C  C1651  1  0.163400  0.978600  0.155300  1.0
  C  C1652  1  0.663400  0.521400  0.844700  1.0
  C  C1653  1  0.096100  0.853000  0.801900  1.0
  C  C1654  1  0.596100  0.647000  0.198100  1.0
  C  C1655  1  0.903900  0.147000  0.198100  1.0
  C  C1656  1  0.403900  0.353000  0.801900  1.0
  C  C1657  1  0.010000  0.880400  0.808900  1.0
  C  C1658  1  0.510000  0.619600  0.191100  1.0
  C  C1659  1  0.990000  0.119600  0.191100  1.0
  C  C1660  1  0.490000  0.380400  0.808900  1.0
  C  C1661  1  0.031200  0.917500  0.817400  1.0
  C  C1662  1  0.531200  0.582500  0.182600  1.0
  C  C1663  1  0.968800  0.082500  0.182600  1.0
  C  C1664  1  0.468800  0.417500  0.817400  1.0
  C  C1665  1  0.084800  0.922300  0.818100  1.0
  C  C1666  1  0.584800  0.577700  0.181900  1.0
  C  C1667  1  0.915200  0.077700  0.181900  1.0
  C  C1668  1  0.415200  0.422300  0.818100  1.0
  C  C1669  1  0.993200  0.021000  0.847300  1.0
  C  C1670  1  0.493200  0.479000  0.152700  1.0
  C  C1671  1  0.006800  0.979000  0.152700  1.0
  C  C1672  1  0.506800  0.521000  0.847300  1.0
  C  C1673  1  0.996100  0.951200  0.831300  1.0
  C  C1674  1  0.496100  0.548800  0.168700  1.0
  C  C1675  1  0.003900  0.048800  0.168700  1.0
  C  C1676  1  0.503900  0.451200  0.831300  1.0
  C  C1677  1  0.942100  0.949800  0.829900  1.0
  C  C1678  1  0.442100  0.550200  0.170100  1.0
  C  C1679  1  0.057900  0.050200  0.170100  1.0
  C  C1680  1  0.557900  0.449800  0.829900  1.0
  C  C1681  1  0.913700  0.984000  0.837200  1.0
  C  C1682  1  0.413700  0.516000  0.162800  1.0
  C  C1683  1  0.086300  0.016000  0.162800  1.0
  C  C1684  1  0.586300  0.484000  0.837200  1.0
  C  C1685  1  0.121000  0.782400  0.512600  1.0
  C  C1686  1  0.621000  0.717600  0.487400  1.0
  C  C1687  1  0.879000  0.217600  0.487400  1.0
  C  C1688  1  0.379000  0.282400  0.512600  1.0
  C  C1689  1  0.093100  0.800200  0.497000  1.0
  C  C1690  1  0.593100  0.699800  0.503000  1.0
  C  C1691  1  0.906900  0.199800  0.503000  1.0
  C  C1692  1  0.406900  0.300200  0.497000  1.0
  C  C1693  1  0.034000  0.967200  0.604300  1.0
  C  C1694  1  0.534000  0.532800  0.395700  1.0
  C  C1695  1  0.966000  0.032800  0.395700  1.0
  C  C1696  1  0.466000  0.467200  0.604300  1.0
  C  C1697  1  0.023900  0.953200  0.570600  1.0
  C  C1698  1  0.523900  0.546800  0.429400  1.0
  C  C1699  1  0.976100  0.046800  0.429400  1.0
  C  C1700  1  0.476100  0.453200  0.570600  1.0
  C  C1701  1  0.031400  0.165700  0.537100  1.0
  C  C1702  1  0.531400  0.334300  0.462900  1.0
  C  C1703  1  0.968600  0.834300  0.462900  1.0
  C  C1704  1  0.468600  0.665700  0.537100  1.0
  C  C1705  1  0.014000  0.126700  0.512000  1.0
  C  C1706  1  0.514000  0.373300  0.488000  1.0
  C  C1707  1  0.986000  0.873300  0.488000  1.0
  C  C1708  1  0.486000  0.626700  0.512000  1.0
  C  C1709  1  0.231000  0.840200  0.269700  1.0
  C  C1710  1  0.731000  0.659800  0.730300  1.0
  C  C1711  1  0.769000  0.159800  0.730300  1.0
  C  C1712  1  0.269000  0.340200  0.269700  1.0
  C  C1713  1  0.272400  0.838000  0.246700  1.0
  C  C1714  1  0.772400  0.662000  0.753300  1.0
  C  C1715  1  0.727600  0.162000  0.753300  1.0
  C  C1716  1  0.227600  0.338000  0.246700  1.0
  C  C1717  1  0.209000  0.290200  0.693200  1.0
  C  C1718  1  0.709000  0.209800  0.306800  1.0
  C  C1719  1  0.791000  0.709800  0.306800  1.0
  C  C1720  1  0.291000  0.790200  0.693200  1.0
  C  C1721  1  0.181400  0.289500  0.666400  1.0
  C  C1722  1  0.681400  0.210500  0.333600  1.0
  C  C1723  1  0.818600  0.710500  0.333600  1.0
  C  C1724  1  0.318600  0.789500  0.666400  1.0
  C  C1725  1  0.421700  0.204500  0.344200  1.0
  C  C1726  1  0.921700  0.295500  0.655800  1.0
  C  C1727  1  0.578300  0.795500  0.655800  1.0
  C  C1728  1  0.078300  0.704500  0.344200  1.0
  C  C1729  1  0.480700  0.204600  0.345000  1.0
  C  C1730  1  0.980700  0.295400  0.655000  1.0
  C  C1731  1  0.519300  0.795400  0.655000  1.0
  C  C1732  1  0.019300  0.704600  0.345000  1.0
  C  C1733  1  0.492000  0.997300  0.775300  1.0
  C  C1734  1  0.992000  0.502700  0.224700  1.0
  C  C1735  1  0.508000  0.002700  0.224700  1.0
  C  C1736  1  0.008000  0.497300  0.775300  1.0
  C  C1737  1  0.483600  0.043100  0.788300  1.0
  C  C1738  1  0.983600  0.456900  0.211700  1.0
  C  C1739  1  0.516400  0.956900  0.211700  1.0
  C  C1740  1  0.016400  0.543100  0.788300  1.0
  C  C1741  1  0.188000  0.097000  0.748600  1.0
  C  C1742  1  0.688000  0.403000  0.251400  1.0
  C  C1743  1  0.812000  0.903000  0.251400  1.0
  C  C1744  1  0.312000  0.597000  0.748600  1.0
  C  C1745  1  0.220000  0.128500  0.760300  1.0
  C  C1746  1  0.720000  0.371500  0.239700  1.0
  C  C1747  1  0.780000  0.871500  0.239700  1.0
  C  C1748  1  0.280000  0.628500  0.760300  1.0
  C  C1749  1  0.153000  0.072400  0.326200  1.0
  C  C1750  1  0.653000  0.427600  0.673800  1.0
  C  C1751  1  0.847000  0.927600  0.673800  1.0
  C  C1752  1  0.347000  0.572400  0.326200  1.0
  C  C1753  1  0.169900  0.109300  0.344400  1.0
  C  C1754  1  0.669900  0.390700  0.655600  1.0
  C  C1755  1  0.830100  0.890700  0.655600  1.0
  C  C1756  1  0.330100  0.609300  0.344400  1.0
  C  C1757  1  0.591000  0.806700  0.002000  1.0
  C  C1758  1  0.091000  0.693300  0.998000  1.0
  C  C1759  1  0.409000  0.193300  0.998000  1.0
  C  C1760  1  0.909000  0.306700  0.002000  1.0
  C  C1761  1  0.613000  0.767000  0.988900  1.0
  C  C1762  1  0.113000  0.733000  0.011100  1.0
  C  C1763  1  0.387000  0.233000  0.011100  1.0
  C  C1764  1  0.887000  0.267000  0.988900  1.0
  C  C1765  1  0.934000  0.350300  0.132300  1.0
  C  C1766  1  0.434000  0.149700  0.867700  1.0
  C  C1767  1  0.066000  0.649700  0.867700  1.0
  C  C1768  1  0.566000  0.850300  0.132300  1.0
  C  C1769  1  0.976000  0.355200  0.150700  1.0
  C  C1770  1  0.476000  0.144800  0.849300  1.0
  C  C1771  1  0.024000  0.644800  0.849300  1.0
  C  C1772  1  0.524000  0.855200  0.150700  1.0
  C  C1773  1  0.440000  0.366900  0.672400  1.0
  C  C1774  1  0.940000  0.133100  0.327600  1.0
  C  C1775  1  0.560000  0.633100  0.327600  1.0
  C  C1776  1  0.060000  0.866900  0.672400  1.0
  C  C1777  1  0.431500  0.376100  0.647500  1.0
  C  C1778  1  0.931500  0.123900  0.352500  1.0
  C  C1779  1  0.568500  0.623900  0.352500  1.0
  C  C1780  1  0.068500  0.876100  0.647500  1.0
  C  C1781  1  0.973200  0.766400  0.720600  1.0
  C  C1782  1  0.473200  0.733600  0.279400  1.0
  C  C1783  1  0.026800  0.233600  0.279400  1.0
  C  C1784  1  0.526800  0.266400  0.720600  1.0
  C  C1785  1  0.966000  0.732900  0.724800  1.0
  C  C1786  1  0.466000  0.767100  0.275200  1.0
  C  C1787  1  0.034000  0.267100  0.275200  1.0
  C  C1788  1  0.534000  0.232900  0.724800  1.0
  C  C1789  1  0.730000  0.102700  0.807000  1.0
  C  C1790  1  0.230000  0.397300  0.193000  1.0
  C  C1791  1  0.270000  0.897300  0.193000  1.0
  C  C1792  1  0.770000  0.602700  0.807000  1.0
  C  C1793  1  0.690000  0.120600  0.826900  1.0
  C  C1794  1  0.190000  0.379400  0.173100  1.0
  C  C1795  1  0.310000  0.879400  0.173100  1.0
  C  C1796  1  0.810000  0.620600  0.826900  1.0
  C  C1797  1  0.665000  0.259800  0.154100  1.0
  C  C1798  1  0.165000  0.240200  0.845900  1.0
  C  C1799  1  0.335000  0.740200  0.845900  1.0
  C  C1800  1  0.835000  0.759800  0.154100  1.0
  C  C1801  1  0.637100  0.226700  0.148700  1.0
  C  C1802  1  0.137100  0.273300  0.851300  1.0
  C  C1803  1  0.362900  0.773300  0.851300  1.0
  C  C1804  1  0.862900  0.726700  0.148700  1.0
  C  C1805  1  0.531000  0.133900  0.967900  1.0
  C  C1806  1  0.031000  0.366100  0.032100  1.0
  C  C1807  1  0.469000  0.866100  0.032100  1.0
  C  C1808  1  0.969000  0.633900  0.967900  1.0
  C  C1809  1  0.518000  0.116000  0.986900  1.0
  C  C1810  1  0.018000  0.384000  0.013100  1.0
  C  C1811  1  0.482000  0.884000  0.013100  1.0
  C  C1812  1  0.982000  0.616000  0.986900  1.0
  C  C1813  1  0.523000  0.884600  0.924300  1.0
  C  C1814  1  0.023000  0.615400  0.075700  1.0
  C  C1815  1  0.477000  0.115400  0.075700  1.0
  C  C1816  1  0.977000  0.384600  0.924300  1.0
  C  C1817  1  0.535000  0.861100  0.894300  1.0
  C  C1818  1  0.035000  0.638900  0.105700  1.0
  C  C1819  1  0.465000  0.138900  0.105700  1.0
  C  C1820  1  0.965000  0.361100  0.894300  1.0
  C  C1821  1  0.969000  0.205000  0.831400  1.0
  C  C1822  1  0.469000  0.295000  0.168600  1.0
  C  C1823  1  0.031000  0.795000  0.168600  1.0
  C  C1824  1  0.531000  0.705000  0.831400  1.0
  C  C1825  1  0.930000  0.226100  0.850600  1.0
  C  C1826  1  0.430000  0.273900  0.149400  1.0
  C  C1827  1  0.070000  0.773900  0.149400  1.0
  C  C1828  1  0.570000  0.726100  0.850600  1.0
  C  C1829  1  0.731000  0.098000  0.242000  1.0
  C  C1830  1  0.231000  0.402000  0.758000  1.0
  C  C1831  1  0.269000  0.902000  0.758000  1.0
  C  C1832  1  0.769000  0.598000  0.242000  1.0
  C  C1833  1  0.773000  0.083000  0.249900  1.0
  C  C1834  1  0.273000  0.417000  0.750100  1.0
  C  C1835  1  0.227000  0.917000  0.750100  1.0
  C  C1836  1  0.727000  0.583000  0.249900  1.0
  C  C1837  1  0.711000  0.866000  0.743300  1.0
  C  C1838  1  0.211000  0.634000  0.256700  1.0
  C  C1839  1  0.289000  0.134000  0.256700  1.0
  C  C1840  1  0.789000  0.366000  0.743300  1.0
  C  C1841  1  0.679000  0.845800  0.755100  1.0
  C  C1842  1  0.179000  0.654200  0.244900  1.0
  C  C1843  1  0.321000  0.154200  0.244900  1.0
  C  C1844  1  0.821000  0.345800  0.755100  1.0
  C  C1845  1  0.103900  0.585300  0.512600  1.0
  C  C1846  1  0.603900  0.914700  0.487400  1.0
  C  C1847  1  0.896100  0.414700  0.487400  1.0
  C  C1848  1  0.396100  0.085300  0.512600  1.0
  C  C1849  1  0.111100  0.598100  0.544700  1.0
  C  C1850  1  0.611100  0.901900  0.455300  1.0
  C  C1851  1  0.888900  0.401900  0.455300  1.0
  C  C1852  1  0.388900  0.098100  0.544700  1.0
  C  C1853  1  0.072400  0.619400  0.565100  1.0
  C  C1854  1  0.572400  0.880600  0.434900  1.0
  C  C1855  1  0.927600  0.380600  0.434900  1.0
  C  C1856  1  0.427600  0.119400  0.565100  1.0
  C  C1857  1  0.026400  0.628000  0.553500  1.0
  C  C1858  1  0.526400  0.872000  0.446500  1.0
  C  C1859  1  0.973600  0.372000  0.446500  1.0
  C  C1860  1  0.473600  0.128000  0.553500  1.0
  C  C1861  1  0.019200  0.615100  0.521400  1.0
  C  C1862  1  0.519200  0.884900  0.478600  1.0
  C  C1863  1  0.980800  0.384900  0.478600  1.0
  C  C1864  1  0.480800  0.115100  0.521400  1.0
  C  C1865  1  0.057900  0.593800  0.501000  1.0
  C  C1866  1  0.557900  0.906200  0.499000  1.0
  C  C1867  1  0.942100  0.406200  0.499000  1.0
  C  C1868  1  0.442100  0.093800  0.501000  1.0
  C  C1869  1  0.050600  0.580900  0.468900  1.0
  C  C1870  1  0.550600  0.919100  0.531100  1.0
  C  C1871  1  0.949400  0.419100  0.531100  1.0
  C  C1872  1  0.449400  0.080900  0.468900  1.0
  C  C1873  1  0.004600  0.589400  0.457200  1.0
  C  C1874  1  0.504600  0.910600  0.542800  1.0
  C  C1875  1  0.995400  0.410600  0.542800  1.0
  C  C1876  1  0.495400  0.089400  0.457200  1.0
  C  C1877  1  0.965900  0.610800  0.477700  1.0
  C  C1878  1  0.465900  0.889200  0.522300  1.0
  C  C1879  1  0.034100  0.389200  0.522300  1.0
  C  C1880  1  0.534100  0.110800  0.477700  1.0
  C  C1881  1  0.973200  0.623600  0.509800  1.0
  C  C1882  1  0.473200  0.876400  0.490200  1.0
  C  C1883  1  0.026800  0.376400  0.490200  1.0
  C  C1884  1  0.526800  0.123600  0.509800  1.0
  C  C1885  1  0.057500  0.011100  0.086200  1.0
  C  C1886  1  0.557500  0.488900  0.913800  1.0
  C  C1887  1  0.942500  0.988900  0.913800  1.0
  C  C1888  1  0.442500  0.511100  0.086200  1.0
  C  C1889  1  0.095600  0.983000  0.082100  1.0
  C  C1890  1  0.595600  0.517000  0.917900  1.0
  C  C1891  1  0.904400  0.017000  0.917900  1.0
  C  C1892  1  0.404400  0.483000  0.082100  1.0
  C  C1893  1  0.082000  0.944000  0.074500  1.0
  C  C1894  1  0.582000  0.556000  0.925500  1.0
  C  C1895  1  0.918000  0.056000  0.925500  1.0
  C  C1896  1  0.418000  0.444000  0.074500  1.0
  C  C1897  1  0.030000  0.933700  0.070900  1.0
  C  C1898  1  0.530000  0.566300  0.929100  1.0
  C  C1899  1  0.970000  0.066300  0.929100  1.0
  C  C1900  1  0.470000  0.433700  0.070900  1.0
  C  C1901  1  0.991000  0.961700  0.074900  1.0
  C  C1902  1  0.491000  0.538300  0.925100  1.0
  C  C1903  1  0.009000  0.038300  0.925100  1.0
  C  C1904  1  0.509000  0.461700  0.074900  1.0
  C  C1905  1  0.005400  0.000400  0.082600  1.0
  C  C1906  1  0.505400  0.499600  0.917400  1.0
  C  C1907  1  0.994600  0.999600  0.917400  1.0
  C  C1908  1  0.494600  0.500400  0.082600  1.0
  C  C1909  1  0.967000  0.028400  0.086600  1.0
  C  C1910  1  0.467000  0.471600  0.913400  1.0
  C  C1911  1  0.033000  0.971600  0.913400  1.0
  C  C1912  1  0.533000  0.528400  0.086600  1.0
  C  C1913  1  0.915200  0.017600  0.083000  1.0
  C  C1914  1  0.415200  0.482400  0.917000  1.0
  C  C1915  1  0.084800  0.982400  0.917000  1.0
  C  C1916  1  0.584800  0.517600  0.083000  1.0
  C  C1917  1  0.901200  0.979000  0.075400  1.0
  C  C1918  1  0.401200  0.521000  0.924600  1.0
  C  C1919  1  0.098800  0.021000  0.924600  1.0
  C  C1920  1  0.598800  0.479000  0.075400  1.0
  C  C1921  1  0.939000  0.950900  0.071300  1.0
  C  C1922  1  0.439000  0.549100  0.928700  1.0
  C  C1923  1  0.061000  0.049100  0.928700  1.0
  C  C1924  1  0.561000  0.450900  0.071300  1.0
  N  N1925  1  0.551900  0.501100  0.503600  0.7
  N  N1926  1  0.051900  0.998900  0.496400  0.7
  N  N1927  1  0.448100  0.498900  0.496400  0.7
  N  N1928  1  0.948100  0.001100  0.503600  0.7
  N  N1929  1  0.273200  0.822400  0.512100  1.0
  N  N1930  1  0.773200  0.677600  0.487900  1.0
  N  N1931  1  0.726800  0.177600  0.487900  1.0
  N  N1932  1  0.226800  0.322400  0.512100  1.0
  N  N1933  1  0.518000  0.904700  0.644900  1.0
  N  N1934  1  0.018000  0.595300  0.355100  1.0
  N  N1935  1  0.482000  0.095300  0.355100  1.0
  N  N1936  1  0.982000  0.404700  0.644900  1.0
  N  N1937  1  0.496000  0.968100  0.677000  1.0
  N  N1938  1  0.996000  0.531900  0.323000  1.0
  N  N1939  1  0.504000  0.031900  0.323000  1.0
  N  N1940  1  0.004000  0.468100  0.677000  1.0
  N  N1941  1  0.230600  0.047700  0.650200  1.0
  N  N1942  1  0.730600  0.452300  0.349800  1.0
  N  N1943  1  0.769400  0.952300  0.349800  1.0
  N  N1944  1  0.269400  0.547700  0.650200  1.0
  N  N1945  1  0.191600  0.007200  0.605600  1.0
  N  N1946  1  0.691600  0.492800  0.394400  1.0
  N  N1947  1  0.808400  0.992800  0.394400  1.0
  N  N1948  1  0.308400  0.507200  0.605600  1.0
  N  N1949  1  0.386300  0.900100  0.593000  1.0
  N  N1950  1  0.886300  0.599900  0.407000  1.0
  N  N1951  1  0.613700  0.099900  0.407000  1.0
  N  N1952  1  0.113700  0.400100  0.593000  1.0
  N  N1953  1  0.304500  0.924300  0.582900  1.0
  N  N1954  1  0.804500  0.575700  0.417100  1.0
  N  N1955  1  0.695500  0.075700  0.417100  1.0
  N  N1956  1  0.195500  0.424300  0.582900  1.0
  N  N1957  1  0.515300  0.253300  0.630100  1.0
  N  N1958  1  0.015300  0.246700  0.369900  1.0
  N  N1959  1  0.484700  0.746700  0.369900  1.0
  N  N1960  1  0.984700  0.753300  0.630100  1.0
  N  N1961  1  0.281300  0.174100  0.651600  1.0
  N  N1962  1  0.781300  0.325900  0.348400  1.0
  N  N1963  1  0.718700  0.825900  0.348400  1.0
  N  N1964  1  0.218700  0.674100  0.651600  1.0
  N  N1965  1  0.274300  0.126200  0.674500  1.0
  N  N1966  1  0.774300  0.373800  0.325500  1.0
  N  N1967  1  0.725700  0.873800  0.325500  1.0
  N  N1968  1  0.225700  0.626200  0.674500  1.0
  N  N1969  1  0.610500  0.081800  0.693400  1.0
  N  N1970  1  0.110500  0.418200  0.306600  1.0
  N  N1971  1  0.389500  0.918200  0.306600  1.0
  N  N1972  1  0.889500  0.581800  0.693400  1.0
  N  N1973  1  0.540800  0.048300  0.701400  1.0
  N  N1974  1  0.040800  0.451700  0.298600  1.0
  N  N1975  1  0.459200  0.951700  0.298600  1.0
  N  N1976  1  0.959200  0.548300  0.701400  1.0
  N  N1977  1  0.437400  0.168100  0.649200  1.0
  N  N1978  1  0.937400  0.331900  0.350800  1.0
  N  N1979  1  0.562600  0.831900  0.350800  1.0
  N  N1980  1  0.062600  0.668100  0.649200  1.0
  N  N1981  1  0.521800  0.146000  0.658800  1.0
  N  N1982  1  0.021800  0.354000  0.341200  1.0
  N  N1983  1  0.478200  0.854000  0.341200  1.0
  N  N1984  1  0.978200  0.646000  0.658800  1.0
  N  N1985  1  0.477300  0.261000  0.578500  1.0
  N  N1986  1  0.977300  0.239000  0.421500  1.0
  N  N1987  1  0.522700  0.739000  0.421500  1.0
  N  N1988  1  0.022700  0.761000  0.578500  1.0
  N  N1989  1  0.382600  0.127300  0.391700  1.0
  N  N1990  1  0.882600  0.372700  0.608300  1.0
  N  N1991  1  0.617400  0.872700  0.608300  1.0
  N  N1992  1  0.117400  0.627300  0.391700  1.0
  N  N1993  1  0.305000  0.095300  0.390700  1.0
  N  N1994  1  0.805000  0.404700  0.609300  1.0
  N  N1995  1  0.695000  0.904700  0.609300  1.0
  N  N1996  1  0.195000  0.595300  0.390700  1.0
  N  N1997  1  0.238200  0.182800  0.596500  1.0
  N  N1998  1  0.738200  0.317200  0.403500  1.0
  N  N1999  1  0.761800  0.817200  0.403500  1.0
  N  N2000  1  0.261800  0.682800  0.596500  1.0
  N  N2001  1  0.184700  0.143300  0.553000  1.0
  N  N2002  1  0.684700  0.356700  0.447000  1.0
  N  N2003  1  0.815300  0.856700  0.447000  1.0
  N  N2004  1  0.315300  0.643300  0.553000  1.0
  N  N2005  1  0.356800  0.183400  0.537100  1.0
  N  N2006  1  0.856800  0.316600  0.462900  1.0
  N  N2007  1  0.643200  0.816600  0.462900  1.0
  N  N2008  1  0.143200  0.683400  0.537100  1.0
  N  N2009  1  0.390500  0.166900  0.484700  1.0
  N  N2010  1  0.890500  0.333100  0.515300  1.0
  N  N2011  1  0.609500  0.833100  0.515300  1.0
  N  N2012  1  0.109500  0.666900  0.484700  1.0
  N  N2013  1  0.145200  0.015100  0.548300  1.0
  N  N2014  1  0.645200  0.484900  0.451700  1.0
  N  N2015  1  0.854800  0.984900  0.451700  1.0
  N  N2016  1  0.354800  0.515100  0.548300  1.0
  N  N2017  1  0.143300  0.068700  0.530800  1.0
  N  N2018  1  0.643300  0.431300  0.469200  1.0
  N  N2019  1  0.856700  0.931300  0.469200  1.0
  N  N2020  1  0.356700  0.568700  0.530800  1.0
  N  N2021  1  0.289100  0.952100  0.342600  1.0
  N  N2022  1  0.789100  0.547900  0.657400  1.0
  N  N2023  1  0.710900  0.047900  0.657400  1.0
  N  N2024  1  0.210900  0.452100  0.342600  1.0
  N  N2025  1  0.263700  0.016700  0.366400  1.0
  N  N2026  1  0.763700  0.483300  0.633600  1.0
  N  N2027  1  0.736300  0.983300  0.633600  1.0
  N  N2028  1  0.236300  0.516700  0.366400  1.0
  N  N2029  1  0.249700  0.926100  0.418800  1.0
  N  N2030  1  0.749700  0.573900  0.581200  1.0
  N  N2031  1  0.750300  0.073900  0.581200  1.0
  N  N2032  1  0.250300  0.426100  0.418800  1.0
  N  N2033  1  0.214100  0.941200  0.467200  1.0
  N  N2034  1  0.714100  0.558800  0.532800  1.0
  N  N2035  1  0.785900  0.058800  0.532800  1.0
  N  N2036  1  0.285900  0.441200  0.467200  1.0
  N  N2037  1  0.225700  0.827100  0.455500  1.0
  N  N2038  1  0.725700  0.672900  0.544500  1.0
  N  N2039  1  0.774300  0.172900  0.544500  1.0
  N  N2040  1  0.274300  0.327100  0.455500  1.0
  N  N2041  1  0.972600  0.185700  0.920500  1.0
  N  N2042  1  0.472600  0.314300  0.079500  1.0
  N  N2043  1  0.027400  0.814300  0.079500  1.0
  N  N2044  1  0.527400  0.685700  0.920500  1.0
  N  N2045  1  0.887000  0.233200  0.107500  1.0
  N  N2046  1  0.387000  0.266800  0.892500  1.0
  N  N2047  1  0.113000  0.766800  0.892500  1.0
  N  N2048  1  0.613000  0.733200  0.107500  1.0
  N  N2049  1  0.805700  0.204900  0.111600  1.0
  N  N2050  1  0.305700  0.295100  0.888400  1.0
  N  N2051  1  0.194300  0.795100  0.888400  1.0
  N  N2052  1  0.694300  0.704900  0.111600  1.0
  N  N2053  1  0.732700  0.085400  0.901100  1.0
  N  N2054  1  0.232700  0.414600  0.098900  1.0
  N  N2055  1  0.267300  0.914600  0.098900  1.0
  N  N2056  1  0.767300  0.585400  0.901100  1.0
  N  N2057  1  0.688000  0.088200  0.947300  1.0
  N  N2058  1  0.188000  0.411800  0.052700  1.0
  N  N2059  1  0.312000  0.911800  0.052700  1.0
  N  N2060  1  0.812000  0.588200  0.947300  1.0
  N  N2061  1  0.889700  0.180700  0.010000  1.0
  N  N2062  1  0.389700  0.319300  0.990000  1.0
  N  N2063  1  0.110300  0.819300  0.990000  1.0
  N  N2064  1  0.610300  0.680700  0.010000  1.0
  N  N2065  1  0.849000  0.142100  0.963000  1.0
  N  N2066  1  0.349000  0.357900  0.037000  1.0
  N  N2067  1  0.151000  0.857900  0.037000  1.0
  N  N2068  1  0.651000  0.642100  0.963000  1.0
  N  N2069  1  0.734600  0.868600  0.044800  1.0
  N  N2070  1  0.234600  0.631400  0.955200  1.0
  N  N2071  1  0.265400  0.131400  0.955200  1.0
  N  N2072  1  0.765400  0.368600  0.044800  1.0
  N  N2073  1  0.650100  0.963200  0.948400  1.0
  N  N2074  1  0.150100  0.536800  0.051600  1.0
  N  N2075  1  0.349900  0.036800  0.051600  1.0
  N  N2076  1  0.849900  0.463200  0.948400  1.0
  N  N2077  1  0.640400  0.029400  0.968800  1.0
  N  N2078  1  0.140400  0.470600  0.031200  1.0
  N  N2079  1  0.359600  0.970600  0.031200  1.0
  N  N2080  1  0.859600  0.529400  0.968800  1.0
  N  N2081  1  0.787200  0.108600  0.159200  1.0
  N  N2082  1  0.287200  0.391400  0.840800  1.0
  N  N2083  1  0.212800  0.891400  0.840800  1.0
  N  N2084  1  0.712800  0.608600  0.159200  1.0
  N  N2085  1  0.759100  0.148000  0.131900  1.0
  N  N2086  1  0.259100  0.352000  0.868100  1.0
  N  N2087  1  0.240900  0.852000  0.868100  1.0
  N  N2088  1  0.740900  0.648000  0.131900  1.0
  N  N2089  1  0.709200  0.973900  0.034600  1.0
  N  N2090  1  0.209200  0.526100  0.965400  1.0
  N  N2091  1  0.290800  0.026100  0.965400  1.0
  N  N2092  1  0.790800  0.473900  0.034600  1.0
  N  N2093  1  0.749600  0.011900  0.083900  1.0
  N  N2094  1  0.249600  0.488100  0.916100  1.0
  N  N2095  1  0.250400  0.988100  0.916100  1.0
  N  N2096  1  0.750400  0.511900  0.083900  1.0
  N  N2097  1  0.770200  0.807700  0.991600  1.0
  N  N2098  1  0.270200  0.692300  0.008400  1.0
  N  N2099  1  0.229800  0.192300  0.008400  1.0
  N  N2100  1  0.729800  0.307700  0.991600  1.0
  N  N2101  1  0.018900  0.762300  0.858000  1.0
  N  N2102  1  0.518900  0.737700  0.142000  1.0
  N  N2103  1  0.981100  0.237700  0.142000  1.0
  N  N2104  1  0.481100  0.262300  0.858000  1.0
  N  N2105  1  0.994600  0.791800  0.822500  1.0
  N  N2106  1  0.494600  0.708200  0.177500  1.0
  N  N2107  1  0.005400  0.208200  0.177500  1.0
  N  N2108  1  0.505400  0.291800  0.822500  1.0
  N  N2109  1  0.686400  0.901100  0.894600  1.0
  N  N2110  1  0.186400  0.598900  0.105400  1.0
  N  N2111  1  0.313600  0.098900  0.105400  1.0
  N  N2112  1  0.813600  0.401100  0.894600  1.0
  N  N2113  1  0.736900  0.897600  0.850000  1.0
  N  N2114  1  0.236900  0.602400  0.150000  1.0
  N  N2115  1  0.263100  0.102400  0.150000  1.0
  N  N2116  1  0.763100  0.397600  0.850000  1.0
  N  N2117  1  0.885000  0.807700  0.911100  1.0
  N  N2118  1  0.385000  0.692300  0.088900  1.0
  N  N2119  1  0.115000  0.192300  0.088900  1.0
  N  N2120  1  0.615000  0.307700  0.911100  1.0
  N  N2121  1  0.802700  0.840600  0.917300  1.0
  N  N2122  1  0.302700  0.659400  0.082700  1.0
  N  N2123  1  0.197300  0.159400  0.082700  1.0
  N  N2124  1  0.697300  0.340600  0.917300  1.0
  N  N2125  1  0.011400  0.124400  0.869000  1.0
  N  N2126  1  0.511400  0.375600  0.131000  1.0
  N  N2127  1  0.988600  0.875600  0.131000  1.0
  N  N2128  1  0.488600  0.624400  0.869000  1.0
  N  N2129  1  0.782700  0.021400  0.842200  1.0
  N  N2130  1  0.282700  0.478600  0.157800  1.0
  N  N2131  1  0.217300  0.978600  0.157800  1.0
  N  N2132  1  0.717300  0.521400  0.842200  1.0
  N  N2133  1  0.781900  0.951500  0.825300  1.0
  N  N2134  1  0.281900  0.548500  0.174700  1.0
  N  N2135  1  0.218100  0.048500  0.174700  1.0
  N  N2136  1  0.718100  0.451500  0.825300  1.0
  N  N2137  1  0.117300  0.890100  0.810400  1.0
  N  N2138  1  0.617300  0.609900  0.189600  1.0
  N  N2139  1  0.882700  0.109900  0.189600  1.0
  N  N2140  1  0.382700  0.390100  0.810400  1.0
  N  N2141  1  0.042500  0.848200  0.801200  1.0
  N  N2142  1  0.542500  0.651800  0.198800  1.0
  N  N2143  1  0.957500  0.151800  0.198800  1.0
  N  N2144  1  0.457500  0.348200  0.801200  1.0
  N  N2145  1  0.939300  0.019600  0.845900  1.0
  N  N2146  1  0.439300  0.480400  0.154100  1.0
  N  N2147  1  0.060700  0.980400  0.154100  1.0
  N  N2148  1  0.560700  0.519600  0.845900  1.0
  N  N2149  1  0.021600  0.986800  0.840000  1.0
  N  N2150  1  0.521600  0.513200  0.160000  1.0
  N  N2151  1  0.978400  0.013200  0.160000  1.0
  N  N2152  1  0.478400  0.486800  0.840000  1.0
  N  N2153  1  0.170100  0.799800  0.523600  1.0
  N  N2154  1  0.670100  0.700200  0.476400  1.0
  N  N2155  1  0.829900  0.200200  0.476400  1.0
  N  N2156  1  0.329900  0.299800  0.523600  1.0
  N  N2157  1  0.127600  0.801300  0.471100  1.0
  N  N2158  1  0.627600  0.698700  0.528900  1.0
  N  N2159  1  0.872400  0.198700  0.528900  1.0
  N  N2160  1  0.372400  0.301300  0.471100  1.0
  N  N2161  1  0.090200  0.973700  0.613900  1.0
  N  N2162  1  0.590200  0.526300  0.386100  1.0
  N  N2163  1  0.909800  0.026300  0.386100  1.0
  N  N2164  1  0.409800  0.473700  0.613900  1.0
  N  N2165  1  0.049700  0.981700  0.560200  1.0
  N  N2166  1  0.549700  0.518300  0.439800  1.0
  N  N2167  1  0.950300  0.018300  0.439800  1.0
  N  N2168  1  0.450300  0.481700  0.560200  1.0
  N  N2169  1  0.088700  0.169200  0.538500  1.0
  N  N2170  1  0.588700  0.330800  0.461500  1.0
  N  N2171  1  0.911300  0.830800  0.461500  1.0
  N  N2172  1  0.411300  0.669200  0.538500  1.0
  N  N2173  1  0.050000  0.099000  0.517800  1.0
  N  N2174  1  0.550000  0.401000  0.482200  1.0
  N  N2175  1  0.950000  0.901000  0.482200  1.0
  N  N2176  1  0.450000  0.599000  0.517800  1.0
  N  N2177  1  0.232000  0.886500  0.291300  1.0
  N  N2178  1  0.732000  0.613500  0.708700  1.0
  N  N2179  1  0.768000  0.113500  0.708700  1.0
  N  N2180  1  0.268000  0.386500  0.291300  1.0
  N  N2181  1  0.323400  0.857700  0.259000  1.0
  N  N2182  1  0.823400  0.642300  0.741000  1.0
  N  N2183  1  0.676600  0.142300  0.741000  1.0
  N  N2184  1  0.176600  0.357700  0.259000  1.0
  N  N2185  1  0.242200  0.255400  0.688000  1.0
  N  N2186  1  0.742200  0.244600  0.312000  1.0
  N  N2187  1  0.757800  0.744600  0.312000  1.0
  N  N2188  1  0.257800  0.755400  0.688000  1.0
  N  N2189  1  0.208300  0.261700  0.639700  1.0
  N  N2190  1  0.708300  0.238300  0.360300  1.0
  N  N2191  1  0.791700  0.738300  0.360300  1.0
  N  N2192  1  0.291700  0.761700  0.639700  1.0
  N  N2193  1  0.402300  0.194100  0.371200  1.0
  N  N2194  1  0.902300  0.305900  0.628800  1.0
  N  N2195  1  0.597700  0.805900  0.628800  1.0
  N  N2196  1  0.097700  0.694100  0.371200  1.0
  N  N2197  1  0.491900  0.164200  0.343500  1.0
  N  N2198  1  0.991900  0.335800  0.656500  1.0
  N  N2199  1  0.508100  0.835800  0.656500  1.0
  N  N2200  1  0.008100  0.664200  0.343500  1.0
  N  N2201  1  0.482200  0.979100  0.742800  1.0
  N  N2202  1  0.982200  0.520900  0.257200  1.0
  N  N2203  1  0.517800  0.020900  0.257200  1.0
  N  N2204  1  0.017800  0.479100  0.742800  1.0
  N  N2205  1  0.515200  0.056000  0.765500  1.0
  N  N2206  1  0.015200  0.444000  0.234500  1.0
  N  N2207  1  0.484800  0.944000  0.234500  1.0
  N  N2208  1  0.984800  0.556000  0.765500  1.0
  N  N2209  1  0.196500  0.069200  0.717600  1.0
  N  N2210  1  0.696500  0.430800  0.282400  1.0
  N  N2211  1  0.803500  0.930800  0.282400  1.0
  N  N2212  1  0.303500  0.569200  0.717600  1.0
  N  N2213  1  0.238000  0.138700  0.733500  1.0
  N  N2214  1  0.738000  0.361300  0.266500  1.0
  N  N2215  1  0.762000  0.861300  0.266500  1.0
  N  N2216  1  0.262000  0.638700  0.733500  1.0
  N  N2217  1  0.179700  0.044300  0.336500  1.0
  N  N2218  1  0.679700  0.455700  0.663500  1.0
  N  N2219  1  0.820300  0.955700  0.663500  1.0
  N  N2220  1  0.320300  0.544300  0.336500  1.0
  N  N2221  1  0.221700  0.118100  0.360400  1.0
  N  N2222  1  0.721700  0.381900  0.639600  1.0
  N  N2223  1  0.778300  0.881900  0.639600  1.0
  N  N2224  1  0.278300  0.618100  0.360400  1.0
  N  N2225  1  0.631800  0.825700  0.026200  1.0
  N  N2226  1  0.131800  0.674300  0.973800  1.0
  N  N2227  1  0.368200  0.174300  0.973800  1.0
  N  N2228  1  0.868200  0.325700  0.026200  1.0
  N  N2229  1  0.670600  0.771200  0.975600  1.0
  N  N2230  1  0.170600  0.728800  0.024400  1.0
  N  N2231  1  0.329400  0.228800  0.024400  1.0
  N  N2232  1  0.829400  0.271200  0.975600  1.0
  N  N2233  1  0.901200  0.317300  0.125800  1.0
  N  N2234  1  0.401200  0.182700  0.874200  1.0
  N  N2235  1  0.098800  0.682700  0.874200  1.0
  N  N2236  1  0.598800  0.817300  0.125800  1.0
  N  N2237  1  0.994500  0.316300  0.149400  1.0
  N  N2238  1  0.494500  0.183700  0.850600  1.0
  N  N2239  1  0.005500  0.683700  0.850600  1.0
  N  N2240  1  0.505500  0.816300  0.149400  1.0
  N  N2241  1  0.464800  0.331700  0.668500  1.0
  N  N2242  1  0.964800  0.168300  0.331500  1.0
  N  N2243  1  0.535200  0.668300  0.331500  1.0
  N  N2244  1  0.035200  0.831700  0.668500  1.0
  N  N2245  1  0.429700  0.340100  0.617500  1.0
  N  N2246  1  0.929700  0.159900  0.382500  1.0
  N  N2247  1  0.570300  0.659900  0.382500  1.0
  N  N2248  1  0.070300  0.840100  0.617500  1.0
  N  N2249  1  0.013700  0.791800  0.737000  1.0
  N  N2250  1  0.513700  0.708200  0.263000  1.0
  N  N2251  1  0.986300  0.208200  0.263000  1.0
  N  N2252  1  0.486300  0.291800  0.737000  1.0
  N  N2253  1  0.971600  0.742100  0.759400  1.0
  N  N2254  1  0.471600  0.757900  0.240600  1.0
  N  N2255  1  0.028400  0.257900  0.240600  1.0
  N  N2256  1  0.528400  0.242100  0.759400  1.0
  N  N2257  1  0.746000  0.066500  0.807500  1.0
  N  N2258  1  0.246000  0.433500  0.192500  1.0
  N  N2259  1  0.254000  0.933500  0.192500  1.0
  N  N2260  1  0.754000  0.566500  0.807500  1.0
  N  N2261  1  0.705400  0.122600  0.859000  1.0
  N  N2262  1  0.205400  0.377400  0.141000  1.0
  N  N2263  1  0.294600  0.877400  0.141000  1.0
  N  N2264  1  0.794600  0.622600  0.859000  1.0
  N  N2265  1  0.715400  0.254600  0.140700  1.0
  N  N2266  1  0.215400  0.245400  0.859300  1.0
  N  N2267  1  0.284600  0.745400  0.859300  1.0
  N  N2268  1  0.784600  0.754600  0.140700  1.0
  N  N2269  1  0.673800  0.197900  0.153700  1.0
  N  N2270  1  0.173800  0.302100  0.846300  1.0
  N  N2271  1  0.326200  0.802100  0.846300  1.0
  N  N2272  1  0.826200  0.697900  0.153700  1.0
  N  N2273  1  0.580900  0.125800  0.954200  1.0
  N  N2274  1  0.080900  0.374200  0.045800  1.0
  N  N2275  1  0.419100  0.874200  0.045800  1.0
  N  N2276  1  0.919100  0.625800  0.954200  1.0
  N  N2277  1  0.541600  0.075700  0.975600  1.0
  N  N2278  1  0.041600  0.424300  0.024400  1.0
  N  N2279  1  0.458400  0.924300  0.024400  1.0
  N  N2280  1  0.958400  0.575700  0.975600  1.0
  N  N2281  1  0.548000  0.921800  0.936800  1.0
  N  N2282  1  0.048000  0.578200  0.063200  1.0
  N  N2283  1  0.452000  0.078200  0.063200  1.0
  N  N2284  1  0.952000  0.421800  0.936800  1.0
  N  N2285  1  0.592000  0.864700  0.888700  1.0
  N  N2286  1  0.092000  0.635300  0.111300  1.0
  N  N2287  1  0.408000  0.135300  0.111300  1.0
  N  N2288  1  0.908000  0.364700  0.888700  1.0
  N  N2289  1  0.973000  0.165600  0.828100  1.0
  N  N2290  1  0.473000  0.334400  0.171900  1.0
  N  N2291  1  0.027000  0.834400  0.171900  1.0
  N  N2292  1  0.527000  0.665600  0.828100  1.0
  N  N2293  1  0.933000  0.220200  0.880900  1.0
  N  N2294  1  0.433000  0.279800  0.119100  1.0
  N  N2295  1  0.067000  0.779800  0.119100  1.0
  N  N2296  1  0.567000  0.720200  0.880900  1.0
  N  N2297  1  0.731600  0.100200  0.212000  1.0
  N  N2298  1  0.231600  0.399800  0.788000  1.0
  N  N2299  1  0.268400  0.899800  0.788000  1.0
  N  N2300  1  0.768400  0.600200  0.212000  1.0
  N  N2301  1  0.820500  0.103000  0.243700  1.0
  N  N2302  1  0.320500  0.397000  0.756300  1.0
  N  N2303  1  0.179500  0.897000  0.756300  1.0
  N  N2304  1  0.679500  0.603000  0.243700  1.0
  N  N2305  1  0.726000  0.903900  0.763700  1.0
  N  N2306  1  0.226000  0.596100  0.236300  1.0
  N  N2307  1  0.274000  0.096100  0.236300  1.0
  N  N2308  1  0.774000  0.403900  0.763700  1.0
  N  N2309  1  0.700800  0.850500  0.786500  1.0
  N  N2310  1  0.200800  0.649500  0.213500  1.0
  N  N2311  1  0.299200  0.149500  0.213500  1.0
  N  N2312  1  0.799200  0.350500  0.786500  1.0
  N  N2313  1  0.867700  0.445900  0.290400  1.0
  N  N2314  1  0.367700  0.054100  0.709600  1.0
  N  N2315  1  0.132300  0.554100  0.709600  1.0
  N  N2316  1  0.632300  0.945900  0.290400  1.0
  N  N2317  1  0.860100  0.360600  0.960300  1.0
  N  N2318  1  0.360100  0.139400  0.039700  1.0
  N  N2319  1  0.139900  0.639400  0.039700  1.0
  N  N2320  1  0.639900  0.860600  0.960300  1.0
  N  N2321  1  0.174300  0.324700  0.325600  1.0
  N  N2322  1  0.674300  0.175300  0.674400  1.0
  N  N2323  1  0.825700  0.675300  0.674400  1.0
  N  N2324  1  0.325700  0.824700  0.325600  1.0
  N  N2325  1  0.357100  0.401500  0.534800  1.0
  N  N2326  1  0.857100  0.098500  0.465200  1.0
  N  N2327  1  0.642900  0.598500  0.465200  1.0
  N  N2328  1  0.142900  0.901500  0.534800  1.0
  N  N2329  1  0.246700  0.582300  0.587600  1.0
  N  N2330  1  0.746700  0.917700  0.412400  1.0
  N  N2331  1  0.753300  0.417700  0.412400  1.0
  N  N2332  1  0.253300  0.082300  0.587600  1.0
  N  N2333  1  0.330500  0.594100  0.448600  1.0
  N  N2334  1  0.830500  0.905900  0.551400  1.0
  N  N2335  1  0.669500  0.405900  0.551400  1.0
  N  N2336  1  0.169500  0.094100  0.448600  1.0
  N  N2337  1  0.996400  0.713500  0.437400  1.0
  N  N2338  1  0.496400  0.786500  0.562600  1.0
  N  N2339  1  0.003600  0.286500  0.562600  1.0
  N  N2340  1  0.503600  0.213500  0.437400  1.0
  N  N2341  1  0.267100  0.756500  0.559000  1.0
  N  N2342  1  0.767100  0.743500  0.441000  1.0
  N  N2343  1  0.732900  0.243500  0.441000  1.0
  N  N2344  1  0.232900  0.256500  0.559000  1.0
  N  N2345  1  0.131600  0.154900  0.213300  1.0
  N  N2346  1  0.631600  0.345100  0.786700  1.0
  N  N2347  1  0.868400  0.845100  0.786700  1.0
  N  N2348  1  0.368400  0.654900  0.213300  1.0
  N  N2349  1  0.286700  0.203400  0.432900  1.0
  N  N2350  1  0.786700  0.296600  0.567100  1.0
  N  N2351  1  0.713300  0.796600  0.567100  1.0
  N  N2352  1  0.213300  0.703400  0.432900  1.0
  N  N2353  1  0.388300  0.621100  0.639400  1.0
  N  N2354  1  0.888300  0.878900  0.360600  1.0
  N  N2355  1  0.611700  0.378900  0.360600  1.0
  N  N2356  1  0.111700  0.121100  0.639400  1.0
  N  N2357  1  0.670400  0.143800  0.050700  1.0
  N  N2358  1  0.170400  0.356200  0.949300  1.0
  N  N2359  1  0.329600  0.856200  0.949300  1.0
  N  N2360  1  0.829600  0.643800  0.050700  1.0
  N  N2361  1  0.887800  0.494900  0.865200  1.0
  N  N2362  1  0.387800  0.005100  0.134800  1.0
  N  N2363  1  0.112200  0.505100  0.134800  1.0
  N  N2364  1  0.612200  0.994900  0.865200  1.0
  N  N2365  1  0.779000  0.996000  0.165600  1.0
  N  N2366  1  0.279000  0.504000  0.834400  1.0
  N  N2367  1  0.221000  0.004000  0.834400  1.0
  N  N2368  1  0.721000  0.496000  0.165600  1.0
  N  N2369  1  0.097600  0.520400  0.372300  1.0
  N  N2370  1  0.597600  0.979600  0.627700  1.0
  N  N2371  1  0.902400  0.479600  0.627700  1.0
  N  N2372  1  0.402400  0.020400  0.372300  1.0
  N  N2373  1  0.586000  0.565700  0.549100  0.3
  N  N2374  1  0.086000  0.934300  0.450900  0.3
  N  N2375  1  0.414000  0.434300  0.450900  0.3
  N  N2376  1  0.914000  0.065700  0.549100  0.3
  N  N2377  1  0.770400  0.689000  0.934100  0.5
  N  N2378  1  0.270400  0.811000  0.065900  0.5
  N  N2379  1  0.229600  0.311000  0.065900  0.5
  N  N2380  1  0.729600  0.189000  0.934100  0.5
  N  N2381  1  0.843100  0.130000  0.859800  0.5
  N  N2382  1  0.343100  0.370000  0.140200  0.5
  N  N2383  1  0.156900  0.870000  0.140200  0.5
  N  N2384  1  0.656900  0.630000  0.859800  0.5
  N  N2385  1  0.997100  0.108000  0.250000  0.5
  N  N2386  1  0.497100  0.392000  0.750000  0.5
  N  N2387  1  0.002900  0.892000  0.750000  0.5
  N  N2388  1  0.502900  0.608000  0.250000  0.5
  N  N2389  1  0.594400  0.647300  0.126200  0.5
  N  N2390  1  0.094400  0.852700  0.873800  0.5
  N  N2391  1  0.405600  0.352700  0.873800  0.5
  N  N2392  1  0.905600  0.147300  0.126200  0.5
  N  N2393  1  0.165800  0.939100  0.988500  0.5
  N  N2394  1  0.665800  0.560900  0.011500  0.5
  N  N2395  1  0.834200  0.060900  0.011500  0.5
  N  N2396  1  0.334200  0.439100  0.988500  0.5
  N  N2397  1  0.566000  0.000900  0.002200  0.5
  N  N2398  1  0.066000  0.499100  0.997800  0.5
  N  N2399  1  0.434000  0.999100  0.997800  0.5
  N  N2400  1  0.934000  0.500900  0.002200  0.5
  N  N2401  1  0.687400  0.795200  0.853700  0.5
  N  N2402  1  0.187400  0.704800  0.146300  0.5
  N  N2403  1  0.312600  0.204800  0.146300  0.5
  N  N2404  1  0.812600  0.295200  0.853700  0.5
  N  N2405  1  0.049100  0.364500  0.236700  0.5
  N  N2406  1  0.549100  0.135500  0.763300  0.5
  N  N2407  1  0.950900  0.635500  0.763300  0.5
  N  N2408  1  0.450900  0.864500  0.236700  0.5
  N  N2409  1  0.231700  0.226200  0.235700  0.5
  N  N2410  1  0.731700  0.273800  0.764300  0.5
  N  N2411  1  0.768300  0.773800  0.764300  0.5
  N  N2412  1  0.268300  0.726200  0.235700  0.5
  N  N2413  1  0.122000  0.284600  0.193300  0.5
  N  N2414  1  0.622000  0.215400  0.806700  0.5
  N  N2415  1  0.878000  0.715400  0.806700  0.5
  N  N2416  1  0.378000  0.784600  0.193300  0.5
  N  N2417  1  0.381900  0.320800  0.403400  0.5
  N  N2418  1  0.881900  0.179200  0.596600  0.5
  N  N2419  1  0.618100  0.679200  0.596600  0.5
  N  N2420  1  0.118100  0.820800  0.403400  0.5
  N  N2421  1  0.160300  0.522800  0.284700  0.5
  N  N2422  1  0.660300  0.977200  0.715300  0.5
  N  N2423  1  0.839700  0.477200  0.715300  0.5
  N  N2424  1  0.339700  0.022800  0.284700  0.5
  N  N2425  1  0.719900  0.770300  0.062100  0.5
  N  N2426  1  0.219900  0.729700  0.937900  0.5
  N  N2427  1  0.280100  0.229700  0.937900  0.5
  N  N2428  1  0.780100  0.270300  0.062100  0.5
  O  O2429  1  0.175000  0.554200  0.451900  1.0
  O  O2430  1  0.675000  0.945800  0.548100  1.0
  O  O2431  1  0.825000  0.445800  0.548100  1.0
  O  O2432  1  0.325000  0.054200  0.451900  1.0
  O  O2433  1  0.219000  0.567900  0.511900  1.0
  O  O2434  1  0.719000  0.932100  0.488100  1.0
  O  O2435  1  0.781000  0.432100  0.488100  1.0
  O  O2436  1  0.281000  0.067900  0.511900  1.0
  O  O2437  1  0.166000  0.495800  0.477400  1.0
  O  O2438  1  0.666000  0.004200  0.522600  1.0
  O  O2439  1  0.834000  0.504200  0.522600  1.0
  O  O2440  1  0.334000  0.995800  0.477400  1.0
  O  O2441  1  0.070000  0.080000  0.062500  1.0
  O  O2442  1  0.570000  0.420000  0.937500  1.0
  O  O2443  1  0.930000  0.920000  0.937500  1.0
  O  O2444  1  0.430000  0.580000  0.062500  1.0
  O  O2445  1  0.056000  0.102800  0.127000  1.0
  O  O2446  1  0.556000  0.397200  0.873000  1.0
  O  O2447  1  0.944000  0.897200  0.873000  1.0
  O  O2448  1  0.444000  0.602800  0.127000  1.0
  O  O2449  1  0.151000  0.071000  0.099000  1.0
  O  O2450  1  0.651000  0.429000  0.901000  1.0
  O  O2451  1  0.849000  0.929000  0.901000  1.0
  O  O2452  1  0.349000  0.571000  0.099000  1.0
  O  O2453  1  0.962100  0.476900  0.377300  1.0
  O  O2454  1  0.462100  0.023100  0.622700  1.0
  O  O2455  1  0.037900  0.523100  0.622700  1.0
  O  O2456  1  0.537900  0.976900  0.377300  1.0
  O  O2457  1  0.870100  0.451100  0.383000  1.0
  O  O2458  1  0.370100  0.048900  0.617000  1.0
  O  O2459  1  0.129900  0.548900  0.617000  1.0
  O  O2460  1  0.629900  0.951100  0.383000  1.0
  O  O2461  1  0.948600  0.440100  0.414200  1.0
  O  O2462  1  0.448600  0.059900  0.585800  1.0
  O  O2463  1  0.051400  0.559900  0.585800  1.0
  O  O2464  1  0.551400  0.940100  0.414200  1.0
  O  O2465  1  0.879200  0.451100  0.314400  1.0
  O  O2466  1  0.379200  0.048900  0.685600  1.0
  O  O2467  1  0.120800  0.548900  0.685600  1.0
  O  O2468  1  0.620800  0.951100  0.314400  1.0
  O  O2469  1  0.893900  0.451100  0.269100  1.0
  O  O2470  1  0.393900  0.048900  0.730900  1.0
  O  O2471  1  0.106100  0.548900  0.730900  1.0
  O  O2472  1  0.606100  0.951100  0.269100  1.0
  O  O2473  1  0.823000  0.426000  0.277200  1.0
  O  O2474  1  0.323000  0.074000  0.722800  1.0
  O  O2475  1  0.177000  0.574000  0.722800  1.0
  O  O2476  1  0.677000  0.926000  0.277200  1.0
  O  O2477  1  0.813500  0.372000  0.964300  1.0
  O  O2478  1  0.313500  0.128000  0.035700  1.0
  O  O2479  1  0.186500  0.628000  0.035700  1.0
  O  O2480  1  0.686500  0.872000  0.964300  1.0
  O  O2481  1  0.894800  0.380700  0.978500  1.0
  O  O2482  1  0.394800  0.119300  0.021500  1.0
  O  O2483  1  0.105200  0.619300  0.021500  1.0
  O  O2484  1  0.605200  0.880700  0.978500  1.0
  O  O2485  1  0.871000  0.329000  0.937900  1.0
  O  O2486  1  0.371000  0.171000  0.062100  1.0
  O  O2487  1  0.129000  0.671000  0.062100  1.0
  O  O2488  1  0.629000  0.829000  0.937900  1.0
  O  O2489  1  0.176100  0.358800  0.343200  1.0
  O  O2490  1  0.676100  0.141200  0.656800  1.0
  O  O2491  1  0.823900  0.641200  0.656800  1.0
  O  O2492  1  0.323900  0.858800  0.343200  1.0
  O  O2493  1  0.198900  0.301400  0.337200  1.0
  O  O2494  1  0.698900  0.198600  0.662800  1.0
  O  O2495  1  0.801100  0.698600  0.662800  1.0
  O  O2496  1  0.301100  0.801400  0.337200  1.0
  O  O2497  1  0.156500  0.308300  0.300700  1.0
  O  O2498  1  0.656500  0.191700  0.699300  1.0
  O  O2499  1  0.843500  0.691700  0.699300  1.0
  O  O2500  1  0.343500  0.808300  0.300700  1.0
  O  O2501  1  0.311900  0.412700  0.533500  1.0
  O  O2502  1  0.811900  0.087300  0.466500  1.0
  O  O2503  1  0.688100  0.587300  0.466500  1.0
  O  O2504  1  0.188100  0.912700  0.533500  1.0
  O  O2505  1  0.368900  0.389600  0.556100  1.0
  O  O2506  1  0.868900  0.110400  0.443900  1.0
  O  O2507  1  0.631100  0.610400  0.443900  1.0
  O  O2508  1  0.131100  0.889600  0.556100  1.0
  O  O2509  1  0.388700  0.398900  0.514000  1.0
  O  O2510  1  0.888700  0.101100  0.486000  1.0
  O  O2511  1  0.611300  0.601100  0.486000  1.0
  O  O2512  1  0.111300  0.898900  0.514000  1.0
  O  O2513  1  0.288000  0.597500  0.602300  1.0
  O  O2514  1  0.788000  0.902500  0.397700  1.0
  O  O2515  1  0.712000  0.402500  0.397700  1.0
  O  O2516  1  0.212000  0.097500  0.602300  1.0
  O  O2517  1  0.250400  0.559700  0.559700  1.0
  O  O2518  1  0.750400  0.940300  0.440300  1.0
  O  O2519  1  0.749600  0.440300  0.440300  1.0
  O  O2520  1  0.249600  0.059700  0.559700  1.0
  O  O2521  1  0.203700  0.594800  0.600900  1.0
  O  O2522  1  0.703700  0.905200  0.399100  1.0
  O  O2523  1  0.796300  0.405200  0.399100  1.0
  O  O2524  1  0.296300  0.094800  0.600900  1.0
  O  O2525  1  0.326800  0.600400  0.425000  1.0
  O  O2526  1  0.826800  0.899600  0.575000  1.0
  O  O2527  1  0.673200  0.399600  0.575000  1.0
  O  O2528  1  0.173200  0.100400  0.425000  1.0
  O  O2529  1  0.287900  0.583100  0.458500  1.0
  O  O2530  1  0.787900  0.916900  0.541500  1.0
  O  O2531  1  0.712100  0.416900  0.541500  1.0
  O  O2532  1  0.212100  0.083100  0.458500  1.0
  O  O2533  1  0.367400  0.600500  0.464300  1.0
  O  O2534  1  0.867400  0.899500  0.535700  1.0
  O  O2535  1  0.632600  0.399500  0.535700  1.0
  O  O2536  1  0.132600  0.100500  0.464300  1.0
  O  O2537  1  0.997700  0.677300  0.431200  1.0
  O  O2538  1  0.497700  0.822700  0.568800  1.0
  O  O2539  1  0.002300  0.322700  0.568800  1.0
  O  O2540  1  0.502300  0.177300  0.431200  1.0
  O  O2541  1  0.036000  0.730500  0.433400  1.0
  O  O2542  1  0.536000  0.769500  0.566600  1.0
  O  O2543  1  0.964000  0.269500  0.566600  1.0
  O  O2544  1  0.464000  0.230500  0.433400  1.0
  O  O2545  1  0.955600  0.732100  0.447900  1.0
  O  O2546  1  0.455600  0.767900  0.552100  1.0
  O  O2547  1  0.044400  0.267900  0.552100  1.0
  O  O2548  1  0.544400  0.232100  0.447900  1.0
  O  O2549  1  0.243300  0.742600  0.535700  1.0
  O  O2550  1  0.743300  0.757400  0.464300  1.0
  O  O2551  1  0.756700  0.257400  0.464300  1.0
  O  O2552  1  0.256700  0.242600  0.535700  1.0
  O  O2553  1  0.309400  0.739600  0.566700  1.0
  O  O2554  1  0.809400  0.760400  0.433300  1.0
  O  O2555  1  0.690600  0.260400  0.433300  1.0
  O  O2556  1  0.190600  0.239600  0.566700  1.0
  O  O2557  1  0.260800  0.792000  0.575000  1.0
  O  O2558  1  0.760800  0.708000  0.425000  1.0
  O  O2559  1  0.739200  0.208000  0.425000  1.0
  O  O2560  1  0.239200  0.292000  0.575000  1.0
  O  O2561  1  0.116800  0.134400  0.184700  1.0
  O  O2562  1  0.616800  0.365600  0.815300  1.0
  O  O2563  1  0.883200  0.865600  0.815300  1.0
  O  O2564  1  0.383200  0.634400  0.184700  1.0
  O  O2565  1  0.103000  0.184200  0.228300  1.0
  O  O2566  1  0.603000  0.315800  0.771700  1.0
  O  O2567  1  0.897000  0.815800  0.771700  1.0
  O  O2568  1  0.397000  0.684200  0.228300  1.0
  O  O2569  1  0.179300  0.157100  0.218900  1.0
  O  O2570  1  0.679300  0.342900  0.781100  1.0
  O  O2571  1  0.820700  0.842900  0.781100  1.0
  O  O2572  1  0.320700  0.657100  0.218900  1.0
  O  O2573  1  0.388000  0.646700  0.628400  1.0
  O  O2574  1  0.888000  0.853300  0.371600  1.0
  O  O2575  1  0.612000  0.353300  0.371600  1.0
  O  O2576  1  0.112000  0.146700  0.628400  1.0
  O  O2577  1  0.407200  0.587800  0.623800  1.0
  O  O2578  1  0.907200  0.912200  0.376200  1.0
  O  O2579  1  0.592800  0.412200  0.376200  1.0
  O  O2580  1  0.092800  0.087800  0.623800  1.0
  O  O2581  1  0.368000  0.627800  0.665500  1.0
  O  O2582  1  0.868000  0.872200  0.334500  1.0
  O  O2583  1  0.632000  0.372200  0.334500  1.0
  O  O2584  1  0.132000  0.127800  0.665500  1.0
  O  O2585  1  0.708600  0.121400  0.039900  1.0
  O  O2586  1  0.208600  0.378600  0.960100  1.0
  O  O2587  1  0.291400  0.878600  0.960100  1.0
  O  O2588  1  0.791400  0.621400  0.039900  1.0
  O  O2589  1  0.674400  0.173300  0.075800  1.0
  O  O2590  1  0.174400  0.326700  0.924200  1.0
  O  O2591  1  0.325600  0.826700  0.924200  1.0
  O  O2592  1  0.825600  0.673300  0.075800  1.0
  O  O2593  1  0.627800  0.136100  0.036000  1.0
  O  O2594  1  0.127800  0.363900  0.964000  1.0
  O  O2595  1  0.372200  0.863900  0.964000  1.0
  O  O2596  1  0.872200  0.636100  0.036000  1.0
  O  O2597  1  0.900000  0.460500  0.860800  1.0
  O  O2598  1  0.400000  0.039500  0.139200  1.0
  O  O2599  1  0.100000  0.539500  0.139200  1.0
  O  O2600  1  0.600000  0.960500  0.860800  1.0
  O  O2601  1  0.903600  0.522900  0.889100  1.0
  O  O2602  1  0.403600  0.977100  0.110900  1.0
  O  O2603  1  0.096400  0.477100  0.110900  1.0
  O  O2604  1  0.596400  0.022900  0.889100  1.0
  O  O2605  1  0.861000  0.502000  0.845500  1.0
  O  O2606  1  0.361000  0.998000  0.154500  1.0
  O  O2607  1  0.139000  0.498000  0.154500  1.0
  O  O2608  1  0.639000  0.002000  0.845500  1.0
  O  O2609  1  0.139000  0.740200  0.627700  1.0
  O  O2610  1  0.639000  0.759800  0.372300  1.0
  O  O2611  1  0.861000  0.259800  0.372300  1.0
  O  O2612  1  0.361000  0.240200  0.627700  1.0
  O  O2613  1  0.977000  0.715400  0.226900  1.0
  O  O2614  1  0.477000  0.784600  0.773100  1.0
  O  O2615  1  0.023000  0.284600  0.773100  1.0
  O  O2616  1  0.523000  0.215400  0.226900  1.0
  O  O2617  1  0.093600  0.427700  0.410000  1.0
  O  O2618  1  0.593600  0.072300  0.590000  1.0
  O  O2619  1  0.906400  0.572300  0.590000  1.0
  O  O2620  1  0.406400  0.927700  0.410000  1.0
  O  O2621  1  0.399300  0.725900  0.605800  1.0
  O  O2622  1  0.899300  0.774100  0.394200  1.0
  O  O2623  1  0.600700  0.274100  0.394200  1.0
  O  O2624  1  0.100700  0.225900  0.605800  1.0
  O  O2625  1  0.595000  0.863600  0.822900  1.0
  O  O2626  1  0.095000  0.636400  0.177100  1.0
  O  O2627  1  0.405000  0.136400  0.177100  1.0
  O  O2628  1  0.905000  0.363600  0.822900  1.0
  O  O2629  1  0.397500  0.696500  0.489300  1.0
  O  O2630  1  0.897500  0.803500  0.510700  1.0
  O  O2631  1  0.602500  0.303500  0.510700  1.0
  O  O2632  1  0.102500  0.196500  0.489300  1.0
  O  O2633  1  0.204900  0.184300  0.483600  1.0
  O  O2634  1  0.704900  0.315700  0.516400  1.0
  O  O2635  1  0.795100  0.815700  0.516400  1.0
  O  O2636  1  0.295100  0.684300  0.483600  1.0
  O  O2637  1  0.620000  0.104000  0.094800  1.0
  O  O2638  1  0.120000  0.396000  0.905200  1.0
  O  O2639  1  0.380000  0.896000  0.905200  1.0
  O  O2640  1  0.880000  0.604000  0.094800  1.0
  O  O2641  1  0.302000  0.712600  0.728200  1.0
  O  O2642  1  0.802000  0.787400  0.271800  1.0
  O  O2643  1  0.698000  0.287400  0.271800  1.0
  O  O2644  1  0.198000  0.212600  0.728200  1.0
  O  O2645  1  0.819200  0.544900  0.476800  1.0
  O  O2646  1  0.319200  0.955100  0.523200  1.0
  O  O2647  1  0.180800  0.455100  0.523200  1.0
  O  O2648  1  0.680800  0.044900  0.476800  1.0
  O  O2649  1  0.329300  0.426600  0.626600  1.0
  O  O2650  1  0.829300  0.073400  0.373400  1.0
  O  O2651  1  0.670700  0.573400  0.373400  1.0
  O  O2652  1  0.170700  0.926600  0.626600  1.0
  O  O2653  1  0.286000  0.311000  0.179600  1.0
  O  O2654  1  0.786000  0.189000  0.820400  1.0
  O  O2655  1  0.714000  0.689000  0.820400  1.0
  O  O2656  1  0.214000  0.811000  0.179600  1.0
  O  O2657  1  0.899000  0.825000  0.694200  1.0
  O  O2658  1  0.399000  0.675000  0.305800  1.0
  O  O2659  1  0.101000  0.175000  0.305800  1.0
  O  O2660  1  0.601000  0.325000  0.694200  1.0
  O  O2661  1  0.973000  0.951000  0.697000  1.0
  O  O2662  1  0.473000  0.549000  0.303000  1.0
  O  O2663  1  0.027000  0.049000  0.303000  1.0
  O  O2664  1  0.527000  0.451000  0.697000  1.0
  O  O2665  1  0.944000  0.810000  0.235000  1.0
  O  O2666  1  0.444000  0.690000  0.765000  1.0
  O  O2667  1  0.056000  0.190000  0.765000  1.0
  O  O2668  1  0.556000  0.310000  0.235000  1.0
  O  O2669  1  0.438000  0.640000  0.437900  1.0
  O  O2670  1  0.938000  0.860000  0.562100  1.0
  O  O2671  1  0.562000  0.360000  0.562100  1.0
  O  O2672  1  0.062000  0.140000  0.437900  1.0
  O  O2673  1  0.047100  0.858100  0.570000  1.0
  O  O2674  1  0.547100  0.641900  0.430000  1.0
  O  O2675  1  0.952900  0.141900  0.430000  1.0
  O  O2676  1  0.452900  0.358100  0.570000  1.0
  O  O2677  1  0.402000  0.535000  0.672000  1.0
  O  O2678  1  0.902000  0.965000  0.328000  1.0
  O  O2679  1  0.598000  0.465000  0.328000  1.0
  O  O2680  1  0.098000  0.035000  0.672000  1.0
  O  O2681  1  0.320000  0.377000  0.350900  1.0
  O  O2682  1  0.820000  0.123000  0.649100  1.0
  O  O2683  1  0.680000  0.623000  0.649100  1.0
  O  O2684  1  0.180000  0.877000  0.350900  1.0
  O  O2685  1  0.593000  0.915000  0.060900  1.0
  O  O2686  1  0.093000  0.585000  0.939100  1.0
  O  O2687  1  0.407000  0.085000  0.939100  1.0
  O  O2688  1  0.907000  0.415000  0.060900  1.0
  O  O2689  1  0.823000  0.017100  0.167800  1.0
  O  O2690  1  0.323000  0.482900  0.832200  1.0
  O  O2691  1  0.177000  0.982900  0.832200  1.0
  O  O2692  1  0.677000  0.517100  0.167800  1.0
  O  O2693  1  0.747000  0.032000  0.166500  1.0
  O  O2694  1  0.247000  0.468000  0.833500  1.0
  O  O2695  1  0.253000  0.968000  0.833500  1.0
  O  O2696  1  0.753000  0.532000  0.166500  1.0
  O  O2697  1  0.794000  0.964000  0.156500  1.0
  O  O2698  1  0.294000  0.536000  0.843500  1.0
  O  O2699  1  0.206000  0.036000  0.843500  1.0
  O  O2700  1  0.706000  0.464000  0.156500  1.0
  O  O2701  1  0.115800  0.523500  0.347900  1.0
  O  O2702  1  0.615800  0.976500  0.652100  1.0
  O  O2703  1  0.884200  0.476500  0.652100  1.0
  O  O2704  1  0.384200  0.023500  0.347900  1.0
  O  O2705  1  0.063400  0.495500  0.369200  1.0
  O  O2706  1  0.563400  0.004500  0.630800  1.0
  O  O2707  1  0.936600  0.504500  0.630800  1.0
  O  O2708  1  0.436600  0.995500  0.369200  1.0
  O  O2709  1  0.115000  0.542400  0.398500  1.0
  O  O2710  1  0.615000  0.957600  0.601500  1.0
  O  O2711  1  0.885000  0.457600  0.601500  1.0
  O  O2712  1  0.385000  0.042400  0.398500  1.0
  O  O2713  1  0.742900  0.705000  0.958200  0.5
  O  O2714  1  0.242900  0.795000  0.041800  0.5
  O  O2715  1  0.257100  0.295000  0.041800  0.5
  O  O2716  1  0.757100  0.205000  0.958200  0.5
  O  O2717  1  0.811400  0.671800  0.935700  0.5
  O  O2718  1  0.311400  0.828200  0.064300  0.5
  O  O2719  1  0.188600  0.328200  0.064300  0.5
  O  O2720  1  0.688600  0.171800  0.935700  0.5
  O  O2721  1  0.757000  0.690100  0.908600  0.5
  O  O2722  1  0.257000  0.809900  0.091400  0.5
  O  O2723  1  0.243000  0.309900  0.091400  0.5
  O  O2724  1  0.743000  0.190100  0.908600  0.5
  O  O2725  1  0.868000  0.112000  0.872900  0.5
  O  O2726  1  0.368000  0.388000  0.127100  0.5
  O  O2727  1  0.132000  0.888000  0.127100  0.5
  O  O2728  1  0.632000  0.612000  0.872900  0.5
  O  O2729  1  0.845000  0.118000  0.830400  0.5
  O  O2730  1  0.345000  0.382000  0.169600  0.5
  O  O2731  1  0.155000  0.882000  0.169600  0.5
  O  O2732  1  0.655000  0.618000  0.830400  0.5
  O  O2733  1  0.816000  0.159500  0.875500  0.5
  O  O2734  1  0.316000  0.340500  0.124500  0.5
  O  O2735  1  0.184000  0.840500  0.124500  0.5
  O  O2736  1  0.684000  0.659500  0.875500  0.5
  O  O2737  1  0.795000  0.696000  0.997400  0.5
  O  O2738  1  0.295000  0.804000  0.002600  0.5
  O  O2739  1  0.205000  0.304000  0.002600  0.5
  O  O2740  1  0.705000  0.196000  0.997400  0.5
  O  O2741  1  0.957000  0.128800  0.257900  0.5
  O  O2742  1  0.457000  0.371200  0.742100  0.5
  O  O2743  1  0.043000  0.871200  0.742100  0.5
  O  O2744  1  0.543000  0.628800  0.257900  0.5
  O  O2745  1  0.040400  0.124300  0.251000  0.5
  O  O2746  1  0.540400  0.375700  0.749000  0.5
  O  O2747  1  0.959600  0.875700  0.749000  0.5
  O  O2748  1  0.459600  0.624300  0.251000  0.5
  O  O2749  1  0.994000  0.071500  0.240600  0.5
  O  O2750  1  0.494000  0.428500  0.759400  0.5
  O  O2751  1  0.006000  0.928500  0.759400  0.5
  O  O2752  1  0.506000  0.571500  0.240600  0.5
  O  O2753  1  0.406000  0.607000  0.246000  0.5
  O  O2754  1  0.906000  0.893000  0.754000  0.5
  O  O2755  1  0.594000  0.393000  0.754000  0.5
  O  O2756  1  0.094000  0.107000  0.246000  0.5
  O  O2757  1  0.606900  0.676500  0.150400  0.5
  O  O2758  1  0.106900  0.823500  0.849600  0.5
  O  O2759  1  0.393100  0.323500  0.849600  0.5
  O  O2760  1  0.893100  0.176500  0.150400  0.5
  O  O2761  1  0.627000  0.620100  0.114500  0.5
  O  O2762  1  0.127000  0.879900  0.885500  0.5
  O  O2763  1  0.373000  0.379900  0.885500  0.5
  O  O2764  1  0.873000  0.120100  0.114500  0.5
  O  O2765  1  0.550600  0.646400  0.114400  0.5
  O  O2766  1  0.050600  0.853600  0.885600  0.5
  O  O2767  1  0.449400  0.353600  0.885600  0.5
  O  O2768  1  0.949400  0.146400  0.114400  0.5
  O  O2769  1  0.175000  0.917000  0.960700  0.5
  O  O2770  1  0.675000  0.583000  0.039300  0.5
  O  O2771  1  0.825000  0.083000  0.039300  0.5
  O  O2772  1  0.325000  0.417000  0.960700  0.5
  O  O2773  1  0.198700  0.943300  0.009700  0.5
  O  O2774  1  0.698700  0.556700  0.990300  0.5
  O  O2775  1  0.801300  0.056700  0.990300  0.5
  O  O2776  1  0.301300  0.443300  0.009700  0.5
  O  O2777  1  0.123000  0.956000  0.996000  0.5
  O  O2778  1  0.623000  0.544000  0.004000  0.5
  O  O2779  1  0.877000  0.044000  0.004000  0.5
  O  O2780  1  0.377000  0.456000  0.996000  0.5
  O  O2781  1  0.488000  0.634000  0.039900  0.5
  O  O2782  1  0.988000  0.866000  0.960100  0.5
  O  O2783  1  0.512000  0.366000  0.960100  0.5
  O  O2784  1  0.012000  0.134000  0.039900  0.5
  O  O2785  1  0.559000  0.584000  0.023000  0.5
  O  O2786  1  0.059000  0.916000  0.977000  0.5
  O  O2787  1  0.441000  0.416000  0.977000  0.5
  O  O2788  1  0.941000  0.084000  0.023000  0.5
  O  O2789  1  0.585000  0.970400  0.003500  0.5
  O  O2790  1  0.085000  0.529600  0.996500  0.5
  O  O2791  1  0.415000  0.029600  0.996500  0.5
  O  O2792  1  0.915000  0.470400  0.003500  0.5
  O  O2793  1  0.576000  0.033800  0.023700  0.5
  O  O2794  1  0.076000  0.466200  0.976300  0.5
  O  O2795  1  0.424000  0.966200  0.976300  0.5
  O  O2796  1  0.924000  0.533800  0.023700  0.5
  O  O2797  1  0.538000  0.999000  0.979700  0.5
  O  O2798  1  0.038000  0.501000  0.020300  0.5
  O  O2799  1  0.462000  0.001000  0.020300  0.5
  O  O2800  1  0.962000  0.499000  0.979700  0.5
  O  O2801  1  0.656000  0.799300  0.875500  0.5
  O  O2802  1  0.156000  0.700700  0.124500  0.5
  O  O2803  1  0.344000  0.200700  0.124500  0.5
  O  O2804  1  0.844000  0.299300  0.875500  0.5
  O  O2805  1  0.680000  0.813000  0.836500  0.5
  O  O2806  1  0.180000  0.687000  0.163500  0.5
  O  O2807  1  0.320000  0.187000  0.163500  0.5
  O  O2808  1  0.820000  0.313000  0.836500  0.5
  O  O2809  1  0.726000  0.772600  0.849100  0.5
  O  O2810  1  0.226000  0.727400  0.150900  0.5
  O  O2811  1  0.274000  0.227400  0.150900  0.5
  O  O2812  1  0.774000  0.272600  0.849100  0.5
  O  O2813  1  0.673000  0.748000  0.907600  0.5
  O  O2814  1  0.173000  0.752000  0.092400  0.5
  O  O2815  1  0.327000  0.252000  0.092400  0.5
  O  O2816  1  0.827000  0.248000  0.907600  0.5
  O  O2817  1  0.994000  0.958000  0.286000  0.5
  O  O2818  1  0.494000  0.542000  0.714000  0.5
  O  O2819  1  0.006000  0.042000  0.714000  0.5
  O  O2820  1  0.506000  0.458000  0.286000  0.5
  O  O2821  1  0.847000  0.787000  0.100500  0.5
  O  O2822  1  0.347000  0.713000  0.899500  0.5
  O  O2823  1  0.153000  0.213000  0.899500  0.5
  O  O2824  1  0.653000  0.287000  0.100500  0.5
  O  O2825  1  0.827000  0.815000  0.096000  0.5
  O  O2826  1  0.327000  0.685000  0.904000  0.5
  O  O2827  1  0.173000  0.185000  0.904000  0.5
  O  O2828  1  0.673000  0.315000  0.096000  0.5
  O  O2829  1  0.498800  0.746900  0.064900  0.5
  O  O2830  1  0.998800  0.753100  0.935100  0.5
  O  O2831  1  0.501200  0.253100  0.935100  0.5
  O  O2832  1  0.001200  0.246900  0.064900  0.5
  O  O2833  1  0.515000  0.776400  0.054100  0.5
  O  O2834  1  0.015000  0.723600  0.945900  0.5
  O  O2835  1  0.485000  0.223600  0.945900  0.5
  O  O2836  1  0.985000  0.276400  0.054100  0.5
  O  O2837  1  0.334000  0.464000  0.342800  0.5
  O  O2838  1  0.834000  0.036000  0.657200  0.5
  O  O2839  1  0.666000  0.536000  0.657200  0.5
  O  O2840  1  0.166000  0.964000  0.342800  0.5
  O  O2841  1  0.400000  0.829000  0.722000  0.5
  O  O2842  1  0.900000  0.671000  0.278000  0.5
  O  O2843  1  0.600000  0.171000  0.278000  0.5
  O  O2844  1  0.100000  0.329000  0.722000  0.5
  O  O2845  1  0.930000  0.607000  0.313000  0.5
  O  O2846  1  0.430000  0.893000  0.687000  0.5
  O  O2847  1  0.070000  0.393000  0.687000  0.5
  O  O2848  1  0.570000  0.107000  0.313000  0.5
  O  O2849  1  0.332000  0.896000  0.682000  0.5
  O  O2850  1  0.832000  0.604000  0.318000  0.5
  O  O2851  1  0.668000  0.104000  0.318000  0.5
  O  O2852  1  0.168000  0.396000  0.682000  0.5
  O  O2853  1  0.204000  0.481100  0.691200  0.5
  O  O2854  1  0.704000  0.018900  0.308800  0.5
  O  O2855  1  0.796000  0.518900  0.308800  0.5
  O  O2856  1  0.296000  0.981100  0.691200  0.5
  O  O2857  1  0.273000  0.509000  0.730100  0.5
  O  O2858  1  0.773000  0.991000  0.269900  0.5
  O  O2859  1  0.727000  0.491000  0.269900  0.5
  O  O2860  1  0.227000  0.009000  0.730100  0.5
  O  O2861  1  0.289500  0.715300  0.355300  0.5
  O  O2862  1  0.789500  0.784700  0.644700  0.5
  O  O2863  1  0.710500  0.284700  0.644700  0.5
  O  O2864  1  0.210500  0.215300  0.355300  0.5
  O  O2865  1  0.315000  0.720600  0.381200  0.5
  O  O2866  1  0.815000  0.779400  0.618800  0.5
  O  O2867  1  0.685000  0.279400  0.618800  0.5
  O  O2868  1  0.185000  0.220600  0.381200  0.5
  O  O2869  1  0.315000  0.732000  0.342000  0.5
  O  O2870  1  0.815000  0.768000  0.658000  0.5
  O  O2871  1  0.685000  0.268000  0.658000  0.5
  O  O2872  1  0.185000  0.232000  0.342000  0.5
  O  O2873  1  0.490000  0.560000  0.586700  0.5
  O  O2874  1  0.990000  0.940000  0.413300  0.5
  O  O2875  1  0.510000  0.440000  0.413300  0.5
  O  O2876  1  0.010000  0.060000  0.586700  0.5
  O  O2877  1  0.488000  0.618000  0.590500  0.5
  O  O2878  1  0.988000  0.882000  0.409500  0.5
  O  O2879  1  0.512000  0.382000  0.409500  0.5
  O  O2880  1  0.012000  0.118000  0.590500  0.5
  O  O2881  1  0.919000  0.694900  0.391100  0.5
  O  O2882  1  0.419000  0.805100  0.608900  0.5
  O  O2883  1  0.081000  0.305100  0.608900  0.5
  O  O2884  1  0.581000  0.194900  0.391100  0.5
  O  O2885  1  0.867500  0.046200  0.287200  0.5
  O  O2886  1  0.367500  0.453800  0.712800  0.5
  O  O2887  1  0.132500  0.953800  0.712800  0.5
  O  O2888  1  0.632500  0.546200  0.287200  0.5
  O  O2889  1  0.918000  0.021000  0.301000  0.5
  O  O2890  1  0.418000  0.479000  0.699000  0.5
  O  O2891  1  0.082000  0.979000  0.699000  0.5
  O  O2892  1  0.582000  0.521000  0.301000  0.5
  O  O2893  1  0.809000  0.238000  0.195400  0.5
  O  O2894  1  0.309000  0.262000  0.804600  0.5
  O  O2895  1  0.191000  0.762000  0.804600  0.5
  O  O2896  1  0.691000  0.738000  0.195400  0.5
  O  O2897  1  0.735000  0.224000  0.219000  0.5
  O  O2898  1  0.235000  0.276000  0.781000  0.5
  O  O2899  1  0.265000  0.776000  0.781000  0.5
  O  O2900  1  0.765000  0.724000  0.219000  0.5
  O  O2901  1  0.851000  0.226000  0.222600  0.5
  O  O2902  1  0.351000  0.274000  0.777400  0.5
  O  O2903  1  0.149000  0.774000  0.777400  0.5
  O  O2904  1  0.649000  0.726000  0.222600  0.5
  O  O2905  1  0.944800  0.852900  0.632600  0.5
  O  O2906  1  0.444800  0.647100  0.367400  0.5
  O  O2907  1  0.055200  0.147100  0.367400  0.5
  O  O2908  1  0.555200  0.352900  0.632600  0.5
  O  O2909  1  0.349000  0.727500  0.424400  0.5
  O  O2910  1  0.849000  0.772500  0.575600  0.5
  O  O2911  1  0.651000  0.272500  0.575600  0.5
  O  O2912  1  0.151000  0.227500  0.424400  0.5
  O  O2913  1  0.189000  0.653000  0.338400  0.5
  O  O2914  1  0.689000  0.847000  0.661600  0.5
  O  O2915  1  0.811000  0.347000  0.661600  0.5
  O  O2916  1  0.311000  0.153000  0.338400  0.5
  O  O2917  1  0.904000  0.902000  0.997000  0.5
  O  O2918  1  0.404000  0.598000  0.003000  0.5
  O  O2919  1  0.096000  0.098000  0.003000  0.5
  O  O2920  1  0.596000  0.402000  0.997000  0.5
  O  O2921  1  0.095000  0.782000  0.682000  0.5
  O  O2922  1  0.595000  0.718000  0.318000  0.5
  O  O2923  1  0.905000  0.218000  0.318000  0.5
  O  O2924  1  0.405000  0.282000  0.682000  0.5
  O  O2925  1  0.404000  0.532600  0.375900  0.5
  O  O2926  1  0.904000  0.967400  0.624100  0.5
  O  O2927  1  0.596000  0.467400  0.624100  0.5
  O  O2928  1  0.096000  0.032600  0.375900  0.5
  O  O2929  1  0.376000  0.513600  0.414400  0.5
  O  O2930  1  0.876000  0.986400  0.585600  0.5
  O  O2931  1  0.624000  0.486400  0.585600  0.5
  O  O2932  1  0.124000  0.013600  0.414400  0.5
  O  O2933  1  0.160000  0.736000  0.733300  0.5
  O  O2934  1  0.660000  0.764000  0.266700  0.5
  O  O2935  1  0.840000  0.264000  0.266700  0.5
  O  O2936  1  0.340000  0.236000  0.733300  0.5
  O  O2937  1  0.094000  0.704400  0.722100  0.5
  O  O2938  1  0.594000  0.795600  0.277900  0.5
  O  O2939  1  0.906000  0.295600  0.277900  0.5
  O  O2940  1  0.406000  0.204400  0.722100  0.5
  O  O2941  1  0.607000  0.111000  0.885100  0.5
  O  O2942  1  0.107000  0.389000  0.114900  0.5
  O  O2943  1  0.393000  0.889000  0.114900  0.5
  O  O2944  1  0.893000  0.611000  0.885100  0.5
  O  O2945  1  0.954000  0.565000  0.850400  0.5
  O  O2946  1  0.454000  0.935000  0.149600  0.5
  O  O2947  1  0.046000  0.435000  0.149600  0.5
  O  O2948  1  0.546000  0.065000  0.850400  0.5
  O  O2949  1  0.445000  0.803000  0.925000  0.5
  O  O2950  1  0.945000  0.697000  0.075000  0.5
  O  O2951  1  0.555000  0.197000  0.075000  0.5
  O  O2952  1  0.055000  0.303000  0.925000  0.5
  O  O2953  1  0.971000  0.291000  0.936800  0.5
  O  O2954  1  0.471000  0.209000  0.063200  0.5
  O  O2955  1  0.029000  0.709000  0.063200  0.5
  O  O2956  1  0.529000  0.791000  0.936800  0.5
  O  O2957  1  0.023000  0.594000  0.278100  0.5
  O  O2958  1  0.523000  0.906000  0.721900  0.5
  O  O2959  1  0.977000  0.406000  0.721900  0.5
  O  O2960  1  0.477000  0.094000  0.278100  0.5
  O  O2961  1  0.109000  0.614200  0.300000  0.5
  O  O2962  1  0.609000  0.885800  0.700000  0.5
  O  O2963  1  0.891000  0.385800  0.700000  0.5
  O  O2964  1  0.391000  0.114200  0.300000  0.5
  O  O2965  1  0.091200  0.379600  0.233900  0.5
  O  O2966  1  0.591200  0.120400  0.766100  0.5
  O  O2967  1  0.908800  0.620400  0.766100  0.5
  O  O2968  1  0.408800  0.879600  0.233900  0.5
  O  O2969  1  0.008300  0.370000  0.224200  0.5
  O  O2970  1  0.508300  0.130000  0.775800  0.5
  O  O2971  1  0.991700  0.630000  0.775800  0.5
  O  O2972  1  0.491700  0.870000  0.224200  0.5
  O  O2973  1  0.047000  0.343300  0.252100  0.5
  O  O2974  1  0.547000  0.156700  0.747900  0.5
  O  O2975  1  0.953000  0.656700  0.747900  0.5
  O  O2976  1  0.453000  0.843300  0.252100  0.5
  O  O2977  1  0.277900  0.229000  0.245200  0.5
  O  O2978  1  0.777900  0.271000  0.754800  0.5
  O  O2979  1  0.722100  0.771000  0.754800  0.5
  O  O2980  1  0.222100  0.729000  0.245200  0.5
  O  O2981  1  0.222000  0.215000  0.207100  0.5
  O  O2982  1  0.722000  0.285000  0.792900  0.5
  O  O2983  1  0.778000  0.785000  0.792900  0.5
  O  O2984  1  0.278000  0.715000  0.207100  0.5
  O  O2985  1  0.194900  0.234600  0.255200  0.5
  O  O2986  1  0.694900  0.265400  0.744800  0.5
  O  O2987  1  0.805100  0.765400  0.744800  0.5
  O  O2988  1  0.305100  0.734600  0.255200  0.5
  O  O2989  1  0.126000  0.266400  0.210700  0.5
  O  O2990  1  0.626000  0.233600  0.789300  0.5
  O  O2991  1  0.874000  0.733600  0.789300  0.5
  O  O2992  1  0.374000  0.766400  0.210700  0.5
  O  O2993  1  0.111000  0.267000  0.164800  0.5
  O  O2994  1  0.611000  0.233000  0.835200  0.5
  O  O2995  1  0.889000  0.733000  0.835200  0.5
  O  O2996  1  0.389000  0.767000  0.164800  0.5
  O  O2997  1  0.127000  0.321400  0.204300  0.5
  O  O2998  1  0.627000  0.178600  0.795700  0.5
  O  O2999  1  0.873000  0.678600  0.795700  0.5
  O  O3000  1  0.373000  0.821400  0.204300  0.5
  O  O3001  1  0.402000  0.341700  0.428800  0.5
  O  O3002  1  0.902000  0.158300  0.571200  0.5
  O  O3003  1  0.598000  0.658300  0.571200  0.5
  O  O3004  1  0.098000  0.841700  0.428800  0.5
  O  O3005  1  0.357000  0.290900  0.400400  0.5
  O  O3006  1  0.857000  0.209100  0.599600  0.5
  O  O3007  1  0.643000  0.709100  0.599600  0.5
  O  O3008  1  0.143000  0.790900  0.400400  0.5
  O  O3009  1  0.386000  0.330000  0.380300  0.5
  O  O3010  1  0.886000  0.170000  0.619700  0.5
  O  O3011  1  0.614000  0.670000  0.619700  0.5
  O  O3012  1  0.114000  0.830000  0.380300  0.5
  O  O3013  1  0.048000  0.810000  0.343900  0.5
  O  O3014  1  0.548000  0.690000  0.656100  0.5
  O  O3015  1  0.952000  0.190000  0.656100  0.5
  O  O3016  1  0.452000  0.310000  0.343900  0.5
  O  O3017  1  0.179000  0.551700  0.305800  0.5
  O  O3018  1  0.679000  0.948300  0.694200  0.5
  O  O3019  1  0.821000  0.448300  0.694200  0.5
  O  O3020  1  0.321000  0.051700  0.305800  0.5
  O  O3021  1  0.182200  0.489700  0.276100  0.5
  O  O3022  1  0.682200  0.010300  0.723900  0.5
  O  O3023  1  0.817800  0.510300  0.723900  0.5
  O  O3024  1  0.317800  0.989700  0.276100  0.5
  O  O3025  1  0.120000  0.525700  0.270400  0.5
  O  O3026  1  0.620000  0.974300  0.729600  0.5
  O  O3027  1  0.880000  0.474300  0.729600  0.5
  O  O3028  1  0.380000  0.025700  0.270400  0.5
  O  O3029  1  0.194000  0.513100  0.216000  0.5
  O  O3030  1  0.694000  0.986900  0.784000  0.5
  O  O3031  1  0.806000  0.486900  0.784000  0.5
  O  O3032  1  0.306000  0.013100  0.216000  0.5
  O  O3033  1  0.122000  0.462000  0.228900  0.5
  O  O3034  1  0.622000  0.038000  0.771100  0.5
  O  O3035  1  0.878000  0.538000  0.771100  0.5
  O  O3036  1  0.378000  0.962000  0.228900  0.5
  O  O3037  1  0.258000  0.465000  0.265500  0.5
  O  O3038  1  0.758000  0.035000  0.734500  0.5
  O  O3039  1  0.742000  0.535000  0.734500  0.5
  O  O3040  1  0.242000  0.965000  0.265500  0.5
  O  O3041  1  0.687000  0.796100  0.077400  0.5
  O  O3042  1  0.187000  0.703900  0.922600  0.5
  O  O3043  1  0.313000  0.203900  0.922600  0.5
  O  O3044  1  0.813000  0.296100  0.077400  0.5
  O  O3045  1  0.748000  0.755300  0.076500  0.5
  O  O3046  1  0.248000  0.744700  0.923500  0.5
  O  O3047  1  0.252000  0.244700  0.923500  0.5
  O  O3048  1  0.752000  0.255300  0.076500  0.5
  O  O3049  1  0.724000  0.759900  0.033500  0.5
  O  O3050  1  0.224000  0.740100  0.966500  0.5
  O  O3051  1  0.276000  0.240100  0.966500  0.5
  O  O3052  1  0.776000  0.259900  0.033500  0.5
  O  O3053  1  0.561200  0.487300  0.528400  0.7
  O  O3054  1  0.061200  0.012700  0.471600  0.7
  O  O3055  1  0.438800  0.512700  0.471600  0.7
  O  O3056  1  0.938800  0.987300  0.528400  0.7
  O  O3057  1  0.554500  0.532000  0.507500  0.7
  O  O3058  1  0.054500  0.968000  0.492500  0.7
  O  O3059  1  0.445500  0.468000  0.492500  0.7
  O  O3060  1  0.945500  0.032000  0.507500  0.7
  O  O3061  1  0.531100  0.473100  0.479700  0.7
  O  O3062  1  0.031100  0.026900  0.520300  0.7
  O  O3063  1  0.468900  0.526900  0.520300  0.7
  O  O3064  1  0.968900  0.973100  0.479700  0.7
  O  O3065  1  0.296900  0.194100  0.408000  0.75
  O  O3066  1  0.796900  0.305900  0.592000  0.75
  O  O3067  1  0.703100  0.805900  0.592000  0.75
  O  O3068  1  0.203100  0.694100  0.408000  0.75
  O  O3069  1  0.249000  0.177000  0.431000  0.75
  O  O3070  1  0.749000  0.323000  0.569000  0.75
  O  O3071  1  0.751000  0.823000  0.569000  0.75
  O  O3072  1  0.251000  0.677000  0.431000  0.75
  O  O3073  1  0.290000  0.220600  0.459800  0.75
  O  O3074  1  0.790000  0.279400  0.540200  0.75
  O  O3075  1  0.710000  0.779400  0.540200  0.75
  O  O3076  1  0.210000  0.720600  0.459800  0.75
  O  O3077  1  0.346000  0.223300  0.437900  0.75
  O  O3078  1  0.846000  0.276700  0.562100  0.75
  O  O3079  1  0.654000  0.776700  0.562100  0.75
  O  O3080  1  0.154000  0.723300  0.437900  0.75
  O  O3081  1  0.573000  0.534100  0.550600  0.3
  O  O3082  1  0.073000  0.965900  0.449400  0.3
  O  O3083  1  0.427000  0.465900  0.449400  0.3
  O  O3084  1  0.927000  0.034100  0.550600  0.3
  O  O3085  1  0.576000  0.572000  0.525200  0.3
  O  O3086  1  0.076000  0.928000  0.474800  0.3
  O  O3087  1  0.424000  0.428000  0.474800  0.3
  O  O3088  1  0.924000  0.072000  0.525200  0.3
  O  O3089  1  0.610000  0.591000  0.572000  0.3
  O  O3090  1  0.110000  0.909000  0.428000  0.3
  O  O3091  1  0.390000  0.409000  0.428000  0.3
  O  O3092  1  0.890000  0.091000  0.572000  0.3
