# generated using pymatgen
data_H296Pd20C232N134O237
_symmetry_space_group_name_H-M   'P 1'
_cell_length_a   27.76100000
_cell_length_b   37.94100000
_cell_length_c   48.45700000
_cell_angle_alpha   108.71300000
_cell_angle_beta   90.00000000
_cell_angle_gamma   90.00000000
_symmetry_Int_Tables_number   1
_chemical_formula_structural   H296Pd20C232N134O237
_chemical_formula_sum   'H1184 Pd80 C928 N536 O948'
_cell_volume   48340.75605222
_cell_formula_units_Z   4
loop_
 _symmetry_equiv_pos_site_id
 _symmetry_equiv_pos_as_xyz
  1  'x, y, z'
loop_
 _atom_site_type_symbol
 _atom_site_label
 _atom_site_symmetry_multiplicity
 _atom_site_fract_x
 _atom_site_fract_y
 _atom_site_fract_z
 _atom_site_occupancy
  H  H1  1  0.269300  0.370600  0.226300  1
  H  H2  1  0.269300  0.129400  0.773700  1
  H  H3  1  0.769300  0.370600  0.726300  1
  H  H4  1  0.769300  0.129400  0.273700  1
  H  H5  1  0.730700  0.629400  0.773700  1
  H  H6  1  0.730700  0.870600  0.226300  1
  H  H7  1  0.230700  0.629400  0.273700  1
  H  H8  1  0.230700  0.870600  0.726300  1
  H  H9  1  0.223800  0.634400  0.271700  1
  H  H10  1  0.223800  0.865600  0.728300  1
  H  H11  1  0.723800  0.634400  0.771700  1
  H  H12  1  0.723800  0.865600  0.228300  1
  H  H13  1  0.776200  0.365600  0.728300  1
  H  H14  1  0.776200  0.134400  0.271700  1
  H  H15  1  0.276200  0.365600  0.228300  1
  H  H16  1  0.276200  0.134400  0.771700  1
  H  H17  1  0.211400  0.392800  0.260900  1
  H  H18  1  0.211400  0.107200  0.739100  1
  H  H19  1  0.711400  0.392800  0.760900  1
  H  H20  1  0.711400  0.107200  0.239100  1
  H  H21  1  0.788600  0.607200  0.739100  1
  H  H22  1  0.788600  0.892800  0.260900  1
  H  H23  1  0.288600  0.607200  0.239100  1
  H  H24  1  0.288600  0.892800  0.760900  1
  H  H25  1  0.298100  0.613900  0.268800  1
  H  H26  1  0.298100  0.886100  0.731200  1
  H  H27  1  0.798100  0.613900  0.768800  1
  H  H28  1  0.798100  0.886100  0.231200  1
  H  H29  1  0.701900  0.386100  0.731200  1
  H  H30  1  0.701900  0.113900  0.268800  1
  H  H31  1  0.201900  0.386100  0.231200  1
  H  H32  1  0.201900  0.113900  0.768800  1
  H  H33  1  0.090800  0.487000  0.286800  1
  H  H34  1  0.090800  0.013000  0.713200  1
  H  H35  1  0.590800  0.487000  0.786800  1
  H  H36  1  0.590800  0.013000  0.213200  1
  H  H37  1  0.909200  0.513000  0.713200  1
  H  H38  1  0.909200  0.987000  0.286800  1
  H  H39  1  0.409200  0.513000  0.213200  1
  H  H40  1  0.409200  0.987000  0.786800  1
  H  H41  1  0.406900  0.507300  0.215600  1
  H  H42  1  0.406900  0.992700  0.784400  1
  H  H43  1  0.906900  0.507300  0.715600  1
  H  H44  1  0.906900  0.992700  0.284400  1
  H  H45  1  0.593100  0.492700  0.784400  1
  H  H46  1  0.593100  0.007300  0.215600  1
  H  H47  1  0.093100  0.492700  0.284400  1
  H  H48  1  0.093100  0.007300  0.715600  1
  H  H49  1  0.932500  0.315800  0.038400  1.0
  H  H50  1  0.932500  0.184200  0.961600  1.0
  H  H51  1  0.432500  0.315800  0.538400  1.0
  H  H52  1  0.432500  0.184200  0.461600  1.0
  H  H53  1  0.067500  0.684200  0.961600  1.0
  H  H54  1  0.067500  0.815800  0.038400  1.0
  H  H55  1  0.567500  0.684200  0.461600  1.0
  H  H56  1  0.567500  0.815800  0.538400  1.0
  H  H57  1  0.947500  0.336400  0.015600  1.0
  H  H58  1  0.947500  0.163600  0.984400  1.0
  H  H59  1  0.447500  0.336400  0.515600  1.0
  H  H60  1  0.447500  0.163600  0.484400  1.0
  H  H61  1  0.052500  0.663600  0.984400  1.0
  H  H62  1  0.052500  0.836400  0.015600  1.0
  H  H63  1  0.552500  0.663600  0.484400  1.0
  H  H64  1  0.552500  0.836400  0.515600  1.0
  H  H65  1  0.995200  0.279900  0.028500  1.0
  H  H66  1  0.995200  0.220100  0.971500  1.0
  H  H67  1  0.495200  0.279900  0.528500  1.0
  H  H68  1  0.495200  0.220100  0.471500  1.0
  H  H69  1  0.004800  0.720100  0.971500  1.0
  H  H70  1  0.004800  0.779900  0.028500  1.0
  H  H71  1  0.504800  0.720100  0.471500  1.0
  H  H72  1  0.504800  0.779900  0.528500  1.0
  H  H73  1  0.999700  0.292000  0.999900  1.0
  H  H74  1  0.999700  0.208000  0.000100  1.0
  H  H75  1  0.499700  0.292000  0.499900  1.0
  H  H76  1  0.499700  0.208000  0.500100  1.0
  H  H77  1  0.000300  0.708000  0.000100  1.0
  H  H78  1  0.000300  0.792000  0.999900  1.0
  H  H79  1  0.500300  0.708000  0.500100  1.0
  H  H80  1  0.500300  0.792000  0.499900  1.0
  H  H81  1  0.394500  0.149800  0.151600  1.0
  H  H82  1  0.394500  0.350200  0.848400  1.0
  H  H83  1  0.894500  0.149800  0.651600  1.0
  H  H84  1  0.894500  0.350200  0.348400  1.0
  H  H85  1  0.605500  0.850200  0.848400  1.0
  H  H86  1  0.605500  0.649800  0.151600  1.0
  H  H87  1  0.105500  0.850200  0.348400  1.0
  H  H88  1  0.105500  0.649800  0.651600  1.0
  H  H89  1  0.444700  0.171900  0.159300  1.0
  H  H90  1  0.444700  0.328100  0.840700  1.0
  H  H91  1  0.944700  0.171900  0.659300  1.0
  H  H92  1  0.944700  0.328100  0.340700  1.0
  H  H93  1  0.555300  0.828100  0.840700  1.0
  H  H94  1  0.555300  0.671900  0.159300  1.0
  H  H95  1  0.055300  0.828100  0.340700  1.0
  H  H96  1  0.055300  0.671900  0.659300  1.0
  H  H97  1  0.366000  0.177700  0.199200  1.0
  H  H98  1  0.366000  0.322300  0.800800  1.0
  H  H99  1  0.866000  0.177700  0.699200  1.0
  H  H100  1  0.866000  0.322300  0.300800  1.0
  H  H101  1  0.634000  0.822300  0.800800  1.0
  H  H102  1  0.634000  0.677700  0.199200  1.0
  H  H103  1  0.134000  0.822300  0.300800  1.0
  H  H104  1  0.134000  0.677700  0.699200  1.0
  H  H105  1  0.418800  0.162000  0.202300  1.0
  H  H106  1  0.418800  0.338000  0.797700  1.0
  H  H107  1  0.918800  0.162000  0.702300  1.0
  H  H108  1  0.918800  0.338000  0.297700  1.0
  H  H109  1  0.581200  0.838000  0.797700  1.0
  H  H110  1  0.581200  0.662000  0.202300  1.0
  H  H111  1  0.081200  0.838000  0.297700  1.0
  H  H112  1  0.081200  0.662000  0.702300  1.0
  H  H113  1  0.465200  0.292400  0.028000  1.0
  H  H114  1  0.465200  0.207600  0.972000  1.0
  H  H115  1  0.965200  0.292400  0.528000  1.0
  H  H116  1  0.965200  0.207600  0.472000  1.0
  H  H117  1  0.534800  0.707600  0.972000  1.0
  H  H118  1  0.534800  0.792400  0.028000  1.0
  H  H119  1  0.034800  0.707600  0.472000  1.0
  H  H120  1  0.034800  0.792400  0.528000  1.0
  H  H121  1  0.522200  0.285200  0.025800  1.0
  H  H122  1  0.522200  0.214800  0.974200  1.0
  H  H123  1  0.022200  0.285200  0.525800  1.0
  H  H124  1  0.022200  0.214800  0.474200  1.0
  H  H125  1  0.477800  0.714800  0.974200  1.0
  H  H126  1  0.477800  0.785200  0.025800  1.0
  H  H127  1  0.977800  0.714800  0.474200  1.0
  H  H128  1  0.977800  0.785200  0.525800  1.0
  H  H129  1  0.517400  0.245700  0.053200  1.0
  H  H130  1  0.517400  0.254300  0.946800  1.0
  H  H131  1  0.017400  0.245700  0.553200  1.0
  H  H132  1  0.017400  0.254300  0.446800  1.0
  H  H133  1  0.482600  0.754300  0.946800  1.0
  H  H134  1  0.482600  0.745700  0.053200  1.0
  H  H135  1  0.982600  0.754300  0.446800  1.0
  H  H136  1  0.982600  0.745700  0.553200  1.0
  H  H137  1  0.474500  0.233200  0.029600  1.0
  H  H138  1  0.474500  0.266800  0.970400  1.0
  H  H139  1  0.974500  0.233200  0.529600  1.0
  H  H140  1  0.974500  0.266800  0.470400  1.0
  H  H141  1  0.525500  0.766800  0.970400  1.0
  H  H142  1  0.525500  0.733200  0.029600  1.0
  H  H143  1  0.025500  0.766800  0.470400  1.0
  H  H144  1  0.025500  0.733200  0.529600  1.0
  H  H145  1  0.223400  0.316200  0.949200  1.0
  H  H146  1  0.223400  0.183800  0.050800  1.0
  H  H147  1  0.723400  0.316200  0.449200  1.0
  H  H148  1  0.723400  0.183800  0.550800  1.0
  H  H149  1  0.776600  0.683800  0.050800  1.0
  H  H150  1  0.776600  0.816200  0.949200  1.0
  H  H151  1  0.276600  0.683800  0.550800  1.0
  H  H152  1  0.276600  0.816200  0.449200  1.0
  H  H153  1  0.262700  0.299200  0.965300  1.0
  H  H154  1  0.262700  0.200800  0.034700  1.0
  H  H155  1  0.762700  0.299200  0.465300  1.0
  H  H156  1  0.762700  0.200800  0.534700  1.0
  H  H157  1  0.737300  0.700800  0.034700  1.0
  H  H158  1  0.737300  0.799200  0.965300  1.0
  H  H159  1  0.237300  0.700800  0.534700  1.0
  H  H160  1  0.237300  0.799200  0.465300  1.0
  H  H161  1  0.278200  0.349200  0.942900  1.0
  H  H162  1  0.278200  0.150800  0.057100  1.0
  H  H163  1  0.778200  0.349200  0.442900  1.0
  H  H164  1  0.778200  0.150800  0.557100  1.0
  H  H165  1  0.721800  0.650800  0.057100  1.0
  H  H166  1  0.721800  0.849200  0.942900  1.0
  H  H167  1  0.221800  0.650800  0.557100  1.0
  H  H168  1  0.221800  0.849200  0.442900  1.0
  H  H169  1  0.312200  0.340000  0.966300  1.0
  H  H170  1  0.312200  0.160000  0.033700  1.0
  H  H171  1  0.812200  0.340000  0.466300  1.0
  H  H172  1  0.812200  0.160000  0.533700  1.0
  H  H173  1  0.687800  0.660000  0.033700  1.0
  H  H174  1  0.687800  0.840000  0.966300  1.0
  H  H175  1  0.187800  0.660000  0.533700  1.0
  H  H176  1  0.187800  0.840000  0.466300  1.0
  H  H177  1  0.897400  0.529500  0.048100  1.0
  H  H178  1  0.897400  0.970500  0.951900  1.0
  H  H179  1  0.397400  0.529500  0.548100  1.0
  H  H180  1  0.397400  0.970500  0.451900  1.0
  H  H181  1  0.102600  0.470500  0.951900  1.0
  H  H182  1  0.102600  0.029500  0.048100  1.0
  H  H183  1  0.602600  0.470500  0.451900  1.0
  H  H184  1  0.602600  0.029500  0.548100  1.0
  H  H185  1  0.912800  0.560400  0.078200  1.0
  H  H186  1  0.912800  0.939600  0.921800  1.0
  H  H187  1  0.412800  0.560400  0.578200  1.0
  H  H188  1  0.412800  0.939600  0.421800  1.0
  H  H189  1  0.087200  0.439600  0.921800  1.0
  H  H190  1  0.087200  0.060400  0.078200  1.0
  H  H191  1  0.587200  0.439600  0.421800  1.0
  H  H192  1  0.587200  0.060400  0.578200  1.0
  H  H193  1  0.945600  0.577900  0.042800  1.0
  H  H194  1  0.945600  0.922100  0.957200  1.0
  H  H195  1  0.445600  0.577900  0.542800  1.0
  H  H196  1  0.445600  0.922100  0.457200  1.0
  H  H197  1  0.054400  0.422100  0.957200  1.0
  H  H198  1  0.054400  0.077900  0.042800  1.0
  H  H199  1  0.554400  0.422100  0.457200  1.0
  H  H200  1  0.554400  0.077900  0.542800  1.0
  H  H201  1  0.965400  0.536700  0.026400  1.0
  H  H202  1  0.965400  0.963300  0.973600  1.0
  H  H203  1  0.465400  0.536700  0.526400  1.0
  H  H204  1  0.465400  0.963300  0.473600  1.0
  H  H205  1  0.034600  0.463300  0.973600  1.0
  H  H206  1  0.034600  0.036700  0.026400  1.0
  H  H207  1  0.534600  0.463300  0.473600  1.0
  H  H208  1  0.534600  0.036700  0.526400  1.0
  H  H209  1  0.264400  0.563200  0.979800  1.0
  H  H210  1  0.264400  0.936800  0.020200  1.0
  H  H211  1  0.764400  0.563200  0.479800  1.0
  H  H212  1  0.764400  0.936800  0.520200  1.0
  H  H213  1  0.735600  0.436800  0.020200  1.0
  H  H214  1  0.735600  0.063200  0.979800  1.0
  H  H215  1  0.235600  0.436800  0.520200  1.0
  H  H216  1  0.235600  0.063200  0.479800  1.0
  H  H217  1  0.285900  0.590100  0.010100  1.0
  H  H218  1  0.285900  0.909900  0.989900  1.0
  H  H219  1  0.785900  0.590100  0.510100  1.0
  H  H220  1  0.785900  0.909900  0.489900  1.0
  H  H221  1  0.714100  0.409900  0.989900  1.0
  H  H222  1  0.714100  0.090100  0.010100  1.0
  H  H223  1  0.214100  0.409900  0.489900  1.0
  H  H224  1  0.214100  0.090100  0.510100  1.0
  H  H225  1  0.214900  0.618700  0.010900  1.0
  H  H226  1  0.214900  0.881300  0.989100  1.0
  H  H227  1  0.714900  0.618700  0.510900  1.0
  H  H228  1  0.714900  0.881300  0.489100  1.0
  H  H229  1  0.785100  0.381300  0.989100  1.0
  H  H230  1  0.785100  0.118700  0.010900  1.0
  H  H231  1  0.285100  0.381300  0.489100  1.0
  H  H232  1  0.285100  0.118700  0.510900  1.0
  H  H233  1  0.188800  0.581500  0.991700  1.0
  H  H234  1  0.188800  0.918500  0.008300  1.0
  H  H235  1  0.688800  0.581500  0.491700  1.0
  H  H236  1  0.688800  0.918500  0.508300  1.0
  H  H237  1  0.811200  0.418500  0.008300  1.0
  H  H238  1  0.811200  0.081500  0.991700  1.0
  H  H239  1  0.311200  0.418500  0.508300  1.0
  H  H240  1  0.311200  0.081500  0.491700  1.0
  H  H241  1  0.705500  0.471200  0.178100  1.0
  H  H242  1  0.705500  0.028800  0.821900  1.0
  H  H243  1  0.205500  0.471200  0.678100  1.0
  H  H244  1  0.205500  0.028800  0.321900  1.0
  H  H245  1  0.294500  0.528800  0.821900  1.0
  H  H246  1  0.294500  0.971200  0.178100  1.0
  H  H247  1  0.794500  0.528800  0.321900  1.0
  H  H248  1  0.794500  0.971200  0.678100  1.0
  H  H249  1  0.697100  0.427500  0.161700  1.0
  H  H250  1  0.697100  0.072500  0.838300  1.0
  H  H251  1  0.197100  0.427500  0.661700  1.0
  H  H252  1  0.197100  0.072500  0.338300  1.0
  H  H253  1  0.302900  0.572500  0.838300  1.0
  H  H254  1  0.302900  0.927500  0.161700  1.0
  H  H255  1  0.802900  0.572500  0.338300  1.0
  H  H256  1  0.802900  0.927500  0.661700  1.0
  H  H257  1  0.680700  0.453800  0.128100  1.0
  H  H258  1  0.680700  0.046200  0.871900  1.0
  H  H259  1  0.180700  0.453800  0.628100  1.0
  H  H260  1  0.180700  0.046200  0.371900  1.0
  H  H261  1  0.319300  0.546200  0.871900  1.0
  H  H262  1  0.319300  0.953800  0.128100  1.0
  H  H263  1  0.819300  0.546200  0.371900  1.0
  H  H264  1  0.819300  0.953800  0.628100  1.0
  H  H265  1  0.652600  0.487600  0.150700  1.0
  H  H266  1  0.652600  0.012400  0.849300  1.0
  H  H267  1  0.152600  0.487600  0.650700  1.0
  H  H268  1  0.152600  0.012400  0.349300  1.0
  H  H269  1  0.347400  0.512400  0.849300  1.0
  H  H270  1  0.347400  0.987600  0.150700  1.0
  H  H271  1  0.847400  0.512400  0.349300  1.0
  H  H272  1  0.847400  0.987600  0.650700  1.0
  H  H273  1  0.834100  0.682900  0.263500  1.0
  H  H274  1  0.834100  0.817100  0.736500  1.0
  H  H275  1  0.334100  0.682900  0.763500  1.0
  H  H276  1  0.334100  0.817100  0.236500  1.0
  H  H277  1  0.165900  0.317100  0.736500  1.0
  H  H278  1  0.165900  0.182900  0.263500  1.0
  H  H279  1  0.665900  0.317100  0.236500  1.0
  H  H280  1  0.665900  0.182900  0.763500  1.0
  H  H281  1  0.815000  0.656800  0.232200  1.0
  H  H282  1  0.815000  0.843200  0.767800  1.0
  H  H283  1  0.315000  0.656800  0.732200  1.0
  H  H284  1  0.315000  0.843200  0.267800  1.0
  H  H285  1  0.185000  0.343200  0.767800  1.0
  H  H286  1  0.185000  0.156800  0.232200  1.0
  H  H287  1  0.685000  0.343200  0.267800  1.0
  H  H288  1  0.685000  0.156800  0.732200  1.0
  H  H289  1  0.876000  0.677300  0.206600  1.0
  H  H290  1  0.876000  0.822700  0.793400  1.0
  H  H291  1  0.376000  0.677300  0.706600  1.0
  H  H292  1  0.376000  0.822700  0.293400  1.0
  H  H293  1  0.124000  0.322700  0.793400  1.0
  H  H294  1  0.124000  0.177300  0.206600  1.0
  H  H295  1  0.624000  0.322700  0.293400  1.0
  H  H296  1  0.624000  0.177300  0.706600  1.0
  H  H297  1  0.865700  0.715200  0.232700  1.0
  H  H298  1  0.865700  0.784800  0.767300  1.0
  H  H299  1  0.365700  0.715200  0.732700  1.0
  H  H300  1  0.365700  0.784800  0.267300  1.0
  H  H301  1  0.134300  0.284800  0.767300  1.0
  H  H302  1  0.134300  0.215200  0.232700  1.0
  H  H303  1  0.634300  0.284800  0.267300  1.0
  H  H304  1  0.634300  0.215200  0.732700  1.0
  H  H305  1  0.411000  0.681400  0.061600  1.0
  H  H306  1  0.411000  0.818600  0.938400  1.0
  H  H307  1  0.911000  0.681400  0.561600  1.0
  H  H308  1  0.911000  0.818600  0.438400  1.0
  H  H309  1  0.589000  0.318600  0.938400  1.0
  H  H310  1  0.589000  0.181400  0.061600  1.0
  H  H311  1  0.089000  0.318600  0.438400  1.0
  H  H312  1  0.089000  0.181400  0.561600  1.0
  H  H313  1  0.361300  0.659400  0.061500  1.0
  H  H314  1  0.361300  0.840600  0.938500  1.0
  H  H315  1  0.861300  0.659400  0.561500  1.0
  H  H316  1  0.861300  0.840600  0.438500  1.0
  H  H317  1  0.638700  0.340600  0.938500  1.0
  H  H318  1  0.638700  0.159400  0.061500  1.0
  H  H319  1  0.138700  0.340600  0.438500  1.0
  H  H320  1  0.138700  0.159400  0.561500  1.0
  H  H321  1  0.343700  0.718100  0.078300  1.0
  H  H322  1  0.343700  0.781900  0.921700  1.0
  H  H323  1  0.843700  0.718100  0.578300  1.0
  H  H324  1  0.843700  0.781900  0.421700  1.0
  H  H325  1  0.656300  0.281900  0.921700  1.0
  H  H326  1  0.656300  0.218100  0.078300  1.0
  H  H327  1  0.156300  0.281900  0.421700  1.0
  H  H328  1  0.156300  0.218100  0.578300  1.0
  H  H329  1  0.390200  0.727100  0.098600  1.0
  H  H330  1  0.390200  0.772900  0.901400  1.0
  H  H331  1  0.890200  0.727100  0.598600  1.0
  H  H332  1  0.890200  0.772900  0.401400  1.0
  H  H333  1  0.609800  0.272900  0.901400  1.0
  H  H334  1  0.609800  0.227100  0.098600  1.0
  H  H335  1  0.109800  0.272900  0.401400  1.0
  H  H336  1  0.109800  0.227100  0.598600  1.0
  H  H337  1  0.964500  0.237300  0.102900  1.0
  H  H338  1  0.964500  0.262700  0.897100  1.0
  H  H339  1  0.464500  0.237300  0.602900  1.0
  H  H340  1  0.464500  0.262700  0.397100  1.0
  H  H341  1  0.035500  0.762700  0.897100  1.0
  H  H342  1  0.035500  0.737300  0.102900  1.0
  H  H343  1  0.535500  0.762700  0.397100  1.0
  H  H344  1  0.535500  0.737300  0.602900  1.0
  H  H345  1  0.956700  0.203300  0.114900  1.0
  H  H346  1  0.956700  0.296700  0.885100  1.0
  H  H347  1  0.456700  0.203300  0.614900  1.0
  H  H348  1  0.456700  0.296700  0.385100  1.0
  H  H349  1  0.043300  0.796700  0.885100  1.0
  H  H350  1  0.043300  0.703300  0.114900  1.0
  H  H351  1  0.543300  0.796700  0.385100  1.0
  H  H352  1  0.543300  0.703300  0.614900  1.0
  H  H353  1  0.911600  0.233300  0.148700  1.0
  H  H354  1  0.911600  0.266700  0.851300  1.0
  H  H355  1  0.411600  0.233300  0.648700  1.0
  H  H356  1  0.411600  0.266700  0.351300  1.0
  H  H357  1  0.088400  0.766700  0.851300  1.0
  H  H358  1  0.088400  0.733300  0.148700  1.0
  H  H359  1  0.588400  0.766700  0.351300  1.0
  H  H360  1  0.588400  0.733300  0.648700  1.0
  H  H361  1  0.898300  0.250700  0.123700  1.0
  H  H362  1  0.898300  0.249300  0.876300  1.0
  H  H363  1  0.398300  0.250700  0.623700  1.0
  H  H364  1  0.398300  0.249300  0.376300  1.0
  H  H365  1  0.101700  0.749300  0.876300  1.0
  H  H366  1  0.101700  0.750700  0.123700  1.0
  H  H367  1  0.601700  0.749300  0.376300  1.0
  H  H368  1  0.601700  0.750700  0.623700  1.0
  H  H369  1  0.453400  0.663500  0.166000  1.0
  H  H370  1  0.453400  0.836500  0.834000  1.0
  H  H371  1  0.953400  0.663500  0.666000  1.0
  H  H372  1  0.953400  0.836500  0.334000  1.0
  H  H373  1  0.546600  0.336500  0.834000  1.0
  H  H374  1  0.546600  0.163500  0.166000  1.0
  H  H375  1  0.046600  0.336500  0.334000  1.0
  H  H376  1  0.046600  0.163500  0.666000  1.0
  H  H377  1  0.496200  0.617300  0.178300  1.0
  H  H378  1  0.496200  0.882700  0.821700  1.0
  H  H379  1  0.996200  0.617300  0.678300  1.0
  H  H380  1  0.996200  0.882700  0.321700  1.0
  H  H381  1  0.503800  0.382700  0.821700  1.0
  H  H382  1  0.503800  0.117300  0.178300  1.0
  H  H383  1  0.003800  0.382700  0.321700  1.0
  H  H384  1  0.003800  0.117300  0.678300  1.0
  H  H385  1  0.472800  0.555800  0.162900  1.0
  H  H386  1  0.472800  0.944200  0.837100  1.0
  H  H387  1  0.972800  0.555800  0.662900  1.0
  H  H388  1  0.972800  0.944200  0.337100  1.0
  H  H389  1  0.527200  0.444200  0.837100  1.0
  H  H390  1  0.527200  0.055800  0.162900  1.0
  H  H391  1  0.027200  0.444200  0.337100  1.0
  H  H392  1  0.027200  0.055800  0.662900  1.0
  H  H393  1  0.360400  0.587200  0.121800  1.0
  H  H394  1  0.360400  0.912800  0.878200  1.0
  H  H395  1  0.860400  0.587200  0.621800  1.0
  H  H396  1  0.860400  0.912800  0.378200  1.0
  H  H397  1  0.639600  0.412800  0.878200  1.0
  H  H398  1  0.639600  0.087200  0.121800  1.0
  H  H399  1  0.139600  0.412800  0.378200  1.0
  H  H400  1  0.139600  0.087200  0.621800  1.0
  H  H401  1  0.527700  0.369700  0.139700  1.0
  H  H402  1  0.527700  0.130300  0.860300  1.0
  H  H403  1  0.027700  0.369700  0.639700  1.0
  H  H404  1  0.027700  0.130300  0.360300  1.0
  H  H405  1  0.472300  0.630300  0.860300  1.0
  H  H406  1  0.472300  0.869700  0.139700  1.0
  H  H407  1  0.972300  0.630300  0.360300  1.0
  H  H408  1  0.972300  0.869700  0.639700  1.0
  H  H409  1  0.488900  0.473300  0.153400  1.0
  H  H410  1  0.488900  0.026700  0.846600  1.0
  H  H411  1  0.988900  0.473300  0.653400  1.0
  H  H412  1  0.988900  0.026700  0.346600  1.0
  H  H413  1  0.511100  0.526700  0.846600  1.0
  H  H414  1  0.511100  0.973300  0.153400  1.0
  H  H415  1  0.011100  0.526700  0.346600  1.0
  H  H416  1  0.011100  0.973300  0.653400  1.0
  H  H417  1  0.404900  0.390000  0.102300  1.0
  H  H418  1  0.404900  0.110000  0.897700  1.0
  H  H419  1  0.904900  0.390000  0.602300  1.0
  H  H420  1  0.904900  0.110000  0.397700  1.0
  H  H421  1  0.595100  0.610000  0.897700  1.0
  H  H422  1  0.595100  0.890000  0.102300  1.0
  H  H423  1  0.095100  0.610000  0.397700  1.0
  H  H424  1  0.095100  0.890000  0.602300  1.0
  H  H425  1  0.207900  0.461800  0.025800  1.0
  H  H426  1  0.207900  0.038200  0.974200  1.0
  H  H427  1  0.707900  0.461800  0.525800  1.0
  H  H428  1  0.707900  0.038200  0.474200  1.0
  H  H429  1  0.792100  0.538200  0.974200  1.0
  H  H430  1  0.792100  0.961800  0.025800  1.0
  H  H431  1  0.292100  0.538200  0.474200  1.0
  H  H432  1  0.292100  0.961800  0.525800  1.0
  H  H433  1  0.286200  0.530300  0.086000  1.0
  H  H434  1  0.286200  0.969700  0.914000  1.0
  H  H435  1  0.786200  0.530300  0.586000  1.0
  H  H436  1  0.786200  0.969700  0.414000  1.0
  H  H437  1  0.713800  0.469700  0.914000  1.0
  H  H438  1  0.713800  0.030300  0.086000  1.0
  H  H439  1  0.213800  0.469700  0.414000  1.0
  H  H440  1  0.213800  0.030300  0.586000  1.0
  H  H441  1  0.299800  0.421900  0.067400  1.0
  H  H442  1  0.299800  0.078100  0.932600  1.0
  H  H443  1  0.799800  0.421900  0.567400  1.0
  H  H444  1  0.799800  0.078100  0.432600  1.0
  H  H445  1  0.700200  0.578100  0.932600  1.0
  H  H446  1  0.700200  0.921900  0.067400  1.0
  H  H447  1  0.200200  0.578100  0.432600  1.0
  H  H448  1  0.200200  0.921900  0.567400  1.0
  H  H449  1  0.354900  0.432200  0.101800  1.0
  H  H450  1  0.354900  0.067800  0.898200  1.0
  H  H451  1  0.854900  0.432200  0.601800  1.0
  H  H452  1  0.854900  0.067800  0.398200  1.0
  H  H453  1  0.645100  0.567800  0.898200  1.0
  H  H454  1  0.645100  0.932200  0.101800  1.0
  H  H455  1  0.145100  0.567800  0.398200  1.0
  H  H456  1  0.145100  0.932200  0.601800  1.0
  H  H457  1  0.070200  0.266500  0.206700  1.0
  H  H458  1  0.070200  0.233500  0.793300  1.0
  H  H459  1  0.570200  0.266500  0.706700  1.0
  H  H460  1  0.570200  0.233500  0.293300  1.0
  H  H461  1  0.929800  0.733500  0.793300  1.0
  H  H462  1  0.929800  0.766500  0.206700  1.0
  H  H463  1  0.429800  0.733500  0.293300  1.0
  H  H464  1  0.429800  0.766500  0.706700  1.0
  H  H465  1  0.151900  0.286300  0.229200  1.0
  H  H466  1  0.151900  0.213700  0.770800  1.0
  H  H467  1  0.651900  0.286300  0.729200  1.0
  H  H468  1  0.651900  0.213700  0.270800  1.0
  H  H469  1  0.848100  0.713700  0.770800  1.0
  H  H470  1  0.848100  0.786300  0.229200  1.0
  H  H471  1  0.348100  0.713700  0.270800  1.0
  H  H472  1  0.348100  0.786300  0.729200  1.0
  H  H473  1  0.211000  0.279600  0.188000  1.0
  H  H474  1  0.211000  0.220400  0.812000  1.0
  H  H475  1  0.711000  0.279600  0.688000  1.0
  H  H476  1  0.711000  0.220400  0.312000  1.0
  H  H477  1  0.789000  0.720400  0.812000  1.0
  H  H478  1  0.789000  0.779600  0.188000  1.0
  H  H479  1  0.289000  0.720400  0.312000  1.0
  H  H480  1  0.289000  0.779600  0.688000  1.0
  H  H481  1  0.100900  0.306000  0.144200  1.0
  H  H482  1  0.100900  0.194000  0.855800  1.0
  H  H483  1  0.600900  0.306000  0.644200  1.0
  H  H484  1  0.600900  0.194000  0.355800  1.0
  H  H485  1  0.899100  0.694000  0.855800  1.0
  H  H486  1  0.899100  0.806000  0.144200  1.0
  H  H487  1  0.399100  0.694000  0.355800  1.0
  H  H488  1  0.399100  0.806000  0.644200  1.0
  H  H489  1  0.448800  0.286200  0.146600  1.0
  H  H490  1  0.448800  0.213800  0.853400  1.0
  H  H491  1  0.948800  0.286200  0.646600  1.0
  H  H492  1  0.948800  0.213800  0.353400  1.0
  H  H493  1  0.551200  0.713800  0.853400  1.0
  H  H494  1  0.551200  0.786200  0.146600  1.0
  H  H495  1  0.051200  0.713800  0.353400  1.0
  H  H496  1  0.051200  0.786200  0.646600  1.0
  H  H497  1  0.315900  0.288100  0.172400  1.0
  H  H498  1  0.315900  0.211900  0.827600  1.0
  H  H499  1  0.815900  0.288100  0.672400  1.0
  H  H500  1  0.815900  0.211900  0.327600  1.0
  H  H501  1  0.684100  0.711900  0.827600  1.0
  H  H502  1  0.684100  0.788100  0.172400  1.0
  H  H503  1  0.184100  0.711900  0.327600  1.0
  H  H504  1  0.184100  0.788100  0.672400  1.0
  H  H505  1  0.354600  0.331400  0.107900  1.0
  H  H506  1  0.354600  0.168600  0.892100  1.0
  H  H507  1  0.854600  0.331400  0.607900  1.0
  H  H508  1  0.854600  0.168600  0.392100  1.0
  H  H509  1  0.645400  0.668600  0.892100  1.0
  H  H510  1  0.645400  0.831400  0.107900  1.0
  H  H511  1  0.145400  0.668600  0.392100  1.0
  H  H512  1  0.145400  0.831400  0.607900  1.0
  H  H513  1  0.130700  0.384100  0.033300  1.0
  H  H514  1  0.130700  0.115900  0.966700  1.0
  H  H515  1  0.630700  0.384100  0.533300  1.0
  H  H516  1  0.630700  0.115900  0.466700  1.0
  H  H517  1  0.869300  0.615900  0.966700  1.0
  H  H518  1  0.869300  0.884100  0.033300  1.0
  H  H519  1  0.369300  0.615900  0.466700  1.0
  H  H520  1  0.369300  0.884100  0.533300  1.0
  H  H521  1  0.118500  0.346900  0.100300  1.0
  H  H522  1  0.118500  0.153100  0.899700  1.0
  H  H523  1  0.618500  0.346900  0.600300  1.0
  H  H524  1  0.618500  0.153100  0.399700  1.0
  H  H525  1  0.881500  0.653100  0.899700  1.0
  H  H526  1  0.881500  0.846900  0.100300  1.0
  H  H527  1  0.381500  0.653100  0.399700  1.0
  H  H528  1  0.381500  0.846900  0.600300  1.0
  H  H529  1  0.249000  0.363100  0.072100  1.0
  H  H530  1  0.249000  0.136900  0.927900  1.0
  H  H531  1  0.749000  0.363100  0.572100  1.0
  H  H532  1  0.749000  0.136900  0.427900  1.0
  H  H533  1  0.751000  0.636900  0.927900  1.0
  H  H534  1  0.751000  0.863100  0.072100  1.0
  H  H535  1  0.251000  0.636900  0.427900  1.0
  H  H536  1  0.251000  0.863100  0.572100  1.0
  H  H537  1  0.278900  0.347700  0.106500  1.0
  H  H538  1  0.278900  0.152300  0.893500  1.0
  H  H539  1  0.778900  0.347700  0.606500  1.0
  H  H540  1  0.778900  0.152300  0.393500  1.0
  H  H541  1  0.721100  0.652300  0.893500  1.0
  H  H542  1  0.721100  0.847700  0.106500  1.0
  H  H543  1  0.221100  0.652300  0.393500  1.0
  H  H544  1  0.221100  0.847700  0.606500  1.0
  H  H545  1  0.372300  0.705400  0.195800  1.0
  H  H546  1  0.372300  0.794600  0.804200  1.0
  H  H547  1  0.872300  0.705400  0.695800  1.0
  H  H548  1  0.872300  0.794600  0.304200  1.0
  H  H549  1  0.627700  0.294600  0.804200  1.0
  H  H550  1  0.627700  0.205400  0.195800  1.0
  H  H551  1  0.127700  0.294600  0.304200  1.0
  H  H552  1  0.127700  0.205400  0.695800  1.0
  H  H553  1  0.322300  0.718800  0.237100  1.0
  H  H554  1  0.322300  0.781200  0.762900  1.0
  H  H555  1  0.822300  0.718800  0.737100  1.0
  H  H556  1  0.822300  0.781200  0.262900  1.0
  H  H557  1  0.677700  0.281200  0.762900  1.0
  H  H558  1  0.677700  0.218800  0.237100  1.0
  H  H559  1  0.177700  0.281200  0.262900  1.0
  H  H560  1  0.177700  0.218800  0.737100  1.0
  H  H561  1  0.246600  0.702000  0.233700  1.0
  H  H562  1  0.246600  0.798000  0.766300  1.0
  H  H563  1  0.746600  0.702000  0.733700  1.0
  H  H564  1  0.746600  0.798000  0.266300  1.0
  H  H565  1  0.753400  0.298000  0.766300  1.0
  H  H566  1  0.753400  0.202000  0.233700  1.0
  H  H567  1  0.253400  0.298000  0.266300  1.0
  H  H568  1  0.253400  0.202000  0.733700  1.0
  H  H569  1  0.265600  0.645300  0.147500  1.0
  H  H570  1  0.265600  0.854700  0.852500  1.0
  H  H571  1  0.765600  0.645300  0.647500  1.0
  H  H572  1  0.765600  0.854700  0.352500  1.0
  H  H573  1  0.734400  0.354700  0.852500  1.0
  H  H574  1  0.734400  0.145300  0.147500  1.0
  H  H575  1  0.234400  0.354700  0.352500  1.0
  H  H576  1  0.234400  0.145300  0.647500  1.0
  H  H577  1  0.114000  0.522600  0.055100  1.0
  H  H578  1  0.114000  0.977400  0.944900  1.0
  H  H579  1  0.614000  0.522600  0.555100  1.0
  H  H580  1  0.614000  0.977400  0.444900  1.0
  H  H581  1  0.886000  0.477400  0.944900  1.0
  H  H582  1  0.886000  0.022600  0.055100  1.0
  H  H583  1  0.386000  0.477400  0.444900  1.0
  H  H584  1  0.386000  0.022600  0.555100  1.0
  H  H585  1  0.205700  0.586000  0.111000  1.0
  H  H586  1  0.205700  0.914000  0.889000  1.0
  H  H587  1  0.705700  0.586000  0.611000  1.0
  H  H588  1  0.705700  0.914000  0.389000  1.0
  H  H589  1  0.794300  0.414000  0.889000  1.0
  H  H590  1  0.794300  0.086000  0.111000  1.0
  H  H591  1  0.294300  0.414000  0.389000  1.0
  H  H592  1  0.294300  0.086000  0.611000  1.0
  H  H593  1  0.071600  0.570800  0.135000  1.0
  H  H594  1  0.071600  0.929200  0.865000  1.0
  H  H595  1  0.571600  0.570800  0.635000  1.0
  H  H596  1  0.571600  0.929200  0.365000  1.0
  H  H597  1  0.928400  0.429200  0.865000  1.0
  H  H598  1  0.928400  0.070800  0.135000  1.0
  H  H599  1  0.428400  0.429200  0.365000  1.0
  H  H600  1  0.428400  0.070800  0.635000  1.0
  H  H601  1  0.011200  0.700400  0.289900  1.0
  H  H602  1  0.011200  0.799600  0.710100  1.0
  H  H603  1  0.511200  0.700400  0.789900  1.0
  H  H604  1  0.511200  0.799600  0.210100  1.0
  H  H605  1  0.988800  0.299600  0.710100  1.0
  H  H606  1  0.988800  0.200400  0.289900  1.0
  H  H607  1  0.488800  0.299600  0.210100  1.0
  H  H608  1  0.488800  0.200400  0.789900  1.0
  H  H609  1  0.034700  0.628400  0.213700  1.0
  H  H610  1  0.034700  0.871600  0.786300  1.0
  H  H611  1  0.534700  0.628400  0.713700  1.0
  H  H612  1  0.534700  0.871600  0.286300  1.0
  H  H613  1  0.965300  0.371600  0.786300  1.0
  H  H614  1  0.965300  0.128400  0.213700  1.0
  H  H615  1  0.465300  0.371600  0.286300  1.0
  H  H616  1  0.465300  0.128400  0.713700  1.0
  H  H617  1  0.142300  0.695200  0.257100  1.0
  H  H618  1  0.142300  0.804800  0.742900  1.0
  H  H619  1  0.642300  0.695200  0.757100  1.0
  H  H620  1  0.642300  0.804800  0.242900  1.0
  H  H621  1  0.857700  0.304800  0.742900  1.0
  H  H622  1  0.857700  0.195200  0.257100  1.0
  H  H623  1  0.357700  0.304800  0.242900  1.0
  H  H624  1  0.357700  0.195200  0.757100  1.0
  H  H625  1  0.086400  0.605900  0.178700  1.0
  H  H626  1  0.086400  0.894100  0.821300  1.0
  H  H627  1  0.586400  0.605900  0.678700  1.0
  H  H628  1  0.586400  0.894100  0.321300  1.0
  H  H629  1  0.913600  0.394100  0.821300  1.0
  H  H630  1  0.913600  0.105900  0.178700  1.0
  H  H631  1  0.413600  0.394100  0.321300  1.0
  H  H632  1  0.413600  0.105900  0.678700  1.0
  H  H633  1  0.990300  0.314600  0.232500  1.0
  H  H634  1  0.990300  0.185400  0.767500  1.0
  H  H635  1  0.490300  0.314600  0.732500  1.0
  H  H636  1  0.490300  0.185400  0.267500  1.0
  H  H637  1  0.009700  0.685400  0.767500  1.0
  H  H638  1  0.009700  0.814600  0.232500  1.0
  H  H639  1  0.509700  0.685400  0.267500  1.0
  H  H640  1  0.509700  0.814600  0.732500  1.0
  H  H641  1  0.013600  0.370700  0.267800  1.0
  H  H642  1  0.013600  0.129300  0.732200  1.0
  H  H643  1  0.513600  0.370700  0.767800  1.0
  H  H644  1  0.513600  0.129300  0.232200  1.0
  H  H645  1  0.986400  0.629300  0.732200  1.0
  H  H646  1  0.986400  0.870700  0.267800  1.0
  H  H647  1  0.486400  0.629300  0.232200  1.0
  H  H648  1  0.486400  0.870700  0.767800  1.0
  H  H649  1  0.002100  0.427100  0.256600  1.0
  H  H650  1  0.002100  0.072900  0.743400  1.0
  H  H651  1  0.502100  0.427100  0.756600  1.0
  H  H652  1  0.502100  0.072900  0.243400  1.0
  H  H653  1  0.997900  0.572900  0.743400  1.0
  H  H654  1  0.997900  0.927100  0.256600  1.0
  H  H655  1  0.497900  0.572900  0.243400  1.0
  H  H656  1  0.497900  0.927100  0.756600  1.0
  H  H657  1  0.000700  0.366500  0.173200  1.0
  H  H658  1  0.000700  0.133500  0.826800  1.0
  H  H659  1  0.500700  0.366500  0.673200  1.0
  H  H660  1  0.500700  0.133500  0.326800  1.0
  H  H661  1  0.999300  0.633500  0.826800  1.0
  H  H662  1  0.999300  0.866500  0.173200  1.0
  H  H663  1  0.499300  0.633500  0.326800  1.0
  H  H664  1  0.499300  0.866500  0.673200  1.0
  H  H665  1  0.041700  0.446100  0.062800  1.0
  H  H666  1  0.041700  0.053900  0.937200  1.0
  H  H667  1  0.541700  0.446100  0.562800  1.0
  H  H668  1  0.541700  0.053900  0.437200  1.0
  H  H669  1  0.958300  0.553900  0.937200  1.0
  H  H670  1  0.958300  0.946100  0.062800  1.0
  H  H671  1  0.458300  0.553900  0.437200  1.0
  H  H672  1  0.458300  0.946100  0.562800  1.0
  H  H673  1  0.031400  0.403400  0.127500  1.0
  H  H674  1  0.031400  0.096600  0.872500  1.0
  H  H675  1  0.531400  0.403400  0.627500  1.0
  H  H676  1  0.531400  0.096600  0.372500  1.0
  H  H677  1  0.968600  0.596600  0.872500  1.0
  H  H678  1  0.968600  0.903400  0.127500  1.0
  H  H679  1  0.468600  0.596600  0.372500  1.0
  H  H680  1  0.468600  0.903400  0.627500  1.0
  H  H681  1  0.019200  0.513600  0.141200  1.0
  H  H682  1  0.019200  0.986400  0.858800  1.0
  H  H683  1  0.519200  0.513600  0.641200  1.0
  H  H684  1  0.519200  0.986400  0.358800  1.0
  H  H685  1  0.980800  0.486400  0.858800  1.0
  H  H686  1  0.980800  0.013600  0.141200  1.0
  H  H687  1  0.480800  0.486400  0.358800  1.0
  H  H688  1  0.480800  0.013600  0.641200  1.0
  H  H689  1  0.936800  0.619000  0.298000  1.0
  H  H690  1  0.936800  0.881000  0.702000  1.0
  H  H691  1  0.436800  0.619000  0.798000  1.0
  H  H692  1  0.436800  0.881000  0.202000  1.0
  H  H693  1  0.063200  0.381000  0.702000  1.0
  H  H694  1  0.063200  0.119000  0.298000  1.0
  H  H695  1  0.563200  0.381000  0.202000  1.0
  H  H696  1  0.563200  0.119000  0.798000  1.0
  H  H697  1  0.987600  0.570000  0.219300  1.0
  H  H698  1  0.987600  0.930000  0.780700  1.0
  H  H699  1  0.487600  0.570000  0.719300  1.0
  H  H700  1  0.487600  0.930000  0.280700  1.0
  H  H701  1  0.012400  0.430000  0.780700  1.0
  H  H702  1  0.012400  0.070000  0.219300  1.0
  H  H703  1  0.512400  0.430000  0.280700  1.0
  H  H704  1  0.512400  0.070000  0.719300  1.0
  H  H705  1  0.971000  0.510400  0.274700  1.0
  H  H706  1  0.971000  0.989600  0.725300  1.0
  H  H707  1  0.471000  0.510400  0.774700  1.0
  H  H708  1  0.471000  0.989600  0.225300  1.0
  H  H709  1  0.029000  0.489600  0.725300  1.0
  H  H710  1  0.029000  0.010400  0.274700  1.0
  H  H711  1  0.529000  0.489600  0.225300  1.0
  H  H712  1  0.529000  0.010400  0.774700  1.0
  H  H713  1  0.007500  0.520100  0.185900  1.0
  H  H714  1  0.007500  0.979900  0.814100  1.0
  H  H715  1  0.507500  0.520100  0.685900  1.0
  H  H716  1  0.507500  0.979900  0.314100  1.0
  H  H717  1  0.992500  0.479900  0.814100  1.0
  H  H718  1  0.992500  0.020100  0.185900  1.0
  H  H719  1  0.492500  0.479900  0.314100  1.0
  H  H720  1  0.492500  0.020100  0.685900  1.0
  H  H721  1  0.960100  0.360400  0.073000  1.0
  H  H722  1  0.960100  0.139600  0.927000  1.0
  H  H723  1  0.460100  0.360400  0.573000  1.0
  H  H724  1  0.460100  0.139600  0.427000  1.0
  H  H725  1  0.039900  0.639600  0.927000  1.0
  H  H726  1  0.039900  0.860400  0.073000  1.0
  H  H727  1  0.539900  0.639600  0.427000  1.0
  H  H728  1  0.539900  0.860400  0.573000  1.0
  H  H729  1  0.961800  0.382300  0.052900  1.0
  H  H730  1  0.961800  0.117700  0.947100  1.0
  H  H731  1  0.461800  0.382300  0.552900  1.0
  H  H732  1  0.461800  0.117700  0.447100  1.0
  H  H733  1  0.038200  0.617700  0.947100  1.0
  H  H734  1  0.038200  0.882300  0.052900  1.0
  H  H735  1  0.538200  0.617700  0.447100  1.0
  H  H736  1  0.538200  0.882300  0.552900  1.0
  H  H737  1  0.064900  0.319000  0.015200  1.0
  H  H738  1  0.064900  0.181000  0.984800  1.0
  H  H739  1  0.564900  0.319000  0.515200  1.0
  H  H740  1  0.564900  0.181000  0.484800  1.0
  H  H741  1  0.935100  0.681000  0.984800  1.0
  H  H742  1  0.935100  0.819000  0.015200  1.0
  H  H743  1  0.435100  0.681000  0.484800  1.0
  H  H744  1  0.435100  0.819000  0.515200  1.0
  H  H745  1  0.065100  0.300900  0.037900  1.0
  H  H746  1  0.065100  0.199100  0.962100  1.0
  H  H747  1  0.565100  0.300900  0.537900  1.0
  H  H748  1  0.565100  0.199100  0.462100  1.0
  H  H749  1  0.934900  0.699100  0.962100  1.0
  H  H750  1  0.934900  0.800900  0.037900  1.0
  H  H751  1  0.434900  0.699100  0.462100  1.0
  H  H752  1  0.434900  0.800900  0.537900  1.0
  H  H753  1  0.355200  0.203100  0.154100  1.0
  H  H754  1  0.355200  0.296900  0.845900  1.0
  H  H755  1  0.855200  0.203100  0.654100  1.0
  H  H756  1  0.855200  0.296900  0.345900  1.0
  H  H757  1  0.644800  0.796900  0.845900  1.0
  H  H758  1  0.644800  0.703100  0.154100  1.0
  H  H759  1  0.144800  0.796900  0.345900  1.0
  H  H760  1  0.144800  0.703100  0.654100  1.0
  H  H761  1  0.399800  0.206900  0.138800  1.0
  H  H762  1  0.399800  0.293100  0.861200  1.0
  H  H763  1  0.899800  0.206900  0.638800  1.0
  H  H764  1  0.899800  0.293100  0.361200  1.0
  H  H765  1  0.600200  0.793100  0.861200  1.0
  H  H766  1  0.600200  0.706900  0.138800  1.0
  H  H767  1  0.100200  0.793100  0.361200  1.0
  H  H768  1  0.100200  0.706900  0.638800  1.0
  H  H769  1  0.449600  0.217900  0.213800  1.0
  H  H770  1  0.449600  0.282100  0.786200  1.0
  H  H771  1  0.949600  0.217900  0.713800  1.0
  H  H772  1  0.949600  0.282100  0.286200  1.0
  H  H773  1  0.550400  0.782100  0.786200  1.0
  H  H774  1  0.550400  0.717900  0.213800  1.0
  H  H775  1  0.050400  0.782100  0.286200  1.0
  H  H776  1  0.050400  0.717900  0.713800  1.0
  H  H777  1  0.402500  0.226800  0.228400  1.0
  H  H778  1  0.402500  0.273200  0.771600  1.0
  H  H779  1  0.902500  0.226800  0.728400  1.0
  H  H780  1  0.902500  0.273200  0.271600  1.0
  H  H781  1  0.597500  0.773200  0.771600  1.0
  H  H782  1  0.597500  0.726800  0.228400  1.0
  H  H783  1  0.097500  0.773200  0.271600  1.0
  H  H784  1  0.097500  0.726800  0.728400  1.0
  H  H785  1  0.495500  0.342600  0.060900  1.0
  H  H786  1  0.495500  0.157400  0.939100  1.0
  H  H787  1  0.995500  0.342600  0.560900  1.0
  H  H788  1  0.995500  0.157400  0.439100  1.0
  H  H789  1  0.504500  0.657400  0.939100  1.0
  H  H790  1  0.504500  0.842600  0.060900  1.0
  H  H791  1  0.004500  0.657400  0.439100  1.0
  H  H792  1  0.004500  0.842600  0.560900  1.0
  H  H793  1  0.532200  0.322000  0.071500  1.0
  H  H794  1  0.532200  0.178000  0.928500  1.0
  H  H795  1  0.032200  0.322000  0.571500  1.0
  H  H796  1  0.032200  0.178000  0.428500  1.0
  H  H797  1  0.467800  0.678000  0.928500  1.0
  H  H798  1  0.467800  0.822000  0.071500  1.0
  H  H799  1  0.967800  0.678000  0.428500  1.0
  H  H800  1  0.967800  0.822000  0.571500  1.0
  H  H801  1  0.453200  0.249800  0.082200  1.0
  H  H802  1  0.453200  0.250200  0.917800  1.0
  H  H803  1  0.953200  0.249800  0.582200  1.0
  H  H804  1  0.953200  0.250200  0.417800  1.0
  H  H805  1  0.546800  0.750200  0.917800  1.0
  H  H806  1  0.546800  0.749800  0.082200  1.0
  H  H807  1  0.046800  0.750200  0.417800  1.0
  H  H808  1  0.046800  0.749800  0.582200  1.0
  H  H809  1  0.419700  0.261300  0.063200  1.0
  H  H810  1  0.419700  0.238700  0.936800  1.0
  H  H811  1  0.919700  0.261300  0.563200  1.0
  H  H812  1  0.919700  0.238700  0.436800  1.0
  H  H813  1  0.580300  0.738700  0.936800  1.0
  H  H814  1  0.580300  0.761300  0.063200  1.0
  H  H815  1  0.080300  0.738700  0.436800  1.0
  H  H816  1  0.080300  0.761300  0.563200  1.0
  H  H817  1  0.221400  0.315800  0.001100  1.0
  H  H818  1  0.221400  0.184200  0.998900  1.0
  H  H819  1  0.721400  0.315800  0.501100  1.0
  H  H820  1  0.721400  0.184200  0.498900  1.0
  H  H821  1  0.778600  0.684200  0.998900  1.0
  H  H822  1  0.778600  0.815800  0.001100  1.0
  H  H823  1  0.278600  0.684200  0.498900  1.0
  H  H824  1  0.278600  0.815800  0.501100  1.0
  H  H825  1  0.185500  0.332000  0.986300  1.0
  H  H826  1  0.185500  0.168000  0.013700  1.0
  H  H827  1  0.685500  0.332000  0.486300  1.0
  H  H828  1  0.685500  0.168000  0.513700  1.0
  H  H829  1  0.814500  0.668000  0.013700  1.0
  H  H830  1  0.814500  0.832000  0.986300  1.0
  H  H831  1  0.314500  0.668000  0.513700  1.0
  H  H832  1  0.314500  0.832000  0.486300  1.0
  H  H833  1  0.256600  0.401200  0.974400  1.0
  H  H834  1  0.256600  0.098800  0.025600  1.0
  H  H835  1  0.756600  0.401200  0.474400  1.0
  H  H836  1  0.756600  0.098800  0.525600  1.0
  H  H837  1  0.743400  0.598800  0.025600  1.0
  H  H838  1  0.743400  0.901200  0.974400  1.0
  H  H839  1  0.243400  0.598800  0.525600  1.0
  H  H840  1  0.243400  0.901200  0.474400  1.0
  H  H841  1  0.301600  0.398000  0.989600  1.0
  H  H842  1  0.301600  0.102000  0.010400  1.0
  H  H843  1  0.801600  0.398000  0.489600  1.0
  H  H844  1  0.801600  0.102000  0.510400  1.0
  H  H845  1  0.698400  0.602000  0.010400  1.0
  H  H846  1  0.698400  0.898000  0.989600  1.0
  H  H847  1  0.198400  0.602000  0.510400  1.0
  H  H848  1  0.198400  0.898000  0.489600  1.0
  H  H849  1  0.950300  0.488100  0.055800  1.0
  H  H850  1  0.950300  0.011900  0.944200  1.0
  H  H851  1  0.450300  0.488100  0.555800  1.0
  H  H852  1  0.450300  0.011900  0.444200  1.0
  H  H853  1  0.049700  0.511900  0.944200  1.0
  H  H854  1  0.049700  0.988100  0.055800  1.0
  H  H855  1  0.549700  0.511900  0.444200  1.0
  H  H856  1  0.549700  0.988100  0.555800  1.0
  H  H857  1  0.934300  0.506600  0.085900  1.0
  H  H858  1  0.934300  0.993400  0.914100  1.0
  H  H859  1  0.434300  0.506600  0.585900  1.0
  H  H860  1  0.434300  0.993400  0.414100  1.0
  H  H861  1  0.065700  0.493400  0.914100  1.0
  H  H862  1  0.065700  0.006600  0.085900  1.0
  H  H863  1  0.565700  0.493400  0.414100  1.0
  H  H864  1  0.565700  0.006600  0.585900  1.0
  H  H865  1  0.002700  0.587000  0.077500  1.0
  H  H866  1  0.002700  0.913000  0.922500  1.0
  H  H867  1  0.502700  0.587000  0.577500  1.0
  H  H868  1  0.502700  0.913000  0.422500  1.0
  H  H869  1  0.997300  0.413000  0.922500  1.0
  H  H870  1  0.997300  0.087000  0.077500  1.0
  H  H871  1  0.497300  0.413000  0.422500  1.0
  H  H872  1  0.497300  0.087000  0.577500  1.0
  H  H873  1  0.030400  0.565100  0.051700  1.0
  H  H874  1  0.030400  0.934900  0.948300  1.0
  H  H875  1  0.530400  0.565100  0.551700  1.0
  H  H876  1  0.530400  0.934900  0.448300  1.0
  H  H877  1  0.969600  0.434900  0.948300  1.0
  H  H878  1  0.969600  0.065100  0.051700  1.0
  H  H879  1  0.469600  0.434900  0.448300  1.0
  H  H880  1  0.469600  0.065100  0.551700  1.0
  H  H881  1  0.287100  0.538300  0.019500  1.0
  H  H882  1  0.287100  0.961700  0.980500  1.0
  H  H883  1  0.787100  0.538300  0.519500  1.0
  H  H884  1  0.787100  0.961700  0.480500  1.0
  H  H885  1  0.712900  0.461700  0.980500  1.0
  H  H886  1  0.712900  0.038300  0.019500  1.0
  H  H887  1  0.212900  0.461700  0.480500  1.0
  H  H888  1  0.212900  0.038300  0.519500  1.0
  H  H889  1  0.249100  0.520700  0.998700  1.0
  H  H890  1  0.249100  0.979300  0.001300  1.0
  H  H891  1  0.749100  0.520700  0.498700  1.0
  H  H892  1  0.749100  0.979300  0.501300  1.0
  H  H893  1  0.750900  0.479300  0.001300  1.0
  H  H894  1  0.750900  0.020700  0.998700  1.0
  H  H895  1  0.250900  0.479300  0.501300  1.0
  H  H896  1  0.250900  0.020700  0.498700  1.0
  H  H897  1  0.154300  0.586300  0.032000  1.0
  H  H898  1  0.154300  0.913700  0.968000  1.0
  H  H899  1  0.654300  0.586300  0.532000  1.0
  H  H900  1  0.654300  0.913700  0.468000  1.0
  H  H901  1  0.845700  0.413700  0.968000  1.0
  H  H902  1  0.845700  0.086300  0.032000  1.0
  H  H903  1  0.345700  0.413700  0.468000  1.0
  H  H904  1  0.345700  0.086300  0.532000  1.0
  H  H905  1  0.191400  0.610400  0.050200  1.0
  H  H906  1  0.191400  0.889600  0.949800  1.0
  H  H907  1  0.691400  0.610400  0.550200  1.0
  H  H908  1  0.691400  0.889600  0.449800  1.0
  H  H909  1  0.808600  0.389600  0.949800  1.0
  H  H910  1  0.808600  0.110400  0.050200  1.0
  H  H911  1  0.308600  0.389600  0.449800  1.0
  H  H912  1  0.308600  0.110400  0.550200  1.0
  H  H913  1  0.635900  0.474800  0.205100  1.0
  H  H914  1  0.635900  0.025200  0.794900  1.0
  H  H915  1  0.135900  0.474800  0.705100  1.0
  H  H916  1  0.135900  0.025200  0.294900  1.0
  H  H917  1  0.364100  0.525200  0.794900  1.0
  H  H918  1  0.364100  0.974800  0.205100  1.0
  H  H919  1  0.864100  0.525200  0.294900  1.0
  H  H920  1  0.864100  0.974800  0.705100  1.0
  H  H921  1  0.646100  0.435400  0.201200  1.0
  H  H922  1  0.646100  0.064600  0.798800  1.0
  H  H923  1  0.146100  0.435400  0.701200  1.0
  H  H924  1  0.146100  0.064600  0.298800  1.0
  H  H925  1  0.353900  0.564600  0.798800  1.0
  H  H926  1  0.353900  0.935400  0.201200  1.0
  H  H927  1  0.853900  0.564600  0.298800  1.0
  H  H928  1  0.853900  0.935400  0.701200  1.0
  H  H929  1  0.615500  0.416400  0.123200  1.0
  H  H930  1  0.615500  0.083600  0.876800  1.0
  H  H931  1  0.115500  0.416400  0.623200  1.0
  H  H932  1  0.115500  0.083600  0.376800  1.0
  H  H933  1  0.384500  0.583600  0.876800  1.0
  H  H934  1  0.384500  0.916400  0.123200  1.0
  H  H935  1  0.884500  0.583600  0.376800  1.0
  H  H936  1  0.884500  0.916400  0.623200  1.0
  H  H937  1  0.591500  0.452100  0.126000  1.0
  H  H938  1  0.591500  0.047900  0.874000  1.0
  H  H939  1  0.091500  0.452100  0.626000  1.0
  H  H940  1  0.091500  0.047900  0.374000  1.0
  H  H941  1  0.408500  0.547900  0.874000  1.0
  H  H942  1  0.408500  0.952100  0.126000  1.0
  H  H943  1  0.908500  0.547900  0.374000  1.0
  H  H944  1  0.908500  0.952100  0.626000  1.0
  H  H945  1  0.871500  0.613900  0.230500  1.0
  H  H946  1  0.871500  0.886100  0.769500  1.0
  H  H947  1  0.371500  0.613900  0.730500  1.0
  H  H948  1  0.371500  0.886100  0.269500  1.0
  H  H949  1  0.128500  0.386100  0.769500  1.0
  H  H950  1  0.128500  0.113900  0.230500  1.0
  H  H951  1  0.628500  0.386100  0.269500  1.0
  H  H952  1  0.628500  0.113900  0.730500  1.0
  H  H953  1  0.868100  0.628500  0.262400  1.0
  H  H954  1  0.868100  0.871500  0.737600  1.0
  H  H955  1  0.368100  0.628500  0.762400  1.0
  H  H956  1  0.368100  0.871500  0.237600  1.0
  H  H957  1  0.131900  0.371500  0.737600  1.0
  H  H958  1  0.131900  0.128500  0.262400  1.0
  H  H959  1  0.631900  0.371500  0.237600  1.0
  H  H960  1  0.631900  0.128500  0.762400  1.0
  H  H961  1  0.930700  0.710400  0.253300  1.0
  H  H962  1  0.930700  0.789600  0.746700  1.0
  H  H963  1  0.430700  0.710400  0.753300  1.0
  H  H964  1  0.430700  0.789600  0.246700  1.0
  H  H965  1  0.069300  0.289600  0.746700  1.0
  H  H966  1  0.069300  0.210400  0.253300  1.0
  H  H967  1  0.569300  0.289600  0.246700  1.0
  H  H968  1  0.569300  0.210400  0.753300  1.0
  H  H969  1  0.946000  0.691400  0.223200  1.0
  H  H970  1  0.946000  0.808600  0.776800  1.0
  H  H971  1  0.446000  0.691400  0.723200  1.0
  H  H972  1  0.446000  0.808600  0.276800  1.0
  H  H973  1  0.054000  0.308600  0.776800  1.0
  H  H974  1  0.054000  0.191400  0.223200  1.0
  H  H975  1  0.554000  0.308600  0.276800  1.0
  H  H976  1  0.554000  0.191400  0.723200  1.0
  H  H977  1  0.435500  0.669800  0.099900  1.0
  H  H978  1  0.435500  0.830200  0.900100  1.0
  H  H979  1  0.935500  0.669800  0.599900  1.0
  H  H980  1  0.935500  0.830200  0.400100  1.0
  H  H981  1  0.564500  0.330200  0.900100  1.0
  H  H982  1  0.564500  0.169800  0.099900  1.0
  H  H983  1  0.064500  0.330200  0.400100  1.0
  H  H984  1  0.064500  0.169800  0.599900  1.0
  H  H985  1  0.408800  0.635200  0.086100  1.0
  H  H986  1  0.408800  0.864800  0.913900  1.0
  H  H987  1  0.908800  0.635200  0.586100  1.0
  H  H988  1  0.908800  0.864800  0.413900  1.0
  H  H989  1  0.591200  0.364800  0.913900  1.0
  H  H990  1  0.591200  0.135200  0.086100  1.0
  H  H991  1  0.091200  0.364800  0.413900  1.0
  H  H992  1  0.091200  0.135200  0.586100  1.0
  H  H993  1  0.301700  0.701100  0.112300  1.0
  H  H994  1  0.301700  0.798900  0.887700  1.0
  H  H995  1  0.801700  0.701100  0.612300  1.0
  H  H996  1  0.801700  0.798900  0.387700  1.0
  H  H997  1  0.698300  0.298900  0.887700  1.0
  H  H998  1  0.698300  0.201100  0.112300  1.0
  H  H999  1  0.198300  0.298900  0.387700  1.0
  H  H1000  1  0.198300  0.201100  0.612300  1.0
  H  H1001  1  0.332400  0.730500  0.132000  1.0
  H  H1002  1  0.332400  0.769500  0.868000  1.0
  H  H1003  1  0.832400  0.730500  0.632000  1.0
  H  H1004  1  0.832400  0.769500  0.368000  1.0
  H  H1005  1  0.667600  0.269500  0.868000  1.0
  H  H1006  1  0.667600  0.230500  0.132000  1.0
  H  H1007  1  0.167600  0.269500  0.368000  1.0
  H  H1008  1  0.167600  0.230500  0.632000  1.0
  H  H1009  1  0.030300  0.236500  0.119400  1.0
  H  H1010  1  0.030300  0.263500  0.880600  1.0
  H  H1011  1  0.530300  0.236500  0.619400  1.0
  H  H1012  1  0.530300  0.263500  0.380600  1.0
  H  H1013  1  0.969700  0.763500  0.880600  1.0
  H  H1014  1  0.969700  0.736500  0.119400  1.0
  H  H1015  1  0.469700  0.763500  0.380600  1.0
  H  H1016  1  0.469700  0.736500  0.619400  1.0
  H  H1017  1  0.015500  0.217600  0.140400  1.0
  H  H1018  1  0.015500  0.282400  0.859600  1.0
  H  H1019  1  0.515500  0.217600  0.640400  1.0
  H  H1020  1  0.515500  0.282400  0.359600  1.0
  H  H1021  1  0.984500  0.782400  0.859600  1.0
  H  H1022  1  0.984500  0.717600  0.140400  1.0
  H  H1023  1  0.484500  0.782400  0.359600  1.0
  H  H1024  1  0.484500  0.717600  0.640400  1.0
  H  H1025  1  0.918400  0.291600  0.174200  1.0
  H  H1026  1  0.918400  0.208400  0.825800  1.0
  H  H1027  1  0.418400  0.291600  0.674200  1.0
  H  H1028  1  0.418400  0.208400  0.325800  1.0
  H  H1029  1  0.081600  0.708400  0.825800  1.0
  H  H1030  1  0.081600  0.791600  0.174200  1.0
  H  H1031  1  0.581600  0.708400  0.325800  1.0
  H  H1032  1  0.581600  0.791600  0.674200  1.0
  H  H1033  1  0.928800  0.304300  0.149000  1.0
  H  H1034  1  0.928800  0.195700  0.851000  1.0
  H  H1035  1  0.428800  0.304300  0.649000  1.0
  H  H1036  1  0.428800  0.195700  0.351000  1.0
  H  H1037  1  0.071200  0.695700  0.851000  1.0
  H  H1038  1  0.071200  0.804300  0.149000  1.0
  H  H1039  1  0.571200  0.695700  0.351000  1.0
  H  H1040  1  0.571200  0.804300  0.649000  1.0
  H  H1041  1  0.276600  0.557800  0.346300  1.0
  H  H1042  1  0.276600  0.942200  0.653700  1.0
  H  H1043  1  0.776600  0.557800  0.846300  1.0
  H  H1044  1  0.776600  0.942200  0.153700  1.0
  H  H1045  1  0.723400  0.442200  0.653700  1.0
  H  H1046  1  0.723400  0.057800  0.346300  1.0
  H  H1047  1  0.223400  0.442200  0.153700  1.0
  H  H1048  1  0.223400  0.057800  0.846300  1.0
  H  H1049  1  0.350500  0.507500  0.324000  1.0
  H  H1050  1  0.350500  0.992500  0.676000  1.0
  H  H1051  1  0.850500  0.507500  0.824000  1.0
  H  H1052  1  0.850500  0.992500  0.176000  1.0
  H  H1053  1  0.649500  0.492500  0.676000  1.0
  H  H1054  1  0.649500  0.007500  0.324000  1.0
  H  H1055  1  0.149500  0.492500  0.176000  1.0
  H  H1056  1  0.149500  0.007500  0.824000  1.0
  H  H1057  1  0.289700  0.468600  0.336900  1.0
  H  H1058  1  0.289700  0.031400  0.663100  1.0
  H  H1059  1  0.789700  0.468600  0.836900  1.0
  H  H1060  1  0.789700  0.031400  0.163100  1.0
  H  H1061  1  0.710300  0.531400  0.663100  1.0
  H  H1062  1  0.710300  0.968600  0.336900  1.0
  H  H1063  1  0.210300  0.531400  0.163100  1.0
  H  H1064  1  0.210300  0.968600  0.836900  1.0
  H  H1065  1  0.248800  0.495300  0.350300  1.0
  H  H1066  1  0.248800  0.004700  0.649700  1.0
  H  H1067  1  0.748800  0.495300  0.850300  1.0
  H  H1068  1  0.748800  0.004700  0.149700  1.0
  H  H1069  1  0.751200  0.504700  0.649700  1.0
  H  H1070  1  0.751200  0.995300  0.350300  1.0
  H  H1071  1  0.251200  0.504700  0.149700  1.0
  H  H1072  1  0.251200  0.995300  0.850300  1.0
  H  H1073  1  0.173100  0.604300  0.298300  1.0
  H  H1074  1  0.173100  0.895700  0.701700  1.0
  H  H1075  1  0.673100  0.604300  0.798300  1.0
  H  H1076  1  0.673100  0.895700  0.201700  1.0
  H  H1077  1  0.826900  0.395700  0.701700  1.0
  H  H1078  1  0.826900  0.104300  0.298300  1.0
  H  H1079  1  0.326900  0.395700  0.201700  1.0
  H  H1080  1  0.326900  0.104300  0.798300  1.0
  H  H1081  1  0.367400  0.597900  0.321700  1.0
  H  H1082  1  0.367400  0.902100  0.678300  1.0
  H  H1083  1  0.867400  0.597900  0.821700  1.0
  H  H1084  1  0.867400  0.902100  0.178300  1.0
  H  H1085  1  0.632600  0.402100  0.678300  1.0
  H  H1086  1  0.632600  0.097900  0.321700  1.0
  H  H1087  1  0.132600  0.402100  0.178300  1.0
  H  H1088  1  0.132600  0.097900  0.821700  1.0
  H  H1089  1  0.368200  0.609600  0.292900  1.0
  H  H1090  1  0.368200  0.890400  0.707100  1.0
  H  H1091  1  0.868200  0.609600  0.792900  1.0
  H  H1092  1  0.868200  0.890400  0.207100  1.0
  H  H1093  1  0.631800  0.390400  0.707100  1.0
  H  H1094  1  0.631800  0.109600  0.292900  1.0
  H  H1095  1  0.131800  0.390400  0.207100  1.0
  H  H1096  1  0.131800  0.109600  0.792900  1.0
  H  H1097  1  0.161700  0.594900  0.344600  1.0
  H  H1098  1  0.161700  0.905100  0.655400  1.0
  H  H1099  1  0.661700  0.594900  0.844600  1.0
  H  H1100  1  0.661700  0.905100  0.155400  1.0
  H  H1101  1  0.838300  0.405100  0.655400  1.0
  H  H1102  1  0.838300  0.094900  0.344600  1.0
  H  H1103  1  0.338300  0.405100  0.155400  1.0
  H  H1104  1  0.338300  0.094900  0.844600  1.0
  H  H1105  1  0.205100  0.580800  0.359900  1.0
  H  H1106  1  0.205100  0.919200  0.640100  1.0
  H  H1107  1  0.705100  0.580800  0.859900  1.0
  H  H1108  1  0.705100  0.919200  0.140100  1.0
  H  H1109  1  0.794900  0.419200  0.640100  1.0
  H  H1110  1  0.794900  0.080800  0.359900  1.0
  H  H1111  1  0.294900  0.419200  0.140100  1.0
  H  H1112  1  0.294900  0.080800  0.859900  1.0
  H  H1113  1  0.368900  0.569000  0.247100  1.0
  H  H1114  1  0.368900  0.931000  0.752900  1.0
  H  H1115  1  0.868900  0.569000  0.747100  1.0
  H  H1116  1  0.868900  0.931000  0.252900  1.0
  H  H1117  1  0.631100  0.431000  0.752900  1.0
  H  H1118  1  0.631100  0.069000  0.247100  1.0
  H  H1119  1  0.131100  0.431000  0.252900  1.0
  H  H1120  1  0.131100  0.069000  0.747100  1.0
  H  H1121  1  0.403400  0.459300  0.232000  1.0
  H  H1122  1  0.403400  0.040700  0.768000  1.0
  H  H1123  1  0.903400  0.459300  0.732000  1.0
  H  H1124  1  0.903400  0.040700  0.268000  1.0
  H  H1125  1  0.596600  0.540700  0.768000  1.0
  H  H1126  1  0.596600  0.959300  0.232000  1.0
  H  H1127  1  0.096600  0.540700  0.268000  1.0
  H  H1128  1  0.096600  0.959300  0.732000  1.0
  H  H1129  1  0.402800  0.428200  0.264500  1.0
  H  H1130  1  0.402800  0.071800  0.735500  1.0
  H  H1131  1  0.902800  0.428200  0.764500  1.0
  H  H1132  1  0.902800  0.071800  0.235500  1.0
  H  H1133  1  0.597200  0.571800  0.735500  1.0
  H  H1134  1  0.597200  0.928200  0.264500  1.0
  H  H1135  1  0.097200  0.571800  0.235500  1.0
  H  H1136  1  0.097200  0.928200  0.764500  1.0
  H  H1137  1  0.398600  0.451100  0.298400  1.0
  H  H1138  1  0.398600  0.048900  0.701600  1.0
  H  H1139  1  0.898600  0.451100  0.798400  1.0
  H  H1140  1  0.898600  0.048900  0.201600  1.0
  H  H1141  1  0.601400  0.548900  0.701600  1.0
  H  H1142  1  0.601400  0.951100  0.298400  1.0
  H  H1143  1  0.101400  0.548900  0.201600  1.0
  H  H1144  1  0.101400  0.951100  0.798400  1.0
  H  H1145  1  0.348000  0.399000  0.235300  1.0
  H  H1146  1  0.348000  0.101000  0.764700  1.0
  H  H1147  1  0.848000  0.399000  0.735300  1.0
  H  H1148  1  0.848000  0.101000  0.264700  1.0
  H  H1149  1  0.652000  0.601000  0.764700  1.0
  H  H1150  1  0.652000  0.899000  0.235300  1.0
  H  H1151  1  0.152000  0.601000  0.264700  1.0
  H  H1152  1  0.152000  0.899000  0.735300  1.0
  H  H1153  1  0.230300  0.446700  0.334700  1.0
  H  H1154  1  0.230300  0.053300  0.665300  1.0
  H  H1155  1  0.730300  0.446700  0.834700  1.0
  H  H1156  1  0.730300  0.053300  0.165300  1.0
  H  H1157  1  0.769700  0.553300  0.665300  1.0
  H  H1158  1  0.769700  0.946700  0.334700  1.0
  H  H1159  1  0.269700  0.553300  0.165300  1.0
  H  H1160  1  0.269700  0.946700  0.834700  1.0
  H  H1161  1  0.193500  0.420400  0.312900  1.0
  H  H1162  1  0.193500  0.079600  0.687100  1.0
  H  H1163  1  0.693500  0.420400  0.812900  1.0
  H  H1164  1  0.693500  0.079600  0.187100  1.0
  H  H1165  1  0.806500  0.579600  0.687100  1.0
  H  H1166  1  0.806500  0.920400  0.312900  1.0
  H  H1167  1  0.306500  0.579600  0.187100  1.0
  H  H1168  1  0.306500  0.920400  0.812900  1.0
  H  H1169  1  0.116600  0.550800  0.306100  1.0
  H  H1170  1  0.116600  0.949200  0.693900  1.0
  H  H1171  1  0.616600  0.550800  0.806100  1.0
  H  H1172  1  0.616600  0.949200  0.193900  1.0
  H  H1173  1  0.883400  0.449200  0.693900  1.0
  H  H1174  1  0.883400  0.050800  0.306100  1.0
  H  H1175  1  0.383400  0.449200  0.193900  1.0
  H  H1176  1  0.383400  0.050800  0.806100  1.0
  H  H1177  1  0.147000  0.441700  0.283300  1.0
  H  H1178  1  0.147000  0.058300  0.716700  1.0
  H  H1179  1  0.647000  0.441700  0.783300  1.0
  H  H1180  1  0.647000  0.058300  0.216700  1.0
  H  H1181  1  0.853000  0.558300  0.716700  1.0
  H  H1182  1  0.853000  0.941700  0.283300  1.0
  H  H1183  1  0.353000  0.558300  0.216700  1.0
  H  H1184  1  0.353000  0.941700  0.783300  1.0
  Pd  Pd1185  1  0.043850  0.367130  0.061780  1.0
  Pd  Pd1186  1  0.043850  0.132870  0.938220  1.0
  Pd  Pd1187  1  0.543850  0.367130  0.561780  1.0
  Pd  Pd1188  1  0.543850  0.132870  0.438220  1.0
  Pd  Pd1189  1  0.956150  0.632870  0.938220  1.0
  Pd  Pd1190  1  0.956150  0.867130  0.061780  1.0
  Pd  Pd1191  1  0.456150  0.632870  0.438220  1.0
  Pd  Pd1192  1  0.456150  0.867130  0.561780  1.0
  Pd  Pd1193  1  0.402540  0.253130  0.187450  1.0
  Pd  Pd1194  1  0.402540  0.246870  0.812550  1.0
  Pd  Pd1195  1  0.902540  0.253130  0.687450  1.0
  Pd  Pd1196  1  0.902540  0.246870  0.312550  1.0
  Pd  Pd1197  1  0.597460  0.746870  0.812550  1.0
  Pd  Pd1198  1  0.597460  0.753130  0.187450  1.0
  Pd  Pd1199  1  0.097460  0.746870  0.312550  1.0
  Pd  Pd1200  1  0.097460  0.753130  0.687450  1.0
  Pd  Pd1201  1  0.456040  0.318130  0.096560  1.0
  Pd  Pd1202  1  0.456040  0.181870  0.903440  1.0
  Pd  Pd1203  1  0.956040  0.318130  0.596560  1.0
  Pd  Pd1204  1  0.956040  0.181870  0.403440  1.0
  Pd  Pd1205  1  0.543960  0.681870  0.903440  1.0
  Pd  Pd1206  1  0.543960  0.818130  0.096560  1.0
  Pd  Pd1207  1  0.043960  0.681870  0.403440  1.0
  Pd  Pd1208  1  0.043960  0.818130  0.596560  1.0
  Pd  Pd1209  1  0.234300  0.383770  0.017670  1.0
  Pd  Pd1210  1  0.234300  0.116230  0.982330  1.0
  Pd  Pd1211  1  0.734300  0.383770  0.517670  1.0
  Pd  Pd1212  1  0.734300  0.116230  0.482330  1.0
  Pd  Pd1213  1  0.765700  0.616230  0.982330  1.0
  Pd  Pd1214  1  0.765700  0.883770  0.017670  1.0
  Pd  Pd1215  1  0.265700  0.616230  0.482330  1.0
  Pd  Pd1216  1  0.265700  0.883770  0.517670  1.0
  Pd  Pd1217  1  0.017170  0.524780  0.082290  1.0
  Pd  Pd1218  1  0.017170  0.975220  0.917710  1.0
  Pd  Pd1219  1  0.517170  0.524780  0.582290  1.0
  Pd  Pd1220  1  0.517170  0.975220  0.417710  1.0
  Pd  Pd1221  1  0.982830  0.475220  0.917710  1.0
  Pd  Pd1222  1  0.982830  0.024780  0.082290  1.0
  Pd  Pd1223  1  0.482830  0.475220  0.417710  1.0
  Pd  Pd1224  1  0.482830  0.024780  0.582290  1.0
  Pd  Pd1225  1  0.212020  0.545410  0.046290  1.0
  Pd  Pd1226  1  0.212020  0.954590  0.953710  1.0
  Pd  Pd1227  1  0.712020  0.545410  0.546290  1.0
  Pd  Pd1228  1  0.712020  0.954590  0.453710  1.0
  Pd  Pd1229  1  0.787980  0.454590  0.953710  1.0
  Pd  Pd1230  1  0.787980  0.045410  0.046290  1.0
  Pd  Pd1231  1  0.287980  0.454590  0.453710  1.0
  Pd  Pd1232  1  0.287980  0.045410  0.546290  1.0
  Pd  Pd1233  1  0.576270  0.437570  0.171190  1.0
  Pd  Pd1234  1  0.576270  0.062430  0.828810  1.0
  Pd  Pd1235  1  0.076270  0.437570  0.671190  1.0
  Pd  Pd1236  1  0.076270  0.062430  0.328810  1.0
  Pd  Pd1237  1  0.423730  0.562430  0.828810  1.0
  Pd  Pd1238  1  0.423730  0.937570  0.171190  1.0
  Pd  Pd1239  1  0.923730  0.562430  0.328810  1.0
  Pd  Pd1240  1  0.923730  0.937570  0.671190  1.0
  Pd  Pd1241  1  0.946900  0.646200  0.248700  1.0
  Pd  Pd1242  1  0.946900  0.853800  0.751300  1.0
  Pd  Pd1243  1  0.446900  0.646200  0.748700  1.0
  Pd  Pd1244  1  0.446900  0.853800  0.251300  1.0
  Pd  Pd1245  1  0.053100  0.353800  0.751300  1.0
  Pd  Pd1246  1  0.053100  0.146200  0.248700  1.0
  Pd  Pd1247  1  0.553100  0.353800  0.251300  1.0
  Pd  Pd1248  1  0.553100  0.146200  0.748700  1.0
  Pd  Pd1249  1  0.365900  0.669120  0.131700  1.0
  Pd  Pd1250  1  0.365900  0.830880  0.868300  1.0
  Pd  Pd1251  1  0.865900  0.669120  0.631700  1.0
  Pd  Pd1252  1  0.865900  0.830880  0.368300  1.0
  Pd  Pd1253  1  0.634100  0.330880  0.868300  1.0
  Pd  Pd1254  1  0.634100  0.169120  0.131700  1.0
  Pd  Pd1255  1  0.134100  0.330880  0.368300  1.0
  Pd  Pd1256  1  0.134100  0.169120  0.631700  1.0
  Pd  Pd1257  1  0.007190  0.286060  0.165630  1.0
  Pd  Pd1258  1  0.007190  0.213940  0.834370  1.0
  Pd  Pd1259  1  0.507190  0.286060  0.665630  1.0
  Pd  Pd1260  1  0.507190  0.213940  0.334370  1.0
  Pd  Pd1261  1  0.992810  0.713940  0.834370  1.0
  Pd  Pd1262  1  0.992810  0.786060  0.165630  1.0
  Pd  Pd1263  1  0.492810  0.713940  0.334370  1.0
  Pd  Pd1264  1  0.492810  0.786060  0.665630  1.0
  C  C1265  1  0.959300  0.328500  0.031900  1.0
  C  C1266  1  0.959300  0.171500  0.968100  1.0
  C  C1267  1  0.459300  0.328500  0.531900  1.0
  C  C1268  1  0.459300  0.171500  0.468100  1.0
  C  C1269  1  0.040700  0.671500  0.968100  1.0
  C  C1270  1  0.040700  0.828500  0.031900  1.0
  C  C1271  1  0.540700  0.671500  0.468100  1.0
  C  C1272  1  0.540700  0.828500  0.531900  1.0
  C  C1273  1  0.000500  0.301400  0.021400  1.0
  C  C1274  1  0.000500  0.198600  0.978600  1.0
  C  C1275  1  0.500500  0.301400  0.521400  1.0
  C  C1276  1  0.500500  0.198600  0.478600  1.0
  C  C1277  1  0.999500  0.698600  0.978600  1.0
  C  C1278  1  0.999500  0.801400  0.021400  1.0
  C  C1279  1  0.499500  0.698600  0.478600  1.0
  C  C1280  1  0.499500  0.801400  0.521400  1.0
  C  C1281  1  0.409700  0.173400  0.163400  1.0
  C  C1282  1  0.409700  0.326600  0.836600  1.0
  C  C1283  1  0.909700  0.173400  0.663400  1.0
  C  C1284  1  0.909700  0.326600  0.336600  1.0
  C  C1285  1  0.590300  0.826600  0.836600  1.0
  C  C1286  1  0.590300  0.673400  0.163400  1.0
  C  C1287  1  0.090300  0.826600  0.336600  1.0
  C  C1288  1  0.090300  0.673400  0.663400  1.0
  C  C1289  1  0.400700  0.180200  0.195500  1.0
  C  C1290  1  0.400700  0.319800  0.804500  1.0
  C  C1291  1  0.900700  0.180200  0.695500  1.0
  C  C1292  1  0.900700  0.319800  0.304500  1.0
  C  C1293  1  0.599300  0.819800  0.804500  1.0
  C  C1294  1  0.599300  0.680200  0.195500  1.0
  C  C1295  1  0.099300  0.819800  0.304500  1.0
  C  C1296  1  0.099300  0.680200  0.695500  1.0
  C  C1297  1  0.493800  0.288200  0.038800  1.0
  C  C1298  1  0.493800  0.211800  0.961200  1.0
  C  C1299  1  0.993800  0.288200  0.538800  1.0
  C  C1300  1  0.993800  0.211800  0.461200  1.0
  C  C1301  1  0.506200  0.711800  0.961200  1.0
  C  C1302  1  0.506200  0.788200  0.038800  1.0
  C  C1303  1  0.006200  0.711800  0.461200  1.0
  C  C1304  1  0.006200  0.788200  0.538800  1.0
  C  C1305  1  0.486900  0.253700  0.046500  1.0
  C  C1306  1  0.486900  0.246300  0.953500  1.0
  C  C1307  1  0.986900  0.253700  0.546500  1.0
  C  C1308  1  0.986900  0.246300  0.453500  1.0
  C  C1309  1  0.513100  0.746300  0.953500  1.0
  C  C1310  1  0.513100  0.753700  0.046500  1.0
  C  C1311  1  0.013100  0.746300  0.453500  1.0
  C  C1312  1  0.013100  0.753700  0.546500  1.0
  C  C1313  1  0.245300  0.322300  0.966200  1.0
  C  C1314  1  0.245300  0.177700  0.033800  1.0
  C  C1315  1  0.745300  0.322300  0.466200  1.0
  C  C1316  1  0.745300  0.177700  0.533800  1.0
  C  C1317  1  0.754700  0.677700  0.033800  1.0
  C  C1318  1  0.754700  0.822300  0.966200  1.0
  C  C1319  1  0.254700  0.677700  0.533800  1.0
  C  C1320  1  0.254700  0.822300  0.466200  1.0
  C  C1321  1  0.279600  0.348600  0.963200  1.0
  C  C1322  1  0.279600  0.151400  0.036800  1.0
  C  C1323  1  0.779600  0.348600  0.463200  1.0
  C  C1324  1  0.779600  0.151400  0.536800  1.0
  C  C1325  1  0.720400  0.651400  0.036800  1.0
  C  C1326  1  0.720400  0.848600  0.963200  1.0
  C  C1327  1  0.220400  0.651400  0.536800  1.0
  C  C1328  1  0.220400  0.848600  0.463200  1.0
  C  C1329  1  0.925000  0.540400  0.061000  1.0
  C  C1330  1  0.925000  0.959600  0.939000  1.0
  C  C1331  1  0.425000  0.540400  0.561000  1.0
  C  C1332  1  0.425000  0.959600  0.439000  1.0
  C  C1333  1  0.075000  0.459600  0.939000  1.0
  C  C1334  1  0.075000  0.040400  0.061000  1.0
  C  C1335  1  0.575000  0.459600  0.439000  1.0
  C  C1336  1  0.575000  0.040400  0.561000  1.0
  C  C1337  1  0.958800  0.555100  0.045800  1.0
  C  C1338  1  0.958800  0.944900  0.954200  1.0
  C  C1339  1  0.458800  0.555100  0.545800  1.0
  C  C1340  1  0.458800  0.944900  0.454200  1.0
  C  C1341  1  0.041200  0.444900  0.954200  1.0
  C  C1342  1  0.041200  0.055100  0.045800  1.0
  C  C1343  1  0.541200  0.444900  0.454200  1.0
  C  C1344  1  0.541200  0.055100  0.545800  1.0
  C  C1345  1  0.259400  0.572800  0.001100  1.0
  C  C1346  1  0.259400  0.927200  0.998900  1.0
  C  C1347  1  0.759400  0.572800  0.501100  1.0
  C  C1348  1  0.759400  0.927200  0.498900  1.0
  C  C1349  1  0.740600  0.427200  0.998900  1.0
  C  C1350  1  0.740600  0.072800  0.001100  1.0
  C  C1351  1  0.240600  0.427200  0.498900  1.0
  C  C1352  1  0.240600  0.072800  0.501100  1.0
  C  C1353  1  0.210600  0.592000  0.008500  1.0
  C  C1354  1  0.210600  0.908000  0.991500  1.0
  C  C1355  1  0.710600  0.592000  0.508500  1.0
  C  C1356  1  0.710600  0.908000  0.491500  1.0
  C  C1357  1  0.789400  0.408000  0.991500  1.0
  C  C1358  1  0.789400  0.092000  0.008500  1.0
  C  C1359  1  0.289400  0.408000  0.491500  1.0
  C  C1360  1  0.289400  0.092000  0.508500  1.0
  C  C1361  1  0.681000  0.452100  0.168700  1.0
  C  C1362  1  0.681000  0.047900  0.831300  1.0
  C  C1363  1  0.181000  0.452100  0.668700  1.0
  C  C1364  1  0.181000  0.047900  0.331300  1.0
  C  C1365  1  0.319000  0.547900  0.831300  1.0
  C  C1366  1  0.319000  0.952100  0.168700  1.0
  C  C1367  1  0.819000  0.547900  0.331300  1.0
  C  C1368  1  0.819000  0.952100  0.668700  1.0
  C  C1369  1  0.658400  0.460500  0.145000  1.0
  C  C1370  1  0.658400  0.039500  0.855000  1.0
  C  C1371  1  0.158400  0.460500  0.645000  1.0
  C  C1372  1  0.158400  0.039500  0.355000  1.0
  C  C1373  1  0.341600  0.539500  0.855000  1.0
  C  C1374  1  0.341600  0.960500  0.145000  1.0
  C  C1375  1  0.841600  0.539500  0.355000  1.0
  C  C1376  1  0.841600  0.960500  0.645000  1.0
  C  C1377  1  0.844100  0.666667  0.243900  1.0
  C  C1378  1  0.844100  0.833333  0.756100  1.0
  C  C1379  1  0.344100  0.666667  0.743900  1.0
  C  C1380  1  0.344100  0.833333  0.256100  1.0
  C  C1381  1  0.155900  0.333333  0.756100  1.0
  C  C1382  1  0.155900  0.166667  0.243900  1.0
  C  C1383  1  0.655900  0.333333  0.256100  1.0
  C  C1384  1  0.655900  0.166667  0.743900  1.0
  C  C1385  1  0.877600  0.689300  0.228000  1.0
  C  C1386  1  0.877600  0.810700  0.772000  1.0
  C  C1387  1  0.377600  0.689300  0.728000  1.0
  C  C1388  1  0.377600  0.810700  0.272000  1.0
  C  C1389  1  0.122400  0.310700  0.772000  1.0
  C  C1390  1  0.122400  0.189300  0.228000  1.0
  C  C1391  1  0.622400  0.310700  0.272000  1.0
  C  C1392  1  0.622400  0.189300  0.728000  1.0
  C  C1393  1  0.385000  0.676200  0.074100  1.0
  C  C1394  1  0.385000  0.823800  0.925900  1.0
  C  C1395  1  0.885000  0.676200  0.574100  1.0
  C  C1396  1  0.885000  0.823800  0.425900  1.0
  C  C1397  1  0.615000  0.323800  0.925900  1.0
  C  C1398  1  0.615000  0.176200  0.074100  1.0
  C  C1399  1  0.115000  0.323800  0.425900  1.0
  C  C1400  1  0.115000  0.176200  0.574100  1.0
  C  C1401  1  0.364200  0.708600  0.091100  1.0
  C  C1402  1  0.364200  0.791400  0.908900  1.0
  C  C1403  1  0.864200  0.708600  0.591100  1.0
  C  C1404  1  0.864200  0.791400  0.408900  1.0
  C  C1405  1  0.635800  0.291400  0.908900  1.0
  C  C1406  1  0.635800  0.208600  0.091100  1.0
  C  C1407  1  0.135800  0.291400  0.408900  1.0
  C  C1408  1  0.135800  0.208600  0.591100  1.0
  C  C1409  1  0.963300  0.230400  0.120900  1.0
  C  C1410  1  0.963300  0.269600  0.879100  1.0
  C  C1411  1  0.463300  0.230400  0.620900  1.0
  C  C1412  1  0.463300  0.269600  0.379100  1.0
  C  C1413  1  0.036700  0.769600  0.879100  1.0
  C  C1414  1  0.036700  0.730400  0.120900  1.0
  C  C1415  1  0.536700  0.769600  0.379100  1.0
  C  C1416  1  0.536700  0.730400  0.620900  1.0
  C  C1417  1  0.924200  0.248600  0.137200  1.0
  C  C1418  1  0.924200  0.251400  0.862800  1.0
  C  C1419  1  0.424200  0.248600  0.637200  1.0
  C  C1420  1  0.424200  0.251400  0.362800  1.0
  C  C1421  1  0.075800  0.751400  0.862800  1.0
  C  C1422  1  0.075800  0.748600  0.137200  1.0
  C  C1423  1  0.575800  0.751400  0.362800  1.0
  C  C1424  1  0.575800  0.748600  0.637200  1.0
  C  C1425  1  0.442600  0.638400  0.159200  1.0
  C  C1426  1  0.442600  0.861600  0.840800  1.0
  C  C1427  1  0.942600  0.638400  0.659200  1.0
  C  C1428  1  0.942600  0.861600  0.340800  1.0
  C  C1429  1  0.557400  0.361600  0.840800  1.0
  C  C1430  1  0.557400  0.138400  0.159200  1.0
  C  C1431  1  0.057400  0.361600  0.340800  1.0
  C  C1432  1  0.057400  0.138400  0.659200  1.0
  C  C1433  1  0.468100  0.610300  0.166600  1.0
  C  C1434  1  0.468100  0.889700  0.833400  1.0
  C  C1435  1  0.968100  0.610300  0.666600  1.0
  C  C1436  1  0.968100  0.889700  0.333400  1.0
  C  C1437  1  0.531900  0.389700  0.833400  1.0
  C  C1438  1  0.531900  0.110300  0.166600  1.0
  C  C1439  1  0.031900  0.389700  0.333400  1.0
  C  C1440  1  0.031900  0.110300  0.666600  1.0
  C  C1441  1  0.455100  0.574500  0.158200  1.0
  C  C1442  1  0.455100  0.925500  0.841800  1.0
  C  C1443  1  0.955100  0.574500  0.658200  1.0
  C  C1444  1  0.955100  0.925500  0.341800  1.0
  C  C1445  1  0.544900  0.425500  0.841800  1.0
  C  C1446  1  0.544900  0.074500  0.158200  1.0
  C  C1447  1  0.044900  0.425500  0.341800  1.0
  C  C1448  1  0.044900  0.074500  0.658200  1.0
  C  C1449  1  0.411100  0.567300  0.141000  1.0
  C  C1450  1  0.411100  0.932700  0.859000  1.0
  C  C1451  1  0.911100  0.567300  0.641000  1.0
  C  C1452  1  0.911100  0.932700  0.359000  1.0
  C  C1453  1  0.588900  0.432700  0.859000  1.0
  C  C1454  1  0.588900  0.067300  0.141000  1.0
  C  C1455  1  0.088900  0.432700  0.359000  1.0
  C  C1456  1  0.088900  0.067300  0.641000  1.0
  C  C1457  1  0.388300  0.593800  0.133800  1.0
  C  C1458  1  0.388300  0.906200  0.866200  1.0
  C  C1459  1  0.888300  0.593800  0.633800  1.0
  C  C1460  1  0.888300  0.906200  0.366200  1.0
  C  C1461  1  0.611700  0.406200  0.866200  1.0
  C  C1462  1  0.611700  0.093800  0.133800  1.0
  C  C1463  1  0.111700  0.406200  0.366200  1.0
  C  C1464  1  0.111700  0.093800  0.633800  1.0
  C  C1465  1  0.505000  0.387000  0.136800  1.0
  C  C1466  1  0.505000  0.113000  0.863200  1.0
  C  C1467  1  0.005000  0.387000  0.636800  1.0
  C  C1468  1  0.005000  0.113000  0.363200  1.0
  C  C1469  1  0.495000  0.613000  0.863200  1.0
  C  C1470  1  0.495000  0.887000  0.136800  1.0
  C  C1471  1  0.995000  0.613000  0.363200  1.0
  C  C1472  1  0.995000  0.887000  0.636800  1.0
  C  C1473  1  0.481900  0.447600  0.144800  1.0
  C  C1474  1  0.481900  0.052400  0.855200  1.0
  C  C1475  1  0.981900  0.447600  0.644800  1.0
  C  C1476  1  0.981900  0.052400  0.355200  1.0
  C  C1477  1  0.518100  0.552400  0.855200  1.0
  C  C1478  1  0.518100  0.947600  0.144800  1.0
  C  C1479  1  0.018100  0.552400  0.355200  1.0
  C  C1480  1  0.018100  0.947600  0.644800  1.0
  C  C1481  1  0.441100  0.437300  0.128400  1.0
  C  C1482  1  0.441100  0.062700  0.871600  1.0
  C  C1483  1  0.941100  0.437300  0.628400  1.0
  C  C1484  1  0.941100  0.062700  0.371600  1.0
  C  C1485  1  0.558900  0.562700  0.871600  1.0
  C  C1486  1  0.558900  0.937300  0.128400  1.0
  C  C1487  1  0.058900  0.562700  0.371600  1.0
  C  C1488  1  0.058900  0.937300  0.628400  1.0
  C  C1489  1  0.432300  0.398100  0.114500  1.0
  C  C1490  1  0.432300  0.101900  0.885500  1.0
  C  C1491  1  0.932300  0.398100  0.614500  1.0
  C  C1492  1  0.932300  0.101900  0.385500  1.0
  C  C1493  1  0.567700  0.601900  0.885500  1.0
  C  C1494  1  0.567700  0.898100  0.114500  1.0
  C  C1495  1  0.067700  0.601900  0.385500  1.0
  C  C1496  1  0.067700  0.898100  0.614500  1.0
  C  C1497  1  0.232900  0.465600  0.039800  1.0
  C  C1498  1  0.232900  0.034400  0.960200  1.0
  C  C1499  1  0.732900  0.465600  0.539800  1.0
  C  C1500  1  0.732900  0.034400  0.460200  1.0
  C  C1501  1  0.767100  0.534400  0.960200  1.0
  C  C1502  1  0.767100  0.965600  0.039800  1.0
  C  C1503  1  0.267100  0.534400  0.460200  1.0
  C  C1504  1  0.267100  0.965600  0.539800  1.0
  C  C1505  1  0.277200  0.505800  0.074600  1.0
  C  C1506  1  0.277200  0.994200  0.925400  1.0
  C  C1507  1  0.777200  0.505800  0.574600  1.0
  C  C1508  1  0.777200  0.994200  0.425400  1.0
  C  C1509  1  0.722800  0.494200  0.925400  1.0
  C  C1510  1  0.722800  0.005800  0.074600  1.0
  C  C1511  1  0.222800  0.494200  0.425400  1.0
  C  C1512  1  0.222800  0.005800  0.574600  1.0
  C  C1513  1  0.301000  0.476200  0.078800  1.0
  C  C1514  1  0.301000  0.023800  0.921200  1.0
  C  C1515  1  0.801000  0.476200  0.578800  1.0
  C  C1516  1  0.801000  0.023800  0.421200  1.0
  C  C1517  1  0.699000  0.523800  0.921200  1.0
  C  C1518  1  0.699000  0.976200  0.078800  1.0
  C  C1519  1  0.199000  0.523800  0.421200  1.0
  C  C1520  1  0.199000  0.976200  0.578800  1.0
  C  C1521  1  0.286400  0.442600  0.063100  1.0
  C  C1522  1  0.286400  0.057400  0.936900  1.0
  C  C1523  1  0.786400  0.442600  0.563100  1.0
  C  C1524  1  0.786400  0.057400  0.436900  1.0
  C  C1525  1  0.713600  0.557400  0.936900  1.0
  C  C1526  1  0.713600  0.942600  0.063100  1.0
  C  C1527  1  0.213600  0.557400  0.436900  1.0
  C  C1528  1  0.213600  0.942600  0.563100  1.0
  C  C1529  1  0.397600  0.525900  0.128300  1.0
  C  C1530  1  0.397600  0.974100  0.871700  1.0
  C  C1531  1  0.897600  0.525900  0.628300  1.0
  C  C1532  1  0.897600  0.974100  0.371700  1.0
  C  C1533  1  0.602400  0.474100  0.871700  1.0
  C  C1534  1  0.602400  0.025900  0.128300  1.0
  C  C1535  1  0.102400  0.474100  0.371700  1.0
  C  C1536  1  0.102400  0.025900  0.628300  1.0
  C  C1537  1  0.409500  0.464500  0.123900  1.0
  C  C1538  1  0.409500  0.035500  0.876100  1.0
  C  C1539  1  0.909500  0.464500  0.623900  1.0
  C  C1540  1  0.909500  0.035500  0.376100  1.0
  C  C1541  1  0.590500  0.535500  0.876100  1.0
  C  C1542  1  0.590500  0.964500  0.123900  1.0
  C  C1543  1  0.090500  0.535500  0.376100  1.0
  C  C1544  1  0.090500  0.964500  0.623900  1.0
  C  C1545  1  0.367100  0.456800  0.108000  1.0
  C  C1546  1  0.367100  0.043200  0.892000  1.0
  C  C1547  1  0.867100  0.456800  0.608000  1.0
  C  C1548  1  0.867100  0.043200  0.392000  1.0
  C  C1549  1  0.632900  0.543200  0.892000  1.0
  C  C1550  1  0.632900  0.956800  0.108000  1.0
  C  C1551  1  0.132900  0.543200  0.392000  1.0
  C  C1552  1  0.132900  0.956800  0.608000  1.0
  C  C1553  1  0.342700  0.483500  0.100900  1.0
  C  C1554  1  0.342700  0.016500  0.899100  1.0
  C  C1555  1  0.842700  0.483500  0.600900  1.0
  C  C1556  1  0.842700  0.016500  0.399100  1.0
  C  C1557  1  0.657300  0.516500  0.899100  1.0
  C  C1558  1  0.657300  0.983500  0.100900  1.0
  C  C1559  1  0.157300  0.516500  0.399100  1.0
  C  C1560  1  0.157300  0.983500  0.600900  1.0
  C  C1561  1  0.093300  0.276800  0.197000  1.0
  C  C1562  1  0.093300  0.223200  0.803000  1.0
  C  C1563  1  0.593300  0.276800  0.697000  1.0
  C  C1564  1  0.593300  0.223200  0.303000  1.0
  C  C1565  1  0.906700  0.723200  0.803000  1.0
  C  C1566  1  0.906700  0.776800  0.197000  1.0
  C  C1567  1  0.406700  0.723200  0.303000  1.0
  C  C1568  1  0.406700  0.776800  0.697000  1.0
  C  C1569  1  0.143800  0.283700  0.209600  1.0
  C  C1570  1  0.143800  0.216300  0.790400  1.0
  C  C1571  1  0.643800  0.283700  0.709600  1.0
  C  C1572  1  0.643800  0.216300  0.290400  1.0
  C  C1573  1  0.856200  0.716300  0.790400  1.0
  C  C1574  1  0.856200  0.783700  0.209600  1.0
  C  C1575  1  0.356200  0.716300  0.290400  1.0
  C  C1576  1  0.356200  0.783700  0.709600  1.0
  C  C1577  1  0.177900  0.285700  0.187400  1.0
  C  C1578  1  0.177900  0.214300  0.812600  1.0
  C  C1579  1  0.677900  0.285700  0.687400  1.0
  C  C1580  1  0.677900  0.214300  0.312600  1.0
  C  C1581  1  0.822100  0.714300  0.812600  1.0
  C  C1582  1  0.822100  0.785700  0.187400  1.0
  C  C1583  1  0.322100  0.714300  0.312600  1.0
  C  C1584  1  0.322100  0.785700  0.687400  1.0
  C  C1585  1  0.157600  0.297500  0.164400  1.0
  C  C1586  1  0.157600  0.202500  0.835600  1.0
  C  C1587  1  0.657600  0.297500  0.664400  1.0
  C  C1588  1  0.657600  0.202500  0.335600  1.0
  C  C1589  1  0.842400  0.702500  0.835600  1.0
  C  C1590  1  0.842400  0.797500  0.164400  1.0
  C  C1591  1  0.342400  0.702500  0.335600  1.0
  C  C1592  1  0.342400  0.797500  0.664400  1.0
  C  C1593  1  0.111700  0.296800  0.159200  1.0
  C  C1594  1  0.111700  0.203200  0.840800  1.0
  C  C1595  1  0.611700  0.296800  0.659200  1.0
  C  C1596  1  0.611700  0.203200  0.340800  1.0
  C  C1597  1  0.888300  0.703200  0.840800  1.0
  C  C1598  1  0.888300  0.796800  0.159200  1.0
  C  C1599  1  0.388300  0.703200  0.340800  1.0
  C  C1600  1  0.388300  0.796800  0.659200  1.0
  C  C1601  1  0.416400  0.293600  0.145300  1.0
  C  C1602  1  0.416400  0.206400  0.854700  1.0
  C  C1603  1  0.916400  0.293600  0.645300  1.0
  C  C1604  1  0.916400  0.206400  0.354700  1.0
  C  C1605  1  0.583600  0.706400  0.854700  1.0
  C  C1606  1  0.583600  0.793600  0.145300  1.0
  C  C1607  1  0.083600  0.706400  0.354700  1.0
  C  C1608  1  0.083600  0.793600  0.645300  1.0
  C  C1609  1  0.339000  0.294500  0.160400  1.0
  C  C1610  1  0.339000  0.205500  0.839600  1.0
  C  C1611  1  0.839000  0.294500  0.660400  1.0
  C  C1612  1  0.839000  0.205500  0.339600  1.0
  C  C1613  1  0.661000  0.705500  0.839600  1.0
  C  C1614  1  0.661000  0.794500  0.160400  1.0
  C  C1615  1  0.161000  0.705500  0.339600  1.0
  C  C1616  1  0.161000  0.794500  0.660400  1.0
  C  C1617  1  0.322400  0.314600  0.140100  1.0
  C  C1618  1  0.322400  0.185400  0.859900  1.0
  C  C1619  1  0.822400  0.314600  0.640100  1.0
  C  C1620  1  0.822400  0.185400  0.359900  1.0
  C  C1621  1  0.677600  0.685400  0.859900  1.0
  C  C1622  1  0.677600  0.814600  0.140100  1.0
  C  C1623  1  0.177600  0.685400  0.359900  1.0
  C  C1624  1  0.177600  0.814600  0.640100  1.0
  C  C1625  1  0.361500  0.320600  0.122600  1.0
  C  C1626  1  0.361500  0.179400  0.877400  1.0
  C  C1627  1  0.861500  0.320600  0.622600  1.0
  C  C1628  1  0.861500  0.179400  0.377400  1.0
  C  C1629  1  0.638500  0.679400  0.877400  1.0
  C  C1630  1  0.638500  0.820600  0.122600  1.0
  C  C1631  1  0.138500  0.679400  0.377400  1.0
  C  C1632  1  0.138500  0.820600  0.622600  1.0
  C  C1633  1  0.145500  0.376800  0.048300  1.0
  C  C1634  1  0.145500  0.123200  0.951700  1.0
  C  C1635  1  0.645500  0.376800  0.548300  1.0
  C  C1636  1  0.645500  0.123200  0.451700  1.0
  C  C1637  1  0.854500  0.623200  0.951700  1.0
  C  C1638  1  0.854500  0.876800  0.048300  1.0
  C  C1639  1  0.354500  0.623200  0.451700  1.0
  C  C1640  1  0.354500  0.876800  0.548300  1.0
  C  C1641  1  0.138600  0.356000  0.088300  1.0
  C  C1642  1  0.138600  0.144000  0.911700  1.0
  C  C1643  1  0.638600  0.356000  0.588300  1.0
  C  C1644  1  0.638600  0.144000  0.411700  1.0
  C  C1645  1  0.861400  0.644000  0.911700  1.0
  C  C1646  1  0.861400  0.856000  0.088300  1.0
  C  C1647  1  0.361400  0.644000  0.411700  1.0
  C  C1648  1  0.361400  0.856000  0.588300  1.0
  C  C1649  1  0.185000  0.356000  0.092000  1.0
  C  C1650  1  0.185000  0.144000  0.908000  1.0
  C  C1651  1  0.685000  0.356000  0.592000  1.0
  C  C1652  1  0.685000  0.144000  0.408000  1.0
  C  C1653  1  0.815000  0.644000  0.908000  1.0
  C  C1654  1  0.815000  0.856000  0.092000  1.0
  C  C1655  1  0.315000  0.644000  0.408000  1.0
  C  C1656  1  0.315000  0.856000  0.592000  1.0
  C  C1657  1  0.214900  0.364700  0.071000  1.0
  C  C1658  1  0.214900  0.135300  0.929000  1.0
  C  C1659  1  0.714900  0.364700  0.571000  1.0
  C  C1660  1  0.714900  0.135300  0.429000  1.0
  C  C1661  1  0.785100  0.635300  0.929000  1.0
  C  C1662  1  0.785100  0.864700  0.071000  1.0
  C  C1663  1  0.285100  0.635300  0.429000  1.0
  C  C1664  1  0.285100  0.864700  0.571000  1.0
  C  C1665  1  0.196400  0.312900  0.149200  1.0
  C  C1666  1  0.196400  0.187100  0.850800  1.0
  C  C1667  1  0.696400  0.312900  0.649200  1.0
  C  C1668  1  0.696400  0.187100  0.350800  1.0
  C  C1669  1  0.803600  0.687100  0.850800  1.0
  C  C1670  1  0.803600  0.812900  0.149200  1.0
  C  C1671  1  0.303600  0.687100  0.350800  1.0
  C  C1672  1  0.303600  0.812900  0.649200  1.0
  C  C1673  1  0.208400  0.339500  0.113700  1.0
  C  C1674  1  0.208400  0.160500  0.886300  1.0
  C  C1675  1  0.708400  0.339500  0.613700  1.0
  C  C1676  1  0.708400  0.160500  0.386300  1.0
  C  C1677  1  0.791600  0.660500  0.886300  1.0
  C  C1678  1  0.791600  0.839500  0.113700  1.0
  C  C1679  1  0.291600  0.660500  0.386300  1.0
  C  C1680  1  0.291600  0.839500  0.613700  1.0
  C  C1681  1  0.257000  0.337500  0.117000  1.0
  C  C1682  1  0.257000  0.162500  0.883000  1.0
  C  C1683  1  0.757000  0.337500  0.617000  1.0
  C  C1684  1  0.757000  0.162500  0.383000  1.0
  C  C1685  1  0.743000  0.662500  0.883000  1.0
  C  C1686  1  0.743000  0.837500  0.117000  1.0
  C  C1687  1  0.243000  0.662500  0.383000  1.0
  C  C1688  1  0.243000  0.837500  0.617000  1.0
  C  C1689  1  0.273300  0.319600  0.136800  1.0
  C  C1690  1  0.273300  0.180400  0.863200  1.0
  C  C1691  1  0.773300  0.319600  0.636800  1.0
  C  C1692  1  0.773300  0.180400  0.363200  1.0
  C  C1693  1  0.726700  0.680400  0.863200  1.0
  C  C1694  1  0.726700  0.819600  0.136800  1.0
  C  C1695  1  0.226700  0.680400  0.363200  1.0
  C  C1696  1  0.226700  0.819600  0.636800  1.0
  C  C1697  1  0.339900  0.696900  0.193400  1.0
  C  C1698  1  0.339900  0.803100  0.806600  1.0
  C  C1699  1  0.839900  0.696900  0.693400  1.0
  C  C1700  1  0.839900  0.803100  0.306600  1.0
  C  C1701  1  0.660100  0.303100  0.806600  1.0
  C  C1702  1  0.660100  0.196900  0.193400  1.0
  C  C1703  1  0.160100  0.303100  0.306600  1.0
  C  C1704  1  0.160100  0.196900  0.693400  1.0
  C  C1705  1  0.309500  0.704900  0.218600  1.0
  C  C1706  1  0.309500  0.795100  0.781400  1.0
  C  C1707  1  0.809500  0.704900  0.718600  1.0
  C  C1708  1  0.809500  0.795100  0.281400  1.0
  C  C1709  1  0.690500  0.295100  0.781400  1.0
  C  C1710  1  0.690500  0.204900  0.218600  1.0
  C  C1711  1  0.190500  0.295100  0.281400  1.0
  C  C1712  1  0.190500  0.204900  0.718600  1.0
  C  C1713  1  0.267300  0.694300  0.217200  1.0
  C  C1714  1  0.267300  0.805700  0.782800  1.0
  C  C1715  1  0.767300  0.694300  0.717200  1.0
  C  C1716  1  0.767300  0.805700  0.282800  1.0
  C  C1717  1  0.732700  0.305700  0.782800  1.0
  C  C1718  1  0.732700  0.194300  0.217200  1.0
  C  C1719  1  0.232700  0.305700  0.282800  1.0
  C  C1720  1  0.232700  0.194300  0.717200  1.0
  C  C1721  1  0.251100  0.670500  0.190300  1.0
  C  C1722  1  0.251100  0.829500  0.809700  1.0
  C  C1723  1  0.751100  0.670500  0.690300  1.0
  C  C1724  1  0.751100  0.829500  0.309700  1.0
  C  C1725  1  0.748900  0.329500  0.809700  1.0
  C  C1726  1  0.748900  0.170500  0.190300  1.0
  C  C1727  1  0.248900  0.329500  0.309700  1.0
  C  C1728  1  0.248900  0.170500  0.690300  1.0
  C  C1729  1  0.277500  0.661700  0.165400  1.0
  C  C1730  1  0.277500  0.838300  0.834600  1.0
  C  C1731  1  0.777500  0.661700  0.665400  1.0
  C  C1732  1  0.777500  0.838300  0.334600  1.0
  C  C1733  1  0.722500  0.338300  0.834600  1.0
  C  C1734  1  0.722500  0.161700  0.165400  1.0
  C  C1735  1  0.222500  0.338300  0.334600  1.0
  C  C1736  1  0.222500  0.161700  0.665400  1.0
  C  C1737  1  0.120000  0.538500  0.074300  1.0
  C  C1738  1  0.120000  0.961500  0.925700  1.0
  C  C1739  1  0.620000  0.538500  0.574300  1.0
  C  C1740  1  0.620000  0.961500  0.425700  1.0
  C  C1741  1  0.880000  0.461500  0.925700  1.0
  C  C1742  1  0.880000  0.038500  0.074300  1.0
  C  C1743  1  0.380000  0.461500  0.425700  1.0
  C  C1744  1  0.380000  0.038500  0.574300  1.0
  C  C1745  1  0.174400  0.575600  0.106800  1.0
  C  C1746  1  0.174400  0.924400  0.893200  1.0
  C  C1747  1  0.674400  0.575600  0.606800  1.0
  C  C1748  1  0.674400  0.924400  0.393200  1.0
  C  C1749  1  0.825600  0.424400  0.893200  1.0
  C  C1750  1  0.825600  0.075600  0.106800  1.0
  C  C1751  1  0.325600  0.424400  0.393200  1.0
  C  C1752  1  0.325600  0.075600  0.606800  1.0
  C  C1753  1  0.138600  0.583100  0.128800  1.0
  C  C1754  1  0.138600  0.916900  0.871200  1.0
  C  C1755  1  0.638600  0.583100  0.628800  1.0
  C  C1756  1  0.638600  0.916900  0.371200  1.0
  C  C1757  1  0.861400  0.416900  0.871200  1.0
  C  C1758  1  0.861400  0.083100  0.128800  1.0
  C  C1759  1  0.361400  0.416900  0.371200  1.0
  C  C1760  1  0.361400  0.083100  0.628800  1.0
  C  C1761  1  0.096000  0.566500  0.120500  1.0
  C  C1762  1  0.096000  0.933500  0.879500  1.0
  C  C1763  1  0.596000  0.566500  0.620500  1.0
  C  C1764  1  0.596000  0.933500  0.379500  1.0
  C  C1765  1  0.904000  0.433500  0.879500  1.0
  C  C1766  1  0.904000  0.066500  0.120500  1.0
  C  C1767  1  0.404000  0.433500  0.379500  1.0
  C  C1768  1  0.404000  0.066500  0.620500  1.0
  C  C1769  1  0.033900  0.689000  0.275000  1.0
  C  C1770  1  0.033900  0.811000  0.725000  1.0
  C  C1771  1  0.533900  0.689000  0.775000  1.0
  C  C1772  1  0.533900  0.811000  0.225000  1.0
  C  C1773  1  0.966100  0.311000  0.725000  1.0
  C  C1774  1  0.966100  0.189000  0.275000  1.0
  C  C1775  1  0.466100  0.311000  0.225000  1.0
  C  C1776  1  0.466100  0.189000  0.775000  1.0
  C  C1777  1  0.046700  0.647100  0.230500  1.0
  C  C1778  1  0.046700  0.852900  0.769500  1.0
  C  C1779  1  0.546700  0.647100  0.730500  1.0
  C  C1780  1  0.546700  0.852900  0.269500  1.0
  C  C1781  1  0.953300  0.352900  0.769500  1.0
  C  C1782  1  0.953300  0.147100  0.230500  1.0
  C  C1783  1  0.453300  0.352900  0.269500  1.0
  C  C1784  1  0.453300  0.147100  0.730500  1.0
  C  C1785  1  0.097000  0.658700  0.231500  1.0
  C  C1786  1  0.097000  0.841300  0.768500  1.0
  C  C1787  1  0.597000  0.658700  0.731500  1.0
  C  C1788  1  0.597000  0.841300  0.268500  1.0
  C  C1789  1  0.903000  0.341300  0.768500  1.0
  C  C1790  1  0.903000  0.158700  0.231500  1.0
  C  C1791  1  0.403000  0.341300  0.268500  1.0
  C  C1792  1  0.403000  0.158700  0.731500  1.0
  C  C1793  1  0.110200  0.686000  0.255700  1.0
  C  C1794  1  0.110200  0.814000  0.744300  1.0
  C  C1795  1  0.610200  0.686000  0.755700  1.0
  C  C1796  1  0.610200  0.814000  0.244300  1.0
  C  C1797  1  0.889800  0.314000  0.744300  1.0
  C  C1798  1  0.889800  0.186000  0.255700  1.0
  C  C1799  1  0.389800  0.314000  0.244300  1.0
  C  C1800  1  0.389800  0.186000  0.755700  1.0
  C  C1801  1  0.129600  0.644400  0.206600  1.0
  C  C1802  1  0.129600  0.855600  0.793400  1.0
  C  C1803  1  0.629600  0.644400  0.706600  1.0
  C  C1804  1  0.629600  0.855600  0.293400  1.0
  C  C1805  1  0.870400  0.355600  0.793400  1.0
  C  C1806  1  0.870400  0.144400  0.206600  1.0
  C  C1807  1  0.370400  0.355600  0.293400  1.0
  C  C1808  1  0.370400  0.144400  0.706600  1.0
  C  C1809  1  0.117100  0.617600  0.181000  1.0
  C  C1810  1  0.117100  0.882400  0.819000  1.0
  C  C1811  1  0.617100  0.617600  0.681000  1.0
  C  C1812  1  0.617100  0.882400  0.319000  1.0
  C  C1813  1  0.882900  0.382400  0.819000  1.0
  C  C1814  1  0.882900  0.117600  0.181000  1.0
  C  C1815  1  0.382900  0.382400  0.319000  1.0
  C  C1816  1  0.382900  0.117600  0.681000  1.0
  C  C1817  1  0.203600  0.649900  0.187800  1.0
  C  C1818  1  0.203600  0.850100  0.812200  1.0
  C  C1819  1  0.703600  0.649900  0.687800  1.0
  C  C1820  1  0.703600  0.850100  0.312200  1.0
  C  C1821  1  0.796400  0.350100  0.812200  1.0
  C  C1822  1  0.796400  0.149900  0.187800  1.0
  C  C1823  1  0.296400  0.350100  0.312200  1.0
  C  C1824  1  0.296400  0.149900  0.687800  1.0
  C  C1825  1  0.149200  0.608400  0.159400  1.0
  C  C1826  1  0.149200  0.891600  0.840600  1.0
  C  C1827  1  0.649200  0.608400  0.659400  1.0
  C  C1828  1  0.649200  0.891600  0.340600  1.0
  C  C1829  1  0.850800  0.391600  0.840600  1.0
  C  C1830  1  0.850800  0.108400  0.159400  1.0
  C  C1831  1  0.350800  0.391600  0.340600  1.0
  C  C1832  1  0.350800  0.108400  0.659400  1.0
  C  C1833  1  0.998900  0.336100  0.227500  1.0
  C  C1834  1  0.998900  0.163900  0.772500  1.0
  C  C1835  1  0.498900  0.336100  0.727500  1.0
  C  C1836  1  0.498900  0.163900  0.272500  1.0
  C  C1837  1  0.001100  0.663900  0.772500  1.0
  C  C1838  1  0.001100  0.836100  0.227500  1.0
  C  C1839  1  0.501100  0.663900  0.272500  1.0
  C  C1840  1  0.501100  0.836100  0.727500  1.0
  C  C1841  1  0.006700  0.369800  0.248300  1.0
  C  C1842  1  0.006700  0.130200  0.751700  1.0
  C  C1843  1  0.506700  0.369800  0.748300  1.0
  C  C1844  1  0.506700  0.130200  0.251700  1.0
  C  C1845  1  0.993300  0.630200  0.751700  1.0
  C  C1846  1  0.993300  0.869800  0.248300  1.0
  C  C1847  1  0.493300  0.630200  0.251700  1.0
  C  C1848  1  0.493300  0.869800  0.748300  1.0
  C  C1849  1  0.004700  0.403900  0.241500  1.0
  C  C1850  1  0.004700  0.096100  0.758500  1.0
  C  C1851  1  0.504700  0.403900  0.741500  1.0
  C  C1852  1  0.504700  0.096100  0.258500  1.0
  C  C1853  1  0.995300  0.596100  0.758500  1.0
  C  C1854  1  0.995300  0.903900  0.241500  1.0
  C  C1855  1  0.495300  0.596100  0.258500  1.0
  C  C1856  1  0.495300  0.903900  0.741500  1.0
  C  C1857  1  0.006600  0.402800  0.215000  1.0
  C  C1858  1  0.006600  0.097200  0.785000  1.0
  C  C1859  1  0.506600  0.402800  0.715000  1.0
  C  C1860  1  0.506600  0.097200  0.285000  1.0
  C  C1861  1  0.993400  0.597200  0.785000  1.0
  C  C1862  1  0.993400  0.902800  0.215000  1.0
  C  C1863  1  0.493400  0.597200  0.285000  1.0
  C  C1864  1  0.493400  0.902800  0.715000  1.0
  C  C1865  1  0.003500  0.367000  0.192800  1.0
  C  C1866  1  0.003500  0.133000  0.807200  1.0
  C  C1867  1  0.503500  0.367000  0.692800  1.0
  C  C1868  1  0.503500  0.133000  0.307200  1.0
  C  C1869  1  0.996500  0.633000  0.807200  1.0
  C  C1870  1  0.996500  0.867000  0.192800  1.0
  C  C1871  1  0.496500  0.633000  0.307200  1.0
  C  C1872  1  0.496500  0.867000  0.692800  1.0
  C  C1873  1  0.034800  0.449400  0.082700  1.0
  C  C1874  1  0.034800  0.050600  0.917300  1.0
  C  C1875  1  0.534800  0.449400  0.582700  1.0
  C  C1876  1  0.534800  0.050600  0.417300  1.0
  C  C1877  1  0.965200  0.550600  0.917300  1.0
  C  C1878  1  0.965200  0.949400  0.082700  1.0
  C  C1879  1  0.465200  0.550600  0.417300  1.0
  C  C1880  1  0.465200  0.949400  0.582700  1.0
  C  C1881  1  0.029800  0.424200  0.120600  1.0
  C  C1882  1  0.029800  0.075800  0.879400  1.0
  C  C1883  1  0.529800  0.424200  0.620600  1.0
  C  C1884  1  0.529800  0.075800  0.379400  1.0
  C  C1885  1  0.970200  0.575800  0.879400  1.0
  C  C1886  1  0.970200  0.924200  0.120600  1.0
  C  C1887  1  0.470200  0.575800  0.379400  1.0
  C  C1888  1  0.470200  0.924200  0.620600  1.0
  C  C1889  1  0.020900  0.461300  0.140800  1.0
  C  C1890  1  0.020900  0.038700  0.859200  1.0
  C  C1891  1  0.520900  0.461300  0.640800  1.0
  C  C1892  1  0.520900  0.038700  0.359200  1.0
  C  C1893  1  0.979100  0.538700  0.859200  1.0
  C  C1894  1  0.979100  0.961300  0.140800  1.0
  C  C1895  1  0.479100  0.538700  0.359200  1.0
  C  C1896  1  0.479100  0.961300  0.640800  1.0
  C  C1897  1  0.021400  0.488600  0.128600  1.0
  C  C1898  1  0.021400  0.011400  0.871400  1.0
  C  C1899  1  0.521400  0.488600  0.628600  1.0
  C  C1900  1  0.521400  0.011400  0.371400  1.0
  C  C1901  1  0.978600  0.511400  0.871400  1.0
  C  C1902  1  0.978600  0.988600  0.128600  1.0
  C  C1903  1  0.478600  0.511400  0.371400  1.0
  C  C1904  1  0.478600  0.988600  0.628600  1.0
  C  C1905  1  0.948900  0.597200  0.283900  1.0
  C  C1906  1  0.948900  0.902800  0.716100  1.0
  C  C1907  1  0.448900  0.597200  0.783900  1.0
  C  C1908  1  0.448900  0.902800  0.216100  1.0
  C  C1909  1  0.051100  0.402800  0.716100  1.0
  C  C1910  1  0.051100  0.097200  0.283900  1.0
  C  C1911  1  0.551100  0.402800  0.216100  1.0
  C  C1912  1  0.551100  0.097200  0.783900  1.0
  C  C1913  1  0.978400  0.568200  0.237700  1.0
  C  C1914  1  0.978400  0.931800  0.762300  1.0
  C  C1915  1  0.478400  0.568200  0.737700  1.0
  C  C1916  1  0.478400  0.931800  0.262300  1.0
  C  C1917  1  0.021600  0.431800  0.762300  1.0
  C  C1918  1  0.021600  0.068200  0.237700  1.0
  C  C1919  1  0.521600  0.431800  0.262300  1.0
  C  C1920  1  0.521600  0.068200  0.737700  1.0
  C  C1921  1  0.983200  0.533600  0.242800  1.0
  C  C1922  1  0.983200  0.966400  0.757200  1.0
  C  C1923  1  0.483200  0.533600  0.742800  1.0
  C  C1924  1  0.483200  0.966400  0.257200  1.0
  C  C1925  1  0.016800  0.466400  0.757200  1.0
  C  C1926  1  0.016800  0.033600  0.242800  1.0
  C  C1927  1  0.516800  0.466400  0.257200  1.0
  C  C1928  1  0.516800  0.033600  0.742800  1.0
  C  C1929  1  0.969300  0.533000  0.270200  1.0
  C  C1930  1  0.969300  0.967000  0.729800  1.0
  C  C1931  1  0.469300  0.533000  0.770200  1.0
  C  C1932  1  0.469300  0.967000  0.229800  1.0
  C  C1933  1  0.030700  0.467000  0.729800  1.0
  C  C1934  1  0.030700  0.033000  0.270200  1.0
  C  C1935  1  0.530700  0.467000  0.229800  1.0
  C  C1936  1  0.530700  0.033000  0.770200  1.0
  C  C1937  1  0.006800  0.436500  0.208000  1.0
  C  C1938  1  0.006800  0.063500  0.792000  1.0
  C  C1939  1  0.506800  0.436500  0.708000  1.0
  C  C1940  1  0.506800  0.063500  0.292000  1.0
  C  C1941  1  0.993200  0.563500  0.792000  1.0
  C  C1942  1  0.993200  0.936500  0.208000  1.0
  C  C1943  1  0.493200  0.563500  0.292000  1.0
  C  C1944  1  0.493200  0.936500  0.708000  1.0
  C  C1945  1  0.996100  0.501000  0.220300  1.0
  C  C1946  1  0.996100  0.999000  0.779700  1.0
  C  C1947  1  0.496100  0.501000  0.720300  1.0
  C  C1948  1  0.496100  0.999000  0.279700  1.0
  C  C1949  1  0.003900  0.499000  0.779700  1.0
  C  C1950  1  0.003900  0.001000  0.220300  1.0
  C  C1951  1  0.503900  0.499000  0.279700  1.0
  C  C1952  1  0.503900  0.001000  0.720300  1.0
  C  C1953  1  0.006300  0.498000  0.191000  1.0
  C  C1954  1  0.006300  0.002000  0.809000  1.0
  C  C1955  1  0.506300  0.498000  0.691000  1.0
  C  C1956  1  0.506300  0.002000  0.309000  1.0
  C  C1957  1  0.993700  0.502000  0.809000  1.0
  C  C1958  1  0.993700  0.998000  0.191000  1.0
  C  C1959  1  0.493700  0.502000  0.309000  1.0
  C  C1960  1  0.493700  0.998000  0.691000  1.0
  C  C1961  1  0.014400  0.465400  0.170000  1.0
  C  C1962  1  0.014400  0.034600  0.830000  1.0
  C  C1963  1  0.514400  0.465400  0.670000  1.0
  C  C1964  1  0.514400  0.034600  0.330000  1.0
  C  C1965  1  0.985600  0.534600  0.830000  1.0
  C  C1966  1  0.985600  0.965400  0.170000  1.0
  C  C1967  1  0.485600  0.534600  0.330000  1.0
  C  C1968  1  0.485600  0.965400  0.670000  1.0
  C  C1969  1  0.271000  0.587700  0.323300  1.0
  C  C1970  1  0.271000  0.912300  0.676700  1.0
  C  C1971  1  0.771000  0.587700  0.823300  1.0
  C  C1972  1  0.771000  0.912300  0.176700  1.0
  C  C1973  1  0.729000  0.412300  0.676700  1.0
  C  C1974  1  0.729000  0.087700  0.323300  1.0
  C  C1975  1  0.229000  0.412300  0.176700  1.0
  C  C1976  1  0.229000  0.087700  0.823300  1.0
  C  C1977  1  0.309000  0.595000  0.302900  1.0
  C  C1978  1  0.309000  0.905000  0.697100  1.0
  C  C1979  1  0.809000  0.595000  0.802900  1.0
  C  C1980  1  0.809000  0.905000  0.197100  1.0
  C  C1981  1  0.691000  0.405000  0.697100  1.0
  C  C1982  1  0.691000  0.095000  0.302900  1.0
  C  C1983  1  0.191000  0.405000  0.197100  1.0
  C  C1984  1  0.191000  0.095000  0.802900  1.0
  C  C1985  1  0.279600  0.610200  0.284100  1.0
  C  C1986  1  0.279600  0.889800  0.715900  1.0
  C  C1987  1  0.779600  0.610200  0.784100  1.0
  C  C1988  1  0.779600  0.889800  0.215900  1.0
  C  C1989  1  0.720400  0.389800  0.715900  1.0
  C  C1990  1  0.720400  0.110200  0.284100  1.0
  C  C1991  1  0.220400  0.389800  0.215900  1.0
  C  C1992  1  0.220400  0.110200  0.784100  1.0
  C  C1993  1  0.235500  0.619800  0.283000  1.0
  C  C1994  1  0.235500  0.880200  0.717000  1.0
  C  C1995  1  0.735500  0.619800  0.783000  1.0
  C  C1996  1  0.735500  0.880200  0.217000  1.0
  C  C1997  1  0.764500  0.380200  0.717000  1.0
  C  C1998  1  0.764500  0.119800  0.283000  1.0
  C  C1999  1  0.264500  0.380200  0.217000  1.0
  C  C2000  1  0.264500  0.119800  0.783000  1.0
  C  C2001  1  0.207000  0.605300  0.301100  1.0
  C  C2002  1  0.207000  0.894700  0.698900  1.0
  C  C2003  1  0.707000  0.605300  0.801100  1.0
  C  C2004  1  0.707000  0.894700  0.198900  1.0
  C  C2005  1  0.793000  0.394700  0.698900  1.0
  C  C2006  1  0.793000  0.105300  0.301100  1.0
  C  C2007  1  0.293000  0.394700  0.198900  1.0
  C  C2008  1  0.293000  0.105300  0.801100  1.0
  C  C2009  1  0.225800  0.592300  0.323200  1.0
  C  C2010  1  0.225800  0.907700  0.676800  1.0
  C  C2011  1  0.725800  0.592300  0.823200  1.0
  C  C2012  1  0.725800  0.907700  0.176800  1.0
  C  C2013  1  0.774200  0.407700  0.676800  1.0
  C  C2014  1  0.774200  0.092300  0.323200  1.0
  C  C2015  1  0.274200  0.407700  0.176800  1.0
  C  C2016  1  0.274200  0.092300  0.823200  1.0
  C  C2017  1  0.355200  0.591100  0.301500  1.0
  C  C2018  1  0.355200  0.908900  0.698500  1.0
  C  C2019  1  0.855200  0.591100  0.801500  1.0
  C  C2020  1  0.855200  0.908900  0.198500  1.0
  C  C2021  1  0.644800  0.408900  0.698500  1.0
  C  C2022  1  0.644800  0.091100  0.301500  1.0
  C  C2023  1  0.144800  0.408900  0.198500  1.0
  C  C2024  1  0.144800  0.091100  0.801500  1.0
  C  C2025  1  0.190300  0.578400  0.340800  1.0
  C  C2026  1  0.190300  0.921600  0.659200  1.0
  C  C2027  1  0.690300  0.578400  0.840800  1.0
  C  C2028  1  0.690300  0.921600  0.159200  1.0
  C  C2029  1  0.809700  0.421600  0.659200  1.0
  C  C2030  1  0.809700  0.078400  0.340800  1.0
  C  C2031  1  0.309700  0.421600  0.159200  1.0
  C  C2032  1  0.309700  0.078400  0.840800  1.0
  C  C2033  1  0.376500  0.554000  0.284800  1.0
  C  C2034  1  0.376500  0.946000  0.715200  1.0
  C  C2035  1  0.876500  0.554000  0.784800  1.0
  C  C2036  1  0.876500  0.946000  0.215200  1.0
  C  C2037  1  0.623500  0.446000  0.715200  1.0
  C  C2038  1  0.623500  0.054000  0.284800  1.0
  C  C2039  1  0.123500  0.446000  0.215200  1.0
  C  C2040  1  0.123500  0.054000  0.784800  1.0
  C  C2041  1  0.378000  0.549800  0.254700  1.0
  C  C2042  1  0.378000  0.950200  0.745300  1.0
  C  C2043  1  0.878000  0.549800  0.754700  1.0
  C  C2044  1  0.878000  0.950200  0.245300  1.0
  C  C2045  1  0.622000  0.450200  0.745300  1.0
  C  C2046  1  0.622000  0.049800  0.254700  1.0
  C  C2047  1  0.122000  0.450200  0.245300  1.0
  C  C2048  1  0.122000  0.049800  0.754700  1.0
  C  C2049  1  0.395900  0.510600  0.234900  1.0
  C  C2050  1  0.395900  0.989400  0.765100  1.0
  C  C2051  1  0.895900  0.510600  0.734900  1.0
  C  C2052  1  0.895900  0.989400  0.265100  1.0
  C  C2053  1  0.604100  0.489400  0.765100  1.0
  C  C2054  1  0.604100  0.010600  0.234900  1.0
  C  C2055  1  0.104100  0.489400  0.265100  1.0
  C  C2056  1  0.104100  0.010600  0.734900  1.0
  C  C2057  1  0.395700  0.483500  0.244500  1.0
  C  C2058  1  0.395700  0.016500  0.755500  1.0
  C  C2059  1  0.895700  0.483500  0.744500  1.0
  C  C2060  1  0.895700  0.016500  0.255500  1.0
  C  C2061  1  0.604300  0.516500  0.755500  1.0
  C  C2062  1  0.604300  0.983500  0.244500  1.0
  C  C2063  1  0.104300  0.516500  0.255500  1.0
  C  C2064  1  0.104300  0.983500  0.744500  1.0
  C  C2065  1  0.385200  0.488300  0.271100  1.0
  C  C2066  1  0.385200  0.011700  0.728900  1.0
  C  C2067  1  0.885200  0.488300  0.771100  1.0
  C  C2068  1  0.885200  0.011700  0.228900  1.0
  C  C2069  1  0.614800  0.511700  0.728900  1.0
  C  C2070  1  0.614800  0.988300  0.271100  1.0
  C  C2071  1  0.114800  0.511700  0.228900  1.0
  C  C2072  1  0.114800  0.988300  0.771100  1.0
  C  C2073  1  0.376900  0.520400  0.294400  1.0
  C  C2074  1  0.376900  0.979600  0.705600  1.0
  C  C2075  1  0.876900  0.520400  0.794400  1.0
  C  C2076  1  0.876900  0.979600  0.205600  1.0
  C  C2077  1  0.623100  0.479600  0.705600  1.0
  C  C2078  1  0.623100  0.020400  0.294400  1.0
  C  C2079  1  0.123100  0.479600  0.205600  1.0
  C  C2080  1  0.123100  0.020400  0.794400  1.0
  C  C2081  1  0.383300  0.447000  0.279100  1.0
  C  C2082  1  0.383300  0.053000  0.720900  1.0
  C  C2083  1  0.883300  0.447000  0.779100  1.0
  C  C2084  1  0.883300  0.053000  0.220900  1.0
  C  C2085  1  0.616700  0.553000  0.720900  1.0
  C  C2086  1  0.616700  0.947000  0.279100  1.0
  C  C2087  1  0.116700  0.553000  0.220900  1.0
  C  C2088  1  0.116700  0.947000  0.779100  1.0
  C  C2089  1  0.337300  0.432600  0.279700  1.0
  C  C2090  1  0.337300  0.067400  0.720300  1.0
  C  C2091  1  0.837300  0.432600  0.779700  1.0
  C  C2092  1  0.837300  0.067400  0.220300  1.0
  C  C2093  1  0.662700  0.567400  0.720300  1.0
  C  C2094  1  0.662700  0.932600  0.279700  1.0
  C  C2095  1  0.162700  0.567400  0.220300  1.0
  C  C2096  1  0.162700  0.932600  0.779700  1.0
  C  C2097  1  0.307300  0.441700  0.299500  1.0
  C  C2098  1  0.307300  0.058300  0.700500  1.0
  C  C2099  1  0.807300  0.441700  0.799500  1.0
  C  C2100  1  0.807300  0.058300  0.200500  1.0
  C  C2101  1  0.692700  0.558300  0.700500  1.0
  C  C2102  1  0.692700  0.941700  0.299500  1.0
  C  C2103  1  0.192700  0.558300  0.200500  1.0
  C  C2104  1  0.192700  0.941700  0.799500  1.0
  C  C2105  1  0.250000  0.427100  0.298000  1.0
  C  C2106  1  0.250000  0.072900  0.702000  1.0
  C  C2107  1  0.750000  0.427100  0.798000  1.0
  C  C2108  1  0.750000  0.072900  0.202000  1.0
  C  C2109  1  0.750000  0.572900  0.702000  1.0
  C  C2110  1  0.750000  0.927100  0.298000  1.0
  C  C2111  1  0.250000  0.572900  0.202000  1.0
  C  C2112  1  0.250000  0.927100  0.798000  1.0
  C  C2113  1  0.324400  0.405400  0.250300  1.0
  C  C2114  1  0.324400  0.094600  0.749700  1.0
  C  C2115  1  0.824400  0.405400  0.750300  1.0
  C  C2116  1  0.824400  0.094600  0.249700  1.0
  C  C2117  1  0.675600  0.594600  0.749700  1.0
  C  C2118  1  0.675600  0.905400  0.250300  1.0
  C  C2119  1  0.175600  0.594600  0.249700  1.0
  C  C2120  1  0.175600  0.905400  0.750300  1.0
  C  C2121  1  0.276800  0.389000  0.244400  1.0
  C  C2122  1  0.276800  0.111000  0.755600  1.0
  C  C2123  1  0.776800  0.389000  0.744400  1.0
  C  C2124  1  0.776800  0.111000  0.255600  1.0
  C  C2125  1  0.723200  0.611000  0.755600  1.0
  C  C2126  1  0.723200  0.889000  0.244400  1.0
  C  C2127  1  0.223200  0.611000  0.255600  1.0
  C  C2128  1  0.223200  0.889000  0.744400  1.0
  C  C2129  1  0.243000  0.401200  0.266100  1.0
  C  C2130  1  0.243000  0.098800  0.733900  1.0
  C  C2131  1  0.743000  0.401200  0.766100  1.0
  C  C2132  1  0.743000  0.098800  0.233900  1.0
  C  C2133  1  0.757000  0.598800  0.733900  1.0
  C  C2134  1  0.757000  0.901200  0.266100  1.0
  C  C2135  1  0.257000  0.598800  0.233900  1.0
  C  C2136  1  0.257000  0.901200  0.766100  1.0
  C  C2137  1  0.216000  0.441400  0.315100  1.0
  C  C2138  1  0.216000  0.058600  0.684900  1.0
  C  C2139  1  0.716000  0.441400  0.815100  1.0
  C  C2140  1  0.716000  0.058600  0.184900  1.0
  C  C2141  1  0.784000  0.558600  0.684900  1.0
  C  C2142  1  0.784000  0.941400  0.315100  1.0
  C  C2143  1  0.284000  0.558600  0.184900  1.0
  C  C2144  1  0.284000  0.941400  0.815100  1.0
  C  C2145  1  0.189000  0.468800  0.317500  1.0
  C  C2146  1  0.189000  0.031200  0.682500  1.0
  C  C2147  1  0.689000  0.468800  0.817500  1.0
  C  C2148  1  0.689000  0.031200  0.182500  1.0
  C  C2149  1  0.811000  0.531200  0.682500  1.0
  C  C2150  1  0.811000  0.968800  0.317500  1.0
  C  C2151  1  0.311000  0.531200  0.182500  1.0
  C  C2152  1  0.311000  0.968800  0.817500  1.0
  C  C2153  1  0.197900  0.510200  0.329600  1.0
  C  C2154  1  0.197900  0.989800  0.670400  1.0
  C  C2155  1  0.697900  0.510200  0.829600  1.0
  C  C2156  1  0.697900  0.989800  0.170400  1.0
  C  C2157  1  0.802100  0.489800  0.670400  1.0
  C  C2158  1  0.802100  0.010200  0.329600  1.0
  C  C2159  1  0.302100  0.489800  0.170400  1.0
  C  C2160  1  0.302100  0.010200  0.829600  1.0
  C  C2161  1  0.172000  0.535000  0.325900  1.0
  C  C2162  1  0.172000  0.965000  0.674100  1.0
  C  C2163  1  0.672000  0.535000  0.825900  1.0
  C  C2164  1  0.672000  0.965000  0.174100  1.0
  C  C2165  1  0.828000  0.465000  0.674100  1.0
  C  C2166  1  0.828000  0.035000  0.325900  1.0
  C  C2167  1  0.328000  0.465000  0.174100  1.0
  C  C2168  1  0.328000  0.035000  0.825900  1.0
  C  C2169  1  0.133700  0.530700  0.309200  1.0
  C  C2170  1  0.133700  0.969300  0.690800  1.0
  C  C2171  1  0.633700  0.530700  0.809200  1.0
  C  C2172  1  0.633700  0.969300  0.190800  1.0
  C  C2173  1  0.866300  0.469300  0.690800  1.0
  C  C2174  1  0.866300  0.030700  0.309200  1.0
  C  C2175  1  0.366300  0.469300  0.190800  1.0
  C  C2176  1  0.366300  0.030700  0.809200  1.0
  C  C2177  1  0.151600  0.465500  0.297400  1.0
  C  C2178  1  0.151600  0.034500  0.702600  1.0
  C  C2179  1  0.651600  0.465500  0.797400  1.0
  C  C2180  1  0.651600  0.034500  0.202600  1.0
  C  C2181  1  0.848400  0.534500  0.702600  1.0
  C  C2182  1  0.848400  0.965500  0.297400  1.0
  C  C2183  1  0.348400  0.534500  0.202600  1.0
  C  C2184  1  0.348400  0.965500  0.797400  1.0
  C  C2185  1  0.121000  0.493200  0.296300  1.0
  C  C2186  1  0.121000  0.006800  0.703700  1.0
  C  C2187  1  0.621000  0.493200  0.796300  1.0
  C  C2188  1  0.621000  0.006800  0.203700  1.0
  C  C2189  1  0.879000  0.506800  0.703700  1.0
  C  C2190  1  0.879000  0.993200  0.296300  1.0
  C  C2191  1  0.379000  0.506800  0.203700  1.0
  C  C2192  1  0.379000  0.993200  0.796300  1.0
  N  N2193  1  0.348000  0.350300  0.054300  1
  N  N2194  1  0.348000  0.149700  0.945700  1
  N  N2195  1  0.848000  0.350300  0.554300  1
  N  N2196  1  0.848000  0.149700  0.445700  1
  N  N2197  1  0.652000  0.649700  0.945700  1
  N  N2198  1  0.652000  0.850300  0.054300  1
  N  N2199  1  0.152000  0.649700  0.445700  1
  N  N2200  1  0.152000  0.850300  0.554300  1
  N  N2201  1  0.441900  0.375900  0.192500  1
  N  N2202  1  0.441900  0.124100  0.807500  1
  N  N2203  1  0.941900  0.375900  0.692500  1
  N  N2204  1  0.941900  0.124100  0.307500  1
  N  N2205  1  0.558100  0.624100  0.807500  1
  N  N2206  1  0.558100  0.875900  0.192500  1
  N  N2207  1  0.058100  0.624100  0.307500  1
  N  N2208  1  0.058100  0.875900  0.692500  1
  N  N2209  1  0.155200  0.465400  0.096900  1
  N  N2210  1  0.155200  0.034600  0.903100  1
  N  N2211  1  0.655200  0.465400  0.596900  1
  N  N2212  1  0.655200  0.034600  0.403100  1
  N  N2213  1  0.844800  0.534600  0.903100  1
  N  N2214  1  0.844800  0.965400  0.096900  1
  N  N2215  1  0.344800  0.534600  0.403100  1
  N  N2216  1  0.344800  0.965400  0.596900  1
  N  N2217  1  0.273800  0.244100  0.208000  1
  N  N2218  1  0.273800  0.255900  0.792000  1
  N  N2219  1  0.773800  0.244100  0.708000  1
  N  N2220  1  0.773800  0.255900  0.292000  1
  N  N2221  1  0.726200  0.755900  0.792000  1
  N  N2222  1  0.726200  0.744100  0.208000  1
  N  N2223  1  0.226200  0.755900  0.292000  1
  N  N2224  1  0.226200  0.744100  0.708000  1
  N  N2225  1  0.126700  0.647400  0.098900  1
  N  N2226  1  0.126700  0.852600  0.901100  1
  N  N2227  1  0.626700  0.647400  0.598900  1
  N  N2228  1  0.626700  0.852600  0.401100  1
  N  N2229  1  0.873300  0.352600  0.901100  1
  N  N2230  1  0.873300  0.147400  0.098900  1
  N  N2231  1  0.373300  0.352600  0.401100  1
  N  N2232  1  0.373300  0.147400  0.598900  1
  N  N2233  1  0.868100  0.513400  0.236800  1
  N  N2234  1  0.868100  0.986600  0.763200  1
  N  N2235  1  0.368100  0.513400  0.736800  1
  N  N2236  1  0.368100  0.986600  0.263200  1
  N  N2237  1  0.131900  0.486600  0.763200  1
  N  N2238  1  0.131900  0.013400  0.236800  1
  N  N2239  1  0.631900  0.486600  0.263200  1
  N  N2240  1  0.631900  0.013400  0.736800  1
  N  N2241  1  0.966800  0.221000  0.207300  1
  N  N2242  1  0.966800  0.279000  0.792700  1
  N  N2243  1  0.466800  0.221000  0.707300  1
  N  N2244  1  0.466800  0.279000  0.292700  1
  N  N2245  1  0.033200  0.779000  0.792700  1
  N  N2246  1  0.033200  0.721000  0.207300  1
  N  N2247  1  0.533200  0.779000  0.292700  1
  N  N2248  1  0.533200  0.721000  0.707300  1
  N  N2249  1  0.106700  0.455200  0.012100  1
  N  N2250  1  0.106700  0.044800  0.987900  1
  N  N2251  1  0.606700  0.455200  0.512100  1
  N  N2252  1  0.606700  0.044800  0.487900  1
  N  N2253  1  0.893300  0.544800  0.987900  1
  N  N2254  1  0.893300  0.955200  0.012100  1
  N  N2255  1  0.393300  0.544800  0.487900  1
  N  N2256  1  0.393300  0.955200  0.512100  1
  N  N2257  1  0.976900  0.588600  0.164300  1
  N  N2258  1  0.976900  0.911400  0.835700  1
  N  N2259  1  0.476900  0.588600  0.664300  1
  N  N2260  1  0.476900  0.911400  0.335700  1
  N  N2261  1  0.023100  0.411400  0.835700  1
  N  N2262  1  0.023100  0.088600  0.164300  1
  N  N2263  1  0.523100  0.411400  0.335700  1
  N  N2264  1  0.523100  0.088600  0.664300  1
  N  N2265  1  0.081400  0.550500  0.002500  1
  N  N2266  1  0.081400  0.949500  0.997500  1
  N  N2267  1  0.581400  0.550500  0.502500  1
  N  N2268  1  0.581400  0.949500  0.497500  1
  N  N2269  1  0.918600  0.449500  0.997500  1
  N  N2270  1  0.918600  0.050500  0.002500  1
  N  N2271  1  0.418600  0.449500  0.497500  1
  N  N2272  1  0.418600  0.050500  0.502500  1
  N  N2273  1  0.290300  0.607200  0.086500  1
  N  N2274  1  0.290300  0.892800  0.913500  1
  N  N2275  1  0.790300  0.607200  0.586500  1
  N  N2276  1  0.790300  0.892800  0.413500  1
  N  N2277  1  0.709700  0.392800  0.913500  1
  N  N2278  1  0.709700  0.107200  0.086500  1
  N  N2279  1  0.209700  0.392800  0.413500  1
  N  N2280  1  0.209700  0.107200  0.586500  1
  N  N2281  1  0.566000  0.313100  0.159400  1
  N  N2282  1  0.566000  0.186900  0.840600  1
  N  N2283  1  0.066000  0.313100  0.659400  1
  N  N2284  1  0.066000  0.186900  0.340600  1
  N  N2285  1  0.434000  0.686900  0.840600  1
  N  N2286  1  0.434000  0.813100  0.159400  1
  N  N2287  1  0.934000  0.686900  0.340600  1
  N  N2288  1  0.934000  0.813100  0.659400  1
  N  N2289  1  0.560200  0.542200  0.190400  1
  N  N2290  1  0.560200  0.957800  0.809600  1
  N  N2291  1  0.060200  0.542200  0.690400  1
  N  N2292  1  0.060200  0.957800  0.309600  1
  N  N2293  1  0.439800  0.457800  0.809600  1
  N  N2294  1  0.439800  0.042200  0.190400  1
  N  N2295  1  0.939800  0.457800  0.309600  1
  N  N2296  1  0.939800  0.042200  0.690400  1
  N  N2297  1  0.022700  0.319000  0.106200  1
  N  N2298  1  0.022700  0.181000  0.893800  1
  N  N2299  1  0.522700  0.319000  0.606200  1
  N  N2300  1  0.522700  0.181000  0.393800  1
  N  N2301  1  0.977300  0.681000  0.893800  1
  N  N2302  1  0.977300  0.819000  0.106200  1
  N  N2303  1  0.477300  0.681000  0.393800  1
  N  N2304  1  0.477300  0.819000  0.606200  1
  N  N2305  1  0.457500  0.715100  0.225500  1
  N  N2306  1  0.457500  0.784900  0.774500  1
  N  N2307  1  0.957500  0.715100  0.725500  1
  N  N2308  1  0.957500  0.784900  0.274500  1
  N  N2309  1  0.542500  0.284900  0.774500  1
  N  N2310  1  0.542500  0.215100  0.225500  1
  N  N2311  1  0.042500  0.284900  0.274500  1
  N  N2312  1  0.042500  0.215100  0.725500  1
  N  N2313  1  0.141400  0.266700  0.040800  1
  N  N2314  1  0.141400  0.233300  0.959200  1
  N  N2315  1  0.641400  0.266700  0.540800  1
  N  N2316  1  0.641400  0.233300  0.459200  1
  N  N2317  1  0.858600  0.733300  0.959200  1
  N  N2318  1  0.858600  0.766700  0.040800  1
  N  N2319  1  0.358600  0.733300  0.459200  1
  N  N2320  1  0.358600  0.766700  0.540800  1
  N  N2321  1  0.518000  0.699500  0.100400  1
  N  N2322  1  0.518000  0.800500  0.899600  1
  N  N2323  1  0.018000  0.699500  0.600400  1
  N  N2324  1  0.018000  0.800500  0.399600  1
  N  N2325  1  0.482000  0.300500  0.899600  1
  N  N2326  1  0.482000  0.199500  0.100400  1
  N  N2327  1  0.982000  0.300500  0.399600  1
  N  N2328  1  0.982000  0.199500  0.600400  1
  N  N2329  1  0.918800  0.427000  0.118700  1
  N  N2330  1  0.918800  0.073000  0.881300  1
  N  N2331  1  0.418800  0.427000  0.618700  1
  N  N2332  1  0.418800  0.073000  0.381300  1
  N  N2333  1  0.081200  0.573000  0.881300  1
  N  N2334  1  0.081200  0.927000  0.118700  1
  N  N2335  1  0.581200  0.573000  0.381300  1
  N  N2336  1  0.581200  0.927000  0.618700  1
  N  N2337  1  0.525400  0.443400  0.084700  1
  N  N2338  1  0.525400  0.056600  0.915300  1
  N  N2339  1  0.025400  0.443400  0.584700  1
  N  N2340  1  0.025400  0.056600  0.415300  1
  N  N2341  1  0.474600  0.556600  0.915300  1
  N  N2342  1  0.474600  0.943400  0.084700  1
  N  N2343  1  0.974600  0.556600  0.415300  1
  N  N2344  1  0.974600  0.943400  0.584700  1
  N  N2345  1  0.973700  0.361700  0.056300  1.0
  N  N2346  1  0.973700  0.138300  0.943700  1.0
  N  N2347  1  0.473700  0.361700  0.556300  1.0
  N  N2348  1  0.473700  0.138300  0.443700  1.0
  N  N2349  1  0.026300  0.638300  0.943700  1.0
  N  N2350  1  0.026300  0.861700  0.056300  1.0
  N  N2351  1  0.526300  0.638300  0.443700  1.0
  N  N2352  1  0.526300  0.861700  0.556300  1.0
  N  N2353  1  0.048500  0.316800  0.030800  1.0
  N  N2354  1  0.048500  0.183200  0.969200  1.0
  N  N2355  1  0.548500  0.316800  0.530800  1.0
  N  N2356  1  0.548500  0.183200  0.469200  1.0
  N  N2357  1  0.951500  0.683200  0.969200  1.0
  N  N2358  1  0.951500  0.816800  0.030800  1.0
  N  N2359  1  0.451500  0.683200  0.469200  1.0
  N  N2360  1  0.451500  0.816800  0.530800  1.0
  N  N2361  1  0.387600  0.206100  0.156000  1.0
  N  N2362  1  0.387600  0.293900  0.844000  1.0
  N  N2363  1  0.887600  0.206100  0.656000  1.0
  N  N2364  1  0.887600  0.293900  0.344000  1.0
  N  N2365  1  0.612400  0.793900  0.844000  1.0
  N  N2366  1  0.612400  0.706100  0.156000  1.0
  N  N2367  1  0.112400  0.793900  0.344000  1.0
  N  N2368  1  0.112400  0.706100  0.656000  1.0
  N  N2369  1  0.417200  0.218200  0.210700  1.0
  N  N2370  1  0.417200  0.281800  0.789300  1.0
  N  N2371  1  0.917200  0.218200  0.710700  1.0
  N  N2372  1  0.917200  0.281800  0.289300  1.0
  N  N2373  1  0.582800  0.781800  0.789300  1.0
  N  N2374  1  0.582800  0.718200  0.210700  1.0
  N  N2375  1  0.082800  0.781800  0.289300  1.0
  N  N2376  1  0.082800  0.718200  0.710700  1.0
  N  N2377  1  0.501200  0.321400  0.065300  1.0
  N  N2378  1  0.501200  0.178600  0.934700  1.0
  N  N2379  1  0.001200  0.321400  0.565300  1.0
  N  N2380  1  0.001200  0.178600  0.434700  1.0
  N  N2381  1  0.498800  0.678600  0.934700  1.0
  N  N2382  1  0.498800  0.821400  0.065300  1.0
  N  N2383  1  0.998800  0.678600  0.434700  1.0
  N  N2384  1  0.998800  0.821400  0.565300  1.0
  N  N2385  1  0.449800  0.264900  0.071000  1.0
  N  N2386  1  0.449800  0.235100  0.929000  1.0
  N  N2387  1  0.949800  0.264900  0.571000  1.0
  N  N2388  1  0.949800  0.235100  0.429000  1.0
  N  N2389  1  0.550200  0.735100  0.929000  1.0
  N  N2390  1  0.550200  0.764900  0.071000  1.0
  N  N2391  1  0.050200  0.735100  0.429000  1.0
  N  N2392  1  0.050200  0.764900  0.571000  1.0
  N  N2393  1  0.217100  0.332500  0.991300  1.0
  N  N2394  1  0.217100  0.167500  0.008700  1.0
  N  N2395  1  0.717100  0.332500  0.491300  1.0
  N  N2396  1  0.717100  0.167500  0.508700  1.0
  N  N2397  1  0.782900  0.667500  0.008700  1.0
  N  N2398  1  0.782900  0.832500  0.991300  1.0
  N  N2399  1  0.282900  0.667500  0.508700  1.0
  N  N2400  1  0.282900  0.832500  0.491300  1.0
  N  N2401  1  0.272600  0.387200  0.983500  1.0
  N  N2402  1  0.272600  0.112800  0.016500  1.0
  N  N2403  1  0.772600  0.387200  0.483500  1.0
  N  N2404  1  0.772600  0.112800  0.516500  1.0
  N  N2405  1  0.727400  0.612800  0.016500  1.0
  N  N2406  1  0.727400  0.887200  0.983500  1.0
  N  N2407  1  0.227400  0.612800  0.516500  1.0
  N  N2408  1  0.227400  0.887200  0.483500  1.0
  N  N2409  1  0.950500  0.510100  0.070700  1.0
  N  N2410  1  0.950500  0.989900  0.929300  1.0
  N  N2411  1  0.450500  0.510100  0.570700  1.0
  N  N2412  1  0.450500  0.989900  0.429300  1.0
  N  N2413  1  0.049500  0.489900  0.929300  1.0
  N  N2414  1  0.049500  0.010100  0.070700  1.0
  N  N2415  1  0.549500  0.489900  0.429300  1.0
  N  N2416  1  0.549500  0.010100  0.570700  1.0
  N  N2417  1  0.005300  0.564300  0.063500  1.0
  N  N2418  1  0.005300  0.935700  0.936500  1.0
  N  N2419  1  0.505300  0.564300  0.563500  1.0
  N  N2420  1  0.505300  0.935700  0.436500  1.0
  N  N2421  1  0.994700  0.435700  0.936500  1.0
  N  N2422  1  0.994700  0.064300  0.063500  1.0
  N  N2423  1  0.494700  0.435700  0.436500  1.0
  N  N2424  1  0.494700  0.064300  0.563500  1.0
  N  N2425  1  0.256900  0.541700  0.013500  1.0
  N  N2426  1  0.256900  0.958300  0.986500  1.0
  N  N2427  1  0.756900  0.541700  0.513500  1.0
  N  N2428  1  0.756900  0.958300  0.486500  1.0
  N  N2429  1  0.743100  0.458300  0.986500  1.0
  N  N2430  1  0.743100  0.041700  0.013500  1.0
  N  N2431  1  0.243100  0.458300  0.486500  1.0
  N  N2432  1  0.243100  0.041700  0.513500  1.0
  N  N2433  1  0.186500  0.589000  0.035200  1.0
  N  N2434  1  0.186500  0.911000  0.964800  1.0
  N  N2435  1  0.686500  0.589000  0.535200  1.0
  N  N2436  1  0.686500  0.911000  0.464800  1.0
  N  N2437  1  0.813500  0.411000  0.964800  1.0
  N  N2438  1  0.813500  0.089000  0.035200  1.0
  N  N2439  1  0.313500  0.411000  0.464800  1.0
  N  N2440  1  0.313500  0.089000  0.535200  1.0
  N  N2441  1  0.638500  0.451800  0.191700  1.0
  N  N2442  1  0.638500  0.048200  0.808300  1.0
  N  N2443  1  0.138500  0.451800  0.691700  1.0
  N  N2444  1  0.138500  0.048200  0.308300  1.0
  N  N2445  1  0.361500  0.548200  0.808300  1.0
  N  N2446  1  0.361500  0.951800  0.191700  1.0
  N  N2447  1  0.861500  0.548200  0.308300  1.0
  N  N2448  1  0.861500  0.951800  0.691700  1.0
  N  N2449  1  0.610000  0.439800  0.135500  1.0
  N  N2450  1  0.610000  0.060200  0.864500  1.0
  N  N2451  1  0.110000  0.439800  0.635500  1.0
  N  N2452  1  0.110000  0.060200  0.364500  1.0
  N  N2453  1  0.390000  0.560200  0.864500  1.0
  N  N2454  1  0.390000  0.939800  0.135500  1.0
  N  N2455  1  0.890000  0.560200  0.364500  1.0
  N  N2456  1  0.890000  0.939800  0.635500  1.0
  N  N2457  1  0.876800  0.634300  0.246300  1.0
  N  N2458  1  0.876800  0.865700  0.753700  1.0
  N  N2459  1  0.376800  0.634300  0.746300  1.0
  N  N2460  1  0.376800  0.865700  0.253700  1.0
  N  N2461  1  0.123200  0.365700  0.753700  1.0
  N  N2462  1  0.123200  0.134300  0.246300  1.0
  N  N2463  1  0.623200  0.365700  0.253700  1.0
  N  N2464  1  0.623200  0.134300  0.746300  1.0
  N  N2465  1  0.926300  0.689600  0.237600  1.0
  N  N2466  1  0.926300  0.810400  0.762400  1.0
  N  N2467  1  0.426300  0.689600  0.737600  1.0
  N  N2468  1  0.426300  0.810400  0.262400  1.0
  N  N2469  1  0.073700  0.310400  0.762400  1.0
  N  N2470  1  0.073700  0.189600  0.237600  1.0
  N  N2471  1  0.573700  0.310400  0.262400  1.0
  N  N2472  1  0.573700  0.189600  0.737600  1.0
  N  N2473  1  0.405500  0.660200  0.094900  1.0
  N  N2474  1  0.405500  0.839800  0.905100  1.0
  N  N2475  1  0.905500  0.660200  0.594900  1.0
  N  N2476  1  0.905500  0.839800  0.405100  1.0
  N  N2477  1  0.594500  0.339800  0.905100  1.0
  N  N2478  1  0.594500  0.160200  0.094900  1.0
  N  N2479  1  0.094500  0.339800  0.405100  1.0
  N  N2480  1  0.094500  0.160200  0.594900  1.0
  N  N2481  1  0.332600  0.707900  0.117900  1.0
  N  N2482  1  0.332600  0.792100  0.882100  1.0
  N  N2483  1  0.832600  0.707900  0.617900  1.0
  N  N2484  1  0.832600  0.792100  0.382100  1.0
  N  N2485  1  0.667400  0.292100  0.882100  1.0
  N  N2486  1  0.667400  0.207900  0.117900  1.0
  N  N2487  1  0.167400  0.292100  0.382100  1.0
  N  N2488  1  0.167400  0.207900  0.617900  1.0
  N  N2489  1  0.007900  0.236200  0.133100  1.0
  N  N2490  1  0.007900  0.263800  0.866900  1.0
  N  N2491  1  0.507900  0.236200  0.633100  1.0
  N  N2492  1  0.507900  0.263800  0.366900  1.0
  N  N2493  1  0.992100  0.763800  0.866900  1.0
  N  N2494  1  0.992100  0.736200  0.133100  1.0
  N  N2495  1  0.492100  0.763800  0.366900  1.0
  N  N2496  1  0.492100  0.736200  0.633100  1.0
  N  N2497  1  0.935700  0.286700  0.157400  1.0
  N  N2498  1  0.935700  0.213300  0.842600  1.0
  N  N2499  1  0.435700  0.286700  0.657400  1.0
  N  N2500  1  0.435700  0.213300  0.342600  1.0
  N  N2501  1  0.064300  0.713300  0.842600  1.0
  N  N2502  1  0.064300  0.786700  0.157400  1.0
  N  N2503  1  0.564300  0.713300  0.342600  1.0
  N  N2504  1  0.564300  0.786700  0.657400  1.0
  N  N2505  1  0.402000  0.628700  0.142100  1.0
  N  N2506  1  0.402000  0.871300  0.857900  1.0
  N  N2507  1  0.902000  0.628700  0.642100  1.0
  N  N2508  1  0.902000  0.871300  0.357900  1.0
  N  N2509  1  0.598000  0.371300  0.857900  1.0
  N  N2510  1  0.598000  0.128700  0.142100  1.0
  N  N2511  1  0.098000  0.371300  0.357900  1.0
  N  N2512  1  0.098000  0.128700  0.642100  1.0
  N  N2513  1  0.512500  0.422000  0.149100  1.0
  N  N2514  1  0.512500  0.078000  0.850900  1.0
  N  N2515  1  0.012500  0.422000  0.649100  1.0
  N  N2516  1  0.012500  0.078000  0.350900  1.0
  N  N2517  1  0.487500  0.578000  0.850900  1.0
  N  N2518  1  0.487500  0.922000  0.149100  1.0
  N  N2519  1  0.987500  0.578000  0.350900  1.0
  N  N2520  1  0.987500  0.922000  0.649100  1.0
  N  N2521  1  0.463200  0.373100  0.119000  1.0
  N  N2522  1  0.463200  0.126900  0.881000  1.0
  N  N2523  1  0.963200  0.373100  0.619000  1.0
  N  N2524  1  0.963200  0.126900  0.381000  1.0
  N  N2525  1  0.536800  0.626900  0.881000  1.0
  N  N2526  1  0.536800  0.873100  0.119000  1.0
  N  N2527  1  0.036800  0.626900  0.381000  1.0
  N  N2528  1  0.036800  0.873100  0.619000  1.0
  N  N2529  1  0.242700  0.501400  0.055700  1.0
  N  N2530  1  0.242700  0.998600  0.944300  1.0
  N  N2531  1  0.742700  0.501400  0.555700  1.0
  N  N2532  1  0.742700  0.998600  0.444300  1.0
  N  N2533  1  0.757300  0.498600  0.944300  1.0
  N  N2534  1  0.757300  0.001400  0.055700  1.0
  N  N2535  1  0.257300  0.498600  0.444300  1.0
  N  N2536  1  0.257300  0.001400  0.555700  1.0
  N  N2537  1  0.254100  0.435700  0.041600  1.0
  N  N2538  1  0.254100  0.064300  0.958400  1.0
  N  N2539  1  0.754100  0.435700  0.541600  1.0
  N  N2540  1  0.754100  0.064300  0.458400  1.0
  N  N2541  1  0.745900  0.564300  0.958400  1.0
  N  N2542  1  0.745900  0.935700  0.041600  1.0
  N  N2543  1  0.245900  0.564300  0.458400  1.0
  N  N2544  1  0.245900  0.935700  0.541600  1.0
  N  N2545  1  0.355200  0.519900  0.111100  1.0
  N  N2546  1  0.355200  0.980100  0.888900  1.0
  N  N2547  1  0.855200  0.519900  0.611100  1.0
  N  N2548  1  0.855200  0.980100  0.388900  1.0
  N  N2549  1  0.644800  0.480100  0.888900  1.0
  N  N2550  1  0.644800  0.019900  0.111100  1.0
  N  N2551  1  0.144800  0.480100  0.388900  1.0
  N  N2552  1  0.144800  0.019900  0.611100  1.0
  N  N2553  1  0.423000  0.500400  0.134700  1.0
  N  N2554  1  0.423000  0.999600  0.865300  1.0
  N  N2555  1  0.923000  0.500400  0.634700  1.0
  N  N2556  1  0.923000  0.999600  0.365300  1.0
  N  N2557  1  0.577000  0.499600  0.865300  1.0
  N  N2558  1  0.577000  0.000400  0.134700  1.0
  N  N2559  1  0.077000  0.499600  0.365300  1.0
  N  N2560  1  0.077000  0.000400  0.634700  1.0
  N  N2561  1  0.079100  0.284100  0.173300  1.0
  N  N2562  1  0.079100  0.215900  0.826700  1.0
  N  N2563  1  0.579100  0.284100  0.673300  1.0
  N  N2564  1  0.579100  0.215900  0.326700  1.0
  N  N2565  1  0.920900  0.715900  0.826700  1.0
  N  N2566  1  0.920900  0.784100  0.173300  1.0
  N  N2567  1  0.420900  0.715900  0.326700  1.0
  N  N2568  1  0.420900  0.784100  0.673300  1.0
  N  N2569  1  0.384700  0.285400  0.162300  1.0
  N  N2570  1  0.384700  0.214600  0.837700  1.0
  N  N2571  1  0.884700  0.285400  0.662300  1.0
  N  N2572  1  0.884700  0.214600  0.337700  1.0
  N  N2573  1  0.615300  0.714600  0.837700  1.0
  N  N2574  1  0.615300  0.785400  0.162300  1.0
  N  N2575  1  0.115300  0.714600  0.337700  1.0
  N  N2576  1  0.115300  0.785400  0.662300  1.0
  N  N2577  1  0.407100  0.311400  0.126200  1.0
  N  N2578  1  0.407100  0.188600  0.873800  1.0
  N  N2579  1  0.907100  0.311400  0.626200  1.0
  N  N2580  1  0.907100  0.188600  0.373800  1.0
  N  N2581  1  0.592900  0.688600  0.873800  1.0
  N  N2582  1  0.592900  0.811400  0.126200  1.0
  N  N2583  1  0.092900  0.688600  0.373800  1.0
  N  N2584  1  0.092900  0.811400  0.626200  1.0
  N  N2585  1  0.118000  0.368300  0.067900  1.0
  N  N2586  1  0.118000  0.131700  0.932100  1.0
  N  N2587  1  0.618000  0.368300  0.567900  1.0
  N  N2588  1  0.618000  0.131700  0.432100  1.0
  N  N2589  1  0.882000  0.631700  0.932100  1.0
  N  N2590  1  0.882000  0.868300  0.067900  1.0
  N  N2591  1  0.382000  0.631700  0.432100  1.0
  N  N2592  1  0.382000  0.868300  0.567900  1.0
  N  N2593  1  0.194100  0.375200  0.049500  1.0
  N  N2594  1  0.194100  0.124800  0.950500  1.0
  N  N2595  1  0.694100  0.375200  0.549500  1.0
  N  N2596  1  0.694100  0.124800  0.450500  1.0
  N  N2597  1  0.805900  0.624800  0.950500  1.0
  N  N2598  1  0.805900  0.875200  0.049500  1.0
  N  N2599  1  0.305900  0.624800  0.450500  1.0
  N  N2600  1  0.305900  0.875200  0.549500  1.0
  N  N2601  1  0.174800  0.328000  0.129300  1.0
  N  N2602  1  0.174800  0.172000  0.870700  1.0
  N  N2603  1  0.674800  0.328000  0.629300  1.0
  N  N2604  1  0.674800  0.172000  0.370700  1.0
  N  N2605  1  0.825200  0.672000  0.870700  1.0
  N  N2606  1  0.825200  0.828000  0.129300  1.0
  N  N2607  1  0.325200  0.672000  0.370700  1.0
  N  N2608  1  0.325200  0.828000  0.629300  1.0
  N  N2609  1  0.242400  0.308000  0.152800  1.0
  N  N2610  1  0.242400  0.192000  0.847200  1.0
  N  N2611  1  0.742400  0.308000  0.652800  1.0
  N  N2612  1  0.742400  0.192000  0.347200  1.0
  N  N2613  1  0.757600  0.692000  0.847200  1.0
  N  N2614  1  0.757600  0.808000  0.152800  1.0
  N  N2615  1  0.257600  0.692000  0.347200  1.0
  N  N2616  1  0.257600  0.808000  0.652800  1.0
  N  N2617  1  0.324500  0.678500  0.167400  1.0
  N  N2618  1  0.324500  0.821500  0.832600  1.0
  N  N2619  1  0.824500  0.678500  0.667400  1.0
  N  N2620  1  0.824500  0.821500  0.332600  1.0
  N  N2621  1  0.675500  0.321500  0.832600  1.0
  N  N2622  1  0.675500  0.178500  0.167400  1.0
  N  N2623  1  0.175500  0.321500  0.332600  1.0
  N  N2624  1  0.175500  0.178500  0.667400  1.0
  N  N2625  1  0.163000  0.553400  0.080200  1.0
  N  N2626  1  0.163000  0.946600  0.919800  1.0
  N  N2627  1  0.663000  0.553400  0.580200  1.0
  N  N2628  1  0.663000  0.946600  0.419800  1.0
  N  N2629  1  0.837000  0.446600  0.919800  1.0
  N  N2630  1  0.837000  0.053400  0.080200  1.0
  N  N2631  1  0.337000  0.446600  0.419800  1.0
  N  N2632  1  0.337000  0.053400  0.580200  1.0
  N  N2633  1  0.084700  0.544200  0.093300  1.0
  N  N2634  1  0.084700  0.955800  0.906700  1.0
  N  N2635  1  0.584700  0.544200  0.593300  1.0
  N  N2636  1  0.584700  0.955800  0.406700  1.0
  N  N2637  1  0.915300  0.455800  0.906700  1.0
  N  N2638  1  0.915300  0.044200  0.093300  1.0
  N  N2639  1  0.415300  0.455800  0.406700  1.0
  N  N2640  1  0.415300  0.044200  0.593300  1.0
  N  N2641  1  0.018800  0.662000  0.252000  1.0
  N  N2642  1  0.018800  0.838000  0.748000  1.0
  N  N2643  1  0.518800  0.662000  0.752000  1.0
  N  N2644  1  0.518800  0.838000  0.248000  1.0
  N  N2645  1  0.981200  0.338000  0.748000  1.0
  N  N2646  1  0.981200  0.162000  0.252000  1.0
  N  N2647  1  0.481200  0.338000  0.248000  1.0
  N  N2648  1  0.481200  0.162000  0.752000  1.0
  N  N2649  1  0.079000  0.701100  0.278600  1.0
  N  N2650  1  0.079000  0.798900  0.721400  1.0
  N  N2651  1  0.579000  0.701100  0.778600  1.0
  N  N2652  1  0.579000  0.798900  0.221400  1.0
  N  N2653  1  0.921000  0.298900  0.721400  1.0
  N  N2654  1  0.921000  0.201100  0.278600  1.0
  N  N2655  1  0.421000  0.298900  0.221400  1.0
  N  N2656  1  0.421000  0.201100  0.778600  1.0
  N  N2657  1  0.194500  0.623700  0.161800  1.0
  N  N2658  1  0.194500  0.876300  0.838200  1.0
  N  N2659  1  0.694500  0.623700  0.661800  1.0
  N  N2660  1  0.694500  0.876300  0.338200  1.0
  N  N2661  1  0.805500  0.376300  0.838200  1.0
  N  N2662  1  0.805500  0.123700  0.161800  1.0
  N  N2663  1  0.305500  0.376300  0.338200  1.0
  N  N2664  1  0.305500  0.123700  0.661800  1.0
  N  N2665  1  0.173000  0.661600  0.210500  1.0
  N  N2666  1  0.173000  0.838400  0.789500  1.0
  N  N2667  1  0.673000  0.661600  0.710500  1.0
  N  N2668  1  0.673000  0.838400  0.289500  1.0
  N  N2669  1  0.827000  0.338400  0.789500  1.0
  N  N2670  1  0.827000  0.161600  0.210500  1.0
  N  N2671  1  0.327000  0.338400  0.289500  1.0
  N  N2672  1  0.327000  0.161600  0.710500  1.0
  N  N2673  1  0.004100  0.334800  0.197800  1.0
  N  N2674  1  0.004100  0.165200  0.802200  1.0
  N  N2675  1  0.504100  0.334800  0.697800  1.0
  N  N2676  1  0.504100  0.165200  0.302200  1.0
  N  N2677  1  0.995900  0.665200  0.802200  1.0
  N  N2678  1  0.995900  0.834800  0.197800  1.0
  N  N2679  1  0.495900  0.665200  0.302200  1.0
  N  N2680  1  0.495900  0.834800  0.697800  1.0
  N  N2681  1  0.035700  0.419500  0.091700  1.0
  N  N2682  1  0.035700  0.080500  0.908300  1.0
  N  N2683  1  0.535700  0.419500  0.591700  1.0
  N  N2684  1  0.535700  0.080500  0.408300  1.0
  N  N2685  1  0.964300  0.580500  0.908300  1.0
  N  N2686  1  0.964300  0.919500  0.091700  1.0
  N  N2687  1  0.464300  0.580500  0.408300  1.0
  N  N2688  1  0.464300  0.919500  0.591700  1.0
  N  N2689  1  0.024800  0.483000  0.100000  1.0
  N  N2690  1  0.024800  0.017000  0.900000  1.0
  N  N2691  1  0.524800  0.483000  0.600000  1.0
  N  N2692  1  0.524800  0.017000  0.400000  1.0
  N  N2693  1  0.975200  0.517000  0.900000  1.0
  N  N2694  1  0.975200  0.983000  0.100000  1.0
  N  N2695  1  0.475200  0.517000  0.400000  1.0
  N  N2696  1  0.475200  0.983000  0.600000  1.0
  N  N2697  1  0.953100  0.564700  0.290900  1.0
  N  N2698  1  0.953100  0.935300  0.709100  1.0
  N  N2699  1  0.453100  0.564700  0.790900  1.0
  N  N2700  1  0.453100  0.935300  0.209100  1.0
  N  N2701  1  0.046900  0.435300  0.709100  1.0
  N  N2702  1  0.046900  0.064700  0.290900  1.0
  N  N2703  1  0.546900  0.435300  0.209100  1.0
  N  N2704  1  0.546900  0.064700  0.790900  1.0
  N  N2705  1  0.961300  0.598500  0.258000  1.0
  N  N2706  1  0.961300  0.901500  0.742000  1.0
  N  N2707  1  0.461300  0.598500  0.758000  1.0
  N  N2708  1  0.461300  0.901500  0.242000  1.0
  N  N2709  1  0.038700  0.401500  0.742000  1.0
  N  N2710  1  0.038700  0.098500  0.258000  1.0
  N  N2711  1  0.538700  0.401500  0.242000  1.0
  N  N2712  1  0.538700  0.098500  0.758000  1.0
  N  N2713  1  0.015000  0.432400  0.178600  1.0
  N  N2714  1  0.015000  0.067600  0.821400  1.0
  N  N2715  1  0.515000  0.432400  0.678600  1.0
  N  N2716  1  0.515000  0.067600  0.321400  1.0
  N  N2717  1  0.985000  0.567600  0.821400  1.0
  N  N2718  1  0.985000  0.932400  0.178600  1.0
  N  N2719  1  0.485000  0.567600  0.321400  1.0
  N  N2720  1  0.485000  0.932400  0.678600  1.0
  N  N2721  1  0.996500  0.468300  0.227600  1.0
  N  N2722  1  0.996500  0.031700  0.772400  1.0
  N  N2723  1  0.496500  0.468300  0.727600  1.0
  N  N2724  1  0.496500  0.031700  0.272400  1.0
  N  N2725  1  0.003500  0.531700  0.772400  1.0
  N  N2726  1  0.003500  0.968300  0.227600  1.0
  N  N2727  1  0.503500  0.531700  0.272400  1.0
  N  N2728  1  0.503500  0.968300  0.727600  1.0
  O  O2729  1  0.333333  0.368900  0.078700  1
  O  O2730  1  0.333333  0.131100  0.921300  1
  O  O2731  1  0.833333  0.368900  0.578700  1
  O  O2732  1  0.833333  0.131100  0.421300  1
  O  O2733  1  0.666667  0.631100  0.921300  1
  O  O2734  1  0.666667  0.868900  0.078700  1
  O  O2735  1  0.166667  0.631100  0.421300  1
  O  O2736  1  0.166667  0.868900  0.578700  1
  O  O2737  1  0.325600  0.349000  0.032200  1
  O  O2738  1  0.325600  0.151000  0.967800  1
  O  O2739  1  0.825600  0.349000  0.532200  1
  O  O2740  1  0.825600  0.151000  0.467800  1
  O  O2741  1  0.674400  0.651000  0.967800  1
  O  O2742  1  0.674400  0.849000  0.032200  1
  O  O2743  1  0.174400  0.651000  0.467800  1
  O  O2744  1  0.174400  0.849000  0.532200  1
  O  O2745  1  0.386900  0.330400  0.050900  1
  O  O2746  1  0.386900  0.169600  0.949100  1
  O  O2747  1  0.886900  0.330400  0.550900  1
  O  O2748  1  0.886900  0.169600  0.449100  1
  O  O2749  1  0.613100  0.669600  0.949100  1
  O  O2750  1  0.613100  0.830400  0.050900  1
  O  O2751  1  0.113100  0.669600  0.449100  1
  O  O2752  1  0.113100  0.830400  0.550900  1
  O  O2753  1  0.474600  0.355100  0.182300  1
  O  O2754  1  0.474600  0.144900  0.817700  1
  O  O2755  1  0.974600  0.355100  0.682300  1
  O  O2756  1  0.974600  0.144900  0.317700  1
  O  O2757  1  0.525400  0.644900  0.817700  1
  O  O2758  1  0.525400  0.855100  0.182300  1
  O  O2759  1  0.025400  0.644900  0.317700  1
  O  O2760  1  0.025400  0.855100  0.682300  1
  O  O2761  1  0.436600  0.405400  0.188200  1
  O  O2762  1  0.436600  0.094600  0.811800  1
  O  O2763  1  0.936600  0.405400  0.688200  1
  O  O2764  1  0.936600  0.094600  0.311800  1
  O  O2765  1  0.563400  0.594600  0.811800  1
  O  O2766  1  0.563400  0.905400  0.188200  1
  O  O2767  1  0.063400  0.594600  0.311800  1
  O  O2768  1  0.063400  0.905400  0.688200  1
  O  O2769  1  0.412600  0.370600  0.210100  1
  O  O2770  1  0.412600  0.129400  0.789900  1
  O  O2771  1  0.912600  0.370600  0.710100  1
  O  O2772  1  0.912600  0.129400  0.289900  1
  O  O2773  1  0.587400  0.629400  0.789900  1
  O  O2774  1  0.587400  0.870600  0.210100  1
  O  O2775  1  0.087400  0.629400  0.289900  1
  O  O2776  1  0.087400  0.870600  0.710100  1
  O  O2777  1  0.139800  0.459800  0.072700  1
  O  O2778  1  0.139800  0.040200  0.927300  1
  O  O2779  1  0.639800  0.459800  0.572700  1
  O  O2780  1  0.639800  0.040200  0.427300  1
  O  O2781  1  0.860200  0.540200  0.927300  1
  O  O2782  1  0.860200  0.959800  0.072700  1
  O  O2783  1  0.360200  0.540200  0.427300  1
  O  O2784  1  0.360200  0.959800  0.572700  1
  O  O2785  1  0.132400  0.463200  0.116200  1
  O  O2786  1  0.132400  0.036800  0.883800  1
  O  O2787  1  0.632400  0.463200  0.616200  1
  O  O2788  1  0.632400  0.036800  0.383800  1
  O  O2789  1  0.867600  0.536800  0.883800  1
  O  O2790  1  0.867600  0.963200  0.116200  1
  O  O2791  1  0.367600  0.536800  0.383800  1
  O  O2792  1  0.367600  0.963200  0.616200  1
  O  O2793  1  0.197200  0.480800  0.106700  1
  O  O2794  1  0.197200  0.019200  0.893300  1
  O  O2795  1  0.697200  0.480800  0.606700  1
  O  O2796  1  0.697200  0.019200  0.393300  1
  O  O2797  1  0.802800  0.519200  0.893300  1
  O  O2798  1  0.802800  0.980800  0.106700  1
  O  O2799  1  0.302800  0.519200  0.393300  1
  O  O2800  1  0.302800  0.980800  0.606700  1
  O  O2801  1  0.235900  0.232500  0.218700  1
  O  O2802  1  0.235900  0.267500  0.781300  1
  O  O2803  1  0.735900  0.232500  0.718700  1
  O  O2804  1  0.735900  0.267500  0.281300  1
  O  O2805  1  0.764100  0.767500  0.781300  1
  O  O2806  1  0.764100  0.732500  0.218700  1
  O  O2807  1  0.264100  0.767500  0.281300  1
  O  O2808  1  0.264100  0.732500  0.718700  1
  O  O2809  1  0.279700  0.224200  0.179800  1
  O  O2810  1  0.279700  0.275800  0.820200  1
  O  O2811  1  0.779700  0.224200  0.679800  1
  O  O2812  1  0.779700  0.275800  0.320200  1
  O  O2813  1  0.720300  0.775800  0.820200  1
  O  O2814  1  0.720300  0.724200  0.179800  1
  O  O2815  1  0.220300  0.775800  0.320200  1
  O  O2816  1  0.220300  0.724200  0.679800  1
  O  O2817  1  0.288200  0.270700  0.214900  1
  O  O2818  1  0.288200  0.229300  0.785100  1
  O  O2819  1  0.788200  0.270700  0.714900  1
  O  O2820  1  0.788200  0.229300  0.285100  1
  O  O2821  1  0.711800  0.729300  0.785100  1
  O  O2822  1  0.711800  0.770700  0.214900  1
  O  O2823  1  0.211800  0.729300  0.285100  1
  O  O2824  1  0.211800  0.770700  0.714900  1
  O  O2825  1  0.095300  0.628600  0.085000  1
  O  O2826  1  0.095300  0.871400  0.915000  1
  O  O2827  1  0.595300  0.628600  0.585000  1
  O  O2828  1  0.595300  0.871400  0.415000  1
  O  O2829  1  0.904700  0.371400  0.915000  1
  O  O2830  1  0.904700  0.128600  0.085000  1
  O  O2831  1  0.404700  0.371400  0.415000  1
  O  O2832  1  0.404700  0.128600  0.585000  1
  O  O2833  1  0.124100  0.664200  0.125600  1
  O  O2834  1  0.124100  0.835800  0.874400  1
  O  O2835  1  0.624100  0.664200  0.625600  1
  O  O2836  1  0.624100  0.835800  0.374400  1
  O  O2837  1  0.875900  0.335800  0.874400  1
  O  O2838  1  0.875900  0.164200  0.125600  1
  O  O2839  1  0.375900  0.335800  0.374400  1
  O  O2840  1  0.375900  0.164200  0.625600  1
  O  O2841  1  0.158100  0.663800  0.087700  1
  O  O2842  1  0.158100  0.836200  0.912300  1
  O  O2843  1  0.658100  0.663800  0.587700  1
  O  O2844  1  0.658100  0.836200  0.412300  1
  O  O2845  1  0.841900  0.336200  0.912300  1
  O  O2846  1  0.841900  0.163800  0.087700  1
  O  O2847  1  0.341900  0.336200  0.412300  1
  O  O2848  1  0.341900  0.163800  0.587700  1
  O  O2849  1  0.864000  0.548300  0.244500  1
  O  O2850  1  0.864000  0.951700  0.755500  1
  O  O2851  1  0.364000  0.548300  0.744500  1
  O  O2852  1  0.364000  0.951700  0.255500  1
  O  O2853  1  0.136000  0.451700  0.755500  1
  O  O2854  1  0.136000  0.048300  0.244500  1
  O  O2855  1  0.636000  0.451700  0.255500  1
  O  O2856  1  0.636000  0.048300  0.744500  1
  O  O2857  1  0.882300  0.495800  0.211600  1
  O  O2858  1  0.882300  0.004200  0.788400  1
  O  O2859  1  0.382300  0.495800  0.711600  1
  O  O2860  1  0.382300  0.004200  0.288400  1
  O  O2861  1  0.117700  0.504200  0.788400  1
  O  O2862  1  0.117700  0.995800  0.211600  1
  O  O2863  1  0.617700  0.504200  0.288400  1
  O  O2864  1  0.617700  0.995800  0.711600  1
  O  O2865  1  0.858000  0.496200  0.254300  1
  O  O2866  1  0.858000  0.003800  0.745700  1
  O  O2867  1  0.358000  0.496200  0.754300  1
  O  O2868  1  0.358000  0.003800  0.245700  1
  O  O2869  1  0.142000  0.503800  0.745700  1
  O  O2870  1  0.142000  0.996200  0.254300  1
  O  O2871  1  0.642000  0.503800  0.245700  1
  O  O2872  1  0.642000  0.996200  0.754300  1
  O  O2873  1  0.970600  0.247600  0.230400  1
  O  O2874  1  0.970600  0.252400  0.769600  1
  O  O2875  1  0.470600  0.247600  0.730400  1
  O  O2876  1  0.470600  0.252400  0.269600  1
  O  O2877  1  0.029400  0.752400  0.769600  1
  O  O2878  1  0.029400  0.747600  0.230400  1
  O  O2879  1  0.529400  0.752400  0.269600  1
  O  O2880  1  0.529400  0.747600  0.730400  1
  O  O2881  1  0.999400  0.199200  0.195900  1
  O  O2882  1  0.999400  0.300800  0.804100  1
  O  O2883  1  0.499400  0.199200  0.695900  1
  O  O2884  1  0.499400  0.300800  0.304100  1
  O  O2885  1  0.000600  0.800800  0.804100  1
  O  O2886  1  0.000600  0.699200  0.195900  1
  O  O2887  1  0.500600  0.800800  0.304100  1
  O  O2888  1  0.500600  0.699200  0.695900  1
  O  O2889  1  0.925500  0.215500  0.194600  1
  O  O2890  1  0.925500  0.284500  0.805400  1
  O  O2891  1  0.425500  0.215500  0.694600  1
  O  O2892  1  0.425500  0.284500  0.305400  1
  O  O2893  1  0.074500  0.784500  0.805400  1
  O  O2894  1  0.074500  0.715500  0.194600  1
  O  O2895  1  0.574500  0.784500  0.305400  1
  O  O2896  1  0.574500  0.715500  0.694600  1
  O  O2897  1  0.066800  0.466800  0.025700  1
  O  O2898  1  0.066800  0.033200  0.974300  1
  O  O2899  1  0.566800  0.466800  0.525700  1
  O  O2900  1  0.566800  0.033200  0.474300  1
  O  O2901  1  0.933200  0.533200  0.974300  1
  O  O2902  1  0.933200  0.966800  0.025700  1
  O  O2903  1  0.433200  0.533200  0.474300  1
  O  O2904  1  0.433200  0.966800  0.525700  1
  O  O2905  1  0.133800  0.480100  0.010100  1
  O  O2906  1  0.133800  0.019900  0.989900  1
  O  O2907  1  0.633800  0.480100  0.510100  1
  O  O2908  1  0.633800  0.019900  0.489900  1
  O  O2909  1  0.866200  0.519900  0.989900  1
  O  O2910  1  0.866200  0.980100  0.010100  1
  O  O2911  1  0.366200  0.519900  0.489900  1
  O  O2912  1  0.366200  0.980100  0.510100  1
  O  O2913  1  0.118100  0.423300  0.003400  1
  O  O2914  1  0.118100  0.076700  0.996600  1
  O  O2915  1  0.618100  0.423300  0.503400  1
  O  O2916  1  0.618100  0.076700  0.496600  1
  O  O2917  1  0.881900  0.576700  0.996600  1
  O  O2918  1  0.881900  0.923300  0.003400  1
  O  O2919  1  0.381900  0.576700  0.496600  1
  O  O2920  1  0.381900  0.923300  0.503400  1
  O  O2921  1  0.964600  0.574900  0.137800  1
  O  O2922  1  0.964600  0.925100  0.862200  1
  O  O2923  1  0.464600  0.574900  0.637800  1
  O  O2924  1  0.464600  0.925100  0.362200  1
  O  O2925  1  0.035400  0.425100  0.862200  1
  O  O2926  1  0.035400  0.074900  0.137800  1
  O  O2927  1  0.535400  0.425100  0.362200  1
  O  O2928  1  0.535400  0.074900  0.637800  1
  O  O2929  1  0.012400  0.576300  0.173900  1
  O  O2930  1  0.012400  0.923700  0.826100  1
  O  O2931  1  0.512400  0.576300  0.673900  1
  O  O2932  1  0.512400  0.923700  0.326100  1
  O  O2933  1  0.987600  0.423700  0.826100  1
  O  O2934  1  0.987600  0.076300  0.173900  1
  O  O2935  1  0.487600  0.423700  0.326100  1
  O  O2936  1  0.487600  0.076300  0.673900  1
  O  O2937  1  0.954900  0.617100  0.181900  1
  O  O2938  1  0.954900  0.882900  0.818100  1
  O  O2939  1  0.454900  0.617100  0.681900  1
  O  O2940  1  0.454900  0.882900  0.318100  1
  O  O2941  1  0.045100  0.382900  0.818100  1
  O  O2942  1  0.045100  0.117100  0.181900  1
  O  O2943  1  0.545100  0.382900  0.318100  1
  O  O2944  1  0.545100  0.117100  0.681900  1
  O  O2945  1  0.085900  0.564300  0.025600  1
  O  O2946  1  0.085900  0.935700  0.974400  1
  O  O2947  1  0.585900  0.564300  0.525600  1
  O  O2948  1  0.585900  0.935700  0.474400  1
  O  O2949  1  0.914100  0.435700  0.974400  1
  O  O2950  1  0.914100  0.064300  0.025600  1
  O  O2951  1  0.414100  0.435700  0.474400  1
  O  O2952  1  0.414100  0.064300  0.525600  1
  O  O2953  1  0.116600  0.546800  0.983900  1
  O  O2954  1  0.116600  0.953200  0.016100  1
  O  O2955  1  0.616600  0.546800  0.483900  1
  O  O2956  1  0.616600  0.953200  0.516100  1
  O  O2957  1  0.883400  0.453200  0.016100  1
  O  O2958  1  0.883400  0.046800  0.983900  1
  O  O2959  1  0.383400  0.453200  0.516100  1
  O  O2960  1  0.383400  0.046800  0.483900  1
  O  O2961  1  0.041800  0.542800  0.990400  1
  O  O2962  1  0.041800  0.957200  0.009600  1
  O  O2963  1  0.541800  0.542800  0.490400  1
  O  O2964  1  0.541800  0.957200  0.509600  1
  O  O2965  1  0.958200  0.457200  0.009600  1
  O  O2966  1  0.958200  0.042800  0.990400  1
  O  O2967  1  0.458200  0.457200  0.509600  1
  O  O2968  1  0.458200  0.042800  0.490400  1
  O  O2969  1  0.284300  0.595600  0.102300  1
  O  O2970  1  0.284300  0.904400  0.897700  1
  O  O2971  1  0.784300  0.595600  0.602300  1
  O  O2972  1  0.784300  0.904400  0.397700  1
  O  O2973  1  0.715700  0.404400  0.897700  1
  O  O2974  1  0.715700  0.095600  0.102300  1
  O  O2975  1  0.215700  0.404400  0.397700  1
  O  O2976  1  0.215700  0.095600  0.602300  1
  O  O2977  1  0.265200  0.635800  0.082000  1
  O  O2978  1  0.265200  0.864200  0.918000  1
  O  O2979  1  0.765200  0.635800  0.582000  1
  O  O2980  1  0.765200  0.864200  0.418000  1
  O  O2981  1  0.734800  0.364200  0.918000  1
  O  O2982  1  0.734800  0.135800  0.082000  1
  O  O2983  1  0.234800  0.364200  0.418000  1
  O  O2984  1  0.234800  0.135800  0.582000  1
  O  O2985  1  0.318600  0.602400  0.067700  1
  O  O2986  1  0.318600  0.897600  0.932300  1
  O  O2987  1  0.818600  0.602400  0.567700  1
  O  O2988  1  0.818600  0.897600  0.432300  1
  O  O2989  1  0.681400  0.397600  0.932300  1
  O  O2990  1  0.681400  0.102400  0.067700  1
  O  O2991  1  0.181400  0.397600  0.432300  1
  O  O2992  1  0.181400  0.102400  0.567700  1
  O  O2993  1  0.588400  0.340600  0.156600  1
  O  O2994  1  0.588400  0.159400  0.843400  1
  O  O2995  1  0.088400  0.340600  0.656600  1
  O  O2996  1  0.088400  0.159400  0.343400  1
  O  O2997  1  0.411600  0.659400  0.843400  1
  O  O2998  1  0.411600  0.840600  0.156600  1
  O  O2999  1  0.911600  0.659400  0.343400  1
  O  O3000  1  0.911600  0.840600  0.656600  1
  O  O3001  1  0.546100  0.292600  0.139100  1
  O  O3002  1  0.546100  0.207400  0.860900  1
  O  O3003  1  0.046100  0.292600  0.639100  1
  O  O3004  1  0.046100  0.207400  0.360900  1
  O  O3005  1  0.453900  0.707400  0.860900  1
  O  O3006  1  0.453900  0.792600  0.139100  1
  O  O3007  1  0.953900  0.707400  0.360900  1
  O  O3008  1  0.953900  0.792600  0.639100  1
  O  O3009  1  0.568100  0.308400  0.184100  1
  O  O3010  1  0.568100  0.191600  0.815900  1
  O  O3011  1  0.068100  0.308400  0.684100  1
  O  O3012  1  0.068100  0.191600  0.315900  1
  O  O3013  1  0.431900  0.691600  0.815900  1
  O  O3014  1  0.431900  0.808400  0.184100  1
  O  O3015  1  0.931900  0.691600  0.315900  1
  O  O3016  1  0.931900  0.808400  0.684100  1
  O  O3017  1  0.562600  0.574500  0.191800  1
  O  O3018  1  0.562600  0.925500  0.808200  1
  O  O3019  1  0.062600  0.574500  0.691800  1
  O  O3020  1  0.062600  0.925500  0.308200  1
  O  O3021  1  0.437400  0.425500  0.808200  1
  O  O3022  1  0.437400  0.074500  0.191800  1
  O  O3023  1  0.937400  0.425500  0.308200  1
  O  O3024  1  0.937400  0.074500  0.691800  1
  O  O3025  1  0.526400  0.524300  0.192200  1
  O  O3026  1  0.526400  0.975700  0.807800  1
  O  O3027  1  0.026400  0.524300  0.692200  1
  O  O3028  1  0.026400  0.975700  0.307800  1
  O  O3029  1  0.473600  0.475700  0.807800  1
  O  O3030  1  0.473600  0.024300  0.192200  1
  O  O3031  1  0.973600  0.475700  0.307800  1
  O  O3032  1  0.973600  0.024300  0.692200  1
  O  O3033  1  0.586000  0.533000  0.202300  1
  O  O3034  1  0.586000  0.967000  0.797700  1
  O  O3035  1  0.086000  0.533000  0.702300  1
  O  O3036  1  0.086000  0.967000  0.297700  1
  O  O3037  1  0.414000  0.467000  0.797700  1
  O  O3038  1  0.414000  0.033000  0.202300  1
  O  O3039  1  0.914000  0.467000  0.297700  1
  O  O3040  1  0.914000  0.033000  0.702300  1
  O  O3041  1  0.041500  0.342900  0.124900  1
  O  O3042  1  0.041500  0.157100  0.875100  1
  O  O3043  1  0.541500  0.342900  0.624900  1
  O  O3044  1  0.541500  0.157100  0.375100  1
  O  O3045  1  0.958500  0.657100  0.875100  1
  O  O3046  1  0.958500  0.842900  0.124900  1
  O  O3047  1  0.458500  0.657100  0.375100  1
  O  O3048  1  0.458500  0.842900  0.624900  1
  O  O3049  1  0.049300  0.290500  0.090700  1
  O  O3050  1  0.049300  0.209500  0.909300  1
  O  O3051  1  0.549300  0.290500  0.590700  1
  O  O3052  1  0.549300  0.209500  0.409300  1
  O  O3053  1  0.950700  0.709500  0.909300  1
  O  O3054  1  0.950700  0.790500  0.090700  1
  O  O3055  1  0.450700  0.709500  0.409300  1
  O  O3056  1  0.450700  0.790500  0.590700  1
  O  O3057  1  0.977000  0.314900  0.104600  1
  O  O3058  1  0.977000  0.185100  0.895400  1
  O  O3059  1  0.477000  0.314900  0.604600  1
  O  O3060  1  0.477000  0.185100  0.395400  1
  O  O3061  1  0.023000  0.685100  0.895400  1
  O  O3062  1  0.023000  0.814900  0.104600  1
  O  O3063  1  0.523000  0.685100  0.395400  1
  O  O3064  1  0.523000  0.814900  0.604600  1
  O  O3065  1  0.485600  0.691500  0.218800  1
  O  O3066  1  0.485600  0.808500  0.781200  1
  O  O3067  1  0.985600  0.691500  0.718800  1
  O  O3068  1  0.985600  0.808500  0.281200  1
  O  O3069  1  0.514400  0.308500  0.781200  1
  O  O3070  1  0.514400  0.191500  0.218800  1
  O  O3071  1  0.014400  0.308500  0.281200  1
  O  O3072  1  0.014400  0.191500  0.718800  1
  O  O3073  1  0.462300  0.745200  0.215800  1
  O  O3074  1  0.462300  0.754800  0.784200  1
  O  O3075  1  0.962300  0.745200  0.715800  1
  O  O3076  1  0.962300  0.754800  0.284200  1
  O  O3077  1  0.537700  0.254800  0.784200  1
  O  O3078  1  0.537700  0.245200  0.215800  1
  O  O3079  1  0.037700  0.254800  0.284200  1
  O  O3080  1  0.037700  0.245200  0.715800  1
  O  O3081  1  0.422800  0.719200  0.240800  1
  O  O3082  1  0.422800  0.780800  0.759200  1
  O  O3083  1  0.922800  0.719200  0.740800  1
  O  O3084  1  0.922800  0.780800  0.259200  1
  O  O3085  1  0.577200  0.280800  0.759200  1
  O  O3086  1  0.577200  0.219200  0.240800  1
  O  O3087  1  0.077200  0.280800  0.259200  1
  O  O3088  1  0.077200  0.219200  0.740800  1
  O  O3089  1  0.151700  0.290800  0.029300  1
  O  O3090  1  0.151700  0.209200  0.970700  1
  O  O3091  1  0.651700  0.290800  0.529300  1
  O  O3092  1  0.651700  0.209200  0.470700  1
  O  O3093  1  0.848300  0.709200  0.970700  1
  O  O3094  1  0.848300  0.790800  0.029300  1
  O  O3095  1  0.348300  0.709200  0.470700  1
  O  O3096  1  0.348300  0.790800  0.529300  1
  O  O3097  1  0.181100  0.253900  0.049700  1
  O  O3098  1  0.181100  0.246100  0.950300  1
  O  O3099  1  0.681100  0.253900  0.549700  1
  O  O3100  1  0.681100  0.246100  0.450300  1
  O  O3101  1  0.818900  0.746100  0.950300  1
  O  O3102  1  0.818900  0.753900  0.049700  1
  O  O3103  1  0.318900  0.746100  0.450300  1
  O  O3104  1  0.318900  0.753900  0.549700  1
  O  O3105  1  0.105600  0.252000  0.038000  1
  O  O3106  1  0.105600  0.248000  0.962000  1
  O  O3107  1  0.605600  0.252000  0.538000  1
  O  O3108  1  0.605600  0.248000  0.462000  1
  O  O3109  1  0.894400  0.748000  0.962000  1
  O  O3110  1  0.894400  0.752000  0.038000  1
  O  O3111  1  0.394400  0.748000  0.462000  1
  O  O3112  1  0.394400  0.752000  0.538000  1
  O  O3113  1  0.563400  0.712400  0.105300  1
  O  O3114  1  0.563400  0.787600  0.894700  1
  O  O3115  1  0.063400  0.712400  0.605300  1
  O  O3116  1  0.063400  0.787600  0.394700  1
  O  O3117  1  0.436600  0.287600  0.894700  1
  O  O3118  1  0.436600  0.212400  0.105300  1
  O  O3119  1  0.936600  0.287600  0.394700  1
  O  O3120  1  0.936600  0.212400  0.605300  1
  O  O3121  1  0.482300  0.712000  0.092700  1
  O  O3122  1  0.482300  0.788000  0.907300  1
  O  O3123  1  0.982300  0.712000  0.592700  1
  O  O3124  1  0.982300  0.788000  0.407300  1
  O  O3125  1  0.517700  0.288000  0.907300  1
  O  O3126  1  0.517700  0.212000  0.092700  1
  O  O3127  1  0.017700  0.288000  0.407300  1
  O  O3128  1  0.017700  0.212000  0.592700  1
  O  O3129  1  0.518900  0.665500  0.104400  1
  O  O3130  1  0.518900  0.834500  0.895600  1
  O  O3131  1  0.018900  0.665500  0.604400  1
  O  O3132  1  0.018900  0.834500  0.395600  1
  O  O3133  1  0.481100  0.334500  0.895600  1
  O  O3134  1  0.481100  0.165500  0.104400  1
  O  O3135  1  0.981100  0.334500  0.395600  1
  O  O3136  1  0.981100  0.165500  0.604400  1
  O  O3137  1  0.926200  0.436200  0.096300  1
  O  O3138  1  0.926200  0.063800  0.903700  1
  O  O3139  1  0.426200  0.436200  0.596300  1
  O  O3140  1  0.426200  0.063800  0.403700  1
  O  O3141  1  0.073800  0.563800  0.903700  1
  O  O3142  1  0.073800  0.936200  0.096300  1
  O  O3143  1  0.573800  0.563800  0.403700  1
  O  O3144  1  0.573800  0.936200  0.596300  1
  O  O3145  1  0.930100  0.395300  0.119100  1
  O  O3146  1  0.930100  0.104700  0.880900  1
  O  O3147  1  0.430100  0.395300  0.619100  1
  O  O3148  1  0.430100  0.104700  0.380900  1
  O  O3149  1  0.069900  0.604700  0.880900  1
  O  O3150  1  0.069900  0.895300  0.119100  1
  O  O3151  1  0.569900  0.604700  0.380900  1
  O  O3152  1  0.569900  0.895300  0.619100  1
  O  O3153  1  0.899000  0.449700  0.140800  1
  O  O3154  1  0.899000  0.050300  0.859200  1
  O  O3155  1  0.399000  0.449700  0.640800  1
  O  O3156  1  0.399000  0.050300  0.359200  1
  O  O3157  1  0.101000  0.550300  0.859200  1
  O  O3158  1  0.101000  0.949700  0.140800  1
  O  O3159  1  0.601000  0.550300  0.359200  1
  O  O3160  1  0.601000  0.949700  0.640800  1
  O  O3161  1  0.550000  0.470900  0.100000  1
  O  O3162  1  0.550000  0.029100  0.900000  1
  O  O3163  1  0.050000  0.470900  0.600000  1
  O  O3164  1  0.050000  0.029100  0.400000  1
  O  O3165  1  0.450000  0.529100  0.900000  1
  O  O3166  1  0.450000  0.970900  0.100000  1
  O  O3167  1  0.950000  0.529100  0.400000  1
  O  O3168  1  0.950000  0.970900  0.600000  1
  O  O3169  1  0.485700  0.448800  0.074400  1
  O  O3170  1  0.485700  0.051200  0.925600  1
  O  O3171  1  0.985700  0.448800  0.574400  1
  O  O3172  1  0.985700  0.051200  0.425600  1
  O  O3173  1  0.514300  0.551200  0.925600  1
  O  O3174  1  0.514300  0.948800  0.074400  1
  O  O3175  1  0.014300  0.551200  0.425600  1
  O  O3176  1  0.014300  0.948800  0.574400  1
  O  O3177  1  0.540700  0.410700  0.079800  1
  O  O3178  1  0.540700  0.089300  0.920200  1
  O  O3179  1  0.040700  0.410700  0.579800  1
  O  O3180  1  0.040700  0.089300  0.420200  1
  O  O3181  1  0.459300  0.589300  0.920200  1
  O  O3182  1  0.459300  0.910700  0.079800  1
  O  O3183  1  0.959300  0.589300  0.420200  1
  O  O3184  1  0.959300  0.910700  0.579800  1
  O  O3185  1  0.402300  0.420500  0.042200  1
  O  O3186  1  0.402300  0.079500  0.957800  1
  O  O3187  1  0.902300  0.420500  0.542200  1
  O  O3188  1  0.902300  0.079500  0.457800  1
  O  O3189  1  0.597700  0.579500  0.957800  1
  O  O3190  1  0.597700  0.920500  0.042200  1
  O  O3191  1  0.097700  0.579500  0.457800  1
  O  O3192  1  0.097700  0.920500  0.542200  1
  O  O3193  1  0.660600  0.380700  0.202800  1
  O  O3194  1  0.660600  0.119300  0.797200  1
  O  O3195  1  0.160600  0.380700  0.702800  1
  O  O3196  1  0.160600  0.119300  0.297200  1
  O  O3197  1  0.339400  0.619300  0.797200  1
  O  O3198  1  0.339400  0.880700  0.202800  1
  O  O3199  1  0.839400  0.619300  0.297200  1
  O  O3200  1  0.839400  0.880700  0.702800  1
  O  O3201  1  0.111200  0.323100  0.981200  1
  O  O3202  1  0.111200  0.176900  0.018800  1
  O  O3203  1  0.611200  0.323100  0.481200  1
  O  O3204  1  0.611200  0.176900  0.518800  1
  O  O3205  1  0.888800  0.676900  0.018800  1
  O  O3206  1  0.888800  0.823100  0.981200  1
  O  O3207  1  0.388800  0.676900  0.518800  1
  O  O3208  1  0.388800  0.823100  0.481200  1
  O  O3209  1  0.021500  0.390800  0.003400  1
  O  O3210  1  0.021500  0.109200  0.996600  1
  O  O3211  1  0.521500  0.390800  0.503400  1
  O  O3212  1  0.521500  0.109200  0.496600  1
  O  O3213  1  0.978500  0.609200  0.996600  1
  O  O3214  1  0.978500  0.890800  0.003400  1
  O  O3215  1  0.478500  0.609200  0.496600  1
  O  O3216  1  0.478500  0.890800  0.503400  1
  O  O3217  1  0.964300  0.144600  0.145400  1
  O  O3218  1  0.964300  0.355400  0.854600  1
  O  O3219  1  0.464300  0.144600  0.645400  1
  O  O3220  1  0.464300  0.355400  0.354600  1
  O  O3221  1  0.035700  0.855400  0.854600  1
  O  O3222  1  0.035700  0.644600  0.145400  1
  O  O3223  1  0.535700  0.855400  0.354600  1
  O  O3224  1  0.535700  0.644600  0.645400  1
  O  O3225  1  0.976600  0.640100  0.098200  1
  O  O3226  1  0.976600  0.859900  0.901800  1
  O  O3227  1  0.476600  0.640100  0.598200  1
  O  O3228  1  0.476600  0.859900  0.401800  1
  O  O3229  1  0.023400  0.359900  0.901800  1
  O  O3230  1  0.023400  0.140100  0.098200  1
  O  O3231  1  0.523400  0.359900  0.401800  1
  O  O3232  1  0.523400  0.140100  0.598200  1
  O  O3233  1  0.488900  0.740100  0.160300  1
  O  O3234  1  0.488900  0.759900  0.839700  1
  O  O3235  1  0.988900  0.740100  0.660300  1
  O  O3236  1  0.988900  0.759900  0.339700  1
  O  O3237  1  0.511100  0.259900  0.839700  1
  O  O3238  1  0.511100  0.240100  0.160300  1
  O  O3239  1  0.011100  0.259900  0.339700  1
  O  O3240  1  0.011100  0.240100  0.660300  1
  O  O3241  1  0.386300  0.282600  0.991300  1
  O  O3242  1  0.386300  0.217400  0.008700  1
  O  O3243  1  0.886300  0.282600  0.491300  1
  O  O3244  1  0.886300  0.217400  0.508700  1
  O  O3245  1  0.613700  0.717400  0.008700  1
  O  O3246  1  0.613700  0.782600  0.991300  1
  O  O3247  1  0.113700  0.717400  0.508700  1
  O  O3248  1  0.113700  0.782600  0.491300  1
  O  O3249  1  0.311300  0.214900  0.108400  1
  O  O3250  1  0.311300  0.285100  0.891600  1
  O  O3251  1  0.811300  0.214900  0.608400  1
  O  O3252  1  0.811300  0.285100  0.391600  1
  O  O3253  1  0.688700  0.785100  0.891600  1
  O  O3254  1  0.688700  0.714900  0.108400  1
  O  O3255  1  0.188700  0.785100  0.391600  1
  O  O3256  1  0.188700  0.714900  0.608400  1
  O  O3257  1  0.624300  0.611600  0.244800  1
  O  O3258  1  0.624300  0.888400  0.755200  1
  O  O3259  1  0.124300  0.611600  0.744800  1
  O  O3260  1  0.124300  0.888400  0.255200  1
  O  O3261  1  0.375700  0.388400  0.755200  1
  O  O3262  1  0.375700  0.111600  0.244800  1
  O  O3263  1  0.875700  0.388400  0.255200  1
  O  O3264  1  0.875700  0.111600  0.744800  1
  O  O3265  1  0.134000  0.272000  0.906200  1
  O  O3266  1  0.134000  0.228000  0.093800  1
  O  O3267  1  0.634000  0.272000  0.406200  1
  O  O3268  1  0.634000  0.228000  0.593800  1
  O  O3269  1  0.866000  0.728000  0.093800  1
  O  O3270  1  0.866000  0.772000  0.906200  1
  O  O3271  1  0.366000  0.728000  0.593800  1
  O  O3272  1  0.366000  0.772000  0.406200  1
  O  O3273  1  0.320000  0.777000  0.174100  1
  O  O3274  1  0.320000  0.723000  0.825900  1
  O  O3275  1  0.820000  0.777000  0.674100  1
  O  O3276  1  0.820000  0.723000  0.325900  1
  O  O3277  1  0.680000  0.223000  0.825900  1
  O  O3278  1  0.680000  0.277000  0.174100  1
  O  O3279  1  0.180000  0.223000  0.325900  1
  O  O3280  1  0.180000  0.277000  0.674100  1
  O  O3281  1  0.218300  0.709200  0.124700  1
  O  O3282  1  0.218300  0.790800  0.875300  1
  O  O3283  1  0.718300  0.709200  0.624700  1
  O  O3284  1  0.718300  0.790800  0.375300  1
  O  O3285  1  0.781700  0.290800  0.875300  1
  O  O3286  1  0.781700  0.209200  0.124700  1
  O  O3287  1  0.281700  0.290800  0.375300  1
  O  O3288  1  0.281700  0.209200  0.624700  1
  O  O3289  1  0.825000  0.343900  0.044900  1
  O  O3290  1  0.825000  0.156100  0.955100  1
  O  O3291  1  0.325000  0.343900  0.544900  1
  O  O3292  1  0.325000  0.156100  0.455100  1
  O  O3293  1  0.175000  0.656100  0.955100  1
  O  O3294  1  0.175000  0.843900  0.044900  1
  O  O3295  1  0.675000  0.656100  0.455100  1
  O  O3296  1  0.675000  0.843900  0.544900  1
  O  O3297  1  0.921000  0.672000  0.152000  1
  O  O3298  1  0.921000  0.828000  0.848000  1
  O  O3299  1  0.421000  0.672000  0.652000  1
  O  O3300  1  0.421000  0.828000  0.348000  1
  O  O3301  1  0.079000  0.328000  0.848000  1
  O  O3302  1  0.079000  0.172000  0.152000  1
  O  O3303  1  0.579000  0.328000  0.348000  1
  O  O3304  1  0.579000  0.172000  0.652000  1
  O  O3305  1  0.866600  0.585500  0.129600  1
  O  O3306  1  0.866600  0.914500  0.870400  1
  O  O3307  1  0.366600  0.585500  0.629600  1
  O  O3308  1  0.366600  0.914500  0.370400  1
  O  O3309  1  0.133400  0.414500  0.870400  1
  O  O3310  1  0.133400  0.085500  0.129600  1
  O  O3311  1  0.633400  0.414500  0.370400  1
  O  O3312  1  0.633400  0.085500  0.629600  1
  O  O3313  1  0.116700  0.523700  0.165900  1
  O  O3314  1  0.116700  0.976300  0.834100  1
  O  O3315  1  0.616700  0.523700  0.665900  1
  O  O3316  1  0.616700  0.976300  0.334100  1
  O  O3317  1  0.883300  0.476300  0.834100  1
  O  O3318  1  0.883300  0.023700  0.165900  1
  O  O3319  1  0.383300  0.476300  0.334100  1
  O  O3320  1  0.383300  0.023700  0.665900  1
  O  O3321  1  0.263000  0.209900  0.266600  1
  O  O3322  1  0.263000  0.290100  0.733400  1
  O  O3323  1  0.763000  0.209900  0.766600  1
  O  O3324  1  0.763000  0.290100  0.233400  1
  O  O3325  1  0.737000  0.790100  0.733400  1
  O  O3326  1  0.737000  0.709900  0.266600  1
  O  O3327  1  0.237000  0.790100  0.233400  1
  O  O3328  1  0.237000  0.709900  0.766600  1
  O  O3329  1  0.371700  0.389000  0.980700  1
  O  O3330  1  0.371700  0.111000  0.019300  1
  O  O3331  1  0.871700  0.389000  0.480700  1
  O  O3332  1  0.871700  0.111000  0.519300  1
  O  O3333  1  0.628300  0.611000  0.019300  1
  O  O3334  1  0.628300  0.889000  0.980700  1
  O  O3335  1  0.128300  0.611000  0.519300  1
  O  O3336  1  0.128300  0.889000  0.480700  1
  O  O3337  1  0.256400  0.429700  0.122500  1
  O  O3338  1  0.256400  0.070300  0.877500  1
  O  O3339  1  0.756400  0.429700  0.622500  1
  O  O3340  1  0.756400  0.070300  0.377500  1
  O  O3341  1  0.743600  0.570300  0.877500  1
  O  O3342  1  0.743600  0.929700  0.122500  1
  O  O3343  1  0.243600  0.570300  0.377500  1
  O  O3344  1  0.243600  0.929700  0.622500  1
  O  O3345  1  0.987000  0.340900  0.950400  1
  O  O3346  1  0.987000  0.159100  0.049600  1
  O  O3347  1  0.487000  0.340900  0.450400  1
  O  O3348  1  0.487000  0.159100  0.549600  1
  O  O3349  1  0.013000  0.659100  0.049600  1
  O  O3350  1  0.013000  0.840900  0.950400  1
  O  O3351  1  0.513000  0.659100  0.549600  1
  O  O3352  1  0.513000  0.840900  0.450400  1
  O  O3353  1  0.338000  0.444000  0.942000  1
  O  O3354  1  0.338000  0.056000  0.058000  1
  O  O3355  1  0.838000  0.444000  0.442000  1
  O  O3356  1  0.838000  0.056000  0.558000  1
  O  O3357  1  0.662000  0.556000  0.058000  1
  O  O3358  1  0.662000  0.944000  0.942000  1
  O  O3359  1  0.162000  0.556000  0.558000  1
  O  O3360  1  0.162000  0.944000  0.442000  1
  O  O3361  1  0.216000  0.301400  0.880300  1
  O  O3362  1  0.216000  0.198600  0.119700  1
  O  O3363  1  0.716000  0.301400  0.380300  1
  O  O3364  1  0.716000  0.198600  0.619700  1
  O  O3365  1  0.784000  0.698600  0.119700  1
  O  O3366  1  0.784000  0.801400  0.880300  1
  O  O3367  1  0.284000  0.698600  0.619700  1
  O  O3368  1  0.284000  0.801400  0.380300  1
  O  O3369  1  0.360000  0.546400  0.933500  1
  O  O3370  1  0.360000  0.953600  0.066500  1
  O  O3371  1  0.860000  0.546400  0.433500  1
  O  O3372  1  0.860000  0.953600  0.566500  1
  O  O3373  1  0.640000  0.453600  0.066500  1
  O  O3374  1  0.640000  0.046400  0.933500  1
  O  O3375  1  0.140000  0.453600  0.566500  1
  O  O3376  1  0.140000  0.046400  0.433500  1
  O  O3377  1  0.712100  0.638100  0.235100  1
  O  O3378  1  0.712100  0.861900  0.764900  1
  O  O3379  1  0.212100  0.638100  0.735100  1
  O  O3380  1  0.212100  0.861900  0.264900  1
  O  O3381  1  0.287900  0.361900  0.764900  1
  O  O3382  1  0.287900  0.138100  0.235100  1
  O  O3383  1  0.787900  0.361900  0.264900  1
  O  O3384  1  0.787900  0.138100  0.735100  1
  O  O3385  1  0.222000  0.584600  0.923300  1
  O  O3386  1  0.222000  0.915400  0.076700  1
  O  O3387  1  0.722000  0.584600  0.423300  1
  O  O3388  1  0.722000  0.915400  0.576700  1
  O  O3389  1  0.778000  0.415400  0.076700  1
  O  O3390  1  0.778000  0.084600  0.923300  1
  O  O3391  1  0.278000  0.415400  0.576700  1
  O  O3392  1  0.278000  0.084600  0.423300  1
  O  O3393  1  0.418000  0.573400  0.065500  1
  O  O3394  1  0.418000  0.926600  0.934500  1
  O  O3395  1  0.918000  0.573400  0.565500  1
  O  O3396  1  0.918000  0.926600  0.434500  1
  O  O3397  1  0.582000  0.426600  0.934500  1
  O  O3398  1  0.582000  0.073400  0.065500  1
  O  O3399  1  0.082000  0.426600  0.434500  1
  O  O3400  1  0.082000  0.073400  0.565500  1
  O  O3401  1  0.863000  0.302700  0.085300  1
  O  O3402  1  0.863000  0.197300  0.914700  1
  O  O3403  1  0.363000  0.302700  0.585300  1
  O  O3404  1  0.363000  0.197300  0.414700  1
  O  O3405  1  0.137000  0.697300  0.914700  1
  O  O3406  1  0.137000  0.802700  0.085300  1
  O  O3407  1  0.637000  0.697300  0.414700  1
  O  O3408  1  0.637000  0.802700  0.585300  1
  O  O3409  1  0.212000  0.481000  0.959800  1
  O  O3410  1  0.212000  0.019000  0.040200  1
  O  O3411  1  0.712000  0.481000  0.459800  1
  O  O3412  1  0.712000  0.019000  0.540200  1
  O  O3413  1  0.788000  0.519000  0.040200  1
  O  O3414  1  0.788000  0.981000  0.959800  1
  O  O3415  1  0.288000  0.519000  0.540200  1
  O  O3416  1  0.288000  0.981000  0.459800  1
  O  O3417  1  0.587900  0.310400  0.091500  1
  O  O3418  1  0.587900  0.189600  0.908500  1
  O  O3419  1  0.087900  0.310400  0.591500  1
  O  O3420  1  0.087900  0.189600  0.408500  1
  O  O3421  1  0.412100  0.689600  0.908500  1
  O  O3422  1  0.412100  0.810400  0.091500  1
  O  O3423  1  0.912100  0.689600  0.408500  1
  O  O3424  1  0.912100  0.810400  0.591500  1
  O  O3425  1  0.584500  0.194500  0.005700  1
  O  O3426  1  0.584500  0.305500  0.994300  1
  O  O3427  1  0.084500  0.194500  0.505700  1
  O  O3428  1  0.084500  0.305500  0.494300  1
  O  O3429  1  0.415500  0.805500  0.994300  1
  O  O3430  1  0.415500  0.694500  0.005700  1
  O  O3431  1  0.915500  0.805500  0.494300  1
  O  O3432  1  0.915500  0.694500  0.505700  1
  O  O3433  1  0.335000  0.649000  0.001000  1
  O  O3434  1  0.335000  0.851000  0.999000  1
  O  O3435  1  0.835000  0.649000  0.501000  1
  O  O3436  1  0.835000  0.851000  0.499000  1
  O  O3437  1  0.665000  0.351000  0.999000  1
  O  O3438  1  0.665000  0.149000  0.001000  1
  O  O3439  1  0.165000  0.351000  0.499000  1
  O  O3440  1  0.165000  0.149000  0.501000  1
  O  O3441  1  0.994500  0.230400  0.054800  1
  O  O3442  1  0.994500  0.269600  0.945200  1
  O  O3443  1  0.494500  0.230400  0.554800  1
  O  O3444  1  0.494500  0.269600  0.445200  1
  O  O3445  1  0.005500  0.769600  0.945200  1
  O  O3446  1  0.005500  0.730400  0.054800  1
  O  O3447  1  0.505500  0.769600  0.445200  1
  O  O3448  1  0.505500  0.730400  0.554800  1
  O  O3449  1  0.870000  0.250000  0.000000  1
  O  O3450  1  0.370000  0.250000  0.500000  1
  O  O3451  1  0.130000  0.750000  0.000000  1
  O  O3452  1  0.630000  0.750000  0.500000  1
  O  O3453  1  0.887200  0.318300  0.213400  1
  O  O3454  1  0.887200  0.181700  0.786600  1
  O  O3455  1  0.387200  0.318300  0.713400  1
  O  O3456  1  0.387200  0.181700  0.286600  1
  O  O3457  1  0.112800  0.681700  0.786600  1
  O  O3458  1  0.112800  0.818300  0.213400  1
  O  O3459  1  0.612800  0.681700  0.286600  1
  O  O3460  1  0.612800  0.818300  0.713400  1
  O  O3461  1  0.270000  0.215000  0.954200  1
  O  O3462  1  0.270000  0.285000  0.045800  1
  O  O3463  1  0.770000  0.215000  0.454200  1
  O  O3464  1  0.770000  0.285000  0.545800  1
  O  O3465  1  0.730000  0.785000  0.045800  1
  O  O3466  1  0.730000  0.715000  0.954200  1
  O  O3467  1  0.230000  0.785000  0.545800  1
  O  O3468  1  0.230000  0.715000  0.454200  1
  O  O3469  1  0.225400  0.457600  0.287100  1
  O  O3470  1  0.225400  0.042400  0.712900  1
  O  O3471  1  0.725400  0.457600  0.787100  1
  O  O3472  1  0.725400  0.042400  0.212900  1
  O  O3473  1  0.774600  0.542400  0.712900  1
  O  O3474  1  0.774600  0.957600  0.287100  1
  O  O3475  1  0.274600  0.542400  0.212900  1
  O  O3476  1  0.274600  0.957600  0.787100  1
  O  O3477  1  0.409000  0.432000  0.265400  1
  O  O3478  1  0.409000  0.068000  0.734600  1
  O  O3479  1  0.909000  0.432000  0.765400  1
  O  O3480  1  0.909000  0.068000  0.234600  1
  O  O3481  1  0.591000  0.568000  0.734600  1
  O  O3482  1  0.591000  0.932000  0.265400  1
  O  O3483  1  0.091000  0.568000  0.234600  1
  O  O3484  1  0.091000  0.932000  0.765400  1
  O  O3485  1  0.245200  0.463000  0.345600  1
  O  O3486  1  0.245200  0.037000  0.654400  1
  O  O3487  1  0.745200  0.463000  0.845600  1
  O  O3488  1  0.745200  0.037000  0.154400  1
  O  O3489  1  0.754800  0.537000  0.654400  1
  O  O3490  1  0.754800  0.963000  0.345600  1
  O  O3491  1  0.254800  0.537000  0.154400  1
  O  O3492  1  0.254800  0.963000  0.845600  1
  O  O3493  1  0.318000  0.560000  0.277700  1
  O  O3494  1  0.318000  0.940000  0.722300  1
  O  O3495  1  0.818000  0.560000  0.777700  1
  O  O3496  1  0.818000  0.940000  0.222300  1
  O  O3497  1  0.682000  0.440000  0.722300  1
  O  O3498  1  0.682000  0.060000  0.277700  1
  O  O3499  1  0.182000  0.440000  0.222300  1
  O  O3500  1  0.182000  0.060000  0.777700  1
  O  O3501  1  0.164000  0.395500  0.287900  1
  O  O3502  1  0.164000  0.104500  0.712100  1
  O  O3503  1  0.664000  0.395500  0.787900  1
  O  O3504  1  0.664000  0.104500  0.212100  1
  O  O3505  1  0.836000  0.604500  0.712100  1
  O  O3506  1  0.836000  0.895500  0.287900  1
  O  O3507  1  0.336000  0.604500  0.212100  1
  O  O3508  1  0.336000  0.895500  0.787900  1
  O  O3509  1  0.232000  0.503000  0.258000  1
  O  O3510  1  0.232000  0.997000  0.742000  1
  O  O3511  1  0.732000  0.503000  0.758000  1
  O  O3512  1  0.732000  0.997000  0.242000  1
  O  O3513  1  0.768000  0.497000  0.742000  1
  O  O3514  1  0.768000  0.003000  0.258000  1
  O  O3515  1  0.268000  0.497000  0.242000  1
  O  O3516  1  0.268000  0.003000  0.758000  1
  O  O3517  1  0.164000  0.584100  0.335500  1
  O  O3518  1  0.164000  0.915900  0.664500  1
  O  O3519  1  0.664000  0.584100  0.835500  1
  O  O3520  1  0.664000  0.915900  0.164500  1
  O  O3521  1  0.836000  0.415900  0.664500  1
  O  O3522  1  0.836000  0.084100  0.335500  1
  O  O3523  1  0.336000  0.415900  0.164500  1
  O  O3524  1  0.336000  0.084100  0.835500  1
  O  O3525  1  0.908000  0.538900  0.182300  1
  O  O3526  1  0.908000  0.961100  0.817700  1
  O  O3527  1  0.408000  0.538900  0.682300  1
  O  O3528  1  0.408000  0.961100  0.317700  1
  O  O3529  1  0.092000  0.461100  0.817700  1
  O  O3530  1  0.092000  0.038900  0.182300  1
  O  O3531  1  0.592000  0.461100  0.317700  1
  O  O3532  1  0.592000  0.038900  0.682300  1
  O  O3533  1  0.579300  0.564500  0.137000  1
  O  O3534  1  0.579300  0.935500  0.863000  1
  O  O3535  1  0.079300  0.564500  0.637000  1
  O  O3536  1  0.079300  0.935500  0.363000  1
  O  O3537  1  0.420700  0.435500  0.863000  1
  O  O3538  1  0.420700  0.064500  0.137000  1
  O  O3539  1  0.920700  0.435500  0.363000  1
  O  O3540  1  0.920700  0.064500  0.637000  1
  O  O3541  1  0.910000  0.478000  0.118600  1
  O  O3542  1  0.910000  0.022000  0.881400  1
  O  O3543  1  0.410000  0.478000  0.618600  1
  O  O3544  1  0.410000  0.022000  0.381400  1
  O  O3545  1  0.090000  0.522000  0.881400  1
  O  O3546  1  0.090000  0.978000  0.118600  1
  O  O3547  1  0.590000  0.522000  0.381400  1
  O  O3548  1  0.590000  0.978000  0.618600  1
  O  O3549  1  0.814000  0.464000  0.156000  1
  O  O3550  1  0.814000  0.036000  0.844000  1
  O  O3551  1  0.314000  0.464000  0.656000  1
  O  O3552  1  0.314000  0.036000  0.344000  1
  O  O3553  1  0.186000  0.536000  0.844000  1
  O  O3554  1  0.186000  0.964000  0.156000  1
  O  O3555  1  0.686000  0.536000  0.344000  1
  O  O3556  1  0.686000  0.964000  0.656000  1
  O  O3557  1  0.478600  0.388700  0.051000  1
  O  O3558  1  0.478600  0.111300  0.949000  1
  O  O3559  1  0.978600  0.388700  0.551000  1
  O  O3560  1  0.978600  0.111300  0.449000  1
  O  O3561  1  0.521400  0.611300  0.949000  1
  O  O3562  1  0.521400  0.888700  0.051000  1
  O  O3563  1  0.021400  0.611300  0.449000  1
  O  O3564  1  0.021400  0.888700  0.551000  1
  O  O3565  1  0.406000  0.487000  0.044100  1
  O  O3566  1  0.406000  0.013000  0.955900  1
  O  O3567  1  0.906000  0.487000  0.544100  1
  O  O3568  1  0.906000  0.013000  0.455900  1
  O  O3569  1  0.594000  0.513000  0.955900  1
  O  O3570  1  0.594000  0.987000  0.044100  1
  O  O3571  1  0.094000  0.513000  0.455900  1
  O  O3572  1  0.094000  0.987000  0.544100  1
  O  O3573  1  0.188200  0.422600  0.960600  1
  O  O3574  1  0.188200  0.077400  0.039400  1
  O  O3575  1  0.688200  0.422600  0.460600  1
  O  O3576  1  0.688200  0.077400  0.539400  1
  O  O3577  1  0.811800  0.577400  0.039400  1
  O  O3578  1  0.811800  0.922600  0.960600  1
  O  O3579  1  0.311800  0.577400  0.539400  1
  O  O3580  1  0.311800  0.922600  0.460600  1
  O  O3581  1  0.651800  0.367500  0.102600  1
  O  O3582  1  0.651800  0.132500  0.897400  1
  O  O3583  1  0.151800  0.367500  0.602600  1
  O  O3584  1  0.151800  0.132500  0.397400  1
  O  O3585  1  0.348200  0.632500  0.897400  1
  O  O3586  1  0.348200  0.867500  0.102600  1
  O  O3587  1  0.848200  0.632500  0.397400  1
  O  O3588  1  0.848200  0.867500  0.602600  1
  O  O3589  1  0.621300  0.265200  0.040400  1
  O  O3590  1  0.621300  0.234800  0.959600  1
  O  O3591  1  0.121300  0.265200  0.540400  1
  O  O3592  1  0.121300  0.234800  0.459600  1
  O  O3593  1  0.378700  0.734800  0.959600  1
  O  O3594  1  0.378700  0.765200  0.040400  1
  O  O3595  1  0.878700  0.734800  0.459600  1
  O  O3596  1  0.878700  0.765200  0.540400  1
  O  O3597  1  0.506000  0.155000  0.013800  1
  O  O3598  1  0.506000  0.345000  0.986200  1
  O  O3599  1  0.006000  0.155000  0.513800  1
  O  O3600  1  0.006000  0.345000  0.486200  1
  O  O3601  1  0.494000  0.845000  0.986200  1
  O  O3602  1  0.494000  0.655000  0.013800  1
  O  O3603  1  0.994000  0.845000  0.486200  1
  O  O3604  1  0.994000  0.655000  0.513800  1
  O  O3605  1  0.313000  0.614200  0.944900  1
  O  O3606  1  0.313000  0.885800  0.055100  1
  O  O3607  1  0.813000  0.614200  0.444900  1
  O  O3608  1  0.813000  0.885800  0.555100  1
  O  O3609  1  0.687000  0.385800  0.055100  1
  O  O3610  1  0.687000  0.114200  0.944900  1
  O  O3611  1  0.187000  0.385800  0.555100  1
  O  O3612  1  0.187000  0.114200  0.444900  1
  O  O3613  1  0.905900  0.244800  0.047300  1
  O  O3614  1  0.905900  0.255200  0.952700  1
  O  O3615  1  0.405900  0.244800  0.547300  1
  O  O3616  1  0.405900  0.255200  0.452700  1
  O  O3617  1  0.094100  0.755200  0.952700  1
  O  O3618  1  0.094100  0.744800  0.047300  1
  O  O3619  1  0.594100  0.755200  0.452700  1
  O  O3620  1  0.594100  0.744800  0.547300  1
  O  O3621  1  0.368700  0.235800  0.266000  1
  O  O3622  1  0.368700  0.264200  0.734000  1
  O  O3623  1  0.868700  0.235800  0.766000  1
  O  O3624  1  0.868700  0.264200  0.234000  1
  O  O3625  1  0.631300  0.764200  0.734000  1
  O  O3626  1  0.631300  0.735800  0.266000  1
  O  O3627  1  0.131300  0.764200  0.234000  1
  O  O3628  1  0.131300  0.735800  0.766000  1
  O  O3629  1  0.335700  0.251400  0.064400  1
  O  O3630  1  0.335700  0.248600  0.935600  1
  O  O3631  1  0.835700  0.251400  0.564400  1
  O  O3632  1  0.835700  0.248600  0.435600  1
  O  O3633  1  0.664300  0.748600  0.935600  1
  O  O3634  1  0.664300  0.751400  0.064400  1
  O  O3635  1  0.164300  0.748600  0.435600  1
  O  O3636  1  0.164300  0.751400  0.564400  1
  O  O3637  1  0.500000  0.480000  0.004000  1
  O  O3638  1  0.500000  0.020000  0.996000  1
  O  O3639  1  0.000000  0.480000  0.504000  1
  O  O3640  1  0.000000  0.020000  0.496000  1
  O  O3641  1  0.500000  0.520000  0.996000  1
  O  O3642  1  0.500000  0.980000  0.004000  1
  O  O3643  1  0.000000  0.520000  0.496000  1
  O  O3644  1  0.000000  0.980000  0.504000  1
  O  O3645  1  0.291800  0.576100  0.344700  1.0
  O  O3646  1  0.291800  0.923900  0.655300  1.0
  O  O3647  1  0.791800  0.576100  0.844700  1.0
  O  O3648  1  0.791800  0.923900  0.155300  1.0
  O  O3649  1  0.708200  0.423900  0.655300  1.0
  O  O3650  1  0.708200  0.076100  0.344700  1.0
  O  O3651  1  0.208200  0.423900  0.155300  1.0
  O  O3652  1  0.208200  0.076100  0.844700  1.0
  O  O3653  1  0.366600  0.525600  0.322600  1.0
  O  O3654  1  0.366600  0.974400  0.677400  1.0
  O  O3655  1  0.866600  0.525600  0.822600  1.0
  O  O3656  1  0.866600  0.974400  0.177400  1.0
  O  O3657  1  0.633400  0.474400  0.677400  1.0
  O  O3658  1  0.633400  0.025600  0.322600  1.0
  O  O3659  1  0.133400  0.474400  0.177400  1.0
  O  O3660  1  0.133400  0.025600  0.822600  1.0
  O  O3661  1  0.314900  0.466600  0.326900  1.0
  O  O3662  1  0.314900  0.033400  0.673100  1.0
  O  O3663  1  0.814900  0.466600  0.826900  1.0
  O  O3664  1  0.814900  0.033400  0.173100  1.0
  O  O3665  1  0.685100  0.533400  0.673100  1.0
  O  O3666  1  0.685100  0.966600  0.326900  1.0
  O  O3667  1  0.185100  0.533400  0.173100  1.0
  O  O3668  1  0.185100  0.966600  0.826900  1.0
  O  O3669  1  0.238800  0.516000  0.349700  1.0
  O  O3670  1  0.238800  0.984000  0.650300  1.0
  O  O3671  1  0.738800  0.516000  0.849700  1.0
  O  O3672  1  0.738800  0.984000  0.150300  1.0
  O  O3673  1  0.761200  0.484000  0.650300  1.0
  O  O3674  1  0.761200  0.016000  0.349700  1.0
  O  O3675  1  0.261200  0.484000  0.150300  1.0
  O  O3676  1  0.261200  0.016000  0.849700  1.0
