# generated using pymatgen
data_Si4H140Pd8C112(N19O24)3
_symmetry_space_group_name_H-M   'P 1'
_cell_length_a   18.21270000
_cell_length_b   24.80710000
_cell_length_c   40.55600000
_cell_angle_alpha   96.47200000
_cell_angle_beta   90.00000000
_cell_angle_gamma   90.00000000
_symmetry_Int_Tables_number   1
_chemical_formula_structural   Si4H140Pd8C112(N19O24)3
_chemical_formula_sum   'Si16 H560 Pd32 C448 N228 O288'
_cell_volume   18206.60019162
_cell_formula_units_Z   4
loop_
 _symmetry_equiv_pos_site_id
 _symmetry_equiv_pos_as_xyz
  1  'x, y, z'
loop_
 _atom_site_type_symbol
 _atom_site_label
 _atom_site_symmetry_multiplicity
 _atom_site_fract_x
 _atom_site_fract_y
 _atom_site_fract_z
 _atom_site_occupancy
  Si  Si1  1  0.057800  0.109310  0.902440  1
  Si  Si2  1  0.557800  0.390690  0.597560  1
  Si  Si3  1  0.942200  0.890690  0.097560  1
  Si  Si4  1  0.442200  0.609310  0.402440  1
  Si  Si5  1  0.083400  0.213940  0.949750  1
  Si  Si6  1  0.583400  0.286060  0.550250  1
  Si  Si7  1  0.916600  0.786060  0.050250  1
  Si  Si8  1  0.416600  0.713940  0.449750  1
  Si  Si9  1  0.937500  0.191900  0.987490  1
  Si  Si10  1  0.437500  0.308100  0.512510  1
  Si  Si11  1  0.062500  0.808100  0.012510  1
  Si  Si12  1  0.562500  0.691900  0.487490  1
  Si  Si13  1  0.916600  0.086600  0.943460  1
  Si  Si14  1  0.416600  0.413400  0.556540  1
  Si  Si15  1  0.083400  0.913400  0.056540  1
  Si  Si16  1  0.583400  0.586600  0.443460  1
  H  H17  1  0.812100  0.259800  0.713800  1
  H  H18  1  0.312100  0.240200  0.786200  1
  H  H19  1  0.187900  0.740200  0.286200  1
  H  H20  1  0.687900  0.759800  0.213800  1
  H  H21  1  0.874200  0.248400  0.685900  1
  H  H22  1  0.374200  0.251600  0.814100  1
  H  H23  1  0.125800  0.751600  0.314100  1
  H  H24  1  0.625800  0.748400  0.185900  1
  H  H25  1  0.871700  0.160600  0.689900  1
  H  H26  1  0.371700  0.339400  0.810100  1
  H  H27  1  0.128300  0.839400  0.310100  1
  H  H28  1  0.628300  0.660600  0.189900  1
  H  H29  1  0.788900  0.180600  0.685600  1
  H  H30  1  0.288900  0.319400  0.814400  1
  H  H31  1  0.211100  0.819400  0.314400  1
  H  H32  1  0.711100  0.680600  0.185600  1
  H  H33  1  0.433700  0.167600  0.834400  1
  H  H34  1  0.933700  0.332400  0.665600  1
  H  H35  1  0.566300  0.832400  0.165600  1
  H  H36  1  0.066300  0.667600  0.334400  1
  H  H37  1  0.497500  0.198800  0.817000  1
  H  H38  1  0.997500  0.301200  0.683000  1
  H  H39  1  0.502500  0.801200  0.183000  1
  H  H40  1  0.002500  0.698800  0.317000  1
  H  H41  1  0.497100  0.080500  0.819900  1
  H  H42  1  0.997100  0.419500  0.680100  1
  H  H43  1  0.502900  0.919500  0.180100  1
  H  H44  1  0.002900  0.580500  0.319900  1
  H  H45  1  0.487400  0.108700  0.786100  1
  H  H46  1  0.987400  0.391300  0.713900  1
  H  H47  1  0.512600  0.891300  0.213900  1
  H  H48  1  0.012600  0.608700  0.286100  1
  H  H49  1  0.435000  0.487000  0.898700  1
  H  H50  1  0.935000  0.013000  0.601300  1
  H  H51  1  0.565000  0.513000  0.101300  1
  H  H52  1  0.065000  0.987000  0.398700  1
  H  H53  1  0.392100  0.493100  0.864700  1
  H  H54  1  0.892100  0.006900  0.635300  1
  H  H55  1  0.607900  0.506900  0.135300  1
  H  H56  1  0.107900  0.993100  0.364700  1
  H  H57  1  0.281700  0.509500  0.893900  1
  H  H58  1  0.781700  0.990500  0.606100  1
  H  H59  1  0.718300  0.490500  0.106100  1
  H  H60  1  0.218300  0.009500  0.393900  1
  H  H61  1  0.342300  0.551900  0.910000  1
  H  H62  1  0.842300  0.948100  0.590000  1
  H  H63  1  0.657700  0.448100  0.090000  1
  H  H64  1  0.157700  0.051900  0.410000  1
  H  H65  1  0.916600  0.277000  0.742100  1
  H  H66  1  0.416600  0.223000  0.757900  1
  H  H67  1  0.083400  0.723000  0.257900  1
  H  H68  1  0.583400  0.777000  0.242100  1
  H  H69  1  0.957100  0.231000  0.724200  1
  H  H70  1  0.457100  0.269000  0.775800  1
  H  H71  1  0.042900  0.769000  0.275800  1
  H  H72  1  0.542900  0.731000  0.224200  1
  H  H73  1  0.814100  0.125000  0.730000  1
  H  H74  1  0.314100  0.375000  0.770000  1
  H  H75  1  0.185900  0.875000  0.270000  1
  H  H76  1  0.685900  0.625000  0.230000  1
  H  H77  1  0.764300  0.171600  0.738000  1
  H  H78  1  0.264300  0.328400  0.762000  1
  H  H79  1  0.235700  0.828400  0.262000  1
  H  H80  1  0.735700  0.671600  0.238000  1
  H  H81  1  0.511500  0.152100  0.876300  1
  H  H82  1  0.011500  0.347900  0.623700  1
  H  H83  1  0.488500  0.847900  0.123700  1
  H  H84  1  0.988500  0.652100  0.376300  1
  H  H85  1  0.527000  0.209200  0.871700  1
  H  H86  1  0.027000  0.290800  0.628300  1
  H  H87  1  0.473000  0.790800  0.128300  1
  H  H88  1  0.973000  0.709200  0.371700  1
  H  H89  1  0.603100  0.140900  0.790300  1
  H  H90  1  0.103100  0.359100  0.709700  1
  H  H91  1  0.396900  0.859100  0.209700  1
  H  H92  1  0.896900  0.640900  0.290300  1
  H  H93  1  0.614000  0.086900  0.801100  1
  H  H94  1  0.114000  0.413100  0.698900  1
  H  H95  1  0.386000  0.913100  0.198900  1
  H  H96  1  0.886000  0.586900  0.301100  1
  H  H97  1  0.913200  0.470800  0.879900  1
  H  H98  1  0.413200  0.029200  0.620100  1
  H  H99  1  0.086800  0.529200  0.120100  1
  H  H100  1  0.586800  0.970800  0.379900  1
  H  H101  1  0.992700  0.481200  0.877800  1
  H  H102  1  0.492700  0.018800  0.622200  1
  H  H103  1  0.007300  0.518800  0.122200  1
  H  H104  1  0.507300  0.981200  0.377800  1
  H  H105  1  0.896200  0.478300  0.822700  1
  H  H106  1  0.396200  0.021700  0.677300  1
  H  H107  1  0.103800  0.521700  0.177300  1
  H  H108  1  0.603800  0.978300  0.322700  1
  H  H109  1  0.940300  0.531900  0.838500  1
  H  H110  1  0.440300  0.968100  0.661500  1
  H  H111  1  0.059700  0.468100  0.161500  1
  H  H112  1  0.559700  0.031900  0.338500  1
  H  H113  1  0.054800  0.480800  0.830900  1
  H  H114  1  0.554800  0.019200  0.669100  1
  H  H115  1  0.945200  0.519200  0.169100  1
  H  H116  1  0.445200  0.980800  0.330900  1
  H  H117  1  0.016900  0.485700  0.795600  1
  H  H118  1  0.516900  0.014300  0.704400  1
  H  H119  1  0.983100  0.514300  0.204400  1
  H  H120  1  0.483100  0.985700  0.295600  1
  H  H121  1  0.052000  0.394500  0.805000  1
  H  H122  1  0.552000  0.105500  0.695000  1
  H  H123  1  0.948000  0.605500  0.195000  1
  H  H124  1  0.448000  0.894500  0.305000  1
  H  H125  1  0.975000  0.398500  0.793800  1
  H  H126  1  0.475000  0.101500  0.706200  1
  H  H127  1  0.025000  0.601500  0.206200  1
  H  H128  1  0.525000  0.898500  0.293800  1
  H  H129  1  0.473900  0.930700  0.955500  1
  H  H130  1  0.973900  0.569300  0.544500  1
  H  H131  1  0.526100  0.069300  0.044500  1
  H  H132  1  0.026100  0.430700  0.455500  1
  H  H133  1  0.485000  0.982100  0.941300  1
  H  H134  1  0.985000  0.517900  0.558700  1
  H  H135  1  0.515000  0.017900  0.058700  1
  H  H136  1  0.015000  0.482100  0.441300  1
  H  H137  1  0.402100  0.896400  0.917300  1
  H  H138  1  0.902100  0.603600  0.582700  1
  H  H139  1  0.597900  0.103600  0.082700  1
  H  H140  1  0.097900  0.396400  0.417300  1
  H  H141  1  0.385600  0.959400  0.915700  1
  H  H142  1  0.885600  0.540600  0.584300  1
  H  H143  1  0.614400  0.040600  0.084300  1
  H  H144  1  0.114400  0.459400  0.415700  1
  H  H145  1  0.454600  0.963200  0.874100  1
  H  H146  1  0.954600  0.536800  0.625900  1
  H  H147  1  0.545400  0.036800  0.125900  1
  H  H148  1  0.045400  0.463200  0.374100  1
  H  H149  1  0.411500  0.906900  0.866500  1
  H  H150  1  0.911500  0.593100  0.633500  1
  H  H151  1  0.588500  0.093100  0.133500  1
  H  H152  1  0.088500  0.406900  0.366500  1
  H  H153  1  0.549200  0.903400  0.859300  1
  H  H154  1  0.049200  0.596600  0.640700  1
  H  H155  1  0.450800  0.096600  0.140700  1
  H  H156  1  0.950800  0.403400  0.359300  1
  H  H157  1  0.517100  0.858600  0.875600  1
  H  H158  1  0.017100  0.641400  0.624400  1
  H  H159  1  0.482900  0.141400  0.124400  1
  H  H160  1  0.982900  0.358600  0.375600  1
  H  H161  1  0.732900  0.446900  0.964800  1
  H  H162  1  0.232900  0.053100  0.535200  1
  H  H163  1  0.267100  0.553100  0.035200  1
  H  H164  1  0.767100  0.946900  0.464800  1
  H  H165  1  0.738900  0.451100  0.928800  1
  H  H166  1  0.238900  0.048900  0.571200  1
  H  H167  1  0.261100  0.548900  0.071200  1
  H  H168  1  0.761100  0.951100  0.428800  1
  H  H169  1  0.622200  0.470700  0.966400  1
  H  H170  1  0.122200  0.029300  0.533600  1
  H  H171  1  0.377800  0.529300  0.033600  1
  H  H172  1  0.877800  0.970700  0.466400  1
  H  H173  1  0.631300  0.482100  0.928900  1
  H  H174  1  0.131300  0.017900  0.571100  1
  H  H175  1  0.368700  0.517900  0.071100  1
  H  H176  1  0.868700  0.982100  0.428900  1
  H  H177  1  0.564600  0.420900  0.911600  1
  H  H178  1  0.064600  0.079100  0.588400  1
  H  H179  1  0.435400  0.579100  0.088400  1
  H  H180  1  0.935400  0.920900  0.411600  1
  H  H181  1  0.534200  0.429400  0.949000  1
  H  H182  1  0.034200  0.070600  0.551000  1
  H  H183  1  0.465800  0.570600  0.051000  1
  H  H184  1  0.965800  0.929400  0.449000  1
  H  H185  1  0.582300  0.335300  0.925400  1
  H  H186  1  0.082300  0.164700  0.574600  1
  H  H187  1  0.417700  0.664700  0.074600  1
  H  H188  1  0.917700  0.835300  0.425400  1
  H  H189  1  0.591500  0.352400  0.961100  1
  H  H190  1  0.091500  0.147600  0.538900  1
  H  H191  1  0.408500  0.647600  0.038900  1
  H  H192  1  0.908500  0.852400  0.461100  1
  H  H193  1  0.235600  0.021100  0.711200  1
  H  H194  1  0.735600  0.478900  0.788800  1
  H  H195  1  0.764400  0.978900  0.288800  1
  H  H196  1  0.264400  0.521100  0.211200  1
  H  H197  1  0.296500  0.982900  0.714700  1
  H  H198  1  0.796500  0.517100  0.785300  1
  H  H199  1  0.703500  0.017100  0.285300  1
  H  H200  1  0.203500  0.482900  0.214700  1
  H  H201  1  0.277100  0.942800  0.667800  1
  H  H202  1  0.777100  0.557200  0.832200  1
  H  H203  1  0.722900  0.057200  0.332200  1
  H  H204  1  0.222900  0.442800  0.167800  1
  H  H205  1  0.212500  0.984900  0.663800  1
  H  H206  1  0.712500  0.515100  0.836200  1
  H  H207  1  0.787500  0.015100  0.336200  1
  H  H208  1  0.287500  0.484900  0.163800  1
  H  H209  1  0.202800  0.878100  0.670000  1
  H  H210  1  0.702800  0.621900  0.830000  1
  H  H211  1  0.797200  0.121900  0.330000  1
  H  H212  1  0.297200  0.378100  0.170000  1
  H  H213  1  0.141600  0.917400  0.657800  1
  H  H214  1  0.641600  0.582600  0.842200  1
  H  H215  1  0.858400  0.082600  0.342200  1
  H  H216  1  0.358400  0.417400  0.157800  1
  H  H217  1  0.130000  0.873400  0.709700  1
  H  H218  1  0.630000  0.626600  0.790300  1
  H  H219  1  0.870000  0.126600  0.290300  1
  H  H220  1  0.370000  0.373400  0.209700  1
  H  H221  1  0.089300  0.923100  0.704400  1
  H  H222  1  0.589300  0.576900  0.795600  1
  H  H223  1  0.910700  0.076900  0.295600  1
  H  H224  1  0.410700  0.423100  0.204400  1
  H  H225  1  0.402800  0.402300  0.879600  1
  H  H226  1  0.902800  0.097700  0.620400  1
  H  H227  1  0.597200  0.597700  0.120400  1
  H  H228  1  0.097200  0.902300  0.379600  1
  H  H229  1  0.328700  0.417700  0.869500  1
  H  H230  1  0.828700  0.082300  0.630500  1
  H  H231  1  0.671300  0.582300  0.130500  1
  H  H232  1  0.171300  0.917700  0.369500  1
  H  H233  1  0.282400  0.500800  0.947800  1
  H  H234  1  0.782400  0.999200  0.552200  1
  H  H235  1  0.717600  0.499200  0.052200  1
  H  H236  1  0.217600  0.000800  0.447800  1
  H  H237  1  0.363100  0.500700  0.950100  1
  H  H238  1  0.863100  0.999300  0.549900  1
  H  H239  1  0.636900  0.499300  0.049900  1
  H  H240  1  0.136900  0.000700  0.450100  1
  H  H241  1  0.792100  0.401100  0.171900  1
  H  H242  1  0.292100  0.098900  0.328100  1
  H  H243  1  0.207900  0.598900  0.828100  1
  H  H244  1  0.707900  0.901100  0.671900  1
  H  H245  1  0.783800  0.418600  0.138500  1
  H  H246  1  0.283800  0.081400  0.361500  1
  H  H247  1  0.216200  0.581400  0.861500  1
  H  H248  1  0.716200  0.918600  0.638500  1
  H  H249  1  0.664000  0.400300  0.136000  1
  H  H250  1  0.164000  0.099700  0.364000  1
  H  H251  1  0.336000  0.599700  0.864000  1
  H  H252  1  0.836000  0.900300  0.636000  1
  H  H253  1  0.677800  0.431000  0.172800  1
  H  H254  1  0.177800  0.069000  0.327200  1
  H  H255  1  0.322200  0.569000  0.827200  1
  H  H256  1  0.822200  0.931000  0.672800  1
  H  H257  1  0.626900  0.344300  0.183700  1
  H  H258  1  0.126900  0.155700  0.316300  1
  H  H259  1  0.373100  0.655700  0.816300  1
  H  H260  1  0.873100  0.844300  0.683700  1
  H  H261  1  0.713700  0.337300  0.189400  1
  H  H262  1  0.213700  0.162700  0.310600  1
  H  H263  1  0.286300  0.662700  0.810600  1
  H  H264  1  0.786300  0.837300  0.689400  1
  H  H265  1  0.644900  0.304700  0.128800  1
  H  H266  1  0.144900  0.195300  0.371200  1
  H  H267  1  0.355100  0.695300  0.871200  1
  H  H268  1  0.855100  0.804700  0.628800  1
  H  H269  1  0.673100  0.266100  0.151600  1
  H  H270  1  0.173100  0.233900  0.348400  1
  H  H271  1  0.326900  0.733900  0.848400  1
  H  H272  1  0.826900  0.766100  0.651600  1
  H  H273  1  0.180500  0.845800  0.775800  1
  H  H274  1  0.680500  0.654200  0.724200  1
  H  H275  1  0.819500  0.154200  0.224200  1
  H  H276  1  0.319500  0.345800  0.275800  1
  H  H277  1  0.053300  0.975700  0.784600  1
  H  H278  1  0.553300  0.524300  0.715400  1
  H  H279  1  0.946700  0.024300  0.215400  1
  H  H280  1  0.446700  0.475700  0.284600  1
  H  H281  1  0.010300  0.843500  0.831600  1
  H  H282  1  0.510300  0.656500  0.668400  1
  H  H283  1  0.989700  0.156500  0.168400  1
  H  H284  1  0.489700  0.343500  0.331600  1
  H  H285  1  0.658100  0.814000  0.908200  1
  H  H286  1  0.158100  0.686000  0.591800  1
  H  H287  1  0.341900  0.186000  0.091800  1
  H  H288  1  0.841900  0.314000  0.408200  1
  H  H289  1  0.757200  0.771100  0.887500  1
  H  H290  1  0.257200  0.728900  0.612500  1
  H  H291  1  0.242800  0.228900  0.112500  1
  H  H292  1  0.742800  0.271100  0.387500  1
  H  H293  1  0.852300  0.824800  0.858500  1
  H  H294  1  0.352300  0.675200  0.641500  1
  H  H295  1  0.147700  0.175200  0.141500  1
  H  H296  1  0.647700  0.324800  0.358500  1
  H  H297  1  0.710500  0.954500  0.881500  1
  H  H298  1  0.210500  0.545500  0.618500  1
  H  H299  1  0.289500  0.045500  0.118500  1
  H  H300  1  0.789500  0.454500  0.381500  1
  H  H301  1  0.754800  0.195100  0.811000  1
  H  H302  1  0.254800  0.304900  0.689000  1
  H  H303  1  0.245200  0.804900  0.189000  1
  H  H304  1  0.745200  0.695100  0.311000  1
  H  H305  1  0.915200  0.088900  0.799000  1
  H  H306  1  0.415200  0.411100  0.701000  1
  H  H307  1  0.084800  0.911100  0.201000  1
  H  H308  1  0.584800  0.588900  0.299000  1
  H  H309  1  0.743300  0.061800  0.854500  1
  H  H310  1  0.243300  0.438200  0.645500  1
  H  H311  1  0.256700  0.938200  0.145500  1
  H  H312  1  0.756700  0.561800  0.354500  1
  H  H313  1  0.626000  0.876300  0.978700  1
  H  H314  1  0.126000  0.623700  0.521300  1
  H  H315  1  0.374000  0.123700  0.021300  1
  H  H316  1  0.874000  0.376300  0.478700  1
  H  H317  1  0.687100  0.906100  0.030300  1
  H  H318  1  0.187100  0.593900  0.469700  1
  H  H319  1  0.312900  0.093900  0.969700  1
  H  H320  1  0.812900  0.406100  0.530300  1
  H  H321  1  0.715100  0.998100  0.042100  1
  H  H322  1  0.215100  0.501900  0.457900  1
  H  H323  1  0.284900  0.001900  0.957900  1
  H  H324  1  0.784900  0.498100  0.542100  1
  H  H325  1  0.651400  0.018400  0.948500  1
  H  H326  1  0.151400  0.481600  0.551500  1
  H  H327  1  0.348600  0.981600  0.051500  1
  H  H328  1  0.848600  0.518400  0.448500  1
  H  H329  1  0.680000  0.263500  0.881300  1
  H  H330  1  0.180000  0.236500  0.618700  1
  H  H331  1  0.320000  0.736500  0.118700  1
  H  H332  1  0.820000  0.763500  0.381300  1
  H  H333  1  0.675200  0.123700  0.918300  1
  H  H334  1  0.175200  0.376300  0.581700  1
  H  H335  1  0.324800  0.876300  0.081700  1
  H  H336  1  0.824800  0.623700  0.418300  1
  H  H337  1  0.732600  0.261900  0.975800  1
  H  H338  1  0.232600  0.238100  0.524200  1
  H  H339  1  0.267400  0.738100  0.024200  1
  H  H340  1  0.767400  0.761900  0.475800  1
  H  H341  1  0.861100  0.217900  0.146300  1
  H  H342  1  0.361100  0.282100  0.353700  1
  H  H343  1  0.138900  0.782100  0.853700  1
  H  H344  1  0.638900  0.717900  0.646300  1
  H  H345  1  0.834300  0.095100  0.076400  1
  H  H346  1  0.334300  0.404900  0.423600  1
  H  H347  1  0.165700  0.904900  0.923600  1
  H  H348  1  0.665700  0.595100  0.576400  1
  H  H349  1  0.751000  0.248400  0.069100  1
  H  H350  1  0.251000  0.251600  0.430900  1
  H  H351  1  0.249000  0.751600  0.930900  1
  H  H352  1  0.749000  0.748400  0.569100  1
  H  H353  1  0.929600  0.355100  0.165400  1
  H  H354  1  0.429600  0.144900  0.334600  1
  H  H355  1  0.070400  0.644900  0.834600  1
  H  H356  1  0.570400  0.855100  0.665400  1
  H  H357  1  0.074700  0.382400  0.101600  1
  H  H358  1  0.574700  0.117600  0.398400  1
  H  H359  1  0.925300  0.617600  0.898400  1
  H  H360  1  0.425300  0.882400  0.601600  1
  H  H361  1  0.874100  0.337200  0.070100  1
  H  H362  1  0.374100  0.162800  0.429900  1
  H  H363  1  0.125900  0.662800  0.929900  1
  H  H364  1  0.625900  0.837200  0.570100  1
  H  H365  1  0.825900  0.360500  0.882700  1
  H  H366  1  0.325900  0.139500  0.617300  1
  H  H367  1  0.174100  0.639500  0.117300  1
  H  H368  1  0.674100  0.860500  0.382700  1
  H  H369  1  0.841900  0.350000  0.978900  1
  H  H370  1  0.341900  0.150000  0.521100  1
  H  H371  1  0.158100  0.650000  0.021100  1
  H  H372  1  0.658100  0.850000  0.478900  1
  H  H373  1  0.023700  0.374600  0.924300  1
  H  H374  1  0.523700  0.125400  0.575700  1
  H  H375  1  0.976300  0.625400  0.075700  1
  H  H376  1  0.476300  0.874600  0.424300  1
  H  H377  1  0.375600  0.401600  0.997200  1
  H  H378  1  0.875600  0.098400  0.502800  1
  H  H379  1  0.624400  0.598400  0.002800  1
  H  H380  1  0.124400  0.901600  0.497200  1
  H  H381  1  0.334700  0.407700  0.049200  1
  H  H382  1  0.834700  0.092300  0.450800  1
  H  H383  1  0.665300  0.592300  0.950800  1
  H  H384  1  0.165300  0.907700  0.549200  1
  H  H385  1  0.203400  0.380700  0.057100  1
  H  H386  1  0.703400  0.119300  0.442900  1
  H  H387  1  0.796600  0.619300  0.942900  1
  H  H388  1  0.296600  0.880700  0.557100  1
  H  H389  1  0.182300  0.383400  0.958200  1
  H  H390  1  0.682300  0.116600  0.541800  1
  H  H391  1  0.817700  0.616600  0.041800  1
  H  H392  1  0.317700  0.883400  0.458200  1
  H  H393  1  0.441900  0.228000  0.935900  1
  H  H394  1  0.941900  0.272000  0.564100  1
  H  H395  1  0.558100  0.772000  0.064100  1
  H  H396  1  0.058100  0.728000  0.435900  1
  H  H397  1  0.366200  0.178100  0.897900  1
  H  H398  1  0.866200  0.321900  0.602100  1
  H  H399  1  0.633800  0.821900  0.102100  1
  H  H400  1  0.133800  0.678100  0.397900  1
  H  H401  1  0.251400  0.314900  0.887500  1
  H  H402  1  0.751400  0.185100  0.612500  1
  H  H403  1  0.748600  0.685100  0.112500  1
  H  H404  1  0.248600  0.814900  0.387500  1
  H  H405  1  0.902900  0.297500  0.810000  1
  H  H406  1  0.402900  0.202500  0.690000  1
  H  H407  1  0.097100  0.702500  0.190000  1
  H  H408  1  0.597100  0.797500  0.310000  1
  H  H409  1  0.087000  0.300400  0.859900  1
  H  H410  1  0.587000  0.199600  0.640100  1
  H  H411  1  0.913000  0.699600  0.140100  1
  H  H412  1  0.413000  0.800400  0.359900  1
  H  H413  1  0.028800  0.170100  0.797500  1
  H  H414  1  0.528800  0.329900  0.702500  1
  H  H415  1  0.971200  0.829900  0.202500  1
  H  H416  1  0.471200  0.670100  0.297500  1
  H  H417  1  0.329000  0.947900  0.781200  1
  H  H418  1  0.829000  0.552100  0.718800  1
  H  H419  1  0.671000  0.052100  0.218800  1
  H  H420  1  0.171000  0.447900  0.281200  1
  H  H421  1  0.355300  0.080000  0.840800  1
  H  H422  1  0.855300  0.420000  0.659200  1
  H  H423  1  0.644700  0.920000  0.159200  1
  H  H424  1  0.144700  0.580000  0.340800  1
  H  H425  1  0.169600  0.055100  0.789000  1
  H  H426  1  0.669600  0.444900  0.711000  1
  H  H427  1  0.830400  0.944900  0.211000  1
  H  H428  1  0.330400  0.555100  0.289000  1
  H  H429  1  0.421900  0.324100  0.947300  1
  H  H430  1  0.921900  0.175900  0.552700  1
  H  H431  1  0.578100  0.675900  0.052700  1
  H  H432  1  0.078100  0.824100  0.447300  1
  H  H433  1  0.962300  0.016000  0.811000  1
  H  H434  1  0.462300  0.484000  0.689000  1
  H  H435  1  0.037700  0.984000  0.189000  1
  H  H436  1  0.537700  0.516000  0.311000  1
  H  H437  1  0.754200  0.215600  0.013600  1
  H  H438  1  0.254200  0.284400  0.486400  1
  H  H439  1  0.245800  0.784400  0.986400  1
  H  H440  1  0.745800  0.715600  0.513600  1
  H  H441  1  0.905000  0.354600  0.020300  1
  H  H442  1  0.405000  0.145400  0.479700  1
  H  H443  1  0.095000  0.645400  0.979700  1
  H  H444  1  0.595000  0.854600  0.520300  1
  H  H445  1  0.126600  0.129800  0.810700  1
  H  H446  1  0.626600  0.370200  0.689300  1
  H  H447  1  0.873400  0.870200  0.189300  1
  H  H448  1  0.373400  0.629800  0.310700  1
  H  H449  1  0.987200  0.146200  0.872300  1
  H  H450  1  0.487200  0.353800  0.627700  1
  H  H451  1  0.012800  0.853800  0.127700  1
  H  H452  1  0.512800  0.646200  0.372300  1
  H  H453  1  0.036800  0.259700  0.916300  1
  H  H454  1  0.536800  0.240300  0.583700  1
  H  H455  1  0.963200  0.740300  0.083700  1
  H  H456  1  0.463200  0.759700  0.416300  1
  H  H457  1  0.876700  0.236300  0.958500  1
  H  H458  1  0.376700  0.263700  0.541500  1
  H  H459  1  0.123300  0.763700  0.041500  1
  H  H460  1  0.623300  0.736300  0.458500  1
  H  H461  1  0.868800  0.121600  0.904300  1
  H  H462  1  0.368800  0.378400  0.595700  1
  H  H463  1  0.131200  0.878400  0.095700  1
  H  H464  1  0.631200  0.621600  0.404300  1
  H  H465  1  0.068700  0.003100  0.863400  1
  H  H466  1  0.568700  0.496900  0.636600  1
  H  H467  1  0.931300  0.996900  0.136600  1
  H  H468  1  0.431300  0.503100  0.363400  1
  H  H469  1  0.166700  0.939900  0.851700  1
  H  H470  1  0.666700  0.560100  0.648300  1
  H  H471  1  0.833300  0.060100  0.148300  1
  H  H472  1  0.333300  0.439900  0.351700  1
  H  H473  1  0.281600  0.963000  0.867800  1
  H  H474  1  0.781600  0.537000  0.632200  1
  H  H475  1  0.718400  0.037000  0.132200  1
  H  H476  1  0.218400  0.463000  0.367800  1
  H  H477  1  0.303500  0.034500  0.906200  1
  H  H478  1  0.803500  0.465500  0.593800  1
  H  H479  1  0.696500  0.965500  0.093800  1
  H  H480  1  0.196500  0.534500  0.406200  1
  H  H481  1  0.215600  0.102400  0.914600  1
  H  H482  1  0.715600  0.397600  0.585400  1
  H  H483  1  0.784400  0.897600  0.085400  1
  H  H484  1  0.284400  0.602400  0.414600  1
  H  H485  1  0.241500  0.209300  0.947400  1
  H  H486  1  0.741500  0.290700  0.552600  1
  H  H487  1  0.758500  0.790700  0.052600  1
  H  H488  1  0.258500  0.709300  0.447400  1
  H  H489  1  0.336300  0.219800  0.985000  1
  H  H490  1  0.836300  0.280200  0.515000  1
  H  H491  1  0.663700  0.780200  0.015000  1
  H  H492  1  0.163700  0.719800  0.485000  1
  H  H493  1  0.306400  0.226300  0.040000  1
  H  H494  1  0.806400  0.273700  0.460000  1
  H  H495  1  0.693600  0.773700  0.960000  1
  H  H496  1  0.193600  0.726300  0.540000  1
  H  H497  1  0.192800  0.258800  0.055800  1
  H  H498  1  0.692800  0.241200  0.444200  1
  H  H499  1  0.807200  0.741200  0.944200  1
  H  H500  1  0.307200  0.758800  0.555800  1
  H  H501  1  0.097800  0.237100  0.019500  1
  H  H502  1  0.597800  0.262900  0.480500  1
  H  H503  1  0.902200  0.762900  0.980500  1
  H  H504  1  0.402200  0.737100  0.519500  1
  H  H505  1  0.942000  0.252100  0.046700  1
  H  H506  1  0.442000  0.247900  0.453300  1
  H  H507  1  0.058000  0.747900  0.953300  1
  H  H508  1  0.558000  0.752100  0.546700  1
  H  H509  1  0.988600  0.243100  0.099100  1
  H  H510  1  0.488600  0.256900  0.400900  1
  H  H511  1  0.011400  0.756900  0.900900  1
  H  H512  1  0.511400  0.743100  0.599100  1
  H  H513  1  0.022900  0.159600  0.112000  1
  H  H514  1  0.522900  0.340400  0.388000  1
  H  H515  1  0.977100  0.840400  0.888000  1
  H  H516  1  0.477100  0.659600  0.612000  1
  H  H517  1  0.013200  0.083700  0.073400  1
  H  H518  1  0.513200  0.416300  0.426600  1
  H  H519  1  0.986800  0.916300  0.926600  1
  H  H520  1  0.486800  0.583700  0.573400  1
  H  H521  1  0.966600  0.092600  0.021400  1
  H  H522  1  0.466600  0.407400  0.478600  1
  H  H523  1  0.033400  0.907400  0.978600  1
  H  H524  1  0.533400  0.592600  0.521400  1
  H  H525  1  0.928700  0.051200  0.010600  1
  H  H526  1  0.428700  0.448800  0.489400  1
  H  H527  1  0.071300  0.948800  0.989400  1
  H  H528  1  0.571300  0.551200  0.510600  1
  H  H529  1  0.899400  0.978900  0.036600  1
  H  H530  1  0.399400  0.521100  0.463400  1
  H  H531  1  0.100600  0.021100  0.963400  1
  H  H532  1  0.600600  0.478900  0.536600  1
  H  H533  1  0.863500  0.899200  0.003100  1
  H  H534  1  0.363500  0.600800  0.496900  1
  H  H535  1  0.136500  0.100800  0.996900  1
  H  H536  1  0.636500  0.399200  0.503100  1
  H  H537  1  0.825400  0.910600  0.949900  1
  H  H538  1  0.325400  0.589400  0.550100  1
  H  H539  1  0.174600  0.089400  0.050100  1
  H  H540  1  0.674600  0.410600  0.449900  1
  H  H541  1  0.847700  0.987300  0.927900  1
  H  H542  1  0.347700  0.512700  0.572100  1
  H  H543  1  0.152300  0.012700  0.072100  1
  H  H544  1  0.652300  0.487300  0.427900  1
  H  H545  1  0.957000  0.527000  0.837900  1
  H  H546  1  0.457000  0.973000  0.662100  1
  H  H547  1  0.043000  0.473000  0.162100  1
  H  H548  1  0.543000  0.027000  0.337900  1
  H  H549  1  0.035900  0.506000  0.846900  1
  H  H550  1  0.535900  0.994000  0.653100  1
  H  H551  1  0.964100  0.494000  0.153100  1
  H  H552  1  0.464100  0.006000  0.346900  1
  H  H553  1  0.038500  0.481500  0.792700  1
  H  H554  1  0.538500  0.018500  0.707300  1
  H  H555  1  0.961500  0.518500  0.207300  1
  H  H556  1  0.461500  0.981500  0.292700  1
  H  H557  1  0.950900  0.471000  0.790300  1
  H  H558  1  0.450900  0.029000  0.709700  1
  H  H559  1  0.049100  0.529000  0.209700  1
  H  H560  1  0.549100  0.971000  0.290300  1
  H  H561  1  0.669100  0.448600  0.988100  1
  H  H562  1  0.169100  0.051400  0.511900  1
  H  H563  1  0.330900  0.551400  0.011900  1
  H  H564  1  0.830900  0.948600  0.488100  1
  H  H565  1  0.636500  0.485400  0.961900  1
  H  H566  1  0.136500  0.014600  0.538100  1
  H  H567  1  0.363500  0.514600  0.038100  1
  H  H568  1  0.863500  0.985400  0.461900  1
  H  H569  1  0.552000  0.433300  0.949400  1
  H  H570  1  0.052000  0.066700  0.550600  1
  H  H571  1  0.448000  0.566700  0.050600  1
  H  H572  1  0.948000  0.933300  0.449400  1
  H  H573  1  0.572400  0.407600  0.982600  1
  H  H574  1  0.072400  0.092400  0.517400  1
  H  H575  1  0.427600  0.592400  0.017400  1
  H  H576  1  0.927600  0.907600  0.482600  1
  Pd  Pd577  1  0.882050  0.194100  0.767840  1
  Pd  Pd578  1  0.382050  0.305900  0.732160  1
  Pd  Pd579  1  0.117950  0.805900  0.232160  1
  Pd  Pd580  1  0.617950  0.694100  0.267840  1
  Pd  Pd581  1  0.635320  0.154580  0.850160  1
  Pd  Pd582  1  0.135320  0.345420  0.649840  1
  Pd  Pd583  1  0.364680  0.845420  0.149840  1
  Pd  Pd584  1  0.864680  0.654580  0.350160  1
  Pd  Pd585  1  0.971590  0.385520  0.854260  1
  Pd  Pd586  1  0.471590  0.114480  0.645740  1
  Pd  Pd587  1  0.028410  0.614480  0.145740  1
  Pd  Pd588  1  0.528410  0.885520  0.354260  1
  Pd  Pd589  1  0.581100  0.918240  0.917710  1
  Pd  Pd590  1  0.081100  0.581760  0.582290  1
  Pd  Pd591  1  0.418900  0.081760  0.082290  1
  Pd  Pd592  1  0.918900  0.418240  0.417710  1
  Pd  Pd593  1  0.713640  0.353660  0.935340  1
  Pd  Pd594  1  0.213640  0.146340  0.564660  1
  Pd  Pd595  1  0.286360  0.646340  0.064660  1
  Pd  Pd596  1  0.786360  0.853660  0.435340  1
  Pd  Pd597  1  0.188520  0.950060  0.745250  1
  Pd  Pd598  1  0.688520  0.549940  0.754750  1
  Pd  Pd599  1  0.811480  0.049940  0.254750  1
  Pd  Pd600  1  0.311480  0.450060  0.245250  1
  Pd  Pd601  1  0.324520  0.408170  0.928420  1
  Pd  Pd602  1  0.824520  0.091830  0.571580  1
  Pd  Pd603  1  0.675480  0.591830  0.071580  1
  Pd  Pd604  1  0.175480  0.908170  0.428420  1
  Pd  Pd605  1  0.790190  0.318560  0.131770  1
  Pd  Pd606  1  0.290190  0.181440  0.368230  1
  Pd  Pd607  1  0.209810  0.681440  0.868230  1
  Pd  Pd608  1  0.709810  0.818560  0.631770  1
  C  C609  1  0.854400  0.236400  0.706600  1
  C  C610  1  0.354400  0.263600  0.793400  1
  C  C611  1  0.145600  0.763600  0.293400  1
  C  C612  1  0.645600  0.736400  0.206600  1
  C  C613  1  0.831600  0.183100  0.700700  1
  C  C614  1  0.331600  0.316900  0.799300  1
  C  C615  1  0.168400  0.816900  0.299300  1
  C  C616  1  0.668400  0.683100  0.200700  1
  C  C617  1  0.487100  0.167900  0.829700  1
  C  C618  1  0.987100  0.332100  0.670300  1
  C  C619  1  0.512900  0.832100  0.170300  1
  C  C620  1  0.012900  0.667900  0.329700  1
  C  C621  1  0.510200  0.112400  0.808500  1
  C  C622  1  0.010200  0.387600  0.691500  1
  C  C623  1  0.489800  0.887600  0.191500  1
  C  C624  1  0.989800  0.612400  0.308500  1
  C  C625  1  0.387200  0.481700  0.887200  1
  C  C626  1  0.887200  0.018300  0.612800  1
  C  C627  1  0.612800  0.518300  0.112800  1
  C  C628  1  0.112800  0.981700  0.387200  1
  C  C629  1  0.329000  0.513100  0.906000  1
  C  C630  1  0.829000  0.986900  0.594000  1
  C  C631  1  0.671000  0.486900  0.094000  1
  C  C632  1  0.171000  0.013100  0.406000  1
  C  C633  1  0.941200  0.491700  0.834600  1
  C  C634  1  0.441200  0.008300  0.665400  1
  C  C635  1  0.058800  0.508300  0.165400  1
  C  C636  1  0.558800  0.991700  0.334600  1
  C  C637  1  0.011000  0.470100  0.816900  1
  C  C638  1  0.511000  0.029900  0.683100  1
  C  C639  1  0.989000  0.529900  0.183100  1
  C  C640  1  0.489000  0.970100  0.316900  1
  C  C641  1  0.424300  0.931200  0.912700  1
  C  C642  1  0.924300  0.568800  0.587300  1
  C  C643  1  0.575700  0.068800  0.087300  1
  C  C644  1  0.075700  0.431200  0.412700  1
  C  C645  1  0.448400  0.926600  0.881200  1
  C  C646  1  0.948400  0.573400  0.618800  1
  C  C647  1  0.551600  0.073400  0.118800  1
  C  C648  1  0.051600  0.426600  0.381200  1
  C  C649  1  0.633700  0.453200  0.943800  1
  C  C650  1  0.133700  0.046800  0.556200  1
  C  C651  1  0.366300  0.546800  0.056200  1
  C  C652  1  0.866300  0.953200  0.443800  1
  C  C653  1  0.578000  0.419300  0.935100  1
  C  C654  1  0.078000  0.080700  0.564900  1
  C  C655  1  0.422000  0.580700  0.064900  1
  C  C656  1  0.922000  0.919300  0.435100  1
  C  C657  1  0.231000  0.957500  0.677800  1
  C  C658  1  0.731000  0.542500  0.822200  1
  C  C659  1  0.769000  0.042500  0.322200  1
  C  C660  1  0.269000  0.457500  0.177800  1
  C  C661  1  0.176600  0.912700  0.675900  1
  C  C662  1  0.676600  0.587300  0.824100  1
  C  C663  1  0.823400  0.087300  0.324100  1
  C  C664  1  0.323400  0.412700  0.175900  1
  C  C665  1  0.690700  0.398900  0.157200  1
  C  C666  1  0.190700  0.101100  0.342800  1
  C  C667  1  0.309300  0.601100  0.842800  1
  C  C668  1  0.809300  0.898900  0.657200  1
  C  C669  1  0.675600  0.343200  0.172800  1
  C  C670  1  0.175600  0.156800  0.327200  1
  C  C671  1  0.324400  0.656800  0.827200  1
  C  C672  1  0.824400  0.843200  0.672800  1
  C  C673  1  0.138300  0.864200  0.785200  1
  C  C674  1  0.638300  0.635800  0.714800  1
  C  C675  1  0.861700  0.135800  0.214800  1
  C  C676  1  0.361700  0.364200  0.285200  1
  C  C677  1  0.064500  0.940400  0.790100  1
  C  C678  1  0.564500  0.559600  0.709900  1
  C  C679  1  0.935500  0.059600  0.209900  1
  C  C680  1  0.435500  0.440400  0.290100  1
  C  C681  1  0.016000  0.915900  0.811400  1
  C  C682  1  0.516000  0.584100  0.688600  1
  C  C683  1  0.984000  0.084100  0.188600  1
  C  C684  1  0.484000  0.415900  0.311400  1
  C  C685  1  0.039400  0.862500  0.817200  1
  C  C686  1  0.539400  0.637500  0.682800  1
  C  C687  1  0.960600  0.137500  0.182800  1
  C  C688  1  0.460600  0.362500  0.317200  1
  C  C689  1  0.693100  0.835000  0.897800  1
  C  C690  1  0.193100  0.665000  0.602200  1
  C  C691  1  0.306900  0.165000  0.102200  1
  C  C692  1  0.806900  0.335000  0.397800  1
  C  C693  1  0.751100  0.808700  0.885700  1
  C  C694  1  0.251100  0.691300  0.614300  1
  C  C695  1  0.248900  0.191300  0.114300  1
  C  C696  1  0.748900  0.308700  0.385700  1
  C  C697  1  0.809100  0.840600  0.868600  1
  C  C698  1  0.309100  0.659400  0.631400  1
  C  C699  1  0.190900  0.159400  0.131400  1
  C  C700  1  0.690900  0.340600  0.368600  1
  C  C701  1  0.791400  0.895700  0.869200  1
  C  C702  1  0.291400  0.604300  0.630800  1
  C  C703  1  0.208600  0.104300  0.130800  1
  C  C704  1  0.708600  0.395700  0.369200  1
  C  C705  1  0.722800  0.917600  0.882900  1
  C  C706  1  0.222800  0.582400  0.617100  1
  C  C707  1  0.277200  0.082400  0.117100  1
  C  C708  1  0.777200  0.417600  0.382900  1
  C  C709  1  0.775300  0.161300  0.815100  1
  C  C710  1  0.275300  0.338700  0.684900  1
  C  C711  1  0.224700  0.838700  0.184900  1
  C  C712  1  0.724700  0.661300  0.315100  1
  C  C713  1  0.868800  0.099600  0.808200  1
  C  C714  1  0.368800  0.400400  0.691800  1
  C  C715  1  0.131200  0.900400  0.191800  1
  C  C716  1  0.631200  0.599600  0.308200  1
  C  C717  1  0.834500  0.066300  0.828500  1
  C  C718  1  0.334500  0.433700  0.671500  1
  C  C719  1  0.165500  0.933700  0.171500  1
  C  C720  1  0.665500  0.566300  0.328500  1
  C  C721  1  0.769300  0.084000  0.840900  1
  C  C722  1  0.269300  0.416000  0.659100  1
  C  C723  1  0.230700  0.916000  0.159100  1
  C  C724  1  0.730700  0.584000  0.340900  1
  C  C725  1  0.841900  0.930000  0.852200  1
  C  C726  1  0.341900  0.570000  0.647800  1
  C  C727  1  0.158100  0.070000  0.147800  1
  C  C728  1  0.658100  0.430000  0.352200  1
  C  C729  1  0.949300  0.940800  0.825800  1
  C  C730  1  0.449300  0.559200  0.674200  1
  C  C731  1  0.050700  0.059200  0.174200  1
  C  C732  1  0.550700  0.440800  0.325800  1
  C  C733  1  0.862000  0.011500  0.833600  1
  C  C734  1  0.362000  0.488500  0.666400  1
  C  C735  1  0.138000  0.988500  0.166400  1
  C  C736  1  0.638000  0.511500  0.333600  1
  C  C737  1  0.642800  0.912700  0.983100  1
  C  C738  1  0.142800  0.587300  0.516900  1
  C  C739  1  0.357200  0.087300  0.016900  1
  C  C740  1  0.857200  0.412700  0.483100  1
  C  C741  1  0.677500  0.930900  0.014600  1
  C  C742  1  0.177500  0.569100  0.485400  1
  C  C743  1  0.322500  0.069100  0.985400  1
  C  C744  1  0.822500  0.430900  0.514600  1
  C  C745  1  0.695800  0.983900  0.021200  1
  C  C746  1  0.195800  0.516100  0.478800  1
  C  C747  1  0.304200  0.016100  0.978800  1
  C  C748  1  0.804200  0.483900  0.521200  1
  C  C749  1  0.685200  0.016900  0.996000  1
  C  C750  1  0.185200  0.483100  0.504000  1
  C  C751  1  0.314800  0.983100  0.004000  1
  C  C752  1  0.814800  0.516900  0.496000  1
  C  C753  1  0.655800  0.995700  0.965800  1
  C  C754  1  0.155800  0.504300  0.534200  1
  C  C755  1  0.344200  0.004300  0.034200  1
  C  C756  1  0.844200  0.495700  0.465800  1
  C  C757  1  0.686200  0.243600  0.899800  1
  C  C758  1  0.186200  0.256400  0.600200  1
  C  C759  1  0.313800  0.756400  0.100200  1
  C  C760  1  0.813800  0.743600  0.399800  1
  C  C761  1  0.682900  0.161800  0.921100  1
  C  C762  1  0.182900  0.338200  0.578900  1
  C  C763  1  0.317100  0.838200  0.078900  1
  C  C764  1  0.817100  0.661800  0.421100  1
  C  C765  1  0.703900  0.187000  0.951400  1
  C  C766  1  0.203900  0.313000  0.548600  1
  C  C767  1  0.296100  0.813000  0.048600  1
  C  C768  1  0.796100  0.687000  0.451400  1
  C  C769  1  0.717200  0.243500  0.955100  1
  C  C770  1  0.217200  0.256500  0.544900  1
  C  C771  1  0.282800  0.756500  0.044900  1
  C  C772  1  0.782800  0.743500  0.455100  1
  C  C773  1  0.835900  0.203600  0.126700  1
  C  C774  1  0.335900  0.296400  0.373300  1
  C  C775  1  0.164100  0.796400  0.873300  1
  C  C776  1  0.664100  0.703600  0.626700  1
  C  C777  1  0.820800  0.130600  0.085700  1
  C  C778  1  0.320800  0.369400  0.414300  1
  C  C779  1  0.179200  0.869400  0.914300  1
  C  C780  1  0.679200  0.630600  0.585700  1
  C  C781  1  0.780500  0.166800  0.068700  1
  C  C782  1  0.280500  0.333200  0.431300  1
  C  C783  1  0.219500  0.833200  0.931300  1
  C  C784  1  0.719500  0.666800  0.568700  1
  C  C785  1  0.774400  0.223300  0.081600  1
  C  C786  1  0.274400  0.276700  0.418400  1
  C  C787  1  0.225600  0.776700  0.918400  1
  C  C788  1  0.725600  0.723300  0.581600  1
  C  C789  1  0.708600  0.076700  0.001100  1
  C  C790  1  0.208600  0.423300  0.498900  1
  C  C791  1  0.291400  0.923300  0.998900  1
  C  C792  1  0.791400  0.576700  0.501100  1
  C  C793  1  0.751200  0.146800  0.035800  1
  C  C794  1  0.251200  0.353200  0.464200  1
  C  C795  1  0.248800  0.853200  0.964200  1
  C  C796  1  0.748800  0.646800  0.535800  1
  C  C797  1  0.719300  0.156500  0.982100  1
  C  C798  1  0.219300  0.343500  0.517900  1
  C  C799  1  0.280700  0.843500  0.017900  1
  C  C800  1  0.780700  0.656500  0.482100  1
  C  C801  1  0.943100  0.354800  0.142800  1
  C  C802  1  0.443100  0.145200  0.357200  1
  C  C803  1  0.056900  0.645200  0.857200  1
  C  C804  1  0.556900  0.854800  0.642800  1
  C  C805  1  0.025900  0.371900  0.106200  1
  C  C806  1  0.525900  0.128100  0.393800  1
  C  C807  1  0.974100  0.628100  0.893800  1
  C  C808  1  0.474100  0.871900  0.606200  1
  C  C809  1  0.980500  0.358100  0.078700  1
  C  C810  1  0.480500  0.141900  0.421300  1
  C  C811  1  0.019500  0.641900  0.921300  1
  C  C812  1  0.519500  0.858100  0.578700  1
  C  C813  1  0.910000  0.343000  0.087100  1
  C  C814  1  0.410000  0.157000  0.412900  1
  C  C815  1  0.090000  0.657000  0.912900  1
  C  C816  1  0.590000  0.843000  0.587100  1
  C  C817  1  0.855600  0.361500  0.902000  1
  C  C818  1  0.355600  0.138500  0.598000  1
  C  C819  1  0.144400  0.638500  0.098000  1
  C  C820  1  0.644400  0.861500  0.402000  1
  C  C821  1  0.864900  0.354700  0.958400  1
  C  C822  1  0.364900  0.145300  0.541600  1
  C  C823  1  0.135100  0.645300  0.041600  1
  C  C824  1  0.635100  0.854700  0.458400  1
  C  C825  1  0.940500  0.361300  0.956900  1
  C  C826  1  0.440500  0.138700  0.543100  1
  C  C827  1  0.059500  0.638700  0.043100  1
  C  C828  1  0.559500  0.861300  0.456900  1
  C  C829  1  0.972200  0.369400  0.925900  1
  C  C830  1  0.472200  0.130600  0.574100  1
  C  C831  1  0.027800  0.630600  0.074100  1
  C  C832  1  0.527800  0.869400  0.425900  1
  C  C833  1  0.324100  0.399200  0.000500  1
  C  C834  1  0.824100  0.100800  0.499500  1
  C  C835  1  0.675900  0.600800  0.999500  1
  C  C836  1  0.175900  0.899200  0.500500  1
  C  C837  1  0.302100  0.399700  0.031100  1
  C  C838  1  0.802100  0.100300  0.468900  1
  C  C839  1  0.697900  0.600300  0.968900  1
  C  C840  1  0.197900  0.899700  0.531100  1
  C  C841  1  0.223100  0.386800  0.036100  1
  C  C842  1  0.723100  0.113200  0.463900  1
  C  C843  1  0.776900  0.613200  0.963900  1
  C  C844  1  0.276900  0.886800  0.536100  1
  C  C845  1  0.179700  0.384600  0.006700  1
  C  C846  1  0.679700  0.115400  0.493300  1
  C  C847  1  0.820300  0.615400  0.993300  1
  C  C848  1  0.320300  0.884600  0.506700  1
  C  C849  1  0.212200  0.387600  0.977500  1
  C  C850  1  0.712200  0.112400  0.522500  1
  C  C851  1  0.787800  0.612400  0.022500  1
  C  C852  1  0.287800  0.887600  0.477500  1
  C  C853  1  0.009600  0.364600  0.045200  1
  C  C854  1  0.509600  0.135400  0.454800  1
  C  C855  1  0.990400  0.635400  0.954800  1
  C  C856  1  0.490400  0.864600  0.545200  1
  C  C857  1  0.099700  0.373700  0.011800  1
  C  C858  1  0.599700  0.126300  0.488200  1
  C  C859  1  0.900300  0.626300  0.988200  1
  C  C860  1  0.400300  0.873700  0.511800  1
  C  C861  1  0.986700  0.363200  0.986500  1
  C  C862  1  0.486700  0.136800  0.513500  1
  C  C863  1  0.013300  0.636800  0.013500  1
  C  C864  1  0.513300  0.863200  0.486500  1
  C  C865  1  0.403200  0.245100  0.925200  1
  C  C866  1  0.903200  0.254900  0.574800  1
  C  C867  1  0.596800  0.754900  0.074800  1
  C  C868  1  0.096800  0.745100  0.425200  1
  C  C869  1  0.358600  0.216000  0.903300  1
  C  C870  1  0.858600  0.284000  0.596700  1
  C  C871  1  0.641400  0.784000  0.096700  1
  C  C872  1  0.141400  0.716000  0.403300  1
  C  C873  1  0.301600  0.241900  0.888600  1
  C  C874  1  0.801600  0.258100  0.611400  1
  C  C875  1  0.698400  0.758100  0.111400  1
  C  C876  1  0.198400  0.741900  0.388600  1
  C  C877  1  0.291400  0.297500  0.896900  1
  C  C878  1  0.791400  0.202500  0.603100  1
  C  C879  1  0.708600  0.702500  0.103100  1
  C  C880  1  0.208600  0.797500  0.396900  1
  C  C881  1  0.945900  0.279000  0.815700  1
  C  C882  1  0.445900  0.221000  0.684300  1
  C  C883  1  0.054100  0.721000  0.184300  1
  C  C884  1  0.554100  0.779000  0.315700  1
  C  C885  1  0.053400  0.281700  0.844800  1
  C  C886  1  0.553400  0.218300  0.655200  1
  C  C887  1  0.946600  0.718300  0.155200  1
  C  C888  1  0.446600  0.781700  0.344800  1
  C  C889  1  0.070200  0.228800  0.830700  1
  C  C890  1  0.570200  0.271200  0.669300  1
  C  C891  1  0.929800  0.771200  0.169300  1
  C  C892  1  0.429800  0.728800  0.330700  1
  C  C893  1  0.019200  0.205200  0.808600  1
  C  C894  1  0.519200  0.294800  0.691400  1
  C  C895  1  0.980800  0.794800  0.191400  1
  C  C896  1  0.480800  0.705200  0.308600  1
  C  C897  1  0.310000  0.981800  0.790700  1
  C  C898  1  0.810000  0.518200  0.709300  1
  C  C899  1  0.690000  0.018200  0.209300  1
  C  C900  1  0.190000  0.481800  0.290700  1
  C  C901  1  0.326200  0.058000  0.825200  1
  C  C902  1  0.826200  0.442000  0.674800  1
  C  C903  1  0.673800  0.942000  0.174800  1
  C  C904  1  0.173800  0.558000  0.325200  1
  C  C905  1  0.256400  0.079300  0.816700  1
  C  C906  1  0.756400  0.420700  0.683300  1
  C  C907  1  0.743600  0.920700  0.183300  1
  C  C908  1  0.243600  0.579300  0.316700  1
  C  C909  1  0.217700  0.044700  0.794800  1
  C  C910  1  0.717700  0.455300  0.705200  1
  C  C911  1  0.782300  0.955300  0.205200  1
  C  C912  1  0.282300  0.544700  0.294800  1
  C  C913  1  0.251500  0.210200  0.864500  1
  C  C914  1  0.751500  0.289800  0.635500  1
  C  C915  1  0.748500  0.789800  0.135500  1
  C  C916  1  0.248500  0.710200  0.364500  1
  C  C917  1  0.230100  0.132700  0.830800  1
  C  C918  1  0.730100  0.367300  0.669200  1
  C  C919  1  0.769900  0.867300  0.169200  1
  C  C920  1  0.269900  0.632700  0.330800  1
  C  C921  1  0.141900  0.202700  0.837100  1
  C  C922  1  0.641900  0.297300  0.662900  1
  C  C923  1  0.858100  0.797300  0.162900  1
  C  C924  1  0.358100  0.702700  0.337100  1
  C  C925  1  0.390800  0.302800  0.932200  1
  C  C926  1  0.890800  0.197200  0.567800  1
  C  C927  1  0.609200  0.697200  0.067800  1
  C  C928  1  0.109200  0.802800  0.432200  1
  C  C929  1  0.930100  0.993200  0.821600  1
  C  C930  1  0.430100  0.506800  0.678400  1
  C  C931  1  0.069900  0.006800  0.178400  1
  C  C932  1  0.569900  0.493200  0.321600  1
  C  C933  1  0.742800  0.178000  0.010400  1
  C  C934  1  0.242800  0.322000  0.489600  1
  C  C935  1  0.257200  0.822000  0.989600  1
  C  C936  1  0.757200  0.678000  0.510400  1
  C  C937  1  0.956100  0.359700  0.017200  1
  C  C938  1  0.456100  0.140300  0.482800  1
  C  C939  1  0.043900  0.640300  0.982800  1
  C  C940  1  0.543900  0.859700  0.517200  1
  C  C941  1  0.160300  0.151800  0.824100  1
  C  C942  1  0.660300  0.348200  0.675900  1
  C  C943  1  0.839700  0.848200  0.175900  1
  C  C944  1  0.339700  0.651800  0.324100  1
  C  C945  1  0.133300  0.060900  0.891700  1
  C  C946  1  0.633300  0.439100  0.608300  1
  C  C947  1  0.866700  0.939100  0.108300  1
  C  C948  1  0.366700  0.560900  0.391700  1
  C  C949  1  0.116900  0.010900  0.871600  1
  C  C950  1  0.616900  0.489100  0.628400  1
  C  C951  1  0.883100  0.989100  0.128400  1
  C  C952  1  0.383100  0.510900  0.371600  1
  C  C953  1  0.175600  0.973900  0.864400  1
  C  C954  1  0.675600  0.526100  0.635600  1
  C  C955  1  0.824400  0.026100  0.135600  1
  C  C956  1  0.324400  0.473900  0.364400  1
  C  C957  1  0.242200  0.986400  0.875200  1
  C  C958  1  0.742200  0.513600  0.624800  1
  C  C959  1  0.757800  0.013600  0.124800  1
  C  C960  1  0.257800  0.486400  0.375200  1
  C  C961  1  0.256700  0.029900  0.895900  1
  C  C962  1  0.756700  0.470100  0.604100  1
  C  C963  1  0.743300  0.970100  0.104100  1
  C  C964  1  0.243300  0.529900  0.395900  1
  C  C965  1  0.203000  0.068800  0.902300  1
  C  C966  1  0.703000  0.431200  0.597700  1
  C  C967  1  0.797000  0.931200  0.097700  1
  C  C968  1  0.297000  0.568800  0.402300  1
  C  C969  1  0.158900  0.223000  0.978800  1
  C  C970  1  0.658900  0.277000  0.521200  1
  C  C971  1  0.841100  0.777000  0.021200  1
  C  C972  1  0.341100  0.723000  0.478800  1
  C  C973  1  0.230100  0.217300  0.970300  1
  C  C974  1  0.730100  0.282700  0.529700  1
  C  C975  1  0.769900  0.782700  0.029700  1
  C  C976  1  0.269900  0.717300  0.470300  1
  C  C977  1  0.286700  0.222100  0.992200  1
  C  C978  1  0.786700  0.277900  0.507800  1
  C  C979  1  0.713300  0.777900  0.007800  1
  C  C980  1  0.213300  0.722100  0.492200  1
  C  C981  1  0.269500  0.230200  0.023900  1
  C  C982  1  0.769500  0.269800  0.476100  1
  C  C983  1  0.730500  0.769800  0.976100  1
  C  C984  1  0.230500  0.730200  0.523900  1
  C  C985  1  0.202100  0.243400  0.033600  1
  C  C986  1  0.702100  0.256600  0.466400  1
  C  C987  1  0.797900  0.756600  0.966400  1
  C  C988  1  0.297900  0.743400  0.533600  1
  C  C989  1  0.146900  0.234800  0.011600  1
  C  C990  1  0.646900  0.265200  0.488400  1
  C  C991  1  0.853100  0.765200  0.988400  1
  C  C992  1  0.353100  0.734800  0.511600  1
  C  C993  1  0.949500  0.173900  0.028900  1
  C  C994  1  0.449500  0.326100  0.471100  1
  C  C995  1  0.050500  0.826100  0.971100  1
  C  C996  1  0.550500  0.673900  0.528900  1
  C  C997  1  0.956500  0.217300  0.052100  1
  C  C998  1  0.456500  0.282700  0.447900  1
  C  C999  1  0.043500  0.782700  0.947900  1
  C  C1000  1  0.543500  0.717300  0.552100  1
  C  C1001  1  0.984000  0.212200  0.083100  1
  C  C1002  1  0.484000  0.287800  0.416900  1
  C  C1003  1  0.016000  0.787800  0.916900  1
  C  C1004  1  0.516000  0.712200  0.583100  1
  C  C1005  1  0.004100  0.163300  0.090500  1
  C  C1006  1  0.504100  0.336700  0.409500  1
  C  C1007  1  0.995900  0.836700  0.909500  1
  C  C1008  1  0.495900  0.663300  0.590500  1
  C  C1009  1  0.998300  0.118300  0.067800  1
  C  C1010  1  0.498300  0.381700  0.432200  1
  C  C1011  1  0.001700  0.881700  0.932200  1
  C  C1012  1  0.501700  0.618300  0.567800  1
  C  C1013  1  0.971000  0.123700  0.037300  1
  C  C1014  1  0.471000  0.376300  0.462700  1
  C  C1015  1  0.029000  0.876300  0.962700  1
  C  C1016  1  0.529000  0.623700  0.537300  1
  C  C1017  1  0.896600  0.028200  0.965500  1
  C  C1018  1  0.396600  0.471800  0.534500  1
  C  C1019  1  0.103400  0.971800  0.034500  1
  C  C1020  1  0.603400  0.528200  0.465500  1
  C  C1021  1  0.907400  0.021200  0.997400  1
  C  C1022  1  0.407400  0.478800  0.502600  1
  C  C1023  1  0.092600  0.978800  0.002600  1
  C  C1024  1  0.592600  0.521200  0.497400  1
  C  C1025  1  0.892700  0.978100  0.013300  1
  C  C1026  1  0.392700  0.521900  0.486700  1
  C  C1027  1  0.107300  0.021900  0.986700  1
  C  C1028  1  0.607300  0.478100  0.513300  1
  C  C1029  1  0.867700  0.933200  0.994500  1
  C  C1030  1  0.367700  0.566800  0.505500  1
  C  C1031  1  0.132300  0.066800  0.005500  1
  C  C1032  1  0.632300  0.433200  0.494500  1
  C  C1033  1  0.849100  0.939500  0.963200  1
  C  C1034  1  0.349100  0.560500  0.536800  1
  C  C1035  1  0.150900  0.060500  0.036800  1
  C  C1036  1  0.650900  0.439500  0.463200  1
  C  C1037  1  0.863100  0.985300  0.950100  1
  C  C1038  1  0.363100  0.514700  0.549900  1
  C  C1039  1  0.136900  0.014700  0.049900  1
  C  C1040  1  0.636900  0.485300  0.450100  1
  C  C1041  1  0.986000  0.493800  0.839200  1
  C  C1042  1  0.486000  0.006200  0.660800  1
  C  C1043  1  0.014000  0.506200  0.160800  1
  C  C1044  1  0.514000  0.993800  0.339200  1
  C  C1045  1  0.995000  0.467000  0.803800  1
  C  C1046  1  0.495000  0.033000  0.696200  1
  C  C1047  1  0.005000  0.533000  0.196200  1
  C  C1048  1  0.505000  0.967000  0.303800  1
  C  C1049  1  0.653000  0.448100  0.964800  1
  C  C1050  1  0.153000  0.051900  0.535200  1
  C  C1051  1  0.347000  0.551900  0.035200  1
  C  C1052  1  0.847000  0.948100  0.464800  1
  C  C1053  1  0.591000  0.414100  0.960500  1
  C  C1054  1  0.091000  0.085900  0.539500  1
  C  C1055  1  0.409000  0.585900  0.039500  1
  C  C1056  1  0.909000  0.914100  0.460500  1
  N  N1057  1  0.912800  0.241900  0.733000  1
  N  N1058  1  0.412800  0.258100  0.767000  1
  N  N1059  1  0.087200  0.758100  0.267000  1
  N  N1060  1  0.587200  0.741900  0.233000  1
  N  N1061  1  0.811100  0.161900  0.732300  1
  N  N1062  1  0.311100  0.338100  0.767700  1
  N  N1063  1  0.188900  0.838100  0.267700  1
  N  N1064  1  0.688900  0.661900  0.232300  1
  N  N1065  1  0.529800  0.174400  0.862000  1
  N  N1066  1  0.029800  0.325600  0.638000  1
  N  N1067  1  0.470200  0.825600  0.138000  1
  N  N1068  1  0.970200  0.674400  0.362000  1
  N  N1069  1  0.592500  0.119800  0.806600  1
  N  N1070  1  0.092500  0.380200  0.693400  1
  N  N1071  1  0.407500  0.880200  0.193400  1
  N  N1072  1  0.907500  0.619800  0.306600  1
  N  N1073  1  0.953400  0.465700  0.866600  1
  N  N1074  1  0.453400  0.034300  0.633400  1
  N  N1075  1  0.046600  0.534300  0.133400  1
  N  N1076  1  0.546600  0.965700  0.366600  1
  N  N1077  1  0.007200  0.409000  0.810500  1
  N  N1078  1  0.507200  0.091000  0.689500  1
  N  N1079  1  0.992800  0.591000  0.189500  1
  N  N1080  1  0.492800  0.909000  0.310500  1
  N  N1081  1  0.483200  0.945500  0.936400  1
  N  N1082  1  0.983200  0.554500  0.563600  1
  N  N1083  1  0.516800  0.054500  0.063600  1
  N  N1084  1  0.016800  0.445500  0.436400  1
  N  N1085  1  0.524700  0.895100  0.877600  1
  N  N1086  1  0.024700  0.604900  0.622400  1
  N  N1087  1  0.475300  0.104900  0.122400  1
  N  N1088  1  0.975300  0.395100  0.377600  1
  N  N1089  1  0.712700  0.436100  0.944600  1
  N  N1090  1  0.212700  0.063900  0.555400  1
  N  N1091  1  0.287300  0.563900  0.055400  1
  N  N1092  1  0.787300  0.936100  0.444600  1
  N  N1093  1  0.604600  0.359900  0.940500  1
  N  N1094  1  0.104600  0.140100  0.559500  1
  N  N1095  1  0.395400  0.640100  0.059500  1
  N  N1096  1  0.895400  0.859900  0.440500  1
  N  N1097  1  0.247600  0.985400  0.710500  1
  N  N1098  1  0.747600  0.514600  0.789500  1
  N  N1099  1  0.752400  0.014600  0.289500  1
  N  N1100  1  0.252400  0.485400  0.210500  1
  N  N1101  1  0.135000  0.908800  0.706300  1
  N  N1102  1  0.635000  0.591200  0.793700  1
  N  N1103  1  0.865000  0.091200  0.293700  1
  N  N1104  1  0.365000  0.408800  0.206300  1
  N  N1105  1  0.363800  0.424400  0.885400  1
  N  N1106  1  0.863800  0.075600  0.614600  1
  N  N1107  1  0.636200  0.575600  0.114600  1
  N  N1108  1  0.136200  0.924400  0.385400  1
  N  N1109  1  0.324300  0.489500  0.937000  1
  N  N1110  1  0.824300  0.010500  0.563000  1
  N  N1111  1  0.675700  0.510500  0.063000  1
  N  N1112  1  0.175700  0.989500  0.437000  1
  N  N1113  1  0.768300  0.394200  0.152200  1
  N  N1114  1  0.268300  0.105800  0.347800  1
  N  N1115  1  0.231700  0.605800  0.847800  1
  N  N1116  1  0.731700  0.894200  0.652200  1
  N  N1117  1  0.677900  0.299800  0.145100  1
  N  N1118  1  0.177900  0.200200  0.354900  1
  N  N1119  1  0.322100  0.700200  0.854900  1
  N  N1120  1  0.822100  0.799800  0.645100  1
  N  N1121  1  0.818800  0.980800  0.848900  1
  N  N1122  1  0.318800  0.519200  0.651100  1
  N  N1123  1  0.181200  0.019200  0.151100  1
  N  N1124  1  0.681200  0.480800  0.348900  1
  N  N1125  1  0.801300  0.239300  0.110600  1
  N  N1126  1  0.301300  0.260700  0.389400  1
  N  N1127  1  0.198700  0.760700  0.889400  1
  N  N1128  1  0.698700  0.739300  0.610600  1
  N  N1129  1  0.839600  0.153500  0.119400  1
  N  N1130  1  0.339600  0.346500  0.380600  1
  N  N1131  1  0.160400  0.846500  0.880600  1
  N  N1132  1  0.660400  0.653500  0.619400  1
  N  N1133  1  0.700900  0.105600  0.975800  1
  N  N1134  1  0.200900  0.394400  0.524200  1
  N  N1135  1  0.299100  0.894400  0.024200  1
  N  N1136  1  0.799100  0.605600  0.475800  1
  N  N1137  1  0.890000  0.336100  0.119800  1
  N  N1138  1  0.390000  0.163900  0.380200  1
  N  N1139  1  0.110000  0.663900  0.880200  1
  N  N1140  1  0.610000  0.836100  0.619800  1
  N  N1141  1  0.008200  0.371900  0.137500  1
  N  N1142  1  0.508200  0.128100  0.362500  1
  N  N1143  1  0.991800  0.628100  0.862500  1
  N  N1144  1  0.491800  0.871900  0.637500  1
  N  N1145  1  0.283500  0.396000  0.973600  1
  N  N1146  1  0.783500  0.104000  0.526400  1
  N  N1147  1  0.716500  0.604000  0.026400  1
  N  N1148  1  0.216500  0.896000  0.473600  1
  N  N1149  1  0.058300  0.370600  0.982300  1
  N  N1150  1  0.558300  0.129400  0.517700  1
  N  N1151  1  0.941700  0.629400  0.017700  1
  N  N1152  1  0.441700  0.870600  0.482300  1
  N  N1153  1  0.188400  0.233300  0.857600  1
  N  N1154  1  0.688400  0.266700  0.642400  1
  N  N1155  1  0.811600  0.766700  0.142400  1
  N  N1156  1  0.311600  0.733300  0.357600  1
  N  N1157  1  0.125600  0.915800  0.777500  1
  N  N1158  1  0.625600  0.584200  0.722500  1
  N  N1159  1  0.874400  0.084200  0.222500  1
  N  N1160  1  0.374400  0.415800  0.277500  1
  N  N1161  1  0.677000  0.885800  0.897600  1
  N  N1162  1  0.177000  0.614200  0.602400  1
  N  N1163  1  0.323000  0.114200  0.102400  1
  N  N1164  1  0.823000  0.385800  0.397600  1
  N  N1165  1  0.097200  0.838500  0.804300  1
  N  N1166  1  0.597200  0.661500  0.695700  1
  N  N1167  1  0.902800  0.161500  0.195700  1
  N  N1168  1  0.402800  0.338500  0.304300  1
  N  N1169  1  0.839400  0.146200  0.800840  1
  N  N1170  1  0.339400  0.353800  0.699160  1
  N  N1171  1  0.160600  0.853800  0.199160  1
  N  N1172  1  0.660600  0.646200  0.300840  1
  N  N1173  1  0.738600  0.131100  0.835070  1
  N  N1174  1  0.238600  0.368900  0.664930  1
  N  N1175  1  0.261400  0.868900  0.164930  1
  N  N1176  1  0.761400  0.631100  0.335070  1
  N  N1177  1  0.904000  0.907700  0.840700  1
  N  N1178  1  0.404000  0.592300  0.659300  1
  N  N1179  1  0.096000  0.092300  0.159300  1
  N  N1180  1  0.596000  0.407700  0.340700  1
  N  N1181  1  0.634500  0.946200  0.960600  1
  N  N1182  1  0.134500  0.553800  0.539400  1
  N  N1183  1  0.365500  0.053800  0.039400  1
  N  N1184  1  0.865500  0.446200  0.460600  1
  N  N1185  1  0.672900  0.190400  0.895100  1
  N  N1186  1  0.172900  0.309600  0.604900  1
  N  N1187  1  0.327100  0.809600  0.104900  1
  N  N1188  1  0.827100  0.690400  0.395100  1
  N  N1189  1  0.707100  0.270900  0.928000  1
  N  N1190  1  0.207100  0.229100  0.572000  1
  N  N1191  1  0.292900  0.729100  0.072000  1
  N  N1192  1  0.792900  0.770900  0.428000  1
  N  N1193  1  0.734300  0.094200  0.031700  1
  N  N1194  1  0.234300  0.405800  0.468300  1
  N  N1195  1  0.265700  0.905800  0.968300  1
  N  N1196  1  0.765700  0.594200  0.531700  1
  N  N1197  1  0.824600  0.354800  0.930700  1
  N  N1198  1  0.324600  0.145200  0.569300  1
  N  N1199  1  0.175400  0.645200  0.069300  1
  N  N1200  1  0.675400  0.854800  0.430700  1
  N  N1201  1  0.930500  0.369800  0.899500  1
  N  N1202  1  0.430500  0.130200  0.600500  1
  N  N1203  1  0.069500  0.630200  0.100500  1
  N  N1204  1  0.569500  0.869800  0.399500  1
  N  N1205  1  0.076500  0.372100  0.041000  1
  N  N1206  1  0.576500  0.127900  0.459000  1
  N  N1207  1  0.923500  0.627900  0.959000  1
  N  N1208  1  0.423500  0.872100  0.541000  1
  N  N1209  1  0.335600  0.326300  0.917400  1
  N  N1210  1  0.835600  0.173700  0.582600  1
  N  N1211  1  0.664400  0.673700  0.082600  1
  N  N1212  1  0.164400  0.826300  0.417400  1
  N  N1213  1  0.992300  0.305700  0.837600  1
  N  N1214  1  0.492300  0.194300  0.662400  1
  N  N1215  1  0.007700  0.694300  0.162400  1
  N  N1216  1  0.507700  0.805700  0.337600  1
  N  N1217  1  0.955500  0.230400  0.802050  1
  N  N1218  1  0.455500  0.269600  0.697950  1
  N  N1219  1  0.044500  0.769600  0.197950  1
  N  N1220  1  0.544500  0.730400  0.302050  1
  N  N1221  1  0.243600  0.996600  0.780900  1
  N  N1222  1  0.743600  0.503400  0.719100  1
  N  N1223  1  0.756400  0.003400  0.219100  1
  N  N1224  1  0.256400  0.496600  0.280900  1
  N  N1225  1  0.352600  0.012700  0.813600  1
  N  N1226  1  0.852600  0.487300  0.686400  1
  N  N1227  1  0.647400  0.987300  0.186400  1
  N  N1228  1  0.147400  0.512700  0.313600  1
  N  N1229  1  0.273700  0.162700  0.852200  1
  N  N1230  1  0.773700  0.337300  0.647800  1
  N  N1231  1  0.726300  0.837300  0.147800  1
  N  N1232  1  0.226300  0.662700  0.352200  1
  N  N1233  1  0.871700  0.220600  0.882900  1
  N  N1234  1  0.371700  0.279400  0.617100  1
  N  N1235  1  0.128300  0.779400  0.117100  1
  N  N1236  1  0.628300  0.720600  0.382900  1
  N  N1237  1  0.496600  0.316300  0.875600  1
  N  N1238  1  0.996600  0.183700  0.624400  1
  N  N1239  1  0.503400  0.683700  0.124400  1
  N  N1240  1  0.003400  0.816300  0.375600  1
  N  N1241  1  0.153300  0.397500  0.883400  1
  N  N1242  1  0.653300  0.102500  0.616600  1
  N  N1243  1  0.846700  0.602500  0.116600  1
  N  N1244  1  0.346700  0.897500  0.383400  1
  N  N1245  1  0.725400  0.347400  0.034800  1
  N  N1246  1  0.225400  0.152600  0.465200  1
  N  N1247  1  0.274600  0.652600  0.965200  1
  N  N1248  1  0.774600  0.847400  0.534800  1
  N  N1249  1  0.742400  0.308100  0.820700  1
  N  N1250  1  0.242400  0.191900  0.679300  1
  N  N1251  1  0.257600  0.691900  0.179300  1
  N  N1252  1  0.757600  0.808100  0.320700  1
  N  N1253  1  0.857700  0.379800  0.752100  1
  N  N1254  1  0.357700  0.120200  0.747900  1
  N  N1255  1  0.142300  0.620200  0.247900  1
  N  N1256  1  0.642300  0.879800  0.252100  1
  N  N1257  1  0.306300  0.837300  0.833800  1
  N  N1258  1  0.806300  0.662700  0.666200  1
  N  N1259  1  0.693700  0.162700  0.166200  1
  N  N1260  1  0.193700  0.337300  0.333800  1
  N  N1261  1  0.126200  0.308000  0.763300  1
  N  N1262  1  0.626200  0.192000  0.736700  1
  N  N1263  1  0.873800  0.692000  0.236700  1
  N  N1264  1  0.373800  0.808000  0.263300  1
  N  N1265  1  0.031000  0.070700  0.753700  1
  N  N1266  1  0.531000  0.429300  0.746300  1
  N  N1267  1  0.969000  0.929300  0.246300  1
  N  N1268  1  0.469000  0.570700  0.253700  1
  N  N1269  1  0.215100  0.475800  0.105700  1
  N  N1270  1  0.715100  0.024200  0.394300  1
  N  N1271  1  0.784900  0.524200  0.894300  1
  N  N1272  1  0.284900  0.975800  0.605700  1
  N  N1273  1  0.475400  0.097500  0.922800  1
  N  N1274  1  0.975400  0.402500  0.577200  1
  N  N1275  1  0.524600  0.902500  0.077200  1
  N  N1276  1  0.024600  0.597500  0.422800  1
  N  N1277  1  0.065200  0.508100  0.050000  1
  N  N1278  1  0.565200  0.991900  0.450000  1
  N  N1279  1  0.934800  0.491900  0.950000  1
  N  N1280  1  0.434800  0.008100  0.550000  1
  N  N1281  1  0.603400  0.024400  0.869900  1
  N  N1282  1  0.103400  0.475600  0.630100  1
  N  N1283  1  0.396600  0.975600  0.130100  1
  N  N1284  1  0.896600  0.524400  0.369900  1
  O  O1285  1  0.021300  0.123700  0.868100  1
  O  O1286  1  0.521300  0.376300  0.631900  1
  O  O1287  1  0.978700  0.876300  0.131900  1
  O  O1288  1  0.478700  0.623700  0.368100  1
  O  O1289  1  0.072800  0.265300  0.929200  1
  O  O1290  1  0.572800  0.234700  0.570800  1
  O  O1291  1  0.927200  0.734700  0.070800  1
  O  O1292  1  0.427200  0.765300  0.429200  1
  O  O1293  1  0.874600  0.232200  0.978800  1
  O  O1294  1  0.374600  0.267800  0.521200  1
  O  O1295  1  0.125400  0.767800  0.021200  1
  O  O1296  1  0.625400  0.732200  0.478800  1
  O  O1297  1  0.857600  0.094000  0.913400  1
  O  O1298  1  0.357600  0.406000  0.586600  1
  O  O1299  1  0.142400  0.906000  0.086600  1
  O  O1300  1  0.642400  0.594000  0.413400  1
  O  O1301  1  0.094700  0.161100  0.921100  1
  O  O1302  1  0.594700  0.338900  0.578900  1
  O  O1303  1  0.905300  0.838900  0.078900  1
  O  O1304  1  0.405300  0.661100  0.421100  1
  O  O1305  1  0.013000  0.209400  0.969600  1
  O  O1306  1  0.513000  0.290600  0.530400  1
  O  O1307  1  0.987000  0.790600  0.030400  1
  O  O1308  1  0.487000  0.709400  0.469600  1
  O  O1309  1  0.917900  0.138200  0.974700  1
  O  O1310  1  0.417900  0.361800  0.525300  1
  O  O1311  1  0.082100  0.861800  0.025300  1
  O  O1312  1  0.582100  0.638200  0.474700  1
  O  O1313  1  0.996000  0.085300  0.925900  1
  O  O1314  1  0.496000  0.414700  0.574100  1
  O  O1315  1  0.004000  0.914700  0.074100  1
  O  O1316  1  0.504000  0.585300  0.425900  1
  O  O1317  1  0.832600  0.252100  0.867700  1
  O  O1318  1  0.332600  0.247900  0.632300  1
  O  O1319  1  0.167400  0.747900  0.132300  1
  O  O1320  1  0.667400  0.752100  0.367700  1
  O  O1321  1  0.885300  0.173900  0.874000  1
  O  O1322  1  0.385300  0.326100  0.626000  1
  O  O1323  1  0.114700  0.826100  0.126000  1
  O  O1324  1  0.614700  0.673900  0.374000  1
  O  O1325  1  0.913000  0.243900  0.905900  1
  O  O1326  1  0.413000  0.256100  0.594100  1
  O  O1327  1  0.087000  0.756100  0.094100  1
  O  O1328  1  0.587000  0.743900  0.405900  1
  O  O1329  1  0.544500  0.289000  0.884700  1
  O  O1330  1  0.044500  0.211000  0.615300  1
  O  O1331  1  0.455500  0.711000  0.115300  1
  O  O1332  1  0.955500  0.789000  0.384700  1
  O  O1333  1  0.452000  0.297100  0.857000  1
  O  O1334  1  0.952000  0.202900  0.643000  1
  O  O1335  1  0.548000  0.702900  0.143000  1
  O  O1336  1  0.048000  0.797100  0.357000  1
  O  O1337  1  0.498400  0.366700  0.888900  1
  O  O1338  1  0.998400  0.133300  0.611100  1
  O  O1339  1  0.501600  0.633300  0.111100  1
  O  O1340  1  0.001600  0.866700  0.388900  1
  O  O1341  1  0.204900  0.391000  0.858300  1
  O  O1342  1  0.704900  0.109000  0.641700  1
  O  O1343  1  0.795100  0.609000  0.141700  1
  O  O1344  1  0.295100  0.891000  0.358300  1
  O  O1345  1  0.136000  0.369000  0.899900  1
  O  O1346  1  0.636000  0.131000  0.600100  1
  O  O1347  1  0.864000  0.631000  0.100100  1
  O  O1348  1  0.364000  0.869000  0.399900  1
  O  O1349  1  0.089000  0.443000  0.893600  1
  O  O1350  1  0.589000  0.057000  0.606400  1
  O  O1351  1  0.911000  0.557000  0.106400  1
  O  O1352  1  0.411000  0.943000  0.393600  1
  O  O1353  1  0.717600  0.355300  0.064700  1
  O  O1354  1  0.217600  0.144700  0.435300  1
  O  O1355  1  0.282400  0.644700  0.935300  1
  O  O1356  1  0.782400  0.855300  0.564700  1
  O  O1357  1  0.687800  0.373700  0.018800  1
  O  O1358  1  0.187800  0.126300  0.481200  1
  O  O1359  1  0.312200  0.626300  0.981200  1
  O  O1360  1  0.812200  0.873700  0.518800  1
  O  O1361  1  0.779800  0.319300  0.023600  1
  O  O1362  1  0.279800  0.180700  0.476400  1
  O  O1363  1  0.220200  0.680700  0.976400  1
  O  O1364  1  0.720200  0.819300  0.523600  1
  O  O1365  1  0.769600  0.282100  0.795100  1
  O  O1366  1  0.269600  0.217900  0.704900  1
  O  O1367  1  0.230400  0.717900  0.204900  1
  O  O1368  1  0.730400  0.782100  0.295100  1
  O  O1369  1  0.778000  0.352000  0.830000  1
  O  O1370  1  0.278000  0.148000  0.670000  1
  O  O1371  1  0.222000  0.648000  0.170000  1
  O  O1372  1  0.722000  0.852000  0.330000  1
  O  O1373  1  0.682900  0.290700  0.831500  1
  O  O1374  1  0.182900  0.209300  0.668500  1
  O  O1375  1  0.317100  0.709300  0.168500  1
  O  O1376  1  0.817100  0.790700  0.331500  1
  O  O1377  1  0.911300  0.356400  0.760400  1
  O  O1378  1  0.411300  0.143600  0.739600  1
  O  O1379  1  0.088700  0.643600  0.239600  1
  O  O1380  1  0.588700  0.856400  0.260400  1
  O  O1381  1  0.812000  0.353500  0.739100  1
  O  O1382  1  0.312000  0.146500  0.760900  1
  O  O1383  1  0.188000  0.646500  0.260900  1
  O  O1384  1  0.688000  0.853500  0.239100  1
  O  O1385  1  0.871900  0.434100  0.758600  1
  O  O1386  1  0.371900  0.065900  0.741400  1
  O  O1387  1  0.128100  0.565900  0.241400  1
  O  O1388  1  0.628100  0.934100  0.258600  1
  O  O1389  1  0.298600  0.873100  0.817600  1
  O  O1390  1  0.798600  0.626900  0.682400  1
  O  O1391  1  0.701400  0.126900  0.182400  1
  O  O1392  1  0.201400  0.373100  0.317600  1
  O  O1393  1  0.318800  0.829200  0.859900  1
  O  O1394  1  0.818800  0.670800  0.640100  1
  O  O1395  1  0.681200  0.170800  0.140100  1
  O  O1396  1  0.181200  0.329200  0.359900  1
  O  O1397  1  0.312200  0.798500  0.814900  1
  O  O1398  1  0.812200  0.701500  0.685100  1
  O  O1399  1  0.687800  0.201500  0.185100  1
  O  O1400  1  0.187800  0.298500  0.314900  1
  O  O1401  1  0.059300  0.305700  0.762800  1
  O  O1402  1  0.559300  0.194300  0.737200  1
  O  O1403  1  0.940700  0.694300  0.237200  1
  O  O1404  1  0.440700  0.805700  0.262800  1
  O  O1405  1  0.165100  0.316400  0.741200  1
  O  O1406  1  0.665100  0.183600  0.758800  1
  O  O1407  1  0.834900  0.683600  0.258800  1
  O  O1408  1  0.334900  0.816400  0.241200  1
  O  O1409  1  0.162200  0.269300  0.776100  1
  O  O1410  1  0.662200  0.230700  0.723900  1
  O  O1411  1  0.837800  0.730700  0.223900  1
  O  O1412  1  0.337800  0.769300  0.276100  1
  O  O1413  1  0.041700  0.070000  0.784280  1
  O  O1414  1  0.541700  0.430000  0.715720  1
  O  O1415  1  0.958300  0.930000  0.215720  1
  O  O1416  1  0.458300  0.570000  0.284280  1
  O  O1417  1  0.986900  0.099900  0.743500  1
  O  O1418  1  0.486900  0.400100  0.756500  1
  O  O1419  1  0.013100  0.900100  0.256500  1
  O  O1420  1  0.513100  0.599900  0.243500  1
  O  O1421  1  0.070900  0.039200  0.733900  1
  O  O1422  1  0.570900  0.460800  0.766100  1
  O  O1423  1  0.929100  0.960800  0.266100  1
  O  O1424  1  0.429100  0.539200  0.233900  1
  O  O1425  1  0.174200  0.447200  0.115500  1
  O  O1426  1  0.674200  0.052800  0.384500  1
  O  O1427  1  0.825800  0.552800  0.884500  1
  O  O1428  1  0.325800  0.947200  0.615500  1
  O  O1429  1  0.272700  0.465700  0.098400  1
  O  O1430  1  0.772700  0.034300  0.401600  1
  O  O1431  1  0.727300  0.534300  0.901600  1
  O  O1432  1  0.227300  0.965700  0.598400  1
  O  O1433  1  0.199000  0.524300  0.105200  1
  O  O1434  1  0.699000  0.975700  0.394800  1
  O  O1435  1  0.801000  0.475700  0.894800  1
  O  O1436  1  0.301000  0.024300  0.605200  1
  O  O1437  1  0.511600  0.139400  0.928400  1
  O  O1438  1  0.011600  0.360600  0.571600  1
  O  O1439  1  0.488400  0.860600  0.071600  1
  O  O1440  1  0.988400  0.639400  0.428400  1
  O  O1441  1  0.493800  0.067500  0.946000  1
  O  O1442  1  0.993800  0.432500  0.554000  1
  O  O1443  1  0.506200  0.932500  0.054000  1
  O  O1444  1  0.006200  0.567500  0.446000  1
  O  O1445  1  0.446100  0.092900  0.899000  1
  O  O1446  1  0.946100  0.407100  0.601000  1
  O  O1447  1  0.553900  0.907100  0.101000  1
  O  O1448  1  0.053900  0.592900  0.399000  1
  O  O1449  1  0.688000  0.950600  0.793300  1
  O  O1450  1  0.188000  0.549400  0.706700  1
  O  O1451  1  0.312000  0.049400  0.206700  1
  O  O1452  1  0.812000  0.450600  0.293300  1
  O  O1453  1  0.143500  0.158500  0.748200  1
  O  O1454  1  0.643500  0.341500  0.751800  1
  O  O1455  1  0.856500  0.841500  0.251800  1
  O  O1456  1  0.356500  0.658500  0.248200  1
  O  O1457  1  0.552200  0.299400  0.794500  1
  O  O1458  1  0.052200  0.200600  0.705500  1
  O  O1459  1  0.447800  0.700600  0.205500  1
  O  O1460  1  0.947800  0.799400  0.294500  1
  O  O1461  1  0.190400  0.527700  0.992300  1
  O  O1462  1  0.690400  0.972300  0.507700  1
  O  O1463  1  0.809600  0.472300  0.007700  1
  O  O1464  1  0.309600  0.027700  0.492300  1
  O  O1465  1  0.537400  0.117300  0.007000  1
  O  O1466  1  0.037400  0.382700  0.493000  1
  O  O1467  1  0.462600  0.882700  0.993000  1
  O  O1468  1  0.962600  0.617300  0.507000  1
  O  O1469  1  0.496800  0.957800  0.801200  1
  O  O1470  1  0.996800  0.542200  0.698800  1
  O  O1471  1  0.503200  0.042200  0.198800  1
  O  O1472  1  0.003200  0.457800  0.301200  1
  O  O1473  1  0.655000  0.828400  0.804900  1
  O  O1474  1  0.155000  0.671600  0.695100  1
  O  O1475  1  0.345000  0.171600  0.195100  1
  O  O1476  1  0.845000  0.328400  0.304900  1
  O  O1477  1  0.447100  0.740800  0.020300  1
  O  O1478  1  0.947100  0.759200  0.479700  1
  O  O1479  1  0.552900  0.259200  0.979700  1
  O  O1480  1  0.052900  0.240800  0.520300  1
  O  O1481  1  0.414700  0.532300  0.762100  1
  O  O1482  1  0.914700  0.967700  0.737900  1
  O  O1483  1  0.585300  0.467700  0.237900  1
  O  O1484  1  0.085300  0.032300  0.262100  1
  O  O1485  1  0.141600  0.568300  0.784600  1
  O  O1486  1  0.641600  0.931700  0.715400  1
  O  O1487  1  0.858400  0.431700  0.215400  1
  O  O1488  1  0.358400  0.068300  0.284600  1
  O  O1489  1  0.499000  0.797000  0.916700  1
  O  O1490  1  0.999000  0.703000  0.583300  1
  O  O1491  1  0.501000  0.203000  0.083300  1
  O  O1492  1  0.001000  0.297000  0.416700  1
  O  O1493  1  0.497100  0.548300  0.823500  1
  O  O1494  1  0.997100  0.951700  0.676500  1
  O  O1495  1  0.502900  0.451700  0.176500  1
  O  O1496  1  0.002900  0.048300  0.323500  1
  O  O1497  1  0.040000  0.064000  0.670200  1
  O  O1498  1  0.540000  0.436000  0.829800  1
  O  O1499  1  0.960000  0.936000  0.329800  1
  O  O1500  1  0.460000  0.564000  0.170200  1
  O  O1501  1  0.721300  0.057900  0.766700  1
  O  O1502  1  0.221300  0.442100  0.733300  1
  O  O1503  1  0.278700  0.942100  0.233300  1
  O  O1504  1  0.778700  0.557900  0.266700  1
  O  O1505  1  0.047000  0.699700  0.782000  1
  O  O1506  1  0.547000  0.800300  0.718000  1
  O  O1507  1  0.953000  0.300300  0.218000  1
  O  O1508  1  0.453000  0.199700  0.282000  1
  O  O1509  1  0.836100  0.445800  0.074800  1
  O  O1510  1  0.336100  0.054200  0.425200  1
  O  O1511  1  0.163900  0.554200  0.925200  1
  O  O1512  1  0.663900  0.945800  0.574800  1
  O  O1513  1  0.932000  0.754700  0.821900  1
  O  O1514  1  0.432000  0.745300  0.678100  1
  O  O1515  1  0.068000  0.245300  0.178100  1
  O  O1516  1  0.568000  0.254700  0.321900  1
  O  O1517  1  0.374800  0.905000  0.708300  1
  O  O1518  1  0.874800  0.595000  0.791700  1
  O  O1519  1  0.625200  0.095000  0.291700  1
  O  O1520  1  0.125200  0.405000  0.208300  1
  O  O1521  1  0.231700  0.339000  0.114500  1
  O  O1522  1  0.731700  0.161000  0.385500  1
  O  O1523  1  0.768300  0.661000  0.885500  1
  O  O1524  1  0.268300  0.839000  0.614500  1
  O  O1525  1  0.005800  0.503600  0.064700  1
  O  O1526  1  0.505800  0.996400  0.435300  1
  O  O1527  1  0.994200  0.496400  0.935300  1
  O  O1528  1  0.494200  0.003600  0.564700  1
  O  O1529  1  0.070600  0.495200  0.019300  1
  O  O1530  1  0.570600  0.004800  0.480700  1
  O  O1531  1  0.929400  0.504800  0.980700  1
  O  O1532  1  0.429400  0.995200  0.519300  1
  O  O1533  1  0.120700  0.527900  0.066100  1
  O  O1534  1  0.620700  0.972100  0.433900  1
  O  O1535  1  0.879300  0.472100  0.933900  1
  O  O1536  1  0.379300  0.027900  0.566100  1
  O  O1537  1  0.639900  0.039300  0.888200  1
  O  O1538  1  0.139900  0.460700  0.611800  1
  O  O1539  1  0.360100  0.960700  0.111800  1
  O  O1540  1  0.860100  0.539300  0.388200  1
  O  O1541  1  0.619600  0.006200  0.838200  1
  O  O1542  1  0.119600  0.493800  0.661800  1
  O  O1543  1  0.380400  0.993800  0.161800  1
  O  O1544  1  0.880400  0.506200  0.338200  1
  O  O1545  1  0.545000  0.029600  0.871100  1
  O  O1546  1  0.045000  0.470400  0.628900  1
  O  O1547  1  0.455000  0.970400  0.128900  1
  O  O1548  1  0.955000  0.529600  0.371100  1
  O  O1549  1  0.316000  0.457500  0.758600  1
  O  O1550  1  0.816000  0.042500  0.741400  1
  O  O1551  1  0.684000  0.542500  0.241400  1
  O  O1552  1  0.184000  0.957500  0.258600  1
  O  O1553  1  0.168900  0.708200  0.794200  1
  O  O1554  1  0.668900  0.791800  0.705800  1
  O  O1555  1  0.831100  0.291800  0.205800  1
  O  O1556  1  0.331100  0.208200  0.294200  1
  O  O1557  1  0.165200  0.310100  0.167200  1
  O  O1558  1  0.665200  0.189900  0.332800  1
  O  O1559  1  0.834800  0.689900  0.832800  1
  O  O1560  1  0.334800  0.810100  0.667200  1
  O  O1561  1  0.507800  0.919200  0.736400  1
  O  O1562  1  0.007800  0.580800  0.763600  1
  O  O1563  1  0.492200  0.080800  0.263600  1
  O  O1564  1  0.992200  0.419200  0.236400  1
  O  O1565  1  0.309600  0.845500  0.749600  1
  O  O1566  1  0.809600  0.654500  0.750400  1
  O  O1567  1  0.690400  0.154500  0.250400  1
  O  O1568  1  0.190400  0.345500  0.249600  1
  O  O1569  1  0.367800  0.308100  0.107100  1
  O  O1570  1  0.867800  0.191900  0.392900  1
  O  O1571  1  0.632200  0.691900  0.892900  1
  O  O1572  1  0.132200  0.808100  0.607100  1
