# generated using pymatgen
data_H248Pd20C176N135O209
_symmetry_space_group_name_H-M   'P 1'
_cell_length_a   25.12500000
_cell_length_b   25.84100000
_cell_length_c   36.44600000
_cell_angle_alpha   71.62500000
_cell_angle_beta   74.38600000
_cell_angle_gamma   67.20400000
_symmetry_Int_Tables_number   1
_chemical_formula_structural   H248Pd20C176N135O209
_chemical_formula_sum   'H496 Pd40 C352 N270 O418'
_cell_volume   20407.83362180
_cell_formula_units_Z   2
loop_
 _symmetry_equiv_pos_site_id
 _symmetry_equiv_pos_as_xyz
  1  'x, y, z'
loop_
 _atom_site_type_symbol
 _atom_site_label
 _atom_site_symmetry_multiplicity
 _atom_site_fract_x
 _atom_site_fract_y
 _atom_site_fract_z
 _atom_site_occupancy
  H  H1  1  0.363400  0.364800  0.792000  1.0
  H  H2  1  0.636600  0.635200  0.208000  1.0
  H  H3  1  0.410600  0.289400  0.760700  1.0
  H  H4  1  0.589400  0.710600  0.239300  1.0
  H  H5  1  0.498200  0.283300  0.718500  1.0
  H  H6  1  0.501800  0.716700  0.281500  1.0
  H  H7  1  0.496500  0.426200  0.744200  1.0
  H  H8  1  0.503500  0.573800  0.255800  1.0
  H  H9  1  0.705700  0.349500  0.640400  1.0
  H  H10  1  0.294300  0.650500  0.359600  1.0
  H  H11  1  0.720800  0.540000  0.686100  1.0
  H  H12  1  0.279200  0.460000  0.313900  1.0
  H  H13  1  0.590800  0.477900  0.712300  1.0
  H  H14  1  0.409200  0.522100  0.287700  1.0
  H  H15  1  0.744500  0.403800  0.649600  1.0
  H  H16  1  0.255500  0.596200  0.350400  1.0
  H  H17  1  0.765200  0.120900  0.615000  1.0
  H  H18  1  0.234800  0.879100  0.385000  1.0
  H  H19  1  0.616200  0.215500  0.667400  1.0
  H  H20  1  0.383800  0.784500  0.332600  1.0
  H  H21  1  0.752300  0.274700  0.621300  1.0
  H  H22  1  0.247700  0.725300  0.378700  1.0
  H  H23  1  0.262800  0.314900  0.719700  1.0
  H  H24  1  0.737200  0.685100  0.280300  1.0
  H  H25  1  0.364700  0.273000  0.717300  1.0
  H  H26  1  0.635300  0.727000  0.282700  1.0
  H  H27  1  0.422400  0.247600  0.660600  1.0
  H  H28  1  0.577600  0.752400  0.339400  1.0
  H  H29  1  0.279300  0.301500  0.611600  1.0
  H  H30  1  0.720700  0.698500  0.388400  1.0
  H  H31  1  0.481600  0.208800  0.506000  1.0
  H  H32  1  0.518400  0.791200  0.494000  1.0
  H  H33  1  0.697400  0.086000  0.571600  1.0
  H  H34  1  0.302600  0.914000  0.428400  1.0
  H  H35  1  0.570000  0.160800  0.509400  1.0
  H  H36  1  0.430000  0.839200  0.490600  1.0
  H  H37  1  0.544200  0.174600  0.621800  1.0
  H  H38  1  0.455800  0.825400  0.378200  1.0
  H  H39  1  0.287000  0.283900  0.422400  1.0
  H  H40  1  0.713000  0.716100  0.577600  1.0
  H  H41  1  0.284900  0.296000  0.527400  1.0
  H  H42  1  0.715100  0.704000  0.472600  1.0
  H  H43  1  0.435800  0.222400  0.462700  1.0
  H  H44  1  0.564200  0.777600  0.537300  1.0
  H  H45  1  0.281300  0.482600  0.768500  1.0
  H  H46  1  0.718700  0.517400  0.231500  1.0
  H  H47  1  0.232800  0.537400  0.715600  1.0
  H  H48  1  0.767200  0.462600  0.284400  1.0
  H  H49  1  0.269200  0.605100  0.667800  1.0
  H  H50  1  0.730800  0.394900  0.332200  1.0
  H  H51  1  0.399100  0.559800  0.728000  1.0
  H  H52  1  0.600900  0.440200  0.272000  1.0
  H  H53  1  0.418100  0.745500  0.596600  1.0
  H  H54  1  0.581900  0.254500  0.403400  1.0
  H  H55  1  0.207300  0.879300  0.527700  1.0
  H  H56  1  0.792700  0.120700  0.472300  1.0
  H  H57  1  0.240100  0.731000  0.607800  1.0
  H  H58  1  0.759900  0.269000  0.392200  1.0
  H  H59  1  0.360000  0.812300  0.562100  1.0
  H  H60  1  0.640000  0.187700  0.437900  1.0
  H  H61  1  0.620300  0.677500  0.673700  1.0
  H  H62  1  0.379700  0.322500  0.326300  1.0
  H  H63  1  0.499000  0.606700  0.697400  1.0
  H  H64  1  0.501000  0.393300  0.302600  1.0
  H  H65  1  0.495300  0.748500  0.609100  1.0
  H  H66  1  0.504700  0.251500  0.390900  1.0
  H  H67  1  0.841800  0.570900  0.289300  1.0
  H  H68  1  0.158200  0.429100  0.710700  1.0
  H  H69  1  0.850600  0.474000  0.304100  1.0
  H  H70  1  0.149400  0.526000  0.695900  1.0
  H  H71  1  0.837100  0.424700  0.370200  1.0
  H  H72  1  0.162900  0.575300  0.629800  1.0
  H  H73  1  0.814400  0.570100  0.400900  1.0
  H  H74  1  0.185600  0.429900  0.599100  1.0
  H  H75  1  0.804900  0.391100  0.538800  1.0
  H  H76  1  0.195100  0.608900  0.461200  1.0
  H  H77  1  0.852900  0.164900  0.515700  1.0
  H  H78  1  0.147100  0.835100  0.484300  1.0
  H  H79  1  0.833700  0.312900  0.437400  1.0
  H  H80  1  0.166300  0.687100  0.562600  1.0
  H  H81  1  0.826100  0.302400  0.550800  1.0
  H  H82  1  0.173900  0.697600  0.449200  1.0
  H  H83  1  0.802000  0.584200  0.591700  1.0
  H  H84  1  0.198000  0.415800  0.408300  1.0
  H  H85  1  0.802400  0.576500  0.484700  1.0
  H  H86  1  0.197600  0.423500  0.515300  1.0
  H  H87  1  0.807900  0.438600  0.574900  1.0
  H  H88  1  0.192100  0.561400  0.425100  1.0
  H  H89  1  0.659500  0.284200  0.854600  1.0
  H  H90  1  0.340500  0.715800  0.145400  1.0
  H  H91  1  0.652100  0.309200  0.913000  1.0
  H  H92  1  0.347900  0.690800  0.087000  1.0
  H  H93  1  0.664000  0.234400  0.971800  1.0
  H  H94  1  0.336000  0.765600  0.028200  1.0
  H  H95  1  0.689700  0.120700  0.909500  1.0
  H  H96  1  0.310300  0.879300  0.090500  1.0
  H  H97  1  0.693200  0.006000  0.070900  1.0
  H  H98  1  0.306800  0.994000  0.929100  1.0
  H  H99  1  0.642300  0.156600  0.176500  1.0
  H  H100  1  0.357700  0.843400  0.823500  1.0
  H  H101  1  0.668100  0.194800  0.060100  1.0
  H  H102  1  0.331900  0.805200  0.939900  1.0
  H  H103  1  0.671200  0.034200  0.124400  1.0
  H  H104  1  0.328800  0.965800  0.875600  1.0
  H  H105  1  0.688900  0.836100  0.999500  1.0
  H  H106  1  0.311100  0.163900  0.000500  1.0
  H  H107  1  0.700200  0.993100  0.948900  1.0
  H  H108  1  0.299800  0.006900  0.051100  1.0
  H  H109  1  0.684500  0.934000  0.065900  1.0
  H  H110  1  0.315500  0.066000  0.934100  1.0
  H  H111  1  0.124200  0.647800  0.218100  1.0
  H  H112  1  0.875800  0.352200  0.781900  1.0
  H  H113  1  0.076400  0.728500  0.243500  1.0
  H  H114  1  0.923600  0.271500  0.756500  1.0
  H  H115  1  0.986200  0.792800  0.225100  1.0
  H  H116  1  0.013800  0.207200  0.774900  1.0
  H  H117  1  0.991700  0.684000  0.163800  1.0
  H  H118  1  0.008300  0.316000  0.836200  1.0
  H  H119  1  0.787000  0.879400  0.146100  1.0
  H  H120  1  0.213000  0.120600  0.853900  1.0
  H  H121  1  0.769200  0.721800  0.068800  1.0
  H  H122  1  0.230800  0.278200  0.931200  1.0
  H  H123  1  0.897100  0.706300  0.119700  1.0
  H  H124  1  0.102900  0.293700  0.880300  1.0
  H  H125  1  0.745600  0.838200  0.125200  1.0
  H  H126  1  0.254400  0.161800  0.874800  1.0
  H  H127  1  0.730700  0.031300  0.251000  1.0
  H  H128  1  0.269300  0.968700  0.749000  1.0
  H  H129  1  0.875200  0.902900  0.230900  1.0
  H  H130  1  0.124800  0.097100  0.769100  1.0
  H  H131  1  0.737100  0.945400  0.176700  1.0
  H  H132  1  0.262900  0.054600  0.823300  1.0
  H  H133  1  0.191900  0.654100  0.145100  1.0
  H  H134  1  0.808100  0.345900  0.854900  1.0
  H  H135  1  0.242500  0.698700  0.090500  1.0
  H  H136  1  0.757500  0.301300  0.909500  1.0
  H  H137  1  0.211000  0.729700  0.030500  1.0
  H  H138  1  0.789000  0.270300  0.969500  1.0
  H  H139  1  0.090900  0.646800  0.082500  1.0
  H  H140  1  0.909100  0.353200  0.917500  1.0
  H  H141  1  0.072100  0.738600  0.921900  1.0
  H  H142  1  0.927900  0.261400  0.078100  1.0
  H  H143  1  0.867900  0.667300  0.993500  1.0
  H  H144  1  0.132100  0.332700  0.006500  1.0
  H  H145  1  0.989400  0.665900  0.044200  1.0
  H  H146  1  0.010600  0.334100  0.955800  1.0
  H  H147  1  0.993600  0.725300  0.927600  1.0
  H  H148  1  0.006400  0.274700  0.072400  1.0
  H  H149  1  0.286600  0.770100  0.821600  1.0
  H  H150  1  0.713400  0.229900  0.178400  1.0
  H  H151  1  0.246900  0.734200  0.936900  1.0
  H  H152  1  0.753100  0.265800  0.063100  1.0
  H  H153  1  0.129000  0.766200  0.869300  1.0
  H  H154  1  0.871000  0.233800  0.130700  1.0
  H  H155  1  0.771700  0.236600  0.797200  1.0
  H  H156  1  0.228300  0.763400  0.202800  1.0
  H  H157  1  0.870300  0.210800  0.767600  1.0
  H  H158  1  0.129700  0.789200  0.232400  1.0
  H  H159  1  0.928500  0.112400  0.784100  1.0
  H  H160  1  0.071500  0.887600  0.215900  1.0
  H  H161  1  0.781300  0.072300  0.836100  1.0
  H  H162  1  0.218700  0.927700  0.163900  1.0
  H  H163  1  0.978400  0.866600  0.834300  1.0
  H  H164  1  0.021600  0.133400  0.165700  1.0
  H  H165  1  0.782300  0.788700  0.924800  1.0
  H  H166  1  0.217700  0.211300  0.075200  1.0
  H  H167  1  0.782600  0.948700  0.874200  1.0
  H  H168  1  0.217400  0.051300  0.125800  1.0
  H  H169  1  0.932900  0.811600  0.869700  1.0
  H  H170  1  0.067100  0.188400  0.130300  1.0
  H  H171  1  0.200700  0.892100  0.749000  1.0
  H  H172  1  0.799300  0.107900  0.251000  1.0
  H  H173  1  0.045400  0.012800  0.762900  1.0
  H  H174  1  0.954600  0.987200  0.237100  1.0
  H  H175  1  0.067400  0.845400  0.814100  1.0
  H  H176  1  0.932600  0.154600  0.185900  1.0
  H  H177  1  0.724700  0.050300  0.429000  1.0
  H  H178  1  0.275300  0.949700  0.571000  1.0
  H  H179  1  0.776000  0.027800  0.448800  1.0
  H  H180  1  0.224000  0.972200  0.551200  1.0
  H  H181  1  0.673000  0.997100  0.548900  1.0
  H  H182  1  0.327000  0.002900  0.451100  1.0
  H  H183  1  0.629100  0.013800  0.523400  1.0
  H  H184  1  0.370900  0.986200  0.476600  1.0
  H  H185  1  0.706000  0.972000  0.449900  1.0
  H  H186  1  0.294000  0.028000  0.550100  1.0
  H  H187  1  0.769100  0.944500  0.462600  1.0
  H  H188  1  0.230900  0.055500  0.537400  1.0
  H  H189  1  0.737500  0.937100  0.518800  1.0
  H  H190  1  0.262500  0.062900  0.481200  1.0
  H  H191  1  0.682400  0.936900  0.505400  1.0
  H  H192  1  0.317600  0.063100  0.494600  1.0
  H  H193  1  0.908500  0.612300  0.541800  1.0
  H  H194  1  0.091500  0.387700  0.458200  1.0
  H  H195  1  0.915000  0.608000  0.501400  1.0
  H  H196  1  0.085000  0.392000  0.498600  1.0
  H  H197  1  0.825100  0.764000  0.486300  1.0
  H  H198  1  0.174900  0.236000  0.513700  1.0
  H  H199  1  0.799500  0.765400  0.527700  1.0
  H  H200  1  0.200500  0.234600  0.472300  1.0
  H  H201  1  0.929900  0.691800  0.473700  1.0
  H  H202  1  0.070100  0.308200  0.526300  1.0
  H  H203  1  0.965500  0.665100  0.509700  1.0
  H  H204  1  0.034500  0.334900  0.490300  1.0
  H  H205  1  0.885800  0.715100  0.549400  1.0
  H  H206  1  0.114200  0.284900  0.450600  1.0
  H  H207  1  0.901200  0.760500  0.510000  1.0
  H  H208  1  0.098800  0.239500  0.490000  1.0
  H  H209  1  0.933700  0.372500  0.682800  1.0
  H  H210  1  0.066300  0.627500  0.317200  1.0
  H  H211  1  0.927100  0.403500  0.716500  1.0
  H  H212  1  0.072900  0.596500  0.283500  1.0
  H  H213  1  0.918200  0.493000  0.670400  1.0
  H  H214  1  0.081800  0.507000  0.329600  1.0
  H  H215  1  0.976200  0.446000  0.653800  1.0
  H  H216  1  0.023800  0.554000  0.346200  1.0
  H  H217  1  0.636500  0.535800  0.833400  1.0
  H  H218  1  0.363500  0.464200  0.166600  1.0
  H  H219  1  0.576600  0.529800  0.831200  1.0
  H  H220  1  0.423400  0.470200  0.168800  1.0
  H  H221  1  0.611600  0.623100  0.807000  1.0
  H  H222  1  0.388400  0.376900  0.193000  1.0
  H  H223  1  0.549000  0.617200  0.828000  1.0
  H  H224  1  0.451000  0.382800  0.172000  1.0
  H  H225  1  0.652500  0.863500  0.631100  1.0
  H  H226  1  0.347500  0.136500  0.368900  1.0
  H  H227  1  0.617700  0.921600  0.603100  1.0
  H  H228  1  0.382300  0.078400  0.396900  1.0
  H  H229  1  0.531600  0.910100  0.631100  1.0
  H  H230  1  0.468400  0.089900  0.368900  1.0
  H  H231  1  0.565000  0.893000  0.667100  1.0
  H  H232  1  0.435000  0.107000  0.332900  1.0
  H  H233  1  0.798700  0.899300  0.390200  1.0
  H  H234  1  0.201300  0.100700  0.609800  1.0
  H  H235  1  0.767100  0.966800  0.372600  1.0
  H  H236  1  0.232900  0.033200  0.627400  1.0
  H  H237  1  0.852000  0.961200  0.391500  1.0
  H  H238  1  0.148000  0.038800  0.608500  1.0
  H  H239  1  0.892000  0.910200  0.369500  1.0
  H  H240  1  0.108000  0.089800  0.630500  1.0
  H  H241  1  0.983200  0.115200  0.355000  1.0
  H  H242  1  0.016800  0.884800  0.645000  1.0
  H  H243  1  0.961200  0.184300  0.348200  1.0
  H  H244  1  0.038800  0.815700  0.651800  1.0
  H  H245  1  0.028900  0.148600  0.387300  1.0
  H  H246  1  0.971100  0.851400  0.612700  1.0
  H  H247  1  0.000000  0.101200  0.415100  1.0
  H  H248  1  0.000000  0.898800  0.584900  1.0
  H  H249  1  0.043800  0.316600  0.721100  1.0
  H  H250  1  0.956200  0.683400  0.278900  1.0
  H  H251  1  0.040900  0.310500  0.679500  1.0
  H  H252  1  0.959100  0.689500  0.320500  1.0
  H  H253  1  0.102600  0.234600  0.687600  1.0
  H  H254  1  0.897400  0.765400  0.312400  1.0
  H  H255  1  0.105900  0.240900  0.729000  1.0
  H  H256  1  0.894100  0.759100  0.271000  1.0
  H  H257  1  0.275200  0.687900  0.789800  1.0
  H  H258  1  0.724800  0.312100  0.210200  1.0
  H  H259  1  0.223000  0.671400  0.810600  1.0
  H  H260  1  0.777000  0.328600  0.189400  1.0
  H  H261  1  0.138700  0.790800  0.734700  1.0
  H  H262  1  0.861300  0.209200  0.265300  1.0
  H  H263  1  0.196900  0.795700  0.716100  1.0
  H  H264  1  0.803100  0.204300  0.283900  1.0
  H  H265  1  0.275300  0.669800  0.736800  1.0
  H  H266  1  0.724700  0.330200  0.263200  1.0
  H  H267  1  0.226600  0.641100  0.761800  1.0
  H  H268  1  0.773400  0.358900  0.238200  1.0
  H  H269  1  0.163500  0.703600  0.736900  1.0
  H  H270  1  0.836500  0.296400  0.263100  1.0
  H  H271  1  0.215800  0.716700  0.703600  1.0
  H  H272  1  0.784200  0.283300  0.296400  1.0
  H  H273  1  0.695900  0.976500  0.742000  1.0
  H  H274  1  0.304100  0.023500  0.258000  1.0
  H  H275  1  0.727300  0.972300  0.697800  1.0
  H  H276  1  0.272700  0.027700  0.302200  1.0
  H  H277  1  0.640200  0.951500  0.707600  1.0
  H  H278  1  0.359800  0.048500  0.292400  1.0
  H  H279  1  0.602200  0.007000  0.725300  1.0
  H  H280  1  0.397800  0.993000  0.274700  1.0
  H  H281  1  0.409400  0.437700  0.901200  1.0
  H  H282  1  0.590600  0.562300  0.098800  1.0
  H  H283  1  0.444300  0.476500  0.868300  1.0
  H  H284  1  0.555700  0.523500  0.131700  1.0
  H  H285  1  0.355900  0.540100  0.878900  1.0
  H  H286  1  0.644100  0.459900  0.121100  1.0
  H  H287  1  0.323700  0.495000  0.884200  1.0
  H  H288  1  0.676300  0.505000  0.115800  1.0
  H  H289  1  0.479000  0.066200  0.247700  1.0
  H  H290  1  0.521000  0.933800  0.752300  1.0
  H  H291  1  0.519400  0.008000  0.233600  1.0
  H  H292  1  0.480600  0.992000  0.766400  1.0
  H  H293  1  0.530900  0.995400  0.295800  1.0
  H  H294  1  0.469100  0.004600  0.704200  1.0
  H  H295  1  0.544900  0.054700  0.284100  1.0
  H  H296  1  0.455100  0.945300  0.715900  1.0
  H  H297  1  0.635400  0.354900  0.133800  1.0
  H  H298  1  0.364600  0.645100  0.866200  1.0
  H  H299  1  0.644500  0.367600  0.090700  1.0
  H  H300  1  0.355500  0.632400  0.909300  1.0
  H  H301  1  0.553400  0.285000  0.088700  1.0
  H  H302  1  0.446600  0.715000  0.911300  1.0
  H  H303  1  0.535600  0.277600  0.131700  1.0
  H  H304  1  0.464400  0.722400  0.868300  1.0
  H  H305  1  0.547200  0.392800  0.140200  1.0
  H  H306  1  0.452800  0.607200  0.859800  1.0
  H  H307  1  0.560900  0.422700  0.094600  1.0
  H  H308  1  0.439100  0.577300  0.905400  1.0
  H  H309  1  0.530300  0.373400  0.076900  1.0
  H  H310  1  0.469700  0.626600  0.923100  1.0
  H  H311  1  0.494900  0.366200  0.120400  1.0
  H  H312  1  0.505100  0.633800  0.879600  1.0
  H  H313  1  0.948700  0.494300  0.115200  1.0
  H  H314  1  0.051300  0.505700  0.884800  1.0
  H  H315  1  0.916900  0.471000  0.094200  1.0
  H  H316  1  0.083100  0.529000  0.905800  1.0
  H  H317  1  0.826800  0.528700  0.115800  1.0
  H  H318  1  0.173200  0.471300  0.884200  1.0
  H  H319  1  0.859200  0.501900  0.153100  1.0
  H  H320  1  0.140800  0.498100  0.846900  1.0
  H  H321  1  0.942300  0.107100  0.677500  1.0
  H  H322  1  0.057700  0.892900  0.322500  1.0
  H  H323  1  0.923500  0.175000  0.656100  1.0
  H  H324  1  0.076500  0.825000  0.343900  1.0
  H  H325  1  0.976500  0.081800  0.617500  1.0
  H  H326  1  0.023500  0.918200  0.382500  1.0
  H  H327  1  0.006000  0.127700  0.615800  1.0
  H  H328  1  0.994000  0.872300  0.384200  1.0
  H  H329  1  0.562600  0.884200  0.086600  1.0
  H  H330  1  0.437400  0.115800  0.913400  1.0
  H  H331  1  0.578400  0.856200  0.053900  1.0
  H  H332  1  0.421600  0.143800  0.946100  1.0
  H  H333  1  0.650600  0.726900  0.128200  1.0
  H  H334  1  0.349400  0.273100  0.871800  1.0
  H  H335  1  0.652900  0.759100  0.154500  1.0
  H  H336  1  0.347100  0.240900  0.845500  1.0
  H  H337  1  0.507700  0.827700  0.108400  1.0
  H  H338  1  0.492300  0.172300  0.891600  1.0
  H  H339  1  0.559700  0.776700  0.091100  1.0
  H  H340  1  0.440300  0.223300  0.908900  1.0
  H  H341  1  0.557300  0.753900  0.158100  1.0
  H  H342  1  0.442700  0.246100  0.841900  1.0
  H  H343  1  0.559500  0.816200  0.155700  1.0
  H  H344  1  0.440500  0.183800  0.844300  1.0
  H  H345  1  0.534200  0.213300  0.799400  1.0
  H  H346  1  0.465800  0.786700  0.200600  1.0
  H  H347  1  0.574000  0.148100  0.816000  1.0
  H  H348  1  0.426000  0.851900  0.184000  1.0
  H  H349  1  0.610500  0.173000  0.750100  1.0
  H  H350  1  0.389500  0.827000  0.249900  1.0
  H  H351  1  0.612100  0.232400  0.754200  1.0
  H  H352  1  0.387900  0.767600  0.245800  1.0
  H  H353  1  0.534300  0.901400  0.922000  1.0
  H  H354  1  0.465700  0.098600  0.078000  1.0
  H  H355  1  0.561200  0.947000  0.888900  1.0
  H  H356  1  0.438800  0.053000  0.111100  1.0
  H  H357  1  0.600500  0.860600  0.868300  1.0
  H  H358  1  0.399500  0.139400  0.131700  1.0
  H  H359  1  0.619500  0.824400  0.910200  1.0
  H  H360  1  0.380500  0.175600  0.089800  1.0
  H  H361  1  0.953600  0.570300  0.871600  1.0
  H  H362  1  0.046400  0.429700  0.128400  1.0
  H  H363  1  0.980800  0.621700  0.853000  1.0
  H  H364  1  0.019200  0.378300  0.147000  1.0
  H  H365  1  0.861800  0.631700  0.864000  1.0
  H  H366  1  0.138200  0.368300  0.136000  1.0
  H  H367  1  0.903000  0.647600  0.823100  1.0
  H  H368  1  0.097000  0.352400  0.176900  1.0
  H  H369  1  0.177900  0.452000  0.185000  1.0
  H  H370  1  0.822100  0.548000  0.815000  1.0
  H  H371  1  0.151000  0.439400  0.154700  1.0
  H  H372  1  0.849000  0.560600  0.845300  1.0
  H  H373  1  0.057100  0.489500  0.179700  1.0
  H  H374  1  0.942900  0.510500  0.820300  1.0
  H  H375  1  0.087100  0.446900  0.216900  1.0
  H  H376  1  0.912900  0.553100  0.783100  1.0
  H  H377  1  0.833800  0.448400  0.714300  1.0
  H  H378  1  0.166200  0.551600  0.285700  1.0
  H  H379  1  0.840100  0.393200  0.706800  1.0
  H  H380  1  0.159900  0.606800  0.293200  1.0
  H  H381  1  0.930200  0.440500  0.613000  1.0
  H  H382  1  0.069800  0.559500  0.387000  1.0
  H  H383  1  0.909700  0.503200  0.610300  1.0
  H  H384  1  0.090300  0.496800  0.389700  1.0
  H  H385  1  0.630200  0.486600  0.787900  1.0
  H  H386  1  0.369800  0.513400  0.212100  1.0
  H  H387  1  0.675600  0.513700  0.779500  1.0
  H  H388  1  0.324400  0.486300  0.220500  1.0
  H  H389  1  0.569200  0.664400  0.758300  1.0
  H  H390  1  0.430800  0.335600  0.241700  1.0
  H  H391  1  0.523000  0.637600  0.773700  1.0
  H  H392  1  0.477000  0.362400  0.226300  1.0
  H  H393  1  0.669400  0.834900  0.578600  1.0
  H  H394  1  0.330600  0.165100  0.421400  1.0
  H  H395  1  0.613200  0.873800  0.565900  1.0
  H  H396  1  0.386800  0.126200  0.434100  1.0
  H  H397  1  0.520300  0.827400  0.662200  1.0
  H  H398  1  0.479700  0.172600  0.337800  1.0
  H  H399  1  0.576600  0.802400  0.676700  1.0
  H  H400  1  0.423400  0.197600  0.323300  1.0
  H  H401  1  0.772700  0.923600  0.326200  1.0
  H  H402  1  0.227300  0.076400  0.673800  1.0
  H  H403  1  0.833400  0.884700  0.329300  1.0
  H  H404  1  0.166600  0.115300  0.670700  1.0
  H  H405  1  0.902600  0.986100  0.325300  1.0
  H  H406  1  0.097400  0.013900  0.674700  1.0
  H  H407  1  0.843100  0.024300  0.336400  1.0
  H  H408  1  0.156900  0.975700  0.663600  1.0
  H  H409  1  0.901400  0.110600  0.396500  1.0
  H  H410  1  0.098600  0.889400  0.603500  1.0
  H  H411  1  0.877800  0.164700  0.367700  1.0
  H  H412  1  0.122200  0.835300  0.632300  1.0
  H  H413  1  0.960800  0.216900  0.414200  1.0
  H  H414  1  0.039200  0.783100  0.585800  1.0
  H  H415  1  0.966100  0.167600  0.448900  1.0
  H  H416  1  0.033900  0.832400  0.551100  1.0
  H  H417  1  0.067700  0.388400  0.690100  1.0
  H  H418  1  0.932300  0.611600  0.309900  1.0
  H  H419  1  0.075800  0.376300  0.651700  1.0
  H  H420  1  0.924200  0.623700  0.348300  1.0
  H  H421  1  0.185700  0.240600  0.665600  1.0
  H  H422  1  0.814300  0.759400  0.334400  1.0
  H  H423  1  0.192400  0.234600  0.705800  1.0
  H  H424  1  0.807600  0.765400  0.294200  1.0
  H  H425  1  0.722400  0.058800  0.701000  1.0
  H  H426  1  0.277600  0.941200  0.299000  1.0
  H  H427  1  0.662200  0.072300  0.723200  1.0
  H  H428  1  0.337800  0.927700  0.276800  1.0
  H  H429  1  0.588800  0.040200  0.664100  1.0
  H  H430  1  0.411200  0.959800  0.335900  1.0
  H  H431  1  0.647800  0.005700  0.648000  1.0
  H  H432  1  0.352200  0.994300  0.352000  1.0
  H  H433  1  0.411400  0.393300  0.859900  1.0
  H  H434  1  0.588600  0.606700  0.140100  1.0
  H  H435  1  0.464200  0.409000  0.839500  1.0
  H  H436  1  0.535800  0.591000  0.160500  1.0
  H  H437  1  0.364800  0.560000  0.815700  1.0
  H  H438  1  0.635200  0.440000  0.184300  1.0
  H  H439  1  0.309600  0.547100  0.826000  1.0
  H  H440  1  0.690400  0.452900  0.174000  1.0
  H  H441  1  0.540900  0.111600  0.210800  1.0
  H  H442  1  0.459100  0.888400  0.789200  1.0
  H  H443  1  0.545200  0.075700  0.185100  1.0
  H  H444  1  0.454800  0.924300  0.814900  1.0
  H  H445  1  0.618300  0.953500  0.258800  1.0
  H  H446  1  0.381700  0.046500  0.741200  1.0
  H  H447  1  0.635500  0.984300  0.279200  1.0
  H  H448  1  0.364500  0.015700  0.720800  1.0
  H  H449  1  0.904200  0.548500  0.047300  1.0
  H  H450  1  0.095800  0.451500  0.952700  1.0
  H  H451  1  0.959700  0.545400  0.055700  1.0
  H  H452  1  0.040300  0.454600  0.944300  1.0
  H  H453  1  0.867700  0.583300  0.148700  1.0
  H  H454  1  0.132300  0.416700  0.851300  1.0
  H  H455  1  0.810600  0.603900  0.135700  1.0
  H  H456  1  0.189400  0.396100  0.864300  1.0
  H  H457  1  0.841400  0.149400  0.667300  1.0
  H  H458  1  0.158600  0.850600  0.332700  1.0
  H  H459  1  0.873800  0.097000  0.652300  1.0
  H  H460  1  0.126200  0.903000  0.347700  1.0
  H  H461  1  0.954600  0.145700  0.560400  1.0
  H  H462  1  0.045400  0.854300  0.439600  1.0
  H  H463  1  0.948300  0.196600  0.573600  1.0
  H  H464  1  0.051700  0.803400  0.426400  1.0
  H  H465  1  0.575900  0.194100  0.856400  1.0
  H  H466  1  0.424100  0.805900  0.143600  1.0
  H  H467  1  0.577700  0.247000  0.826000  1.0
  H  H468  1  0.422300  0.753000  0.174000  1.0
  H  H469  1  0.703500  0.173100  0.757000  1.0
  H  H470  1  0.296500  0.826900  0.243000  1.0
  H  H471  1  0.686400  0.122500  0.781300  1.0
  H  H472  1  0.313600  0.877500  0.218700  1.0
  H  H473  1  0.591400  0.890400  0.961700  1.0
  H  H474  1  0.408600  0.109600  0.038300  1.0
  H  H475  1  0.582300  0.951700  0.942100  1.0
  H  H476  1  0.417700  0.048300  0.057900  1.0
  H  H477  1  0.667800  0.903300  0.855600  1.0
  H  H478  1  0.332200  0.096700  0.144400  1.0
  H  H479  1  0.699600  0.842100  0.872000  1.0
  H  H480  1  0.300400  0.157900  0.128000  1.0
  H  H481  1  0.971200  0.608300  0.917000  1.0
  H  H482  1  0.028800  0.391700  0.083000  1.0
  H  H483  1  0.912800  0.602300  0.925500  1.0
  H  H484  1  0.087200  0.397700  0.074500  1.0
  H  H485  1  0.838400  0.725000  0.857100  1.0
  H  H486  1  0.161600  0.275000  0.142900  1.0
  H  H487  1  0.896200  0.727900  0.835400  1.0
  H  H488  1  0.103800  0.272100  0.164600  1.0
  H  H489  1  0.134500  0.525500  0.120800  1.0
  H  H490  1  0.865500  0.474500  0.879200  1.0
  H  H491  1  0.188000  0.517900  0.134000  1.0
  H  H492  1  0.812000  0.482100  0.866000  1.0
  H  H493  1  0.101100  0.519700  0.228900  1.0
  H  H494  1  0.898900  0.480300  0.771100  1.0
  H  H495  1  0.041600  0.547000  0.218900  1.0
  H  H496  1  0.958400  0.453000  0.781100  1.0
  Pd  Pd497  1  0.690440  0.078300  0.492890  1.0
  Pd  Pd498  1  0.309560  0.921700  0.507110  1.0
  Pd  Pd499  1  0.811660  0.668340  0.520210  1.0
  Pd  Pd500  1  0.188340  0.331660  0.479790  1.0
  Pd  Pd501  1  0.824840  0.468700  0.643950  1.0
  Pd  Pd502  1  0.175160  0.531300  0.356050  1.0
  Pd  Pd503  1  0.603410  0.575810  0.735030  1.0
  Pd  Pd504  1  0.396590  0.424190  0.264970  1.0
  Pd  Pd505  1  0.596050  0.783980  0.610740  1.0
  Pd  Pd506  1  0.403950  0.216020  0.389260  1.0
  Pd  Pd507  1  0.838910  0.979750  0.287050  1.0
  Pd  Pd508  1  0.161090  0.020250  0.712950  1.0
  Pd  Pd509  1  0.869320  0.190610  0.429190  1.0
  Pd  Pd510  1  0.130680  0.809390  0.570810  1.0
  Pd  Pd511  1  0.173980  0.338250  0.671110  1.0
  Pd  Pd512  1  0.826020  0.661750  0.328890  1.0
  Pd  Pd513  1  0.190130  0.777240  0.786610  1.0
  Pd  Pd514  1  0.809870  0.222760  0.213390  1.0
  Pd  Pd515  1  0.654490  0.096090  0.652830  1.0
  Pd  Pd516  1  0.345510  0.903910  0.347170  1.0
  Pd  Pd517  1  0.386130  0.468310  0.798860  1.0
  Pd  Pd518  1  0.613870  0.531690  0.201140  1.0
  Pd  Pd519  1  0.639660  0.037620  0.209100  1.0
  Pd  Pd520  1  0.360340  0.962380  0.790900  1.0
  Pd  Pd521  1  0.640560  0.268210  0.115860  1.0
  Pd  Pd522  1  0.359440  0.731790  0.884140  1.0
  Pd  Pd523  1  0.882840  0.628350  0.077190  1.0
  Pd  Pd524  1  0.117160  0.371650  0.922810  1.0
  Pd  Pd525  1  0.853550  0.179850  0.594780  1.0
  Pd  Pd526  1  0.146450  0.820150  0.405220  1.0
  Pd  Pd527  1  0.665210  0.819100  0.086120  1.0
  Pd  Pd528  1  0.334790  0.180900  0.913880  1.0
  Pd  Pd529  1  0.679910  0.180740  0.826820  1.0
  Pd  Pd530  1  0.320090  0.819260  0.173180  1.0
  Pd  Pd531  1  0.685650  0.896630  0.920310  1.0
  Pd  Pd532  1  0.314350  0.103370  0.079690  1.0
  Pd  Pd533  1  0.899550  0.705220  0.905740  1.0
  Pd  Pd534  1  0.100450  0.294780  0.094260  1.0
  Pd  Pd535  1  0.107520  0.589650  0.164240  1.0
  Pd  Pd536  1  0.892480  0.410350  0.835760  1.0
  C  C537  1  0.400600  0.362100  0.775900  1.0
  C  C538  1  0.599400  0.637900  0.224100  1.0
  C  C539  1  0.428500  0.317500  0.756600  1.0
  C  C540  1  0.571500  0.682500  0.243400  1.0
  C  C541  1  0.480400  0.313000  0.732400  1.0
  C  C542  1  0.519600  0.687000  0.267600  1.0
  C  C543  1  0.507500  0.354200  0.728200  1.0
  C  C544  1  0.492500  0.645800  0.271800  1.0
  C  C545  1  0.478900  0.398000  0.747700  1.0
  C  C546  1  0.521100  0.602000  0.252300  1.0
  C  C547  1  0.565800  0.351900  0.701900  1.0
  C  C548  1  0.434200  0.648100  0.298100  1.0
  C  C549  1  0.645900  0.306000  0.663100  1.0
  C  C550  1  0.354100  0.694000  0.336900  1.0
  C  C551  1  0.669900  0.349100  0.657600  1.0
  C  C552  1  0.330100  0.650900  0.342400  1.0
  C  C553  1  0.638600  0.390800  0.678400  1.0
  C  C554  1  0.361400  0.609200  0.321600  1.0
  C  C555  1  0.705500  0.512100  0.685400  1.0
  C  C556  1  0.294500  0.487900  0.314600  1.0
  C  C557  1  0.629800  0.476500  0.700400  1.0
  C  C558  1  0.370200  0.523500  0.299600  1.0
  C  C559  1  0.663400  0.433600  0.680300  1.0
  C  C560  1  0.336600  0.566400  0.319700  1.0
  C  C561  1  0.719900  0.432600  0.663500  1.0
  C  C562  1  0.280100  0.567400  0.336500  1.0
  C  C563  1  0.742600  0.156000  0.622800  1.0
  C  C564  1  0.257400  0.844000  0.377200  1.0
  C  C565  1  0.655200  0.210600  0.653700  1.0
  C  C566  1  0.344800  0.789400  0.346300  1.0
  C  C567  1  0.679000  0.255100  0.646200  1.0
  C  C568  1  0.321000  0.744900  0.353800  1.0
  C  C569  1  0.735000  0.245700  0.626700  1.0
  C  C570  1  0.265000  0.754300  0.373300  1.0
  C  C571  1  0.286900  0.302900  0.696800  1.0
  C  C572  1  0.713100  0.697100  0.303200  1.0
  C  C573  1  0.347500  0.278600  0.695500  1.0
  C  C574  1  0.652500  0.721400  0.304500  1.0
  C  C575  1  0.381100  0.263200  0.662200  1.0
  C  C576  1  0.618900  0.736800  0.337800  1.0
  C  C577  1  0.357900  0.269300  0.631500  1.0
  C  C578  1  0.642100  0.730700  0.368500  1.0
  C  C579  1  0.296700  0.294700  0.633600  1.0
  C  C580  1  0.703300  0.705300  0.366400  1.0
  C  C581  1  0.392600  0.252800  0.594700  1.0
  C  C582  1  0.607400  0.747200  0.405300  1.0
  C  C583  1  0.482600  0.208800  0.562700  1.0
  C  C584  1  0.517400  0.791200  0.437300  1.0
  C  C585  1  0.458200  0.219400  0.529400  1.0
  C  C586  1  0.541800  0.780600  0.470600  1.0
  C  C587  1  0.398300  0.246100  0.532800  1.0
  C  C588  1  0.601700  0.753900  0.467200  1.0
  C  C589  1  0.657700  0.108700  0.569700  1.0
  C  C590  1  0.342300  0.891300  0.430300  1.0
  C  C591  1  0.583700  0.152900  0.533100  1.0
  C  C592  1  0.416300  0.847100  0.466900  1.0
  C  C593  1  0.545700  0.176000  0.563700  1.0
  C  C594  1  0.454300  0.824000  0.436300  1.0
  C  C595  1  0.568400  0.160900  0.599500  1.0
  C  C596  1  0.431600  0.839100  0.400500  1.0
  C  C597  1  0.307500  0.276200  0.443000  1.0
  C  C598  1  0.692500  0.723800  0.557000  1.0
  C  C599  1  0.306100  0.283700  0.504100  1.0
  C  C600  1  0.693900  0.716300  0.495900  1.0
  C  C601  1  0.365500  0.256600  0.500900  1.0
  C  C602  1  0.634500  0.743400  0.499100  1.0
  C  C603  1  0.394400  0.240200  0.466400  1.0
  C  C604  1  0.605600  0.759800  0.533600  1.0
  C  C605  1  0.295900  0.510400  0.748900  1.0
  C  C606  1  0.704100  0.489600  0.251100  1.0
  C  C607  1  0.267000  0.542800  0.717700  1.0
  C  C608  1  0.733000  0.457200  0.282300  1.0
  C  C609  1  0.288400  0.583000  0.689700  1.0
  C  C610  1  0.711600  0.417000  0.310300  1.0
  C  C611  1  0.337000  0.591500  0.693100  1.0
  C  C612  1  0.663000  0.408500  0.306900  1.0
  C  C613  1  0.364300  0.555700  0.725500  1.0
  C  C614  1  0.635700  0.444300  0.274500  1.0
  C  C615  1  0.360200  0.636600  0.665700  1.0
  C  C616  1  0.639800  0.363400  0.334300  1.0
  C  C617  1  0.433300  0.676100  0.645200  1.0
  C  C618  1  0.566700  0.323900  0.354800  1.0
  C  C619  1  0.402400  0.718000  0.615600  1.0
  C  C620  1  0.597600  0.282000  0.384400  1.0
  C  C621  1  0.346700  0.716200  0.616300  1.0
  C  C622  1  0.653300  0.283800  0.383700  1.0
  C  C623  1  0.233200  0.848800  0.543600  1.0
  C  C624  1  0.766800  0.151200  0.456400  1.0
  C  C625  1  0.252600  0.761700  0.590400  1.0
  C  C626  1  0.747400  0.238300  0.409600  1.0
  C  C627  1  0.308300  0.762300  0.588400  1.0
  C  C628  1  0.691700  0.237700  0.411600  1.0
  C  C629  1  0.322700  0.809800  0.563300  1.0
  C  C630  1  0.677300  0.190200  0.436700  1.0
  C  C631  1  0.586300  0.676600  0.667600  1.0
  C  C632  1  0.413700  0.323400  0.332400  1.0
  C  C633  1  0.516100  0.635200  0.681600  1.0
  C  C634  1  0.483900  0.364800  0.318400  1.0
  C  C635  1  0.488400  0.677000  0.650800  1.0
  C  C636  1  0.511600  0.323000  0.349200  1.0
  C  C637  1  0.513300  0.718800  0.629600  1.0
  C  C638  1  0.486700  0.281200  0.370400  1.0
  C  C639  1  0.837900  0.550400  0.316000  1.0
  C  C640  1  0.162100  0.449600  0.684000  1.0
  C  C641  1  0.842500  0.493000  0.324500  1.0
  C  C642  1  0.157500  0.507000  0.675500  1.0
  C  C643  1  0.835200  0.463900  0.363400  1.0
  C  C644  1  0.164800  0.536100  0.636600  1.0
  C  C645  1  0.824900  0.492100  0.392600  1.0
  C  C646  1  0.175100  0.507900  0.607400  1.0
  C  C647  1  0.821600  0.550100  0.381300  1.0
  C  C648  1  0.178400  0.449900  0.618700  1.0
  C  C649  1  0.818700  0.463800  0.435000  1.0
  C  C650  1  0.181300  0.536200  0.565000  1.0
  C  C651  1  0.806900  0.467900  0.498200  1.0
  C  C652  1  0.193100  0.532100  0.501800  1.0
  C  C653  1  0.809100  0.410000  0.511700  1.0
  C  C654  1  0.190900  0.590000  0.488300  1.0
  C  C655  1  0.818100  0.382300  0.481800  1.0
  C  C656  1  0.181900  0.617700  0.518200  1.0
  C  C657  1  0.847400  0.204900  0.509700  1.0
  C  C658  1  0.152600  0.795100  0.490300  1.0
  C  C659  1  0.835600  0.291000  0.463700  1.0
  C  C660  1  0.164400  0.709000  0.536300  1.0
  C  C661  1  0.826700  0.318600  0.493500  1.0
  C  C662  1  0.173300  0.681400  0.506500  1.0
  C  C663  1  0.830800  0.284700  0.530400  1.0
  C  C664  1  0.169200  0.715300  0.469600  1.0
  C  C665  1  0.804200  0.562200  0.574500  1.0
  C  C666  1  0.195800  0.437800  0.425500  1.0
  C  C667  1  0.803500  0.558200  0.511700  1.0
  C  C668  1  0.196500  0.441800  0.488300  1.0
  C  C669  1  0.804700  0.501600  0.525200  1.0
  C  C670  1  0.195300  0.498400  0.474800  1.0
  C  C671  1  0.806800  0.477500  0.564500  1.0
  C  C672  1  0.193200  0.522500  0.435500  1.0
  C  C673  1  0.664800  0.254700  0.878100  1.0
  C  C674  1  0.335200  0.745300  0.121900  1.0
  C  C675  1  0.659800  0.270200  0.912900  1.0
  C  C676  1  0.340200  0.729800  0.087100  1.0
  C  C677  1  0.666667  0.225600  0.947800  1.0
  C  C678  1  0.333333  0.774400  0.052200  1.0
  C  C679  1  0.677200  0.170100  0.946800  1.0
  C  C680  1  0.322800  0.829900  0.053200  1.0
  C  C681  1  0.682100  0.159200  0.910600  1.0
  C  C682  1  0.317900  0.840800  0.089400  1.0
  C  C683  1  0.681300  0.122400  0.982800  1.0
  C  C684  1  0.318700  0.877600  0.017200  1.0
  C  C685  1  0.689200  0.029200  0.012400  1.0
  C  C686  1  0.310800  0.970800  0.987600  1.0
  C  C687  1  0.688300  0.036900  0.048200  1.0
  C  C688  1  0.311700  0.963100  0.951800  1.0
  C  C689  1  0.679800  0.094000  0.048800  1.0
  C  C690  1  0.320200  0.906000  0.951200  1.0
  C  C691  1  0.650200  0.145200  0.152700  1.0
  C  C692  1  0.349800  0.854800  0.847300  1.0
  C  C693  1  0.664800  0.167800  0.084600  1.0
  C  C694  1  0.335200  0.832200  0.915400  1.0
  C  C695  1  0.671400  0.111300  0.085600  1.0
  C  C696  1  0.328600  0.888700  0.914400  1.0
  C  C697  1  0.667100  0.073000  0.122500  1.0
  C  C698  1  0.332900  0.927000  0.877500  1.0
  C  C699  1  0.689100  0.871400  0.002100  1.0
  C  C700  1  0.310900  0.128600  0.997900  1.0
  C  C701  1  0.696000  0.963900  0.972100  1.0
  C  C702  1  0.304000  0.036100  0.027900  1.0
  C  C703  1  0.692800  0.972600  0.008300  1.0
  C  C704  1  0.307200  0.027400  0.991700  1.0
  C  C705  1  0.687200  0.928600  0.040800  1.0
  C  C706  1  0.312800  0.071400  0.959200  1.0
  C  C707  1  0.087000  0.672600  0.211500  1.0
  C  C708  1  0.913000  0.327400  0.788500  1.0
  C  C709  1  0.059200  0.720800  0.226300  1.0
  C  C710  1  0.940800  0.279200  0.773700  1.0
  C  C711  1  0.005700  0.758400  0.216000  1.0
  C  C712  1  0.994300  0.241600  0.784000  1.0
  C  C713  1  0.981100  0.744800  0.191900  1.0
  C  C714  1  0.018900  0.255200  0.808100  1.0
  C  C715  1  0.009800  0.694100  0.179000  1.0
  C  C716  1  0.990200  0.305900  0.821000  1.0
  C  C717  1  0.923200  0.782600  0.180700  1.0
  C  C718  1  0.076800  0.217400  0.819300  1.0
  C  C719  1  0.844600  0.864900  0.183100  1.0
  C  C720  1  0.155400  0.135100  0.816900  1.0
  C  C721  1  0.821200  0.853000  0.156400  1.0
  C  C722  1  0.178800  0.147000  0.843600  1.0
  C  C723  1  0.851700  0.800300  0.146300  1.0
  C  C724  1  0.148300  0.199700  0.853700  1.0
  C  C725  1  0.783800  0.735300  0.084200  1.0
  C  C726  1  0.216200  0.264700  0.915800  1.0
  C  C727  1  0.859300  0.726600  0.112800  1.0
  C  C728  1  0.140700  0.273400  0.887200  1.0
  C  C729  1  0.827300  0.778300  0.124100  1.0
  C  C730  1  0.172700  0.221700  0.875900  1.0
  C  C731  1  0.770500  0.804500  0.116300  1.0
  C  C732  1  0.229500  0.195500  0.883700  1.0
  C  C733  1  0.751700  0.000900  0.237900  1.0
  C  C734  1  0.248300  0.999100  0.762100  1.0
  C  C735  1  0.836500  0.925900  0.226500  1.0
  C  C736  1  0.163500  0.074100  0.773500  1.0
  C  C737  1  0.812700  0.914400  0.200600  1.0
  C  C738  1  0.187300  0.085600  0.799400  1.0
  C  C739  1  0.755100  0.950800  0.194500  1.0
  C  C740  1  0.244900  0.049200  0.805500  1.0
  C  C741  1  0.182000  0.661300  0.120200  1.0
  C  C742  1  0.818000  0.338700  0.879800  1.0
  C  C743  1  0.210000  0.690400  0.088100  1.0
  C  C744  1  0.790000  0.309600  0.911900  1.0
  C  C745  1  0.192300  0.707900  0.052600  1.0
  C  C746  1  0.807700  0.292100  0.947400  1.0
  C  C747  1  0.144600  0.692500  0.049400  1.0
  C  C748  1  0.855400  0.307500  0.950600  1.0
  C  C749  1  0.121600  0.658600  0.083800  1.0
  C  C750  1  0.878400  0.341400  0.916200  1.0
  C  C751  1  0.124600  0.706800  0.012800  1.0
  C  C752  1  0.875400  0.293200  0.987200  1.0
  C  C753  1  0.054300  0.710300  0.981900  1.0
  C  C754  1  0.945700  0.289700  0.018100  1.0
  C  C755  1  0.085900  0.730000  0.945700  1.0
  C  C756  1  0.914100  0.270000  0.054300  1.0
  C  C757  1  0.137300  0.736300  0.945800  1.0
  C  C758  1  0.862700  0.263700  0.054200  1.0
  C  C759  1  0.902000  0.676300  0.991300  1.0
  C  C760  1  0.098000  0.323700  0.008700  1.0
  C  C761  1  0.972600  0.675700  0.021500  1.0
  C  C762  1  0.027400  0.324300  0.978500  1.0
  C  C763  1  0.999300  0.700100  0.984900  1.0
  C  C764  1  0.000700  0.299900  0.015100  1.0
  C  C765  1  0.975200  0.709800  0.952900  1.0
  C  C766  1  0.024800  0.290200  0.047100  1.0
  C  C767  1  0.258600  0.765100  0.844700  1.0
  C  C768  1  0.741400  0.234900  0.155300  1.0
  C  C769  1  0.235900  0.743800  0.911900  1.0
  C  C770  1  0.764100  0.256200  0.088100  1.0
  C  C771  1  0.179000  0.749500  0.910100  1.0
  C  C772  1  0.821000  0.250500  0.089900  1.0
  C  C773  1  0.166600  0.763100  0.872300  1.0
  C  C774  1  0.833400  0.236900  0.127700  1.0
  C  C775  1  0.794300  0.197000  0.798700  1.0
  C  C776  1  0.205700  0.803000  0.201300  1.0
  C  C777  1  0.853300  0.182200  0.783100  1.0
  C  C778  1  0.146700  0.817800  0.216900  1.0
  C  C779  1  0.887000  0.123600  0.791000  1.0
  C  C780  1  0.113000  0.876400  0.209000  1.0
  C  C781  1  0.860200  0.081800  0.808800  1.0
  C  C782  1  0.139800  0.918200  0.191200  1.0
  C  C783  1  0.800100  0.100100  0.822200  1.0
  C  C784  1  0.199900  0.899900  0.177800  1.0
  C  C785  1  0.896000  0.018900  0.819000  1.0
  C  C786  1  0.104000  0.981100  0.181000  1.0
  C  C787  1  0.982900  0.949100  0.808200  1.0
  C  C788  1  0.017100  0.050900  0.191800  1.0
  C  C789  1  0.956800  0.906700  0.829800  1.0
  C  C790  1  0.043200  0.093300  0.170200  1.0
  C  C791  1  0.896500  0.927900  0.844500  1.0
  C  C792  1  0.103500  0.072100  0.155500  1.0
  C  C793  1  0.803700  0.813900  0.909700  1.0
  C  C794  1  0.196300  0.186100  0.090300  1.0
  C  C795  1  0.803100  0.908300  0.880500  1.0
  C  C796  1  0.196900  0.091700  0.119500  1.0
  C  C797  1  0.864800  0.887100  0.867800  1.0
  C  C798  1  0.135200  0.112900  0.132200  1.0
  C  C799  1  0.891800  0.827500  0.877500  1.0
  C  C800  1  0.108200  0.172500  0.122500  1.0
  C  C801  1  0.160100  0.902700  0.759500  1.0
  C  C802  1  0.839900  0.097300  0.240500  1.0
  C  C803  1  0.070000  0.973500  0.767900  1.0
  C  C804  1  0.930000  0.026500  0.232100  1.0
  C  C805  1  0.045300  0.931200  0.792300  1.0
  C  C806  1  0.954700  0.068800  0.207700  1.0
  C  C807  1  0.082000  0.875500  0.797900  1.0
  C  C808  1  0.918000  0.124500  0.202100  1.0
  C  C809  1  0.730100  0.974200  0.466400  1.0
  C  C810  1  0.269900  0.025800  0.533600  1.0
  C  C811  1  0.705500  0.961400  0.503600  1.0
  C  C812  1  0.294500  0.038600  0.496400  1.0
  C  C813  1  0.926100  0.679000  0.502600  1.0
  C  C814  1  0.073900  0.321000  0.497400  1.0
  C  C815  1  0.886900  0.727100  0.520600  1.0
  C  C816  1  0.113100  0.272900  0.479400  1.0
  C  C817  1  0.914800  0.409100  0.691500  1.0
  C  C818  1  0.085200  0.590900  0.308500  1.0
  C  C819  1  0.933000  0.457600  0.660400  1.0
  C  C820  1  0.067000  0.542400  0.339600  1.0
  C  C821  1  0.607600  0.546600  0.816100  1.0
  C  C822  1  0.392400  0.453400  0.183900  1.0
  C  C823  1  0.582500  0.606000  0.807000  1.0
  C  C824  1  0.417500  0.394000  0.193000  1.0
  C  C825  1  0.619500  0.881300  0.616300  1.0
  C  C826  1  0.380500  0.118700  0.383700  1.0
  C  C827  1  0.565200  0.881400  0.643600  1.0
  C  C828  1  0.434800  0.118600  0.356400  1.0
  C  C829  1  0.802500  0.933100  0.368600  1.0
  C  C830  1  0.197500  0.066900  0.631400  1.0
  C  C831  1  0.857300  0.945700  0.368600  1.0
  C  C832  1  0.142700  0.054300  0.631400  1.0
  C  C833  1  0.962200  0.147700  0.368000  1.0
  C  C834  1  0.037800  0.852300  0.632000  1.0
  C  C835  1  0.991300  0.141400  0.399000  1.0
  C  C836  1  0.008700  0.858600  0.601000  1.0
  C  C837  1  0.067200  0.311300  0.695100  1.0
  C  C838  1  0.932800  0.688700  0.304900  1.0
  C  C839  1  0.110100  0.259000  0.700500  1.0
  C  C840  1  0.889900  0.741000  0.299500  1.0
  C  C841  1  0.235800  0.677500  0.753100  1.0
  C  C842  1  0.764200  0.322500  0.246900  1.0
  C  C843  1  0.198000  0.716200  0.731400  1.0
  C  C844  1  0.802000  0.283800  0.268600  1.0
  C  C845  1  0.692300  0.993800  0.714000  1.0
  C  C846  1  0.307700  0.006200  0.286000  1.0
  C  C847  1  0.636200  0.991800  0.705800  1.0
  C  C848  1  0.363800  0.008200  0.294200  1.0
  C  C849  1  0.412000  0.460800  0.873700  1.0
  C  C850  1  0.588000  0.539200  0.126300  1.0
  C  C851  1  0.356600  0.508600  0.868600  1.0
  C  C852  1  0.643400  0.491400  0.131400  1.0
  C  C853  1  0.519900  0.041300  0.241200  1.0
  C  C854  1  0.480100  0.958700  0.758800  1.0
  C  C855  1  0.548700  0.021500  0.274400  1.0
  C  C856  1  0.451300  0.978500  0.725600  1.0
  C  C857  1  0.564800  0.385100  0.113800  1.0
  C  C858  1  0.435200  0.614900  0.886200  1.0
  C  C859  1  0.534800  0.356200  0.104700  1.0
  C  C860  1  0.465200  0.643800  0.895300  1.0
  C  C861  1  0.915700  0.505600  0.101100  1.0
  C  C862  1  0.084300  0.494400  0.898900  1.0
  C  C863  1  0.859200  0.528100  0.126600  1.0
  C  C864  1  0.140800  0.471900  0.873400  1.0
  C  C865  1  0.928000  0.136300  0.653900  1.0
  C  C866  1  0.072000  0.863700  0.346100  1.0
  C  C867  1  0.968400  0.122500  0.617200  1.0
  C  C868  1  0.031600  0.877500  0.382800  1.0
  C  C869  1  0.550700  0.808200  0.104000  1.0
  C  C870  1  0.449300  0.191800  0.896000  1.0
  C  C871  1  0.572800  0.785200  0.141500  1.0
  C  C872  1  0.427200  0.214800  0.858500  1.0
  C  C873  1  0.574000  0.188200  0.804600  1.0
  C  C874  1  0.426000  0.811800  0.195400  1.0
  C  C875  1  0.617000  0.191500  0.767800  1.0
  C  C876  1  0.383000  0.808500  0.232200  1.0
  C  C877  1  0.570800  0.910300  0.909200  1.0
  C  C878  1  0.429200  0.089700  0.090800  1.0
  C  C879  1  0.614400  0.862000  0.890800  1.0
  C  C880  1  0.385600  0.138000  0.109200  1.0
  C  C881  1  0.946100  0.611600  0.869400  1.0
  C  C882  1  0.053900  0.388400  0.130600  1.0
  C  C883  1  0.894400  0.647300  0.851300  1.0
  C  C884  1  0.105600  0.352700  0.148700  1.0
  C  C885  1  0.146300  0.468100  0.169100  1.0
  C  C886  1  0.853700  0.531900  0.830900  1.0
  C  C887  1  0.088400  0.480600  0.194700  1.0
  C  C888  1  0.911600  0.519400  0.805300  1.0
  N  N889  1  0.649300  0.516100  0.703800  1.0
  N  N890  1  0.350700  0.483900  0.296200  1.0
  N  N891  1  0.740100  0.470700  0.666300  1.0
  N  N892  1  0.259900  0.529300  0.333700  1.0
  N  N893  1  0.685800  0.162800  0.642300  1.0
  N  N894  1  0.314200  0.837200  0.357700  1.0
  N  N895  1  0.767000  0.196500  0.614600  1.0
  N  N896  1  0.233000  0.803500  0.385400  1.0
  N  N897  1  0.064000  0.658500  0.188000  1.0
  N  N898  1  0.936000  0.341500  0.812000  1.0
  N  N899  1  0.952600  0.005300  0.802900  1.0
  N  N900  1  0.047400  0.994700  0.197100  1.0
  N  N901  1  0.866100  0.983900  0.839400  1.0
  N  N902  1  0.133900  0.016100  0.160600  1.0
  N  N903  1  0.426200  0.402300  0.771900  1.0
  N  N904  1  0.573800  0.597700  0.228100  1.0
  N  N905  1  0.592600  0.307700  0.685900  1.0
  N  N906  1  0.407400  0.692300  0.314100  1.0
  N  N907  1  0.586100  0.393500  0.700800  1.0
  N  N908  1  0.413900  0.606500  0.299200  1.0
  N  N909  1  0.262300  0.309600  0.667300  1.0
  N  N910  1  0.737700  0.690400  0.332700  1.0
  N  N911  1  0.365100  0.263500  0.565700  1.0
  N  N912  1  0.634900  0.736500  0.434300  1.0
  N  N913  1  0.449800  0.227300  0.595100  1.0
  N  N914  1  0.550200  0.772700  0.404900  1.0
  N  N915  1  0.623300  0.127900  0.600600  1.0
  N  N916  1  0.376700  0.872100  0.399400  1.0
  N  N917  1  0.639800  0.119500  0.536200  1.0
  N  N918  1  0.360200  0.880500  0.463800  1.0
  N  N919  1  0.277200  0.293200  0.475800  1.0
  N  N920  1  0.722800  0.706800  0.524200  1.0
  N  N921  1  0.365200  0.248800  0.437700  1.0
  N  N922  1  0.634800  0.751200  0.562300  1.0
  N  N923  1  0.344500  0.517400  0.752200  1.0
  N  N924  1  0.655500  0.482600  0.247800  1.0
  N  N925  1  0.412300  0.634600  0.668700  1.0
  N  N926  1  0.587700  0.365400  0.331300  1.0
  N  N927  1  0.325400  0.676400  0.640500  1.0
  N  N928  1  0.674600  0.323600  0.359500  1.0
  N  N929  1  0.564500  0.634300  0.688900  1.0
  N  N930  1  0.435500  0.365700  0.311100  1.0
  N  N931  1  0.561900  0.718000  0.637600  1.0
  N  N932  1  0.438100  0.282000  0.362400  1.0
  N  N933  1  0.216000  0.805800  0.567100  1.0
  N  N934  1  0.784000  0.194200  0.432900  1.0
  N  N935  1  0.286600  0.850900  0.541700  1.0
  N  N936  1  0.713400  0.149100  0.458300  1.0
  N  N937  1  0.828200  0.578200  0.343100  1.0
  N  N938  1  0.171800  0.421800  0.656900  1.0
  N  N939  1  0.811300  0.495000  0.459700  1.0
  N  N940  1  0.188700  0.505000  0.540300  1.0
  N  N941  1  0.822000  0.407200  0.444600  1.0
  N  N942  1  0.178000  0.592800  0.555400  1.0
  N  N943  1  0.846800  0.233900  0.472300  1.0
  N  N944  1  0.153200  0.766100  0.527700  1.0
  N  N945  1  0.841100  0.228100  0.539400  1.0
  N  N946  1  0.158900  0.771900  0.460600  1.0
  N  N947  1  0.803900  0.588100  0.535500  1.0
  N  N948  1  0.196100  0.411900  0.464500  1.0
  N  N949  1  0.807500  0.507600  0.588900  1.0
  N  N950  1  0.192500  0.492400  0.411100  1.0
  N  N951  1  0.676200  0.201900  0.876800  1.0
  N  N952  1  0.323800  0.798100  0.123200  1.0
  N  N953  1  0.687700  0.070900  0.979200  1.0
  N  N954  1  0.312300  0.929100  0.020800  1.0
  N  N955  1  0.676800  0.137600  0.015800  1.0
  N  N956  1  0.323200  0.862400  0.984200  1.0
  N  N957  1  0.653500  0.184600  0.118800  1.0
  N  N958  1  0.346500  0.815400  0.881200  1.0
  N  N959  1  0.657300  0.091200  0.154700  1.0
  N  N960  1  0.342700  0.908800  0.845300  1.0
  N  N961  1  0.693000  0.914300  0.969600  1.0
  N  N962  1  0.307000  0.085700  0.030400  1.0
  N  N963  1  0.685500  0.877900  0.038500  1.0
  N  N964  1  0.314500  0.122100  0.961500  1.0
  N  N965  1  0.895000  0.830400  0.194700  1.0
  N  N966  1  0.105000  0.169600  0.805300  1.0
  N  N967  1  0.902100  0.765600  0.157900  1.0
  N  N968  1  0.097900  0.234400  0.842100  1.0
  N  N969  1  0.840600  0.703600  0.092900  1.0
  N  N970  1  0.159400  0.296400  0.907100  1.0
  N  N971  1  0.750300  0.781900  0.095800  1.0
  N  N972  1  0.249700  0.218100  0.904200  1.0
  N  N973  1  0.806500  0.968200  0.245200  1.0
  N  N974  1  0.193500  0.031800  0.754800  1.0
  N  N975  1  0.725500  0.993800  0.214200  1.0
  N  N976  1  0.274500  0.006200  0.785800  1.0
  N  N977  1  0.140000  0.642200  0.117500  1.0
  N  N978  1  0.860000  0.357800  0.882500  1.0
  N  N979  1  0.073600  0.699500  0.014900  1.0
  N  N980  1  0.926400  0.300500  0.985100  1.0
  N  N981  1  0.156900  0.724800  0.980100  1.0
  N  N982  1  0.843100  0.275200  0.019900  1.0
  N  N983  1  0.921500  0.666200  0.024000  1.0
  N  N984  1  0.078500  0.333800  0.976000  1.0
  N  N985  1  0.926200  0.697800  0.956000  1.0
  N  N986  1  0.073800  0.302200  0.044000  1.0
  N  N987  1  0.275300  0.751500  0.879600  1.0
  N  N988  1  0.724700  0.248500  0.120400  1.0
  N  N989  1  0.205800  0.771900  0.840500  1.0
  N  N990  1  0.794200  0.228100  0.159500  1.0
  N  N991  1  0.768300  0.156500  0.815800  1.0
  N  N992  1  0.231700  0.843500  0.184200  1.0
  N  N993  1  0.774200  0.872300  0.900900  1.0
  N  N994  1  0.225800  0.127700  0.099100  1.0
  N  N995  1  0.860500  0.791400  0.898200  1.0
  N  N996  1  0.139500  0.208600  0.101800  1.0
  N  N997  1  0.127500  0.960300  0.751300  1.0
  N  N998  1  0.872500  0.039700  0.248700  1.0
  N  N999  1  0.139700  0.862100  0.780400  1.0
  N  N1000  1  0.860300  0.137900  0.219600  1.0
  N  N1001  1  0.737500  0.031800  0.452400  1.0
  N  N1002  1  0.262500  0.968200  0.547600  1.0
  N  N1003  1  0.667400  0.007100  0.523600  1.0
  N  N1004  1  0.332600  0.992900  0.476400  1.0
  N  N1005  1  0.899900  0.632700  0.517500  1.0
  N  N1006  1  0.100100  0.367300  0.482500  1.0
  N  N1007  1  0.826800  0.743500  0.511500  1.0
  N  N1008  1  0.173200  0.256500  0.488500  1.0
  N  N1009  1  0.237500  0.694000  0.788600  1.0
  N  N1010  1  0.762500  0.306000  0.211400  1.0
  N  N1011  1  0.177600  0.774500  0.736100  1.0
  N  N1012  1  0.822400  0.225500  0.263900  1.0
  N  N1013  1  0.623300  0.352400  0.113100  1.0
  N  N1014  1  0.376700  0.647600  0.886900  1.0
  N  N1015  1  0.556500  0.294500  0.109900  1.0
  N  N1016  1  0.443500  0.705500  0.890100  1.0
  N  N1017  1  0.580700  0.849900  0.079500  1.0
  N  N1018  1  0.419300  0.150100  0.920500  1.0
  N  N1019  1  0.638100  0.762400  0.133400  1.0
  N  N1020  1  0.361900  0.237600  0.866600  1.0
  N  N1021  1  0.851000  0.425400  0.697000  1.0
  N  N1022  1  0.149000  0.574600  0.303000  1.0
  N  N1023  1  0.908800  0.468400  0.626400  1.0
  N  N1024  1  0.091200  0.531600  0.373600  1.0
  N  N1025  1  0.636300  0.520800  0.783200  1.0
  N  N1026  1  0.363700  0.479200  0.216800  1.0
  N  N1027  1  0.562300  0.630400  0.769900  1.0
  N  N1028  1  0.437700  0.369600  0.230100  1.0
  N  N1029  1  0.630200  0.849600  0.586900  1.0
  N  N1030  1  0.369800  0.150400  0.413100  1.0
  N  N1031  1  0.558900  0.823900  0.655400  1.0
  N  N1032  1  0.441100  0.176100  0.344600  1.0
  N  N1033  1  0.808200  0.921000  0.329900  1.0
  N  N1034  1  0.191800  0.079000  0.670100  1.0
  N  N1035  1  0.864200  0.988500  0.332200  1.0
  N  N1036  1  0.135800  0.011500  0.667800  1.0
  N  N1037  1  0.901300  0.147700  0.386400  1.0
  N  N1038  1  0.098700  0.852300  0.613600  1.0
  N  N1039  1  0.955400  0.181900  0.424700  1.0
  N  N1040  1  0.044600  0.818100  0.575300  1.0
  N  N1041  1  0.086000  0.361000  0.676000  1.0
  N  N1042  1  0.914000  0.639000  0.324000  1.0
  N  N1043  1  0.170700  0.256700  0.686600  1.0
  N  N1044  1  0.829300  0.743300  0.313400  1.0
  N  N1045  1  0.686700  0.055400  0.703700  1.0
  N  N1046  1  0.313300  0.944600  0.296300  1.0
  N  N1047  1  0.627400  0.027600  0.665800  1.0
  N  N1048  1  0.372600  0.972400  0.334200  1.0
  N  N1049  1  0.424700  0.423500  0.847100  1.0
  N  N1050  1  0.575300  0.576500  0.152900  1.0
  N  N1051  1  0.348500  0.531600  0.827300  1.0
  N  N1052  1  0.651500  0.468400  0.172700  1.0
  N  N1053  1  0.552900  0.074700  0.208400  1.0
  N  N1054  1  0.447100  0.925300  0.791600  1.0
  N  N1055  1  0.613800  0.989000  0.261300  1.0
  N  N1056  1  0.386200  0.011000  0.738700  1.0
  N  N1057  1  0.921200  0.550700  0.065600  1.0
  N  N1058  1  0.078800  0.449300  0.934400  1.0
  N  N1059  1  0.849600  0.585200  0.129500  1.0
  N  N1060  1  0.150400  0.414800  0.870500  1.0
  N  N1061  1  0.871000  0.134300  0.648900  1.0
  N  N1062  1  0.129000  0.865700  0.351100  1.0
  N  N1063  1  0.940000  0.163100  0.580900  1.0
  N  N1064  1  0.060000  0.836900  0.419100  1.0
  N  N1065  1  0.591800  0.207700  0.831300  1.0
  N  N1066  1  0.408200  0.792300  0.168700  1.0
  N  N1067  1  0.677100  0.161400  0.777300  1.0
  N  N1068  1  0.322900  0.838600  0.222700  1.0
  N  N1069  1  0.598400  0.915200  0.938400  1.0
  N  N1070  1  0.401600  0.084800  0.061600  1.0
  N  N1071  1  0.670000  0.874100  0.877700  1.0
  N  N1072  1  0.330000  0.125900  0.122300  1.0
  N  N1073  1  0.936400  0.621700  0.908300  1.0
  N  N1074  1  0.063600  0.378300  0.091700  1.0
  N  N1075  1  0.877700  0.707200  0.856300  1.0
  N  N1076  1  0.122300  0.292800  0.143700  1.0
  N  N1077  1  0.149700  0.520600  0.142200  1.0
  N  N1078  1  0.850300  0.479400  0.857800  1.0
  N  N1079  1  0.080100  0.531000  0.209200  1.0
  N  N1080  1  0.919900  0.469000  0.790800  1.0
  N  N1081  1  0.834800  0.816200  0.996600  1.0
  N  N1082  1  0.165200  0.183800  0.003400  1.0
  N  N1083  1  0.515600  0.169700  0.713400  1.0
  N  N1084  1  0.484400  0.830300  0.286600  1.0
  N  N1085  1  0.052200  0.729200  0.844600  1.0
  N  N1086  1  0.947800  0.270800  0.155400  1.0
  N  N1087  1  0.801100  0.125900  0.351500  1.0
  N  N1088  1  0.198900  0.874100  0.648500  1.0
  N  N1089  1  0.549000  0.139200  0.441100  1.0
  N  N1090  1  0.451000  0.860800  0.558900  1.0
  N  N1091  1  0.249600  0.192900  0.763600  1.0
  N  N1092  1  0.750400  0.807100  0.236400  1.0
  N  N1093  1  0.845700  0.324400  0.347400  1.0
  N  N1094  1  0.154300  0.675600  0.652600  1.0
  N  N1095  1  0.558400  0.014700  0.995800  1.0
  N  N1096  1  0.441600  0.985300  0.004200  1.0
  N  N1097  1  0.849800  0.321600  0.619600  1.0
  N  N1098  1  0.150200  0.678400  0.380400  1.0
  N  N1099  1  0.798400  0.093700  0.158200  1.0
  N  N1100  1  0.201600  0.906300  0.841800  1.0
  N  N1101  1  0.972800  0.057300  0.297900  1.0
  N  N1102  1  0.027200  0.942700  0.702100  1.0
  N  N1103  1  0.760100  0.234000  0.711800  1.0
  N  N1104  1  0.239900  0.766000  0.288200  1.0
  N  N1105  1  0.395700  0.670000  0.782300  1.0
  N  N1106  1  0.604300  0.330000  0.217700  1.0
  N  N1107  1  0.285000  0.623300  0.194500  1.0
  N  N1108  1  0.715000  0.376700  0.805500  1.0
  N  N1109  1  0.964700  0.304900  0.439300  1.0
  N  N1110  1  0.035300  0.695100  0.560700  1.0
  N  N1111  1  0.646200  0.922900  0.152000  1.0
  N  N1112  1  0.353800  0.077100  0.848000  1.0
  N  N1113  1  0.749800  0.656200  0.649000  1.0
  N  N1114  1  0.250200  0.343800  0.351000  1.0
  N  N1115  1  0.502500  0.511200  0.778500  1.0
  N  N1116  1  0.497500  0.488800  0.221500  1.0
  N  N1117  1  0.650300  0.049700  0.874200  1.0
  N  N1118  1  0.349700  0.950300  0.125800  1.0
  N  N1119  1  0.714000  0.842600  0.464600  1.0
  N  N1120  1  0.286000  0.157400  0.535400  1.0
  N  N1121  1  0.780300  0.597100  0.224000  1.0
  N  N1122  1  0.219700  0.402900  0.776000  1.0
  N  N1123  1  0.748100  0.715400  0.984500  1.0
  N  N1124  1  0.251900  0.284600  0.015500  1.0
  N  N1125  1  0.704500  0.222500  0.532300  1.0
  N  N1126  1  0.295500  0.777500  0.467700  1.0
  N  N1127  1  0.987000  0.594600  0.129500  1.0
  N  N1128  1  0.013000  0.405400  0.870500  1.0
  N  N1129  1  0.506000  0.066900  0.629300  1.0
  N  N1130  1  0.494000  0.933100  0.370700  1.0
  N  N1131  1  0.671700  0.148500  0.252500  1.0
  N  N1132  1  0.328300  0.851500  0.747500  1.0
  N  N1133  1  0.661000  0.595800  0.597900  1.0
  N  N1134  1  0.339000  0.404200  0.402100  1.0
  N  N1135  1  0.671700  0.317700  0.011600  1.0
  N  N1136  1  0.328300  0.682300  0.988400  1.0
  N  N1137  1  0.976900  0.856800  0.277600  1.0
  N  N1138  1  0.023100  0.143200  0.722400  1.0
  N  N1139  1  0.500700  0.217300  0.199400  1.0
  N  N1140  1  0.499300  0.782700  0.800600  1.0
  N  N1141  1  0.508100  0.298600  0.895500  1.0
  N  N1142  1  0.491900  0.701400  0.104500  1.0
  N  N1143  1  0.834900  0.679700  0.420900  1.0
  N  N1144  1  0.165100  0.320300  0.579100  1.0
  N  N1145  1  0.762600  0.379100  0.098100  1.0
  N  N1146  1  0.237400  0.620900  0.901900  1.0
  N  N1147  1  0.215500  0.486600  0.240500  1.0
  N  N1148  1  0.784500  0.513400  0.759500  1.0
  N  N1149  1  0.041200  0.556200  0.991800  1.0
  N  N1150  1  0.958800  0.443800  0.008200  1.0
  N  N1151  1  0.303200  0.376500  0.871300  1.0
  N  N1152  1  0.696800  0.623500  0.128700  1.0
  N  N1153  1  0.058100  0.501700  0.497000  0.5
  N  N1154  1  0.941900  0.498300  0.503000  0.5
  N  N1155  1  0.060000  0.465000  0.561800  0.5
  N  N1156  1  0.940000  0.535000  0.438200  0.5
  N  N1157  1  0.814100  0.052500  0.558500  0.5
  N  N1158  1  0.185900  0.947500  0.441500  0.5
  N  N1159  1  0.831000  0.058400  0.544000  0.5
  N  N1160  1  0.169000  0.941600  0.456000  0.5
  N  N1161  1  0.742000  0.937000  0.600100  0.5
  N  N1162  1  0.258000  0.063000  0.399900  0.5
  N  N1163  1  0.721100  0.009200  0.794900  0.5
  N  N1164  1  0.278900  0.990800  0.205100  0.5
  O  O1165  1  0.841200  0.855400  0.967300  1.0
  O  O1166  1  0.158800  0.144600  0.032700  1.0
  O  O1167  1  0.855300  0.809200  0.026600  1.0
  O  O1168  1  0.144700  0.190800  0.973400  1.0
  O  O1169  1  0.806900  0.786200  0.997200  1.0
  O  O1170  1  0.193100  0.213800  0.002800  1.0
  O  O1171  1  0.528400  0.202300  0.681300  1.0
  O  O1172  1  0.471600  0.797700  0.318700  1.0
  O  O1173  1  0.466800  0.180800  0.735100  1.0
  O  O1174  1  0.533200  0.819200  0.264900  1.0
  O  O1175  1  0.554800  0.127600  0.725000  1.0
  O  O1176  1  0.445200  0.872400  0.275000  1.0
  O  O1177  1  0.034000  0.768800  0.862200  1.0
  O  O1178  1  0.966000  0.231200  0.137800  1.0
  O  O1179  1  0.103400  0.712100  0.828800  1.0
  O  O1180  1  0.896600  0.287900  0.171200  1.0
  O  O1181  1  0.021700  0.700600  0.846200  1.0
  O  O1182  1  0.978300  0.299400  0.153800  1.0
  O  O1183  1  0.786900  0.114300  0.325200  1.0
  O  O1184  1  0.213100  0.885700  0.674800  1.0
  O  O1185  1  0.801900  0.176200  0.347300  1.0
  O  O1186  1  0.198100  0.823800  0.652700  1.0
  O  O1187  1  0.813500  0.089400  0.382800  1.0
  O  O1188  1  0.186500  0.910600  0.617200  1.0
  O  O1189  1  0.540800  0.185000  0.447900  1.0
  O  O1190  1  0.459200  0.815000  0.552100  1.0
  O  O1191  1  0.511700  0.135900  0.425100  1.0
  O  O1192  1  0.488300  0.864100  0.574900  1.0
  O  O1193  1  0.592700  0.097000  0.447800  1.0
  O  O1194  1  0.407300  0.903000  0.552200  1.0
  O  O1195  1  0.251000  0.168000  0.739100  1.0
  O  O1196  1  0.749000  0.832000  0.260900  1.0
  O  O1197  1  0.289300  0.173200  0.784100  1.0
  O  O1198  1  0.710700  0.826800  0.215900  1.0
  O  O1199  1  0.210100  0.242500  0.767400  1.0
  O  O1200  1  0.789900  0.757500  0.232600  1.0
  O  O1201  1  0.811300  0.335300  0.376600  1.0
  O  O1202  1  0.188700  0.664700  0.623400  1.0
  O  O1203  1  0.855500  0.365800  0.317800  1.0
  O  O1204  1  0.144500  0.634200  0.682200  1.0
  O  O1205  1  0.872800  0.273600  0.344100  1.0
  O  O1206  1  0.127200  0.726400  0.655900  1.0
  O  O1207  1  0.565000  0.963100  0.016100  1.0
  O  O1208  1  0.435000  0.036900  0.983900  1.0
  O  O1209  1  0.547200  0.052600  0.013900  1.0
  O  O1210  1  0.452800  0.947400  0.986100  1.0
  O  O1211  1  0.561400  0.030600  0.959400  1.0
  O  O1212  1  0.438600  0.969400  0.040600  1.0
  O  O1213  1  0.803000  0.341700  0.605900  1.0
  O  O1214  1  0.197000  0.658300  0.394100  1.0
  O  O1215  1  0.860300  0.348100  0.637900  1.0
  O  O1216  1  0.139700  0.651900  0.362100  1.0
  O  O1217  1  0.885900  0.275400  0.613900  1.0
  O  O1218  1  0.114100  0.724600  0.386100  1.0
  O  O1219  1  0.760800  0.109500  0.186000  1.0
  O  O1220  1  0.239200  0.890500  0.814000  1.0
  O  O1221  1  0.787100  0.113100  0.124500  1.0
  O  O1222  1  0.212900  0.886900  0.875500  1.0
  O  O1223  1  0.845700  0.054100  0.166600  1.0
  O  O1224  1  0.154300  0.945900  0.833400  1.0
  O  O1225  1  0.923100  0.095300  0.298700  1.0
  O  O1226  1  0.076900  0.904700  0.701300  1.0
  O  O1227  1  0.981500  0.004500  0.306800  1.0
  O  O1228  1  0.018500  0.995500  0.693200  1.0
  O  O1229  1  0.013700  0.081400  0.279400  1.0
  O  O1230  1  0.986300  0.918600  0.720600  1.0
  O  O1231  1  0.763600  0.187100  0.711100  1.0
  O  O1232  1  0.236400  0.812900  0.288900  1.0
  O  O1233  1  0.720400  0.265100  0.731600  1.0
  O  O1234  1  0.279600  0.734900  0.268400  1.0
  O  O1235  1  0.799600  0.255300  0.690900  1.0
  O  O1236  1  0.200400  0.744700  0.309100  1.0
  O  O1237  1  0.355700  0.654800  0.806400  1.0
  O  O1238  1  0.644300  0.345200  0.193600  1.0
  O  O1239  1  0.433900  0.677100  0.794900  1.0
  O  O1240  1  0.566100  0.322900  0.205100  1.0
  O  O1241  1  0.402900  0.676000  0.748200  1.0
  O  O1242  1  0.597100  0.324000  0.251800  1.0
  O  O1243  1  0.237700  0.664900  0.192300  1.0
  O  O1244  1  0.762300  0.335100  0.807700  1.0
  O  O1245  1  0.310700  0.602200  0.223500  1.0
  O  O1246  1  0.689300  0.397800  0.776500  1.0
  O  O1247  1  0.308200  0.603500  0.161800  1.0
  O  O1248  1  0.691800  0.396500  0.838200  1.0
  O  O1249  1  0.691700  0.934300  0.132300  1.0
  O  O1250  1  0.308300  0.065700  0.867700  1.0
  O  O1251  1  0.634100  0.883900  0.147500  1.0
  O  O1252  1  0.365900  0.116100  0.852500  1.0
  O  O1253  1  0.613700  0.952100  0.175500  1.0
  O  O1254  1  0.386300  0.047900  0.824500  1.0
  O  O1255  1  0.957200  0.349300  0.450100  1.0
  O  O1256  1  0.042800  0.650700  0.549900  1.0
  O  O1257  1  0.972700  0.257600  0.464900  1.0
  O  O1258  1  0.027300  0.742400  0.535100  1.0
  O  O1259  1  0.958500  0.309100  0.402500  1.0
  O  O1260  1  0.041500  0.690900  0.597500  1.0
  O  O1261  1  0.710400  0.701300  0.648000  1.0
  O  O1262  1  0.289600  0.298700  0.352000  1.0
  O  O1263  1  0.753000  0.617100  0.675800  1.0
  O  O1264  1  0.247000  0.382900  0.324200  1.0
  O  O1265  1  0.785600  0.657400  0.618700  1.0
  O  O1266  1  0.214400  0.342600  0.381300  1.0
  O  O1267  1  0.496300  0.521000  0.745100  1.0
  O  O1268  1  0.503700  0.479000  0.254900  1.0
  O  O1269  1  0.537400  0.463300  0.794300  1.0
  O  O1270  1  0.462600  0.536700  0.205700  1.0
  O  O1271  1  0.476800  0.548500  0.797400  1.0
  O  O1272  1  0.523200  0.451500  0.202600  1.0
  O  O1273  1  0.700000  0.036800  0.882100  1.0
  O  O1274  1  0.300000  0.963200  0.117900  1.0
  O  O1275  1  0.627200  0.012200  0.879700  1.0
  O  O1276  1  0.372800  0.987800  0.120300  1.0
  O  O1277  1  0.610900  0.100400  0.880100  1.0
  O  O1278  1  0.389100  0.899600  0.119900  1.0
  O  O1279  1  0.812500  0.547600  0.227400  1.0
  O  O1280  1  0.187500  0.452400  0.772600  1.0
  O  O1281  1  0.729400  0.613000  0.243100  1.0
  O  O1282  1  0.270600  0.387000  0.756900  1.0
  O  O1283  1  0.794600  0.640200  0.199600  1.0
  O  O1284  1  0.205400  0.359800  0.800400  1.0
  O  O1285  1  0.698000  0.836800  0.499900  1.0
  O  O1286  1  0.302000  0.163200  0.500100  1.0
  O  O1287  1  0.680800  0.850700  0.444900  1.0
  O  O1288  1  0.319200  0.149300  0.555100  1.0
  O  O1289  1  0.768200  0.835100  0.449100  1.0
  O  O1290  1  0.231800  0.164900  0.550900  1.0
  O  O1291  1  0.745000  0.693400  0.020600  1.0
  O  O1292  1  0.255000  0.306600  0.979400  1.0
  O  O1293  1  0.704500  0.762300  0.975800  1.0
  O  O1294  1  0.295500  0.237700  0.024200  1.0
  O  O1295  1  0.786300  0.696300  0.959900  1.0
  O  O1296  1  0.213700  0.303700  0.040100  1.0
  O  O1297  1  0.741000  0.173000  0.536900  1.0
  O  O1298  1  0.259000  0.827000  0.463100  1.0
  O  O1299  1  0.663600  0.238300  0.558400  1.0
  O  O1300  1  0.336400  0.761700  0.441600  1.0
  O  O1301  1  0.709700  0.256900  0.499200  1.0
  O  O1302  1  0.290300  0.743100  0.500800  1.0
  O  O1303  1  0.992600  0.639800  0.111600  1.0
  O  O1304  1  0.007400  0.360200  0.888400  1.0
  O  O1305  1  0.015500  0.548700  0.119100  1.0
  O  O1306  1  0.984500  0.451300  0.880900  1.0
  O  O1307  1  0.953400  0.586400  0.164200  1.0
  O  O1308  1  0.046600  0.413600  0.835800  1.0
  O  O1309  1  0.463000  0.091100  0.606000  1.0
  O  O1310  1  0.537000  0.908900  0.394000  1.0
  O  O1311  1  0.500300  0.083000  0.658300  1.0
  O  O1312  1  0.499700  0.917000  0.341700  1.0
  O  O1313  1  0.550800  0.038200  0.608400  1.0
  O  O1314  1  0.449200  0.961800  0.391600  1.0
  O  O1315  1  0.703100  0.120100  0.274800  1.0
  O  O1316  1  0.296900  0.879900  0.725200  1.0
  O  O1317  1  0.639500  0.125900  0.248600  1.0
  O  O1318  1  0.360500  0.874100  0.751400  1.0
  O  O1319  1  0.652000  0.197100  0.229300  1.0
  O  O1320  1  0.348000  0.802900  0.770700  1.0
  O  O1321  1  0.685100  0.612100  0.615100  1.0
  O  O1322  1  0.314900  0.387900  0.384900  1.0
  O  O1323  1  0.659800  0.615000  0.563200  1.0
  O  O1324  1  0.340200  0.385000  0.436800  1.0
  O  O1325  1  0.640100  0.557700  0.615500  1.0
  O  O1326  1  0.359900  0.442300  0.384500  1.0
  O  O1327  1  0.689200  0.273900  0.021600  1.0
  O  O1328  1  0.310800  0.726100  0.978400  1.0
  O  O1329  1  0.653100  0.342000  0.973200  1.0
  O  O1330  1  0.346900  0.658000  0.026800  1.0
  O  O1331  1  0.681000  0.359000  0.018100  1.0
  O  O1332  1  0.319000  0.641000  0.981900  1.0
  O  O1333  1  0.021100  0.811400  0.279800  1.0
  O  O1334  1  0.978900  0.188600  0.720200  1.0
  O  O1335  1  0.964200  0.888900  0.246100  1.0
  O  O1336  1  0.035800  0.111100  0.753900  1.0
  O  O1337  1  0.955300  0.872500  0.306200  1.0
  O  O1338  1  0.044700  0.127500  0.693800  1.0
  O  O1339  1  0.498700  0.185200  0.233500  1.0
  O  O1340  1  0.501300  0.814800  0.766500  1.0
  O  O1341  1  0.523800  0.197700  0.169600  1.0
  O  O1342  1  0.476200  0.802300  0.830400  1.0
  O  O1343  1  0.477600  0.273000  0.193200  1.0
  O  O1344  1  0.522400  0.727000  0.806800  1.0
  O  O1345  1  0.543200  0.237700  0.906200  1.0
  O  O1346  1  0.456800  0.762300  0.093800  1.0
  O  O1347  1  0.496300  0.318900  0.923500  1.0
  O  O1348  1  0.503700  0.681100  0.076500  1.0
  O  O1349  1  0.517200  0.310500  0.851100  1.0
  O  O1350  1  0.482800  0.689500  0.148900  1.0
  O  O1351  1  0.799600  0.655100  0.428000  1.0
  O  O1352  1  0.200400  0.344900  0.572000  1.0
  O  O1353  1  0.818800  0.723900  0.436900  1.0
  O  O1354  1  0.181200  0.276100  0.563100  1.0
  O  O1355  1  0.879100  0.671100  0.401000  1.0
  O  O1356  1  0.120900  0.328900  0.599000  1.0
  O  O1357  1  0.736900  0.361500  0.130200  1.0
  O  O1358  1  0.263100  0.638500  0.869800  1.0
  O  O1359  1  0.739900  0.384900  0.068500  1.0
  O  O1360  1  0.260100  0.615100  0.931500  1.0
  O  O1361  1  0.809600  0.390200  0.095800  1.0
  O  O1362  1  0.190400  0.609800  0.904200  1.0
  O  O1363  1  0.235300  0.520900  0.240900  1.0
  O  O1364  1  0.764700  0.479100  0.759100  1.0
  O  O1365  1  0.165200  0.485200  0.260300  1.0
  O  O1366  1  0.834800  0.514800  0.739700  1.0
  O  O1367  1  0.250700  0.440100  0.226300  1.0
  O  O1368  1  0.749300  0.559900  0.773700  1.0
  O  O1369  1  0.000300  0.565600  0.977200  1.0
  O  O1370  1  0.999700  0.434400  0.022800  1.0
  O  O1371  1  0.039500  0.546400  0.028300  1.0
  O  O1372  1  0.960500  0.453600  0.971700  1.0
  O  O1373  1  0.092700  0.557900  0.968600  1.0
  O  O1374  1  0.907300  0.442100  0.031400  1.0
  O  O1375  1  0.352300  0.349700  0.876800  1.0
  O  O1376  1  0.647700  0.650300  0.123200  1.0
  O  O1377  1  0.270300  0.352700  0.873200  1.0
  O  O1378  1  0.729700  0.647300  0.126800  1.0
  O  O1379  1  0.289000  0.422700  0.846200  1.0
  O  O1380  1  0.711000  0.577300  0.153800  1.0
  O  O1381  1  0.694600  0.078300  0.378300  1.0
  O  O1382  1  0.305400  0.921700  0.621700  1.0
  O  O1383  1  0.909500  0.587200  0.600000  1.0
  O  O1384  1  0.090500  0.412800  0.400000  1.0
  O  O1385  1  0.497700  0.933600  0.124600  1.0
  O  O1386  1  0.502300  0.066400  0.875400  1.0
  O  O1387  1  0.573100  0.000600  0.090300  1.0
  O  O1388  1  0.426900  0.999400  0.909700  1.0
  O  O1389  1  0.688000  0.951200  0.319800  1.0
  O  O1390  1  0.312000  0.048800  0.680200  1.0
  O  O1391  1  0.314300  0.260200  0.799700  1.0
  O  O1392  1  0.685700  0.739800  0.200300  1.0
  O  O1393  1  0.581700  0.823600  0.006700  1.0
  O  O1394  1  0.418300  0.176400  0.993300  1.0
  O  O1395  1  0.822200  0.323600  0.729700  1.0
  O  O1396  1  0.177800  0.676400  0.270300  1.0
  O  O1397  1  0.992600  0.364400  0.602800  1.0
  O  O1398  1  0.007400  0.635600  0.397200  1.0
  O  O1399  1  0.990800  0.253200  0.642300  1.0
  O  O1400  1  0.009200  0.746800  0.357700  1.0
  O  O1401  1  0.761100  0.794900  0.578900  1.0
  O  O1402  1  0.238900  0.205100  0.421100  1.0
  O  O1403  1  0.508400  0.927600  0.200100  1.0
  O  O1404  1  0.491600  0.072400  0.799900  1.0
  O  O1405  1  0.073500  0.625000  0.451800  1.0
  O  O1406  1  0.926500  0.375000  0.548200  1.0
  O  O1407  1  0.358100  0.138700  0.657400  1.0
  O  O1408  1  0.641900  0.861300  0.342600  1.0
  O  O1409  1  0.245700  0.188400  0.631500  1.0
  O  O1410  1  0.754300  0.811600  0.368500  1.0
  O  O1411  1  0.971300  0.261300  0.536000  1.0
  O  O1412  1  0.028700  0.738700  0.464000  1.0
  O  O1413  1  0.434600  0.881500  0.677100  1.0
  O  O1414  1  0.565400  0.118500  0.322900  1.0
  O  O1415  1  0.629400  0.021100  0.369300  1.0
  O  O1416  1  0.370600  0.978900  0.630700  1.0
  O  O1417  1  0.485400  0.749700  0.718900  1.0
  O  O1418  1  0.514600  0.250300  0.281100  1.0
  O  O1419  1  0.215900  0.579100  0.831400  1.0
  O  O1420  1  0.784100  0.420900  0.168600  1.0
  O  O1421  1  0.888600  0.800500  0.382800  1.0
  O  O1422  1  0.111400  0.199500  0.617200  1.0
  O  O1423  1  0.888700  0.648500  0.228100  1.0
  O  O1424  1  0.111300  0.351500  0.771900  1.0
  O  O1425  1  0.809500  0.048500  0.680300  1.0
  O  O1426  1  0.190500  0.951500  0.319700  1.0
  O  O1427  1  0.537900  0.086600  0.130600  1.0
  O  O1428  1  0.462100  0.913400  0.869400  1.0
  O  O1429  1  0.022100  0.437200  0.730000  1.0
  O  O1430  1  0.977900  0.562800  0.270000  1.0
  O  O1431  1  0.984700  0.127100  0.504200  1.0
  O  O1432  1  0.015300  0.872900  0.495800  1.0
  O  O1433  1  0.860400  0.998300  0.461700  1.0
  O  O1434  1  0.139600  0.001700  0.538300  1.0
  O  O1435  1  0.750400  0.754300  0.871000  1.0
  O  O1436  1  0.249600  0.245700  0.129000  1.0
  O  O1437  1  0.675300  0.233900  0.299800  1.0
  O  O1438  1  0.324700  0.766100  0.700200  1.0
  O  O1439  1  0.531000  0.177400  0.980100  1.0
  O  O1440  1  0.469000  0.822600  0.019900  1.0
  O  O1441  1  0.383400  0.670400  0.209600  1.0
  O  O1442  1  0.616600  0.329600  0.790400  1.0
  O  O1443  1  0.538600  0.657100  0.559700  1.0
  O  O1444  1  0.461400  0.342900  0.440300  1.0
  O  O1445  1  0.924000  0.819700  0.442100  1.0
  O  O1446  1  0.076000  0.180300  0.557900  1.0
  O  O1447  1  0.678700  0.476900  0.570200  1.0
  O  O1448  1  0.321300  0.523100  0.429800  1.0
  O  O1449  1  0.825900  0.577500  0.021200  1.0
  O  O1450  1  0.174100  0.422500  0.978800  1.0
  O  O1451  1  0.698000  0.361500  0.561900  1.0
  O  O1452  1  0.302000  0.638500  0.438100  1.0
  O  O1453  1  0.098800  0.118400  0.506000  1.0
  O  O1454  1  0.901200  0.881600  0.494000  1.0
  O  O1455  1  0.969100  0.189300  0.241500  1.0
  O  O1456  1  0.030900  0.810700  0.758500  1.0
  O  O1457  1  0.981300  0.432200  0.385200  1.0
  O  O1458  1  0.018700  0.567800  0.614800  1.0
  O  O1459  1  0.132800  0.536300  0.061400  1.0
  O  O1460  1  0.867200  0.463700  0.938600  1.0
  O  O1461  1  0.922300  0.797100  0.796700  1.0
  O  O1462  1  0.077700  0.202900  0.203300  1.0
  O  O1463  1  0.799600  0.988500  0.103600  1.0
  O  O1464  1  0.200400  0.011500  0.896400  1.0
  O  O1465  1  0.960400  0.840900  0.943300  1.0
  O  O1466  1  0.039600  0.159100  0.056700  1.0
  O  O1467  1  0.049400  0.873300  0.889600  1.0
  O  O1468  1  0.950600  0.126700  0.110400  1.0
  O  O1469  1  0.545700  0.531500  0.526200  1.0
  O  O1470  1  0.454300  0.468500  0.473800  1.0
  O  O1471  1  0.701300  0.404700  0.419100  1.0
  O  O1472  1  0.298700  0.595300  0.580900  1.0
  O  O1473  1  0.129800  0.386500  0.297300  1.0
  O  O1474  1  0.870200  0.613500  0.702700  1.0
  O  O1475  1  0.111100  0.614000  0.801700  1.0
  O  O1476  1  0.888900  0.386000  0.198300  1.0
  O  O1477  1  0.598300  0.972300  0.807900  1.0
  O  O1478  1  0.401700  0.027700  0.192100  1.0
  O  O1479  1  0.296900  0.409300  0.129900  1.0
  O  O1480  1  0.703100  0.590700  0.870100  1.0
  O  O1481  1  0.832000  0.999900  0.937300  1.0
  O  O1482  1  0.168000  0.000100  0.062700  1.0
  O  O1483  1  0.194000  0.834700  0.986900  1.0
  O  O1484  1  0.806000  0.165300  0.013100  1.0
  O  O1485  1  0.844400  0.571300  0.947200  1.0
  O  O1486  1  0.155600  0.428700  0.052800  1.0
  O  O1487  1  0.000100  0.905600  0.161700  1.0
  O  O1488  1  0.999900  0.094400  0.838300  1.0
  O  O1489  1  0.499700  0.554800  0.604200  1.0
  O  O1490  1  0.500300  0.445200  0.395800  1.0
  O  O1491  1  0.340000  0.414000  0.523400  1.0
  O  O1492  1  0.660000  0.586000  0.476600  1.0
  O  O1493  1  0.681000  0.540000  0.021600  1.0
  O  O1494  1  0.319000  0.460000  0.978400  1.0
  O  O1495  1  0.054200  0.979000  0.596300  1.0
  O  O1496  1  0.945800  0.021000  0.403700  1.0
  O  O1497  1  0.009700  0.446800  0.302700  1.0
  O  O1498  1  0.990300  0.553200  0.697300  1.0
  O  O1499  1  0.064200  0.241700  0.373300  1.0
  O  O1500  1  0.935800  0.758300  0.626700  1.0
  O  O1501  1  0.555300  0.939500  0.538800  1.0
  O  O1502  1  0.444700  0.060500  0.461200  1.0
  O  O1503  1  0.271300  0.529500  0.131600  1.0
  O  O1504  1  0.728700  0.470500  0.868400  1.0
  O  O1505  1  0.817600  0.915300  0.046800  1.0
  O  O1506  1  0.182400  0.084700  0.953200  1.0
  O  O1507  1  0.282100  0.334500  0.198400  1.0
  O  O1508  1  0.717900  0.665500  0.801600  1.0
  O  O1509  1  0.128000  0.994000  0.260600  1.0
  O  O1510  1  0.872000  0.006000  0.739400  1.0
  O  O1511  1  0.549700  0.430100  0.516300  1.0
  O  O1512  1  0.450300  0.569900  0.483700  1.0
  O  O1513  1  0.675000  0.665000  0.738600  1.0
  O  O1514  1  0.325000  0.335000  0.261400  1.0
  O  O1515  1  0.155000  0.332000  0.236400  1.0
  O  O1516  1  0.845000  0.668000  0.763600  1.0
  O  O1517  1  0.136700  0.054200  0.348700  1.0
  O  O1518  1  0.863300  0.945800  0.651300  1.0
  O  O1519  1  0.832000  0.724000  0.648800  1.0
  O  O1520  1  0.168000  0.276000  0.351200  1.0
  O  O1521  1  0.933000  0.015000  0.609300  1.0
  O  O1522  1  0.067000  0.985000  0.390700  1.0
  O  O1523  1  0.676000  0.366000  0.493200  1.0
  O  O1524  1  0.324000  0.634000  0.506800  1.0
  O  O1525  1  0.664000  0.757000  0.833300  1.0
  O  O1526  1  0.336000  0.243000  0.166700  1.0
  O  O1527  1  0.973000  0.432000  0.223000  1.0
  O  O1528  1  0.027000  0.568000  0.777000  1.0
  O  O1529  1  0.745000  0.625000  0.920000  1.0
  O  O1530  1  0.255000  0.375000  0.080000  1.0
  O  O1531  1  0.633000  0.698000  0.045300  1.0
  O  O1532  1  0.367000  0.302000  0.954700  1.0
  O  O1533  1  0.231900  0.489900  0.937000  1.0
  O  O1534  1  0.768100  0.510100  0.063000  1.0
  O  O1535  1  0.644500  0.868400  0.782700  1.0
  O  O1536  1  0.355500  0.131600  0.217300  1.0
  O  O1537  1  0.567000  0.421000  0.869300  1.0
  O  O1538  1  0.433000  0.579000  0.130700  1.0
  O  O1539  1  0.070000  0.225000  0.302700  1.0
  O  O1540  1  0.930000  0.775000  0.697300  1.0
  O  O1541  1  0.385000  0.243000  0.276800  1.0
  O  O1542  1  0.615000  0.757000  0.723200  1.0
  O  O1543  1  0.604500  0.179500  0.357500  1.0
  O  O1544  1  0.395500  0.820500  0.642500  1.0
  O  O1545  1  0.388500  0.126700  0.730300  1.0
  O  O1546  1  0.611500  0.873300  0.269700  1.0
  O  O1547  1  0.392000  0.556000  0.607000  1.0
  O  O1548  1  0.608000  0.444000  0.393000  1.0
  O  O1549  1  0.961000  0.285000  0.274200  1.0
  O  O1550  1  0.039000  0.715000  0.725800  1.0
  O  O1551  1  0.440500  0.723300  0.520800  1.0
  O  O1552  1  0.559500  0.276700  0.479200  1.0
  O  O1553  1  0.763000  0.436000  0.988200  1.0
  O  O1554  1  0.237000  0.564000  0.011800  1.0
  O  O1555  1  0.067000  0.504000  0.461800  0.5
  O  O1556  1  0.933000  0.496000  0.538200  0.5
  O  O1557  1  0.063100  0.455400  0.522800  0.5
  O  O1558  1  0.936900  0.544600  0.477200  0.5
  O  O1559  1  0.045200  0.547600  0.511000  0.5
  O  O1560  1  0.954800  0.452400  0.489000  0.5
  O  O1561  1  0.059500  0.511800  0.537700  0.5
  O  O1562  1  0.940500  0.488200  0.462300  0.5
  O  O1563  1  0.068000  0.421000  0.550400  0.5
  O  O1564  1  0.932000  0.579000  0.449600  0.5
  O  O1565  1  0.055200  0.459200  0.599900  0.5
  O  O1566  1  0.944800  0.540800  0.400100  0.5
  O  O1567  1  0.800900  0.042800  0.531200  0.5
  O  O1568  1  0.199100  0.957200  0.468800  0.5
  O  O1569  1  0.789600  0.041100  0.593200  0.5
  O  O1570  1  0.210400  0.958900  0.406800  0.5
  O  O1571  1  0.859700  0.069400  0.553200  0.5
  O  O1572  1  0.140300  0.930600  0.446800  0.5
  O  O1573  1  0.794200  0.034500  0.548900  0.5
  O  O1574  1  0.205800  0.965500  0.451100  0.5
  O  O1575  1  0.864500  0.068500  0.512400  0.5
  O  O1576  1  0.135500  0.931500  0.487600  0.5
  O  O1577  1  0.844200  0.067600  0.573700  0.5
  O  O1578  1  0.155800  0.932400  0.426300  0.5
  O  O1579  1  0.696400  0.977400  0.600700  0.5
  O  O1580  1  0.303600  0.022600  0.399300  0.5
  O  O1581  1  0.770000  0.915000  0.628100  0.5
  O  O1582  1  0.230000  0.085000  0.371900  0.5
  O  O1583  1  0.762000  0.911000  0.570800  0.5
  O  O1584  1  0.238000  0.089000  0.429200  0.5
  O  O1585  1  0.732000  0.955800  0.807200  0.5
  O  O1586  1  0.268000  0.044200  0.192800  0.5
  O  O1587  1  0.757500  0.035100  0.777300  0.5
  O  O1588  1  0.242500  0.964900  0.222700  0.5
  O  O1589  1  0.666900  0.044000  0.788800  0.5
  O  O1590  1  0.333100  0.956000  0.211200  0.5
  O  O1591  1  0.982000  0.020000  0.522000  0.5
  O  O1592  1  0.018000  0.980000  0.478000  0.5
  O  O1593  1  0.507400  0.322300  0.619800  0.5
  O  O1594  1  0.492600  0.677700  0.380200  0.5
  O  O1595  1  0.590000  0.340000  0.579000  0.5
  O  O1596  1  0.410000  0.660000  0.421000  0.5
  O  O1597  1  0.134000  0.162000  0.426900  0.5
  O  O1598  1  0.866000  0.838000  0.573100  0.5
  O  O1599  1  0.630000  0.562000  0.358000  0.5
  O  O1600  1  0.370000  0.438000  0.642000  0.5
  O  O1601  1  0.837800  0.908600  0.775700  0.5
  O  O1602  1  0.162200  0.091400  0.224300  0.5
  O  O1603  1  0.563200  0.888300  0.485000  0.5
  O  O1604  1  0.436800  0.111700  0.515000  0.5
  O  O1605  1  0.551700  0.013100  0.436500  0.5
  O  O1606  1  0.448300  0.986900  0.563500  0.5
  O  O1607  1  0.879700  0.120000  0.067700  0.5
  O  O1608  1  0.120300  0.880000  0.932300  0.5
  O  O1609  1  0.959000  0.009000  0.047200  0.5
  O  O1610  1  0.041000  0.991000  0.952800  0.5
