
#######################################################################
#
#                 Cambridge Crystallographic Data Centre
#                                CCDC 
#
#######################################################################
#
# If this CIF has been generated from an entry in the Cambridge 
# Structural Database, then it will include bibliographic, chemical, 
# crystal, experimental, refinement or atomic coordinate data resulting 
# from the CCDC's data processing and validation procedures.
#
#######################################################################

data_UVUYUH
_chemical_formula_moiety         
'C84 H108 N44 Pd8 16+,C24 H24 O8 Si4,16(N1 O3 1-),5.5(H2 O1)'
_chemical_name_systematic        
"tetrakis(\m-2'-(pyridin-3-yl)-5,4':6',5''-terpyrimidine)-octakis(ethane-1,2-diamine)-octa-palladium hexadecakis(nitrate) 2,4,6,8-tetraphenyl-1,3,5,7,2,4,6,8-tetroxatetrasilocane-2,4,6,8-tetrol hydrate"
_symmetry_cell_setting           monoclinic
_symmetry_space_group_name_H-M   'P 21/n'
_symmetry_Int_Tables_number      14
_space_group_name_Hall           '-P 2yn'
loop_
_symmetry_equiv_pos_site_id
_symmetry_equiv_pos_as_xyz
1 x,y,z
2 1/2-x,1/2+y,1/2-z
3 -x,-y,-z
4 1/2+x,1/2-y,1/2+z
_cell_length_a                   24.8071(15)
_cell_length_b                   18.2127(12)
_cell_length_c                   40.556(3)
_cell_angle_alpha                90
_cell_angle_beta                 96.472(2)
_cell_angle_gamma                90
_cell_volume                     18206.6
_exptl_crystal_colour            yellow
_exptl_crystal_description       block
_cell_formula_units_Z            4
_exptl_crystal_recrystallization_method water
loop_
_atom_site_label
_atom_site_type_symbol
_atom_site_fract_x
_atom_site_fract_y
_atom_site_fract_z
Pd1 Pd 0.80590(3) 1.11795(4) 0.23216(2)
Pd2 Pd 0.84542(3) 1.36468(4) 0.14984(2)
Pd3 Pd 0.61448(3) 1.02841(5) 0.14574(2)
Pd4 Pd 1.08176(4) 1.41890(5) 0.08229(3)
Pd5 Pd 0.64634(4) 1.28636(5) 0.06466(3)
Pd6 Pd 1.04994(4) 0.81148(6) 0.25475(3)
Pd7 Pd 0.59183(4) 0.67548(5) 0.07158(3)
Pd8 Pd 0.68144(5) 1.20981(8) -0.13177(3)
C1 C 0.7636(6) 1.1456(8) 0.2934(3)
H1 H 0.7402 1.1879 0.2862
H2 H 0.7516 1.1258 0.3141
C2 C 0.8169(6) 1.1684(7) 0.2993(3)
H3 H 0.8394 1.1283 0.3101
H4 H 0.8194 1.2111 0.3144
C3 C 0.8321(6) 1.5129(7) 0.1703(5)
H5 H 0.8324 1.5663 0.1656
H6 H 0.8012 1.5025 0.1830
C4 C 0.8876(7) 1.4898(6) 0.1915(4)
H7 H 0.9195 1.5029 0.1801
H8 H 0.8913 1.5126 0.2139
C5 C 0.5183(6) 0.6128(10) 0.1128(6)
H9 H 0.5130 0.5650 0.1013
H10 H 0.5069 0.6079 0.1353
C6 C 0.4869(6) 0.6710(13) 0.0940(6)
H11 H 0.4905 0.7183 0.1061
H12 H 0.4481 0.6577 0.0900
N1 N 0.7581(4) 1.0872(5) 0.2670(2)
H13 H 0.7230 1.0834 0.2579
H14 H 0.7690 1.0429 0.2758
N2 N 0.8381(4) 1.1889(5) 0.2677(2)
H15 H 0.8750 1.1859 0.2700
H16 H 0.8284 1.2357 0.2620
N3 N 0.8256(4) 1.4702(5) 0.1380(3)
H17 H 0.8479 1.4885 0.1237
H18 H 0.7908 1.4730 0.1283
N4 N 0.8802(4) 1.4075(5) 0.1934(2)
H19 H 0.8591 1.3969 0.2097
H20 H 0.9131 1.3860 0.1989
N5 N 0.5343(4) 1.0466(7) 0.1334(3)
H21 H 0.5292 1.0868 0.1201
H22 H 0.5188 1.0073 0.1222
C7 C 0.5083(12) 1.0588(18) 0.1654(6)
H23 H 0.5217 1.1038 0.1773
H24 H 0.4681 1.0597 0.1615
C8 C 0.5299(7) 0.989(2) 0.1831(7)
H25 H 0.5192 0.9452 0.1691
H26 H 0.5143 0.9831 0.2044
N6 N 0.5910(4) 0.9928(7) 0.1895(2)
H27 H 0.6055 0.9480 0.1950
H28 H 0.6015 1.0250 0.2062
N7 N 1.0545(5) 1.5168(6) 0.0636(3)
H29 H 1.0693 1.5261 0.0445
H30 H 1.0179 1.5150 0.0587
C9 C 1.0688(9) 1.5757(9) 0.0873(5)
H31 H 1.1036 1.5979 0.0827
H32 H 1.0406 1.6144 0.0843
C10 C 1.0734(10) 1.5516(12) 0.1188(6)
H33 H 1.0368 1.5454 0.1259
H34 H 1.0931 1.5885 0.1335
N8 N 1.1049(7) 1.4753(8) 0.1224(4)
H35 H 1.0966 1.4508 0.1407
H36 H 1.1414 1.4829 0.1244
N9 N 0.5639(4) 1.2873(6) 0.0554(4)
H37 H 0.5531 1.2671 0.0352
H38 H 0.5489 1.2611 0.0712
C11 C 0.5468(14) 1.3663(19) 0.0562(13)
H39 H 0.5293 1.3778 0.0336
H40 H 0.5179 1.3687 0.0711
C12 C 0.5807(16) 1.422(2) 0.0649(14)
H41 H 0.5791 1.4354 0.0884
H42 H 0.5706 1.4658 0.0510
N10 N 0.6401(5) 1.3954(6) 0.0595(4)
H43 H 0.6647 1.4177 0.0746
H44 H 0.6476 1.4085 0.0389
N11 N 1.0146(8) 0.7524(10) 0.2895(3)
H45 H 0.9789 0.7644 0.2888
H46 H 1.0171 0.7035 0.2853
C13 C 1.0425(13) 0.769(2) 0.3222(6)
H47 H 1.0572 0.7229 0.3322
H48 H 1.0151 0.7875 0.3362
C14 C 1.0873(14) 0.8234(15) 0.3241(5)
H49 H 1.1219 0.7972 0.3300
H50 H 1.0826 0.8584 0.3422
N12 N 1.0912(8) 0.8650(9) 0.2937(3)
H51 H 1.1266 0.8700 0.2903
H52 H 1.0769 0.9107 0.2956
N13 N 0.5756(4) 0.6362(6) 0.1146(3)
H53 H 0.5977 0.5972 0.1204
H54 H 0.5823 0.6713 0.1305
N14 N 0.5105(5) 0.6757(8) 0.0630(5)
H55 H 0.4992 0.7176 0.0522
H56 H 0.4993 0.6369 0.0499
N15 N 0.6058(6) 1.2317(10) -0.1522(4)
H57 H 0.5989 1.2079 -0.1719
H58 H 0.5814 1.2162 -0.1385
C15 C 0.6011(11) 1.3093(15) -0.1572(8)
H59 H 0.5997 1.3360 -0.1360
H60 H 0.5690 1.3222 -0.1728
C16 C 0.6568(12) 1.3244(15) -0.1728(7)
H61 H 0.6557 1.3731 -0.1837
H62 H 0.6627 1.2863 -0.1894
N16 N 0.7002(9) 1.3221(10) -0.1451(5)
H63 H 0.6953 1.3551 -0.1288
H64 H 0.7339 1.3269 -0.1516
C17 C 1.1358(5) 0.8617(8) 0.2148(4)
H65 H 1.1542 0.8195 0.2242
C18 C 1.0596(4) 0.9355(6) 0.2099(3)
H66 H 1.0243 0.9467 0.2154
C19 C 1.0841(4) 0.9840(6) 0.1886(3)
C20 C 1.1375(5) 0.9606(7) 0.1828(4)
H67 H 1.1565 0.9897 0.1684
C21 C 1.1650(7) 1.3069(9) 0.1022(4)
H68 H 1.1860 1.3419 0.0918
C22 C 1.1913(6) 1.2489(10) 0.1143(5)
H69 H 1.2289 1.2428 0.1125
C23 C 1.1594(6) 1.1909(9) 0.1314(4)
H70 H 1.1752 1.1477 0.1415
C24 C 1.1043(4) 1.2086(7) 0.1308(3)
C25 C 1.0824(5) 1.2772(6) 0.1171(3)
H71 H 1.0455 1.2895 0.1185
C26 C 0.8387(4) 1.2247(5) 0.1849(2)
H72 H 0.8049 1.2452 0.1890
C27 C 0.9004(4) 1.1312(5) 0.1918(2)
H73 H 0.9111 1.0848 0.2010
C28 C 0.9337(4) 1.1655(5) 0.1715(2)
C29 C 0.9160(4) 1.2307(5) 0.1591(2)
H74 H 0.9382 1.2567 0.1455
C30 C 1.0700(4) 1.1581(5) 0.1478(3)
C31 C 1.0592(4) 1.0507(5) 0.1742(2)
N17 N 1.0192(3) 1.1812(4) 0.1511(2)
C32 C 0.9885(4) 1.1380(5) 0.1664(2)
C33 C 1.0873(6) 1.3572(8) 0.0169(5)
H75 H 1.1237 1.3740 0.0213
C34 C 1.0691(7) 1.3225(8) -0.0146(3)
H76 H 1.0939 1.3129 -0.0303
C35 C 1.0161(6) 1.3042(8) -0.0212(4)
H77 H 1.0019 1.2849 -0.0421
C36 C 0.9831(5) 1.3148(7) 0.0040(3)
C37 C 1.0043(5) 1.3442(6) 0.0342(3)
H78 H 0.9816 1.3486 0.0515
C38 C 0.7564(4) 1.3138(5) 0.1002(3)
H79 H 0.7365 1.3200 0.1187
C39 C 0.8382(5) 1.3171(6) 0.0789(3)
H80 H 0.8763 1.3248 0.0817
C40 C 0.8130(5) 1.2961(7) 0.0486(3)
C41 C 0.7565(5) 1.2828(7) 0.0449(3)
H81 H 0.7381 1.2674 0.0242
N18 N 0.7607(5) 1.1987(8) -0.1106(3)
C42 C 0.7964(8) 1.1641(14) -0.1267(6)
H82 H 0.7821 1.1389 -0.1463
N19 N 0.8465(6) 1.1604(15) -0.1194(5)
C43 C 0.8694(8) 1.1792(15) -0.0857(5)
H83 H 0.9049 1.1657 -0.0764
C44 C 0.8332(7) 1.2195(13) -0.0687(4)
C45 C 0.7767(6) 1.2256(9) -0.0816(3)
H84 H 0.7516 1.2490 -0.0691
C46 C 0.9233(5) 1.2914(7) -0.0011(3)
C47 C 0.8532(6) 1.2488(10) -0.0358(4)
N20 N 0.8944(4) 1.2991(6) 0.0242(2)
C48 C 0.8435(5) 1.2807(8) 0.0179(3)
N21 N 0.6639(4) 1.1100(7) -0.1198(3)
C49 C 0.6452(8) 1.0569(12) -0.1428(4)
H85 H 0.6449 1.0704 -0.1654
N22 N 0.6281(6) 0.9918(8) -0.1375(3)
C50 C 0.6281(7) 0.9741(9) -0.1062(4)
H86 H 0.6176 0.9253 -0.1016
C51 C 0.6419(5) 1.0195(7) -0.0787(3)
C52 C 0.6570(5) 1.0900(8) -0.0871(3)
H87 H 0.6628 1.1259 -0.0701
C53 C 0.6385(4) 1.1444(6) 0.0980(3)
H88 H 0.6395 1.1741 0.1173
C54 C 0.6453(4) 1.1351(7) 0.0416(3)
H89 H 0.6500 1.1581 0.0211
C55 C 0.6387(4) 1.0595(6) 0.0431(3)
C56 C 0.6306(4) 1.0278(6) 0.0741(3)
H90 H 0.6254 0.9763 0.0757
N23 N 0.6040(4) 0.7165(6) 0.0264(3)
C57 C 0.6008(7) 0.6759(9) -0.0005(5)
H91 H 0.5984 0.6244 0.0028
C58 C 0.6003(10) 0.6979(11) -0.0311(5)
H92 H 0.5923 0.6653 -0.0492
C59 C 0.6132(10) 0.7769(11) -0.0361(5)
H93 H 0.6193 0.7966 -0.0571
C60 C 0.6154(6) 0.8203(8) -0.0067(4)
C61 C 0.6124(5) 0.7878(7) 0.0225(3)
H94 H 0.6166 0.8177 0.0418
C62 C 0.6354(5) 0.9904(10) -0.0452(3)
C63 C 0.6263(4) 0.9003(8) -0.0118(3)
N24 N 0.6294(4) 0.9417(5) 0.0177(2)
C64 C 0.6368(4) 1.0133(6) 0.0135(2)
C65 C 0.7549(5) 0.5968(7) 0.0748(3)
H95 H 0.7720 0.5581 0.0641
C66 C 0.7840(5) 0.6414(7) 0.0967(3)
H96 H 0.8219 0.6338 0.1021
C67 C 0.7581(4) 0.6984(5) 0.1114(3)
C68 C 0.7025(4) 0.7086(6) 0.1031(3)
H97 H 0.6851 0.7486 0.1125
C69 C 0.7210(3) 1.0541(5) 0.1843(2)
H98 H 0.7025 1.0971 0.1900
C70 C 0.7183(4) 0.9466(5) 0.1552(2)
H99 H 0.6996 0.9130 0.1401
C71 C 0.7712(4) 0.9298(5) 0.1693(2)
C72 C 0.7948(4) 0.9808(5) 0.1914(2)
H100 H 0.8299 0.9712 0.2025
C73 C 1.0182(4) 0.6900(6) 0.2093(3)
H101 H 1.0521 0.6710 0.2188
C74 C 0.9420(4) 0.6738(6) 0.1748(3)
H102 H 0.9200 0.6447 0.1592
C75 C 0.9207(4) 0.7436(6) 0.1833(3)
C76 C 0.9553(4) 0.7823(6) 0.2052(3)
H103 H 0.9449 0.8304 0.2110
C77 C 0.7898(4) 0.7485(5) 0.1355(3)
C78 C 0.8673(4) 0.7699(6) 0.1692(3)
N25 N 0.7667(3) 0.8116(4) 0.1424(2)
C79 C 0.7973(4) 0.8581(5) 0.1629(3)
C80 C 0.6972(5) 0.6092(7) 0.0678(4)
H104 H 0.6759 0.5781 0.0527
N26 N 1.0842(3) 0.8744(5) 0.2225(2)
N27 N 1.1142(4) 1.3230(6) 0.1024(3)
N28 N 1.1615(4) 0.9028(7) 0.1957(3)
N29 N 0.8538(3) 1.1606(4) 0.19916(19)
N30 N 0.8689(3) 1.2614(4) 0.16493(18)
N31 N 1.0923(3) 1.0960(5) 0.1593(2)
C81 C 1.0068(4) 1.0699(5) 0.1784(3)
H105 H 0.9840 1.0377 0.1890
N32 N 1.0538(4) 1.3655(5) 0.0394(2)
N33 N 0.8096(3) 1.3271(5) 0.1049(2)
N34 N 0.7291(4) 1.2929(5) 0.0720(3)
C82 C 0.8220(7) 1.2572(11) -0.0104(3)
H106 H 0.7844 1.2458 -0.0136
N35 N 0.9058(5) 1.2657(7) -0.0317(3)
N36 N 0.6452(3) 1.1754(5) 0.0693(2)
N37 N 0.6302(3) 1.0695(5) 0.1005(2)
N38 N 0.6279(4) 0.9235(6) -0.0410(2)
C83 C 0.6403(5) 1.0439(7) -0.0172(3)
H107 H 0.6454 1.0950 -0.0203
N39 N 0.6737(3) 0.6644(5) 0.0826(3)
N40 N 0.6943(3) 1.0077(5) 0.1624(2)
N41 N 0.7696(3) 1.0445(4) 0.19795(18)
N42 N 1.0034(4) 0.7564(5) 0.2191(3)
N43 N 0.9873(4) 0.6474(6) 0.1864(3)
N44 N 0.8373(4) 0.7263(4) 0.1478(2)
C84 C 0.8482(4) 0.8397(6) 0.1759(3)
H108 H 0.8702 0.8734 0.1893
O1 O 0.8763(4) 0.9787(6) 0.1319(2)
H117 H 0.8538 1.0128 0.1277
O2 O 0.7347(5) 0.9272(9) 0.0708(3)
H118 H 0.7403 0.9632 0.0837
O3 O 0.7678(5) 1.1254(7) 0.0212(4)
H119 H 0.7637 1.1233 0.0415
O4 O 0.9060(6) 1.1424(7) 0.0866(5)
H120 H 0.8784 1.1312 0.0957
O5 O 0.8389(3) 0.9053(6) 0.0789(3)
O6 O 0.7906(7) 0.9870(9) 0.0304(4)
O7 O 0.8618(6) 1.0821(9) 0.0253(4)
O8 O 0.9147(3) 1.0040(5) 0.0741(2)
Si1 Si 0.89069(14) 0.9422(2) 0.09756(10)
C89 C 0.9391(4) 0.8667(8) 0.1083(3)
C90 C 0.9891(6) 0.8831(9) 0.1284(3)
H121 H 0.9969 0.9313 0.1366
C91 C 1.0261(5) 0.8244(9) 0.1356(4)
H122 H 1.0601 0.8333 0.1483
C92 C 1.0136(6) 0.7578(9) 0.1248(4)
H123 H 1.0370 0.7184 0.1322
C93 C 0.9701(5) 0.7433(8) 0.1041(3)
H124 H 0.9655 0.6965 0.0938
C94 C 0.9312(5) 0.7970(7) 0.0977(3)
H125 H 0.8976 0.7844 0.0854
Si2 Si 0.78606(16) 0.9166(3) 0.05025(12)
C95 C 0.7770(6) 0.8411(12) 0.0212(4)
C96 C 0.7827(6) 0.7699(11) 0.0297(5)
H126 H 0.7907 0.7585 0.0526
C97 C 0.7779(7) 0.7133(14) 0.0078(5)
H127 H 0.7802 0.6637 0.0150
C98 C 0.7698(9) 0.7305(14) -0.0239(5)
H128 H 0.7737 0.6936 -0.0400
C99 C 0.7566(10) 0.7979(12) -0.0336(6)
H129 H 0.7412 0.8072 -0.0558
C100 C 0.7652(8) 0.8531(14) -0.0116(4)
H130 H 0.7629 0.9022 -0.0195
Si3 Si 0.8081(4) 1.0625(4) 0.01251(13)
C101 C 0.8261(10) 1.0505(10) -0.0289(4)
C102 C 0.7827(8) 1.0435(10) -0.0521(5)
H131 H 0.7479 1.0580 -0.0467
C103 C 0.7878(9) 1.0160(11) -0.0831(4)
H132 H 0.7569 1.0114 -0.0991
C104 C 0.8367(11) 0.9959(11) -0.0905(4)
H133 H 0.8404 0.9771 -0.1120
C105 C 0.8817(9) 1.0017(12) -0.0678(6)
H134 H 0.9163 0.9868 -0.0734
C106 C 0.8763(8) 1.0290(11) -0.0373(5)
H135 H 0.9074 1.0334 -0.0214
Si4 Si 0.9134(2) 1.0834(2) 0.05654(18)
C107 C 0.9718(7) 1.1034(10) 0.0345(4)
C108 C 0.9788(8) 1.0926(10) 0.0026(5)
H136 H 0.9488 1.0713 -0.0106
C109 C 1.0219(7) 1.1073(11) -0.0133(6)
H137 H 1.0211 1.1006 -0.0366
C110 C 1.0668(9) 1.1323(12) 0.0055(5)
H138 H 1.1008 1.1365 -0.0031
C111 C 1.0605(8) 1.1509(13) 0.0368(5)
H139 H 1.0894 1.1746 0.0501
C112 C 1.0147(7) 1.1369(12) 0.0499(6)
H140 H 1.0127 1.1523 0.0721
N45 N 0.7794(4) 0.1283(5) 0.1171(2)
O9 O 0.7479(4) 0.1674(5) 0.1323(2)
O10 O 0.8261(6) 0.1147(9) 0.1260(4)
O11 O 0.7561(7) 0.0870(10) 0.0941(4)
N46 N 0.6837(6) 0.5034(8) 0.1244(3)
O12 O 0.7110(4) 0.4555(6) 0.1153(2)
O13 O 0.7029(5) 0.5480(7) 0.1430(3)
O14 O 0.6333(5) 0.5016(8) 0.1111(3)
N47 N 0.6025(8) 0.8467(11) 0.1166(5)
O15 O 0.6090(9) 0.7951(13) 0.1417(6)
O16 O 0.6310(6) 0.8640(9) 0.1001(4)
O17 O 0.557(2) 0.911(3) 0.1064(13)
N48 N 0.6526(7) 0.2746(10) 0.9652(4)
O18 O 0.6447(7) 0.2824(10) 0.9353(5)
O19 O 0.6263(8) 0.3122(12) 0.9812(5)
O20 O 0.6807(5) 0.2202(7) 0.9764(3)
N49 N 0.6919(8) 1.2576(11) 0.1793(5)
O21 O 0.7179(8) 1.2304(11) 0.2049(5)
O22 O 0.6480(8) 1.2220(11) 0.1700(5)
O23 O 0.7093(8) 1.3171(10) 0.1685(5)
N50 N 0.6202(8) 1.1423(11) 0.2479(4)
O24 O 0.6436(4) 1.0887(5) 0.2396(2)
O25 O 0.6465(10) 1.1880(14) 0.2609(6)
O26 O 0.5659(9) 1.1281(12) 0.2414(5)
N51 N 0.1627(12) 0.6937(15) 0.1662(8)
O27 O 0.1269(10) 0.7014(12) 0.1824(6)
O28 O 0.1708(10) 0.6812(14) 0.1401(7)
O29 O 0.2015(15) 0.6878(19) 0.1851(9)
N52 N 0.6920(5) 0.8738(8) 0.2367(3)
O30 O 0.6943(5) 0.9407(7) 0.2372(3)
O31 O 0.6836(5) 0.8349(7) 0.2588(3)
O32 O 0.7307(10) 0.8378(15) 0.2239(6)
N53 N 0.9293(4) 0.9690(6) 0.2463(2)
O33 O 0.9300(3) 0.9583(4) 0.21572(19)
O34 O 0.9001(4) 1.0131(5) 0.2565(2)
O35 O 0.9608(5) 0.9291(7) 0.2661(3)
N54 N 0.5242(8) 0.7849(12) 0.8943(5)
O36 O 0.5528(6) 0.8258(8) 0.8845(4)
O37 O 0.5343(7) 0.7273(10) 0.9016(4)
O38 O 0.4757(11) 0.8010(15) 0.8948(7)
N56 N 0.9025(9) 0.5246(13) 0.0772(6)
O42 O 0.8606(7) 0.4884(11) 0.0716(4)
O43 O 0.9325(10) 0.5062(15) 0.0540(6)
O44 O 0.9071(10) 0.5539(14) 0.1010(6)
O45 O 0.0494(18) 0.312(3) 0.2067(11)
O49 O 0.8415(6) 0.8565(8) 0.2518(3)
O50 O 0.7006(7) 1.4478(10) 0.2055(4)
O51 O 0.4723(8) -0.1904(11) 1.0077(5)
O52 O 0.8827(7) 0.4626(10) -0.0070(4)
O53 O 0.0422(12) 0.5032(17) 0.1988(7)
O54 O 0.1716(15) 0.345(2) 0.1951(9)
O55 O 0.2592(12) 0.5529(17) 0.9797(7)
O56 O 0.4677(12) 0.5853(18) 0.2379(7)
O57 O 0.4317(12) 0.8584(17) 0.2154(7)
O58 O 0.203(2) 0.501(3) 0.0833(14)
O59 O 0.4517(9) 0.5029(13) 0.1765(5)
O60 O 0.9360(16) 0.960(2) 0.3298(9)
O61 O 0.9421(8) 0.2787(12) 0.2333(5)
O63 O 0.3003(15) 0.953(2) 0.2180(9)
O65 O 0.5542(11) 0.1639(17) 0.9252(7)
O66 O 0.2453(10) 0.0680(15) 0.1781(6)
O68 O 0.0950(8) 0.6252(11) 0.2917(5)
O71 O 0.6610(6) 0.7683(8) 0.8855(4)
C85? C 0.5062(13) 1.014(2) 0.1608(6)
H109? H 0.4730 1.0430 0.1621
H110? H 0.4940 0.9641 0.1531
C86? C 0.5330(8) 1.005(3) 0.1962(7)
H111? H 0.5185 0.9615 0.2073
H112? H 0.5290 1.0491 0.2097
C87? C 0.5519(16) 1.347(3) 0.0352(13)
H113? H 0.5514 1.3309 0.0119
H114? H 0.5146 1.3635 0.0381
C88? C 0.5859(14) 1.4090(19) 0.0395(12)
H115? H 0.5667 1.4480 0.0506
H116? H 0.5924 1.4276 0.0174
N55? N 0.4919(10) -0.0652(13) 0.9500(6)
O39? O 0.4964(7) -0.0058(10) 0.9353(4)
O40? O 0.5048(13) -0.0706(16) 0.9807(5)
O41? O 0.4721(14) -0.1207(13) 0.9339(7)
N57? N 0.9756(8) 0.3966(12) 0.1301(5)
O46? O 0.9607(5) 0.3601(7) 0.1118(3)
O47? O 0.9938(9) 0.3804(13) 0.1618(6)
O48? O 0.9704(14) 0.455(2) 0.1289(8)
O62? O 0.5425(15) 0.684(2) 0.2414(9)
O64? O 0.2918(11) 0.8311(15) 0.2058(7)
O67? O 0.6899(13) 0.8348(19) 0.8328(8)
O69? O 0.0808(11) 0.4922(16) 0.2636(7)
O70? O 0.1545(12) 0.6904(17) 0.2504(7)
O72? O 0.6919(11) 0.6322(16) 0.8929(7)
loop_
_geom_bond_atom_site_label_1
_geom_bond_atom_site_label_2
_geom_bond_site_symmetry_1
_geom_bond_site_symmetry_2
Pd1 N1 1_555 1_555
Pd2 N3 1_555 1_555
Pd3 N5 1_555 1_555
Pd4 N7 1_555 1_555
Pd5 N9 1_555 1_555
Pd6 N11 1_555 1_555
Pd7 N13 1_555 1_555
Pd8 N15 1_555 1_555
C1 H1 1_555 1_555
H2 C1 1_555 1_555
C2 C1 1_555 1_555
H3 C2 1_555 1_555
H4 C2 1_555 1_555
C3 H5 1_555 1_555
H6 C3 1_555 1_555
C4 C3 1_555 1_555
H7 C4 1_555 1_555
H8 C4 1_555 1_555
C5 H9 1_555 1_555
H10 C5 1_555 1_555
C6 C5 1_555 1_555
H11 C6 1_555 1_555
H12 C6 1_555 1_555
N1 C1 1_555 1_555
H13 N1 1_555 1_555
H14 N1 1_555 1_555
N2 Pd1 1_555 1_555
H15 N2 1_555 1_555
H16 N2 1_555 1_555
N3 C3 1_555 1_555
H17 N3 1_555 1_555
H18 N3 1_555 1_555
N4 Pd2 1_555 1_555
H19 N4 1_555 1_555
H20 N4 1_555 1_555
N5 H21 1_555 1_555
H22 N5 1_555 1_555
C7 N5 1_555 1_555
H23 C7 1_555 1_555
H24 C7 1_555 1_555
C8 C7 1_555 1_555
H25 C8 1_555 1_555
H26 C8 1_555 1_555
N6 Pd3 1_555 1_555
H27 N6 1_555 1_555
H28 N6 1_555 1_555
N7 H29 1_555 1_555
H30 N7 1_555 1_555
C9 N7 1_555 1_555
H31 C9 1_555 1_555
H32 C9 1_555 1_555
C10 C9 1_555 1_555
H33 C10 1_555 1_555
H34 C10 1_555 1_555
N8 Pd4 1_555 1_555
H35 N8 1_555 1_555
H36 N8 1_555 1_555
N9 H37 1_555 1_555
H38 N9 1_555 1_555
C11 N9 1_555 1_555
H39 C11 1_555 1_555
H40 C11 1_555 1_555
C12 C11 1_555 1_555
H41 C12 1_555 1_555
H42 C12 1_555 1_555
N10 Pd5 1_555 1_555
H43 N10 1_555 1_555
H44 N10 1_555 1_555
N11 H45 1_555 1_555
H46 N11 1_555 1_555
C13 N11 1_555 1_555
H47 C13 1_555 1_555
H48 C13 1_555 1_555
C14 C13 1_555 1_555
H49 C14 1_555 1_555
H50 C14 1_555 1_555
N12 Pd6 1_555 1_555
H51 N12 1_555 1_555
H52 N12 1_555 1_555
N13 C5 1_555 1_555
H53 N13 1_555 1_555
H54 N13 1_555 1_555
N14 Pd7 1_555 1_555
H55 N14 1_555 1_555
H56 N14 1_555 1_555
N15 H57 1_555 1_555
H58 N15 1_555 1_555
C15 N15 1_555 1_555
H59 C15 1_555 1_555
H60 C15 1_555 1_555
C16 C15 1_555 1_555
H61 C16 1_555 1_555
H62 C16 1_555 1_555
N16 Pd8 1_555 1_555
H63 N16 1_555 1_555
H64 N16 1_555 1_555
C17 H65 1_555 1_555
C18 H66 1_555 1_555
C19 C18 1_555 1_555
C20 C19 1_555 1_555
H67 C20 1_555 1_555
C21 H68 1_555 1_555
C22 C21 1_555 1_555
H69 C22 1_555 1_555
C23 C22 1_555 1_555
H70 C23 1_555 1_555
C24 C23 1_555 1_555
C25 C24 1_555 1_555
H71 C25 1_555 1_555
C26 H72 1_555 1_555
C27 H73 1_555 1_555
C28 C27 1_555 1_555
C29 C28 1_555 1_555
H74 C29 1_555 1_555
C30 C24 1_555 1_555
C31 C19 1_555 1_555
N17 C30 1_555 1_555
C32 C28 1_555 1_555
C33 H75 1_555 1_555
C34 C33 1_555 1_555
H76 C34 1_555 1_555
C35 C34 1_555 1_555
H77 C35 1_555 1_555
C36 C35 1_555 1_555
C37 C36 1_555 1_555
H78 C37 1_555 1_555
C38 H79 1_555 1_555
C39 H80 1_555 1_555
C40 C39 1_555 1_555
C41 C40 1_555 1_555
H81 C41 1_555 1_555
N18 Pd8 1_555 1_555
C42 N18 1_555 1_555
H82 C42 1_555 1_555
N19 C42 1_555 1_555
C43 N19 1_555 1_555
H83 C43 1_555 1_555
C44 C43 1_555 1_555
C45 N18 1_555 1_555
H84 C45 1_555 1_555
C46 C36 1_555 1_555
C47 C44 1_555 1_555
N20 C46 1_555 1_555
C48 C40 1_555 1_555
N21 Pd8 1_555 1_555
C49 N21 1_555 1_555
H85 C49 1_555 1_555
N22 C49 1_555 1_555
C50 N22 1_555 1_555
H86 C50 1_555 1_555
C51 C50 1_555 1_555
C52 N21 1_555 1_555
H87 C52 1_555 1_555
C53 H88 1_555 1_555
C54 H89 1_555 1_555
C55 C54 1_555 1_555
C56 C55 1_555 1_555
H90 C56 1_555 1_555
N23 Pd7 1_555 1_555
C57 N23 1_555 1_555
H91 C57 1_555 1_555
C58 C57 1_555 1_555
H92 C58 1_555 1_555
C59 C58 1_555 1_555
H93 C59 1_555 1_555
C60 C59 1_555 1_555
C61 N23 1_555 1_555
H94 C61 1_555 1_555
C62 C51 1_555 1_555
C63 C60 1_555 1_555
N24 C63 1_555 1_555
C64 C55 1_555 1_555
C65 H95 1_555 1_555
C66 C65 1_555 1_555
H96 C66 1_555 1_555
C67 C66 1_555 1_555
C68 C67 1_555 1_555
H97 C68 1_555 1_555
C69 H98 1_555 1_555
C70 H99 1_555 1_555
C71 C70 1_555 1_555
C72 C71 1_555 1_555
H100 C72 1_555 1_555
C73 H101 1_555 1_555
C74 H102 1_555 1_555
C75 C74 1_555 1_555
C76 C75 1_555 1_555
H103 C76 1_555 1_555
C77 C67 1_555 1_555
C78 C75 1_555 1_555
N25 C77 1_555 1_555
C79 C71 1_555 1_555
C80 C65 1_555 1_555
H104 C80 1_555 1_555
N26 Pd6 1_555 1_555
N27 Pd4 1_555 1_555
N28 C17 1_555 1_555
N29 Pd1 1_555 1_555
N30 Pd2 1_555 1_555
N31 C30 1_555 1_555
C81 C31 1_555 1_555
H105 C81 1_555 1_555
N32 Pd4 1_555 1_555
N33 Pd2 1_555 1_555
N34 Pd5 1_555 1_555
C82 C47 1_555 1_555
H106 C82 1_555 1_555
N35 C46 1_555 1_555
N36 Pd5 1_555 1_555
N37 Pd3 1_555 1_555
N38 C62 1_555 1_555
C83 C62 1_555 1_555
H107 C83 1_555 1_555
N39 Pd7 1_555 1_555
N40 Pd3 1_555 1_555
N41 Pd1 1_555 1_555
N42 Pd6 1_555 1_555
N43 C73 1_555 1_555
N44 C77 1_555 1_555
C84 C78 1_555 1_555
H108 C84 1_555 1_555
O1 H117 1_555 1_555
O2 H118 1_555 1_555
O3 H119 1_555 1_555
O4 H120 1_555 1_555
O5 Si1 1_555 1_555
O6 Si2 1_555 1_555
O7 Si3 1_555 1_555
O8 Si1 1_555 1_555
Si1 O1 1_555 1_555
C89 Si1 1_555 1_555
C90 C89 1_555 1_555
H121 C90 1_555 1_555
C91 C90 1_555 1_555
H122 C91 1_555 1_555
C92 C91 1_555 1_555
H123 C92 1_555 1_555
C93 C92 1_555 1_555
H124 C93 1_555 1_555
C94 C89 1_555 1_555
H125 C94 1_555 1_555
Si2 O2 1_555 1_555
C95 Si2 1_555 1_555
C96 C95 1_555 1_555
H126 C96 1_555 1_555
C97 C96 1_555 1_555
H127 C97 1_555 1_555
C98 C97 1_555 1_555
H128 C98 1_555 1_555
C99 C98 1_555 1_555
H129 C99 1_555 1_555
C100 C95 1_555 1_555
H130 C100 1_555 1_555
Si3 O3 1_555 1_555
C101 Si3 1_555 1_555
C102 C101 1_555 1_555
H131 C102 1_555 1_555
C103 C102 1_555 1_555
H132 C103 1_555 1_555
C104 C103 1_555 1_555
H133 C104 1_555 1_555
C105 C104 1_555 1_555
H134 C105 1_555 1_555
C106 C101 1_555 1_555
H135 C106 1_555 1_555
Si4 O4 1_555 1_555
C107 Si4 1_555 1_555
C108 C107 1_555 1_555
H136 C108 1_555 1_555
C109 C108 1_555 1_555
H137 C109 1_555 1_555
C110 C109 1_555 1_555
H138 C110 1_555 1_555
C111 C110 1_555 1_555
H139 C111 1_555 1_555
C112 C107 1_555 1_555
H140 C112 1_555 1_555
N45 O9 1_555 1_555
O10 N45 1_555 1_555
O11 N45 1_555 1_555
N46 O12 1_555 1_555
O13 N46 1_555 1_555
O14 N46 1_555 1_555
N47 O15 1_555 1_555
O16 N47 1_555 1_555
O17 N47 1_555 1_555
N48 O18 1_555 1_555
O19 N48 1_555 1_555
O20 N48 1_555 1_555
N49 O21 1_555 1_555
O22 N49 1_555 1_555
O23 N49 1_555 1_555
N50 O24 1_555 1_555
O25 N50 1_555 1_555
O26 N50 1_555 1_555
N51 O27 1_555 1_555
O28 N51 1_555 1_555
O29 N51 1_555 1_555
N52 O30 1_555 1_555
O31 N52 1_555 1_555
O32 N52 1_555 1_555
N53 O33 1_555 1_555
O34 N53 1_555 1_555
O35 N53 1_555 1_555
N54 O36 1_555 1_555
O37 N54 1_555 1_555
O38 N54 1_555 1_555
N56 O42 1_555 1_555
O43 N56 1_555 1_555
O44 N56 1_555 1_555
C2 N2 1_555 1_555
C4 N4 1_555 1_555
C6 N14 1_555 1_555
C8 N6 1_555 1_555
C10 N8 1_555 1_555
C12 N10 1_555 1_555
C14 N12 1_555 1_555
C16 N16 1_555 1_555
C17 N26 1_555 1_555
C18 N26 1_555 1_555
C20 N28 1_555 1_555
C21 N27 1_555 1_555
C25 N27 1_555 1_555
C26 N29 1_555 1_555
C26 N30 1_555 1_555
C27 N29 1_555 1_555
C29 N30 1_555 1_555
C31 N31 1_555 1_555
N17 C32 1_555 1_555
C32 C81 1_555 1_555
C33 N32 1_555 1_555
C37 N32 1_555 1_555
C38 N33 1_555 1_555
C38 N34 1_555 1_555
C39 N33 1_555 1_555
C41 N34 1_555 1_555
C44 C45 1_555 1_555
C47 N35 1_555 1_555
N20 C48 1_555 1_555
C48 C82 1_555 1_555
C51 C52 1_555 1_555
C53 N36 1_555 1_555
C53 N37 1_555 1_555
C54 N36 1_555 1_555
C56 N37 1_555 1_555
C60 C61 1_555 1_555
C63 N38 1_555 1_555
N24 C64 1_555 1_555
C64 C83 1_555 1_555
C68 N39 1_555 1_555
C69 N40 1_555 1_555
C69 N41 1_555 1_555
C70 N40 1_555 1_555
C72 N41 1_555 1_555
C73 N42 1_555 1_555
C74 N43 1_555 1_555
C76 N42 1_555 1_555
C78 N44 1_555 1_555
N25 C79 1_555 1_555
C79 C84 1_555 1_555
C80 N39 1_555 1_555
O5 Si2 1_555 1_555
O6 Si3 1_555 1_555
O7 Si4 1_555 1_555
O8 Si4 1_555 1_555
C93 C94 1_555 1_555
C99 C100 1_555 1_555
C105 C106 1_555 1_555
C111 C112 1_555 1_555

#END
