
#######################################################################
#
#                 Cambridge Crystallographic Data Centre
#                                CCDC 
#
#######################################################################
#
# If this CIF has been generated from an entry in the Cambridge 
# Structural Database, then it will include bibliographic, chemical, 
# crystal, experimental, refinement or atomic coordinate data resulting 
# from the CCDC's data processing and validation procedures.
#
#######################################################################

data_UWUVUE
_chemical_formula_moiety         
'C100 H92 N8 O12 Ru4 4+,4(C1 F3 O3 S1 1-),C4 H10 O1,8(C1 H4 O1)'
_chemical_name_systematic        
"bis(\m~2~-5,11-dioxotetracene-6,12-diolato)-bis(\m~2~-N,N'-bis(pyridin-4-yl)ethanediamide)-tetrakis(\h^6^-1-isopropyl-4-methylbenzene)-tetra-ruthenium tetrakis(trifluoromethanesulfonate) diethyl ether methanol solvate"
_symmetry_cell_setting           orthorhombic
_symmetry_space_group_name_H-M   'P b c a'
_symmetry_Int_Tables_number      61
_space_group_name_Hall           '-P 2ac 2ab'
loop_
_symmetry_equiv_pos_site_id
_symmetry_equiv_pos_as_xyz
1 x,y,z
2 1/2-x,-y,1/2+z
3 -x,1/2+y,1/2-z
4 1/2+x,1/2-y,-z
5 -x,-y,-z
6 1/2+x,y,1/2-z
7 x,1/2-y,1/2+z
8 1/2-x,1/2+y,z
_cell_length_a                   20.456(4)
_cell_length_b                   17.225(3)
_cell_length_c                   36.110(7)
_cell_angle_alpha                90
_cell_angle_beta                 90
_cell_angle_gamma                90
_cell_volume                     12723.5
_cell_formula_units_Z            4
loop_
_atom_site_label
_atom_site_type_symbol
_atom_site_fract_x
_atom_site_fract_y
_atom_site_fract_z
S1 S 0.09563(14) -0.1429(2) 0.48561(9)
F1 F 0.0886(4) -0.0046(5) 0.5096(3)
F2 F 0.0129(5) -0.0803(6) 0.5297(3)
F3 F 0.1071(7) -0.0961(9) 0.5523(3)
O7 O 0.0524(8) -0.1185(6) 0.4553(3)
O8 O 0.0733(4) -0.2200(5) 0.4996(3)
O9 O 0.1606(5) -0.1337(6) 0.4799(5)
C51 C 0.0723(10) -0.0787(10) 0.5191(8)
S2 S -0.15038(13) 0.08378(18) 0.25465(8)
F4 F -0.2458(3) 0.1310(5) 0.2132(2)
F5 F -0.1548(3) 0.1616(4) 0.19256(17)
F6 F -0.1930(6) 0.2196(4) 0.2395(2)
O10 O -0.1627(4) 0.0078(4) 0.2356(2)
O11 O -0.1869(4) 0.0887(5) 0.28816(18)
O12 O -0.0851(4) 0.1048(7) 0.2551(3)
C52 C -0.1896(6) 0.1504(7) 0.2229(3)
O13 O -0.2357(3) 0.3477(4) 0.3164(2)
H47 H -0.2267 0.3003 0.3143
C53 C -0.2130(6) 0.3882(7) 0.2843(3)
H48 H -0.2391 0.4353 0.2807
H49 H -0.2173 0.3546 0.2625
H50 H -0.1670 0.4023 0.2877
O14 O -0.2840(3) -0.0544(4) 0.37426(19)
H51 H -0.2759 -0.1014 0.3699
C54 C -0.2249(6) -0.0150(7) 0.3826(4)
H52 H -0.2332 0.0244 0.4016
H53 H -0.2081 0.0101 0.3602
H54 H -0.1926 -0.0523 0.3918
O15 O -0.1676(4) 0.2185(4) 0.3339(2)
H55 H -0.1636 0.1790 0.3205
C55 C -0.1682(7) 0.1951(8) 0.3731(4)
H56 H -0.1767 0.2406 0.3886
H57 H -0.1257 0.1727 0.3796
H58 H -0.2025 0.1563 0.3770
O16 O 0.0092(6) -0.2429(6) 0.4144(3)
H59 H 0.0314 -0.2803 0.4225
C56 C 0.0150(7) -0.2392(8) 0.3759(3)
H60 H 0.0154 -0.1847 0.3681
H61 H -0.0221 -0.2659 0.3644
H62 H 0.0558 -0.2642 0.3683
Ru1 Ru -0.55952(3) -0.20646(4) 0.262147(18)
Ru2 Ru -0.74950(3) -0.37985(4) 0.45217(2)
O1 O -0.6672(3) -0.4054(3) 0.42182(16)
O2 O -0.7637(3) -0.2931(3) 0.41454(16)
O3 O -0.6410(3) -0.1811(3) 0.29182(16)
O4 O -0.5452(3) -0.2936(3) 0.29941(16)
O5 O -0.6601(3) -0.0537(4) 0.56272(17)
O6 O -0.5043(3) -0.0834(4) 0.60008(17)
N1 N -0.6877(3) -0.2979(4) 0.47818(19)
N2 N -0.5876(4) -0.1542(4) 0.55338(19)
H1 H -0.5496 -0.1723 0.5609
N3 N -0.5123(3) -0.1387(4) 0.30321(18)
N4 N -0.5828(3) 0.0069(4) 0.61571(19)
H2 H -0.6225 0.0226 0.6101
C1 C -0.4649(4) -0.4724(5) 0.3568(3)
H3 H -0.4247 -0.4942 0.3488
C2 C -0.4953(4) -0.5016(5) 0.3878(3)
H4 H -0.4759 -0.5430 0.4012
C3 C -0.5553(4) -0.4699(5) 0.3996(2)
H5 H -0.5767 -0.4900 0.4209
C4 C -0.4923(4) -0.4116(5) 0.3371(2)
H6 H -0.4708 -0.3920 0.3158
C5 C -0.5830(4) -0.4084(5) 0.3797(2)
C6 C -0.5505(4) -0.3795(5) 0.3484(2)
C7 C -0.6436(4) -0.3719(5) 0.3931(2)
C8 C -0.5789(4) -0.3128(5) 0.3284(2)
C9 C -0.6700(4) -0.3071(5) 0.3742(2)
C10 C -0.6375(4) -0.2776(5) 0.3413(2)
C11 C -0.7296(4) -0.2736(5) 0.3862(2)
C12 C -0.6645(4) -0.2128(5) 0.3212(2)
C13 C -0.7578(4) -0.2083(5) 0.3655(2)
C14 C -0.7254(4) -0.1782(5) 0.3343(2)
C15 C -0.8155(4) -0.1723(6) 0.3776(2)
H7 H -0.8383 -0.1922 0.3985
C16 C -0.7512(4) -0.1145(5) 0.3161(3)
H8 H -0.7301 -0.0952 0.2946
C17 C -0.8390(5) -0.1083(6) 0.3593(3)
H9 H -0.8779 -0.0842 0.3677
C18 C -0.8072(4) -0.0784(5) 0.3288(2)
H10 H -0.8236 -0.0336 0.3167
C19 C -0.8516(4) -0.4145(6) 0.4463(2)
H11 H -0.8790 -0.3898 0.4267
C20 C -0.8444(5) -0.3773(5) 0.4803(3)
H12 H -0.8662 -0.3259 0.4838
C21 C -0.7957(5) -0.4000(6) 0.5066(3)
C22 C -0.8116(4) -0.4773(5) 0.4371(2)
C23 C -0.7562(5) -0.4652(6) 0.4970(3)
H13 H -0.7164 -0.4769 0.5121
C24 C -0.7639(4) -0.5005(6) 0.4634(3)
H14 H -0.7293 -0.5377 0.4551
C25 C -0.8187(5) -0.5201(5) 0.4003(2)
H15 H -0.7770 -0.5483 0.3953
C26 C -0.8318(5) -0.4657(6) 0.3683(2)
H16 H -0.7957 -0.4286 0.3661
H17 H -0.8354 -0.4957 0.3453
H18 H -0.8727 -0.4375 0.3727
C27 C -0.8745(5) -0.5816(5) 0.4045(3)
H19 H -0.8792 -0.6104 0.3812
H20 H -0.8635 -0.6177 0.4245
H21 H -0.9157 -0.5552 0.4103
C28 C -0.7853(6) -0.3567(7) 0.5420(3)
H22 H -0.8134 -0.3786 0.5613
H23 H -0.7394 -0.3612 0.5495
H24 H -0.7962 -0.3018 0.5383
C29 C -0.5734(4) -0.1307(5) 0.2143(2)
H25 H -0.5921 -0.0777 0.2181
C30 C -0.6152(4) -0.1937(5) 0.2116(2)
H26 H -0.6631 -0.1835 0.2139
C31 C -0.5059(4) -0.1428(6) 0.2202(2)
C32 C -0.4804(5) -0.2179(6) 0.2213(2)
H27 H -0.4345 -0.2260 0.2300
C33 C -0.5940(4) -0.2716(6) 0.2141(2)
C34 C -0.5237(5) -0.2821(6) 0.2195(3)
H28 H -0.5070 -0.3345 0.2267
C35 C -0.7108(5) -0.2259(6) 0.4865(2)
H29 H -0.7504 -0.2091 0.4754
C36 C -0.6303(5) -0.3177(5) 0.4932(3)
H30 H -0.6123 -0.3667 0.4868
C37 C -0.6795(5) -0.1769(5) 0.5103(2)
H31 H -0.6978 -0.1273 0.5154
C38 C -0.5958(5) -0.2719(6) 0.5172(3)
H32 H -0.5553 -0.2889 0.5271
C39 C -0.6218(4) -0.1986(5) 0.5269(2)
C40 C -0.6080(5) -0.0863(6) 0.5682(2)
C41 C -0.5587(5) -0.0550(6) 0.5968(2)
C42 C -0.4592(4) -0.1635(5) 0.3208(2)
H33 H -0.4428 -0.2136 0.3149
C43 C -0.5338(4) -0.0677(5) 0.3123(2)
H34 H -0.5713 -0.0485 0.2997
C44 C -0.4267(4) -0.1207(5) 0.3472(2)
H35 H -0.3885 -0.1407 0.3587
C45 C -0.5055(4) -0.0209(5) 0.3385(2)
H36 H -0.5233 0.0287 0.3440
C46 C -0.5496(4) 0.0473(5) 0.6433(2)
C47 C -0.4623(5) -0.0712(6) 0.2255(3)
H37 H -0.4446 -0.0549 0.2015
H38 H -0.4883 -0.0288 0.2362
H39 H -0.4263 -0.0840 0.2423
C48 C -0.6422(5) -0.3375(6) 0.2114(3)
H40 H -0.6844 -0.3198 0.2224
C49 C -0.6542(7) -0.3550(7) 0.1692(3)
H41 H -0.6694 -0.3076 0.1568
H42 H -0.6134 -0.3725 0.1578
H43 H -0.6875 -0.3956 0.1668
C50 C -0.6197(6) -0.4100(7) 0.2325(3)
H44 H -0.6136 -0.3971 0.2587
H45 H -0.6528 -0.4508 0.2301
H46 H -0.5782 -0.4285 0.2221
Ru1D Ru -0.44048(3) 0.20646(4) 0.737853(18)
Ru2D Ru -0.25050(3) 0.37985(4) 0.54783(2)
O1D O -0.3328(3) 0.4054(3) 0.57818(16)
O2D O -0.2363(3) 0.2931(3) 0.58546(16)
O3D O -0.3590(3) 0.1811(3) 0.70818(16)
O4D O -0.4548(3) 0.2936(3) 0.70059(16)
O5D O -0.3399(3) 0.0537(4) 0.43728(17)
O6D O -0.4957(3) 0.0834(4) 0.39992(17)
N1D N -0.3123(3) 0.2979(4) 0.52182(19)
N2D N -0.4124(4) 0.1542(4) 0.44662(19)
H1D H -0.4504 0.1723 0.4391
N3D N -0.4877(3) 0.1387(4) 0.69679(18)
N4D N -0.4172(3) -0.0069(4) 0.38429(19)
H2D H -0.3775 -0.0226 0.3899
C1D C -0.5351(4) 0.4724(5) 0.6432(3)
H3D H -0.5753 0.4942 0.6512
C2D C -0.5047(4) 0.5016(5) 0.6122(3)
H4D H -0.5241 0.5430 0.5988
C3D C -0.4447(4) 0.4699(5) 0.6004(2)
H5D H -0.4233 0.4900 0.5791
C4D C -0.5077(4) 0.4116(5) 0.6629(2)
H6D H -0.5292 0.3920 0.6842
C5D C -0.4170(4) 0.4084(5) 0.6203(2)
C6D C -0.4495(4) 0.3795(5) 0.6516(2)
C7D C -0.3564(4) 0.3719(5) 0.6069(2)
C8D C -0.4211(4) 0.3128(5) 0.6716(2)
C9D C -0.3300(4) 0.3071(5) 0.6258(2)
C10D C -0.3625(4) 0.2776(5) 0.6587(2)
C11D C -0.2704(4) 0.2736(5) 0.6138(2)
C12D C -0.3355(4) 0.2128(5) 0.6788(2)
C13D C -0.2422(4) 0.2083(5) 0.6345(2)
C14D C -0.2746(4) 0.1782(5) 0.6657(2)
C15D C -0.1845(4) 0.1723(6) 0.6224(2)
H7D H -0.1617 0.1922 0.6015
C16D C -0.2488(4) 0.1145(5) 0.6839(3)
H8D H -0.2699 0.0952 0.7054
C17D C -0.1610(5) 0.1083(6) 0.6407(3)
H9D H -0.1221 0.0842 0.6323
C18D C -0.1928(4) 0.0784(5) 0.6712(2)
H10D H -0.1764 0.0336 0.6833
C19D C -0.1484(4) 0.4145(6) 0.5537(2)
H11D H -0.1210 0.3898 0.5733
C20D C -0.1556(5) 0.3773(5) 0.5197(3)
H12D H -0.1338 0.3259 0.5162
C21D C -0.2043(5) 0.4000(6) 0.4934(3)
C22D C -0.1884(4) 0.4773(5) 0.5629(2)
C23D C -0.2438(5) 0.4652(6) 0.5030(3)
H13D H -0.2836 0.4769 0.4879
C24D C -0.2361(4) 0.5005(6) 0.5366(3)
H14D H -0.2707 0.5377 0.5449
C25D C -0.1813(5) 0.5201(5) 0.5997(2)
H15D H -0.2230 0.5483 0.6047
C26D C -0.1682(5) 0.4657(6) 0.6317(2)
H16D H -0.2043 0.4286 0.6339
H17D H -0.1646 0.4957 0.6547
H18D H -0.1273 0.4375 0.6273
C27D C -0.1255(5) 0.5816(5) 0.5955(3)
H19D H -0.1208 0.6104 0.6188
H20D H -0.1365 0.6177 0.5755
H21D H -0.0843 0.5552 0.5897
C28D C -0.2147(6) 0.3567(7) 0.4580(3)
H22D H -0.1866 0.3786 0.4387
H23D H -0.2606 0.3612 0.4505
H24D H -0.2038 0.3018 0.4617
C29D C -0.4266(4) 0.1307(5) 0.7857(2)
H25D H -0.4079 0.0777 0.7819
C30D C -0.3848(4) 0.1937(5) 0.7884(2)
H26D H -0.3369 0.1835 0.7861
C31D C -0.4941(4) 0.1428(6) 0.7798(2)
C32D C -0.5196(5) 0.2179(6) 0.7787(2)
H27D H -0.5655 0.2260 0.7700
C33D C -0.4060(4) 0.2716(6) 0.7859(2)
C34D C -0.4763(5) 0.2821(6) 0.7805(3)
H28D H -0.4930 0.3345 0.7733
C35D C -0.2892(5) 0.2259(6) 0.5135(2)
H29D H -0.2496 0.2091 0.5246
C36D C -0.3697(5) 0.3177(5) 0.5068(3)
H30D H -0.3877 0.3667 0.5132
C37D C -0.3205(5) 0.1769(5) 0.4897(2)
H31D H -0.3022 0.1273 0.4846
C38D C -0.4042(5) 0.2719(6) 0.4828(3)
H32D H -0.4447 0.2889 0.4729
C39D C -0.3782(4) 0.1986(5) 0.4731(2)
C40D C -0.3920(5) 0.0863(6) 0.4318(2)
C41D C -0.4413(5) 0.0550(6) 0.4032(2)
C42D C -0.5408(4) 0.1635(5) 0.6792(2)
H33D H -0.5572 0.2136 0.6851
C43D C -0.4662(4) 0.0677(5) 0.6877(2)
H34D H -0.4287 0.0485 0.7003
C44D C -0.5733(4) 0.1207(5) 0.6528(2)
H35D H -0.6115 0.1407 0.6413
C45D C -0.4945(4) 0.0209(5) 0.6615(2)
H36D H -0.4767 -0.0287 0.6560
C46D C -0.4504(4) -0.0473(5) 0.3567(2)
C47D C -0.5377(5) 0.0712(6) 0.7745(3)
H37D H -0.5554 0.0549 0.7985
H38D H -0.5117 0.0288 0.7638
H39D H -0.5737 0.0840 0.7577
C48D C -0.3578(5) 0.3375(6) 0.7886(3)
H40D H -0.3156 0.3198 0.7776
C49D C -0.3458(7) 0.3550(7) 0.8308(3)
H41D H -0.3306 0.3076 0.8432
H42D H -0.3866 0.3725 0.8422
H43D H -0.3125 0.3956 0.8332
C50D C -0.3803(6) 0.4100(7) 0.7675(3)
H44D H -0.3864 0.3971 0.7413
H45D H -0.3472 0.4508 0.7699
H46D H -0.4218 0.4285 0.7779
loop_
_geom_bond_atom_site_label_1
_geom_bond_atom_site_label_2
_geom_bond_site_symmetry_1
_geom_bond_site_symmetry_2
Ru1 O3 1_555 1_555
Ru2 O1 1_555 1_555
O1 C7 1_555 1_555
O2 Ru2 1_555 1_555
O3 C12 1_555 1_555
O4 Ru1 1_555 1_555
O5 C40 1_555 1_555
O6 C41 1_555 1_555
N1 Ru2 1_555 1_555
N2 H1 1_555 1_555
N3 Ru1 1_555 1_555
N4 H2 1_555 1_555
C1 H3 1_555 1_555
C2 C1 1_555 1_555
H4 C2 1_555 1_555
C3 C2 1_555 1_555
H5 C3 1_555 1_555
C4 C1 1_555 1_555
H6 C4 1_555 1_555
C5 C3 1_555 1_555
C6 C4 1_555 1_555
C7 C5 1_555 1_555
C8 O4 1_555 1_555
C9 C7 1_555 1_555
C10 C8 1_555 1_555
C11 O2 1_555 1_555
C12 C10 1_555 1_555
C13 C11 1_555 1_555
C14 C12 1_555 1_555
C15 C13 1_555 1_555
H7 C15 1_555 1_555
C16 C14 1_555 1_555
H8 C16 1_555 1_555
C17 C15 1_555 1_555
H9 C17 1_555 1_555
C18 C16 1_555 1_555
H10 C18 1_555 1_555
C19 Ru2 1_555 1_555
H11 C19 1_555 1_555
C20 Ru2 1_555 1_555
H12 C20 1_555 1_555
C21 Ru2 1_555 1_555
C22 Ru2 1_555 1_555
C23 Ru2 1_555 1_555
H13 C23 1_555 1_555
C24 Ru2 1_555 1_555
H14 C24 1_555 1_555
C25 C22 1_555 1_555
H15 C25 1_555 1_555
C26 C25 1_555 1_555
H16 C26 1_555 1_555
H17 C26 1_555 1_555
H18 C26 1_555 1_555
C27 C25 1_555 1_555
H19 C27 1_555 1_555
H20 C27 1_555 1_555
H21 C27 1_555 1_555
C28 C21 1_555 1_555
H22 C28 1_555 1_555
H23 C28 1_555 1_555
H24 C28 1_555 1_555
C29 Ru1 1_555 1_555
H25 C29 1_555 1_555
C30 Ru1 1_555 1_555
H26 C30 1_555 1_555
C31 Ru1 1_555 1_555
C32 Ru1 1_555 1_555
H27 C32 1_555 1_555
C33 Ru1 1_555 1_555
C34 Ru1 1_555 1_555
H28 C34 1_555 1_555
C35 N1 1_555 1_555
H29 C35 1_555 1_555
C36 N1 1_555 1_555
H30 C36 1_555 1_555
C37 C35 1_555 1_555
H31 C37 1_555 1_555
C38 C36 1_555 1_555
H32 C38 1_555 1_555
C39 N2 1_555 1_555
C40 N2 1_555 1_555
C41 N4 1_555 1_555
C42 N3 1_555 1_555
H33 C42 1_555 1_555
C43 N3 1_555 1_555
H34 C43 1_555 1_555
C44 C42 1_555 1_555
H35 C44 1_555 1_555
C45 C43 1_555 1_555
H36 C45 1_555 1_555
C46 N4 1_555 1_555
C47 C31 1_555 1_555
H37 C47 1_555 1_555
H38 C47 1_555 1_555
H39 C47 1_555 1_555
C48 C33 1_555 1_555
H40 C48 1_555 1_555
C49 C48 1_555 1_555
H41 C49 1_555 1_555
H42 C49 1_555 1_555
H43 C49 1_555 1_555
C50 C48 1_555 1_555
H44 C50 1_555 1_555
H45 C50 1_555 1_555
H46 C50 1_555 1_555
S1 O7 1_555 1_555
S2 O10 1_555 1_555
F1 C51 1_555 1_555
F2 C51 1_555 1_555
F3 C51 1_555 1_555
F4 C52 1_555 1_555
F5 C52 1_555 1_555
F6 C52 1_555 1_555
O8 S1 1_555 1_555
O9 S1 1_555 1_555
O11 S2 1_555 1_555
O12 S2 1_555 1_555
C51 S1 1_555 1_555
C52 S2 1_555 1_555
O13 H47 1_555 1_555
C53 O13 1_555 1_555
H48 C53 1_555 1_555
H49 C53 1_555 1_555
H50 C53 1_555 1_555
O14 H51 1_555 1_555
C54 O14 1_555 1_555
H52 C54 1_555 1_555
H53 C54 1_555 1_555
H54 C54 1_555 1_555
O15 H55 1_555 1_555
C55 O15 1_555 1_555
H56 C55 1_555 1_555
H57 C55 1_555 1_555
H58 C55 1_555 1_555
O16 H59 1_555 1_555
C56 O16 1_555 1_555
H60 C56 1_555 1_555
H61 C56 1_555 1_555
H62 C56 1_555 1_555
Ru1D O3D 1_555 1_555
Ru2D O1D 1_555 1_555
O1D C7D 1_555 1_555
O2D Ru2D 1_555 1_555
O3D C12D 1_555 1_555
O4D Ru1D 1_555 1_555
O5D C40D 1_555 1_555
O6D C41D 1_555 1_555
N1D Ru2D 1_555 1_555
N2D H1D 1_555 1_555
N3D Ru1D 1_555 1_555
N4D H2D 1_555 1_555
C1D H3D 1_555 1_555
C2D C1D 1_555 1_555
H4D C2D 1_555 1_555
C3D C2D 1_555 1_555
H5D C3D 1_555 1_555
C4D C1D 1_555 1_555
H6D C4D 1_555 1_555
C5D C3D 1_555 1_555
C6D C4D 1_555 1_555
C7D C5D 1_555 1_555
C8D O4D 1_555 1_555
C9D C7D 1_555 1_555
C10D C8D 1_555 1_555
C11D O2D 1_555 1_555
C12D C10D 1_555 1_555
C13D C11D 1_555 1_555
C14D C12D 1_555 1_555
C15D C13D 1_555 1_555
H7D C15D 1_555 1_555
C16D C14D 1_555 1_555
H8D C16D 1_555 1_555
C17D C15D 1_555 1_555
H9D C17D 1_555 1_555
C18D C16D 1_555 1_555
H10D C18D 1_555 1_555
C19D Ru2D 1_555 1_555
H11D C19D 1_555 1_555
C20D Ru2D 1_555 1_555
H12D C20D 1_555 1_555
C21D Ru2D 1_555 1_555
C22D Ru2D 1_555 1_555
C23D Ru2D 1_555 1_555
H13D C23D 1_555 1_555
C24D Ru2D 1_555 1_555
H14D C24D 1_555 1_555
C25D C22D 1_555 1_555
H15D C25D 1_555 1_555
C26D C25D 1_555 1_555
H16D C26D 1_555 1_555
H17D C26D 1_555 1_555
H18D C26D 1_555 1_555
C27D C25D 1_555 1_555
H19D C27D 1_555 1_555
H20D C27D 1_555 1_555
H21D C27D 1_555 1_555
C28D C21D 1_555 1_555
H22D C28D 1_555 1_555
H23D C28D 1_555 1_555
H24D C28D 1_555 1_555
C29D Ru1D 1_555 1_555
H25D C29D 1_555 1_555
C30D Ru1D 1_555 1_555
H26D C30D 1_555 1_555
C31D Ru1D 1_555 1_555
C32D Ru1D 1_555 1_555
H27D C32D 1_555 1_555
C33D Ru1D 1_555 1_555
C34D Ru1D 1_555 1_555
H28D C34D 1_555 1_555
C35D N1D 1_555 1_555
H29D C35D 1_555 1_555
C36D N1D 1_555 1_555
H30D C36D 1_555 1_555
C37D C35D 1_555 1_555
H31D C37D 1_555 1_555
C38D C36D 1_555 1_555
H32D C38D 1_555 1_555
C39D N2D 1_555 1_555
C40D N2D 1_555 1_555
C41D N4D 1_555 1_555
C42D N3D 1_555 1_555
H33D C42D 1_555 1_555
C43D N3D 1_555 1_555
H34D C43D 1_555 1_555
C44D C46 1_555 1_555
H35D C44D 1_555 1_555
C45D C46 1_555 1_555
H36D C45D 1_555 1_555
C46D C44 1_555 1_555
C47D C31D 1_555 1_555
H37D C47D 1_555 1_555
H38D C47D 1_555 1_555
H39D C47D 1_555 1_555
C48D C33D 1_555 1_555
H40D C48D 1_555 1_555
C49D C48D 1_555 1_555
H41D C49D 1_555 1_555
H42D C49D 1_555 1_555
H43D C49D 1_555 1_555
C50D C48D 1_555 1_555
H44D C50D 1_555 1_555
H45D C50D 1_555 1_555
H46D C50D 1_555 1_555
C5 C6 1_555 1_555
C6 C8 1_555 1_555
C9 C10 1_555 1_555
C9 C11 1_555 1_555
C13 C14 1_555 1_555
C17 C18 1_555 1_555
C19 C20 1_555 1_555
C19 C22 1_555 1_555
C20 C21 1_555 1_555
C21 C23 1_555 1_555
C22 C24 1_555 1_555
C23 C24 1_555 1_555
C29 C30 1_555 1_555
C29 C31 1_555 1_555
C30 C33 1_555 1_555
C31 C32 1_555 1_555
C32 C34 1_555 1_555
C33 C34 1_555 1_555
C37 C39 1_555 1_555
C38 C39 1_555 1_555
C40 C41 1_555 1_555
C45 C46D 1_555 1_555
N4D C46D 1_555 1_555
C5D C6D 1_555 1_555
C6D C8D 1_555 1_555
C9D C10D 1_555 1_555
C9D C11D 1_555 1_555
C13D C14D 1_555 1_555
C17D C18D 1_555 1_555
C19D C20D 1_555 1_555
C19D C22D 1_555 1_555
C20D C21D 1_555 1_555
C21D C23D 1_555 1_555
C22D C24D 1_555 1_555
C23D C24D 1_555 1_555
C29D C30D 1_555 1_555
C29D C31D 1_555 1_555
C30D C33D 1_555 1_555
C31D C32D 1_555 1_555
C32D C34D 1_555 1_555
C33D C34D 1_555 1_555
C37D C39D 1_555 1_555
C38D C39D 1_555 1_555
C40D C41D 1_555 1_555
C42D C44D 1_555 1_555
C43D C45D 1_555 1_555

#END
