# generated using pymatgen
data_H72Ru2C60S2N4O17F6
_symmetry_space_group_name_H-M   'P 1'
_cell_length_a   17.22500000
_cell_length_b   20.45600000
_cell_length_c   36.11000000
_cell_angle_alpha   90.00000000
_cell_angle_beta   90.00000000
_cell_angle_gamma   90.00000000
_symmetry_Int_Tables_number   1
_chemical_formula_structural   H72Ru2C60S2N4O17F6
_chemical_formula_sum   'H576 Ru16 C480 S16 N32 O136 F48'
_cell_volume   12723.52460600
_cell_formula_units_Z   8
loop_
 _symmetry_equiv_pos_site_id
 _symmetry_equiv_pos_as_xyz
  1  'x, y, z'
loop_
 _atom_site_type_symbol
 _atom_site_label
 _atom_site_symmetry_multiplicity
 _atom_site_fract_x
 _atom_site_fract_y
 _atom_site_fract_z
 _atom_site_occupancy
  H  H1  1  0.699700  0.226700  0.685700  1
  H  H2  1  0.300300  0.273300  0.185700  1
  H  H3  1  0.199700  0.773300  0.814300  1
  H  H4  1  0.800300  0.726700  0.314300  1
  H  H5  1  0.300300  0.773300  0.314300  1
  H  H6  1  0.699700  0.726700  0.814300  1
  H  H7  1  0.800300  0.226700  0.185700  1
  H  H8  1  0.199700  0.273300  0.685700  1
  H  H9  1  0.564700  0.239100  0.719300  1
  H  H10  1  0.435300  0.260900  0.219300  1
  H  H11  1  0.064700  0.760900  0.780700  1
  H  H12  1  0.935300  0.739100  0.280700  1
  H  H13  1  0.435300  0.760900  0.280700  1
  H  H14  1  0.564700  0.739100  0.780700  1
  H  H15  1  0.935300  0.239100  0.219300  1
  H  H16  1  0.064700  0.260900  0.719300  1
  H  H17  1  0.645400  0.217300  0.737500  1
  H  H18  1  0.354600  0.282700  0.237500  1
  H  H19  1  0.145400  0.782700  0.762500  1
  H  H20  1  0.854600  0.717300  0.262500  1
  H  H21  1  0.354600  0.782700  0.262500  1
  H  H22  1  0.645400  0.717300  0.762500  1
  H  H23  1  0.854600  0.217300  0.237500  1
  H  H24  1  0.145400  0.282700  0.737500  1
  H  H25  1  0.597700  0.167000  0.712300  1
  H  H26  1  0.402300  0.333000  0.212300  1
  H  H27  1  0.097700  0.833000  0.787700  1
  H  H28  1  0.902300  0.667000  0.287700  1
  H  H29  1  0.402300  0.833000  0.287700  1
  H  H30  1  0.597700  0.667000  0.787700  1
  H  H31  1  0.902300  0.167000  0.212300  1
  H  H32  1  0.097700  0.333000  0.712300  1
  H  H33  1  0.101400  0.275900  0.630100  1
  H  H34  1  0.898600  0.224100  0.130100  1
  H  H35  1  0.601400  0.724100  0.869900  1
  H  H36  1  0.398600  0.775900  0.369900  1
  H  H37  1  0.898600  0.724100  0.369900  1
  H  H38  1  0.101400  0.775900  0.869900  1
  H  H39  1  0.398600  0.275900  0.130100  1
  H  H40  1  0.601400  0.224100  0.630100  1
  H  H41  1  0.975600  0.233200  0.598400  1
  H  H42  1  0.024400  0.266800  0.098400  1
  H  H43  1  0.475600  0.766800  0.901600  1
  H  H44  1  0.524400  0.733200  0.401600  1
  H  H45  1  0.024400  0.766800  0.401600  1
  H  H46  1  0.975600  0.733200  0.901600  1
  H  H47  1  0.524400  0.233200  0.098400  1
  H  H48  1  0.475600  0.266800  0.598400  1
  H  H49  1  0.989900  0.208100  0.639800  1
  H  H50  1  0.010100  0.291900  0.139800  1
  H  H51  1  0.489900  0.791900  0.860200  1
  H  H52  1  0.510100  0.708100  0.360200  1
  H  H53  1  0.010100  0.791900  0.360200  1
  H  H54  1  0.989900  0.708100  0.860200  1
  H  H55  1  0.510100  0.208100  0.139800  1
  H  H56  1  0.489900  0.291900  0.639800  1
  H  H57  1  0.052300  0.192600  0.608200  1
  H  H58  1  0.947700  0.307400  0.108200  1
  H  H59  1  0.552300  0.807400  0.891800  1
  H  H60  1  0.447700  0.692600  0.391800  1
  H  H61  1  0.947700  0.807400  0.391800  1
  H  H62  1  0.052300  0.692600  0.891800  1
  H  H63  1  0.447700  0.192600  0.108200  1
  H  H64  1  0.552300  0.307400  0.608200  1
  H  H65  1  0.821000  0.163600  0.679500  1
  H  H66  1  0.179000  0.336400  0.179500  1
  H  H67  1  0.321000  0.836400  0.820500  1
  H  H68  1  0.679000  0.663600  0.320500  1
  H  H69  1  0.179000  0.836400  0.320500  1
  H  H70  1  0.821000  0.663600  0.820500  1
  H  H71  1  0.679000  0.163600  0.179500  1
  H  H72  1  0.321000  0.336400  0.679500  1
  H  H73  1  0.759400  0.176700  0.611400  1
  H  H74  1  0.240600  0.323300  0.111400  1
  H  H75  1  0.259400  0.823300  0.888600  1
  H  H76  1  0.740600  0.676700  0.388600  1
  H  H77  1  0.240600  0.823300  0.388600  1
  H  H78  1  0.759400  0.676700  0.888600  1
  H  H79  1  0.740600  0.176700  0.111400  1
  H  H80  1  0.259400  0.323300  0.611400  1
  H  H81  1  0.827300  0.125700  0.620400  1
  H  H82  1  0.172700  0.374300  0.120400  1
  H  H83  1  0.327300  0.874300  0.879600  1
  H  H84  1  0.672700  0.625700  0.379600  1
  H  H85  1  0.172700  0.874300  0.379600  1
  H  H86  1  0.827300  0.625700  0.879600  1
  H  H87  1  0.672700  0.125700  0.120400  1
  H  H88  1  0.327300  0.374300  0.620400  1
  H  H89  1  0.843700  0.202500  0.623000  1
  H  H90  1  0.156300  0.297500  0.123000  1
  H  H91  1  0.343700  0.797500  0.877000  1
  H  H92  1  0.656300  0.702500  0.377000  1
  H  H93  1  0.156300  0.797500  0.377000  1
  H  H94  1  0.843700  0.702500  0.877000  1
  H  H95  1  0.656300  0.202500  0.123000  1
  H  H96  1  0.343700  0.297500  0.623000  1
  H  H97  1  0.280300  0.968600  0.577500  1
  H  H98  1  0.719700  0.531400  0.077500  1
  H  H99  1  0.780300  0.031400  0.922500  1
  H  H100  1  0.219700  0.468600  0.422500  1
  H  H101  1  0.719700  0.031400  0.422500  1
  H  H102  1  0.280300  0.468600  0.922500  1
  H  H103  1  0.219700  0.968600  0.077500  1
  H  H104  1  0.780300  0.531400  0.577500  1
  H  H105  1  0.184700  0.984600  0.631900  1
  H  H106  1  0.815300  0.515400  0.131900  1
  H  H107  1  0.684700  0.015400  0.868100  1
  H  H108  1  0.315300  0.484600  0.368100  1
  H  H109  1  0.815300  0.015400  0.368100  1
  H  H110  1  0.184700  0.484600  0.868100  1
  H  H111  1  0.315300  0.984600  0.131900  1
  H  H112  1  0.684700  0.515400  0.631900  1
  H  H113  1  0.265900  0.022100  0.635600  1
  H  H114  1  0.734100  0.477900  0.135600  1
  H  H115  1  0.765900  0.977900  0.864400  1
  H  H116  1  0.234100  0.522100  0.364400  1
  H  H117  1  0.734100  0.977900  0.364400  1
  H  H118  1  0.265900  0.522100  0.864400  1
  H  H119  1  0.234100  0.022100  0.135600  1
  H  H120  1  0.765900  0.477900  0.635600  1
  H  H121  1  0.264200  0.944200  0.631700  1
  H  H122  1  0.735800  0.555800  0.131700  1
  H  H123  1  0.764200  0.055800  0.868300  1
  H  H124  1  0.235800  0.444200  0.368300  1
  H  H125  1  0.735800  0.055800  0.368300  1
  H  H126  1  0.264200  0.444200  0.868300  1
  H  H127  1  0.235800  0.944200  0.131700  1
  H  H128  1  0.764200  0.555800  0.631700  1
  H  H129  1  0.791900  0.570000  0.453900  1
  H  H130  1  0.208100  0.930000  0.953900  1
  H  H131  1  0.291900  0.430000  0.046100  1
  H  H132  1  0.708100  0.070000  0.546100  1
  H  H133  1  0.208100  0.430000  0.546100  1
  H  H134  1  0.791900  0.070000  0.046100  1
  H  H135  1  0.708100  0.570000  0.953900  1
  H  H136  1  0.291900  0.930000  0.453900  1
  H  H137  1  0.845800  0.561600  0.417900  1
  H  H138  1  0.154200  0.938400  0.917900  1
  H  H139  1  0.345800  0.438400  0.082100  1
  H  H140  1  0.654200  0.061600  0.582100  1
  H  H141  1  0.154200  0.438400  0.582100  1
  H  H142  1  0.845800  0.061600  0.082100  1
  H  H143  1  0.654200  0.561600  0.917900  1
  H  H144  1  0.345800  0.938400  0.417900  1
  H  H145  1  0.741600  0.458900  0.437900  1
  H  H146  1  0.258400  0.041100  0.937900  1
  H  H147  1  0.241600  0.541100  0.062100  1
  H  H148  1  0.758400  0.958900  0.562100  1
  H  H149  1  0.258400  0.541100  0.562100  1
  H  H150  1  0.741600  0.958900  0.062100  1
  H  H151  1  0.758400  0.458900  0.937900  1
  H  H152  1  0.241600  0.041100  0.437900  1
  H  H153  1  0.710500  0.518600  0.413400  1
  H  H154  1  0.289500  0.981400  0.913400  1
  H  H155  1  0.210500  0.481400  0.086600  1
  H  H156  1  0.789500  0.018600  0.586600  1
  H  H157  1  0.289500  0.481400  0.586600  1
  H  H158  1  0.710500  0.018600  0.086600  1
  H  H159  1  0.789500  0.518600  0.913400  1
  H  H160  1  0.210500  0.981400  0.413400  1
  H  H161  1  0.777900  0.472400  0.397800  1
  H  H162  1  0.222100  0.027600  0.897800  1
  H  H163  1  0.277900  0.527600  0.102200  1
  H  H164  1  0.722100  0.972400  0.602200  1
  H  H165  1  0.222100  0.527600  0.602200  1
  H  H166  1  0.777900  0.972400  0.102200  1
  H  H167  1  0.722100  0.472400  0.897800  1
  H  H168  1  0.277900  0.027600  0.397800  1
  H  H169  1  0.969200  0.553600  0.448900  1
  H  H170  1  0.030800  0.946400  0.948900  1
  H  H171  1  0.469200  0.446400  0.051100  1
  H  H172  1  0.530800  0.053600  0.551100  1
  H  H173  1  0.030800  0.446400  0.551100  1
  H  H174  1  0.969200  0.053600  0.051100  1
  H  H175  1  0.530800  0.553600  0.948900  1
  H  H176  1  0.469200  0.946400  0.448900  1
  H  H177  1  0.928700  0.570700  0.487800  1
  H  H178  1  0.071300  0.929300  0.987800  1
  H  H179  1  0.428700  0.429300  0.012200  1
  H  H180  1  0.571300  0.070700  0.512200  1
  H  H181  1  0.071300  0.429300  0.512200  1
  H  H182  1  0.928700  0.070700  0.012200  1
  H  H183  1  0.571300  0.570700  0.987800  1
  H  H184  1  0.428700  0.929300  0.487800  1
  H  H185  1  0.042000  0.475700  0.473800  1
  H  H186  1  0.958000  0.024300  0.973800  1
  H  H187  1  0.542000  0.524300  0.026200  1
  H  H188  1  0.458000  0.975700  0.526200  1
  H  H189  1  0.958000  0.524300  0.526200  1
  H  H190  1  0.042000  0.975700  0.026200  1
  H  H191  1  0.458000  0.475700  0.973800  1
  H  H192  1  0.542000  0.024300  0.473800  1
  H  H193  1  0.024200  0.512200  0.512100  1
  H  H194  1  0.975800  0.987800  0.012100  1
  H  H195  1  0.524200  0.487800  0.987900  1
  H  H196  1  0.475800  0.012200  0.487900  1
  H  H197  1  0.975800  0.487800  0.487900  1
  H  H198  1  0.024200  0.012200  0.987900  1
  H  H199  1  0.475800  0.512200  0.012100  1
  H  H200  1  0.524200  0.987800  0.512100  1
  H  H201  1  0.973300  0.450300  0.500000  1
  H  H202  1  0.026700  0.049700  0.000000  1
  H  H203  1  0.473300  0.549700  0.000000  1
  H  H204  1  0.526700  0.950300  0.500000  1
  H  H205  1  0.026700  0.549700  0.500000  1
  H  H206  1  0.973300  0.950300  0.000000  1
  H  H207  1  0.526700  0.450300  0.000000  1
  H  H208  1  0.473300  0.049700  0.500000  1
  H  H209  1  0.172300  0.549600  0.439100  1.0
  H  H210  1  0.827700  0.950400  0.939100  1.0
  H  H211  1  0.672300  0.450400  0.060900  1.0
  H  H212  1  0.327700  0.049600  0.560900  1.0
  H  H213  1  0.827700  0.450400  0.560900  1.0
  H  H214  1  0.172300  0.049600  0.060900  1.0
  H  H215  1  0.327700  0.549600  0.939100  1.0
  H  H216  1  0.672300  0.950400  0.439100  1.0
  H  H217  1  0.977400  0.622500  0.389900  1.0
  H  H218  1  0.022600  0.877500  0.889900  1.0
  H  H219  1  0.477400  0.377500  0.110100  1.0
  H  H220  1  0.522600  0.122500  0.610100  1.0
  H  H221  1  0.022600  0.377500  0.610100  1.0
  H  H222  1  0.977400  0.122500  0.110100  1.0
  H  H223  1  0.522600  0.622500  0.889900  1.0
  H  H224  1  0.477400  0.877500  0.389900  1.0
  H  H225  1  0.494200  0.424700  0.651200  1.0
  H  H226  1  0.505800  0.075300  0.151200  1.0
  H  H227  1  0.994200  0.575300  0.848800  1.0
  H  H228  1  0.005800  0.924700  0.348800  1.0
  H  H229  1  0.505800  0.575300  0.348800  1.0
  H  H230  1  0.494200  0.924700  0.848800  1.0
  H  H231  1  0.005800  0.424700  0.151200  1.0
  H  H232  1  0.994200  0.075300  0.651200  1.0
  H  H233  1  0.543000  0.475900  0.598800  1.0
  H  H234  1  0.457000  0.024100  0.098800  1.0
  H  H235  1  0.043000  0.524100  0.901200  1.0
  H  H236  1  0.957000  0.975900  0.401200  1.0
  H  H237  1  0.457000  0.524100  0.401200  1.0
  H  H238  1  0.543000  0.975900  0.901200  1.0
  H  H239  1  0.957000  0.475900  0.098800  1.0
  H  H240  1  0.043000  0.024100  0.598800  1.0
  H  H241  1  0.490000  0.576700  0.579100  1.0
  H  H242  1  0.510000  0.923300  0.079100  1.0
  H  H243  1  0.990000  0.423300  0.920900  1.0
  H  H244  1  0.010000  0.076700  0.420900  1.0
  H  H245  1  0.510000  0.423300  0.420900  1.0
  H  H246  1  0.490000  0.076700  0.920900  1.0
  H  H247  1  0.010000  0.576700  0.079100  1.0
  H  H248  1  0.990000  0.923300  0.579100  1.0
  H  H249  1  0.392000  0.470800  0.684200  1.0
  H  H250  1  0.608000  0.029200  0.184200  1.0
  H  H251  1  0.892000  0.529200  0.815800  1.0
  H  H252  1  0.108000  0.970800  0.315800  1.0
  H  H253  1  0.608000  0.529200  0.315800  1.0
  H  H254  1  0.392000  0.970800  0.815800  1.0
  H  H255  1  0.108000  0.470800  0.184200  1.0
  H  H256  1  0.892000  0.029200  0.684200  1.0
  H  H257  1  0.192200  0.838300  0.601500  1.0
  H  H258  1  0.807800  0.661700  0.101500  1.0
  H  H259  1  0.692200  0.161700  0.898500  1.0
  H  H260  1  0.307800  0.338300  0.398500  1.0
  H  H261  1  0.807800  0.161700  0.398500  1.0
  H  H262  1  0.192200  0.338300  0.898500  1.0
  H  H263  1  0.307800  0.838300  0.101500  1.0
  H  H264  1  0.692200  0.661700  0.601500  1.0
  H  H265  1  0.095200  0.730100  0.705400  1.0
  H  H266  1  0.904800  0.769900  0.205400  1.0
  H  H267  1  0.595200  0.269900  0.794600  1.0
  H  H268  1  0.404800  0.230100  0.294600  1.0
  H  H269  1  0.904800  0.269900  0.294600  1.0
  H  H270  1  0.095200  0.230100  0.794600  1.0
  H  H271  1  0.404800  0.730100  0.205400  1.0
  H  H272  1  0.595200  0.769900  0.705400  1.0
  H  H273  1  0.084200  0.877900  0.632300  1.0
  H  H274  1  0.915800  0.622100  0.132300  1.0
  H  H275  1  0.584200  0.122100  0.867700  1.0
  H  H276  1  0.415800  0.377900  0.367700  1.0
  H  H277  1  0.915800  0.122100  0.367700  1.0
  H  H278  1  0.084200  0.377900  0.867700  1.0
  H  H279  1  0.415800  0.877900  0.132300  1.0
  H  H280  1  0.584200  0.622100  0.632300  1.0
  H  H281  1  0.033600  0.823600  0.683300  1.0
  H  H282  1  0.966400  0.676400  0.183300  1.0
  H  H283  1  0.533600  0.176400  0.816700  1.0
  H  H284  1  0.466400  0.323600  0.316700  1.0
  H  H285  1  0.966400  0.176400  0.316700  1.0
  H  H286  1  0.033600  0.323600  0.816700  1.0
  H  H287  1  0.466400  0.823600  0.183300  1.0
  H  H288  1  0.533600  0.676400  0.683300  1.0
  H  H289  1  0.389800  0.879000  0.573300  1.0
  H  H290  1  0.610200  0.621000  0.073300  1.0
  H  H291  1  0.889800  0.121000  0.926700  1.0
  H  H292  1  0.110200  0.379000  0.426700  1.0
  H  H293  1  0.610200  0.121000  0.426700  1.0
  H  H294  1  0.389800  0.379000  0.926700  1.0
  H  H295  1  0.110200  0.879000  0.073300  1.0
  H  H296  1  0.889800  0.621000  0.573300  1.0
  H  H297  1  0.325900  0.866200  0.516200  1.0
  H  H298  1  0.674100  0.633800  0.016200  1.0
  H  H299  1  0.825900  0.133800  0.983800  1.0
  H  H300  1  0.174100  0.366200  0.483800  1.0
  H  H301  1  0.674100  0.133800  0.483800  1.0
  H  H302  1  0.325900  0.366200  0.983800  1.0
  H  H303  1  0.174100  0.866200  0.016200  1.0
  H  H304  1  0.825900  0.633800  0.516200  1.0
  H  H305  1  0.476900  0.716400  0.487900  1.0
  H  H306  1  0.523100  0.783600  0.987900  1.0
  H  H307  1  0.976900  0.283600  0.012100  1.0
  H  H308  1  0.023100  0.216400  0.512100  1.0
  H  H309  1  0.523100  0.283600  0.512100  1.0
  H  H310  1  0.476900  0.216400  0.012100  1.0
  H  H311  1  0.023100  0.716400  0.987900  1.0
  H  H312  1  0.976900  0.783600  0.487900  1.0
  H  H313  1  0.537700  0.729300  0.544900  1.0
  H  H314  1  0.462300  0.770700  0.044900  1.0
  H  H315  1  0.037700  0.270700  0.955100  1.0
  H  H316  1  0.962300  0.229300  0.455100  1.0
  H  H317  1  0.462300  0.270700  0.455100  1.0
  H  H318  1  0.537700  0.229300  0.955100  1.0
  H  H319  1  0.962300  0.729300  0.044900  1.0
  H  H320  1  0.037700  0.770700  0.544900  1.0
  H  H321  1  0.548300  0.777000  0.604700  1.0
  H  H322  1  0.451700  0.723000  0.104700  1.0
  H  H323  1  0.048300  0.223000  0.895300  1.0
  H  H324  1  0.951700  0.277000  0.395300  1.0
  H  H325  1  0.451700  0.223000  0.395300  1.0
  H  H326  1  0.548300  0.277000  0.895300  1.0
  H  H327  1  0.951700  0.777000  0.104700  1.0
  H  H328  1  0.048300  0.723000  0.604700  1.0
  H  H329  1  0.428600  0.795700  0.633900  1.0
  H  H330  1  0.571400  0.704300  0.133900  1.0
  H  H331  1  0.928600  0.204300  0.866100  1.0
  H  H332  1  0.071400  0.295700  0.366100  1.0
  H  H333  1  0.571400  0.204300  0.366100  1.0
  H  H334  1  0.428600  0.295700  0.866100  1.0
  H  H335  1  0.071400  0.795700  0.133900  1.0
  H  H336  1  0.928600  0.704300  0.633900  1.0
  H  H337  1  0.495700  0.835400  0.654700  1.0
  H  H338  1  0.504300  0.664600  0.154700  1.0
  H  H339  1  0.995700  0.164600  0.845300  1.0
  H  H340  1  0.004300  0.335400  0.345300  1.0
  H  H341  1  0.504300  0.164600  0.345300  1.0
  H  H342  1  0.495700  0.335400  0.845300  1.0
  H  H343  1  0.004300  0.835400  0.154700  1.0
  H  H344  1  0.995700  0.664600  0.654700  1.0
  H  H345  1  0.437500  0.872700  0.627300  1.0
  H  H346  1  0.562500  0.627300  0.127300  1.0
  H  H347  1  0.937500  0.127300  0.872700  1.0
  H  H348  1  0.062500  0.372700  0.372700  1.0
  H  H349  1  0.562500  0.127300  0.372700  1.0
  H  H350  1  0.437500  0.372700  0.872700  1.0
  H  H351  1  0.062500  0.872700  0.127300  1.0
  H  H352  1  0.937500  0.627300  0.627300  1.0
  H  H353  1  0.610400  0.879200  0.618800  1.0
  H  H354  1  0.389600  0.620800  0.118800  1.0
  H  H355  1  0.110400  0.120800  0.881200  1.0
  H  H356  1  0.889600  0.379200  0.381200  1.0
  H  H357  1  0.389600  0.120800  0.381200  1.0
  H  H358  1  0.610400  0.379200  0.881200  1.0
  H  H359  1  0.889600  0.879200  0.118800  1.0
  H  H360  1  0.110400  0.620800  0.618800  1.0
  H  H361  1  0.617700  0.863500  0.575500  1.0
  H  H362  1  0.382300  0.636500  0.075500  1.0
  H  H363  1  0.117700  0.136500  0.924500  1.0
  H  H364  1  0.882300  0.363500  0.424500  1.0
  H  H365  1  0.382300  0.136500  0.424500  1.0
  H  H366  1  0.617700  0.363500  0.924500  1.0
  H  H367  1  0.882300  0.863500  0.075500  1.0
  H  H368  1  0.117700  0.636500  0.575500  1.0
  H  H369  1  0.555200  0.915700  0.589700  1.0
  H  H370  1  0.444800  0.584300  0.089700  1.0
  H  H371  1  0.055200  0.084300  0.910300  1.0
  H  H372  1  0.944800  0.415700  0.410300  1.0
  H  H373  1  0.444800  0.084300  0.410300  1.0
  H  H374  1  0.555200  0.415700  0.910300  1.0
  H  H375  1  0.944800  0.915700  0.089700  1.0
  H  H376  1  0.055200  0.584300  0.589700  1.0
  H  H377  1  0.378600  0.813400  0.438700  1.0
  H  H378  1  0.621400  0.686600  0.938700  1.0
  H  H379  1  0.878600  0.186600  0.061300  1.0
  H  H380  1  0.121400  0.313400  0.561300  1.0
  H  H381  1  0.621400  0.186600  0.561300  1.0
  H  H382  1  0.378600  0.313400  0.061300  1.0
  H  H383  1  0.121400  0.813400  0.938700  1.0
  H  H384  1  0.878600  0.686600  0.438700  1.0
  H  H385  1  0.361200  0.739400  0.450500  1.0
  H  H386  1  0.638800  0.760600  0.950500  1.0
  H  H387  1  0.861200  0.260600  0.049500  1.0
  H  H388  1  0.138800  0.239400  0.549500  1.0
  H  H389  1  0.638800  0.260600  0.549500  1.0
  H  H390  1  0.361200  0.239400  0.049500  1.0
  H  H391  1  0.138800  0.739400  0.950500  1.0
  H  H392  1  0.861200  0.760600  0.450500  1.0
  H  H393  1  0.301800  0.796200  0.461700  1.0
  H  H394  1  0.698200  0.703800  0.961700  1.0
  H  H395  1  0.801800  0.203800  0.038300  1.0
  H  H396  1  0.198200  0.296200  0.538300  1.0
  H  H397  1  0.698200  0.203800  0.538300  1.0
  H  H398  1  0.301800  0.296200  0.038300  1.0
  H  H399  1  0.198200  0.796200  0.961700  1.0
  H  H400  1  0.801800  0.703800  0.461700  1.0
  H  H401  1  0.077700  0.592100  0.781900  1.0
  H  H402  1  0.922300  0.907900  0.281900  1.0
  H  H403  1  0.577700  0.407900  0.718100  1.0
  H  H404  1  0.422300  0.092100  0.218100  1.0
  H  H405  1  0.922300  0.407900  0.218100  1.0
  H  H406  1  0.077700  0.092100  0.718100  1.0
  H  H407  1  0.422300  0.592100  0.281900  1.0
  H  H408  1  0.577700  0.907900  0.781900  1.0
  H  H409  1  0.183500  0.663100  0.786100  1.0
  H  H410  1  0.816500  0.836900  0.286100  1.0
  H  H411  1  0.683500  0.336900  0.713900  1.0
  H  H412  1  0.316500  0.163100  0.213900  1.0
  H  H413  1  0.816500  0.336900  0.213900  1.0
  H  H414  1  0.183500  0.163100  0.713900  1.0
  H  H415  1  0.316500  0.663100  0.286100  1.0
  H  H416  1  0.683500  0.836900  0.786100  1.0
  H  H417  1  0.226000  0.434500  0.770000  1.0
  H  H418  1  0.774000  0.065500  0.270000  1.0
  H  H419  1  0.726000  0.565500  0.730000  1.0
  H  H420  1  0.274000  0.934500  0.230000  1.0
  H  H421  1  0.774000  0.565500  0.230000  1.0
  H  H422  1  0.226000  0.934500  0.730000  1.0
  H  H423  1  0.274000  0.434500  0.270000  1.0
  H  H424  1  0.726000  0.065500  0.770000  1.0
  H  H425  1  0.334500  0.507000  0.773300  1.0
  H  H426  1  0.665500  0.993000  0.273300  1.0
  H  H427  1  0.834500  0.493000  0.726700  1.0
  H  H428  1  0.165500  0.007000  0.226700  1.0
  H  H429  1  0.665500  0.493000  0.226700  1.0
  H  H430  1  0.334500  0.007000  0.726700  1.0
  H  H431  1  0.165500  0.507000  0.273300  1.0
  H  H432  1  0.834500  0.993000  0.773300  1.0
  H  H433  1  0.209100  0.750400  0.524600  1.0
  H  H434  1  0.790900  0.749600  0.024600  1.0
  H  H435  1  0.709100  0.249600  0.975400  1.0
  H  H436  1  0.290900  0.250400  0.475400  1.0
  H  H437  1  0.790900  0.249600  0.475400  1.0
  H  H438  1  0.209100  0.250400  0.975400  1.0
  H  H439  1  0.290900  0.750400  0.024600  1.0
  H  H440  1  0.709100  0.749600  0.524600  1.0
  H  H441  1  0.366700  0.612300  0.513200  1.0
  H  H442  1  0.633300  0.887700  0.013200  1.0
  H  H443  1  0.866700  0.387700  0.986800  1.0
  H  H444  1  0.133300  0.112300  0.486800  1.0
  H  H445  1  0.633300  0.387700  0.486800  1.0
  H  H446  1  0.366700  0.112300  0.986800  1.0
  H  H447  1  0.133300  0.612300  0.013200  1.0
  H  H448  1  0.866700  0.887700  0.513200  1.0
  H  H449  1  0.127300  0.697800  0.484600  1.0
  H  H450  1  0.872700  0.802200  0.984600  1.0
  H  H451  1  0.627300  0.302200  0.015400  1.0
  H  H452  1  0.372700  0.197800  0.515400  1.0
  H  H453  1  0.872700  0.302200  0.515400  1.0
  H  H454  1  0.127300  0.197800  0.015400  1.0
  H  H455  1  0.372700  0.697800  0.984600  1.0
  H  H456  1  0.627300  0.802200  0.484600  1.0
  H  H457  1  0.288900  0.555300  0.472900  1.0
  H  H458  1  0.711100  0.944700  0.972900  1.0
  H  H459  1  0.788900  0.444700  0.027100  1.0
  H  H460  1  0.211100  0.055300  0.527100  1.0
  H  H461  1  0.711100  0.444700  0.527100  1.0
  H  H462  1  0.288900  0.055300  0.027100  1.0
  H  H463  1  0.211100  0.555300  0.972900  1.0
  H  H464  1  0.788900  0.944700  0.472900  1.0
  H  H465  1  0.213600  0.442800  0.685100  1.0
  H  H466  1  0.786400  0.057200  0.185100  1.0
  H  H467  1  0.713600  0.557200  0.814900  1.0
  H  H468  1  0.286400  0.942800  0.314900  1.0
  H  H469  1  0.786400  0.557200  0.314900  1.0
  H  H470  1  0.213600  0.942800  0.814900  1.0
  H  H471  1  0.286400  0.442800  0.185100  1.0
  H  H472  1  0.713600  0.057200  0.685100  1.0
  H  H473  1  0.048500  0.571300  0.700300  1.0
  H  H474  1  0.951500  0.928700  0.200300  1.0
  H  H475  1  0.548500  0.428700  0.799700  1.0
  H  H476  1  0.451500  0.071300  0.299700  1.0
  H  H477  1  0.951500  0.428700  0.299700  1.0
  H  H478  1  0.048500  0.071300  0.799700  1.0
  H  H479  1  0.451500  0.571300  0.200300  1.0
  H  H480  1  0.548500  0.928700  0.700300  1.0
  H  H481  1  0.140700  0.388500  0.641300  1.0
  H  H482  1  0.859300  0.111500  0.141300  1.0
  H  H483  1  0.640700  0.611500  0.858700  1.0
  H  H484  1  0.359300  0.888500  0.358700  1.0
  H  H485  1  0.859300  0.611500  0.358700  1.0
  H  H486  1  0.140700  0.888500  0.858700  1.0
  H  H487  1  0.359300  0.388500  0.141300  1.0
  H  H488  1  0.640700  0.111500  0.641300  1.0
  H  H489  1  0.971300  0.523300  0.656000  1.0
  H  H490  1  0.028700  0.976700  0.156000  1.0
  H  H491  1  0.471300  0.476700  0.844000  1.0
  H  H492  1  0.528700  0.023300  0.344000  1.0
  H  H493  1  0.028700  0.476700  0.344000  1.0
  H  H494  1  0.971300  0.023300  0.844000  1.0
  H  H495  1  0.528700  0.523300  0.156000  1.0
  H  H496  1  0.471300  0.976700  0.656000  1.0
  H  H497  1  0.054900  0.444600  0.798500  1.0
  H  H498  1  0.945100  0.055400  0.298500  1.0
  H  H499  1  0.554900  0.555400  0.701500  1.0
  H  H500  1  0.445100  0.944600  0.201500  1.0
  H  H501  1  0.945100  0.555400  0.201500  1.0
  H  H502  1  0.054900  0.944600  0.701500  1.0
  H  H503  1  0.445100  0.444600  0.298500  1.0
  H  H504  1  0.554900  0.055400  0.798500  1.0
  H  H505  1  0.028800  0.488300  0.763800  1.0
  H  H506  1  0.971200  0.011700  0.263800  1.0
  H  H507  1  0.528800  0.511700  0.736200  1.0
  H  H508  1  0.471200  0.988300  0.236200  1.0
  H  H509  1  0.971200  0.511700  0.236200  1.0
  H  H510  1  0.028800  0.988300  0.736200  1.0
  H  H511  1  0.471200  0.488300  0.263800  1.0
  H  H512  1  0.528800  0.011700  0.763800  1.0
  H  H513  1  0.084000  0.426300  0.757700  1.0
  H  H514  1  0.916000  0.073700  0.257700  1.0
  H  H515  1  0.584000  0.573700  0.742300  1.0
  H  H516  1  0.416000  0.926300  0.242300  1.0
  H  H517  1  0.916000  0.573700  0.242300  1.0
  H  H518  1  0.084000  0.926300  0.742300  1.0
  H  H519  1  0.416000  0.426300  0.257700  1.0
  H  H520  1  0.584000  0.073700  0.757700  1.0
  H  H521  1  0.319800  0.684400  0.777600  1.0
  H  H522  1  0.680200  0.815600  0.277600  1.0
  H  H523  1  0.819800  0.315600  0.722400  1.0
  H  H524  1  0.180200  0.184400  0.222400  1.0
  H  H525  1  0.680200  0.315600  0.222400  1.0
  H  H526  1  0.319800  0.184400  0.722400  1.0
  H  H527  1  0.180200  0.684400  0.277600  1.0
  H  H528  1  0.819800  0.815600  0.777600  1.0
  H  H529  1  0.307600  0.669400  0.843200  1.0
  H  H530  1  0.692400  0.830600  0.343200  1.0
  H  H531  1  0.807600  0.330600  0.656800  1.0
  H  H532  1  0.192400  0.169400  0.156800  1.0
  H  H533  1  0.692400  0.330600  0.156800  1.0
  H  H534  1  0.307600  0.169400  0.656800  1.0
  H  H535  1  0.192400  0.669400  0.343200  1.0
  H  H536  1  0.807600  0.830600  0.843200  1.0
  H  H537  1  0.372500  0.613400  0.842200  1.0
  H  H538  1  0.627500  0.886600  0.342200  1.0
  H  H539  1  0.872500  0.386600  0.657800  1.0
  H  H540  1  0.127500  0.113400  0.157800  1.0
  H  H541  1  0.627500  0.386600  0.157800  1.0
  H  H542  1  0.372500  0.113400  0.657800  1.0
  H  H543  1  0.127500  0.613400  0.342200  1.0
  H  H544  1  0.872500  0.886600  0.842200  1.0
  H  H545  1  0.395600  0.687500  0.833200  1.0
  H  H546  1  0.604400  0.812500  0.333200  1.0
  H  H547  1  0.895600  0.312500  0.666800  1.0
  H  H548  1  0.104400  0.187500  0.166800  1.0
  H  H549  1  0.604400  0.312500  0.166800  1.0
  H  H550  1  0.395600  0.187500  0.666800  1.0
  H  H551  1  0.104400  0.687500  0.333200  1.0
  H  H552  1  0.895600  0.812500  0.833200  1.0
  H  H553  1  0.397100  0.613600  0.741300  1.0
  H  H554  1  0.602900  0.886400  0.241300  1.0
  H  H555  1  0.897100  0.386400  0.758700  1.0
  H  H556  1  0.102900  0.113600  0.258700  1.0
  H  H557  1  0.602900  0.386400  0.258700  1.0
  H  H558  1  0.397100  0.113600  0.758700  1.0
  H  H559  1  0.102900  0.613600  0.241300  1.0
  H  H560  1  0.897100  0.886400  0.741300  1.0
  H  H561  1  0.450800  0.652800  0.769900  1.0
  H  H562  1  0.549200  0.847200  0.269900  1.0
  H  H563  1  0.950800  0.347200  0.730100  1.0
  H  H564  1  0.049200  0.152800  0.230100  1.0
  H  H565  1  0.549200  0.347200  0.230100  1.0
  H  H566  1  0.450800  0.152800  0.730100  1.0
  H  H567  1  0.049200  0.652800  0.269900  1.0
  H  H568  1  0.950800  0.847200  0.769900  1.0
  H  H569  1  0.428500  0.578200  0.777900  1.0
  H  H570  1  0.571500  0.921800  0.277900  1.0
  H  H571  1  0.928500  0.421800  0.722100  1.0
  H  H572  1  0.071500  0.078200  0.222100  1.0
  H  H573  1  0.571500  0.421800  0.222100  1.0
  H  H574  1  0.428500  0.078200  0.722100  1.0
  H  H575  1  0.071500  0.578200  0.277900  1.0
  H  H576  1  0.928500  0.921800  0.777900  1.0
  Ru  Ru577  1  0.206460  0.559520  0.737853  1.0
  Ru  Ru578  1  0.793540  0.940480  0.237853  1.0
  Ru  Ru579  1  0.706460  0.440480  0.762147  1.0
  Ru  Ru580  1  0.293540  0.059520  0.262147  1.0
  Ru  Ru581  1  0.793540  0.440480  0.262147  1.0
  Ru  Ru582  1  0.206460  0.059520  0.762147  1.0
  Ru  Ru583  1  0.293540  0.559520  0.237853  1.0
  Ru  Ru584  1  0.706460  0.940480  0.737853  1.0
  Ru  Ru585  1  0.379850  0.749500  0.547830  1.0
  Ru  Ru586  1  0.620150  0.750500  0.047830  1.0
  Ru  Ru587  1  0.879850  0.250500  0.952170  1.0
  Ru  Ru588  1  0.120150  0.249500  0.452170  1.0
  Ru  Ru589  1  0.620150  0.250500  0.452170  1.0
  Ru  Ru590  1  0.379850  0.249500  0.952170  1.0
  Ru  Ru591  1  0.120150  0.749500  0.047830  1.0
  Ru  Ru592  1  0.879850  0.750500  0.547830  1.0
  C  C593  1  0.078700  0.927700  0.480900  1
  C  C594  1  0.921300  0.572300  0.980900  1
  C  C595  1  0.578700  0.072300  0.019100  1
  C  C596  1  0.421300  0.427700  0.519100  1
  C  C597  1  0.921300  0.072300  0.519100  1
  C  C598  1  0.078700  0.427700  0.019100  1
  C  C599  1  0.421300  0.927700  0.980900  1
  C  C600  1  0.578700  0.572300  0.480900  1
  C  C601  1  0.849600  0.189600  0.777100  1
  C  C602  1  0.150400  0.310400  0.277100  1
  C  C603  1  0.349600  0.810400  0.722900  1
  C  C604  1  0.650400  0.689600  0.222900  1
  C  C605  1  0.150400  0.810400  0.222900  1
  C  C606  1  0.849600  0.689600  0.722900  1
  C  C607  1  0.650400  0.189600  0.277100  1
  C  C608  1  0.349600  0.310400  0.777100  1
  C  C609  1  0.611800  0.213000  0.715700  1
  C  C610  1  0.388200  0.287000  0.215700  1
  C  C611  1  0.111800  0.787000  0.784300  1
  C  C612  1  0.888200  0.713000  0.284300  1
  C  C613  1  0.388200  0.787000  0.284300  1
  C  C614  1  0.611800  0.713000  0.784300  1
  C  C615  1  0.888200  0.213000  0.215700  1
  C  C616  1  0.111800  0.287000  0.715700  1
  C  C617  1  0.015000  0.224900  0.617400  1
  C  C618  1  0.985000  0.275100  0.117400  1
  C  C619  1  0.515000  0.775100  0.882600  1
  C  C620  1  0.485000  0.724900  0.382600  1
  C  C621  1  0.985000  0.775100  0.382600  1
  C  C622  1  0.015000  0.724900  0.882600  1
  C  C623  1  0.485000  0.224900  0.117400  1
  C  C624  1  0.515000  0.275100  0.617400  1
  C  C625  1  0.804900  0.168200  0.626900  1
  C  C626  1  0.195100  0.331800  0.126900  1
  C  C627  1  0.304900  0.831800  0.873100  1
  C  C628  1  0.695100  0.668200  0.373100  1
  C  C629  1  0.195100  0.831800  0.373100  1
  C  C630  1  0.804900  0.668200  0.873100  1
  C  C631  1  0.695100  0.168200  0.126900  1
  C  C632  1  0.304900  0.331800  0.626900  1
  C  C633  1  0.239200  0.985000  0.624100  1
  C  C634  1  0.760800  0.515000  0.124100  1
  C  C635  1  0.739200  0.015000  0.875900  1
  C  C636  1  0.260800  0.485000  0.375900  1
  C  C637  1  0.760800  0.015000  0.375900  1
  C  C638  1  0.239200  0.485000  0.875900  1
  C  C639  1  0.260800  0.985000  0.124100  1
  C  C640  1  0.739200  0.515000  0.624100  1
  C  C641  1  0.817400  0.537700  0.437500  1
  C  C642  1  0.182600  0.962300  0.937500  1
  C  C643  1  0.317400  0.462300  0.062500  1
  C  C644  1  0.682600  0.037700  0.562500  1
  C  C645  1  0.182600  0.462300  0.562500  1
  C  C646  1  0.817400  0.037700  0.062500  1
  C  C647  1  0.682600  0.537700  0.937500  1
  C  C648  1  0.317400  0.962300  0.437500  1
  C  C649  1  0.756400  0.492800  0.420100  1
  C  C650  1  0.243600  0.007200  0.920100  1
  C  C651  1  0.256400  0.507200  0.079900  1
  C  C652  1  0.743600  0.992800  0.579900  1
  C  C653  1  0.243600  0.507200  0.579900  1
  C  C654  1  0.756400  0.992800  0.079900  1
  C  C655  1  0.743600  0.492800  0.920100  1
  C  C656  1  0.256400  0.007200  0.420100  1
  C  C657  1  0.944000  0.534500  0.471100  1
  C  C658  1  0.056000  0.965500  0.971100  1
  C  C659  1  0.444000  0.465500  0.028900  1
  C  C660  1  0.556000  0.034500  0.528900  1
  C  C661  1  0.056000  0.465500  0.528900  1
  C  C662  1  0.944000  0.034500  0.028900  1
  C  C663  1  0.556000  0.534500  0.971100  1
  C  C664  1  0.444000  0.965500  0.471100  1
  C  C665  1  0.001000  0.489100  0.491000  1
  C  C666  1  0.999000  0.010900  0.991000  1
  C  C667  1  0.501000  0.510900  0.009000  1
  C  C668  1  0.499000  0.989100  0.509000  1
  C  C669  1  0.999000  0.510900  0.509000  1
  C  C670  1  0.001000  0.989100  0.009000  1
  C  C671  1  0.499000  0.489100  0.991000  1
  C  C672  1  0.501000  0.010900  0.491000  1
  C  C673  1  0.472400  0.464900  0.643200  1.0
  C  C674  1  0.527600  0.035100  0.143200  1.0
  C  C675  1  0.972400  0.535100  0.856800  1.0
  C  C676  1  0.027600  0.964900  0.356800  1.0
  C  C677  1  0.527600  0.535100  0.356800  1.0
  C  C678  1  0.472400  0.964900  0.856800  1.0
  C  C679  1  0.027600  0.464900  0.143200  1.0
  C  C680  1  0.972400  0.035100  0.643200  1.0
  C  C681  1  0.501600  0.495300  0.612200  1.0
  C  C682  1  0.498400  0.004700  0.112200  1.0
  C  C683  1  0.001600  0.504700  0.887800  1.0
  C  C684  1  0.998400  0.995300  0.387800  1.0
  C  C685  1  0.498400  0.504700  0.387800  1.0
  C  C686  1  0.501600  0.995300  0.887800  1.0
  C  C687  1  0.998400  0.495300  0.112200  1.0
  C  C688  1  0.001600  0.004700  0.612200  1.0
  C  C689  1  0.469900  0.555300  0.600400  1.0
  C  C690  1  0.530100  0.944700  0.100400  1.0
  C  C691  1  0.969900  0.444700  0.899600  1.0
  C  C692  1  0.030100  0.055300  0.399600  1.0
  C  C693  1  0.530100  0.444700  0.399600  1.0
  C  C694  1  0.469900  0.055300  0.899600  1.0
  C  C695  1  0.030100  0.555300  0.100400  1.0
  C  C696  1  0.969900  0.944700  0.600400  1.0
  C  C697  1  0.411600  0.492300  0.662900  1.0
  C  C698  1  0.588400  0.007700  0.162900  1.0
  C  C699  1  0.911600  0.507700  0.837100  1.0
  C  C700  1  0.088400  0.992300  0.337100  1.0
  C  C701  1  0.588400  0.507700  0.337100  1.0
  C  C702  1  0.411600  0.992300  0.837100  1.0
  C  C703  1  0.088400  0.492300  0.162900  1.0
  C  C704  1  0.911600  0.007700  0.662900  1.0
  C  C705  1  0.408400  0.583000  0.620300  1.0
  C  C706  1  0.591600  0.917000  0.120300  1.0
  C  C707  1  0.908400  0.417000  0.879700  1.0
  C  C708  1  0.091600  0.083000  0.379700  1.0
  C  C709  1  0.591600  0.417000  0.379700  1.0
  C  C710  1  0.408400  0.083000  0.879700  1.0
  C  C711  1  0.091600  0.583000  0.120300  1.0
  C  C712  1  0.908400  0.917000  0.620300  1.0
  C  C713  1  0.379500  0.550500  0.651600  1.0
  C  C714  1  0.620500  0.949500  0.151600  1.0
  C  C715  1  0.879500  0.449500  0.848400  1.0
  C  C716  1  0.120500  0.050500  0.348400  1.0
  C  C717  1  0.620500  0.449500  0.348400  1.0
  C  C718  1  0.379500  0.050500  0.848400  1.0
  C  C719  1  0.120500  0.550500  0.151600  1.0
  C  C720  1  0.879500  0.949500  0.651600  1.0
  C  C721  1  0.371900  0.643600  0.606900  1.0
  C  C722  1  0.628100  0.856400  0.106900  1.0
  C  C723  1  0.871900  0.356400  0.893100  1.0
  C  C724  1  0.128100  0.143600  0.393100  1.0
  C  C725  1  0.628100  0.356400  0.393100  1.0
  C  C726  1  0.371900  0.143600  0.893100  1.0
  C  C727  1  0.128100  0.643600  0.106900  1.0
  C  C728  1  0.871900  0.856400  0.606900  1.0
  C  C729  1  0.312800  0.578900  0.671600  1.0
  C  C730  1  0.687200  0.921100  0.171600  1.0
  C  C731  1  0.812800  0.421100  0.828400  1.0
  C  C732  1  0.187200  0.078900  0.328400  1.0
  C  C733  1  0.687200  0.421100  0.328400  1.0
  C  C734  1  0.312800  0.078900  0.828400  1.0
  C  C735  1  0.187200  0.578900  0.171600  1.0
  C  C736  1  0.812800  0.921100  0.671600  1.0
  C  C737  1  0.307100  0.670000  0.625800  1.0
  C  C738  1  0.692900  0.830000  0.125800  1.0
  C  C739  1  0.807100  0.330000  0.874200  1.0
  C  C740  1  0.192900  0.170000  0.374200  1.0
  C  C741  1  0.692900  0.330000  0.374200  1.0
  C  C742  1  0.307100  0.170000  0.874200  1.0
  C  C743  1  0.192900  0.670000  0.125800  1.0
  C  C744  1  0.807100  0.830000  0.625800  1.0
  C  C745  1  0.277600  0.637500  0.658700  1.0
  C  C746  1  0.722400  0.862500  0.158700  1.0
  C  C747  1  0.777600  0.362500  0.841300  1.0
  C  C748  1  0.222400  0.137500  0.341300  1.0
  C  C749  1  0.722400  0.362500  0.341300  1.0
  C  C750  1  0.277600  0.137500  0.841300  1.0
  C  C751  1  0.222400  0.637500  0.158700  1.0
  C  C752  1  0.777600  0.862500  0.658700  1.0
  C  C753  1  0.273600  0.729600  0.613800  1.0
  C  C754  1  0.726400  0.770400  0.113800  1.0
  C  C755  1  0.773600  0.270400  0.886200  1.0
  C  C756  1  0.226400  0.229600  0.386200  1.0
  C  C757  1  0.726400  0.270400  0.386200  1.0
  C  C758  1  0.273600  0.229600  0.886200  1.0
  C  C759  1  0.226400  0.729600  0.113800  1.0
  C  C760  1  0.773600  0.770400  0.613800  1.0
  C  C761  1  0.212800  0.664500  0.678800  1.0
  C  C762  1  0.787200  0.835500  0.178800  1.0
  C  C763  1  0.712800  0.335500  0.821200  1.0
  C  C764  1  0.287200  0.164500  0.321200  1.0
  C  C765  1  0.787200  0.335500  0.321200  1.0
  C  C766  1  0.212800  0.164500  0.821200  1.0
  C  C767  1  0.287200  0.664500  0.178800  1.0
  C  C768  1  0.712800  0.835500  0.678800  1.0
  C  C769  1  0.208300  0.757800  0.634500  1.0
  C  C770  1  0.791700  0.742200  0.134500  1.0
  C  C771  1  0.708300  0.242200  0.865500  1.0
  C  C772  1  0.291700  0.257800  0.365500  1.0
  C  C773  1  0.791700  0.242200  0.365500  1.0
  C  C774  1  0.208300  0.257800  0.865500  1.0
  C  C775  1  0.291700  0.757800  0.134500  1.0
  C  C776  1  0.708300  0.742200  0.634500  1.0
  C  C777  1  0.178200  0.725400  0.665700  1.0
  C  C778  1  0.821800  0.774600  0.165700  1.0
  C  C779  1  0.678200  0.274600  0.834300  1.0
  C  C780  1  0.321800  0.225400  0.334300  1.0
  C  C781  1  0.821800  0.274600  0.334300  1.0
  C  C782  1  0.178200  0.225400  0.834300  1.0
  C  C783  1  0.321800  0.725400  0.165700  1.0
  C  C784  1  0.678200  0.774600  0.665700  1.0
  C  C785  1  0.172300  0.815500  0.622400  1.0
  C  C786  1  0.827700  0.684500  0.122400  1.0
  C  C787  1  0.672300  0.184500  0.877600  1.0
  C  C788  1  0.327700  0.315500  0.377600  1.0
  C  C789  1  0.827700  0.184500  0.377600  1.0
  C  C790  1  0.172300  0.315500  0.877600  1.0
  C  C791  1  0.327700  0.815500  0.122400  1.0
  C  C792  1  0.672300  0.684500  0.622400  1.0
  C  C793  1  0.114500  0.751200  0.683900  1.0
  C  C794  1  0.885500  0.748800  0.183900  1.0
  C  C795  1  0.614500  0.248800  0.816100  1.0
  C  C796  1  0.385500  0.251200  0.316100  1.0
  C  C797  1  0.885500  0.248800  0.316100  1.0
  C  C798  1  0.114500  0.251200  0.816100  1.0
  C  C799  1  0.385500  0.751200  0.183900  1.0
  C  C800  1  0.614500  0.748800  0.683900  1.0
  C  C801  1  0.108300  0.839000  0.640700  1.0
  C  C802  1  0.891700  0.661000  0.140700  1.0
  C  C803  1  0.608300  0.161000  0.859300  1.0
  C  C804  1  0.391700  0.339000  0.359300  1.0
  C  C805  1  0.891700  0.161000  0.359300  1.0
  C  C806  1  0.108300  0.339000  0.859300  1.0
  C  C807  1  0.391700  0.839000  0.140700  1.0
  C  C808  1  0.608300  0.661000  0.640700  1.0
  C  C809  1  0.078400  0.807200  0.671200  1.0
  C  C810  1  0.921600  0.692800  0.171200  1.0
  C  C811  1  0.578400  0.192800  0.828800  1.0
  C  C812  1  0.421600  0.307200  0.328800  1.0
  C  C813  1  0.921600  0.192800  0.328800  1.0
  C  C814  1  0.078400  0.307200  0.828800  1.0
  C  C815  1  0.421600  0.807200  0.171200  1.0
  C  C816  1  0.578400  0.692800  0.671200  1.0
  C  C817  1  0.414500  0.851600  0.553700  1.0
  C  C818  1  0.585500  0.648400  0.053700  1.0
  C  C819  1  0.914500  0.148400  0.946300  1.0
  C  C820  1  0.085500  0.351600  0.446300  1.0
  C  C821  1  0.585500  0.148400  0.446300  1.0
  C  C822  1  0.414500  0.351600  0.946300  1.0
  C  C823  1  0.085500  0.851600  0.053700  1.0
  C  C824  1  0.914500  0.648400  0.553700  1.0
  C  C825  1  0.377300  0.844400  0.519700  1.0
  C  C826  1  0.622700  0.655600  0.019700  1.0
  C  C827  1  0.877300  0.155600  0.980300  1.0
  C  C828  1  0.122700  0.344400  0.480300  1.0
  C  C829  1  0.622700  0.155600  0.480300  1.0
  C  C830  1  0.377300  0.344400  0.980300  1.0
  C  C831  1  0.122700  0.844400  0.019700  1.0
  C  C832  1  0.877300  0.655600  0.519700  1.0
  C  C833  1  0.400000  0.795700  0.493400  1.0
  C  C834  1  0.600000  0.704300  0.993400  1.0
  C  C835  1  0.900000  0.204300  0.006600  1.0
  C  C836  1  0.100000  0.295700  0.506600  1.0
  C  C837  1  0.600000  0.204300  0.506600  1.0
  C  C838  1  0.400000  0.295700  0.006600  1.0
  C  C839  1  0.100000  0.795700  0.993400  1.0
  C  C840  1  0.900000  0.704300  0.493400  1.0
  C  C841  1  0.477300  0.811600  0.562900  1.0
  C  C842  1  0.522700  0.688400  0.062900  1.0
  C  C843  1  0.977300  0.188400  0.937100  1.0
  C  C844  1  0.022700  0.311600  0.437100  1.0
  C  C845  1  0.522700  0.188400  0.437100  1.0
  C  C846  1  0.477300  0.311600  0.937100  1.0
  C  C847  1  0.022700  0.811600  0.062900  1.0
  C  C848  1  0.977300  0.688400  0.562900  1.0
  C  C849  1  0.465200  0.756200  0.503000  1.0
  C  C850  1  0.534800  0.743800  0.003000  1.0
  C  C851  1  0.965200  0.243800  0.997000  1.0
  C  C852  1  0.034800  0.256200  0.497000  1.0
  C  C853  1  0.534800  0.243800  0.497000  1.0
  C  C854  1  0.465200  0.256200  0.997000  1.0
  C  C855  1  0.034800  0.756200  0.003000  1.0
  C  C856  1  0.965200  0.743800  0.503000  1.0
  C  C857  1  0.500500  0.763900  0.536600  1.0
  C  C858  1  0.499500  0.736100  0.036600  1.0
  C  C859  1  0.000500  0.236100  0.963400  1.0
  C  C860  1  0.999500  0.263900  0.463400  1.0
  C  C861  1  0.499500  0.236100  0.463400  1.0
  C  C862  1  0.500500  0.263900  0.963400  1.0
  C  C863  1  0.999500  0.763900  0.036600  1.0
  C  C864  1  0.000500  0.736100  0.536600  1.0
  C  C865  1  0.520100  0.818700  0.599700  1.0
  C  C866  1  0.479900  0.681300  0.099700  1.0
  C  C867  1  0.020100  0.181300  0.900300  1.0
  C  C868  1  0.979900  0.318700  0.400300  1.0
  C  C869  1  0.479900  0.181300  0.400300  1.0
  C  C870  1  0.520100  0.318700  0.900300  1.0
  C  C871  1  0.979900  0.818700  0.099700  1.0
  C  C872  1  0.020100  0.681300  0.599700  1.0
  C  C873  1  0.465700  0.831800  0.631700  1.0
  C  C874  1  0.534300  0.668200  0.131700  1.0
  C  C875  1  0.965700  0.168200  0.868300  1.0
  C  C876  1  0.034300  0.331800  0.368300  1.0
  C  C877  1  0.534300  0.168200  0.368300  1.0
  C  C878  1  0.465700  0.331800  0.868300  1.0
  C  C879  1  0.034300  0.831800  0.131700  1.0
  C  C880  1  0.965700  0.668200  0.631700  1.0
  C  C881  1  0.581600  0.874500  0.595500  1.0
  C  C882  1  0.418400  0.625500  0.095500  1.0
  C  C883  1  0.081600  0.125500  0.904500  1.0
  C  C884  1  0.918400  0.374500  0.404500  1.0
  C  C885  1  0.418400  0.125500  0.404500  1.0
  C  C886  1  0.581600  0.374500  0.904500  1.0
  C  C887  1  0.918400  0.874500  0.095500  1.0
  C  C888  1  0.081600  0.625500  0.595500  1.0
  C  C889  1  0.356700  0.785300  0.458000  1.0
  C  C890  1  0.643300  0.714700  0.958000  1.0
  C  C891  1  0.856700  0.214700  0.042000  1.0
  C  C892  1  0.143300  0.285300  0.542000  1.0
  C  C893  1  0.643300  0.214700  0.542000  1.0
  C  C894  1  0.356700  0.285300  0.042000  1.0
  C  C895  1  0.143300  0.785300  0.958000  1.0
  C  C896  1  0.856700  0.714700  0.458000  1.0
  C  C897  1  0.130700  0.573400  0.785700  1.0
  C  C898  1  0.869300  0.926600  0.285700  1.0
  C  C899  1  0.630700  0.426600  0.714300  1.0
  C  C900  1  0.369300  0.073400  0.214300  1.0
  C  C901  1  0.869300  0.426600  0.214300  1.0
  C  C902  1  0.130700  0.073400  0.714300  1.0
  C  C903  1  0.369300  0.573400  0.285700  1.0
  C  C904  1  0.630700  0.926600  0.785700  1.0
  C  C905  1  0.193700  0.615200  0.788400  1.0
  C  C906  1  0.806300  0.884800  0.288400  1.0
  C  C907  1  0.693700  0.384800  0.711600  1.0
  C  C908  1  0.306300  0.115200  0.211600  1.0
  C  C909  1  0.806300  0.384800  0.211600  1.0
  C  C910  1  0.193700  0.115200  0.711600  1.0
  C  C911  1  0.306300  0.615200  0.288400  1.0
  C  C912  1  0.693700  0.884800  0.788400  1.0
  C  C913  1  0.142800  0.505900  0.779800  1.0
  C  C914  1  0.857200  0.994100  0.279800  1.0
  C  C915  1  0.642800  0.494100  0.720200  1.0
  C  C916  1  0.357200  0.005900  0.220200  1.0
  C  C917  1  0.857200  0.494100  0.220200  1.0
  C  C918  1  0.142800  0.005900  0.720200  1.0
  C  C919  1  0.357200  0.505900  0.279800  1.0
  C  C920  1  0.642800  0.994100  0.779800  1.0
  C  C921  1  0.217900  0.480400  0.778700  1.0
  C  C922  1  0.782100  0.019600  0.278700  1.0
  C  C923  1  0.717900  0.519600  0.721300  1.0
  C  C924  1  0.282100  0.980400  0.221300  1.0
  C  C925  1  0.782100  0.519600  0.221300  1.0
  C  C926  1  0.217900  0.980400  0.721300  1.0
  C  C927  1  0.282100  0.480400  0.278700  1.0
  C  C928  1  0.717900  0.019600  0.778700  1.0
  C  C929  1  0.271600  0.594000  0.785900  1.0
  C  C930  1  0.728400  0.906000  0.285900  1.0
  C  C931  1  0.771600  0.406000  0.714100  1.0
  C  C932  1  0.228400  0.094000  0.214100  1.0
  C  C933  1  0.728400  0.406000  0.214100  1.0
  C  C934  1  0.271600  0.094000  0.714100  1.0
  C  C935  1  0.228400  0.594000  0.285900  1.0
  C  C936  1  0.771600  0.906000  0.785900  1.0
  C  C937  1  0.282100  0.523700  0.780500  1.0
  C  C938  1  0.717900  0.976300  0.280500  1.0
  C  C939  1  0.782100  0.476300  0.719500  1.0
  C  C940  1  0.217900  0.023700  0.219500  1.0
  C  C941  1  0.717900  0.476300  0.219500  1.0
  C  C942  1  0.282100  0.023700  0.719500  1.0
  C  C943  1  0.217900  0.523700  0.280500  1.0
  C  C944  1  0.782100  0.976300  0.780500  1.0
  C  C945  1  0.225900  0.710800  0.513500  1.0
  C  C946  1  0.774100  0.789200  0.013500  1.0
  C  C947  1  0.725900  0.289200  0.986500  1.0
  C  C948  1  0.274100  0.210800  0.486500  1.0
  C  C949  1  0.774100  0.289200  0.486500  1.0
  C  C950  1  0.225900  0.210800  0.986500  1.0
  C  C951  1  0.274100  0.710800  0.013500  1.0
  C  C952  1  0.725900  0.789200  0.513500  1.0
  C  C953  1  0.317700  0.630300  0.506800  1.0
  C  C954  1  0.682300  0.869700  0.006800  1.0
  C  C955  1  0.817700  0.369700  0.993200  1.0
  C  C956  1  0.182300  0.130300  0.493200  1.0
  C  C957  1  0.682300  0.369700  0.493200  1.0
  C  C958  1  0.317700  0.130300  0.993200  1.0
  C  C959  1  0.182300  0.630300  0.006800  1.0
  C  C960  1  0.817700  0.869700  0.506800  1.0
  C  C961  1  0.176900  0.679500  0.489700  1.0
  C  C962  1  0.823100  0.820500  0.989700  1.0
  C  C963  1  0.676900  0.320500  0.010300  1.0
  C  C964  1  0.323100  0.179500  0.510300  1.0
  C  C965  1  0.823100  0.320500  0.510300  1.0
  C  C966  1  0.176900  0.179500  0.010300  1.0
  C  C967  1  0.323100  0.679500  0.989700  1.0
  C  C968  1  0.676900  0.820500  0.489700  1.0
  C  C969  1  0.271900  0.595800  0.482800  1.0
  C  C970  1  0.728100  0.904200  0.982800  1.0
  C  C971  1  0.771900  0.404200  0.017200  1.0
  C  C972  1  0.228100  0.095800  0.517200  1.0
  C  C973  1  0.728100  0.404200  0.517200  1.0
  C  C974  1  0.271900  0.095800  0.017200  1.0
  C  C975  1  0.228100  0.595800  0.982800  1.0
  C  C976  1  0.771900  0.904200  0.482800  1.0
  C  C977  1  0.198600  0.621800  0.473100  1.0
  C  C978  1  0.801400  0.878200  0.973100  1.0
  C  C979  1  0.698600  0.378200  0.026900  1.0
  C  C980  1  0.301400  0.121800  0.526900  1.0
  C  C981  1  0.801400  0.378200  0.526900  1.0
  C  C982  1  0.198600  0.121800  0.026900  1.0
  C  C983  1  0.301400  0.621800  0.973100  1.0
  C  C984  1  0.698600  0.878200  0.473100  1.0
  C  C985  1  0.086300  0.608000  0.431800  1.0
  C  C986  1  0.913700  0.892000  0.931800  1.0
  C  C987  1  0.586300  0.392000  0.068200  1.0
  C  C988  1  0.413700  0.108000  0.568200  1.0
  C  C989  1  0.913700  0.392000  0.568200  1.0
  C  C990  1  0.086300  0.108000  0.068200  1.0
  C  C991  1  0.413700  0.608000  0.931800  1.0
  C  C992  1  0.586300  0.892000  0.431800  1.0
  C  C993  1  0.055000  0.558700  0.403200  1.0
  C  C994  1  0.945000  0.941300  0.903200  1.0
  C  C995  1  0.555000  0.441300  0.096800  1.0
  C  C996  1  0.445000  0.058700  0.596800  1.0
  C  C997  1  0.945000  0.441300  0.596800  1.0
  C  C998  1  0.055000  0.058700  0.096800  1.0
  C  C999  1  0.445000  0.558700  0.903200  1.0
  C  C1000  1  0.555000  0.941300  0.403200  1.0
  C  C1001  1  0.163500  0.459200  0.679200  1.0
  C  C1002  1  0.836500  0.040800  0.179200  1.0
  C  C1003  1  0.663500  0.540800  0.820800  1.0
  C  C1004  1  0.336500  0.959200  0.320800  1.0
  C  C1005  1  0.836500  0.540800  0.320800  1.0
  C  C1006  1  0.163500  0.959200  0.820800  1.0
  C  C1007  1  0.336500  0.459200  0.179200  1.0
  C  C1008  1  0.663500  0.040800  0.679200  1.0
  C  C1009  1  0.067700  0.533800  0.687700  1.0
  C  C1010  1  0.932300  0.966200  0.187700  1.0
  C  C1011  1  0.567700  0.466200  0.812300  1.0
  C  C1012  1  0.432300  0.033800  0.312300  1.0
  C  C1013  1  0.932300  0.466200  0.312300  1.0
  C  C1014  1  0.067700  0.033800  0.812300  1.0
  C  C1015  1  0.432300  0.533800  0.187700  1.0
  C  C1016  1  0.567700  0.966200  0.687700  1.0
  C  C1017  1  0.120700  0.426700  0.652800  1.0
  C  C1018  1  0.879300  0.073300  0.152800  1.0
  C  C1019  1  0.620700  0.573300  0.847200  1.0
  C  C1020  1  0.379300  0.926700  0.347200  1.0
  C  C1021  1  0.879300  0.573300  0.347200  1.0
  C  C1022  1  0.120700  0.926700  0.847200  1.0
  C  C1023  1  0.379300  0.426700  0.152800  1.0
  C  C1024  1  0.620700  0.073300  0.652800  1.0
  C  C1025  1  0.020900  0.505500  0.661500  1.0
  C  C1026  1  0.979100  0.994500  0.161500  1.0
  C  C1027  1  0.520900  0.494500  0.838500  1.0
  C  C1028  1  0.479100  0.005500  0.338500  1.0
  C  C1029  1  0.979100  0.494500  0.338500  1.0
  C  C1030  1  0.020900  0.005500  0.838500  1.0
  C  C1031  1  0.479100  0.505500  0.161500  1.0
  C  C1032  1  0.520900  0.994500  0.661500  1.0
  C  C1033  1  0.952700  0.549600  0.356700  1.0
  C  C1034  1  0.047300  0.950400  0.856700  1.0
  C  C1035  1  0.452700  0.450400  0.143300  1.0
  C  C1036  1  0.547300  0.049600  0.643300  1.0
  C  C1037  1  0.047300  0.450400  0.643300  1.0
  C  C1038  1  0.952700  0.049600  0.143300  1.0
  C  C1039  1  0.547300  0.549600  0.856700  1.0
  C  C1040  1  0.452700  0.950400  0.356700  1.0
  C  C1041  1  0.071200  0.462300  0.774500  1.0
  C  C1042  1  0.928800  0.037700  0.274500  1.0
  C  C1043  1  0.571200  0.537700  0.725500  1.0
  C  C1044  1  0.428800  0.962300  0.225500  1.0
  C  C1045  1  0.928800  0.537700  0.225500  1.0
  C  C1046  1  0.071200  0.962300  0.725500  1.0
  C  C1047  1  0.428800  0.462300  0.274500  1.0
  C  C1048  1  0.571200  0.037700  0.774500  1.0
  C  C1049  1  0.337500  0.642200  0.788600  1.0
  C  C1050  1  0.662500  0.857800  0.288600  1.0
  C  C1051  1  0.837500  0.357800  0.711400  1.0
  C  C1052  1  0.162500  0.142200  0.211400  1.0
  C  C1053  1  0.662500  0.357800  0.211400  1.0
  C  C1054  1  0.337500  0.142200  0.711400  1.0
  C  C1055  1  0.162500  0.642200  0.288600  1.0
  C  C1056  1  0.837500  0.857800  0.788600  1.0
  C  C1057  1  0.355000  0.654200  0.830800  1.0
  C  C1058  1  0.645000  0.845800  0.330800  1.0
  C  C1059  1  0.855000  0.345800  0.669200  1.0
  C  C1060  1  0.145000  0.154200  0.169200  1.0
  C  C1061  1  0.645000  0.345800  0.169200  1.0
  C  C1062  1  0.355000  0.154200  0.669200  1.0
  C  C1063  1  0.145000  0.654200  0.330800  1.0
  C  C1064  1  0.855000  0.845800  0.830800  1.0
  C  C1065  1  0.410000  0.619700  0.767500  1.0
  C  C1066  1  0.590000  0.880300  0.267500  1.0
  C  C1067  1  0.910000  0.380300  0.732500  1.0
  C  C1068  1  0.090000  0.119700  0.232500  1.0
  C  C1069  1  0.590000  0.380300  0.232500  1.0
  C  C1070  1  0.410000  0.119700  0.732500  1.0
  C  C1071  1  0.090000  0.619700  0.267500  1.0
  C  C1072  1  0.910000  0.880300  0.767500  1.0
  S  S1073  1  0.142900  0.904370  0.514390  1
  S  S1074  1  0.857100  0.595630  0.014390  1
  S  S1075  1  0.642900  0.095630  0.985610  1
  S  S1076  1  0.357100  0.404370  0.485610  1
  S  S1077  1  0.857100  0.095630  0.485610  1
  S  S1078  1  0.142900  0.404370  0.985610  1
  S  S1079  1  0.357100  0.904370  0.014390  1
  S  S1080  1  0.642900  0.595630  0.514390  1
  S  S1081  1  0.916220  0.150380  0.745350  1
  S  S1082  1  0.083780  0.349620  0.245350  1
  S  S1083  1  0.416220  0.849620  0.754650  1
  S  S1084  1  0.583780  0.650380  0.254650  1
  S  S1085  1  0.083780  0.849620  0.254650  1
  S  S1086  1  0.916220  0.650380  0.754650  1
  S  S1087  1  0.583780  0.150380  0.245350  1
  S  S1088  1  0.416220  0.349620  0.745350  1
  N  N1089  1  0.297900  0.687700  0.521820  1.0
  N  N1090  1  0.702100  0.812300  0.021820  1.0
  N  N1091  1  0.797900  0.312300  0.978180  1.0
  N  N1092  1  0.202100  0.187700  0.478180  1.0
  N  N1093  1  0.702100  0.312300  0.478180  1.0
  N  N1094  1  0.297900  0.187700  0.978180  1.0
  N  N1095  1  0.202100  0.687700  0.021820  1.0
  N  N1096  1  0.797900  0.812300  0.521820  1.0
  N  N1097  1  0.154200  0.587600  0.446620  1.0
  N  N1098  1  0.845800  0.912400  0.946620  1.0
  N  N1099  1  0.654200  0.412400  0.053380  1.0
  N  N1100  1  0.345800  0.087600  0.553380  1.0
  N  N1101  1  0.845800  0.412400  0.553380  1.0
  N  N1102  1  0.154200  0.087600  0.053380  1.0
  N  N1103  1  0.345800  0.587600  0.946620  1.0
  N  N1104  1  0.654200  0.912400  0.446620  1.0
  N  N1105  1  0.138700  0.512300  0.696790  1.0
  N  N1106  1  0.861300  0.987700  0.196790  1.0
  N  N1107  1  0.638700  0.487700  0.803210  1.0
  N  N1108  1  0.361300  0.012300  0.303210  1.0
  N  N1109  1  0.861300  0.487700  0.303210  1.0
  N  N1110  1  0.138700  0.012300  0.803210  1.0
  N  N1111  1  0.361300  0.512300  0.196790  1.0
  N  N1112  1  0.638700  0.987700  0.696790  1.0
  N  N1113  1  0.993100  0.582800  0.384290  1.0
  N  N1114  1  0.006900  0.917200  0.884290  1.0
  N  N1115  1  0.493100  0.417200  0.115710  1.0
  N  N1116  1  0.506900  0.082800  0.615710  1.0
  N  N1117  1  0.006900  0.417200  0.615710  1.0
  N  N1118  1  0.993100  0.082800  0.115710  1.0
  N  N1119  1  0.506900  0.582800  0.884290  1.0
  N  N1120  1  0.493100  0.917200  0.384290  1.0
  O  O1121  1  0.118500  0.947600  0.544700  1
  O  O1122  1  0.881500  0.552400  0.044700  1
  O  O1123  1  0.618500  0.052400  0.955300  1
  O  O1124  1  0.381500  0.447600  0.455300  1
  O  O1125  1  0.881500  0.052400  0.455300  1
  O  O1126  1  0.118500  0.447600  0.955300  1
  O  O1127  1  0.381500  0.947600  0.044700  1
  O  O1128  1  0.618500  0.552400  0.544700  1
  O  O1129  1  0.220000  0.926700  0.500400  1
  O  O1130  1  0.780000  0.573300  0.000400  1
  O  O1131  1  0.720000  0.073300  0.999600  1
  O  O1132  1  0.280000  0.426700  0.499600  1
  O  O1133  1  0.780000  0.073300  0.499600  1
  O  O1134  1  0.220000  0.426700  0.999600  1
  O  O1135  1  0.280000  0.926700  0.000400  1
  O  O1136  1  0.720000  0.573300  0.500400  1
  O  O1137  1  0.133700  0.839400  0.520100  1
  O  O1138  1  0.866300  0.660600  0.020100  1
  O  O1139  1  0.633700  0.160600  0.979900  1
  O  O1140  1  0.366300  0.339400  0.479900  1
  O  O1141  1  0.866300  0.160600  0.479900  1
  O  O1142  1  0.133700  0.339400  0.979900  1
  O  O1143  1  0.366300  0.839400  0.020100  1
  O  O1144  1  0.633700  0.660600  0.520100  1
  O  O1145  1  0.992200  0.162700  0.764400  1
  O  O1146  1  0.007800  0.337300  0.264400  1
  O  O1147  1  0.492200  0.837300  0.735600  1
  O  O1148  1  0.507800  0.662700  0.235600  1
  O  O1149  1  0.007800  0.837300  0.235600  1
  O  O1150  1  0.992200  0.662700  0.735600  1
  O  O1151  1  0.507800  0.162700  0.264400  1
  O  O1152  1  0.492200  0.337300  0.764400  1
  O  O1153  1  0.911300  0.186900  0.711840  1
  O  O1154  1  0.088700  0.313100  0.211840  1
  O  O1155  1  0.411300  0.813100  0.788160  1
  O  O1156  1  0.588700  0.686900  0.288160  1
  O  O1157  1  0.088700  0.813100  0.288160  1
  O  O1158  1  0.911300  0.686900  0.788160  1
  O  O1159  1  0.588700  0.186900  0.211840  1
  O  O1160  1  0.411300  0.313100  0.711840  1
  O  O1161  1  0.895200  0.085100  0.744900  1
  O  O1162  1  0.104800  0.414900  0.244900  1
  O  O1163  1  0.395200  0.914900  0.755100  1
  O  O1164  1  0.604800  0.585100  0.255100  1
  O  O1165  1  0.104800  0.914900  0.255100  1
  O  O1166  1  0.895200  0.585100  0.755100  1
  O  O1167  1  0.604800  0.085100  0.244900  1
  O  O1168  1  0.395200  0.414900  0.744900  1
  O  O1169  1  0.652300  0.235700  0.683600  1
  O  O1170  1  0.347700  0.264300  0.183600  1
  O  O1171  1  0.152300  0.764300  0.816400  1
  O  O1172  1  0.847700  0.735700  0.316400  1
  O  O1173  1  0.347700  0.764300  0.316400  1
  O  O1174  1  0.652300  0.735700  0.816400  1
  O  O1175  1  0.847700  0.235700  0.183600  1
  O  O1176  1  0.152300  0.264300  0.683600  1
  O  O1177  1  0.054400  0.284000  0.625740  1
  O  O1178  1  0.945600  0.216000  0.125740  1
  O  O1179  1  0.554400  0.716000  0.874260  1
  O  O1180  1  0.445600  0.784000  0.374260  1
  O  O1181  1  0.945600  0.716000  0.374260  1
  O  O1182  1  0.054400  0.784000  0.874260  1
  O  O1183  1  0.445600  0.284000  0.125740  1
  O  O1184  1  0.554400  0.216000  0.625740  1
  O  O1185  1  0.781500  0.167600  0.666100  1
  O  O1186  1  0.218500  0.332400  0.166100  1
  O  O1187  1  0.281500  0.832400  0.833900  1
  O  O1188  1  0.718500  0.667600  0.333900  1
  O  O1189  1  0.218500  0.832400  0.333900  1
  O  O1190  1  0.781500  0.667600  0.833900  1
  O  O1191  1  0.718500  0.167600  0.166100  1
  O  O1192  1  0.281500  0.332400  0.666100  1
  O  O1193  1  0.242900  0.990800  0.585600  1
  O  O1194  1  0.757100  0.509200  0.085600  1
  O  O1195  1  0.742900  0.009200  0.914400  1
  O  O1196  1  0.257100  0.490800  0.414400  1
  O  O1197  1  0.757100  0.009200  0.414400  1
  O  O1198  1  0.242900  0.490800  0.914400  1
  O  O1199  1  0.257100  0.990800  0.085600  1
  O  O1200  1  0.742900  0.509200  0.585600  1
  O  O1201  1  0.873100  0.496600  0.459600  1
  O  O1202  1  0.126900  0.003400  0.959600  1
  O  O1203  1  0.373100  0.503400  0.040400  1
  O  O1204  1  0.626900  0.996600  0.540400  1
  O  O1205  1  0.126900  0.503400  0.540400  1
  O  O1206  1  0.873100  0.996600  0.040400  1
  O  O1207  1  0.626900  0.496600  0.959600  1
  O  O1208  1  0.373100  0.003400  0.459600  1
  O  O1209  1  0.405400  0.667200  0.578180  1.0
  O  O1210  1  0.594600  0.832800  0.078180  1.0
  O  O1211  1  0.905400  0.332800  0.921820  1.0
  O  O1212  1  0.094600  0.167200  0.421820  1.0
  O  O1213  1  0.594600  0.332800  0.421820  1.0
  O  O1214  1  0.405400  0.167200  0.921820  1.0
  O  O1215  1  0.094600  0.667200  0.078180  1.0
  O  O1216  1  0.905400  0.832800  0.578180  1.0
  O  O1217  1  0.293100  0.763700  0.585460  1.0
  O  O1218  1  0.706900  0.736300  0.085460  1.0
  O  O1219  1  0.793100  0.236300  0.914540  1.0
  O  O1220  1  0.206900  0.263700  0.414540  1.0
  O  O1221  1  0.706900  0.236300  0.414540  1.0
  O  O1222  1  0.293100  0.263700  0.914540  1.0
  O  O1223  1  0.206900  0.763700  0.085460  1.0
  O  O1224  1  0.793100  0.736300  0.585460  1.0
  O  O1225  1  0.181100  0.641000  0.708180  1.0
  O  O1226  1  0.818900  0.859000  0.208180  1.0
  O  O1227  1  0.681100  0.359000  0.791820  1.0
  O  O1228  1  0.318900  0.141000  0.291820  1.0
  O  O1229  1  0.818900  0.359000  0.291820  1.0
  O  O1230  1  0.181100  0.141000  0.791820  1.0
  O  O1231  1  0.318900  0.641000  0.208180  1.0
  O  O1232  1  0.681100  0.859000  0.708180  1.0
  O  O1233  1  0.293600  0.545200  0.700590  1.0
  O  O1234  1  0.706400  0.954800  0.200590  1.0
  O  O1235  1  0.793600  0.454800  0.799410  1.0
  O  O1236  1  0.206400  0.045200  0.299410  1.0
  O  O1237  1  0.706400  0.454800  0.299410  1.0
  O  O1238  1  0.293600  0.045200  0.799410  1.0
  O  O1239  1  0.206400  0.545200  0.200590  1.0
  O  O1240  1  0.793600  0.954800  0.700590  1.0
  O  O1241  1  0.053700  0.660100  0.437280  1.0
  O  O1242  1  0.946300  0.839900  0.937280  1.0
  O  O1243  1  0.553700  0.339900  0.062720  1.0
  O  O1244  1  0.446300  0.160100  0.562720  1.0
  O  O1245  1  0.946300  0.339900  0.562720  1.0
  O  O1246  1  0.053700  0.160100  0.062720  1.0
  O  O1247  1  0.446300  0.660100  0.937280  1.0
  O  O1248  1  0.553700  0.839900  0.437280  1.0
  O  O1249  1  0.083400  0.504300  0.399920  1.0
  O  O1250  1  0.916600  0.995700  0.899920  1.0
  O  O1251  1  0.583400  0.495700  0.100080  1.0
  O  O1252  1  0.416600  0.004300  0.600080  1.0
  O  O1253  1  0.916600  0.495700  0.600080  1.0
  O  O1254  1  0.083400  0.004300  0.100080  1.0
  O  O1255  1  0.416600  0.504300  0.899920  1.0
  O  O1256  1  0.583400  0.995700  0.399920  1.0
  F  F1257  1  0.004600  0.911400  0.490400  1
  F  F1258  1  0.995400  0.588600  0.990400  1
  F  F1259  1  0.504600  0.088600  0.009600  1
  F  F1260  1  0.495400  0.411400  0.509600  1
  F  F1261  1  0.995400  0.088600  0.509600  1
  F  F1262  1  0.004600  0.411400  0.009600  1
  F  F1263  1  0.495400  0.911400  0.990400  1
  F  F1264  1  0.504600  0.588600  0.490400  1
  F  F1265  1  0.080300  0.987100  0.470300  1
  F  F1266  1  0.919700  0.512900  0.970300  1
  F  F1267  1  0.580300  0.012900  0.029700  1
  F  F1268  1  0.419700  0.487100  0.529700  1
  F  F1269  1  0.919700  0.012900  0.529700  1
  F  F1270  1  0.080300  0.487100  0.029700  1
  F  F1271  1  0.419700  0.987100  0.970300  1
  F  F1272  1  0.580300  0.512900  0.470300  1
  F  F1273  1  0.096100  0.892900  0.447700  1
  F  F1274  1  0.903900  0.607100  0.947700  1
  F  F1275  1  0.596100  0.107100  0.052300  1
  F  F1276  1  0.403900  0.392900  0.552300  1
  F  F1277  1  0.903900  0.107100  0.552300  1
  F  F1278  1  0.096100  0.392900  0.052300  1
  F  F1279  1  0.403900  0.892900  0.947700  1
  F  F1280  1  0.596100  0.607100  0.447700  1
  F  F1281  1  0.869000  0.245800  0.786800  1
  F  F1282  1  0.131000  0.254200  0.286800  1
  F  F1283  1  0.369000  0.754200  0.713200  1
  F  F1284  1  0.631000  0.745800  0.213200  1
  F  F1285  1  0.131000  0.754200  0.213200  1
  F  F1286  1  0.869000  0.745800  0.713200  1
  F  F1287  1  0.631000  0.245800  0.286800  1
  F  F1288  1  0.369000  0.254200  0.786800  1
  F  F1289  1  0.838400  0.154800  0.807440  1
  F  F1290  1  0.161600  0.345200  0.307440  1
  F  F1291  1  0.338400  0.845200  0.692560  1
  F  F1292  1  0.661600  0.654800  0.192560  1
  F  F1293  1  0.161600  0.845200  0.192560  1
  F  F1294  1  0.838400  0.654800  0.692560  1
  F  F1295  1  0.661600  0.154800  0.307440  1
  F  F1296  1  0.338400  0.345200  0.807440  1
  F  F1297  1  0.780400  0.193000  0.760500  1
  F  F1298  1  0.219600  0.307000  0.260500  1
  F  F1299  1  0.280400  0.807000  0.739500  1
  F  F1300  1  0.719600  0.693000  0.239500  1
  F  F1301  1  0.219600  0.807000  0.239500  1
  F  F1302  1  0.780400  0.693000  0.739500  1
  F  F1303  1  0.719600  0.193000  0.260500  1
  F  F1304  1  0.280400  0.307000  0.760500  1
