# generated using pymatgen
data_CuBH30C36N9F4
_symmetry_space_group_name_H-M   'P 1'
_cell_length_a   29.76380000
_cell_length_b   31.72610000
_cell_length_c   35.84226206
_cell_angle_alpha   116.26857882
_cell_angle_beta   114.53225084
_cell_angle_gamma   90.00000000
_symmetry_Int_Tables_number   1
_chemical_formula_structural   CuBH30C36N9F4
_chemical_formula_sum   'Cu24 B24 H720 C864 N216 F96'
_cell_volume   26900.81901216
_cell_formula_units_Z   24
loop_
 _symmetry_equiv_pos_site_id
 _symmetry_equiv_pos_as_xyz
  1  'x, y, z'
loop_
 _atom_site_type_symbol
 _atom_site_label
 _atom_site_symmetry_multiplicity
 _atom_site_fract_x
 _atom_site_fract_y
 _atom_site_fract_z
 _atom_site_occupancy
  B  B1  1  0.256400  0.324300  0.876400  1
  B  B2  1  0.380000  0.675700  0.123600  1
  B  B3  1  0.756400  0.552100  0.876400  1
  B  B4  1  0.880000  0.447900  0.123600  1
  B  B5  1  0.867400  0.265000  0.581800  1
  B  B6  1  0.285600  0.735000  0.418200  1
  B  B7  1  0.367400  0.316800  0.581800  1
  B  B8  1  0.785600  0.683200  0.418200  1
  B  B9  1  0.974800  0.507700  0.610800  1
  B  B10  1  0.364000  0.492300  0.389200  1
  B  B11  1  0.474800  0.103100  0.610800  1
  B  B12  1  0.864000  0.896900  0.389200  1
  B  B13  1  0.251100  0.463100  0.666000  1
  B  B14  1  0.585100  0.536900  0.334000  1
  B  B15  1  0.751100  0.202900  0.666000  1
  B  B16  1  0.085100  0.797100  0.334000  1
  B  B17  1  0.986600  0.132400  0.623000  1
  B  B18  1  0.363600  0.867600  0.377000  1
  B  B19  1  0.486600  0.490600  0.623000  1
  B  B20  1  0.863600  0.509400  0.377000  1
  B  B21  1  0.165000  0.133900  0.740600  1
  B  B22  1  0.424400  0.866100  0.259400  1
  B  B23  1  0.665000  0.606700  0.740600  1
  B  B24  1  0.924400  0.393300  0.259400  1
  C  C25  1  0.520900  0.227500  0.830600  1
  C  C26  1  0.690300  0.772500  0.169400  1
  C  C27  1  0.020900  0.603100  0.830600  1
  C  C28  1  0.190300  0.396900  0.169400  1
  C  C29  1  0.530980  0.186880  0.835360  1
  C  C30  1  0.695620  0.813120  0.164640  1
  C  C31  1  0.030980  0.648480  0.835360  1
  C  C32  1  0.195620  0.351520  0.164640  1
  C  C33  1  0.492990  0.155730  0.829780  1
  C  C34  1  0.663210  0.844270  0.170220  1
  C  C35  1  0.992990  0.674050  0.829780  1
  C  C36  1  0.163210  0.325950  0.170220  1
  C  C37  1  0.444940  0.165240  0.819480  1
  C  C38  1  0.625460  0.834760  0.180520  1
  C  C39  1  0.944940  0.654240  0.819480  1
  C  C40  1  0.125460  0.345760  0.180520  1
  C  C41  1  0.434860  0.205860  0.814720  1
  C  C42  1  0.620140  0.794140  0.185280  1
  C  C43  1  0.934860  0.608860  0.814720  1
  C  C44  1  0.120140  0.391140  0.185280  1
  C  C45  1  0.390070  0.216970  0.803940  1
  C  C46  1  0.586130  0.783030  0.196060  1
  C  C47  1  0.890070  0.586970  0.803940  1
  C  C48  1  0.086130  0.413030  0.196060  1
  C  C49  1  0.341930  0.195530  0.794260  1
  C  C50  1  0.547670  0.804470  0.205740  1
  C  C51  1  0.841930  0.598730  0.794260  1
  C  C52  1  0.047670  0.401270  0.205740  1
  C  C53  1  0.309420  0.227660  0.789920  1
  C  C54  1  0.519500  0.772340  0.210080  1
  C  C55  1  0.809420  0.562260  0.789920  1
  C  C56  1  0.019500  0.437740  0.210080  1
  C  C57  1  0.323440  0.311040  0.795880  1
  C  C58  1  0.527560  0.688960  0.204120  1
  C  C59  1  0.823440  0.484840  0.795880  1
  C  C60  1  0.027560  0.515160  0.204120  1
  C  C61  1  0.004610  0.242850  0.538900  1
  C  C62  1  0.465710  0.757150  0.461100  1
  C  C63  1  0.504610  0.296050  0.538900  1
  C  C64  1  0.965710  0.703950  0.461100  1
  C  C65  1  0.969090  0.208250  0.494100  1
  C  C66  1  0.474990  0.791750  0.505900  1
  C  C67  1  0.469090  0.285850  0.494100  1
  C  C68  1  0.974990  0.714150  0.505900  1
  C  C69  1  0.984840  0.179440  0.461480  1
  C  C70  1  0.523360  0.820560  0.538520  1
  C  C71  1  0.484840  0.282040  0.461480  1
  C  C72  1  0.023360  0.717960  0.538520  1
  C  C73  1  0.036220  0.185420  0.473640  1
  C  C74  1  0.562580  0.814580  0.526360  1
  C  C75  1  0.536220  0.288220  0.473640  1
  C  C76  1  0.062580  0.711780  0.526360  1
  C  C77  1  0.071710  0.220080  0.518440  1
  C  C78  1  0.553270  0.779920  0.481560  1
  C  C79  1  0.571710  0.298360  0.518440  1
  C  C80  1  0.053270  0.701640  0.481560  1
  C  C81  1  0.122870  0.228430  0.531860  1
  C  C82  1  0.591010  0.771570  0.468140  1
  C  C83  1  0.622870  0.303430  0.531860  1
  C  C84  1  0.091010  0.696570  0.468140  1
  C  C85  1  0.153100  0.205700  0.510200  1
  C  C86  1  0.642900  0.794300  0.489800  1
  C  C87  1  0.653100  0.304500  0.510200  1
  C  C88  1  0.142900  0.695500  0.489800  1
  C  C89  1  0.203860  0.232950  0.540300  1
  C  C90  1  0.663560  0.767050  0.459700  1
  C  C91  1  0.703860  0.307350  0.540300  1
  C  C92  1  0.163560  0.692650  0.459700  1
  C  C93  1  0.245280  0.308980  0.617560  1
  C  C94  1  0.627720  0.691020  0.382440  1
  C  C95  1  0.745280  0.308580  0.617560  1
  C  C96  1  0.127720  0.691420  0.382440  1
  C  C97  1  0.301070  0.307900  0.748540  1
  C  C98  1  0.552530  0.692100  0.251460  1
  C  C99  1  0.801070  0.440640  0.748540  1
  C  C100  1  0.052530  0.559360  0.251460  1
  C  C101  1  0.284570  0.264570  0.706920  1
  C  C102  1  0.577650  0.735430  0.293080  1
  C  C103  1  0.784570  0.442350  0.706920  1
  C  C104  1  0.077650  0.557650  0.293080  1
  C  C105  1  0.265540  0.264510  0.664320  1
  C  C106  1  0.601220  0.735490  0.335680  1
  C  C107  1  0.765540  0.399810  0.664320  1
  C  C108  1  0.101220  0.600190  0.335680  1
  C  C109  1  0.263010  0.307770  0.663320  1
  C  C110  1  0.599690  0.692230  0.336680  1
  C  C111  1  0.763010  0.355550  0.663320  1
  C  C112  1  0.099690  0.644450  0.336680  1
  C  C113  1  0.279510  0.351100  0.704940  1
  C  C114  1  0.574570  0.648900  0.295060  1
  C  C115  1  0.779510  0.353840  0.704940  1
  C  C116  1  0.074570  0.646160  0.295060  1
  C  C117  1  0.298540  0.351160  0.747540  1
  C  C118  1  0.551000  0.648840  0.252460  1
  C  C119  1  0.798540  0.396380  0.747540  1
  C  C120  1  0.051000  0.603620  0.252460  1
  C  C121  1  0.177130  0.399960  0.694820  1
  C  C122  1  0.482310  0.600040  0.305180  1
  C  C123  1  0.677130  0.294860  0.694820  1
  C  C124  1  0.982310  0.705140  0.305180  1
  C  C125  1  0.204550  0.433420  0.742220  1
  C  C126  1  0.462330  0.566580  0.257780  1
  C  C127  1  0.704550  0.308800  0.742220  1
  C  C128  1  0.962330  0.691200  0.257780  1
  C  C129  1  0.215890  0.418840  0.775800  1
  C  C130  1  0.440090  0.581160  0.224200  1
  C  C131  1  0.715890  0.356960  0.775800  1
  C  C132  1  0.940090  0.643040  0.224200  1
  C  C133  1  0.199810  0.370810  0.761980  1
  C  C134  1  0.437830  0.629190  0.238020  1
  C  C135  1  0.699810  0.391170  0.761980  1
  C  C136  1  0.937830  0.608830  0.238020  1
  C  C137  1  0.172390  0.337350  0.714580  1
  C  C138  1  0.457810  0.662650  0.285420  1
  C  C139  1  0.672390  0.377230  0.714580  1
  C  C140  1  0.957810  0.622770  0.285420  1
  C  C141  1  0.155510  0.290390  0.698420  1
  C  C142  1  0.457090  0.709610  0.301580  1
  C  C143  1  0.655510  0.408030  0.698420  1
  C  C144  1  0.957090  0.591970  0.301580  1
  C  C145  1  0.158980  0.262180  0.720760  1
  C  C146  1  0.438220  0.737820  0.279240  1
  C  C147  1  0.658980  0.458580  0.720760  1
  C  C148  1  0.938220  0.541420  0.279240  1
  C  C149  1  0.130460  0.214620  0.685520  1
  C  C150  1  0.444940  0.785380  0.314480  1
  C  C151  1  0.630460  0.470900  0.685520  1
  C  C152  1  0.944940  0.529100  0.314480  1
  C  C153  1  0.079600  0.174200  0.597400  1
  C  C154  1  0.482200  0.825800  0.402600  1
  C  C155  1  0.579600  0.423200  0.597400  1
  C  C156  1  0.982200  0.576800  0.402600  1
  C  C157  1  0.292390  0.955790  0.589580  1
  C  C158  1  0.702810  0.044210  0.410420  1
  C  C159  1  0.792390  0.633790  0.589580  1
  C  C160  1  0.202810  0.366210  0.410420  1
  C  C161  1  0.344480  0.962280  0.614160  1
  C  C162  1  0.730320  0.037720  0.385840  1
  C  C163  1  0.844480  0.651880  0.614160  1
  C  C164  1  0.230320  0.348120  0.385840  1
  C  C165  1  0.377070  0.994970  0.615540  1
  C  C166  1  0.761530  0.005030  0.384460  1
  C  C167  1  0.877070  0.620570  0.615540  1
  C  C168  1  0.261530  0.379430  0.384460  1
  C  C169  1  0.357470  0.021170  0.592340  1
  C  C170  1  0.765130  0.978830  0.407660  1
  C  C171  1  0.857470  0.571170  0.592340  1
  C  C172  1  0.265130  0.428830  0.407660  1
  C  C173  1  0.305380  0.014700  0.567760  1
  C  C174  1  0.737620  0.985300  0.432240  1
  C  C175  1  0.805380  0.553060  0.567760  1
  C  C176  1  0.237620  0.446940  0.432240  1
  C  C177  1  0.286540  0.042140  0.548880  1
  C  C178  1  0.737660  0.957860  0.451120  1
  C  C179  1  0.786540  0.506740  0.548880  1
  C  C180  1  0.237660  0.493260  0.451120  1
  C  C181  1  0.308550  0.076980  0.542960  1
  C  C182  1  0.765590  0.923020  0.457040  1
  C  C183  1  0.808550  0.465980  0.542960  1
  C  C184  1  0.265590  0.534020  0.457040  1
  C  C185  1  0.268600  0.092000  0.516200  1
  C  C186  1  0.752400  0.908000  0.483800  1
  C  C187  1  0.768600  0.424200  0.516200  1
  C  C188  1  0.252400  0.575800  0.483800  1
  C  C189  1  0.171800  0.067500  0.479800  1
  C  C190  1  0.692000  0.932500  0.520200  1
  C  C191  1  0.671800  0.412300  0.479800  1
  C  C192  1  0.192000  0.587700  0.520200  1
  C  C193  1  0.106680  0.150650  0.568960  1
  C  C194  1  0.537720  0.849350  0.431040  1
  C  C195  1  0.606680  0.418310  0.568960  1
  C  C196  1  0.037720  0.581690  0.431040  1
  C  C197  1  0.076910  0.117210  0.521880  1
  C  C198  1  0.555030  0.882790  0.478120  1
  C  C199  1  0.576910  0.404670  0.521880  1
  C  C200  1  0.055030  0.595330  0.478120  1
  C  C201  1  0.099650  0.091390  0.494500  1
  C  C202  1  0.605150  0.908610  0.505500  1
  C  C203  1  0.599650  0.403110  0.494500  1
  C  C204  1  0.105150  0.596890  0.505500  1
  C  C205  1  0.152160  0.099010  0.514200  1
  C  C206  1  0.637960  0.900990  0.485800  1
  C  C207  1  0.652160  0.415190  0.514200  1
  C  C208  1  0.137960  0.584810  0.485800  1
  C  C209  1  0.181930  0.132470  0.561300  1
  C  C210  1  0.620630  0.867530  0.438700  1
  C  C211  1  0.681930  0.428830  0.561300  1
  C  C212  1  0.120630  0.571170  0.438700  1
  C  C213  1  0.159180  0.158280  0.588660  1
  C  C214  1  0.570520  0.841720  0.411340  1
  C  C215  1  0.659180  0.430380  0.588660  1
  C  C216  1  0.070520  0.569620  0.411340  1
  C  C217  1  0.427230  0.384050  0.811080  1
  C  C218  1  0.616150  0.615950  0.188920  1
  C  C219  1  0.927230  0.427030  0.811080  1
  C  C220  1  0.116150  0.572970  0.188920  1
  C  C221  1  0.415690  0.415550  0.792900  1
  C  C222  1  0.622790  0.584450  0.207100  1
  C  C223  1  0.915690  0.377350  0.792900  1
  C  C224  1  0.122790  0.622650  0.207100  1
  C  C225  1  0.399230  0.398640  0.745340  1
  C  C226  1  0.653890  0.601360  0.254660  1
  C  C227  1  0.899230  0.346700  0.745340  1
  C  C228  1  0.153890  0.653300  0.254660  1
  C  C229  1  0.394290  0.350200  0.715920  1
  C  C230  1  0.678370  0.649800  0.284080  1
  C  C231  1  0.894290  0.365720  0.715920  1
  C  C232  1  0.178370  0.634280  0.284080  1
  C  C233  1  0.405820  0.318680  0.734080  1
  C  C234  1  0.671740  0.681320  0.265920  1
  C  C235  1  0.905820  0.415400  0.734080  1
  C  C236  1  0.171740  0.584600  0.265920  1
  C  C237  1  0.403550  0.273210  0.704900  1
  C  C238  1  0.698650  0.726790  0.295100  1
  C  C239  1  0.903550  0.431690  0.704900  1
  C  C240  1  0.198650  0.568310  0.295100  1
  C  C241  1  0.390280  0.245280  0.656560  1
  C  C242  1  0.733720  0.754720  0.343440  1
  C  C243  1  0.890280  0.411280  0.656560  1
  C  C244  1  0.233720  0.588720  0.343440  1
  C  C245  1  0.394830  0.197530  0.647060  1
  C  C246  1  0.747770  0.802470  0.352940  1
  C  C247  1  0.894830  0.449530  0.647060  1
  C  C248  1  0.247770  0.550470  0.352940  1
  C  C249  1  0.415990  0.156190  0.697580  1
  C  C250  1  0.718410  0.843810  0.302420  1
  C  C251  1  0.915990  0.541390  0.697580  1
  C  C252  1  0.218410  0.458610  0.302420  1
  C  C253  1  0.103790  0.922310  0.427420  1
  C  C254  1  0.676370  0.077690  0.572580  1
  C  C255  1  0.603790  0.505110  0.427420  1
  C  C256  1  0.176370  0.494890  0.572580  1
  C  C257  1  0.053850  0.920150  0.398900  1
  C  C258  1  0.654950  0.079850  0.601100  1
  C  C259  1  0.553850  0.478750  0.398900  1
  C  C260  1  0.154950  0.521250  0.601100  1
  C  C261  1  0.026550  0.950050  0.418300  1
  C  C262  1  0.608250  0.049950  0.581700  1
  C  C263  1  0.526550  0.468250  0.418300  1
  C  C264  1  0.108250  0.531750  0.581700  1
  C  C265  1  0.049120  0.982200  0.466200  1
  C  C266  1  0.582920  0.017800  0.533800  1
  C  C267  1  0.549120  0.484000  0.466200  1
  C  C268  1  0.082920  0.516000  0.533800  1
  C  C269  1  0.099060  0.984390  0.494720  1
  C  C270  1  0.604340  0.015610  0.505280  1
  C  C271  1  0.599060  0.510330  0.494720  1
  C  C272  1  0.104340  0.489670  0.505280  1
  C  C273  1  0.121890  0.012300  0.540780  1
  C  C274  1  0.581110  0.987700  0.459220  1
  C  C275  1  0.621890  0.528480  0.540780  1
  C  C276  1  0.081110  0.471520  0.459220  1
  C  C277  1  0.107480  0.045210  0.574020  1
  C  C278  1  0.533460  0.954790  0.425980  1
  C  C279  1  0.607480  0.528810  0.574020  1
  C  C280  1  0.033460  0.471190  0.425980  1
  C  C281  1  0.147510  0.059810  0.619620  1
  C  C282  1  0.527890  0.940190  0.380380  1
  C  C283  1  0.647510  0.559810  0.619620  1
  C  C284  1  0.027890  0.440190  0.380380  1
  C  C285  1  0.231580  0.038880  0.649760  1
  C  C286  1  0.581820  0.961120  0.350240  1
  C  C287  1  0.731580  0.610880  0.649760  1
  C  C288  1  0.081820  0.389120  0.350240  1
  C  C289  1  0.367830  0.129530  0.687100  1
  C  C290  1  0.680730  0.870470  0.312900  1
  C  C291  1  0.867830  0.557570  0.687100  1
  C  C292  1  0.180730  0.442430  0.312900  1
  C  C293  1  0.320810  0.136130  0.662020  1
  C  C294  1  0.658790  0.863870  0.337980  1
  C  C295  1  0.820810  0.525890  0.662020  1
  C  C296  1  0.158790  0.474110  0.337980  1
  C  C297  1  0.276740  0.107740  0.650720  1
  C  C298  1  0.626020  0.892260  0.349280  1
  C  C299  1  0.776740  0.542980  0.650720  1
  C  C300  1  0.126020  0.457020  0.349280  1
  C  C301  1  0.279670  0.072750  0.664480  1
  C  C302  1  0.615190  0.927250  0.335520  1
  C  C303  1  0.779670  0.591730  0.664480  1
  C  C304  1  0.115190  0.408270  0.335520  1
  C  C305  1  0.326670  0.066140  0.689540  1
  C  C306  1  0.637130  0.933860  0.310460  1
  C  C307  1  0.826670  0.623400  0.689540  1
  C  C308  1  0.137130  0.376600  0.310460  1
  C  C309  1  0.370770  0.094530  0.700860  1
  C  C310  1  0.669910  0.905470  0.299140  1
  C  C311  1  0.870770  0.606330  0.700860  1
  C  C312  1  0.169910  0.393670  0.299140  1
  C  C313  1  0.533670  0.293780  0.777560  1
  C  C314  1  0.756110  0.706220  0.222440  1
  C  C315  1  0.033670  0.483780  0.777560  1
  C  C316  1  0.256110  0.516220  0.222440  1
  C  C317  1  0.581260  0.311510  0.785420  1
  C  C318  1  0.795840  0.688490  0.214580  1
  C  C319  1  0.081260  0.473910  0.785420  1
  C  C320  1  0.295840  0.526090  0.214580  1
  C  C321  1  0.614700  0.349990  0.828800  1
  C  C322  1  0.785900  0.650010  0.171200  1
  C  C323  1  0.114700  0.478810  0.828800  1
  C  C324  1  0.285900  0.521190  0.171200  1
  C  C325  1  0.600550  0.370650  0.864300  1
  C  C326  1  0.736250  0.629350  0.135700  1
  C  C327  1  0.100550  0.493650  0.864300  1
  C  C328  1  0.236250  0.506350  0.135700  1
  C  C329  1  0.553010  0.352870  0.856420  1
  C  C330  1  0.696590  0.647130  0.143580  1
  C  C331  1  0.053010  0.503550  0.856420  1
  C  C332  1  0.196590  0.496450  0.143580  1
  C  C333  1  0.541090  0.368790  0.893580  1
  C  C334  1  0.647510  0.631210  0.106420  1
  C  C335  1  0.041090  0.524790  0.893580  1
  C  C336  1  0.147510  0.475210  0.106420  1
  C  C337  1  0.565490  0.405390  0.941380  1
  C  C338  1  0.624110  0.594610  0.058620  1
  C  C339  1  0.065490  0.535990  0.941380  1
  C  C340  1  0.124110  0.464010  0.058620  1
  C  C341  1  0.531730  0.407230  0.960460  1
  C  C342  1  0.571270  0.592770  0.039540  1
  C  C343  1  0.031730  0.553230  0.960460  1
  C  C344  1  0.071270  0.446770  0.039540  1
  C  C345  1  0.444600  0.359000  0.927600  1
  C  C346  1  0.517000  0.641000  0.072400  1
  C  C347  1  0.944600  0.568600  0.927600  1
  C  C348  1  0.017000  0.431400  0.072400  1
  C  C349  1  0.349800  0.114700  0.039200  1
  C  C350  1  0.310600  0.885300  0.960800  1
  C  C351  1  0.849800  0.924500  0.039200  1
  C  C352  1  0.810600  0.075500  0.960800  1
  C  C353  1  0.376433  0.126800  0.086200  1
  C  C354  1  0.290233  0.873200  0.913800  1
  C  C355  1  0.876433  0.959400  0.086200  1
  C  C356  1  0.790233  0.040600  0.913800  1
  C  C357  1  0.426200  0.153400  0.112800  1
  C  C358  1  0.313400  0.846600  0.887200  1
  C  C359  1  0.926200  0.959400  0.112800  1
  C  C360  1  0.813400  0.040600  0.887200  1
  C  C361  1  0.449400  0.167900  0.092400  1
  C  C362  1  0.357000  0.832100  0.907600  1
  C  C363  1  0.949400  0.924500  0.092400  1
  C  C364  1  0.857000  0.075500  0.907600  1
  C  C365  1  0.422700  0.155700  0.045400  1
  C  C366  1  0.377300  0.844300  0.954600  1
  C  C367  1  0.922700  0.889700  0.045400  1
  C  C368  1  0.877300  0.110300  0.954600  1
  C  C369  1  0.443800  0.173600  0.025800  1
  C  C370  1  0.418000  0.826400  0.974200  1
  C  C371  1  0.943800  0.852200  0.025800  1
  C  C372  1  0.918000  0.147800  0.974200  1
  C  C373  1  0.493870  0.197470  0.042340  1
  C  C374  1  0.451530  0.802530  0.957660  1
  C  C375  1  0.993870  0.844870  0.042340  1
  C  C376  1  0.951530  0.155130  0.957660  1
  C  C377  1  0.497000  0.198700  0.004400  1
  C  C378  1  0.492600  0.801300  0.995600  1
  C  C379  1  0.997000  0.805700  0.004400  1
  C  C380  1  0.992600  0.194300  0.995600  1
  C  C381  1  0.432000  0.174400  0.922200  1
  C  C382  1  0.509800  0.825600  0.077800  1
  C  C383  1  0.932000  0.747800  0.922200  1
  C  C384  1  0.009800  0.252200  0.077800  1
  C  C385  1  0.444970  0.311470  0.927800  1
  C  C386  1  0.517170  0.688530  0.072200  1
  C  C387  1  0.944970  0.616330  0.927800  1
  C  C388  1  0.017170  0.383670  0.072200  1
  C  C389  1  0.486590  0.290640  0.936740  1
  C  C390  1  0.549850  0.709360  0.063260  1
  C  C391  1  0.986590  0.646100  0.936740  1
  C  C392  1  0.049850  0.353900  0.063260  1
  C  C393  1  0.481830  0.246370  0.935440  1
  C  C394  1  0.546390  0.753630  0.064560  1
  C  C395  1  0.981830  0.689070  0.935440  1
  C  C396  1  0.046390  0.310930  0.064560  1
  C  C397  1  0.435400  0.222920  0.925200  1
  C  C398  1  0.510200  0.777080  0.074800  1
  C  C399  1  0.935400  0.702280  0.925200  1
  C  C400  1  0.010200  0.297720  0.074800  1
  C  C401  1  0.393820  0.243750  0.916260  1
  C  C402  1  0.477560  0.756250  0.083740  1
  C  C403  1  0.893820  0.672510  0.916260  1
  C  C404  1  0.977560  0.327490  0.083740  1
  C  C405  1  0.398580  0.288020  0.917560  1
  C  C406  1  0.481020  0.711980  0.082440  1
  C  C407  1  0.898580  0.629540  0.917560  1
  C  C408  1  0.981020  0.370460  0.082440  1
  C  C409  1  0.113550  0.359580  0.571820  1
  C  C410  1  0.541730  0.640420  0.428180  1
  C  C411  1  0.613550  0.212240  0.571820  1
  C  C412  1  0.041730  0.787760  0.428180  1
  C  C413  1  0.101720  0.395250  0.559160  1
  C  C414  1  0.542560  0.604750  0.440840  1
  C  C415  1  0.601720  0.163910  0.559160  1
  C  C416  1  0.042560  0.836090  0.440840  1
  C  C417  1  0.066720  0.420960  0.569220  1
  C  C418  1  0.497500  0.579040  0.430780  1
  C  C419  1  0.566720  0.148260  0.569220  1
  C  C420  1  0.997500  0.851740  0.430780  1
  C  C421  1  0.043560  0.411000  0.591940  1
  C  C422  1  0.451620  0.589000  0.408060  1
  C  C423  1  0.543560  0.180940  0.591940  1
  C  C424  1  0.951620  0.819060  0.408060  1
  C  C425  1  0.055390  0.375340  0.604600  1
  C  C426  1  0.450790  0.624660  0.395400  1
  C  C427  1  0.555390  0.229260  0.604600  1
  C  C428  1  0.950790  0.770740  0.395400  1
  C  C429  1  0.036520  0.368130  0.630440  1
  C  C430  1  0.406080  0.631870  0.369560  1
  C  C431  1  0.536520  0.262310  0.630440  1
  C  C432  1  0.906080  0.737690  0.369560  1
  C  C433  1  0.007230  0.393070  0.652260  1
  C  C434  1  0.354970  0.606930  0.347740  1
  C  C435  1  0.507230  0.259190  0.652260  1
  C  C436  1  0.854970  0.740810  0.347740  1
  C  C437  1  0.996560  0.368100  0.673200  1
  C  C438  1  0.323360  0.631900  0.326800  1
  C  C439  1  0.496560  0.305100  0.673200  1
  C  C440  1  0.823360  0.694900  0.326800  1
  C  C441  1  0.016120  0.289520  0.674040  1
  C  C442  1  0.342080  0.710480  0.325960  1
  C  C443  1  0.516120  0.384520  0.674040  1
  C  C444  1  0.842080  0.615480  0.325960  1
  C  C445  1  0.959960  0.254860  0.925520  1
  C  C446  1  0.034440  0.745140  0.074480  1
  C  C447  1  0.459960  0.670660  0.925520  1
  C  C448  1  0.534440  0.329340  0.074480  1
  C  C449  1  0.928360  0.273560  0.945520  1
  C  C450  1  0.982840  0.726440  0.054480  1
  C  C451  1  0.428360  0.671960  0.945520  1
  C  C452  1  0.482840  0.328040  0.054480  1
  C  C453  1  0.919500  0.319060  0.953520  1
  C  C454  1  0.965980  0.680940  0.046480  1
  C  C455  1  0.419500  0.634460  0.953520  1
  C  C456  1  0.465980  0.365540  0.046480  1
  C  C457  1  0.942280  0.345880  0.941560  1
  C  C458  1  0.000720  0.654120  0.058440  1
  C  C459  1  0.442280  0.595680  0.941560  1
  C  C460  1  0.500720  0.404320  0.058440  1
  C  C461  1  0.973890  0.327190  0.921580  1
  C  C462  1  0.052310  0.672810  0.078420  1
  C  C463  1  0.473890  0.594390  0.921580  1
  C  C464  1  0.552310  0.405610  0.078420  1
  C  C465  1  0.998530  0.353930  0.910460  1
  C  C466  1  0.088070  0.646070  0.089540  1
  C  C467  1  0.498530  0.556530  0.910460  1
  C  C468  1  0.588070  0.443470  0.089540  1
  C  C469  1  0.000250  0.401650  0.917300  1
  C  C470  1  0.082950  0.598350  0.082700  1
  C  C471  1  0.500250  0.515650  0.917300  1
  C  C472  1  0.582950  0.484350  0.082700  1
  C  C473  1  0.036050  0.412250  0.904300  1
  C  C474  1  0.131750  0.587750  0.095700  1
  C  C475  1  0.536050  0.492050  0.904300  1
  C  C476  1  0.631750  0.507950  0.095700  1
  C  C477  1  0.089200  0.361400  0.870800  1
  C  C478  1  0.218400  0.638600  0.129200  1
  C  C479  1  0.589200  0.509400  0.870800  1
  C  C480  1  0.718400  0.490600  0.129200  1
  C  C481  1  0.034740  0.310250  0.725700  1
  C  C482  1  0.309040  0.689750  0.274300  1
  C  C483  1  0.534740  0.415450  0.725700  1
  C  C484  1  0.809040  0.584550  0.274300  1
  C  C485  1  0.003510  0.297430  0.740760  1
  C  C486  1  0.262750  0.702570  0.259240  1
  C  C487  1  0.503510  0.443330  0.740760  1
  C  C488  1  0.762750  0.556670  0.259240  1
  C  C489  1  0.019820  0.315200  0.788440  1
  C  C490  1  0.231380  0.684800  0.211560  1
  C  C491  1  0.519820  0.473240  0.788440  1
  C  C492  1  0.731380  0.526760  0.211560  1
  C  C493  1  0.067350  0.345770  0.821040  1
  C  C494  1  0.246310  0.654230  0.178960  1
  C  C495  1  0.567350  0.475270  0.821040  1
  C  C496  1  0.746310  0.524730  0.178960  1
  C  C497  1  0.098590  0.358580  0.805980  1
  C  C498  1  0.292610  0.641420  0.194020  1
  C  C499  1  0.598590  0.447400  0.805980  1
  C  C500  1  0.792610  0.552600  0.194020  1
  C  C501  1  0.082280  0.340820  0.758300  1
  C  C502  1  0.323980  0.659180  0.241700  1
  C  C503  1  0.582280  0.417480  0.758300  1
  C  C504  1  0.823980  0.582520  0.241700  1
  C  C505  1  0.233460  0.934030  0.447980  1
  C  C506  1  0.785480  0.065970  0.552020  1
  C  C507  1  0.733460  0.513950  0.447980  1
  C  C508  1  0.285480  0.486050  0.552020  1
  C  C509  1  0.247040  0.901780  0.415020  1
  C  C510  1  0.832020  0.098220  0.584980  1
  C  C511  1  0.747040  0.513240  0.415020  1
  C  C512  1  0.332020  0.486760  0.584980  1
  C  C513  1  0.243570  0.854110  0.405640  1
  C  C514  1  0.837930  0.145890  0.594360  1
  C  C515  1  0.743570  0.551530  0.405640  1
  C  C516  1  0.337930  0.448470  0.594360  1
  C  C517  1  0.226520  0.838680  0.429200  1
  C  C518  1  0.797320  0.161320  0.570800  1
  C  C519  1  0.726520  0.590520  0.429200  1
  C  C520  1  0.297320  0.409480  0.570800  1
  C  C521  1  0.212940  0.870930  0.462160  1
  C  C522  1  0.750780  0.129070  0.537840  1
  C  C523  1  0.712940  0.591230  0.462160  1
  C  C524  1  0.250780  0.408770  0.537840  1
  C  C525  1  0.198420  0.856170  0.486040  1
  C  C526  1  0.712380  0.143830  0.513960  1
  C  C527  1  0.698420  0.629870  0.486040  1
  C  C528  1  0.212380  0.370130  0.513960  1
  C  C529  1  0.198940  0.812470  0.488080  1
  C  C530  1  0.710860  0.187530  0.511920  1
  C  C531  1  0.698940  0.675610  0.488080  1
  C  C532  1  0.210860  0.324390  0.511920  1
  C  C533  1  0.185920  0.818040  0.523640  1
  C  C534  1  0.662280  0.181960  0.476360  1
  C  C535  1  0.685920  0.705600  0.523640  1
  C  C536  1  0.162280  0.294400  0.476360  1
  C  C537  1  0.161600  0.885400  0.579200  1
  C  C538  1  0.582400  0.114600  0.420800  1
  C  C539  1  0.661600  0.693800  0.579200  1
  C  C540  1  0.082400  0.306200  0.420800  1
  C  C541  1  0.935920  0.832720  0.663240  1
  C  C542  1  0.272680  0.167280  0.336760  1
  C  C543  1  0.435920  0.830520  0.663240  1
  C  C544  1  0.772680  0.169480  0.336760  1
  C  C545  1  0.903000  0.792300  0.650600  1
  C  C546  1  0.252400  0.207700  0.349400  1
  C  C547  1  0.403000  0.858300  0.650600  1
  C  C548  1  0.752400  0.141700  0.349400  1
  C  C549  1  0.866900  0.763700  0.604200  1
  C  C550  1  0.262700  0.236300  0.395800  1
  C  C551  1  0.366900  0.840500  0.604200  1
  C  C552  1  0.762700  0.159500  0.395800  1
  C  C553  1  0.863610  0.775410  0.570220  1
  C  C554  1  0.293390  0.224590  0.429780  1
  C  C555  1  0.363610  0.794810  0.570220  1
  C  C556  1  0.793390  0.205190  0.429780  1
  C  C557  1  0.896620  0.815820  0.582840  1
  C  C558  1  0.313780  0.184180  0.417160  1
  C  C559  1  0.396620  0.767020  0.582840  1
  C  C560  1  0.813780  0.232980  0.417160  1
  C  C561  1  0.902200  0.824900  0.553400  1
  C  C562  1  0.348800  0.175100  0.446600  1
  C  C563  1  0.402200  0.728500  0.553400  1
  C  C564  1  0.848800  0.271500  0.446600  1
  C  C565  1  0.869200  0.801500  0.504200  1
  C  C566  1  0.365000  0.198500  0.495800  1
  C  C567  1  0.369200  0.702700  0.504200  1
  C  C568  1  0.865000  0.297300  0.495800  1
  C  C569  1  0.882450  0.827850  0.485500  1
  C  C570  1  0.396950  0.172150  0.514500  1
  C  C571  1  0.382450  0.657650  0.485500  1
  C  C572  1  0.896950  0.342350  0.514500  1
  C  C573  1  0.954900  0.902500  0.523200  1
  C  C574  1  0.431700  0.097500  0.476800  1
  C  C575  1  0.454900  0.620700  0.523200  1
  C  C576  1  0.931700  0.379300  0.476800  1
  C  C577  1  0.107490  0.888120  0.564700  1
  C  C578  1  0.542790  0.111880  0.435300  1
  C  C579  1  0.607490  0.676580  0.564700  1
  C  C580  1  0.042790  0.323420  0.435300  1
  C  C581  1  0.071700  0.847510  0.547600  1
  C  C582  1  0.524100  0.152490  0.452400  1
  C  C583  1  0.571700  0.700090  0.547600  1
  C  C584  1  0.024100  0.299910  0.452400  1
  C  C585  1  0.020970  0.849460  0.533940  1
  C  C586  1  0.487030  0.150540  0.466060  1
  C  C587  1  0.520970  0.684480  0.533940  1
  C  C588  1  0.987030  0.315520  0.466060  1
  C  C589  1  0.006200  0.892000  0.537400  1
  C  C590  1  0.468800  0.108000  0.462600  1
  C  C591  1  0.506200  0.645400  0.537400  1
  C  C592  1  0.968800  0.354600  0.462600  1
  C  C593  1  0.041950  0.932660  0.554500  1
  C  C594  1  0.487450  0.067340  0.445500  1
  C  C595  1  0.541950  0.621840  0.554500  1
  C  C596  1  0.987450  0.378160  0.445500  1
  C  C597  1  0.092670  0.930690  0.568140  1
  C  C598  1  0.524530  0.069310  0.431860  1
  C  C599  1  0.592670  0.637450  0.568140  1
  C  C600  1  0.024530  0.362550  0.431860  1
  C  C601  1  0.376680  0.053080  0.912960  1
  C  C602  1  0.463720  0.946920  0.087040  1
  C  C603  1  0.876680  0.859880  0.912960  1
  C  C604  1  0.963720  0.140120  0.087040  1
  C  C605  1  0.381670  0.006370  0.889140  1
  C  C606  1  0.492530  0.993630  0.110860  1
  C  C607  1  0.881670  0.882770  0.889140  1
  C  C608  1  0.992530  0.117230  0.110860  1
  C  C609  1  0.344920  0.967220  0.873640  1
  C  C610  1  0.471280  0.032780  0.126360  1
  C  C611  1  0.844920  0.906420  0.873640  1
  C  C612  1  0.971280  0.093580  0.126360  1
  C  C613  1  0.303180  0.974780  0.881960  1
  C  C614  1  0.421220  0.025220  0.118040  1
  C  C615  1  0.803180  0.907180  0.881960  1
  C  C616  1  0.921220  0.092820  0.118040  1
  C  C617  1  0.298200  0.021500  0.905800  1
  C  C618  1  0.392400  0.978500  0.094200  1
  C  C619  1  0.798200  0.884300  0.905800  1
  C  C620  1  0.892400  0.115700  0.094200  1
  C  C621  1  0.252300  0.026200  0.908000  1
  C  C622  1  0.344300  0.973800  0.092000  1
  C  C623  1  0.752300  0.881800  0.908000  1
  C  C624  1  0.844300  0.118200  0.092000  1
  C  C625  1  0.208200  0.997900  0.898800  1
  C  C626  1  0.309400  0.002100  0.101200  1
  C  C627  1  0.708200  0.900900  0.898800  1
  C  C628  1  0.809400  0.099100  0.101200  1
  C  C629  1  0.182500  0.029800  0.920800  1
  C  C630  1  0.261700  0.970200  0.079200  1
  C  C631  1  0.682500  0.891000  0.920800  1
  C  C632  1  0.761700  0.109000  0.079200  1
  C  C633  1  0.202100  0.125400  0.969200  1
  C  C634  1  0.232900  0.874600  0.030800  1
  C  C635  1  0.702100  0.843800  0.969200  1
  C  C636  1  0.732900  0.156200  0.030800  1
  C  C637  1  0.920220  0.233080  0.807160  1
  C  C638  1  0.113060  0.766920  0.192840  1
  C  C639  1  0.420220  0.574080  0.807160  1
  C  C640  1  0.613060  0.425920  0.192840  1
  C  C641  1  0.883390  0.212490  0.760580  1
  C  C642  1  0.122810  0.787510  0.239420  1
  C  C643  1  0.383390  0.548090  0.760580  1
  C  C644  1  0.622810  0.451910  0.239420  1
  C  C645  1  0.896990  0.191290  0.724780  1
  C  C646  1  0.172210  0.808710  0.275220  1
  C  C647  1  0.396990  0.533490  0.724780  1
  C  C648  1  0.672210  0.466510  0.275220  1
  C  C649  1  0.947480  0.190780  0.735560  1
  C  C650  1  0.211920  0.809220  0.264440  1
  C  C651  1  0.447480  0.544780  0.735560  1
  C  C652  1  0.711920  0.455220  0.264440  1
  C  C653  1  0.984360  0.211380  0.782160  1
  C  C654  1  0.202200  0.788620  0.217840  1
  C  C655  1  0.484360  0.570780  0.782160  1
  C  C656  1  0.702200  0.429220  0.217840  1
  C  C657  1  0.033440  0.215640  0.794880  1
  C  C658  1  0.238560  0.784360  0.205120  1
  C  C659  1  0.533440  0.579240  0.794880  1
  C  C660  1  0.738560  0.420760  0.205120  1
  C  C661  1  0.064680  0.205080  0.772360  1
  C  C662  1  0.292320  0.794920  0.227640  1
  C  C663  1  0.564680  0.567280  0.772360  1
  C  C664  1  0.792320  0.432720  0.227640  1
  C  C665  1  0.115930  0.219460  0.807520  1
  C  C666  1  0.308410  0.780540  0.192480  1
  C  C667  1  0.615930  0.588060  0.807520  1
  C  C668  1  0.808410  0.411940  0.192480  1
  C  C669  1  0.159500  0.259600  0.894800  1
  C  C670  1  0.264700  0.740400  0.105200  1
  C  C671  1  0.659500  0.635200  0.894800  1
  C  C672  1  0.764700  0.364800  0.105200  1
  C  C673  1  0.189730  0.157430  0.948260  1
  C  C674  1  0.241470  0.842570  0.051740  1
  C  C675  1  0.689730  0.790830  0.948260  1
  C  C676  1  0.741470  0.209170  0.051740  1
  C  C677  1  0.161030  0.139830  0.900260  1
  C  C678  1  0.260770  0.860170  0.099740  1
  C  C679  1  0.661030  0.760430  0.900260  1
  C  C680  1  0.760770  0.239570  0.099740  1
  C  C681  1  0.152010  0.171510  0.882220  1
  C  C682  1  0.269790  0.828490  0.117780  1
  C  C683  1  0.652010  0.710710  0.882220  1
  C  C684  1  0.769790  0.289290  0.117780  1
  C  C685  1  0.171730  0.220810  0.912220  1
  C  C686  1  0.259510  0.779190  0.087780  1
  C  C687  1  0.671730  0.691410  0.912220  1
  C  C688  1  0.759510  0.308590  0.087780  1
  C  C689  1  0.200450  0.238410  0.960220  1
  C  C690  1  0.240230  0.761590  0.039780  1
  C  C691  1  0.700450  0.721810  0.960220  1
  C  C692  1  0.740230  0.278190  0.039780  1
  C  C693  1  0.209470  0.206620  0.978240  1
  C  C694  1  0.231230  0.793380  0.021760  1
  C  C695  1  0.709470  0.771620  0.978240  1
  C  C696  1  0.731230  0.228380  0.021760  1
  C  C697  1  0.112890  0.326990  0.977180  1
  C  C698  1  0.135710  0.673010  0.022820  1
  C  C699  1  0.612890  0.650190  0.977180  1
  C  C700  1  0.635710  0.349810  0.022820  1
  C  C701  1  0.149360  0.340760  0.022720  1
  C  C702  1  0.126640  0.659240  0.977280  1
  C  C703  1  0.649360  0.681960  0.022720  1
  C  C704  1  0.626640  0.318040  0.977280  1
  C  C705  1  0.157440  0.307330  0.038660  1
  C  C706  1  0.118780  0.692670  0.961340  1
  C  C707  1  0.657440  0.731330  0.038660  1
  C  C708  1  0.618780  0.268670  0.961340  1
  C  C709  1  0.129040  0.260120  0.009040  1
  C  C710  1  0.120000  0.739880  0.990960  1
  C  C711  1  0.629040  0.748920  0.009040  1
  C  C712  1  0.620000  0.251080  0.990960  1
  C  C713  1  0.092570  0.246340  0.963480  1
  C  C714  1  0.129090  0.753660  0.036520  1
  C  C715  1  0.592570  0.717140  0.963480  1
  C  C716  1  0.629090  0.282860  0.036520  1
  C  C717  1  0.064600  0.199600  0.933200  1
  C  C718  1  0.131400  0.800400  0.066800  1
  C  C719  1  0.564600  0.733600  0.933200  1
  C  C720  1  0.631400  0.266400  0.066800  1
  C  C721  1  0.065200  0.157300  0.937600  1
  C  C722  1  0.127600  0.842700  0.062400  1
  C  C723  1  0.565200  0.780300  0.937600  1
  C  C724  1  0.627600  0.219700  0.062400  1
  C  C725  1  0.025300  0.119800  0.895800  1
  C  C726  1  0.129500  0.880200  0.104200  1
  C  C727  1  0.525300  0.776000  0.895800  1
  C  C728  1  0.629500  0.224000  0.104200  1
  C  C729  1  0.955300  0.118000  0.823400  1
  C  C730  1  0.131900  0.882000  0.176600  1
  C  C731  1  0.455300  0.705400  0.823400  1
  C  C732  1  0.631900  0.294600  0.176600  1
  C  C733  1  0.037900  0.826600  0.643400  1
  C  C734  1  0.394500  0.173400  0.356600  1
  C  C735  1  0.537900  0.816800  0.643400  1
  C  C736  1  0.894500  0.183200  0.356600  1
  C  C737  1  0.081600  0.809100  0.647600  1
  C  C738  1  0.434000  0.190900  0.352400  1
  C  C739  1  0.581600  0.838500  0.647600  1
  C  C740  1  0.934000  0.161500  0.352400  1
  C  C741  1  0.124800  0.838200  0.658200  1
  C  C742  1  0.466600  0.161800  0.341800  1
  C  C743  1  0.624800  0.820000  0.658200  1
  C  C744  1  0.966600  0.180000  0.341800  1
  C  C745  1  0.124300  0.884700  0.664600  1
  C  C746  1  0.459700  0.115300  0.335400  1
  C  C747  1  0.624300  0.779900  0.664600  1
  C  C748  1  0.959700  0.220100  0.335400  1
  C  C749  1  0.080600  0.902100  0.660400  1
  C  C750  1  0.420200  0.097900  0.339600  1
  C  C751  1  0.580600  0.758300  0.660400  1
  C  C752  1  0.920200  0.241700  0.339600  1
  C  C753  1  0.078400  0.948700  0.672200  1
  C  C754  1  0.406200  0.051300  0.327800  1
  C  C755  1  0.578400  0.723500  0.672200  1
  C  C756  1  0.906200  0.276500  0.327800  1
  C  C757  1  0.110700  0.989300  0.682200  1
  C  C758  1  0.428500  0.010700  0.317800  1
  C  C759  1  0.610700  0.692900  0.682200  1
  C  C760  1  0.928500  0.307100  0.317800  1
  C  C761  1  0.081000  0.022800  0.675800  1
  C  C762  1  0.405200  0.977200  0.324200  1
  C  C763  1  0.581000  0.653000  0.675800  1
  C  C764  1  0.905200  0.347000  0.324200  1
  C  C765  1  0.987500  0.030000  0.657200  1
  C  C766  1  0.330300  0.970000  0.342800  1
  C  C767  1  0.487500  0.627200  0.657200  1
  C  C768  1  0.830300  0.372800  0.342800  1
  C  C769  1  0.968250  0.096650  0.780900  1
  C  C770  1  0.187350  0.903350  0.219100  1
  C  C771  1  0.468250  0.684250  0.780900  1
  C  C772  1  0.687350  0.315750  0.219100  1
  C  C773  1  0.015790  0.088990  0.785380  1
  C  C774  1  0.230410  0.911010  0.214620  1
  C  C775  1  0.515790  0.696390  0.785380  1
  C  C776  1  0.730410  0.303610  0.214620  1
  C  C777  1  0.023320  0.067720  0.745840  1
  C  C778  1  0.277480  0.932280  0.254160  1
  C  C779  1  0.523320  0.678120  0.745840  1
  C  C780  1  0.777480  0.321880  0.254160  1
  C  C781  1  0.983300  0.054200  0.701800  1
  C  C782  1  0.281500  0.945800  0.298200  1
  C  C783  1  0.483300  0.647600  0.701800  1
  C  C784  1  0.781500  0.352400  0.298200  1
  C  C785  1  0.935750  0.061850  0.697300  1
  C  C786  1  0.238450  0.938150  0.302700  1
  C  C787  1  0.435750  0.635450  0.697300  1
  C  C788  1  0.738450  0.364550  0.302700  1
  C  C789  1  0.928230  0.083030  0.736860  1
  C  C790  1  0.191370  0.916970  0.263140  1
  C  C791  1  0.428230  0.653830  0.736860  1
  C  C792  1  0.691370  0.346170  0.263140  1
  C  C793  1  0.335010  0.225210  0.032020  1
  C  C794  1  0.302990  0.774790  0.967980  1
  C  C795  1  0.835010  0.806810  0.032020  1
  C  C796  1  0.802990  0.193190  0.967980  1
  C  C797  1  0.341520  0.274620  0.048440  1
  C  C798  1  0.293080  0.725380  0.951560  1
  C  C799  1  0.841520  0.773820  0.048440  1
  C  C800  1  0.793080  0.226180  0.951560  1
  C  C801  1  0.331190  0.292590  0.017380  1
  C  C802  1  0.313810  0.707410  0.982620  1
  C  C803  1  0.831190  0.724790  0.017380  1
  C  C804  1  0.813810  0.275210  0.982620  1
  C  C805  1  0.314360  0.261060  0.969920  1
  C  C806  1  0.344440  0.738940  0.030080  1
  C  C807  1  0.814360  0.708860  0.969920  1
  C  C808  1  0.844440  0.291140  0.030080  1
  C  C809  1  0.307880  0.211650  0.953500  1
  C  C810  1  0.354380  0.788350  0.046500  1
  C  C811  1  0.807880  0.741850  0.953500  1
  C  C812  1  0.854380  0.258150  0.046500  1
  C  C813  1  0.291110  0.174110  0.908620  1
  C  C814  1  0.382490  0.825890  0.091380  1
  C  C815  1  0.791110  0.734510  0.908620  1
  C  C816  1  0.882490  0.265490  0.091380  1
  C  C817  1  0.271000  0.181800  0.869200  1
  C  C818  1  0.401800  0.818200  0.130800  1
  C  C819  1  0.771000  0.687400  0.869200  1
  C  C820  1  0.901800  0.312600  0.130800  1
  C  C821  1  0.261380  0.137380  0.828760  1
  C  C822  1  0.432620  0.862620  0.171240  1
  C  C823  1  0.761380  0.691380  0.828760  1
  C  C824  1  0.932620  0.308620  0.171240  1
  C  C825  1  0.270000  0.053300  0.810800  1
  C  C826  1  0.459200  0.946700  0.189200  1
  C  C827  1  0.770000  0.757500  0.810800  1
  C  C828  1  0.959200  0.242500  0.189200  1
  C  C829  1  0.886850  0.938950  0.624100  1
  C  C830  1  0.262750  0.061050  0.375900  1
  C  C831  1  0.386850  0.685150  0.624100  1
  C  C832  1  0.762750  0.314850  0.375900  1
  C  C833  1  0.844600  0.954000  0.628400  1
  C  C834  1  0.216200  0.046000  0.371600  1
  C  C835  1  0.344600  0.674400  0.628400  1
  C  C836  1  0.716200  0.325600  0.371600  1
  C  C837  1  0.843900  0.971100  0.671200  1
  C  C838  1  0.172700  0.028900  0.328800  1
  C  C839  1  0.343900  0.700100  0.671200  1
  C  C840  1  0.672700  0.299900  0.328800  1
  C  C841  1  0.885400  0.973100  0.709600  1
  C  C842  1  0.175800  0.026900  0.290400  1
  C  C843  1  0.385400  0.736500  0.709600  1
  C  C844  1  0.675800  0.263500  0.290400  1
  C  C845  1  0.927680  0.957980  0.705160  1
  C  C846  1  0.222520  0.042020  0.294840  1
  C  C847  1  0.427680  0.747180  0.705160  1
  C  C848  1  0.722520  0.252820  0.294840  1
  C  C849  1  0.972700  0.959400  0.738800  1
  C  C850  1  0.233900  0.040600  0.261200  1
  C  C851  1  0.472700  0.779400  0.738800  1
  C  C852  1  0.733900  0.220600  0.261200  1
  C  C853  1  0.990400  0.980500  0.788000  1
  C  C854  1  0.202400  0.019500  0.212000  1
  C  C855  1  0.490400  0.807500  0.788000  1
  C  C856  1  0.702400  0.192500  0.212000  1
  C  C857  1  0.039810  0.972810  0.808020  1
  C  C858  1  0.231790  0.027190  0.191980  1
  C  C859  1  0.539810  0.835210  0.808020  1
  C  C860  1  0.731790  0.164790  0.191980  1
  C  C861  1  0.095700  0.930200  0.778000  1
  C  C862  1  0.317700  0.069800  0.222000  1
  C  C863  1  0.595700  0.847800  0.778000  1
  C  C864  1  0.817700  0.152200  0.222000  1
  C  C865  1  0.224750  0.025850  0.805900  1
  C  C866  1  0.418850  0.974150  0.194100  1
  C  C867  1  0.724750  0.780050  0.805900  1
  C  C868  1  0.918850  0.219950  0.194100  1
  C  C869  1  0.226870  0.977870  0.792740  1
  C  C870  1  0.434130  0.022130  0.207260  1
  C  C871  1  0.726870  0.814870  0.792740  1
  C  C872  1  0.934130  0.185130  0.207260  1
  C  C873  1  0.186060  0.945460  0.781720  1
  C  C874  1  0.404340  0.054540  0.218280  1
  C  C875  1  0.686060  0.836260  0.781720  1
  C  C876  1  0.904340  0.163740  0.218280  1
  C  C877  1  0.143100  0.961000  0.783800  1
  C  C878  1  0.359300  0.039000  0.216200  1
  C  C879  1  0.643100  0.822800  0.783800  1
  C  C880  1  0.859300  0.177200  0.216200  1
  C  C881  1  0.141000  0.009000  0.797000  1
  C  C882  1  0.344000  0.991000  0.203000  1
  C  C883  1  0.641000  0.788000  0.797000  1
  C  C884  1  0.844000  0.212000  0.203000  1
  C  C885  1  0.181830  0.041430  0.808060  1
  C  C886  1  0.373770  0.958570  0.191940  1
  C  C887  1  0.681830  0.766630  0.808060  1
  C  C888  1  0.873770  0.233370  0.191940  1
  Cu  Cu889  1  0.450088  0.289908  0.806616  1
  Cu  Cu890  1  0.643472  0.710092  0.193384  1
  Cu  Cu891  1  0.950088  0.516708  0.806616  1
  Cu  Cu892  1  0.143472  0.483292  0.193384  1
  Cu  Cu893  1  0.108278  0.299568  0.615596  1
  Cu  Cu894  1  0.492682  0.700432  0.384404  1
  Cu  Cu895  1  0.608278  0.316028  0.615596  1
  Cu  Cu896  1  0.992682  0.683972  0.384404  1
  Cu  Cu897  1  0.199010  0.965240  0.522160  1
  Cu  Cu898  1  0.676850  0.034760  0.477840  1
  Cu  Cu899  1  0.699010  0.556920  0.522160  1
  Cu  Cu900  1  0.176850  0.443080  0.477840  1
  Cu  Cu901  1  0.328660  0.125800  0.953820  1
  Cu  Cu902  1  0.374840  0.874200  0.046180  1
  Cu  Cu903  1  0.828660  0.828020  0.953820  1
  Cu  Cu904  1  0.874840  0.171980  0.046180  1
  Cu  Cu905  1  0.027980  0.257530  0.882740  1
  Cu  Cu906  1  0.145240  0.742470  0.117260  1
  Cu  Cu907  1  0.527980  0.625210  0.882740  1
  Cu  Cu908  1  0.645240  0.374790  0.117260  1
  Cu  Cu909  1  0.980700  0.904630  0.647380  1
  Cu  Cu910  1  0.333320  0.095370  0.352620  1
  Cu  Cu911  1  0.480700  0.742750  0.647380  1
  Cu  Cu912  1  0.833320  0.257250  0.352620  1
  F  F913  1  0.227800  0.347600  0.897200  1
  F  F914  1  0.330600  0.652400  0.102800  1
  F  F915  1  0.727800  0.549600  0.897200  1
  F  F916  1  0.830600  0.450400  0.102800  1
  F  F917  1  0.299700  0.350300  0.889200  1
  F  F918  1  0.410500  0.649700  0.110800  1
  F  F919  1  0.799700  0.538900  0.889200  1
  F  F920  1  0.910500  0.461100  0.110800  1
  F  F921  1  0.227170  0.305670  0.829740  1
  F  F922  1  0.397430  0.694330  0.170260  1
  F  F923  1  0.727170  0.524070  0.829740  1
  F  F924  1  0.897430  0.475930  0.170260  1
  F  F925  1  0.265600  0.286800  0.885400  1
  F  F926  1  0.380200  0.713200  0.114600  1
  F  F927  1  0.765600  0.598600  0.885400  1
  F  F928  1  0.880200  0.401400  0.114600  1
  F  F929  1  0.909210  0.282210  0.583620  1
  F  F930  1  0.325590  0.717790  0.416380  1
  F  F931  1  0.409210  0.301410  0.583620  1
  F  F932  1  0.825590  0.698590  0.416380  1
  F  F933  1  0.878680  0.258680  0.618960  1
  F  F934  1  0.259720  0.741320  0.381040  1
  F  F935  1  0.378680  0.360280  0.618960  1
  F  F936  1  0.759720  0.639720  0.381040  1
  F  F937  1  0.835410  0.295410  0.580020  1
  F  F938  1  0.255390  0.704590  0.419980  1
  F  F939  1  0.335410  0.284610  0.580020  1
  F  F940  1  0.755390  0.715390  0.419980  1
  F  F941  1  0.841210  0.223910  0.541420  1
  F  F942  1  0.299790  0.776090  0.458580  1
  F  F943  1  0.341210  0.317510  0.541420  1
  F  F944  1  0.799790  0.682490  0.458580  1
  F  F945  1  0.966100  0.553700  0.624400  1
  F  F946  1  0.341700  0.446300  0.375600  1
  F  F947  1  0.466100  0.070700  0.624400  1
  F  F948  1  0.841700  0.929300  0.375600  1
  F  F949  1  0.008620  0.505520  0.594240  1
  F  F950  1  0.414380  0.494480  0.405760  1
  F  F951  1  0.508620  0.088720  0.594240  1
  F  F952  1  0.914380  0.911280  0.405760  1
  F  F953  1  0.000110  0.502910  0.650620  1
  F  F954  1  0.349490  0.497090  0.349380  1
  F  F955  1  0.500110  0.147710  0.650620  1
  F  F956  1  0.849490  0.852290  0.349380  1
  F  F957  1  0.936460  0.474560  0.581920  1
  F  F958  1  0.354540  0.525440  0.418080  1
  F  F959  1  0.436460  0.107360  0.581920  1
  F  F960  1  0.854540  0.892640  0.418080  1
  F  F961  1  0.269990  0.491540  0.655180  1
  F  F962  1  0.614810  0.508460  0.344820  1
  F  F963  1  0.769990  0.163640  0.655180  1
  F  F964  1  0.114810  0.836360  0.344820  1
  F  F965  1  0.219720  0.484620  0.684440  1
  F  F966  1  0.535280  0.515380  0.315560  1
  F  F967  1  0.719720  0.199820  0.684440  1
  F  F968  1  0.035280  0.800180  0.315560  1
  F  F969  1  0.223700  0.418600  0.626200  1
  F  F970  1  0.597500  0.581400  0.373800  1
  F  F971  1  0.723700  0.207600  0.626200  1
  F  F972  1  0.097500  0.792400  0.373800  1
  F  F973  1  0.289050  0.451550  0.696300  1
  F  F974  1  0.592750  0.548450  0.303700  1
  F  F975  1  0.789050  0.244750  0.696300  1
  F  F976  1  0.092750  0.755250  0.303700  1
  F  F977  1  0.012610  0.100610  0.610020  1
  F  F978  1  0.402590  0.899390  0.389980  1
  F  F979  1  0.512610  0.509410  0.610020  1
  F  F980  1  0.902590  0.490590  0.389980  1
  F  F981  1  0.957110  0.136710  0.583020  1
  F  F982  1  0.374090  0.863290  0.416980  1
  F  F983  1  0.457110  0.446310  0.583020  1
  F  F984  1  0.874090  0.553690  0.416980  1
  F  F985  1  0.015610  0.177610  0.656420  1
  F  F986  1  0.359190  0.822390  0.343580  1
  F  F987  1  0.515610  0.478810  0.656420  1
  F  F988  1  0.859190  0.521190  0.343580  1
  F  F989  1  0.954820  0.117820  0.635240  1
  F  F990  1  0.319580  0.882180  0.364760  1
  F  F991  1  0.454820  0.517420  0.635240  1
  F  F992  1  0.819580  0.482580  0.364760  1
  F  F993  1  0.194550  0.182100  0.766900  1
  F  F994  1  0.427650  0.817900  0.233100  1
  F  F995  1  0.694550  0.584800  0.766900  1
  F  F996  1  0.927650  0.415200  0.233100  1
  F  F997  1  0.195860  0.102210  0.729720  1
  F  F998  1  0.466140  0.897790  0.270280  1
  F  F999  1  0.695860  0.627510  0.729720  1
  F  F1000  1  0.966140  0.372490  0.270280  1
  F  F1001  1  0.150260  0.126360  0.770120  1
  F  F1002  1  0.380140  0.873640  0.229880  1
  F  F1003  1  0.650260  0.643760  0.770120  1
  F  F1004  1  0.880140  0.356240  0.229880  1
  F  F1005  1  0.125090  0.128650  0.702780  1
  F  F1006  1  0.422310  0.871350  0.297220  1
  F  F1007  1  0.625090  0.574130  0.702780  1
  F  F1008  1  0.922310  0.425870  0.297220  1
  H  H1009  1  0.546300  0.248400  0.834400  1
  H  H1010  1  0.711900  0.751600  0.165600  1
  H  H1011  1  0.046300  0.586000  0.834400  1
  H  H1012  1  0.211900  0.414000  0.165600  1
  H  H1013  1  0.563100  0.180500  0.842200  1
  H  H1014  1  0.720900  0.819500  0.157800  1
  H  H1015  1  0.063100  0.661700  0.842200  1
  H  H1016  1  0.220900  0.338300  0.157800  1
  H  H1017  1  0.499700  0.128600  0.833000  1
  H  H1018  1  0.666700  0.871400  0.167000  1
  H  H1019  1  0.999700  0.704400  0.833000  1
  H  H1020  1  0.166700  0.295600  0.167000  1
  H  H1021  1  0.419500  0.144400  0.815800  1
  H  H1022  1  0.603700  0.855600  0.184200  1
  H  H1023  1  0.919500  0.671400  0.815800  1
  H  H1024  1  0.103700  0.328600  0.184200  1
  H  H1025  1  0.333100  0.165600  0.791200  1
  H  H1026  1  0.541900  0.834400  0.208800  1
  H  H1027  1  0.833100  0.625600  0.791200  1
  H  H1028  1  0.041900  0.374400  0.208800  1
  H  H1029  1  0.275700  0.222600  0.783600  1
  H  H1030  1  0.492100  0.777400  0.216400  1
  H  H1031  1  0.775700  0.561000  0.783600  1
  H  H1032  1  0.992100  0.439000  0.216400  1
  H  H1033  1  0.353200  0.337500  0.817000  1
  H  H1034  1  0.536200  0.662500  0.183000  1
  H  H1035  1  0.853200  0.479500  0.817000  1
  H  H1036  1  0.036200  0.520500  0.183000  1
  H  H1037  1  0.299100  0.319000  0.808000  1
  H  H1038  1  0.491100  0.681000  0.192000  1
  H  H1039  1  0.799100  0.489000  0.808000  1
  H  H1040  1  0.991100  0.511000  0.192000  1
  H  H1041  1  0.994100  0.262100  0.560800  1
  H  H1042  1  0.433300  0.737900  0.439200  1
  H  H1043  1  0.494100  0.298700  0.560800  1
  H  H1044  1  0.933300  0.701300  0.439200  1
  H  H1045  1  0.934800  0.204300  0.486000  1
  H  H1046  1  0.448800  0.795700  0.514000  1
  H  H1047  1  0.434800  0.281700  0.486000  1
  H  H1048  1  0.948800  0.718300  0.514000  1
  H  H1049  1  0.961200  0.156300  0.431600  1
  H  H1050  1  0.529600  0.843700  0.568400  1
  H  H1051  1  0.461200  0.275300  0.431600  1
  H  H1052  1  0.029600  0.724700  0.568400  1
  H  H1053  1  0.046800  0.166200  0.451800  1
  H  H1054  1  0.595000  0.833800  0.548200  1
  H  H1055  1  0.546800  0.285600  0.451800  1
  H  H1056  1  0.095000  0.714400  0.548200  1
  H  H1057  1  0.141600  0.177800  0.481400  1
  H  H1058  1  0.660200  0.822200  0.518600  1
  H  H1059  1  0.641600  0.303600  0.481400  1
  H  H1060  1  0.160200  0.696400  0.518600  1
  H  H1061  1  0.231500  0.226000  0.534600  1
  H  H1062  1  0.696900  0.774000  0.465400  1
  H  H1063  1  0.731500  0.308600  0.534600  1
  H  H1064  1  0.196900  0.691400  0.465400  1
  H  H1065  1  0.236100  0.339500  0.622000  1
  H  H1066  1  0.614100  0.660500  0.378000  1
  H  H1067  1  0.736100  0.282500  0.622000  1
  H  H1068  1  0.114100  0.717500  0.378000  1
  H  H1069  1  0.273200  0.307300  0.610000  1
  H  H1070  1  0.663200  0.692700  0.390000  1
  H  H1071  1  0.773200  0.302700  0.610000  1
  H  H1072  1  0.163200  0.697300  0.390000  1
  H  H1073  1  0.286300  0.235600  0.707600  1
  H  H1074  1  0.578700  0.764400  0.292400  1
  H  H1075  1  0.786300  0.472000  0.707600  1
  H  H1076  1  0.078700  0.528000  0.292400  1
  H  H1077  1  0.254500  0.235500  0.636400  1
  H  H1078  1  0.618100  0.764500  0.363600  1
  H  H1079  1  0.754500  0.400900  0.636400  1
  H  H1080  1  0.118100  0.599100  0.363600  1
  H  H1081  1  0.277800  0.380000  0.704200  1
  H  H1082  1  0.573600  0.620000  0.295800  1
  H  H1083  1  0.777800  0.324200  0.704200  1
  H  H1084  1  0.073600  0.675800  0.295800  1
  H  H1085  1  0.309600  0.380200  0.775400  1
  H  H1086  1  0.534200  0.619800  0.224600  1
  H  H1087  1  0.809600  0.395200  0.775400  1
  H  H1088  1  0.034200  0.604800  0.224600  1
  H  H1089  1  0.169600  0.409700  0.672400  1
  H  H1090  1  0.497200  0.590300  0.327600  1
  H  H1091  1  0.669600  0.262700  0.672400  1
  H  H1092  1  0.997200  0.737300  0.327600  1
  H  H1093  1  0.215300  0.465500  0.751400  1
  H  H1094  1  0.463900  0.534500  0.248600  1
  H  H1095  1  0.715300  0.285900  0.751400  1
  H  H1096  1  0.963900  0.714100  0.248600  1
  H  H1097  1  0.234300  0.441300  0.807600  1
  H  H1098  1  0.426700  0.558700  0.192400  1
  H  H1099  1  0.734300  0.366300  0.807600  1
  H  H1100  1  0.926700  0.633700  0.192400  1
  H  H1101  1  0.207400  0.361000  0.784400  1
  H  H1102  1  0.423000  0.639000  0.215600  1
  H  H1103  1  0.707400  0.423400  0.784400  1
  H  H1104  1  0.923000  0.576600  0.215600  1
  H  H1105  1  0.176700  0.273000  0.752800  1
  H  H1106  1  0.423900  0.727000  0.247200  1
  H  H1107  1  0.676700  0.479800  0.752800  1
  H  H1108  1  0.923900  0.520200  0.247200  1
  H  H1109  1  0.126300  0.188800  0.690400  1
  H  H1110  1  0.435900  0.811200  0.309600  1
  H  H1111  1  0.626300  0.501600  0.690400  1
  H  H1112  1  0.935900  0.498400  0.309600  1
  H  H1113  1  0.052000  0.184700  0.579800  1
  H  H1114  1  0.472200  0.815300  0.420200  1
  H  H1115  1  0.552000  0.395100  0.579800  1
  H  H1116  1  0.972200  0.604900  0.420200  1
  H  H1117  1  0.064800  0.150200  0.601400  1
  H  H1118  1  0.463400  0.849800  0.398600  1
  H  H1119  1  0.564800  0.451200  0.601400  1
  H  H1120  1  0.963400  0.548800  0.398600  1
  H  H1121  1  0.270600  0.933900  0.588600  1
  H  H1122  1  0.682000  0.066100  0.411400  1
  H  H1123  1  0.770600  0.654700  0.588600  1
  H  H1124  1  0.182000  0.345300  0.411400  1
  H  H1125  1  0.357600  0.944700  0.629600  1
  H  H1126  1  0.728000  0.055300  0.370400  1
  H  H1127  1  0.857600  0.684900  0.629600  1
  H  H1128  1  0.228000  0.315100  0.370400  1
  H  H1129  1  0.412000  0.999300  0.632000  1
  H  H1130  1  0.780000  0.000700  0.368000  1
  H  H1131  1  0.912000  0.632700  0.632000  1
  H  H1132  1  0.280000  0.367300  0.368000  1
  H  H1133  1  0.379200  0.043000  0.593200  1
  H  H1134  1  0.786000  0.957000  0.406800  1
  H  H1135  1  0.879200  0.550200  0.593200  1
  H  H1136  1  0.286000  0.449800  0.406800  1
  H  H1137  1  0.343000  0.088000  0.554600  1
  H  H1138  1  0.788400  0.912000  0.445400  1
  H  H1139  1  0.843000  0.466600  0.554600  1
  H  H1140  1  0.288400  0.533400  0.445400  1
  H  H1141  1  0.272400  0.114600  0.507200  1
  H  H1142  1  0.765200  0.885400  0.492800  1
  H  H1143  1  0.772400  0.392600  0.507200  1
  H  H1144  1  0.265200  0.607400  0.492800  1
  H  H1145  1  0.150800  0.035100  0.460200  1
  H  H1146  1  0.690600  0.964900  0.539800  1
  H  H1147  1  0.650800  0.425100  0.460200  1
  H  H1148  1  0.190600  0.574900  0.539800  1
  H  H1149  1  0.170400  0.080800  0.459800  1
  H  H1150  1  0.710600  0.919200  0.540200  1
  H  H1151  1  0.670400  0.379000  0.459800  1
  H  H1152  1  0.210600  0.621000  0.540200  1
  H  H1153  1  0.041700  0.112100  0.508600  1
  H  H1154  1  0.533100  0.887900  0.491400  1
  H  H1155  1  0.541700  0.396500  0.508600  1
  H  H1156  1  0.033100  0.603500  0.491400  1
  H  H1157  1  0.079700  0.069000  0.463000  1
  H  H1158  1  0.616700  0.931000  0.537000  1
  H  H1159  1  0.579700  0.394000  0.463000  1
  H  H1160  1  0.116700  0.606000  0.537000  1
  H  H1161  1  0.217000  0.137500  0.574400  1
  H  H1162  1  0.642600  0.862500  0.425600  1
  H  H1163  1  0.717000  0.436900  0.574400  1
  H  H1164  1  0.142600  0.563100  0.425600  1
  H  H1165  1  0.179100  0.180700  0.620200  1
  H  H1166  1  0.558900  0.819300  0.379800  1
  H  H1167  1  0.679100  0.439500  0.620200  1
  H  H1168  1  0.058900  0.560500  0.379800  1
  H  H1169  1  0.438300  0.395400  0.843000  1
  H  H1170  1  0.595300  0.604600  0.157000  1
  H  H1171  1  0.938300  0.447600  0.843000  1
  H  H1172  1  0.095300  0.552400  0.157000  1
  H  H1173  1  0.419000  0.448000  0.812600  1
  H  H1174  1  0.606400  0.552000  0.187400  1
  H  H1175  1  0.919000  0.364600  0.812600  1
  H  H1176  1  0.106400  0.635400  0.187400  1
  H  H1177  1  0.391500  0.419700  0.733200  1
  H  H1178  1  0.658300  0.580300  0.266800  1
  H  H1179  1  0.891500  0.313500  0.733200  1
  H  H1180  1  0.158300  0.686500  0.266800  1
  H  H1181  1  0.383200  0.338800  0.684000  1
  H  H1182  1  0.699200  0.661200  0.316000  1
  H  H1183  1  0.883200  0.345200  0.684000  1
  H  H1184  1  0.199200  0.654800  0.316000  1
  H  H1185  1  0.380500  0.256500  0.635000  1
  H  H1186  1  0.745500  0.743500  0.365000  1
  H  H1187  1  0.880500  0.378500  0.635000  1
  H  H1188  1  0.245500  0.621500  0.365000  1
  H  H1189  1  0.388400  0.171800  0.618200  1
  H  H1190  1  0.770200  0.828200  0.381800  1
  H  H1191  1  0.888400  0.446400  0.618200  1
  H  H1192  1  0.270200  0.553600  0.381800  1
  H  H1193  1  0.440100  0.167600  0.730200  1
  H  H1194  1  0.709900  0.832400  0.269800  1
  H  H1195  1  0.940100  0.562600  0.730200  1
  H  H1196  1  0.209900  0.437400  0.269800  1
  H  H1197  1  0.429900  0.134300  0.678400  1
  H  H1198  1  0.751500  0.865700  0.321600  1
  H  H1199  1  0.929900  0.544100  0.678400  1
  H  H1200  1  0.251500  0.455900  0.321600  1
  H  H1201  1  0.122100  0.902300  0.414400  1
  H  H1202  1  0.707700  0.097700  0.585600  1
  H  H1203  1  0.622100  0.512100  0.414400  1
  H  H1204  1  0.207700  0.487900  0.585600  1
  H  H1205  1  0.038700  0.898600  0.366800  1
  H  H1206  1  0.671900  0.101400  0.633200  1
  H  H1207  1  0.538700  0.468200  0.366800  1
  H  H1208  1  0.171900  0.531800  0.633200  1
  H  H1209  1  0.993100  0.948500  0.399200  1
  H  H1210  1  0.593900  0.051500  0.600800  1
  H  H1211  1  0.493100  0.450700  0.399200  1
  H  H1212  1  0.093900  0.549300  0.600800  1
  H  H1213  1  0.030800  0.002200  0.479200  1
  H  H1214  1  0.551600  0.997800  0.520800  1
  H  H1215  1  0.530800  0.477000  0.479200  1
  H  H1216  1  0.051600  0.523000  0.520800  1
  H  H1217  1  0.077200  0.055400  0.567200  1
  H  H1218  1  0.510000  0.944600  0.432800  1
  H  H1219  1  0.577200  0.511800  0.567200  1
  H  H1220  1  0.010000  0.488200  0.432800  1
  H  H1221  1  0.148000  0.081300  0.647800  1
  H  H1222  1  0.500200  0.918700  0.352200  1
  H  H1223  1  0.648000  0.566500  0.647800  1
  H  H1224  1  0.000200  0.433500  0.352200  1
  H  H1225  1  0.237800  0.006600  0.640200  1
  H  H1226  1  0.597600  0.993400  0.359800  1
  H  H1227  1  0.737800  0.633600  0.640200  1
  H  H1228  1  0.097600  0.366400  0.359800  1
  H  H1229  1  0.226900  0.048400  0.677400  1
  H  H1230  1  0.549500  0.951600  0.322600  1
  H  H1231  1  0.726900  0.629000  0.677400  1
  H  H1232  1  0.049500  0.371000  0.322600  1
  H  H1233  1  0.318800  0.159500  0.652800  1
  H  H1234  1  0.666000  0.840500  0.347200  1
  H  H1235  1  0.818800  0.493300  0.652800  1
  H  H1236  1  0.166000  0.506700  0.347200  1
  H  H1237  1  0.245300  0.112200  0.634000  1
  H  H1238  1  0.611300  0.887800  0.366000  1
  H  H1239  1  0.745300  0.521800  0.634000  1
  H  H1240  1  0.111300  0.478200  0.366000  1
  H  H1241  1  0.328700  0.042800  0.698800  1
  H  H1242  1  0.629900  0.957200  0.301200  1
  H  H1243  1  0.828700  0.656000  0.698800  1
  H  H1244  1  0.129900  0.344000  0.301200  1
  H  H1245  1  0.402200  0.090100  0.717600  1
  H  H1246  1  0.684600  0.909900  0.282400  1
  H  H1247  1  0.902200  0.627500  0.717600  1
  H  H1248  1  0.184600  0.372500  0.282400  1
  H  H1249  1  0.511300  0.268100  0.748600  1
  H  H1250  1  0.762700  0.731900  0.251400  1
  H  H1251  1  0.011300  0.480500  0.748600  1
  H  H1252  1  0.262700  0.519500  0.251400  1
  H  H1253  1  0.590700  0.297700  0.761600  1
  H  H1254  1  0.829100  0.702300  0.238400  1
  H  H1255  1  0.090700  0.463900  0.761600  1
  H  H1256  1  0.329100  0.536100  0.238400  1
  H  H1257  1  0.646500  0.361900  0.834000  1
  H  H1258  1  0.812500  0.638100  0.166000  1
  H  H1259  1  0.146500  0.472100  0.834000  1
  H  H1260  1  0.312500  0.527900  0.166000  1
  H  H1261  1  0.623000  0.396400  0.893400  1
  H  H1262  1  0.729600  0.603600  0.106600  1
  H  H1263  1  0.123000  0.497000  0.893400  1
  H  H1264  1  0.229600  0.503000  0.106600  1
  H  H1265  1  0.597900  0.424800  0.957400  1
  H  H1266  1  0.640500  0.575200  0.042600  1
  H  H1267  1  0.097900  0.532600  0.957400  1
  H  H1268  1  0.140500  0.467400  0.042600  1
  H  H1269  1  0.538200  0.428100  0.991200  1
  H  H1270  1  0.547000  0.571900  0.008800  1
  H  H1271  1  0.038200  0.563100  0.991200  1
  H  H1272  1  0.047000  0.436900  0.008800  1
  H  H1273  1  0.414000  0.355900  0.901000  1
  H  H1274  1  0.513000  0.644100  0.099000  1
  H  H1275  1  0.914000  0.545100  0.901000  1
  H  H1276  1  0.013000  0.454900  0.099000  1
  H  H1277  1  0.445000  0.383700  0.956000  1
  H  H1278  1  0.489000  0.616300  0.044000  1
  H  H1279  1  0.945000  0.572300  0.956000  1
  H  H1280  1  0.989000  0.427700  0.044000  1
  H  H1281  1  0.316500  0.096900  0.021400  1
  H  H1282  1  0.295100  0.903100  0.978600  1
  H  H1283  1  0.816500  0.924500  0.021400  1
  H  H1284  1  0.795100  0.075500  0.978600  1
  H  H1285  1  0.361000  0.117200  0.099800  1
  H  H1286  1  0.261200  0.882800  0.900200  1
  H  H1287  1  0.861000  0.982600  0.099800  1
  H  H1288  1  0.761200  0.017400  0.900200  1
  H  H1289  1  0.444100  0.161500  0.144200  1
  H  H1290  1  0.299900  0.838500  0.855800  1
  H  H1291  1  0.944100  0.982700  0.144200  1
  H  H1292  1  0.799900  0.017300  0.855800  1
  H  H1293  1  0.482700  0.185600  0.110200  1
  H  H1294  1  0.372500  0.814400  0.889800  1
  H  H1295  1  0.982700  0.924600  0.110200  1
  H  H1296  1  0.872500  0.075400  0.889800  1
  H  H1297  1  0.520100  0.210100  0.072800  1
  H  H1298  1  0.447300  0.789900  0.927200  1
  H  H1299  1  0.020100  0.862700  0.072800  1
  H  H1300  1  0.947300  0.137300  0.927200  1
  H  H1301  1  0.525600  0.212300  0.005600  1
  H  H1302  1  0.520000  0.787700  0.994400  1
  H  H1303  1  0.025600  0.793300  0.005600  1
  H  H1304  1  0.020000  0.206700  0.994400  1
  H  H1305  1  0.397000  0.156700  0.902600  1
  H  H1306  1  0.494400  0.843300  0.097400  1
  H  H1307  1  0.897000  0.745900  0.902600  1
  H  H1308  1  0.994400  0.254100  0.097400  1
  H  H1309  1  0.451500  0.156800  0.907000  1
  H  H1310  1  0.544500  0.843200  0.093000  1
  H  H1311  1  0.951500  0.750200  0.907000  1
  H  H1312  1  0.044500  0.249800  0.093000  1
  H  H1313  1  0.517600  0.306300  0.943600  1
  H  H1314  1  0.574000  0.693700  0.056400  1
  H  H1315  1  0.017600  0.637300  0.943600  1
  H  H1316  1  0.074000  0.362700  0.056400  1
  H  H1317  1  0.509700  0.232400  0.941400  1
  H  H1318  1  0.568300  0.767600  0.058600  1
  H  H1319  1  0.009700  0.709000  0.941400  1
  H  H1320  1  0.068300  0.291000  0.058600  1
  H  H1321  1  0.362800  0.228100  0.909400  1
  H  H1322  1  0.453400  0.771900  0.090600  1
  H  H1323  1  0.862800  0.681300  0.909400  1
  H  H1324  1  0.953400  0.318700  0.090600  1
  H  H1325  1  0.370700  0.302000  0.911600  1
  H  H1326  1  0.459100  0.698000  0.088400  1
  H  H1327  1  0.870700  0.609600  0.911600  1
  H  H1328  1  0.959100  0.390400  0.088400  1
  H  H1329  1  0.136900  0.342300  0.565000  1
  H  H1330  1  0.571900  0.657700  0.435000  1
  H  H1331  1  0.636900  0.222700  0.565000  1
  H  H1332  1  0.071900  0.777300  0.435000  1
  H  H1333  1  0.117200  0.401900  0.544000  1
  H  H1334  1  0.573200  0.598100  0.456000  1
  H  H1335  1  0.617200  0.142100  0.544000  1
  H  H1336  1  0.073200  0.857900  0.456000  1
  H  H1337  1  0.058800  0.444800  0.560800  1
  H  H1338  1  0.498000  0.555200  0.439200  1
  H  H1339  1  0.558800  0.116000  0.560800  1
  H  H1340  1  0.998000  0.884000  0.439200  1
  H  H1341  1  0.020100  0.428200  0.598600  1
  H  H1342  1  0.421500  0.571800  0.401400  1
  H  H1343  1  0.520100  0.170400  0.598600  1
  H  H1344  1  0.921500  0.829600  0.401400  1
  H  H1345  1  0.996900  0.420900  0.652800  1
  H  H1346  1  0.344100  0.579100  0.347200  1
  H  H1347  1  0.496900  0.231900  0.652800  1
  H  H1348  1  0.844100  0.768100  0.347200  1
  H  H1349  1  0.978000  0.376700  0.689800  1
  H  H1350  1  0.288200  0.623300  0.310200  1
  H  H1351  1  0.478000  0.313100  0.689800  1
  H  H1352  1  0.788200  0.686900  0.310200  1
  H  H1353  1  0.036600  0.267800  0.664000  1
  H  H1354  1  0.372600  0.732200  0.336000  1
  H  H1355  1  0.536600  0.396200  0.664000  1
  H  H1356  1  0.872600  0.603800  0.336000  1
  H  H1357  1  0.981300  0.271500  0.657000  1
  H  H1358  1  0.324300  0.728500  0.343000  1
  H  H1359  1  0.481300  0.385500  0.657000  1
  H  H1360  1  0.824300  0.614500  0.343000  1
  H  H1361  1  0.965900  0.224400  0.920200  1
  H  H1362  1  0.045700  0.775600  0.079800  1
  H  H1363  1  0.465900  0.695800  0.920200  1
  H  H1364  1  0.545700  0.304200  0.079800  1
  H  H1365  1  0.913200  0.255600  0.953600  1
  H  H1366  1  0.959600  0.744400  0.046400  1
  H  H1367  1  0.413200  0.698000  0.953600  1
  H  H1368  1  0.459600  0.302000  0.046400  1
  H  H1369  1  0.898300  0.331500  0.966800  1
  H  H1370  1  0.931500  0.668500  0.033200  1
  H  H1371  1  0.398300  0.635300  0.966800  1
  H  H1372  1  0.431500  0.364700  0.033200  1
  H  H1373  1  0.936400  0.376300  0.947000  1
  H  H1374  1  0.989400  0.623700  0.053000  1
  H  H1375  1  0.436400  0.570700  0.947000  1
  H  H1376  1  0.489400  0.429300  0.053000  1
  H  H1377  1  0.981200  0.422400  0.928400  1
  H  H1378  1  0.052800  0.577600  0.071600  1
  H  H1379  1  0.481200  0.506000  0.928400  1
  H  H1380  1  0.552800  0.494000  0.071600  1
  H  H1381  1  0.044600  0.441100  0.905400  1
  H  H1382  1  0.139200  0.558900  0.094600  1
  H  H1383  1  0.544600  0.464300  0.905400  1
  H  H1384  1  0.639200  0.535700  0.094600  1
  H  H1385  1  0.105000  0.336500  0.876200  1
  H  H1386  1  0.228800  0.663500  0.123800  1
  H  H1387  1  0.605000  0.539700  0.876200  1
  H  H1388  1  0.728800  0.460300  0.123800  1
  H  H1389  1  0.115800  0.390200  0.887600  1
  H  H1390  1  0.228200  0.609800  0.112400  1
  H  H1391  1  0.615800  0.497400  0.887600  1
  H  H1392  1  0.728200  0.502600  0.112400  1
  H  H1393  1  0.971700  0.277000  0.719000  1
  H  H1394  1  0.252700  0.723000  0.281000  1
  H  H1395  1  0.471700  0.442000  0.719000  1
  H  H1396  1  0.752700  0.558000  0.281000  1
  H  H1397  1  0.999000  0.306700  0.798600  1
  H  H1398  1  0.200400  0.693300  0.201400  1
  H  H1399  1  0.499000  0.491900  0.798600  1
  H  H1400  1  0.700400  0.508100  0.201400  1
  H  H1401  1  0.130400  0.379000  0.827800  1
  H  H1402  1  0.302600  0.621000  0.172200  1
  H  H1403  1  0.630400  0.448800  0.827800  1
  H  H1404  1  0.802600  0.551200  0.172200  1
  H  H1405  1  0.103200  0.349400  0.748200  1
  H  H1406  1  0.355000  0.650600  0.251800  1
  H  H1407  1  0.603200  0.398800  0.748200  1
  H  H1408  1  0.855000  0.601200  0.251800  1
  H  H1409  1  0.235700  0.965900  0.454200  1
  H  H1410  1  0.781500  0.034100  0.545800  1
  H  H1411  1  0.735700  0.488300  0.454200  1
  H  H1412  1  0.281500  0.511700  0.545800  1
  H  H1413  1  0.258400  0.912100  0.399200  1
  H  H1414  1  0.859200  0.087900  0.600800  1
  H  H1415  1  0.758400  0.487100  0.399200  1
  H  H1416  1  0.359200  0.512900  0.600800  1
  H  H1417  1  0.252700  0.832500  0.383600  1
  H  H1418  1  0.869100  0.167500  0.616400  1
  H  H1419  1  0.752700  0.551100  0.383600  1
  H  H1420  1  0.369100  0.448900  0.616400  1
  H  H1421  1  0.224300  0.806800  0.423000  1
  H  H1422  1  0.801300  0.193200  0.577000  1
  H  H1423  1  0.724300  0.616200  0.423000  1
  H  H1424  1  0.301300  0.383800  0.577000  1
  H  H1425  1  0.206400  0.785000  0.469400  1
  H  H1426  1  0.737000  0.215000  0.530600  1
  H  H1427  1  0.706400  0.684400  0.469400  1
  H  H1428  1  0.237000  0.315600  0.530600  1
  H  H1429  1  0.183400  0.794900  0.532400  1
  H  H1430  1  0.651000  0.205100  0.467600  1
  H  H1431  1  0.683400  0.737500  0.532400  1
  H  H1432  1  0.151000  0.262500  0.467600  1
  H  H1433  1  0.182200  0.917900  0.601600  1
  H  H1434  1  0.580600  0.082100  0.398400  1
  H  H1435  1  0.682200  0.683700  0.601600  1
  H  H1436  1  0.080600  0.316300  0.398400  1
  H  H1437  1  0.169300  0.866800  0.595600  1
  H  H1438  1  0.573700  0.133200  0.404400  1
  H  H1439  1  0.669300  0.728800  0.595600  1
  H  H1440  1  0.073700  0.271200  0.404400  1
  H  H1441  1  0.960200  0.851900  0.694400  1
  H  H1442  1  0.265800  0.148100  0.305600  1
  H  H1443  1  0.460200  0.842500  0.694400  1
  H  H1444  1  0.765800  0.157500  0.305600  1
  H  H1445  1  0.905200  0.784400  0.673400  1
  H  H1446  1  0.231800  0.215600  0.326600  1
  H  H1447  1  0.405200  0.889000  0.673400  1
  H  H1448  1  0.731800  0.111000  0.326600  1
  H  H1449  1  0.844700  0.736500  0.595600  1
  H  H1450  1  0.249100  0.263500  0.404400  1
  H  H1451  1  0.344700  0.859100  0.595600  1
  H  H1452  1  0.749100  0.140900  0.404400  1
  H  H1453  1  0.839500  0.756300  0.539200  1
  H  H1454  1  0.300300  0.243700  0.460800  1
  H  H1455  1  0.339500  0.782900  0.539200  1
  H  H1456  1  0.800300  0.217100  0.460800  1
  H  H1457  1  0.843500  0.774000  0.487400  1
  H  H1458  1  0.356100  0.226000  0.512600  1
  H  H1459  1  0.343500  0.713400  0.487400  1
  H  H1460  1  0.856100  0.286600  0.512600  1
  H  H1461  1  0.867000  0.820400  0.454200  1
  H  H1462  1  0.412800  0.179600  0.545800  1
  H  H1463  1  0.367000  0.633800  0.454200  1
  H  H1464  1  0.912800  0.366200  0.545800  1
  H  H1465  1  0.956300  0.934900  0.545200  1
  H  H1466  1  0.411100  0.065100  0.454800  1
  H  H1467  1  0.456300  0.610300  0.545200  1
  H  H1468  1  0.911100  0.389700  0.454800  1
  H  H1469  1  0.941400  0.899600  0.492200  1
  H  H1470  1  0.449200  0.100400  0.507800  1
  H  H1471  1  0.441400  0.592600  0.492200  1
  H  H1472  1  0.949200  0.407400  0.507800  1
  H  H1473  1  0.081500  0.819000  0.545200  1
  H  H1474  1  0.536300  0.181000  0.454800  1
  H  H1475  1  0.581500  0.726200  0.545200  1
  H  H1476  1  0.036300  0.273800  0.454800  1
  H  H1477  1  0.996900  0.822200  0.522400  1
  H  H1478  1  0.474500  0.177800  0.477600  1
  H  H1479  1  0.496900  0.700200  0.522400  1
  H  H1480  1  0.974500  0.299800  0.477600  1
  H  H1481  1  0.032100  0.961100  0.556800  1
  H  H1482  1  0.475300  0.038900  0.443200  1
  H  H1483  1  0.532100  0.595700  0.556800  1
  H  H1484  1  0.975300  0.404300  0.443200  1
  H  H1485  1  0.116600  0.957900  0.579600  1
  H  H1486  1  0.537000  0.042100  0.420400  1
  H  H1487  1  0.616600  0.621700  0.579600  1
  H  H1488  1  0.037000  0.378300  0.420400  1
  H  H1489  1  0.401300  0.079300  0.923400  1
  H  H1490  1  0.477900  0.920700  0.076600  1
  H  H1491  1  0.901300  0.844100  0.923400  1
  H  H1492  1  0.977900  0.155900  0.076600  1
  H  H1493  1  0.409600  0.001400  0.883600  1
  H  H1494  1  0.526000  0.998600  0.116400  1
  H  H1495  1  0.909600  0.882200  0.883600  1
  H  H1496  1  0.026000  0.117800  0.116400  1
  H  H1497  1  0.348200  0.935900  0.857600  1
  H  H1498  1  0.490600  0.064100  0.142400  1
  H  H1499  1  0.848200  0.921700  0.857600  1
  H  H1500  1  0.990600  0.078300  0.142400  1
  H  H1501  1  0.278700  0.948600  0.871600  1
  H  H1502  1  0.407100  0.051400  0.128400  1
  H  H1503  1  0.778700  0.923000  0.871600  1
  H  H1504  1  0.907100  0.077000  0.128400  1
  H  H1505  1  0.197900  0.964400  0.881400  1
  H  H1506  1  0.316500  0.035600  0.118600  1
  H  H1507  1  0.697900  0.917000  0.881400  1
  H  H1508  1  0.816500  0.083000  0.118600  1
  H  H1509  1  0.152400  0.020700  0.920200  1
  H  H1510  1  0.232200  0.979300  0.079800  1
  H  H1511  1  0.652400  0.899500  0.920200  1
  H  H1512  1  0.732200  0.100500  0.079800  1
  H  H1513  1  0.232300  0.142900  0.999200  1
  H  H1514  1  0.233100  0.857100  0.000800  1
  H  H1515  1  0.732300  0.856300  0.999200  1
  H  H1516  1  0.733100  0.143700  0.000800  1
  H  H1517  1  0.174800  0.120300  0.976000  1
  H  H1518  1  0.198800  0.879700  0.024000  1
  H  H1519  1  0.674800  0.855700  0.976000  1
  H  H1520  1  0.698800  0.144300  0.024000  1
  H  H1521  1  0.911100  0.247300  0.831200  1
  H  H1522  1  0.079900  0.752700  0.168800  1
  H  H1523  1  0.411100  0.583900  0.831200  1
  H  H1524  1  0.579900  0.416100  0.168800  1
  H  H1525  1  0.849600  0.212900  0.753400  1
  H  H1526  1  0.096200  0.787100  0.246600  1
  H  H1527  1  0.349600  0.540500  0.753400  1
  H  H1528  1  0.596200  0.459500  0.246600  1
  H  H1529  1  0.872300  0.177500  0.693600  1
  H  H1530  1  0.178700  0.822500  0.306400  1
  H  H1531  1  0.372300  0.516100  0.693600  1
  H  H1532  1  0.678700  0.483900  0.306400  1
  H  H1533  1  0.956600  0.176600  0.711600  1
  H  H1534  1  0.245000  0.823400  0.288400  1
  H  H1535  1  0.456600  0.535000  0.711600  1
  H  H1536  1  0.745000  0.465000  0.288400  1
  H  H1537  1  0.053600  0.191100  0.740200  1
  H  H1538  1  0.313400  0.808900  0.259800  1
  H  H1539  1  0.553600  0.549100  0.740200  1
  H  H1540  1  0.813400  0.450900  0.259800  1
  H  H1541  1  0.144200  0.216600  0.802400  1
  H  H1542  1  0.341800  0.783400  0.197600  1
  H  H1543  1  0.644200  0.585800  0.802400  1
  H  H1544  1  0.841800  0.414200  0.197600  1
  H  H1545  1  0.154200  0.287600  0.917600  1
  H  H1546  1  0.236600  0.712400  0.082400  1
  H  H1547  1  0.654200  0.630000  0.917600  1
  H  H1548  1  0.736600  0.370000  0.082400  1
  H  H1549  1  0.187900  0.270200  0.892000  1
  H  H1550  1  0.295900  0.729800  0.108000  1
  H  H1551  1  0.687900  0.621800  0.892000  1
  H  H1552  1  0.795900  0.378200  0.108000  1
  H  H1553  1  0.147800  0.106900  0.880200  1
  H  H1554  1  0.267600  0.893100  0.119800  1
  H  H1555  1  0.647800  0.773300  0.880200  1
  H  H1556  1  0.767600  0.226700  0.119800  1
  H  H1557  1  0.132800  0.159800  0.850200  1
  H  H1558  1  0.282600  0.840200  0.149800  1
  H  H1559  1  0.632800  0.690400  0.850200  1
  H  H1560  1  0.782600  0.309600  0.149800  1
  H  H1561  1  0.213600  0.271300  0.980200  1
  H  H1562  1  0.233400  0.728700  0.019800  1
  H  H1563  1  0.713600  0.708900  0.980200  1
  H  H1564  1  0.733400  0.291100  0.019800  1
  H  H1565  1  0.228700  0.218400  0.010400  1
  H  H1566  1  0.218300  0.781600  0.989600  1
  H  H1567  1  0.728700  0.792000  0.010400  1
  H  H1568  1  0.718300  0.208000  0.989600  1
  H  H1569  1  0.107500  0.349400  0.966600  1
  H  H1570  1  0.140900  0.650600  0.033400  1
  H  H1571  1  0.607500  0.617200  0.966600  1
  H  H1572  1  0.640900  0.382800  0.033400  1
  H  H1573  1  0.168400  0.372300  0.042600  1
  H  H1574  1  0.125800  0.627700  0.957400  1
  H  H1575  1  0.668400  0.670300  0.042600  1
  H  H1576  1  0.625800  0.329700  0.957400  1
  H  H1577  1  0.181900  0.316500  0.069200  1
  H  H1578  1  0.112700  0.683500  0.930800  1
  H  H1579  1  0.681900  0.752700  0.069200  1
  H  H1580  1  0.612700  0.247300  0.930800  1
  H  H1581  1  0.134500  0.237800  0.019800  1
  H  H1582  1  0.114700  0.762200  0.980200  1
  H  H1583  1  0.634500  0.782000  0.019800  1
  H  H1584  1  0.614700  0.218000  0.980200  1
  H  H1585  1  0.087600  0.154400  0.963200  1
  H  H1586  1  0.124400  0.845600  0.036800  1
  H  H1587  1  0.587600  0.808800  0.963200  1
  H  H1588  1  0.624400  0.191200  0.036800  1
  H  H1589  1  0.017000  0.088200  0.889200  1
  H  H1590  1  0.127800  0.911800  0.110800  1
  H  H1591  1  0.517000  0.801000  0.889200  1
  H  H1592  1  0.627800  0.199000  0.110800  1
  H  H1593  1  0.935500  0.142000  0.821800  1
  H  H1594  1  0.113700  0.858000  0.178200  1
  H  H1595  1  0.435500  0.679800  0.821800  1
  H  H1596  1  0.613700  0.320200  0.178200  1
  H  H1597  1  0.935400  0.092500  0.821800  1
  H  H1598  1  0.113600  0.907500  0.178200  1
  H  H1599  1  0.435400  0.729300  0.821800  1
  H  H1600  1  0.613600  0.270700  0.178200  1
  H  H1601  1  0.009000  0.807200  0.636400  1
  H  H1602  1  0.372600  0.192800  0.363600  1
  H  H1603  1  0.509000  0.829200  0.636400  1
  H  H1604  1  0.872600  0.170800  0.363600  1
  H  H1605  1  0.082000  0.778100  0.643400  1
  H  H1606  1  0.438600  0.221900  0.356600  1
  H  H1607  1  0.582000  0.865300  0.643400  1
  H  H1608  1  0.938600  0.134700  0.356600  1
  H  H1609  1  0.154000  0.826400  0.660800  1
  H  H1610  1  0.493200  0.173600  0.339200  1
  H  H1611  1  0.654000  0.834400  0.660800  1
  H  H1612  1  0.993200  0.165600  0.339200  1
  H  H1613  1  0.153200  0.904100  0.671600  1
  H  H1614  1  0.481600  0.095900  0.328400  1
  H  H1615  1  0.653200  0.767500  0.671600  1
  H  H1616  1  0.981600  0.232500  0.328400  1
  H  H1617  1  0.145300  0.993200  0.691200  1
  H  H1618  1  0.454100  0.006800  0.308800  1
  H  H1619  1  0.645300  0.698000  0.691200  1
  H  H1620  1  0.954100  0.302000  0.308800  1
  H  H1621  1  0.092600  0.052500  0.679800  1
  H  H1622  1  0.412800  0.947500  0.320200  1
  H  H1623  1  0.592600  0.627300  0.679800  1
  H  H1624  1  0.912800  0.372700  0.320200  1
  H  H1625  1  0.993900  0.054100  0.649200  1
  H  H1626  1  0.344700  0.945900  0.350800  1
  H  H1627  1  0.493900  0.595100  0.649200  1
  H  H1628  1  0.844700  0.404900  0.350800  1
  H  H1629  1  0.955800  0.007600  0.632000  1
  H  H1630  1  0.323800  0.992400  0.368000  1
  H  H1631  1  0.455800  0.624400  0.632000  1
  H  H1632  1  0.823800  0.375600  0.368000  1
  H  H1633  1  0.042500  0.098100  0.814800  1
  H  H1634  1  0.227700  0.901900  0.185200  1
  H  H1635  1  0.542500  0.716700  0.814800  1
  H  H1636  1  0.727700  0.283300  0.185200  1
  H  H1637  1  0.055100  0.062600  0.748800  1
  H  H1638  1  0.306300  0.937400  0.251200  1
  H  H1639  1  0.555100  0.686200  0.748800  1
  H  H1640  1  0.806300  0.313800  0.251200  1
  H  H1641  1  0.909000  0.052700  0.667800  1
  H  H1642  1  0.241200  0.947300  0.332200  1
  H  H1643  1  0.409000  0.615100  0.667800  1
  H  H1644  1  0.741200  0.384900  0.332200  1
  H  H1645  1  0.896400  0.088100  0.733800  1
  H  H1646  1  0.162600  0.911900  0.266200  1
  H  H1647  1  0.396400  0.645700  0.733800  1
  H  H1648  1  0.662600  0.354300  0.266200  1
  H  H1649  1  0.342000  0.213200  0.052800  1
  H  H1650  1  0.289200  0.786800  0.947200  1
  H  H1651  1  0.842000  0.839600  0.052800  1
  H  H1652  1  0.789200  0.160400  0.947200  1
  H  H1653  1  0.352800  0.295700  0.080200  1
  H  H1654  1  0.272600  0.704300  0.919800  1
  H  H1655  1  0.852800  0.784500  0.080200  1
  H  H1656  1  0.772600  0.215500  0.919800  1
  H  H1657  1  0.335500  0.325700  0.028400  1
  H  H1658  1  0.307100  0.674300  0.971600  1
  H  H1659  1  0.835500  0.702700  0.028400  1
  H  H1660  1  0.807100  0.297300  0.971600  1
  H  H1661  1  0.307500  0.273100  0.949200  1
  H  H1662  1  0.358300  0.726900  0.050800  1
  H  H1663  1  0.807500  0.676100  0.949200  1
  H  H1664  1  0.858300  0.323900  0.050800  1
  H  H1665  1  0.265200  0.210800  0.869800  1
  H  H1666  1  0.395400  0.789200  0.130200  1
  H  H1667  1  0.765200  0.659000  0.869800  1
  H  H1668  1  0.895400  0.341000  0.130200  1
  H  H1669  1  0.248200  0.132200  0.798200  1
  H  H1670  1  0.450000  0.867800  0.201800  1
  H  H1671  1  0.748200  0.666000  0.798200  1
  H  H1672  1  0.950000  0.334000  0.201800  1
  H  H1673  1  0.300100  0.041800  0.822800  1
  H  H1674  1  0.477300  0.958200  0.177200  1
  H  H1675  1  0.800100  0.781000  0.822800  1
  H  H1676  1  0.977300  0.219000  0.177200  1
  H  H1677  1  0.264100  0.050000  0.780800  1
  H  H1678  1  0.483300  0.950000  0.219200  1
  H  H1679  1  0.764100  0.730800  0.780800  1
  H  H1680  1  0.983300  0.269200  0.219200  1
  H  H1681  1  0.887400  0.927600  0.595600  1
  H  H1682  1  0.291800  0.072400  0.404400  1
  H  H1683  1  0.387400  0.668000  0.595600  1
  H  H1684  1  0.791800  0.332000  0.404400  1
  H  H1685  1  0.816800  0.952700  0.602800  1
  H  H1686  1  0.214000  0.047300  0.397200  1
  H  H1687  1  0.316800  0.650100  0.602800  1
  H  H1688  1  0.714000  0.349900  0.397200  1
  H  H1689  1  0.815700  0.981200  0.674200  1
  H  H1690  1  0.141500  0.018800  0.325800  1
  H  H1691  1  0.315700  0.693000  0.674200  1
  H  H1692  1  0.641500  0.307000  0.325800  1
  H  H1693  1  0.885000  0.984500  0.738200  1
  H  H1694  1  0.146800  0.015500  0.261800  1
  H  H1695  1  0.385000  0.753700  0.738200  1
  H  H1696  1  0.646800  0.246300  0.261800  1
  H  H1697  1  0.972600  0.996400  0.804000  1
  H  H1698  1  0.168600  0.003600  0.196000  1
  H  H1699  1  0.472600  0.807600  0.804000  1
  H  H1700  1  0.668600  0.192400  0.196000  1
  H  H1701  1  0.060100  0.983000  0.839600  1
  H  H1702  1  0.220500  0.017000  0.160400  1
  H  H1703  1  0.560100  0.856600  0.839600  1
  H  H1704  1  0.720500  0.143400  0.160400  1
  H  H1705  1  0.087000  0.898200  0.751400  1
  H  H1706  1  0.335600  0.101800  0.248600  1
  H  H1707  1  0.587000  0.853200  0.751400  1
  H  H1708  1  0.835600  0.146800  0.248600  1
  H  H1709  1  0.106500  0.926500  0.805600  1
  H  H1710  1  0.300900  0.073500  0.194400  1
  H  H1711  1  0.606500  0.879100  0.805600  1
  H  H1712  1  0.800900  0.120900  0.194400  1
  H  H1713  1  0.255600  0.967400  0.791200  1
  H  H1714  1  0.464400  0.032600  0.208800  1
  H  H1715  1  0.755600  0.823800  0.791200  1
  H  H1716  1  0.964400  0.176200  0.208800  1
  H  H1717  1  0.187500  0.913400  0.773000  1
  H  H1718  1  0.414500  0.086600  0.227000  1
  H  H1719  1  0.687500  0.859600  0.773000  1
  H  H1720  1  0.914500  0.140400  0.227000  1
  H  H1721  1  0.112200  0.019400  0.798400  1
  H  H1722  1  0.313800  0.980600  0.201600  1
  H  H1723  1  0.612200  0.779000  0.798400  1
  H  H1724  1  0.813800  0.221000  0.201600  1
  H  H1725  1  0.180400  0.073500  0.816800  1
  H  H1726  1  0.363600  0.926500  0.183200  1
  H  H1727  1  0.680400  0.743300  0.816800  1
  H  H1728  1  0.863600  0.256700  0.183200  1
  N  N1729  1  0.472850  0.236990  0.820300  1
  N  N1730  1  0.652550  0.763010  0.179700  1
  N  N1731  1  0.972850  0.583310  0.820300  1
  N  N1732  1  0.152550  0.416690  0.179700  1
  N  N1733  1  0.337470  0.269070  0.796940  1
  N  N1734  1  0.540530  0.730930  0.203060  1
  N  N1735  1  0.837470  0.527870  0.796940  1
  N  N1736  1  0.040530  0.472130  0.203060  1
  N  N1737  1  0.387350  0.262400  0.805600  1
  N  N1738  1  0.581750  0.737600  0.194400  1
  N  N1739  1  0.887350  0.543200  0.805600  1
  N  N1740  1  0.081750  0.456800  0.194400  1
  N  N1741  1  0.055930  0.248810  0.551060  1
  N  N1742  1  0.504870  0.751190  0.448940  1
  N  N1743  1  0.555930  0.302250  0.551060  1
  N  N1744  1  0.004870  0.697750  0.448940  1
  N  N1745  1  0.205040  0.272540  0.580560  1
  N  N1746  1  0.624480  0.727460  0.419440  1
  N  N1747  1  0.705040  0.308020  0.580560  1
  N  N1748  1  0.124480  0.691980  0.419440  1
  N  N1749  1  0.154980  0.269780  0.575340  1
  N  N1750  1  0.579640  0.730220  0.424660  1
  N  N1751  1  0.654980  0.305560  0.575340  1
  N  N1752  1  0.079640  0.694440  0.424660  1
  N  N1753  1  0.161040  0.351920  0.680980  1
  N  N1754  1  0.480060  0.648080  0.319020  1
  N  N1755  1  0.661040  0.329060  0.680980  1
  N  N1756  1  0.980060  0.670940  0.319020  1
  N  N1757  1  0.109440  0.213380  0.641400  1
  N  N1758  1  0.468040  0.786620  0.358600  1
  N  N1759  1  0.609440  0.428020  0.641400  1
  N  N1760  1  0.968040  0.571980  0.358600  1
  N  N1761  1  0.124940  0.260210  0.649380  1
  N  N1762  1  0.475560  0.739790  0.350620  1
  N  N1763  1  0.624940  0.389170  0.649380  1
  N  N1764  1  0.975560  0.610830  0.350620  1
  N  N1765  1  0.272790  0.981990  0.566380  1
  N  N1766  1  0.706410  0.018010  0.433620  1
  N  N1767  1  0.772790  0.584390  0.566380  1
  N  N1768  1  0.206410  0.415610  0.433620  1
  N  N1769  1  0.221990  0.066490  0.505580  1
  N  N1770  1  0.716410  0.933510  0.494420  1
  N  N1771  1  0.721990  0.439090  0.505580  1
  N  N1772  1  0.216410  0.560910  0.494420  1
  N  N1773  1  0.233090  0.035630  0.525780  1
  N  N1774  1  0.707310  0.964370  0.474220  1
  N  N1775  1  0.733090  0.490150  0.525780  1
  N  N1776  1  0.207310  0.509850  0.474220  1
  N  N1777  1  0.422290  0.335600  0.781660  1
  N  N1778  1  0.640630  0.664400  0.218340  1
  N  N1779  1  0.922290  0.446060  0.781660  1
  N  N1780  1  0.140630  0.553940  0.218340  1
  N  N1781  1  0.410780  0.195820  0.689520  1
  N  N1782  1  0.721260  0.804180  0.310480  1
  N  N1783  1  0.910780  0.493700  0.689520  1
  N  N1784  1  0.221260  0.506300  0.310480  1
  N  N1785  1  0.416190  0.242610  0.725280  1
  N  N1786  1  0.690910  0.757390  0.274720  1
  N  N1787  1  0.916190  0.482670  0.725280  1
  N  N1788  1  0.190910  0.517330  0.274720  1
  N  N1789  1  0.126360  0.954450  0.475320  1
  N  N1790  1  0.651040  0.045550  0.524680  1
  N  N1791  1  0.626360  0.520870  0.475320  1
  N  N1792  1  0.151040  0.479130  0.524680  1
  N  N1793  1  0.186570  0.035960  0.614540  1
  N  N1794  1  0.572030  0.964040  0.385460  1
  N  N1795  1  0.686570  0.578580  0.614540  1
  N  N1796  1  0.072030  0.421420  0.385460  1
  N  N1797  1  0.170770  0.006580  0.565820  1
  N  N1798  1  0.604950  0.993420  0.434180  1
  N  N1799  1  0.670770  0.559240  0.565820  1
  N  N1800  1  0.104950  0.440760  0.434180  1
  N  N1801  1  0.519520  0.314430  0.813040  1
  N  N1802  1  0.706480  0.685570  0.186960  1
  N  N1803  1  0.019520  0.498610  0.813040  1
  N  N1804  1  0.206480  0.501390  0.186960  1
  N  N1805  1  0.486540  0.371840  0.924480  1
  N  N1806  1  0.562060  0.628160  0.075520  1
  N  N1807  1  0.986540  0.552640  0.924480  1
  N  N1808  1  0.062060  0.447360  0.075520  1
  N  N1809  1  0.492270  0.348070  0.883140  1
  N  N1810  1  0.609130  0.651930  0.116860  1
  N  N1811  1  0.992270  0.535070  0.883140  1
  N  N1812  1  0.109130  0.464930  0.116860  1
  N  N1813  1  0.372910  0.129110  0.018820  1
  N  N1814  1  0.354090  0.870890  0.981180  1
  N  N1815  1  0.872910  0.889710  0.018820  1
  N  N1816  1  0.854090  0.110290  0.981180  1
  N  N1817  1  0.448820  0.175520  0.964240  1
  N  N1818  1  0.484580  0.824480  0.035760  1
  N  N1819  1  0.948820  0.788720  0.964240  1
  N  N1820  1  0.984580  0.211280  0.035760  1
  N  N1821  1  0.415900  0.160000  0.977400  1
  N  N1822  1  0.438500  0.840000  0.022600  1
  N  N1823  1  0.915900  0.817400  0.977400  1
  N  N1824  1  0.938500  0.182600  0.022600  1
  N  N1825  1  0.090390  0.349620  0.594540  1
  N  N1826  1  0.495850  0.650380  0.405460  1
  N  N1827  1  0.590390  0.244920  0.594540  1
  N  N1828  1  0.995850  0.755080  0.405460  1
  N  N1829  1  0.019270  0.327730  0.664340  1
  N  N1830  1  0.354930  0.672270  0.335660  1
  N  N1831  1  0.519270  0.336610  0.664340  1
  N  N1832  1  0.854930  0.663390  0.335660  1
  N  N1833  1  0.043960  0.327750  0.637900  1
  N  N1834  1  0.406060  0.672250  0.362100  1
  N  N1835  1  0.543960  0.310150  0.637900  1
  N  N1836  1  0.906060  0.689850  0.362100  1
  N  N1837  1  0.982700  0.281680  0.913560  1
  N  N1838  1  0.069140  0.718320  0.086440  1
  N  N1839  1  0.482700  0.631880  0.913560  1
  N  N1840  1  0.569140  0.368120  0.086440  1
  N  N1841  1  0.056510  0.371010  0.889420  1
  N  N1842  1  0.167090  0.628990  0.110580  1
  N  N1843  1  0.556510  0.518410  0.889420  1
  N  N1844  1  0.667090  0.481590  0.110580  1
  N  N1845  1  0.033320  0.335020  0.893240  1
  N  N1846  1  0.140080  0.664980  0.106760  1
  N  N1847  1  0.533320  0.558220  0.893240  1
  N  N1848  1  0.640080  0.441780  0.106760  1
  N  N1849  1  0.216410  0.918600  0.471540  1
  N  N1850  1  0.744870  0.081400  0.528460  1
  N  N1851  1  0.716410  0.552940  0.471540  1
  N  N1852  1  0.244870  0.447060  0.528460  1
  N  N1853  1  0.177390  0.865190  0.543580  1
  N  N1854  1  0.633810  0.134810  0.456420  1
  N  N1855  1  0.677390  0.678390  0.543580  1
  N  N1856  1  0.133810  0.321610  0.456420  1
  N  N1857  1  0.185170  0.888750  0.520340  1
  N  N1858  1  0.664830  0.111250  0.479660  1
  N  N1859  1  0.685170  0.631590  0.520340  1
  N  N1860  1  0.164830  0.368410  0.479660  1
  N  N1861  1  0.932800  0.844500  0.629400  1
  N  N1862  1  0.303400  0.155500  0.370600  1
  N  N1863  1  0.432800  0.784900  0.629400  1
  N  N1864  1  0.803400  0.215100  0.370600  1
  N  N1865  1  0.923580  0.867380  0.522960  1
  N  N1866  1  0.400620  0.132620  0.477040  1
  N  N1867  1  0.423580  0.655580  0.522960  1
  N  N1868  1  0.900620  0.344420  0.477040  1
  N  N1869  1  0.935730  0.865530  0.564860  1
  N  N1870  1  0.370870  0.134470  0.435140  1
  N  N1871  1  0.435730  0.699330  0.564860  1
  N  N1872  1  0.870870  0.300670  0.435140  1
  N  N1873  1  0.334950  0.060650  0.921300  1
  N  N1874  1  0.413650  0.939350  0.078700  1
  N  N1875  1  0.834950  0.860650  0.921300  1
  N  N1876  1  0.913650  0.139350  0.078700  1
  N  N1877  1  0.210700  0.077600  0.943400  1
  N  N1878  1  0.267300  0.922400  0.056600  1
  N  N1879  1  0.710700  0.865800  0.943400  1
  N  N1880  1  0.767300  0.134200  0.056600  1
  N  N1881  1  0.253900  0.075400  0.935600  1
  N  N1882  1  0.318300  0.924600  0.064400  1
  N  N1883  1  0.753900  0.860200  0.935600  1
  N  N1884  1  0.818300  0.139800  0.064400  1
  N  N1885  1  0.970680  0.232480  0.817960  1
  N  N1886  1  0.152720  0.767520  0.182040  1
  N  N1887  1  0.470680  0.585480  0.817960  1
  N  N1888  1  0.652720  0.414520  0.182040  1
  N  N1889  1  0.116290  0.238990  0.851780  1
  N  N1890  1  0.264510  0.761010  0.148220  1
  N  N1891  1  0.616290  0.612790  0.851780  1
  N  N1892  1  0.764510  0.387210  0.148220  1
  N  N1893  1  0.065320  0.236590  0.843980  1
  N  N1894  1  0.221340  0.763410  0.156020  1
  N  N1895  1  0.565320  0.607390  0.843980  1
  N  N1896  1  0.721340  0.392610  0.156020  1
  N  N1897  1  0.084500  0.279780  0.947560  1
  N  N1898  1  0.136940  0.720220  0.052440  1
  N  N1899  1  0.584500  0.667780  0.947560  1
  N  N1900  1  0.636940  0.332220  0.052440  1
  N  N1901  1  0.000070  0.139070  0.865540  1
  N  N1902  1  0.134530  0.860930  0.134460  1
  N  N1903  1  0.500070  0.726470  0.865540  1
  N  N1904  1  0.634530  0.273530  0.134460  1
  N  N1905  1  0.024500  0.188400  0.888800  1
  N  N1906  1  0.135700  0.811600  0.111200  1
  N  N1907  1  0.524500  0.700400  0.888800  1
  N  N1908  1  0.635700  0.299600  0.111200  1
  N  N1909  1  0.037400  0.873100  0.649800  1
  N  N1910  1  0.387600  0.126900  0.350200  1
  N  N1911  1  0.537400  0.776700  0.649800  1
  N  N1912  1  0.887600  0.223300  0.350200  1
  N  N1913  1  0.030280  0.003080  0.661960  1
  N  N1914  1  0.368320  0.996920  0.338040  1
  N  N1915  1  0.530280  0.658880  0.661960  1
  N  N1916  1  0.868320  0.341120  0.338040  1
  N  N1917  1  0.028820  0.957220  0.659840  1
  N  N1918  1  0.368980  0.042780  0.340160  1
  N  N1919  1  0.528820  0.702620  0.659840  1
  N  N1920  1  0.868980  0.297380  0.340160  1
  N  N1921  1  0.318280  0.193680  0.984560  1
  N  N1922  1  0.333720  0.806320  0.015440  1
  N  N1923  1  0.818280  0.790880  0.984560  1
  N  N1924  1  0.833720  0.209120  0.015440  1
  N  N1925  1  0.275490  0.102190  0.843180  1
  N  N1926  1  0.432310  0.897810  0.156820  1
  N  N1927  1  0.775490  0.740990  0.843180  1
  N  N1928  1  0.932310  0.259010  0.156820  1
  N  N1929  1  0.293860  0.124960  0.892520  1
  N  N1930  1  0.401340  0.875040  0.107480  1
  N  N1931  1  0.793860  0.767560  0.892520  1
  N  N1932  1  0.901340  0.232440  0.107480  1
  N  N1933  1  0.928400  0.940900  0.662400  1
  N  N1934  1  0.266000  0.059100  0.337600  1
  N  N1935  1  0.428400  0.721500  0.662400  1
  N  N1936  1  0.766000  0.278500  0.337600  1
  N  N1937  1  0.052700  0.947000  0.771200  1
  N  N1938  1  0.281500  0.053000  0.228800  1
  N  N1939  1  0.552700  0.824200  0.771200  1
  N  N1940  1  0.781500  0.175800  0.228800  1
  N  N1941  1  0.011230  0.938630  0.728460  1
  N  N1942  1  0.282770  0.061370  0.271540  1
  N  N1943  1  0.511230  0.789830  0.728460  1
  N  N1944  1  0.782770  0.210170  0.271540  1
