
#######################################################################
#
#                 Cambridge Crystallographic Data Centre
#                                CCDC 
#
#######################################################################
#
# If this CIF has been generated from an entry in the Cambridge 
# Structural Database, then it will include bibliographic, chemical, 
# crystal, experimental, refinement or atomic coordinate data resulting 
# from the CCDC's data processing and validation procedures.
#
#######################################################################

data_UXOPIH
_chemical_formula_moiety         
'C288 H240 N72 Ni8 16+,12(B1 F4 1-),2(F6 Si1 2-),18(C1 H3 N1 O2)'
_chemical_name_systematic        
'dodecakis(\m~2~-1,4-bis((3-(2-Pyridyl)pyrazolyl)methyl)benzene)-octa-nickel(ii) dodecakis(tetrafluoroborate) bis(hexafluorosilicate) nitromethane solvate'
_symmetry_cell_setting           rhombohedral
_symmetry_space_group_name_H-M   'R -3 c'
_symmetry_Int_Tables_number      167
_space_group_name_Hall           '-R 3 2"c'
loop_
_symmetry_equiv_pos_site_id
_symmetry_equiv_pos_as_xyz
1 x,y,z
2 -y,x-y,z
3 -x+y,-x,z
4 y,x,1/2-z
5 x-y,-y,1/2-z
6 -x,-x+y,1/2-z
7 2/3+x,1/3+y,1/3+z
8 2/3-y,1/3+x-y,1/3+z
9 2/3-x+y,1/3-x,1/3+z
10 2/3+y,1/3+x,5/6-z
11 2/3+x-y,1/3-y,5/6-z
12 2/3-x,1/3-x+y,5/6-z
13 1/3+x,2/3+y,2/3+z
14 1/3-y,2/3+x-y,2/3+z
15 1/3-x+y,2/3-x,2/3+z
16 1/3+y,2/3+x,1/6-z
17 1/3+x-y,2/3-y,1/6-z
18 1/3-x,2/3-x+y,1/6-z
19 -x,-y,-z
20 y,-x+y,-z
21 x-y,x,-z
22 -y,-x,1/2+z
23 -x+y,y,1/2+z
24 x,x-y,1/2+z
25 1/3-x,2/3-y,2/3-z
26 1/3+y,2/3-x+y,2/3-z
27 1/3+x-y,2/3+x,2/3-z
28 1/3-y,2/3-x,1/6+z
29 1/3-x+y,2/3+y,1/6+z
30 1/3+x,2/3+x-y,1/6+z
31 2/3-x,1/3-y,1/3-z
32 2/3+y,1/3-x+y,1/3-z
33 2/3+x-y,1/3+x,1/3-z
34 2/3-y,1/3-x,5/6+z
35 2/3-x+y,1/3+y,5/6+z
36 2/3+x,1/3+x-y,5/6+z
_cell_length_a                   26.0607(3)
_cell_length_b                   26.0607(3)
_cell_length_c                   98.7782(14)
_cell_angle_alpha                90
_cell_angle_beta                 90
_cell_angle_gamma                120
_cell_volume                     58098.4
_exptl_crystal_colour            'light purple'
_exptl_crystal_description       block
_cell_formula_units_Z            6
loop_
_atom_site_label
_atom_site_type_symbol
_atom_site_fract_x
_atom_site_fract_y
_atom_site_fract_z
Ni1 Ni 0.82539(3) 0.23126(3) 0.026409(7)
Ni2 Ni 1.0000 0.0000 0.071277(10)
N1 N 0.86326(19) 0.30972(18) 0.01511(4)
C1 C 0.8378(2) 0.3228(2) 0.00485(6)
H1 H 0.7975 0.2957 0.0028
C2 C 0.8675(2) 0.3736(2) -0.00286(5)
H2 H 0.8485 0.3812 -0.0102
C3 C 0.9266(3) 0.4135(2) 0.00046(5)
H3 H 0.9483 0.4492 -0.0045
C4 C 0.9530(2) 0.4007(2) 0.01092(5)
H4 H 0.9934 0.4270 0.0131
C5 C 0.9202(2) 0.3492(2) 0.01829(5)
N2 N 0.94043(19) 0.28043(18) 0.04669(4)
N3 N 0.90967(18) 0.28105(17) 0.03595(4)
C6 C 0.9443(2) 0.3334(2) 0.02993(5)
C7 C 0.9970(2) 0.3659(2) 0.03689(5)
H5 H 1.0284 0.4045 0.0348
C8 C 0.9944(2) 0.3312(2) 0.04732(5)
H6 H 1.0245 0.3404 0.0539
C9 C 0.9173(2) 0.2324(2) 0.05646(5)
H7 H 0.8751 0.2195 0.0582
H8 H 0.9389 0.2476 0.0651
N4 N 0.89513(18) -0.02786(18) 0.04958(4)
N5 N 0.91829(17) -0.03605(17) 0.06095(4)
C10 C 0.8743(2) -0.0833(2) 0.06695(5)
C11 C 0.8221(2) -0.1055(2) 0.05957(5)
H9 H 0.7844 -0.1384 0.0618
C12 C 0.8370(2) -0.0696(2) 0.04848(6)
H10 H 0.8113 -0.0732 0.0413
C13 C 0.9281(2) 0.0226(2) 0.04074(5)
H11 H 0.9119 0.0119 0.0314
H12 H 0.9700 0.0323 0.0404
C14 C 0.9217(2) 0.1791(2) 0.05224(5)
C15 C 0.8939(2) 0.1282(2) 0.06023(5)
H13 H 0.8731 0.1280 0.0681
C16 C 0.8963(2) 0.0779(2) 0.05671(5)
H14 H 0.8774 0.0436 0.0623
C17 C 0.9258(2) 0.0774(2) 0.04528(5)
C18 C 0.9543(2) 0.1275(2) 0.03729(5)
H15 H 0.9754 0.1273 0.0295
C19 C 0.9522(2) 0.1785(2) 0.04071(5)
H16 H 0.9715 0.2127 0.0352
N6 N 0.79270(19) 0.15109(19) 0.03731(5)
C20 C 0.7618(3) 0.1369(3) 0.04861(7)
H17 H 0.7551 0.1655 0.0530
C21 C 0.7383(3) 0.0796(3) 0.05446(8)
H18 H 0.7165 0.0702 0.0627
C22 C 0.7472(3) 0.0395(3) 0.04830(9)
H19 H 0.7311 0.0009 0.0521
C23 C 0.7803(3) 0.0533(3) 0.03622(8)
H20 H 0.7875 0.0253 0.0317
C24 C 0.8022(2) 0.1110(2) 0.03125(6)
N7 N 0.8786(2) 0.1871(2) 0.00195(5)
N8 N 0.85156(18) 0.18299(19) 0.01373(4)
C25 C 0.8366(2) 0.1299(2) 0.01876(6)
C26 C 0.8567(4) 0.1015(3) 0.00982(8)
H21 H 0.8530 0.0636 0.0110
C27 C 0.8812(3) 0.1374(4) -0.00033(7)
H22 H 0.8981 0.1298 -0.0081
C28 C 0.9031(3) 0.2388(3) -0.00688(6)
H23 H 0.8791 0.2584 -0.0059
H24 H 0.8995 0.2253 -0.0164
C29 C 0.9668(3) 0.2835(3) -0.00410(5)
C30 C 0.9952(3) 0.3316(3) -0.01270(6)
H25 H 0.9745 0.3351 -0.0202
C31 C 0.9974(3) 0.2798(3) 0.00699(6)
H26 H 0.9785 0.2474 0.0131
N9 N 0.7880(2) 0.2647(2) 0.03995(5)
C32 C 0.8126(3) 0.2951(3) 0.05122(6)
H27 H 0.8520 0.3049 0.0533
C33 C 0.7833(4) 0.3131(3) 0.06006(8)
H28 H 0.8024 0.3350 0.0680
C34 C 0.7272(5) 0.2986(4) 0.05711(10)
H29 H 0.7059 0.3095 0.0631
C35 C 0.7004(4) 0.2679(4) 0.04540(9)
H30 H 0.6612 0.2586 0.0432
C36 C 0.7318(3) 0.2509(3) 0.03693(7)
N10 N 0.70926(19) 0.1745(2) 0.00611(5)
N11 N 0.74060(19) 0.20101(19) 0.01763(5)
C37 C 0.7082(3) 0.2181(3) 0.02428(7)
C38 C 0.6542(3) 0.2007(3) 0.01780(10)
H31 H 0.6225 0.2059 0.0208
C39 C 0.6574(3) 0.1749(3) 0.00633(9)
H32 H 0.6280 0.1594 -0.0006
C40 C 0.7292(3) 0.1472(3) -0.00392(6)
H33 H 0.7728 0.1714 -0.0048
H34 H 0.7118 0.1474 -0.0128
C41 C 0.7128(2) 0.0841(2) -0.00051(5)
C42 C 1.0538(2) 0.3747(3) -0.01037(6)
H35 H 1.0730 0.4070 -0.0165
C43 C 1.0559(3) 0.3236(3) 0.00913(6)
H36 H 1.0768 0.3207 0.0167
N12 N 0.97953(17) 0.05423(18) 0.08318(4)
C44 C 0.8875(2) -0.1043(2) 0.07945(5)
C45 C 0.8443(2) -0.1504(2) 0.08700(5)
H37 H 0.8041 -0.1703 0.0841
C46 C 0.8600(3) -0.1674(2) 0.09873(6)
H38 H 0.8310 -0.1987 0.1041
C47 C 0.9200(3) -0.1375(2) 0.10262(6)
H39 H 0.9323 -0.1481 0.1107
C48 C 0.9471(2) 0.0394(2) 0.09447(5)
H40 H 0.9261 -0.0011 0.0970
Ni1T Ni 0.59413(4) -0.17461(3) -0.026409(7)
Ni1A Ni 0.76874(3) -0.40587(4) 0.026409(7)
Ni1R Ni 1.17461(3) -0.23126(3) -0.026409(7)
Ni1B Ni 1.40587(4) 0.17461(3) 0.026409(7)
Ni1S Ni 1.23126(3) 0.40587(4) -0.026409(7)
Ni2R Ni 1.0000 0.0000 -0.071277(10)
N1T N 0.55354(26) -0.13674(19) -0.01511(4)
N1A N 0.69028(18) -0.44646(26) 0.01511(4)
N1R N 1.13674(19) -0.30972(18) -0.01511(4)
N1B N 1.44646(26) 0.13674(19) 0.01511(4)
N1S N 1.30972(18) 0.44646(26) -0.01511(4)
C1T C 0.5150(3) -0.1622(2) -0.00485(6)
C1A C 0.6772(2) -0.4850(3) 0.00485(6)
C1R C 1.1622(2) -0.3228(2) -0.00485(6)
C1B C 1.4850(3) 0.1622(2) 0.00485(6)
C1S C 1.3228(2) 0.4850(3) -0.00485(6)
H1T H 0.5018 -0.2025 -0.0028
H1A H 0.7043 -0.4982 0.0028
H1R H 1.2025 -0.2957 -0.0028
H1B H 1.4982 0.2025 0.0028
H1S H 1.2957 0.4982 -0.0028
C2T C 0.4939(3) -0.1325(2) 0.00286(5)
C2A C 0.6264(2) -0.5061(3) -0.00286(5)
C2R C 1.1325(2) -0.3736(2) 0.00286(5)
C2B C 1.5061(3) 0.1325(2) -0.00286(5)
C2S C 1.3736(2) 0.5061(3) 0.00286(5)
H2T H 0.4673 -0.1515 0.0102
H2A H 0.6188 -0.5327 -0.0102
H2R H 1.1515 -0.3812 0.0102
H2B H 1.5327 0.1515 -0.0102
H2S H 1.3812 0.5327 0.0102
C3T C 0.5131(4) -0.0734(3) -0.00046(5)
C3A C 0.5865(2) -0.4869(4) 0.00046(5)
C3R C 1.0734(3) -0.4135(2) -0.00046(5)
C3B C 1.4869(4) 0.0734(3) 0.00046(5)
C3S C 1.4135(2) 0.4869(4) -0.00046(5)
H3T H 0.4991 -0.0517 0.0045
H3A H 0.5508 -0.5009 -0.0045
H3R H 1.0517 -0.4492 0.0045
H3B H 1.5009 0.0517 -0.0045
H3S H 1.4492 0.5009 0.0045
C4T C 0.5523(3) -0.0470(2) -0.01092(5)
C4A C 0.5993(2) -0.4477(3) 0.01092(5)
C4R C 1.0470(2) -0.4007(2) -0.01092(5)
C4B C 1.4477(3) 0.0470(2) 0.01092(5)
C4S C 1.4007(2) 0.4477(3) -0.01092(5)
H4T H 0.5664 -0.0066 -0.0131
H4A H 0.5730 -0.4336 0.0131
H4R H 1.0066 -0.4270 -0.0131
H4B H 1.4336 0.0066 0.0131
H4S H 1.4270 0.4336 -0.0131
C5T C 0.5710(3) -0.0798(2) -0.01829(5)
C5A C 0.6508(2) -0.4290(3) 0.01829(5)
C5R C 1.0798(2) -0.3492(2) -0.01829(5)
C5B C 1.4290(3) 0.0798(2) 0.01829(5)
C5S C 1.3492(2) 0.4290(3) -0.01829(5)
N2S N 1.28043(18) 0.34000(26) -0.04669(4)
N2R N 1.05957(19) -0.28043(18) -0.04669(4)
N2T N 0.66000(26) -0.05957(19) -0.04669(4)
N2B N 1.34000(26) 0.05957(19) 0.04669(4)
N2A N 0.71957(18) -0.34000(26) 0.04669(4)
N3T N 0.62862(25) -0.09033(18) -0.03595(4)
N3A N 0.71895(17) -0.37138(25) 0.03595(4)
N3R N 1.09033(18) -0.28105(17) -0.03595(4)
N3B N 1.37138(25) 0.09033(18) 0.03595(4)
N3S N 1.28105(17) 0.37138(25) -0.03595(4)
C6T C 0.6109(3) -0.0557(2) -0.02993(5)
C6A C 0.6666(2) -0.3891(3) 0.02993(5)
C6R C 1.0557(2) -0.3334(2) -0.02993(5)
C6B C 1.3891(3) 0.0557(2) 0.02993(5)
C6S C 1.3334(2) 0.3891(3) -0.02993(5)
C7S C 1.3659(2) 0.3689(3) -0.03689(5)
C7R C 1.0030(2) -0.3659(2) -0.03689(5)
C7T C 0.6311(3) -0.0030(2) -0.03689(5)
C7B C 1.3689(3) 0.0030(2) 0.03689(5)
C7A C 0.6341(2) -0.3689(3) 0.03689(5)
H5S H 1.4045 0.3761 -0.0348
H5R H 0.9716 -0.4045 -0.0348
H5T H 0.6239 0.0284 -0.0348
H5B H 1.3761 -0.0284 0.0348
H5A H 0.5955 -0.3761 0.0348
C8S C 1.3312(2) 0.3368(3) -0.04732(5)
C8R C 1.0056(2) -0.3312(2) -0.04732(5)
C8T C 0.6632(3) -0.0056(2) -0.04732(5)
C8B C 1.3368(3) 0.0056(2) 0.04732(5)
C8A C 0.6688(2) -0.3368(3) 0.04732(5)
H6S H 1.3404 0.3159 -0.0539
H6R H 0.9755 -0.3404 -0.0539
H6T H 0.6841 0.0245 -0.0539
H6B H 1.3159 -0.0245 0.0539
H6A H 0.6596 -0.3159 0.0539
C9S C 1.2324(2) 0.3151(3) -0.05646(5)
C9R C 1.0827(2) -0.2324(2) -0.05646(5)
C9T C 0.6849(3) -0.0827(2) -0.05646(5)
C9B C 1.3151(3) 0.0827(2) 0.05646(5)
C9A C 0.7676(2) -0.3151(3) 0.05646(5)
H7S H 1.2195 0.3444 -0.0582
H7R H 1.1249 -0.2195 -0.0582
H7T H 0.6556 -0.1249 -0.0582
H7B H 1.3444 0.1249 0.0582
H7A H 0.7805 -0.3444 0.0582
H8S H 1.2476 0.3087 -0.0651
H8R H 1.0611 -0.2476 -0.0651
H8T H 0.6913 -0.0611 -0.0651
H8B H 1.3087 0.0611 0.0651
H8A H 0.7524 -0.3087 0.0651
N4S N 0.97214(18) 0.07701(25) -0.04958(4)
N4T N 0.92299(25) -0.10487(18) -0.04958(4)
N4R N 1.10487(18) 0.02786(18) -0.04958(4)
N4B N 1.07701(25) 0.10487(18) 0.04958(4)
N4A N 1.02786(18) -0.07701(25) 0.04958(4)
N5S N 0.96395(17) 0.04566(24) -0.06095(4)
N5T N 0.95434(24) -0.08171(17) -0.06095(4)
N5R N 1.08171(17) 0.03605(17) -0.06095(4)
N5B N 1.04566(24) 0.08171(17) 0.06095(4)
N5A N 1.03605(17) -0.04566(24) 0.06095(4)
C10T C 0.9576(3) -0.1257(2) -0.06695(5)
C10R C 1.1257(2) 0.0833(2) -0.06695(5)
C10S C 0.9167(2) 0.0424(3) -0.06695(5)
C10A C 1.0833(2) -0.0424(3) 0.06695(5)
C10B C 1.0424(3) 0.1257(2) 0.06695(5)
C11T C 0.9276(3) -0.1779(2) -0.05957(5)
C11R C 1.1779(2) 0.1055(2) -0.05957(5)
C11S C 0.8945(2) 0.0724(3) -0.05957(5)
C11A C 1.1055(2) -0.0724(3) 0.05957(5)
C11B C 1.0724(3) 0.1779(2) 0.05957(5)
H9S H 0.8616 0.0772 -0.0618
H9R H 1.2156 0.1384 -0.0618
H9T H 0.9228 -0.2156 -0.0618
H9B H 1.0772 0.2156 0.0618
H9A H 1.1384 -0.0772 0.0618
C12T C 0.9066(3) -0.1630(2) -0.04848(6)
C12R C 1.1630(2) 0.0696(2) -0.04848(6)
C12S C 0.9304(2) 0.0934(3) -0.04848(6)
C12A C 1.0696(2) -0.0934(3) 0.04848(6)
C12B C 1.0934(3) 0.1630(2) 0.04848(6)
H10S H 0.9268 0.1155 -0.0413
H10R H 1.1887 0.0732 -0.0413
H10T H 0.8845 -0.1887 -0.0413
H10B H 1.1155 0.1887 0.0413
H10A H 1.0732 -0.1155 0.0413
C13S C 1.0226(2) 0.0945(3) -0.04074(5)
C13R C 1.0719(2) -0.0226(2) -0.04074(5)
C13T C 0.9055(3) -0.0719(2) -0.04074(5)
C13B C 1.0945(3) 0.0719(2) 0.04074(5)
C13A C 0.9774(2) -0.0945(3) 0.04074(5)
H11R H 1.0881 -0.0119 -0.0314
H11T H 0.9000 -0.0881 -0.0314
H11S H 1.0119 0.1000 -0.0314
H11A H 0.9881 -0.1000 0.0314
H11B H 1.1000 0.0881 0.0314
H12R H 1.0300 -0.0323 -0.0404
H12T H 0.9377 -0.0300 -0.0404
H12S H 1.0323 0.0623 -0.0404
H12A H 0.9677 -0.0623 0.0404
H12B H 1.0623 0.0300 0.0404
C14S C 1.1791(2) 0.2574(3) -0.05224(5)
C14R C 1.0783(2) -0.1791(2) -0.05224(5)
C14T C 0.7426(3) -0.0783(2) -0.05224(5)
C14B C 1.2574(3) 0.0783(2) 0.05224(5)
C14A C 0.8209(2) -0.2574(3) 0.05224(5)
C15S C 1.1282(2) 0.2343(3) -0.06023(5)
C15R C 1.1061(2) -0.1282(2) -0.06023(5)
C15T C 0.7657(3) -0.1061(2) -0.06023(5)
C15B C 1.2343(3) 0.1061(2) 0.06023(5)
C15A C 0.8718(2) -0.2343(3) 0.06023(5)
H13S H 1.1280 0.2549 -0.0681
H13R H 1.1269 -0.1280 -0.0681
H13T H 0.7451 -0.1269 -0.0681
H13B H 1.2549 0.1269 0.0681
H13A H 0.8720 -0.2549 0.0681
C16S C 1.0779(2) 0.1816(3) -0.05671(5)
C16R C 1.1037(2) -0.0779(2) -0.05671(5)
C16T C 0.8184(3) -0.1037(2) -0.05671(5)
C16B C 1.1816(3) 0.1037(2) 0.05671(5)
C16A C 0.9221(2) -0.1816(3) 0.05671(5)
H14S H 1.0436 0.1662 -0.0623
H14R H 1.1226 -0.0436 -0.0623
H14T H 0.8338 -0.1226 -0.0623
H14B H 1.1662 0.1226 0.0623
H14A H 0.9564 -0.1662 0.0623
C17S C 1.0774(2) 0.1516(3) -0.04528(5)
C17R C 1.0742(2) -0.0774(2) -0.04528(5)
C17T C 0.8484(3) -0.0742(2) -0.04528(5)
C17B C 1.1516(3) 0.0742(2) 0.04528(5)
C17A C 0.9226(2) -0.1516(3) 0.04528(5)
C18R C 1.0457(2) -0.1275(2) -0.03729(5)
C18T C 0.8268(3) -0.0457(2) -0.03729(5)
C18S C 1.1275(2) 0.1732(3) -0.03729(5)
C18A C 0.8725(2) -0.1732(3) 0.03729(5)
C18B C 1.1732(3) 0.0457(2) 0.03729(5)
H15R H 1.0246 -0.1273 -0.0295
H15T H 0.8481 -0.0246 -0.0295
H15S H 1.1273 0.1519 -0.0295
H15A H 0.8727 -0.1519 0.0295
H15B H 1.1519 0.0246 0.0295
C19R C 1.0478(2) -0.1785(2) -0.04071(5)
C19T C 0.7737(3) -0.0478(2) -0.04071(5)
C19S C 1.1785(2) 0.2263(3) -0.04071(5)
C19A C 0.8215(2) -0.2263(3) 0.04071(5)
C19B C 1.2263(3) 0.0478(2) 0.04071(5)
H16R H 1.0285 -0.2127 -0.0352
H16T H 0.7588 -0.0285 -0.0352
H16S H 1.2127 0.2412 -0.0352
H16A H 0.7873 -0.2412 0.0352
H16B H 1.2412 0.0285 0.0352
N6T N 0.64161(27) -0.20730(19) -0.03731(5)
N6A N 0.84891(19) -0.35839(27) 0.03731(5)
N6R N 1.20730(19) -0.15109(19) -0.03731(5)
N6B N 1.35839(27) 0.20730(19) 0.03731(5)
N6S N 1.15109(19) 0.35839(27) -0.03731(5)
C20T C 0.6249(4) -0.2382(3) -0.04861(7)
C20A C 0.8631(3) -0.3751(4) 0.04861(7)
C20R C 1.2382(3) -0.1369(3) -0.04861(7)
C20B C 1.3751(4) 0.2382(3) 0.04861(7)
C20S C 1.1369(3) 0.3751(4) -0.04861(7)
H17T H 0.5896 -0.2449 -0.0530
H17A H 0.8345 -0.4104 0.0530
H17R H 1.2449 -0.1655 -0.0530
H17B H 1.4104 0.2449 0.0530
H17S H 1.1655 0.4104 -0.0530
C21T C 0.6587(4) -0.2617(3) -0.05446(8)
C21A C 0.9204(3) -0.3413(4) 0.05446(8)
C21R C 1.2617(3) -0.0796(3) -0.05446(8)
C21B C 1.3413(4) 0.2617(3) 0.05446(8)
C21S C 1.0796(3) 0.3413(4) -0.05446(8)
H18T H 0.6463 -0.2835 -0.0627
H18A H 0.9298 -0.3537 0.0627
H18R H 1.2835 -0.0702 -0.0627
H18B H 1.3537 0.2835 0.0627
H18S H 1.0702 0.3537 -0.0627
C22T C 0.7077(4) -0.2528(3) -0.04830(9)
C22A C 0.9605(3) -0.2923(4) 0.04830(9)
C22R C 1.2528(3) -0.0395(3) -0.04830(9)
C22B C 1.2923(4) 0.2528(3) 0.04830(9)
C22S C 1.0395(3) 0.2923(4) -0.04830(9)
H19T H 0.7302 -0.2689 -0.0521
H19A H 0.9991 -0.2698 0.0521
H19R H 1.2689 -0.0009 -0.0521
H19B H 1.2698 0.2689 0.0521
H19S H 1.0009 0.2698 -0.0521
C23T C 0.7270(4) -0.2197(3) -0.03622(8)
C23A C 0.9467(3) -0.2730(4) 0.03622(8)
C23R C 1.2197(3) -0.0533(3) -0.03622(8)
C23B C 1.2730(4) 0.2197(3) 0.03622(8)
C23S C 1.0533(3) 0.2730(4) -0.03622(8)
H20T H 0.7622 -0.2125 -0.0317
H20A H 0.9747 -0.2378 0.0317
H20R H 1.2125 -0.0253 -0.0317
H20B H 1.2378 0.2125 0.0317
H20S H 1.0253 0.2378 -0.0317
C24T C 0.6912(3) -0.1978(2) -0.03125(6)
C24A C 0.8890(2) -0.3088(3) 0.03125(6)
C24R C 1.1978(2) -0.1110(2) -0.03125(6)
C24B C 1.3088(3) 0.1978(2) 0.03125(6)
C24S C 1.1110(2) 0.3088(3) -0.03125(6)
N7T N 0.6915(3) -0.1214(2) -0.00195(5)
N7A N 0.8129(2) -0.3085(3) 0.00195(5)
N7R N 1.1214(2) -0.1871(2) -0.00195(5)
N7B N 1.3085(3) 0.1214(2) 0.00195(5)
N7S N 1.1871(2) 0.3085(3) -0.00195(5)
N8T N 0.66857(26) -0.14844(18) -0.01373(4)
N8A N 0.81701(19) -0.33143(26) 0.01373(4)
N8R N 1.14844(18) -0.18299(19) -0.01373(4)
N8B N 1.33143(26) 0.14844(18) 0.01373(4)
N8S N 1.18299(19) 0.33143(26) -0.01373(4)
C25T C 0.7067(3) -0.1634(2) -0.01876(6)
C25A C 0.8701(2) -0.2933(3) 0.01876(6)
C25R C 1.1634(2) -0.1299(2) -0.01876(6)
C25B C 1.2933(3) 0.1634(2) 0.01876(6)
C25S C 1.1299(2) 0.2933(3) -0.01876(6)
C26T C 0.7552(5) -0.1433(4) -0.00982(8)
C26A C 0.8985(3) -0.2448(5) 0.00982(8)
C26R C 1.1433(4) -0.1015(3) -0.00982(8)
C26B C 1.2448(5) 0.1433(4) 0.00982(8)
C26S C 1.1015(3) 0.2448(5) -0.00982(8)
H21T H 0.7894 -0.1470 -0.0110
H21A H 0.9364 -0.2106 0.0110
H21R H 1.1470 -0.0636 -0.0110
H21B H 1.2106 0.1470 0.0110
H21S H 1.0636 0.2106 -0.0110
C27T C 0.7438(5) -0.1188(3) 0.00033(7)
C27A C 0.8626(4) -0.2562(5) -0.00033(7)
C27R C 1.1188(3) -0.1374(4) 0.00033(7)
C27B C 1.2562(5) 0.1188(3) -0.00033(7)
C27S C 1.1374(4) 0.2562(5) 0.00033(7)
H22T H 0.7683 -0.1019 0.0081
H22A H 0.8702 -0.2317 -0.0081
H22R H 1.1019 -0.1298 0.0081
H22B H 1.2317 0.1019 -0.0081
H22S H 1.1298 0.2317 0.0081
C28T C 0.6643(4) -0.0969(3) 0.00688(6)
C28A C 0.7612(3) -0.3357(4) -0.00688(6)
C28R C 1.0969(3) -0.2388(3) 0.00688(6)
C28B C 1.3357(4) 0.0969(3) -0.00688(6)
C28S C 1.2388(3) 0.3357(4) 0.00688(6)
H23S H 1.2584 0.3793 0.0059
H23B H 1.3793 0.1209 -0.0059
H23R H 1.1209 -0.2584 0.0059
H23A H 0.7416 -0.3793 -0.0059
H23T H 0.6207 -0.1209 0.0059
H24S H 1.2253 0.3258 0.0164
H24B H 1.3258 0.1005 -0.0164
H24R H 1.1005 -0.2253 0.0164
H24A H 0.7747 -0.3258 -0.0164
H24T H 0.6742 -0.1005 0.0164
C29T C 0.6833(4) -0.0332(3) 0.00410(5)
C29A C 0.7165(3) -0.3167(4) -0.00410(5)
C29R C 1.0332(3) -0.2835(3) 0.00410(5)
C29B C 1.3167(4) 0.0332(3) -0.00410(5)
C29S C 1.2835(3) 0.3167(4) 0.00410(5)
C30T C 0.6636(4) -0.0048(3) 0.01270(6)
C30A C 0.6684(3) -0.3364(4) -0.01270(6)
C30R C 1.0048(3) -0.3316(3) 0.01270(6)
C30B C 1.3364(4) 0.0048(3) -0.01270(6)
C30S C 1.3316(3) 0.3364(4) 0.01270(6)
H25S H 1.3351 0.3606 0.0202
H25B H 1.3606 0.0255 -0.0202
H25R H 1.0255 -0.3351 0.0202
H25A H 0.6649 -0.3606 -0.0202
H25T H 0.6394 -0.0255 0.0202
C31S C 1.2798(3) 0.2824(4) -0.00699(6)
C31B C 1.2824(4) 0.0026(3) 0.00699(6)
C31R C 1.0026(3) -0.2798(3) -0.00699(6)
C31A C 0.7202(3) -0.2824(4) 0.00699(6)
C31T C 0.7176(4) -0.0026(3) -0.00699(6)
H26S H 1.2474 0.2689 -0.0131
H26B H 1.2689 0.0215 0.0131
H26R H 1.0215 -0.2474 -0.0131
H26A H 0.7526 -0.2689 0.0131
H26T H 0.7311 -0.0215 -0.0131
N9T N 0.5233(3) -0.2120(2) -0.03995(5)
N9A N 0.7353(2) -0.4767(3) 0.03995(5)
N9R N 1.2120(2) -0.2647(2) -0.03995(5)
N9B N 1.4767(3) 0.2120(2) 0.03995(5)
N9S N 1.2647(2) 0.4767(3) -0.03995(5)
C32T C 0.5175(4) -0.1874(3) -0.05122(6)
C32A C 0.7049(3) -0.4825(4) 0.05122(6)
C32R C 1.1874(3) -0.2951(3) -0.05122(6)
C32B C 1.4825(4) 0.1874(3) 0.05122(6)
C32S C 1.2951(3) 0.4825(4) -0.05122(6)
H27T H 0.5471 -0.1480 -0.0533
H27A H 0.6951 -0.4529 0.0533
H27R H 1.1480 -0.3049 -0.0533
H27B H 1.4529 0.1480 0.0533
H27S H 1.3049 0.4529 -0.0533
C33T C 0.4702(5) -0.2167(4) -0.06006(8)
C33A C 0.6869(3) -0.5298(5) 0.06006(8)
C33R C 1.2167(4) -0.3131(3) -0.06006(8)
C33B C 1.5298(5) 0.2167(4) 0.06006(8)
C33S C 1.3131(3) 0.5298(5) -0.06006(8)
H28T H 0.4674 -0.1976 -0.0680
H28A H 0.6650 -0.5326 0.0680
H28R H 1.1976 -0.3350 -0.0680
H28B H 1.5326 0.1976 0.0680
H28S H 1.3350 0.5326 -0.0680
C34T C 0.4286(6) -0.2728(5) -0.05711(10)
C34A C 0.7014(4) -0.5714(6) 0.05711(10)
C34R C 1.2728(5) -0.2986(4) -0.05711(10)
C34B C 1.5714(6) 0.2728(5) 0.05711(10)
C34S C 1.2986(4) 0.5714(6) -0.05711(10)
H29T H 0.3964 -0.2941 -0.0631
H29A H 0.6905 -0.6036 0.0631
H29R H 1.2941 -0.3095 -0.0631
H29B H 1.6036 0.2941 0.0631
H29S H 1.3095 0.6036 -0.0631
C35T C 0.4325(6) -0.2996(4) -0.04540(9)
C35A C 0.7321(4) -0.5675(6) 0.04540(9)
C35R C 1.2996(4) -0.2679(4) -0.04540(9)
C35B C 1.5675(6) 0.2996(4) 0.04540(9)
C35S C 1.2679(4) 0.5675(6) -0.04540(9)
H30T H 0.4026 -0.3388 -0.0432
H30A H 0.7414 -0.5974 0.0432
H30R H 1.3388 -0.2586 -0.0432
H30B H 1.5974 0.3388 0.0432
H30S H 1.2586 0.5974 -0.0432
C36T C 0.4809(4) -0.2682(3) -0.03693(7)
C36A C 0.7491(3) -0.5191(4) 0.03693(7)
C36R C 1.2682(3) -0.2509(3) -0.03693(7)
C36B C 1.5191(4) 0.2682(3) 0.03693(7)
C36S C 1.2509(3) 0.5191(4) -0.03693(7)
N10T N 0.53476(28) -0.29074(19) -0.00611(5)
N10A N 0.8255(2) -0.46524(28) 0.00611(5)
N10R N 1.29074(19) -0.1745(2) -0.00611(5)
N10B N 1.46524(28) 0.29074(19) 0.00611(5)
N10S N 1.1745(2) 0.46524(28) -0.00611(5)
N11T N 0.53959(27) -0.25940(19) -0.01763(5)
N11A N 0.79899(19) -0.46041(27) 0.01763(5)
N11R N 1.25940(19) -0.20101(19) -0.01763(5)
N11B N 1.46041(27) 0.25940(19) 0.01763(5)
N11S N 1.20101(19) 0.46041(27) -0.01763(5)
C37T C 0.4901(4) -0.2918(3) -0.02428(7)
C37A C 0.7819(3) -0.5099(4) 0.02428(7)
C37R C 1.2918(3) -0.2181(3) -0.02428(7)
C37B C 1.5099(4) 0.2918(3) 0.02428(7)
C37S C 1.2181(3) 0.5099(4) -0.02428(7)
C38T C 0.4535(4) -0.3458(3) -0.01780(10)
C38A C 0.7993(3) -0.5465(4) 0.01780(10)
C38R C 1.3458(3) -0.2007(3) -0.01780(10)
C38B C 1.5465(4) 0.3458(3) 0.01780(10)
C38S C 1.2007(3) 0.5465(4) -0.01780(10)
H31T H 0.4166 -0.3775 -0.0208
H31A H 0.7941 -0.5834 0.0208
H31R H 1.3775 -0.2059 -0.0208
H31B H 1.5834 0.3775 0.0208
H31S H 1.2059 0.5834 -0.0208
C39T C 0.4825(4) -0.3426(3) -0.00633(9)
C39A C 0.8251(3) -0.5175(4) 0.00633(9)
C39R C 1.3426(3) -0.1749(3) -0.00633(9)
C39B C 1.5175(4) 0.3426(3) 0.00633(9)
C39S C 1.1749(3) 0.5175(4) -0.00633(9)
H32T H 0.4686 -0.3720 0.0006
H32A H 0.8406 -0.5314 -0.0006
H32R H 1.3720 -0.1594 0.0006
H32B H 1.5314 0.3720 -0.0006
H32S H 1.1594 0.5314 0.0006
C40T C 0.5820(4) -0.2708(3) 0.00392(6)
C40A C 0.8528(3) -0.4180(4) -0.00392(6)
C40R C 1.2708(3) -0.1472(3) 0.00392(6)
C40B C 1.4180(4) 0.2708(3) -0.00392(6)
C40S C 1.1472(3) 0.4180(4) 0.00392(6)
H33T H 0.6014 -0.2272 0.0048
H33A H 0.8286 -0.3986 -0.0048
H33R H 1.2272 -0.1714 0.0048
H33B H 1.3986 0.2272 -0.0048
H33S H 1.1714 0.3986 0.0048
H34T H 0.5644 -0.2882 0.0128
H34A H 0.8526 -0.4356 -0.0128
H34R H 1.2882 -0.1474 0.0128
H34B H 1.4356 0.2882 -0.0128
H34S H 1.1474 0.4356 0.0128
C41T C 0.6287(3) -0.2872(2) 0.00051(5)
C41A C 0.9159(2) -0.3713(3) -0.00051(5)
C41R C 1.2872(2) -0.0841(2) 0.00051(5)
C41B C 1.3713(3) 0.2872(2) -0.00051(5)
C41S C 1.0841(2) 0.3713(3) 0.00051(5)
C42T C 0.6791(4) 0.0538(2) 0.01037(6)
C42A C 0.6253(3) -0.3209(4) -0.01037(6)
C42R C 0.9462(2) -0.3747(3) 0.01037(6)
C42B C 1.3209(4) -0.0538(2) -0.01037(6)
C42S C 1.3747(3) 0.3209(4) 0.01037(6)
H35S H 1.4070 0.3340 0.0165
H35B H 1.3340 -0.0730 -0.0165
H35R H 0.9270 -0.4070 0.0165
H35A H 0.5930 -0.3340 -0.0165
H35T H 0.6660 0.0730 0.0165
C43S C 1.3236(3) 0.2677(4) -0.00913(6)
C43B C 1.2677(4) -0.0559(3) 0.00913(6)
C43R C 0.9441(3) -0.3236(3) -0.00913(6)
C43A C 0.6764(3) -0.2677(4) 0.00913(6)
C43T C 0.7323(4) 0.0559(3) -0.00913(6)
H36S H 1.3207 0.2439 -0.0167
H36B H 1.2439 -0.0768 0.0167
H36R H 0.9232 -0.3207 -0.0167
H36A H 0.6793 -0.2439 0.0167
H36T H 0.7561 0.0768 -0.0167
N12R N 1.02047(17) -0.05423(18) -0.08318(4)
N12S N 1.05423(18) 0.07470(25) -0.08318(4)
N12T N 0.92530(25) -0.02047(17) -0.08318(4)
N12A N 0.94577(18) -0.07470(25) 0.08318(4)
N12B N 1.07470(25) 0.02047(17) 0.08318(4)
C44T C 0.9918(3) -0.1125(2) -0.07945(5)
C44R C 1.1125(2) 0.1043(2) -0.07945(5)
C44S C 0.8957(2) 0.0082(3) -0.07945(5)
C44A C 1.1043(2) -0.0082(3) 0.07945(5)
C44B C 1.0082(3) 0.1125(2) 0.07945(5)
C45S C 0.8496(2) 0.0053(3) -0.08700(5)
C45R C 1.1557(2) 0.1504(2) -0.08700(5)
C45T C 0.9947(3) -0.1557(2) -0.08700(5)
C45B C 1.0053(3) 0.1557(2) 0.08700(5)
C45A C 1.1504(2) -0.0053(3) 0.08700(5)
H37S H 0.8297 0.0256 -0.0841
H37R H 1.1959 0.1703 -0.0841
H37T H 0.9744 -0.1959 -0.0841
H37B H 1.0256 0.1959 0.0841
H37A H 1.1703 -0.0256 0.0841
C46S C 0.8326(2) -0.0274(4) -0.09873(6)
C46R C 1.1400(3) 0.1674(2) -0.09873(6)
C46T C 1.0274(4) -0.1400(3) -0.09873(6)
C46B C 0.9726(4) 0.1400(3) 0.09873(6)
C46A C 1.1674(2) 0.0274(4) 0.09873(6)
H38S H 0.8013 -0.0297 -0.1041
H38R H 1.1690 0.1987 -0.1041
H38T H 1.0297 -0.1690 -0.1041
H38B H 0.9703 0.1690 0.1041
H38A H 1.1987 0.0297 0.1041
C47S C 0.8625(2) -0.0575(4) -0.10262(6)
C47R C 1.0800(3) 0.1375(2) -0.10262(6)
C47T C 1.0575(4) -0.0800(3) -0.10262(6)
C47B C 0.9425(4) 0.0800(3) 0.10262(6)
C47A C 1.1375(2) 0.0575(4) 0.10262(6)
H39S H 0.8519 -0.0804 -0.1107
H39R H 1.0677 0.1481 -0.1107
H39T H 1.0804 -0.0677 -0.1107
H39B H 0.9196 0.0677 0.1107
H39A H 1.1481 0.0804 0.1107
C48T C 0.9077(3) -0.0529(2) -0.09447(5)
C48S C 1.0394(2) 0.0923(3) -0.09447(5)
C48R C 1.0529(2) -0.0394(2) -0.09447(5)
C48B C 1.0923(3) 0.0529(2) 0.09447(5)
C48A C 0.9606(2) -0.0923(3) 0.09447(5)
H40T H 0.9272 -0.0739 -0.0970
H40S H 0.9989 0.0728 -0.0970
H40R H 1.0739 0.0011 -0.0970
H40B H 1.0728 0.0739 0.0970
H40A H 1.0011 -0.0728 0.0970
B1 B 0.4782(3) 0.6002(3) 0.03170(6)
F1 F 0.42008(16) 0.58729(16) 0.03059(4)
F2 F 0.48403(17) 0.56775(17) 0.04208(4)
F3 F 0.49764(15) 0.58836(16) 0.01967(3)
F4 F 0.51448(14) 0.66112(15) 0.03478(3)
B4 B 0.6667 0.3333 0.00565(17)
F8 F 0.6667 0.3333 0.01915(8)
F9 F 0.7185(3) 0.3343(3) 0.00059(6)
F9A F 0.6657(3) 0.3842(4) 0.00059(6)
F9B F 0.6158(4) 0.2815(3) 0.00059(6)
Si1 Si 0.06653(9) 0.3333 0.0833
F10 F 0.03874(19) 0.28157(18) 0.09552(4)
F11 F 0.0436(2) 0.2823(2) 0.07141(5)
F12 F 0.0017(3) 0.3333 0.0833
F13 F 0.1309(3) 0.3333 0.0833
F10P F 0.09050(26) 0.38510(18) 0.07115(4)
F11P F 0.0946(3) 0.3844(2) 0.09526(5)
C49 C 0.8910(5) 0.2159(5) 0.09493(11)
H41 H 0.8873 0.1823 0.0897
H42 H 0.8829 0.2047 0.1045
H43 H 0.9313 0.2496 0.0940
N13 N 0.8512(7) 0.2315(7) 0.09022(15)
O1 O 0.8184(6) 0.2068(6) 0.08042(14)
O2 O 0.8602(8) 0.2778(9) 0.09718(18)
C50 C 0.2748(4) 0.7124(4) 0.02935(9)
H44 H 0.2661 0.6728 0.0322
H45 H 0.3137 0.7421 0.0329
H46 H 0.2751 0.7144 0.0194
N14 N 0.2314(3) 0.7238(3) 0.03443(7)
O3 O 0.2045(3) 0.7413(3) 0.02704(6)
O4 O 0.2223(3) 0.7171(3) 0.04620(7)
C51 C 0.2080(4) 0.8421(4) 0.04988(10)
H47 H 0.2146 0.8725 0.0566
H48 H 0.2422 0.8573 0.0438
H49 H 0.2028 0.8066 0.0545
N15 N 0.1558(3) 0.8277(3) 0.04219(6)
O5 O 0.1105(4) 0.7870(4) 0.04578(9)
O6 O 0.1572(3) 0.8592(3) 0.03339(7)
B2? B 1.0000 1.0000 0.00711(7)
F5? F 1.0000 1.0000 0.00711(7)
F6? F 1.0000 1.0000 0.00711(7)
B3? B 1.0000 1.0000 0.00711(7)
F7? F 0.9437(5) 1.0003(5) 0.01038(12)
loop_
_geom_bond_atom_site_label_1
_geom_bond_atom_site_label_2
_geom_bond_site_symmetry_1
_geom_bond_site_symmetry_2
Ni1 N1 1_555 1_555
Ni2 N5 1_555 1_555
N1 C1 1_555 1_555
C1 H1 1_555 1_555
C2 C1 1_555 1_555
H2 C2 1_555 1_555
C3 C2 1_555 1_555
H3 C3 1_555 1_555
C4 C3 1_555 1_555
H4 C4 1_555 1_555
C5 N1 1_555 1_555
N2 N3 1_555 1_555
N3 Ni1 1_555 1_555
C6 C5 1_555 1_555
C7 C6 1_555 1_555
H5 C7 1_555 1_555
C8 N2 1_555 1_555
H6 C8 1_555 1_555
C9 N2 1_555 1_555
H7 C9 1_555 1_555
H8 C9 1_555 1_555
N4 N5 1_555 1_555
N5 C10 1_555 1_555
C10 C11 1_555 1_555
C11 H9 1_555 1_555
C12 N4 1_555 1_555
H10 C12 1_555 1_555
C13 N4 1_555 1_555
H11 C13 1_555 1_555
H12 C13 1_555 1_555
C14 C9 1_555 1_555
C15 C14 1_555 1_555
H13 C15 1_555 1_555
C16 C15 1_555 1_555
H14 C16 1_555 1_555
C17 C13 1_555 1_555
C18 C17 1_555 1_555
H15 C18 1_555 1_555
C19 C14 1_555 1_555
H16 C19 1_555 1_555
N6 Ni1 1_555 1_555
C20 N6 1_555 1_555
H17 C20 1_555 1_555
C21 C20 1_555 1_555
H18 C21 1_555 1_555
C22 C21 1_555 1_555
H19 C22 1_555 1_555
C23 C22 1_555 1_555
H20 C23 1_555 1_555
C24 N6 1_555 1_555
N7 N8 1_555 1_555
N8 Ni1 1_555 1_555
C25 C24 1_555 1_555
C26 C25 1_555 1_555
H21 C26 1_555 1_555
C27 N7 1_555 1_555
H22 C27 1_555 1_555
C28 N7 1_555 1_555
H23 C28 1_555 1_555
H24 C28 1_555 1_555
C29 C28 1_555 1_555
C30 C29 1_555 1_555
H25 C30 1_555 1_555
C31 C29 1_555 1_555
H26 C31 1_555 1_555
N9 Ni1 1_555 1_555
C32 N9 1_555 1_555
H27 C32 1_555 1_555
C33 C32 1_555 1_555
H28 C33 1_555 1_555
C34 C33 1_555 1_555
H29 C34 1_555 1_555
C35 C34 1_555 1_555
H30 C35 1_555 1_555
C36 N9 1_555 1_555
N10 N11 1_555 1_555
N11 Ni1 1_555 1_555
C37 C36 1_555 1_555
C38 C37 1_555 1_555
H31 C38 1_555 1_555
C39 N10 1_555 1_555
H32 C39 1_555 1_555
C40 N10 1_555 1_555
H33 C40 1_555 1_555
H34 C40 1_555 1_555
C41 C40 1_555 1_555
C42 C30 1_555 1_555
H35 C42 1_555 1_555
C43 C31 1_555 1_555
H36 C43 1_555 1_555
N12 Ni2 1_555 1_555
C44 C10 1_555 1_555
C45 C44 1_555 1_555
H37 C45 1_555 1_555
C46 C45 1_555 1_555
H38 C46 1_555 1_555
C47 C46 1_555 1_555
H39 C47 1_555 1_555
C48 N12 1_555 1_555
H40 C48 1_555 1_555
B1 F1 1_555 1_555
F2 B1 1_555 1_555
F3 B1 1_555 1_555
F4 B1 1_555 1_555
B4 F8 1_555 1_555
F9 B4 1_555 1_555
Si1 F10 1_555 1_555
F11 Si1 1_555 1_555
F12 Si1 1_555 1_555
F13 Si1 1_555 1_555
C49 H41 1_555 1_555
H42 C49 1_555 1_555
H43 C49 1_555 1_555
N13 C49 1_555 1_555
O1 N13 1_555 1_555
O2 N13 1_555 1_555
C50 H44 1_555 1_555
H45 C50 1_555 1_555
H46 C50 1_555 1_555
N14 C50 1_555 1_555
O3 N14 1_555 1_555
O4 N14 1_555 1_555
C51 H47 1_555 1_555
H48 C51 1_555 1_555
H49 C51 1_555 1_555
N15 C51 1_555 1_555
O5 N15 1_555 1_555
O6 N15 1_555 1_555
Ni1T N1T 1_555 1_555
Ni1A N1A 1_555 1_555
Ni1R N1R 1_555 1_555
Ni1B N1B 1_555 1_555
Ni1S N1S 1_555 1_555
Ni2R N5S 1_555 1_555
N1T C1T 1_555 1_555
N1A C1A 1_555 1_555
N1R C1R 1_555 1_555
N1B C1B 1_555 1_555
N1S C1S 1_555 1_555
C1T H1T 1_555 1_555
C1A H1A 1_555 1_555
C1R H1R 1_555 1_555
C1B H1B 1_555 1_555
C1S H1S 1_555 1_555
C2T C1T 1_555 1_555
C2A C1A 1_555 1_555
C2R C1R 1_555 1_555
C2B C1B 1_555 1_555
C2S C1S 1_555 1_555
H2T C2T 1_555 1_555
H2A C2A 1_555 1_555
H2R C2R 1_555 1_555
H2B C2B 1_555 1_555
H2S C2S 1_555 1_555
C3T C2T 1_555 1_555
C3A C2A 1_555 1_555
C3R C2R 1_555 1_555
C3B C2B 1_555 1_555
C3S C2S 1_555 1_555
H3T C3T 1_555 1_555
H3A C3A 1_555 1_555
H3R C3R 1_555 1_555
H3B C3B 1_555 1_555
H3S C3S 1_555 1_555
C4T C3T 1_555 1_555
C4A C3A 1_555 1_555
C4R C3R 1_555 1_555
C4B C3B 1_555 1_555
C4S C3S 1_555 1_555
H4T C4T 1_555 1_555
H4A C4A 1_555 1_555
H4R C4R 1_555 1_555
H4B C4B 1_555 1_555
H4S C4S 1_555 1_555
C5T N1T 1_555 1_555
C5A N1A 1_555 1_555
C5R N1R 1_555 1_555
C5B N1B 1_555 1_555
C5S N1S 1_555 1_555
N2S N3S 1_555 1_555
N2R N3R 1_555 1_555
N2T N3T 1_555 1_555
N2B N3B 1_555 1_555
N2A N3A 1_555 1_555
N3T Ni1T 1_555 1_555
N3A Ni1A 1_555 1_555
N3R Ni1R 1_555 1_555
N3B Ni1B 1_555 1_555
N3S Ni1S 1_555 1_555
C6T C5T 1_555 1_555
C6A C5A 1_555 1_555
C6R C5R 1_555 1_555
C6B C5B 1_555 1_555
C6S C5S 1_555 1_555
C7S C6S 1_555 1_555
C7R C6R 1_555 1_555
C7T C6T 1_555 1_555
C7B C6B 1_555 1_555
C7A C6A 1_555 1_555
H5S C7S 1_555 1_555
H5R C7R 1_555 1_555
H5T C7T 1_555 1_555
H5B C7B 1_555 1_555
H5A C7A 1_555 1_555
C8S N2S 1_555 1_555
C8R N2R 1_555 1_555
C8T N2T 1_555 1_555
C8B N2B 1_555 1_555
C8A N2A 1_555 1_555
H6S C8S 1_555 1_555
H6R C8R 1_555 1_555
H6T C8T 1_555 1_555
H6B C8B 1_555 1_555
H6A C8A 1_555 1_555
C9S N2S 1_555 1_555
C9R N2R 1_555 1_555
C9T N2T 1_555 1_555
C9B N2B 1_555 1_555
C9A N2A 1_555 1_555
H7S C9S 1_555 1_555
H7R C9R 1_555 1_555
H7T C9T 1_555 1_555
H7B C9B 1_555 1_555
H7A C9A 1_555 1_555
H8S C9S 1_555 1_555
H8R C9R 1_555 1_555
H8T C9T 1_555 1_555
H8B C9B 1_555 1_555
H8A C9A 1_555 1_555
N4S N5S 1_555 1_555
N4T N5T 1_555 1_555
N4R N5R 1_555 1_555
N4B N5B 1_555 1_555
N4A N5A 1_555 1_555
N5S C10S 1_555 1_555
N5T Ni2R 1_555 1_555
N5R Ni2R 1_555 1_555
N5B Ni2 1_555 1_555
N5A Ni2 1_555 1_555
C10T N5T 1_555 1_555
C10R N5R 1_555 1_555
C10S C11S 1_555 1_555
C10A N5A 1_555 1_555
C10B N5B 1_555 1_555
C11T C10T 1_555 1_555
C11R C10R 1_555 1_555
C11S H9S 1_555 1_555
C11A C10A 1_555 1_555
C11B C10B 1_555 1_555
H9R C11R 1_555 1_555
H9T C11T 1_555 1_555
H9B C11B 1_555 1_555
H9A C11A 1_555 1_555
C12T N4T 1_555 1_555
C12R N4R 1_555 1_555
C12S N4S 1_555 1_555
C12A N4A 1_555 1_555
C12B N4B 1_555 1_555
H10S C12S 1_555 1_555
H10R C12R 1_555 1_555
H10T C12T 1_555 1_555
H10B C12B 1_555 1_555
H10A C12A 1_555 1_555
C13S N4S 1_555 1_555
C13R N4R 1_555 1_555
C13T N4T 1_555 1_555
C13B N4B 1_555 1_555
C13A N4A 1_555 1_555
H11R C13R 1_555 1_555
H11T C13T 1_555 1_555
H11S C13S 1_555 1_555
H11A C13A 1_555 1_555
H11B C13B 1_555 1_555
H12R C13R 1_555 1_555
H12T C13T 1_555 1_555
H12S C13S 1_555 1_555
H12A C13A 1_555 1_555
H12B C13B 1_555 1_555
C14S C9S 1_555 1_555
C14R C9R 1_555 1_555
C14T C9T 1_555 1_555
C14B C9B 1_555 1_555
C14A C9A 1_555 1_555
C15S C14S 1_555 1_555
C15R C14R 1_555 1_555
C15T C14T 1_555 1_555
C15B C14B 1_555 1_555
C15A C14A 1_555 1_555
H13S C15S 1_555 1_555
H13R C15R 1_555 1_555
H13T C15T 1_555 1_555
H13B C15B 1_555 1_555
H13A C15A 1_555 1_555
C16S C15S 1_555 1_555
C16R C15R 1_555 1_555
C16T C15T 1_555 1_555
C16B C15B 1_555 1_555
C16A C15A 1_555 1_555
H14S C16S 1_555 1_555
H14R C16R 1_555 1_555
H14T C16T 1_555 1_555
H14B C16B 1_555 1_555
H14A C16A 1_555 1_555
C17S C13S 1_555 1_555
C17R C13R 1_555 1_555
C17T C13T 1_555 1_555
C17B C13B 1_555 1_555
C17A C13A 1_555 1_555
C18R C17R 1_555 1_555
C18T C17T 1_555 1_555
C18S C17S 1_555 1_555
C18A C17A 1_555 1_555
C18B C17B 1_555 1_555
H15R C18R 1_555 1_555
H15T C18T 1_555 1_555
H15S C18S 1_555 1_555
H15A C18A 1_555 1_555
H15B C18B 1_555 1_555
C19R C14R 1_555 1_555
C19T C14T 1_555 1_555
C19S C14S 1_555 1_555
C19A C14A 1_555 1_555
C19B C14B 1_555 1_555
H16R C19R 1_555 1_555
H16T C19T 1_555 1_555
H16S C19S 1_555 1_555
H16A C19A 1_555 1_555
H16B C19B 1_555 1_555
N6T Ni1T 1_555 1_555
N6A Ni1A 1_555 1_555
N6R Ni1R 1_555 1_555
N6B Ni1B 1_555 1_555
N6S Ni1S 1_555 1_555
C20T N6T 1_555 1_555
C20A N6A 1_555 1_555
C20R N6R 1_555 1_555
C20B N6B 1_555 1_555
C20S N6S 1_555 1_555
H17T C20T 1_555 1_555
H17A C20A 1_555 1_555
H17R C20R 1_555 1_555
H17B C20B 1_555 1_555
H17S C20S 1_555 1_555
C21T C20T 1_555 1_555
C21A C20A 1_555 1_555
C21R C20R 1_555 1_555
C21B C20B 1_555 1_555
C21S C20S 1_555 1_555
H18T C21T 1_555 1_555
H18A C21A 1_555 1_555
H18R C21R 1_555 1_555
H18B C21B 1_555 1_555
H18S C21S 1_555 1_555
C22T C21T 1_555 1_555
C22A C21A 1_555 1_555
C22R C21R 1_555 1_555
C22B C21B 1_555 1_555
C22S C21S 1_555 1_555
H19T C22T 1_555 1_555
H19A C22A 1_555 1_555
H19R C22R 1_555 1_555
H19B C22B 1_555 1_555
H19S C22S 1_555 1_555
C23T C22T 1_555 1_555
C23A C22A 1_555 1_555
C23R C22R 1_555 1_555
C23B C22B 1_555 1_555
C23S C22S 1_555 1_555
H20T C23T 1_555 1_555
H20A C23A 1_555 1_555
H20R C23R 1_555 1_555
H20B C23B 1_555 1_555
H20S C23S 1_555 1_555
C24T N6T 1_555 1_555
C24A N6A 1_555 1_555
C24R N6R 1_555 1_555
C24B N6B 1_555 1_555
C24S N6S 1_555 1_555
N7T N8T 1_555 1_555
N7A N8A 1_555 1_555
N7R N8R 1_555 1_555
N7B N8B 1_555 1_555
N7S N8S 1_555 1_555
N8T Ni1T 1_555 1_555
N8A Ni1A 1_555 1_555
N8R Ni1R 1_555 1_555
N8B Ni1B 1_555 1_555
N8S Ni1S 1_555 1_555
C25T C24T 1_555 1_555
C25A C24A 1_555 1_555
C25R C24R 1_555 1_555
C25B C24B 1_555 1_555
C25S C24S 1_555 1_555
C26T C25T 1_555 1_555
C26A C25A 1_555 1_555
C26R C25R 1_555 1_555
C26B C25B 1_555 1_555
C26S C25S 1_555 1_555
H21T C26T 1_555 1_555
H21A C26A 1_555 1_555
H21R C26R 1_555 1_555
H21B C26B 1_555 1_555
H21S C26S 1_555 1_555
C27T N7T 1_555 1_555
C27A N7A 1_555 1_555
C27R N7R 1_555 1_555
C27B N7B 1_555 1_555
C27S N7S 1_555 1_555
H22T C27T 1_555 1_555
H22A C27A 1_555 1_555
H22R C27R 1_555 1_555
H22B C27B 1_555 1_555
H22S C27S 1_555 1_555
C28T N7T 1_555 1_555
C28A N7A 1_555 1_555
C28R N7R 1_555 1_555
C28B N7B 1_555 1_555
C28S N7S 1_555 1_555
H23S C28S 1_555 1_555
H23B C28B 1_555 1_555
H23R C28R 1_555 1_555
H23A C28A 1_555 1_555
H23T C28T 1_555 1_555
H24S C28S 1_555 1_555
H24B C28B 1_555 1_555
H24R C28R 1_555 1_555
H24A C28A 1_555 1_555
H24T C28T 1_555 1_555
C29T C28T 1_555 1_555
C29A C28A 1_555 1_555
C29R C28R 1_555 1_555
C29B C28B 1_555 1_555
C29S C28S 1_555 1_555
C30T C29T 1_555 1_555
C30A C29A 1_555 1_555
C30R C29R 1_555 1_555
C30B C29B 1_555 1_555
C30S C29S 1_555 1_555
H25S C30S 1_555 1_555
H25B C30B 1_555 1_555
H25R C30R 1_555 1_555
H25A C30A 1_555 1_555
H25T C30T 1_555 1_555
C31S C29S 1_555 1_555
C31B C29B 1_555 1_555
C31R C29R 1_555 1_555
C31A C29A 1_555 1_555
C31T C29T 1_555 1_555
H26S C31S 1_555 1_555
H26B C31B 1_555 1_555
H26R C31R 1_555 1_555
H26A C31A 1_555 1_555
H26T C31T 1_555 1_555
N9T Ni1T 1_555 1_555
N9A Ni1A 1_555 1_555
N9R Ni1R 1_555 1_555
N9B Ni1B 1_555 1_555
N9S Ni1S 1_555 1_555
C32T N9T 1_555 1_555
C32A N9A 1_555 1_555
C32R N9R 1_555 1_555
C32B N9B 1_555 1_555
C32S N9S 1_555 1_555
H27T C32T 1_555 1_555
H27A C32A 1_555 1_555
H27R C32R 1_555 1_555
H27B C32B 1_555 1_555
H27S C32S 1_555 1_555
C33T C32T 1_555 1_555
C33A C32A 1_555 1_555
C33R C32R 1_555 1_555
C33B C32B 1_555 1_555
C33S C32S 1_555 1_555
H28T C33T 1_555 1_555
H28A C33A 1_555 1_555
H28R C33R 1_555 1_555
H28B C33B 1_555 1_555
H28S C33S 1_555 1_555
C34T C33T 1_555 1_555
C34A C33A 1_555 1_555
C34R C33R 1_555 1_555
C34B C33B 1_555 1_555
C34S C33S 1_555 1_555
H29T C34T 1_555 1_555
H29A C34A 1_555 1_555
H29R C34R 1_555 1_555
H29B C34B 1_555 1_555
H29S C34S 1_555 1_555
C35T C34T 1_555 1_555
C35A C34A 1_555 1_555
C35R C34R 1_555 1_555
C35B C34B 1_555 1_555
C35S C34S 1_555 1_555
H30T C35T 1_555 1_555
H30A C35A 1_555 1_555
H30R C35R 1_555 1_555
H30B C35B 1_555 1_555
H30S C35S 1_555 1_555
C36T N9T 1_555 1_555
C36A N9A 1_555 1_555
C36R N9R 1_555 1_555
C36B N9B 1_555 1_555
C36S N9S 1_555 1_555
N10T N11T 1_555 1_555
N10A N11A 1_555 1_555
N10R N11R 1_555 1_555
N10B N11B 1_555 1_555
N10S N11S 1_555 1_555
N11T Ni1T 1_555 1_555
N11A Ni1A 1_555 1_555
N11R Ni1R 1_555 1_555
N11B Ni1B 1_555 1_555
N11S Ni1S 1_555 1_555
C37T C36T 1_555 1_555
C37A C36A 1_555 1_555
C37R C36R 1_555 1_555
C37B C36B 1_555 1_555
C37S C36S 1_555 1_555
C38T C37T 1_555 1_555
C38A C37A 1_555 1_555
C38R C37R 1_555 1_555
C38B C37B 1_555 1_555
C38S C37S 1_555 1_555
H31T C38T 1_555 1_555
H31A C38A 1_555 1_555
H31R C38R 1_555 1_555
H31B C38B 1_555 1_555
H31S C38S 1_555 1_555
C39T N10T 1_555 1_555
C39A N10A 1_555 1_555
C39R N10R 1_555 1_555
C39B N10B 1_555 1_555
C39S N10S 1_555 1_555
H32T C39T 1_555 1_555
H32A C39A 1_555 1_555
H32R C39R 1_555 1_555
H32B C39B 1_555 1_555
H32S C39S 1_555 1_555
C40T N10T 1_555 1_555
C40A N10A 1_555 1_555
C40R N10R 1_555 1_555
C40B N10B 1_555 1_555
C40S N10S 1_555 1_555
H33T C40T 1_555 1_555
H33A C40A 1_555 1_555
H33R C40R 1_555 1_555
H33B C40B 1_555 1_555
H33S C40S 1_555 1_555
H34T C40T 1_555 1_555
H34A C40A 1_555 1_555
H34R C40R 1_555 1_555
H34B C40B 1_555 1_555
H34S C40S 1_555 1_555
C41T C40T 1_555 1_555
C41A C40A 1_555 1_555
C41R C40R 1_555 1_555
C41B C40B 1_555 1_555
C41S C42 1_555 1_555
C42T C41 1_555 1_555
C42A C30A 1_555 1_555
C42R C30R 1_555 1_555
C42B C30B 1_555 1_555
C42S C30S 1_555 1_555
H35S C42S 1_555 1_555
H35B C42B 1_555 1_555
H35R C42R 1_555 1_555
H35A C42A 1_555 1_555
H35T C42T 1_555 1_555
C43S C31S 1_555 1_555
C43B C31B 1_555 1_555
C43R C31R 1_555 1_555
C43A C31A 1_555 1_555
C43T C41 1_555 1_555
H36S C43S 1_555 1_555
H36B C43B 1_555 1_555
H36R C43R 1_555 1_555
H36A C43A 1_555 1_555
H36T C43T 1_555 1_555
N12R Ni2R 1_555 1_555
N12S Ni2R 1_555 1_555
N12T Ni2R 1_555 1_555
N12A Ni2 1_555 1_555
N12B Ni2 1_555 1_555
C44T C10T 1_555 1_555
C44R C10R 1_555 1_555
C44S C10S 1_555 1_555
C44A C10A 1_555 1_555
C44B N12 1_555 1_555
C45S C44S 1_555 1_555
C45R C44R 1_555 1_555
C45T C44T 1_555 1_555
C45B C44B 1_555 1_555
C45A C44A 1_555 1_555
H37S C45S 1_555 1_555
H37R C45R 1_555 1_555
H37T C45T 1_555 1_555
H37B C45B 1_555 1_555
H37A C45A 1_555 1_555
C46S C45S 1_555 1_555
C46R C45R 1_555 1_555
C46T C45T 1_555 1_555
C46B C45B 1_555 1_555
C46A C45A 1_555 1_555
H38S C46S 1_555 1_555
H38R C46R 1_555 1_555
H38T C46T 1_555 1_555
H38B C46B 1_555 1_555
H38A C46A 1_555 1_555
C47S C46S 1_555 1_555
C47R C46R 1_555 1_555
C47T C46T 1_555 1_555
C47B C48 1_555 1_555
C47A C46A 1_555 1_555
H39S C47S 1_555 1_555
H39R C47R 1_555 1_555
H39T C47T 1_555 1_555
H39B C47B 1_555 1_555
H39A C47A 1_555 1_555
C48T N12T 1_555 1_555
C48S N12S 1_555 1_555
C48R N12R 1_555 1_555
C48B N12B 1_555 1_555
C48A C47 1_555 1_555
H40T C48T 1_555 1_555
H40S C48S 1_555 1_555
H40R C48R 1_555 1_555
H40B C48B 1_555 1_555
H40A C48A 1_555 1_555
F9A B4 1_555 1_555
F9B B4 1_555 1_555
F10P Si1 1_555 1_555
F11P Si1 1_555 1_555
C4 C5 1_555 1_555
N3 C6 1_555 1_555
C7 C8 1_555 1_555
C11 C12 1_555 1_555
C16 C17 1_555 1_555
C18 C19 1_555 1_555
C23 C24 1_555 1_555
N8 C25 1_555 1_555
C26 C27 1_555 1_555
C35 C36 1_555 1_555
N11 C37 1_555 1_555
C38 C39 1_555 1_555
C43 C41S 1_555 1_555
C44 N12A 1_555 1_555
C4T C5T 1_555 1_555
C4A C5A 1_555 1_555
C4R C5R 1_555 1_555
C4B C5B 1_555 1_555
C4S C5S 1_555 1_555
N3T C6T 1_555 1_555
N3A C6A 1_555 1_555
N3R C6R 1_555 1_555
N3B C6B 1_555 1_555
N3S C6S 1_555 1_555
C7S C8S 1_555 1_555
C7R C8R 1_555 1_555
C7T C8T 1_555 1_555
C7B C8B 1_555 1_555
C7A C8A 1_555 1_555
C10B C44B 1_555 1_555
C11T C12T 1_555 1_555
C11R C12R 1_555 1_555
C11S C12S 1_555 1_555
C11A C12A 1_555 1_555
C11B C12B 1_555 1_555
C16S C17S 1_555 1_555
C16R C17R 1_555 1_555
C16T C17T 1_555 1_555
C16B C17B 1_555 1_555
C16A C17A 1_555 1_555
C18R C19R 1_555 1_555
C18T C19T 1_555 1_555
C18S C19S 1_555 1_555
C18A C19A 1_555 1_555
C18B C19B 1_555 1_555
C23T C24T 1_555 1_555
C23A C24A 1_555 1_555
C23R C24R 1_555 1_555
C23B C24B 1_555 1_555
C23S C24S 1_555 1_555
N8T C25T 1_555 1_555
N8A C25A 1_555 1_555
N8R C25R 1_555 1_555
N8B C25B 1_555 1_555
N8S C25S 1_555 1_555
C26T C27T 1_555 1_555
C26A C27A 1_555 1_555
C26R C27R 1_555 1_555
C26B C27B 1_555 1_555
C26S C27S 1_555 1_555
C30T C42T 1_555 1_555
C31T C43T 1_555 1_555
C35T C36T 1_555 1_555
C35A C36A 1_555 1_555
C35R C36R 1_555 1_555
C35B C36B 1_555 1_555
C35S C36S 1_555 1_555
N11T C37T 1_555 1_555
N11A C37A 1_555 1_555
N11R C37R 1_555 1_555
N11B C37B 1_555 1_555
N11S C37S 1_555 1_555
C38T C39T 1_555 1_555
C38A C39A 1_555 1_555
C38R C39R 1_555 1_555
C38B C39B 1_555 1_555
C38S C39S 1_555 1_555
C40S C41S 1_555 1_555
C41T C42A 1_555 1_555
C41T C43A 1_555 1_555
C41A C42R 1_555 1_555
C41A C43R 1_555 1_555
C41R C42B 1_555 1_555
C41R C43B 1_555 1_555
C41B C42S 1_555 1_555
C41B C43S 1_555 1_555
N12R C44T 1_555 1_555
N12S C44R 1_555 1_555
N12T C44S 1_555 1_555
N12A C48A 1_555 1_555
N12B C44A 1_555 1_555
C46B C47B 1_555 1_555
C47S C48T 1_555 1_555
C47R C48S 1_555 1_555
C47T C48R 1_555 1_555
C47A C48B 1_555 1_555

#END
