
#######################################################################
#
#                 Cambridge Crystallographic Data Centre
#                                CCDC 
#
#######################################################################
#
# If this CIF has been generated from an entry in the Cambridge 
# Structural Database, then it will include bibliographic, chemical, 
# crystal, experimental, refinement or atomic coordinate data resulting 
# from the CCDC's data processing and validation procedures.
#
#######################################################################

data_UXOPED
_chemical_formula_moiety         'C216 H180 Cu6 N54 12+,12(B1 F4 1-)'
_chemical_name_systematic        
'nonakis(\m~2~-1,4-bis((3-(2-Pyridyl)pyrazolyl)methyl)benzene)-hexa-copper(ii) dodecakis(tetrafluoroborate)'
_symmetry_cell_setting           orthorhombic
_symmetry_space_group_name_H-M   'I b a 2'
_symmetry_Int_Tables_number      45
_space_group_name_Hall           'I 2 -2c'
loop_
_symmetry_equiv_pos_site_id
_symmetry_equiv_pos_as_xyz
1 x,y,z
2 -x,-y,z
3 -x,y,1/2+z
4 x,-y,1/2+z
5 1/2+x,1/2+y,1/2+z
6 1/2-x,1/2-y,1/2+z
7 1/2-x,1/2+y,z
8 1/2+x,1/2-y,z
_cell_length_a                   31.7261(11)
_cell_length_b                   56.9758(17)
_cell_length_c                   29.7638(9)
_cell_angle_alpha                90
_cell_angle_beta                 90
_cell_angle_gamma                90
_cell_volume                     53801.6
_exptl_crystal_colour            green
_exptl_crystal_description       block
_cell_formula_units_Z            8
loop_
_atom_site_label
_atom_site_type_symbol
_atom_site_fract_x
_atom_site_fract_y
_atom_site_fract_z
Cu1 Cu 0.38660(4) 0.903308(19) 0.54678(4)
Cu2 Cu 0.49177(3) 0.807798(19) 0.30048(4)
Cu3 Cu 0.20416(4) 0.76108(2) 0.43793(4)
Cu4 Cu 0.14889(8) 0.97691(4) 0.35175(7)
Cu5 Cu 0.31616(5) 0.94137(2) 0.08661(4)
Cu6 Cu 0.08094(5) 0.82369(4) 0.15701(8)
N1 N 0.32684(18) 0.91015(11) 0.5627(2)
C1 C 0.3122(2) 0.91530(12) 0.6056(2)
H1 H 0.3312 0.9172 0.6291
C2 C 0.2692(3) 0.91768(14) 0.6133(2)
H2 H 0.2594 0.9211 0.6420
C3 C 0.24084(18) 0.91489(14) 0.5781(3)
H3 H 0.2121 0.9165 0.5832
C4 C 0.2555(2) 0.90974(13) 0.5352(3)
H4 H 0.2365 0.9079 0.5116
C5 C 0.2985(2) 0.90736(12) 0.5275(2)
N2 N 0.3706(2) 0.89847(11) 0.4390(2)
N3 N 0.3596(2) 0.90280(12) 0.48455(19)
C6 C 0.3150(2) 0.90197(14) 0.4881(2)
C7 C 0.2984(2) 0.89713(15) 0.4448(3)
H5 H 0.2700 0.8956 0.4375
C8 C 0.3327(3) 0.89496(13) 0.41446(19)
H6 H 0.3308 0.8918 0.3839
C9 C 0.4131(3) 0.89794(18) 0.4255(4)
H7 H 0.4290 0.9085 0.4447
H8 H 0.4150 0.9040 0.3951
N4 N 0.47328(16) 0.77553(9) 0.2804(2)
C10 C 0.4734(2) 0.76945(11) 0.23516(18)
H9 H 0.4817 0.7804 0.2137
C11 C 0.4612(2) 0.74705(13) 0.22204(19)
H10 H 0.4613 0.7430 0.1918
C12 C 0.4487(2) 0.73074(9) 0.2541(3)
H11 H 0.4405 0.7158 0.2454
C13 C 0.4486(2) 0.73682(10) 0.2994(2)
H12 H 0.4403 0.7259 0.3209
C14 C 0.46086(19) 0.75922(11) 0.31249(17)
N5 N 0.48226(18) 0.79028(9) 0.41476(17)
N6 N 0.48211(18) 0.78767(9) 0.36731(16)
C15 C 0.4625(2) 0.76593(11) 0.35694(17)
C16 C 0.4506(2) 0.75510(9) 0.3980(2)
H13 H 0.4371 0.7407 0.4009
C17 C 0.4628(2) 0.77015(11) 0.43371(16)
H14 H 0.4587 0.7673 0.4642
C18 C 0.5002(3) 0.80878(17) 0.4365(3)
H15 H 0.5285 0.8110 0.4251
H16 H 0.5023 0.8050 0.4682
C19 C 0.43363(15) 0.87427(8) 0.42680(13)
C20 C 0.41111(12) 0.85346(10) 0.43111(14)
H17 H 0.3818 0.8538 0.4325
C21 C 0.43235(15) 0.83216(8) 0.43338(14)
H18 H 0.4173 0.8182 0.4363
C22 C 0.47611(15) 0.83166(7) 0.43135(12)
C23 C 0.49863(12) 0.85247(8) 0.42704(9)
H19 H 0.5279 0.8521 0.4257
C24 C 0.47739(15) 0.87377(7) 0.42477(10)
H20 H 0.4925 0.8877 0.4219
N7 N 0.51143(14) 0.84049(6) 0.32055(11)
C25 C 0.55255(12) 0.84741(8) 0.32972(14)
H21 H 0.5735 0.8362 0.3334
C26 C 0.56231(13) 0.87111(9) 0.33344(16)
H22 H 0.5898 0.8757 0.3396
C27 C 0.53094(17) 0.88790(7) 0.32799(15)
H23 H 0.5375 0.9038 0.3305
C28 C 0.48982(16) 0.88099(7) 0.31882(12)
H24 H 0.4688 0.8922 0.3152
C29 C 0.48006(13) 0.85729(8) 0.31510(9)
N8 N 0.39268(18) 0.82070(10) 0.28874(19)
N9 N 0.43552(16) 0.82469(10) 0.30025(19)
C30 C 0.44118(18) 0.84921(10) 0.3063(2)
C31 C 0.4018(2) 0.86038(9) 0.2986(3)
H25 H 0.3966 0.8764 0.3003
C32 C 0.37186(16) 0.84276(13) 0.2877(2)
H26 H 0.3436 0.8452 0.2811
C33 C 0.3755(3) 0.79870(19) 0.2809(3)
H27 H 0.3948 0.7899 0.2621
H28 H 0.3495 0.8007 0.2641
N10 N 0.1988(2) 0.78319(11) 0.4896(2)
C34 C 0.1610(2) 0.79479(12) 0.4976(3)
H29 H 0.1396 0.7943 0.4763
C35 C 0.1552(2) 0.80708(13) 0.5374(3)
H30 H 0.1299 0.8148 0.5428
C36 C 0.1872(3) 0.80777(14) 0.5693(2)
H31 H 0.1833 0.8160 0.5960
C37 C 0.2250(3) 0.79617(14) 0.5613(2)
H32 H 0.2464 0.7966 0.5826
C38 C 0.23082(19) 0.78388(11) 0.5215(3)
N11 N 0.3137(2) 0.75279(10) 0.4692(2)
N12 N 0.27274(19) 0.76289(11) 0.4702(2)
C39 C 0.2677(2) 0.77444(12) 0.5121(2)
C40 C 0.3055(3) 0.77148(14) 0.53707(18)
H33 H 0.3107 0.7773 0.5657
C41 C 0.3339(2) 0.75810(13) 0.5105(3)
H34 H 0.3610 0.7536 0.5188
C42 C 0.3276(3) 0.7399(2) 0.4319(4)
H35 H 0.3050 0.7301 0.4207
H36 H 0.3509 0.7299 0.4405
C43 C 0.36617(15) 0.78448(8) 0.32220(12)
C44 C 0.35627(14) 0.76094(8) 0.31597(15)
H37 H 0.3578 0.7543 0.2874
C45 C 0.34414(14) 0.74725(7) 0.35240(16)
H38 H 0.3375 0.7315 0.3482
C46 C 0.34191(15) 0.75710(7) 0.39506(15)
C47 C 0.35182(11) 0.78065(7) 0.40128(13)
H39 H 0.3503 0.7872 0.4298
C48 C 0.36395(11) 0.79433(7) 0.36485(12)
H40 H 0.3706 0.8101 0.3690
N13 N 0.44477(15) 0.89083(8) 0.53146(15)
C49 C 0.47851(18) 0.90554(8) 0.52169(15)
H41 H 0.4739 0.9215 0.5168
C50 C 0.51910(16) 0.89645(9) 0.51924(16)
H42 H 0.5417 0.9063 0.5127
C51 C 0.52597(14) 0.87267(10) 0.52656(18)
H43 H 0.5531 0.8666 0.5249
C52 C 0.49224(15) 0.85796(8) 0.53633(14)
H44 H 0.4968 0.8420 0.5412
C53 C 0.45164(15) 0.86704(8) 0.53878(11)
N14 N 0.35106(16) 0.84476(11) 0.56602(19)
N15 N 0.37997(19) 0.86264(8) 0.55355(19)
C54 C 0.42076(17) 0.85245(11) 0.5511(2)
C55 C 0.4170(2) 0.82828(10) 0.5620(2)
H45 H 0.4390 0.8175 0.5630
C56 C 0.3740(2) 0.82353(9) 0.5713(2)
H46 H 0.3627 0.8091 0.5793
C57 C 0.3074(3) 0.84879(19) 0.5672(3)
H47 H 0.3025 0.8651 0.5750
H48 H 0.2951 0.8392 0.5907
N16 N 0.21679(18) 0.73766(10) 0.38870(18)
C58 C 0.2086(2) 0.71371(10) 0.39008(18)
H49 H 0.1951 0.7072 0.4149
C59 C 0.2207(2) 0.69945(8) 0.3544(2)
H50 H 0.2152 0.6834 0.3553
C60 C 0.2409(2) 0.70915(11) 0.3174(2)
H51 H 0.2489 0.6996 0.2935
C61 C 0.2491(2) 0.73310(11) 0.31602(18)
H52 H 0.2626 0.7396 0.2912
C62 C 0.23703(19) 0.74736(8) 0.3517(2)
N17 N 0.22869(17) 0.80727(9) 0.3793(2)
N18 N 0.22367(16) 0.78291(10) 0.38786(18)
C63 C 0.24191(18) 0.77039(8) 0.3515(2)
C64 C 0.25820(19) 0.78701(12) 0.32047(19)
H53 H 0.2718 0.7836 0.2936
C65 C 0.2500(2) 0.80981(9) 0.3377(2)
H54 H 0.2574 0.8239 0.3241
C66 C 0.2140(3) 0.82488(18) 0.4067(4)
H55 H 0.1865 0.8201 0.4177
H56 H 0.2097 0.8387 0.3882
C67 C 0.28598(12) 0.84355(7) 0.52428(13)
C68 C 0.30512(14) 0.83101(7) 0.48980(16)
H57 H 0.3331 0.8264 0.4924
C69 C 0.28238(15) 0.82536(9) 0.45138(16)
H58 H 0.2952 0.8170 0.4283
C70 C 0.24051(15) 0.83224(9) 0.44743(16)
C71 C 0.22137(13) 0.84477(10) 0.4819(2)
H59 H 0.1934 0.8494 0.4793
C72 C 0.24410(12) 0.85043(10) 0.52034(17)
H60 H 0.2313 0.8588 0.5434
N19 N 0.40791(14) 0.90652(9) 0.61300(18)
C73 C 0.40500(15) 0.88878(10) 0.64489(17)
H61 H 0.3938 0.8743 0.6370
C74 C 0.4188(2) 0.89271(13) 0.68855(18)
H62 H 0.4169 0.8808 0.7099
C75 C 0.43559(19) 0.91440(13) 0.7003(2)
H63 H 0.4449 0.9170 0.7295
C76 C 0.43850(18) 0.93215(12) 0.6684(2)
H64 H 0.4497 0.9467 0.6763
C77 C 0.42466(18) 0.92821(10) 0.6248(2)
N20 N 0.4096(3) 0.96224(14) 0.5243(3)
N21 N 0.4065(2) 0.94157(11) 0.5507(3)
C78 C 0.4220(3) 0.94679(15) 0.5943(3)
C79 C 0.4347(3) 0.97069(16) 0.5948(3)
H65 H 0.4461 0.9787 0.6192
C80 C 0.4270(3) 0.98023(11) 0.5515(4)
H66 H 0.4325 0.9956 0.5426
C81 C 0.3952(5) 0.9638(2) 0.4808(5)
H67 H 0.4054 0.9505 0.4635
H68 H 0.4057 0.9780 0.4670
N22 N 0.1197(4) 1.00941(19) 0.3635(4)
C82 C 0.0951(5) 1.0196(3) 0.3302(4)
H69 H 0.0862 1.0107 0.3058
C83 C 0.0837(5) 1.0431(3) 0.3333(4)
H70 H 0.0673 1.0499 0.3111
C84 C 0.0970(5) 1.0564(2) 0.3698(5)
H71 H 0.0894 1.0721 0.3720
C85 C 0.1217(5) 1.0462(2) 0.4032(5)
H72 H 0.1305 1.0551 0.4276
C86 C 0.1330(4) 1.0227(2) 0.4000(4)
N23 N 0.1934(4) 0.98212(15) 0.4667(3)
N24 N 0.1713(4) 0.9887(2) 0.4272(3)
C87 C 0.1607(4) 1.0129(2) 0.4309(4)
C88 C 0.1763(5) 1.02117(16) 0.4727(4)
H73 H 0.1737 1.0364 0.4837
C89 C 0.1965(4) 1.0022(2) 0.4948(3)
H74 H 0.2095 1.0028 0.5228
C90 C 0.2133(5) 0.9611(2) 0.4709(5)
H75 H 0.2054 0.9513 0.4457
H76 H 0.2033 0.9535 0.4980
C91 C 0.34757(17) 0.96390(7) 0.48107(19)
C92 C 0.32227(19) 0.96837(9) 0.51822(18)
H77 H 0.3345 0.9718 0.5458
C93 C 0.27865(19) 0.96772(8) 0.51411(18)
H78 H 0.2617 0.9707 0.5390
C94 C 0.26032(17) 0.96260(9) 0.4728(2)
C95 C 0.28562(18) 0.95813(9) 0.43569(18)
H79 H 0.2734 0.9547 0.4081
C96 C 0.32924(18) 0.95878(7) 0.43980(17)
H80 H 0.3462 0.9558 0.4149
N25 N 0.55235(13) 0.79727(6) 0.29312(14)
C97 C 0.57367(16) 0.78591(7) 0.32764(15)
H81 H 0.5598 0.7825 0.3544
C98 C 0.61567(16) 0.77958(9) 0.32214(15)
H82 H 0.6299 0.7720 0.3452
C99 C 0.63635(13) 0.78461(8) 0.28211(18)
H83 H 0.6644 0.7804 0.2784
C100 C 0.61503(16) 0.79597(8) 0.24759(17)
H84 H 0.6289 0.7993 0.2208
C101 C 0.57304(16) 0.80230(8) 0.25309(14)
N26 N 0.49556(15) 0.83217(12) 0.1871(2)
N27 N 0.50880(16) 0.81895(11) 0.22501(16)
C102 C 0.55291(17) 0.81522(12) 0.2213(2)
C103 C 0.56694(16) 0.82613(14) 0.1811(2)
H85 H 0.5945 0.8264 0.1705
C104 C 0.5315(2) 0.83660(13) 0.15996(19)
H86 H 0.5318 0.8449 0.1331
C105 C 0.4525(3) 0.83702(18) 0.1791(3)
H87 H 0.4358 0.8320 0.2046
H88 H 0.4430 0.8285 0.1528
N28 N 0.3249(3) 0.95678(10) 0.02592(17)
C106 C 0.2921(2) 0.96276(13) -0.0028(2)
H89 H 0.2643 0.9601 0.0058
C107 C 0.3008(3) 0.97276(14) -0.0444(2)
H90 H 0.2788 0.9768 -0.0636
C108 C 0.3423(3) 0.97676(13) -0.05726(18)
H91 H 0.3481 0.9834 -0.0851
C109 C 0.3751(2) 0.97078(14) -0.0285(3)
H92 H 0.4028 0.9735 -0.0371
C110 C 0.3664(2) 0.96079(12) 0.0131(2)
N29 N 0.4263(3) 0.94471(12) 0.1118(2)
N30 N 0.3884(2) 0.94662(12) 0.0867(3)
C111 C 0.3987(3) 0.95523(13) 0.0433(2)
C112 C 0.4430(3) 0.95865(13) 0.0416(3)
H93 H 0.4582 0.9642 0.0170
C113 C 0.4601(2) 0.95215(13) 0.0839(3)
H94 H 0.4884 0.9527 0.0919
C114 C 0.4260(4) 0.9354(2) 0.1538(4)
H95 H 0.3984 0.9381 0.1669
H96 H 0.4464 0.9438 0.1720
C115 C 0.44740(15) 0.86285(8) 0.17189(15)
C116 C 0.42705(17) 0.87038(9) 0.13313(13)
H97 H 0.4175 0.8595 0.1122
C117 C 0.42098(16) 0.89422(10) 0.12560(15)
H98 H 0.4074 0.8993 0.0997
C118 C 0.43525(17) 0.91052(8) 0.15683(17)
C119 C 0.45559(18) 0.90299(9) 0.19560(15)
H99 H 0.4651 0.9139 0.2165
C120 C 0.46167(14) 0.87915(10) 0.20313(15)
H100 H 0.4753 0.8741 0.2291
N31 N 0.18283(13) 0.73577(7) 0.48064(14)
C121 C 0.21004(14) 0.72399(8) 0.50947(15)
H101 H 0.2388 0.7271 0.5086
C122 C 0.19427(15) 0.70751(9) 0.53953(16)
H102 H 0.2125 0.6996 0.5588
C123 C 0.15129(15) 0.70282(7) 0.54075(15)
H103 H 0.1407 0.6918 0.5609
C124 C 0.12408(14) 0.71460(8) 0.51192(17)
H104 H 0.0953 0.7115 0.5128
C125 C 0.13985(13) 0.73108(8) 0.48186(17)
N32 N 0.0934(2) 0.77179(10) 0.4056(2)
N33 N 0.12858(15) 0.76017(11) 0.4250(2)
C126 C 0.11315(19) 0.74302(11) 0.4554(2)
C127 C 0.06843(19) 0.74404(13) 0.4549(2)
H105 H 0.0503 0.7347 0.4717
C128 C 0.05622(15) 0.76182(14) 0.4241(3)
H106 H 0.0287 0.7662 0.4172
C129 C 0.0958(4) 0.7896(2) 0.3720(4)
H107 H 0.1171 0.8008 0.3814
H108 H 0.0690 0.7978 0.3715
N34 N 0.0298(3) 0.8147(2) 0.1181(4)
C130 C 0.0011(4) 0.83162(17) 0.1043(5)
H109 H 0.0047 0.8472 0.1130
C131 C -0.0330(4) 0.8253(2) 0.0777(5)
H110 H -0.0523 0.8367 0.0685
C132 C -0.0384(4) 0.8021(3) 0.0648(5)
H111 H -0.0613 0.7978 0.0469
C133 C -0.0097(4) 0.78511(18) 0.0785(5)
H112 H -0.0133 0.7696 0.0699
C134 C 0.0244(4) 0.79142(19) 0.1052(5)
N35 N 0.1059(3) 0.76148(19) 0.1621(3)
N36 N 0.0831(3) 0.78243(15) 0.1533(4)
C135 C 0.0482(3) 0.7767(2) 0.1255(4)
C136 C 0.0494(4) 0.7521(2) 0.1171(4)
H113 H 0.0303 0.7437 0.0998
C137 C 0.0851(4) 0.74275(15) 0.1397(4)
H114 H 0.0933 0.7271 0.1399
C138 C 0.1409(4) 0.7616(3) 0.1933(5)
H115 H 0.1623 0.7726 0.1837
H116 H 0.1535 0.7461 0.1953
C139 C 0.10577(19) 0.78235(7) 0.32514(18)
C140 C 0.07371(16) 0.77380(8) 0.2979(2)
H117 H 0.0464 0.7726 0.3089
C141 C 0.08249(19) 0.76697(9) 0.2540(2)
H118 H 0.0610 0.7612 0.2357
C142 C 0.1233(2) 0.76870(8) 0.2375(2)
C143 C 0.15541(18) 0.77725(8) 0.2647(3)
H119 H 0.1827 0.7784 0.2537
C144 C 0.14662(16) 0.78407(8) 0.3086(2)
H120 H 0.1681 0.7898 0.3268
N37 N 0.1000(4) 0.96065(8) 0.3743(4)
C145 C 0.0966(4) 0.95648(11) 0.4202(4)
H121 H 0.1176 0.9617 0.4396
C146 C 0.0618(4) 0.94457(12) 0.4371(4)
H122 H 0.0596 0.9418 0.4678
C147 C 0.0304(3) 0.93682(12) 0.4081(4)
H123 H 0.0071 0.9288 0.4194
C148 C 0.0338(3) 0.94098(10) 0.3622(4)
H124 H 0.0128 0.9358 0.3429
C149 C 0.0686(4) 0.95290(8) 0.3453(4)
N38 N 0.1059(5) 0.9717(2) 0.2390(5)
N39 N 0.1076(4) 0.9678(2) 0.2861(5)
C150 C 0.0722(5) 0.9540(2) 0.2983(4)
C151 C 0.0485(4) 0.9494(2) 0.2588(7)
H125 H 0.0237 0.9407 0.2572
C152 C 0.0694(5) 0.9604(3) 0.2221(4)
H126 H 0.0606 0.9601 0.1923
C153 C 0.1408(4) 0.9846(3) 0.2175(7)
H127 H 0.1433 0.9996 0.2327
H128 H 0.1323 0.9880 0.1868
N40 N 0.3235(3) 0.90898(9) 0.0617(2)
C154 C 0.3295(3) 0.90358(11) 0.01664(19)
H129 H 0.3317 0.9156 -0.0045
C155 C 0.3322(4) 0.88029(13) 0.0031(2)
H130 H 0.3362 0.8767 -0.0271
C156 C 0.3289(3) 0.86239(10) 0.0346(3)
H131 H 0.3307 0.8468 0.0255
C157 C 0.3230(3) 0.86778(11) 0.0797(3)
H132 H 0.3208 0.8558 0.1008
C158 C 0.3203(3) 0.89108(12) 0.09328(17)
N41 N 0.3131(3) 0.92589(10) 0.1904(2)
N42 N 0.3146(3) 0.92199(11) 0.14333(18)
C159 C 0.3182(3) 0.89744(12) 0.1360(2)
C160 C 0.3189(3) 0.88618(10) 0.1785(3)
H133 H 0.3210 0.8701 0.1835
C161 C 0.3157(3) 0.90376(13) 0.21217(17)
H134 H 0.3154 0.9012 0.2430
C162 C 0.3122(5) 0.9474(2) 0.2121(4)
H135 H 0.3288 0.9588 0.1954
H136 H 0.3242 0.9460 0.2419
C163 C 0.1833(2) 0.97413(16) 0.2156(2)
C164 C 0.1897(3) 0.95013(16) 0.2109(2)
H137 H 0.1668 0.9401 0.2077
C165 C 0.2304(3) 0.94111(11) 0.2109(2)
H138 H 0.2347 0.9251 0.2077
C166 C 0.2647(2) 0.95611(10) 0.21562(17)
C167 C 0.2583(2) 0.98011(11) 0.22034(12)
H139 H 0.2812 0.9901 0.2235
C168 C 0.2175(3) 0.98912(12) 0.22035(19)
H140 H 0.2132 1.0052 0.2235
N43 N 0.3060(2) 0.97378(9) 0.11072(16)
C169 C 0.3384(2) 0.98859(12) 0.1243(2)
H141 H 0.3661 0.9833 0.1242
C170 C 0.3294(3) 1.01136(11) 0.13800(19)
H142 H 0.3510 1.0213 0.1471
C171 C 0.2880(3) 1.01933(8) 0.13811(19)
H143 H 0.2819 1.0346 0.1473
C172 C 0.2556(2) 1.00452(11) 0.12452(16)
H144 H 0.2279 1.0099 0.1246
C173 C 0.2646(2) 0.98174(11) 0.11083(11)
N44 N 0.2063(5) 0.93277(19) 0.0673(3)
N45 N 0.2440(3) 0.9444(2) 0.0801(3)
C174 C 0.2330(4) 0.9666(2) 0.0980(3)
C175 C 0.1885(5) 0.9688(2) 0.0964(4)
H145 H 0.1728 0.9816 0.1060
C176 C 0.1719(3) 0.9479(3) 0.0774(4)
H146 H 0.1436 0.9446 0.0724
C177 C 0.2063(6) 0.9117(4) 0.0436(6)
H147 H 0.2311 0.9109 0.0246
H148 H 0.1816 0.9109 0.0245
N46 N 0.0482(5) 0.8249(2) 0.2125(4)
C178 C 0.0049(4) 0.8217(2) 0.2162(5)
H149 H -0.0110 0.8182 0.1908
C179 C -0.0147(3) 0.8238(2) 0.2578(6)
H150 H -0.0436 0.8217 0.2603
C180 C 0.0091(5) 0.8291(2) 0.2957(4)
H151 H -0.0040 0.8304 0.3236
C181 C 0.0524(5) 0.8323(2) 0.2920(4)
H152 H 0.0683 0.8358 0.3174
C182 C 0.0719(3) 0.8302(2) 0.2504(5)
N47 N 0.1721(3) 0.83098(19) 0.1993(3)
N48 N 0.1273(3) 0.82992(18) 0.1989(4)
C183 C 0.1126(3) 0.8361(2) 0.2423(4)
C184 C 0.1482(5) 0.8411(2) 0.2696(3)
H153 H 0.1476 0.8456 0.2997
C185 C 0.1849(3) 0.8379(2) 0.2431(4)
H154 H 0.2126 0.8399 0.2527
C186 C 0.2014(5) 0.8286(3) 0.1589(6)
H155 H 0.2295 0.8246 0.1693
H156 H 0.1916 0.8160 0.1398
C187 C 0.2062(3) 0.89045(15) 0.0778(2)
C188 C 0.1963(2) 0.89269(13) 0.1231(2)
H157 H 0.1907 0.9074 0.1351
C189 C 0.1948(2) 0.87292(13) 0.1504(2)
H158 H 0.1882 0.8744 0.1807
C190 C 0.2033(3) 0.85090(13) 0.1324(3)
C191 C 0.2132(2) 0.84865(14) 0.0871(3)
H159 H 0.2188 0.8339 0.0751
C192 C 0.2146(3) 0.86843(16) 0.0598(2)
H160 H 0.2212 0.8669 0.0295
N49 N 0.2014(3) 0.99228(15) 0.3260(3)
C193 C 0.2092(3) 1.01601(14) 0.3190(3)
H161 H 0.1868 1.0264 0.3156
C194 C 0.2504(4) 1.02422(13) 0.3173(3)
H162 H 0.2556 1.0401 0.3127
C195 C 0.2839(3) 1.00869(15) 0.3225(3)
H163 H 0.3115 1.0142 0.3213
C196 C 0.2761(3) 0.98496(14) 0.3294(2)
H164 H 0.2985 0.9746 0.3329
C197 C 0.2349(3) 0.97675(13) 0.33113(19)
N50 N 0.1806(3) 0.92159(16) 0.3539(3)
N51 N 0.1787(3) 0.94626(17) 0.3476(3)
C198 C 0.2198(4) 0.95431(14) 0.3368(3)
C199 C 0.2472(3) 0.9346(2) 0.3364(3)
H165 H 0.2759 0.9349 0.3303
C200 C 0.2230(4) 0.91438(15) 0.3470(3)
H166 H 0.2331 0.8991 0.3491
C201 C 0.1479(6) 0.9054(3) 0.3646(7)
H167 H 0.1304 0.9114 0.3887
H168 H 0.1596 0.8904 0.3737
N52 N 0.1097(3) 0.8312(2) 0.0972(3)
C202 C 0.1269(3) 0.81205(15) 0.0748(4)
H169 H 0.1298 0.7978 0.0896
C203 C 0.1398(3) 0.8142(2) 0.0304(4)
H170 H 0.1513 0.8014 0.0154
C204 C 0.1355(4) 0.8356(3) 0.0083(3)
H171 H 0.1441 0.8371 -0.0214
C205 C 0.1183(4) 0.8548(2) 0.0306(4)
H172 H 0.1154 0.8691 0.0159
C206 C 0.1054(3) 0.85258(17) 0.0751(4)
N53 N 0.0614(3) 0.8856(2) 0.1671(4)
N54 N 0.0744(3) 0.86423(17) 0.1470(5)
C207 C 0.0900(3) 0.8694(2) 0.1033(4)
C208 C 0.0865(4) 0.8940(2) 0.0964(4)
H173 H 0.0944 0.9020 0.0706
C209 C 0.0688(4) 0.90401(15) 0.1358(5)
H174 H 0.0632 0.9198 0.1403
C210 C 0.0412(6) 0.8890(4) 0.2067(7)
H175 H 0.0225 0.8757 0.2113
H176 H 0.0237 0.9028 0.2037
C211 C 0.1229(4) 0.90295(18) 0.3218(4)
C212 C 0.0815(5) 0.89637(18) 0.3305(4)
H177 H 0.0718 0.8956 0.3600
C213 C 0.0546(3) 0.89086(19) 0.2952(5)
H178 H 0.0269 0.8865 0.3010
C214 C 0.0691(4) 0.8919(2) 0.2512(4)
C215 C 0.1105(5) 0.8985(2) 0.2425(4)
H179 H 0.1202 0.8992 0.2130
C216 C 0.1374(3) 0.90403(19) 0.2778(5)
H180 H 0.1651 0.9084 0.2720
B1 B 0.3861(5) 0.9382(3) 0.3182(5)
F1 F 0.3990(4) 0.9486(2) 0.2792(4)
F2 F 0.4057(4) 0.9446(2) 0.3551(4)
F3 F 0.3908(3) 0.91487(19) 0.3123(4)
F4 F 0.3441(3) 0.9427(2) 0.3229(4)
B2 B 0.4741(4) 0.7909(2) 0.0765(4)
F5 F 0.4904(3) 0.79181(19) 0.1174(3)
F6 F 0.4492(2) 0.80948(13) 0.0692(2)
F7 F 0.5054(3) 0.79001(19) 0.0454(4)
F8 F 0.4532(3) 0.77071(16) 0.0705(3)
B3 B 0.7023(4) 0.8054(2) 0.1694(5)
F9 F 0.7415(2) 0.81220(15) 0.1539(3)
F10 F 0.7084(3) 0.79712(17) 0.2115(3)
F11 F 0.6776(2) 0.82531(14) 0.1748(3)
F12 F 0.6836(2) 0.79096(14) 0.1455(3)
B4 B 0.6301(4) 0.8330(2) 0.4181(4)
F13 F 0.66395(19) 0.82759(11) 0.4424(2)
F14 F 0.6424(3) 0.84222(15) 0.3775(3)
F15 F 0.6055(2) 0.81310(14) 0.4106(3)
F16 F 0.6034(3) 0.84815(15) 0.4409(3)
B5 B 0.3209(4) 0.8115(2) 0.1751(4)
F17 F 0.2956(2) 0.80501(13) 0.2076(2)
F18 F 0.3452(3) 0.79151(16) 0.1656(3)
F19 F 0.3494(2) 0.82821(14) 0.1874(3)
F20 F 0.3002(2) 0.81762(13) 0.1372(2)
B6 B 0.2636(4) 0.8703(2) 0.2947(4)
F21 F 0.29865(19) 0.88345(11) 0.3111(2)
F22 F 0.23735(19) 0.86486(12) 0.3310(2)
F23 F 0.2413(2) 0.88506(13) 0.2652(2)
F24 F 0.27726(18) 0.85139(10) 0.2737(2)
loop_
_geom_bond_atom_site_label_1
_geom_bond_atom_site_label_2
_geom_bond_site_symmetry_1
_geom_bond_site_symmetry_2
Cu1 N1 1_555 1_555
Cu2 N4 1_555 1_555
Cu3 N10 1_555 1_555
Cu4 N22 1_555 1_555
Cu5 N28 1_555 1_555
Cu6 N34 1_555 1_555
N1 C1 1_555 1_555
C1 H1 1_555 1_555
C2 C1 1_555 1_555
H2 C2 1_555 1_555
C3 C2 1_555 1_555
H3 C3 1_555 1_555
C4 C3 1_555 1_555
H4 C4 1_555 1_555
C5 N1 1_555 1_555
N2 N3 1_555 1_555
N3 Cu1 1_555 1_555
C6 C5 1_555 1_555
C7 C6 1_555 1_555
H5 C7 1_555 1_555
C8 N2 1_555 1_555
H6 C8 1_555 1_555
C9 N2 1_555 1_555
H7 C9 1_555 1_555
H8 C9 1_555 1_555
N4 C10 1_555 1_555
C10 H9 1_555 1_555
C11 C10 1_555 1_555
H10 C11 1_555 1_555
C12 C11 1_555 1_555
H11 C12 1_555 1_555
C13 C12 1_555 1_555
H12 C13 1_555 1_555
C14 N4 1_555 1_555
N5 N6 1_555 1_555
N6 Cu2 1_555 1_555
C15 C14 1_555 1_555
C16 C15 1_555 1_555
H13 C16 1_555 1_555
C17 N5 1_555 1_555
H14 C17 1_555 1_555
C18 N5 1_555 1_555
H15 C18 1_555 1_555
H16 C18 1_555 1_555
C19 C9 1_555 1_555
C20 C19 1_555 1_555
H17 C20 1_555 1_555
C21 C20 1_555 1_555
H18 C21 1_555 1_555
C22 C18 1_555 1_555
C23 C22 1_555 1_555
H19 C23 1_555 1_555
C24 C19 1_555 1_555
H20 C24 1_555 1_555
N7 Cu2 1_555 1_555
C25 N7 1_555 1_555
H21 C25 1_555 1_555
C26 C25 1_555 1_555
H22 C26 1_555 1_555
C27 C26 1_555 1_555
H23 C27 1_555 1_555
C28 C27 1_555 1_555
H24 C28 1_555 1_555
C29 N7 1_555 1_555
N8 N9 1_555 1_555
N9 Cu2 1_555 1_555
C30 C29 1_555 1_555
C31 C30 1_555 1_555
H25 C31 1_555 1_555
C32 N8 1_555 1_555
H26 C32 1_555 1_555
C33 N8 1_555 1_555
H27 C33 1_555 1_555
H28 C33 1_555 1_555
N10 C34 1_555 1_555
C34 H29 1_555 1_555
C35 C34 1_555 1_555
H30 C35 1_555 1_555
C36 C35 1_555 1_555
H31 C36 1_555 1_555
C37 C36 1_555 1_555
H32 C37 1_555 1_555
C38 N10 1_555 1_555
N11 N12 1_555 1_555
N12 Cu3 1_555 1_555
C39 C38 1_555 1_555
C40 C39 1_555 1_555
H33 C40 1_555 1_555
C41 N11 1_555 1_555
H34 C41 1_555 1_555
C42 N11 1_555 1_555
H35 C42 1_555 1_555
H36 C42 1_555 1_555
C43 C33 1_555 1_555
C44 C43 1_555 1_555
H37 C44 1_555 1_555
C45 C44 1_555 1_555
H38 C45 1_555 1_555
C46 C42 1_555 1_555
C47 C46 1_555 1_555
H39 C47 1_555 1_555
C48 C43 1_555 1_555
H40 C48 1_555 1_555
N13 Cu1 1_555 1_555
C49 N13 1_555 1_555
H41 C49 1_555 1_555
C50 C49 1_555 1_555
H42 C50 1_555 1_555
C51 C50 1_555 1_555
H43 C51 1_555 1_555
C52 C51 1_555 1_555
H44 C52 1_555 1_555
C53 N13 1_555 1_555
N14 N15 1_555 1_555
N15 Cu1 1_555 1_555
C54 C53 1_555 1_555
C55 C54 1_555 1_555
H45 C55 1_555 1_555
C56 N14 1_555 1_555
H46 C56 1_555 1_555
C57 N14 1_555 1_555
H47 C57 1_555 1_555
H48 C57 1_555 1_555
N16 Cu3 1_555 1_555
C58 N16 1_555 1_555
H49 C58 1_555 1_555
C59 C58 1_555 1_555
H50 C59 1_555 1_555
C60 C59 1_555 1_555
H51 C60 1_555 1_555
C61 C60 1_555 1_555
H52 C61 1_555 1_555
C62 N16 1_555 1_555
N17 N18 1_555 1_555
N18 Cu3 1_555 1_555
C63 C62 1_555 1_555
C64 C63 1_555 1_555
H53 C64 1_555 1_555
C65 N17 1_555 1_555
H54 C65 1_555 1_555
C66 N17 1_555 1_555
H55 C66 1_555 1_555
H56 C66 1_555 1_555
C67 C57 1_555 1_555
C68 C67 1_555 1_555
H57 C68 1_555 1_555
C69 C68 1_555 1_555
H58 C69 1_555 1_555
C70 C66 1_555 1_555
C71 C70 1_555 1_555
H59 C71 1_555 1_555
C72 C67 1_555 1_555
H60 C72 1_555 1_555
N19 Cu1 1_555 1_555
C73 N19 1_555 1_555
H61 C73 1_555 1_555
C74 C73 1_555 1_555
H62 C74 1_555 1_555
C75 C74 1_555 1_555
H63 C75 1_555 1_555
C76 C75 1_555 1_555
H64 C76 1_555 1_555
C77 N19 1_555 1_555
N20 N21 1_555 1_555
N21 Cu1 1_555 1_555
C78 C77 1_555 1_555
C79 C78 1_555 1_555
H65 C79 1_555 1_555
C80 N20 1_555 1_555
H66 C80 1_555 1_555
C81 N20 1_555 1_555
H67 C81 1_555 1_555
H68 C81 1_555 1_555
N22 C82 1_555 1_555
C82 H69 1_555 1_555
C83 C82 1_555 1_555
H70 C83 1_555 1_555
C84 C83 1_555 1_555
H71 C84 1_555 1_555
C85 C84 1_555 1_555
H72 C85 1_555 1_555
C86 N22 1_555 1_555
N23 N24 1_555 1_555
N24 Cu4 1_555 1_555
C87 C86 1_555 1_555
C88 C87 1_555 1_555
H73 C88 1_555 1_555
C89 N23 1_555 1_555
H74 C89 1_555 1_555
C90 N23 1_555 1_555
H75 C90 1_555 1_555
H76 C90 1_555 1_555
C91 C81 1_555 1_555
C92 C91 1_555 1_555
H77 C92 1_555 1_555
C93 C92 1_555 1_555
H78 C93 1_555 1_555
C94 C90 1_555 1_555
C95 C94 1_555 1_555
H79 C95 1_555 1_555
C96 C91 1_555 1_555
H80 C96 1_555 1_555
N25 Cu2 1_555 1_555
C97 N25 1_555 1_555
H81 C97 1_555 1_555
C98 C97 1_555 1_555
H82 C98 1_555 1_555
C99 C98 1_555 1_555
H83 C99 1_555 1_555
C100 C99 1_555 1_555
H84 C100 1_555 1_555
C101 N25 1_555 1_555
N26 N27 1_555 1_555
N27 Cu2 1_555 1_555
C102 C101 1_555 1_555
C103 C102 1_555 1_555
H85 C103 1_555 1_555
C104 N26 1_555 1_555
H86 C104 1_555 1_555
C105 N26 1_555 1_555
H87 C105 1_555 1_555
H88 C105 1_555 1_555
N28 C106 1_555 1_555
C106 H89 1_555 1_555
C107 C106 1_555 1_555
H90 C107 1_555 1_555
C108 C107 1_555 1_555
H91 C108 1_555 1_555
C109 C108 1_555 1_555
H92 C109 1_555 1_555
C110 N28 1_555 1_555
N29 N30 1_555 1_555
N30 Cu5 1_555 1_555
C111 C110 1_555 1_555
C112 C111 1_555 1_555
H93 C112 1_555 1_555
C113 N29 1_555 1_555
H94 C113 1_555 1_555
C114 N29 1_555 1_555
H95 C114 1_555 1_555
H96 C114 1_555 1_555
C115 C105 1_555 1_555
C116 C115 1_555 1_555
H97 C116 1_555 1_555
C117 C116 1_555 1_555
H98 C117 1_555 1_555
C118 C114 1_555 1_555
C119 C118 1_555 1_555
H99 C119 1_555 1_555
C120 C115 1_555 1_555
H100 C120 1_555 1_555
N31 Cu3 1_555 1_555
C121 N31 1_555 1_555
H101 C121 1_555 1_555
C122 C121 1_555 1_555
H102 C122 1_555 1_555
C123 C122 1_555 1_555
H103 C123 1_555 1_555
C124 C123 1_555 1_555
H104 C124 1_555 1_555
C125 N31 1_555 1_555
N32 N33 1_555 1_555
N33 Cu3 1_555 1_555
C126 C125 1_555 1_555
C127 C126 1_555 1_555
H105 C127 1_555 1_555
C128 N32 1_555 1_555
H106 C128 1_555 1_555
C129 N32 1_555 1_555
H107 C129 1_555 1_555
H108 C129 1_555 1_555
N34 C130 1_555 1_555
C130 H109 1_555 1_555
C131 C130 1_555 1_555
H110 C131 1_555 1_555
C132 C131 1_555 1_555
H111 C132 1_555 1_555
C133 C132 1_555 1_555
H112 C133 1_555 1_555
C134 N34 1_555 1_555
N35 N36 1_555 1_555
N36 Cu6 1_555 1_555
C135 C134 1_555 1_555
C136 C135 1_555 1_555
H113 C136 1_555 1_555
C137 N35 1_555 1_555
H114 C137 1_555 1_555
C138 N35 1_555 1_555
H115 C138 1_555 1_555
H116 C138 1_555 1_555
C139 C129 1_555 1_555
C140 C139 1_555 1_555
H117 C140 1_555 1_555
C141 C140 1_555 1_555
H118 C141 1_555 1_555
C142 C138 1_555 1_555
C143 C142 1_555 1_555
H119 C143 1_555 1_555
C144 C139 1_555 1_555
H120 C144 1_555 1_555
N37 Cu4 1_555 1_555
C145 N37 1_555 1_555
H121 C145 1_555 1_555
C146 C145 1_555 1_555
H122 C146 1_555 1_555
C147 C146 1_555 1_555
H123 C147 1_555 1_555
C148 C147 1_555 1_555
H124 C148 1_555 1_555
C149 N37 1_555 1_555
N38 N39 1_555 1_555
N39 Cu4 1_555 1_555
C150 C149 1_555 1_555
C151 C150 1_555 1_555
H125 C151 1_555 1_555
C152 N38 1_555 1_555
H126 C152 1_555 1_555
C153 N38 1_555 1_555
H127 C153 1_555 1_555
H128 C153 1_555 1_555
N40 Cu5 1_555 1_555
C154 N40 1_555 1_555
H129 C154 1_555 1_555
C155 C154 1_555 1_555
H130 C155 1_555 1_555
C156 C155 1_555 1_555
H131 C156 1_555 1_555
C157 C156 1_555 1_555
H132 C157 1_555 1_555
C158 N40 1_555 1_555
N41 N42 1_555 1_555
N42 Cu5 1_555 1_555
C159 C158 1_555 1_555
C160 C159 1_555 1_555
H133 C160 1_555 1_555
C161 N41 1_555 1_555
H134 C161 1_555 1_555
C162 N41 1_555 1_555
H135 C162 1_555 1_555
H136 C162 1_555 1_555
C163 C153 1_555 1_555
C164 C163 1_555 1_555
H137 C164 1_555 1_555
C165 C164 1_555 1_555
H138 C165 1_555 1_555
C166 C162 1_555 1_555
C167 C166 1_555 1_555
H139 C167 1_555 1_555
C168 C163 1_555 1_555
H140 C168 1_555 1_555
N43 Cu5 1_555 1_555
C169 N43 1_555 1_555
H141 C169 1_555 1_555
C170 C169 1_555 1_555
H142 C170 1_555 1_555
C171 C170 1_555 1_555
H143 C171 1_555 1_555
C172 C171 1_555 1_555
H144 C172 1_555 1_555
C173 N43 1_555 1_555
N44 N45 1_555 1_555
N45 Cu5 1_555 1_555
C174 C173 1_555 1_555
C175 C174 1_555 1_555
H145 C175 1_555 1_555
C176 N44 1_555 1_555
H146 C176 1_555 1_555
C177 N44 1_555 1_555
H147 C177 1_555 1_555
H148 C177 1_555 1_555
N46 Cu6 1_555 1_555
C178 N46 1_555 1_555
H149 C178 1_555 1_555
C179 C178 1_555 1_555
H150 C179 1_555 1_555
C180 C179 1_555 1_555
H151 C180 1_555 1_555
C181 C180 1_555 1_555
H152 C181 1_555 1_555
C182 N46 1_555 1_555
N47 N48 1_555 1_555
N48 Cu6 1_555 1_555
C183 C182 1_555 1_555
C184 C183 1_555 1_555
H153 C184 1_555 1_555
C185 N47 1_555 1_555
H154 C185 1_555 1_555
C186 N47 1_555 1_555
H155 C186 1_555 1_555
H156 C186 1_555 1_555
C187 C177 1_555 1_555
C188 C187 1_555 1_555
H157 C188 1_555 1_555
C189 C188 1_555 1_555
H158 C189 1_555 1_555
C190 C186 1_555 1_555
C191 C190 1_555 1_555
H159 C191 1_555 1_555
C192 C187 1_555 1_555
H160 C192 1_555 1_555
N49 Cu4 1_555 1_555
C193 N49 1_555 1_555
H161 C193 1_555 1_555
C194 C193 1_555 1_555
H162 C194 1_555 1_555
C195 C194 1_555 1_555
H163 C195 1_555 1_555
C196 C195 1_555 1_555
H164 C196 1_555 1_555
C197 N49 1_555 1_555
N50 N51 1_555 1_555
N51 Cu4 1_555 1_555
C198 C197 1_555 1_555
C199 C198 1_555 1_555
H165 C199 1_555 1_555
C200 N50 1_555 1_555
H166 C200 1_555 1_555
C201 N50 1_555 1_555
H167 C201 1_555 1_555
H168 C201 1_555 1_555
N52 Cu6 1_555 1_555
C202 N52 1_555 1_555
H169 C202 1_555 1_555
C203 C202 1_555 1_555
H170 C203 1_555 1_555
C204 C203 1_555 1_555
H171 C204 1_555 1_555
C205 C204 1_555 1_555
H172 C205 1_555 1_555
C206 N52 1_555 1_555
N53 N54 1_555 1_555
N54 Cu6 1_555 1_555
C207 C206 1_555 1_555
C208 C207 1_555 1_555
H173 C208 1_555 1_555
C209 N53 1_555 1_555
H174 C209 1_555 1_555
C210 N53 1_555 1_555
H175 C210 1_555 1_555
H176 C210 1_555 1_555
C211 C201 1_555 1_555
C212 C211 1_555 1_555
H177 C212 1_555 1_555
C213 C212 1_555 1_555
H178 C213 1_555 1_555
C214 C210 1_555 1_555
C215 C214 1_555 1_555
H179 C215 1_555 1_555
C216 C211 1_555 1_555
H180 C216 1_555 1_555
B1 F1 1_555 1_555
F2 B1 1_555 1_555
F3 B1 1_555 1_555
F4 B1 1_555 1_555
B2 F5 1_555 1_555
F6 B2 1_555 1_555
F7 B2 1_555 1_555
F8 B2 1_555 1_555
B3 F9 1_555 1_555
F10 B3 1_555 1_555
F11 B3 1_555 1_555
F12 B3 1_555 1_555
B4 F13 1_555 1_555
F14 B4 1_555 1_555
F15 B4 1_555 1_555
F16 B4 1_555 1_555
B5 F17 1_555 1_555
F18 B5 1_555 1_555
F19 B5 1_555 1_555
F20 B5 1_555 1_555
B6 F21 1_555 1_555
F22 B6 1_555 1_555
F23 B6 1_555 1_555
F24 B6 1_555 1_555
C4 C5 1_555 1_555
N3 C6 1_555 1_555
C7 C8 1_555 1_555
C13 C14 1_555 1_555
N6 C15 1_555 1_555
C16 C17 1_555 1_555
C21 C22 1_555 1_555
C23 C24 1_555 1_555
C28 C29 1_555 1_555
N9 C30 1_555 1_555
C31 C32 1_555 1_555
C37 C38 1_555 1_555
N12 C39 1_555 1_555
C40 C41 1_555 1_555
C45 C46 1_555 1_555
C47 C48 1_555 1_555
C52 C53 1_555 1_555
N15 C54 1_555 1_555
C55 C56 1_555 1_555
C61 C62 1_555 1_555
N18 C63 1_555 1_555
C64 C65 1_555 1_555
C69 C70 1_555 1_555
C71 C72 1_555 1_555
C76 C77 1_555 1_555
N21 C78 1_555 1_555
C79 C80 1_555 1_555
C85 C86 1_555 1_555
N24 C87 1_555 1_555
C88 C89 1_555 1_555
C93 C94 1_555 1_555
C95 C96 1_555 1_555
C100 C101 1_555 1_555
N27 C102 1_555 1_555
C103 C104 1_555 1_555
C109 C110 1_555 1_555
N30 C111 1_555 1_555
C112 C113 1_555 1_555
C117 C118 1_555 1_555
C119 C120 1_555 1_555
C124 C125 1_555 1_555
N33 C126 1_555 1_555
C127 C128 1_555 1_555
C133 C134 1_555 1_555
N36 C135 1_555 1_555
C136 C137 1_555 1_555
C141 C142 1_555 1_555
C143 C144 1_555 1_555
C148 C149 1_555 1_555
N39 C150 1_555 1_555
C151 C152 1_555 1_555
C157 C158 1_555 1_555
N42 C159 1_555 1_555
C160 C161 1_555 1_555
C165 C166 1_555 1_555
C167 C168 1_555 1_555
C172 C173 1_555 1_555
N45 C174 1_555 1_555
C175 C176 1_555 1_555
C181 C182 1_555 1_555
N48 C183 1_555 1_555
C184 C185 1_555 1_555
C189 C190 1_555 1_555
C191 C192 1_555 1_555
C196 C197 1_555 1_555
N51 C198 1_555 1_555
C199 C200 1_555 1_555
C205 C206 1_555 1_555
N54 C207 1_555 1_555
C208 C209 1_555 1_555
C213 C214 1_555 1_555
C215 C216 1_555 1_555

#END
