# generated using pymatgen
data_Si3Ni8B9H294C306N90(O12F19)3
_symmetry_space_group_name_H-M   'P 1'
_cell_length_a   26.06070000
_cell_length_b   26.06070000
_cell_length_c   36.20100221
_cell_angle_alpha   68.90321516
_cell_angle_beta   68.90321516
_cell_angle_gamma   60.00000000
_symmetry_Int_Tables_number   1
_chemical_formula_structural   Si3Ni8B9H294C306N90(O12F19)3
_chemical_formula_sum   'Si6 Ni16 B18 H588 C612 N180 O72 F114'
_cell_volume   19366.12089109
_cell_formula_units_Z   2
loop_
 _symmetry_equiv_pos_site_id
 _symmetry_equiv_pos_as_xyz
  1  'x, y, z'
loop_
 _atom_site_type_symbol
 _atom_site_label
 _atom_site_symmetry_multiplicity
 _atom_site_fract_x
 _atom_site_fract_y
 _atom_site_fract_z
 _atom_site_occupancy
  B  B1  1  0.490100  0.846300  0.095100  1
  B  B2  1  0.568500  0.490100  0.095100  1
  B  B3  1  0.846300  0.568500  0.095100  1
  B  B4  1  0.931500  0.653700  0.404900  1
  B  B5  1  0.653700  0.009900  0.404900  1
  B  B6  1  0.009900  0.931500  0.404900  1
  B  B7  1  0.509900  0.153700  0.904900  1
  B  B8  1  0.431500  0.509900  0.904900  1
  B  B9  1  0.153700  0.431500  0.904900  1
  B  B10  1  0.068500  0.346300  0.595100  1
  B  B11  1  0.346300  0.990100  0.595100  1
  B  B12  1  0.990100  0.068500  0.595100  1
  B  B13  1  0.327683  0.327683  0.016950  1
  B  B14  1  0.172317  0.172317  0.483050  1
  B  B15  1  0.672317  0.672317  0.983050  1
  B  B16  1  0.827683  0.827683  0.516950  1
  B  B17  1  0.992890  0.992890  0.021330  0.5
  F  F18  1  0.992890  0.992890  0.021330  0.5
  B  B19  1  0.507110  0.507110  0.478670  0.5
  F  F20  1  0.507110  0.507110  0.478670  0.5
  B  B21  1  0.007110  0.007110  0.978670  0.5
  F  F22  1  0.007110  0.007110  0.978670  0.5
  B  B23  1  0.492890  0.492890  0.521330  0.5
  F  F24  1  0.492890  0.492890  0.521330  0.5
  C  C25  1  0.014070  0.580170  0.284790  1
  C  C26  1  0.120970  0.014070  0.284790  1
  C  C27  1  0.580170  0.120970  0.284790  1
  C  C28  1  0.379030  0.919830  0.215210  1
  C  C29  1  0.919830  0.485930  0.215210  1
  C  C30  1  0.485930  0.379030  0.215210  1
  C  C31  1  0.985930  0.419830  0.715210  1
  C  C32  1  0.879030  0.985930  0.715210  1
  C  C33  1  0.419830  0.879030  0.715210  1
  C  C34  1  0.620970  0.080170  0.784790  1
  C  C35  1  0.080170  0.514070  0.784790  1
  C  C36  1  0.514070  0.620970  0.784790  1
  C  C37  1  0.695850  0.533050  0.088050  1
  C  C38  1  0.683050  0.695850  0.088050  1
  C  C39  1  0.533050  0.683050  0.088050  1
  C  C40  1  0.816950  0.966950  0.411950  1
  C  C41  1  0.966950  0.804150  0.411950  1
  C  C42  1  0.804150  0.816950  0.411950  1
  C  C43  1  0.304150  0.466950  0.911950  1
  C  C44  1  0.316950  0.304150  0.911950  1
  C  C45  1  0.466950  0.316950  0.911950  1
  C  C46  1  0.183050  0.033050  0.588050  1
  C  C47  1  0.033050  0.195850  0.588050  1
  C  C48  1  0.195850  0.183050  0.588050  1
  C  C49  1  0.742120  0.316020  0.149640  1
  C  C50  1  0.792220  0.742120  0.149640  1
  C  C51  1  0.316020  0.792220  0.149640  1
  C  C52  1  0.707780  0.183980  0.350360  1
  C  C53  1  0.183980  0.757880  0.350360  1
  C  C54  1  0.757880  0.707780  0.350360  1
  C  C55  1  0.257880  0.683980  0.850360  1
  C  C56  1  0.207780  0.257880  0.850360  1
  C  C57  1  0.683980  0.207780  0.850360  1
  C  C58  1  0.292220  0.816020  0.649640  1
  C  C59  1  0.816020  0.242120  0.649640  1
  C  C60  1  0.242120  0.292220  0.649640  1
  C  C61  1  0.157350  0.510150  0.014550  1.0
  C  C62  1  0.317950  0.157350  0.014550  1.0
  C  C63  1  0.510150  0.317950  0.014550  1.0
  C  C64  1  0.182050  0.989850  0.485450  1.0
  C  C65  1  0.989850  0.342650  0.485450  1.0
  C  C66  1  0.342650  0.182050  0.485450  1.0
  C  C67  1  0.842650  0.489850  0.985450  1.0
  C  C68  1  0.682050  0.842650  0.985450  1.0
  C  C69  1  0.489850  0.682050  0.985450  1.0
  C  C70  1  0.817950  0.010150  0.514550  1.0
  C  C71  1  0.010150  0.657350  0.514550  1.0
  C  C72  1  0.657350  0.817950  0.514550  1.0
  C  C73  1  0.135360  0.496760  0.991420  1.0
  C  C74  1  0.376460  0.135360  0.991420  1.0
  C  C75  1  0.496760  0.376460  0.991420  1.0
  C  C76  1  0.123540  0.003240  0.508580  1.0
  C  C77  1  0.003240  0.364640  0.508580  1.0
  C  C78  1  0.364640  0.123540  0.508580  1.0
  C  C79  1  0.864640  0.503240  0.008580  1.0
  C  C80  1  0.623540  0.864640  0.008580  1.0
  C  C81  1  0.503240  0.623540  0.008580  1.0
  C  C82  1  0.876460  0.996760  0.491420  1.0
  C  C83  1  0.996760  0.635360  0.491420  1.0
  C  C84  1  0.635360  0.876460  0.491420  1.0
  C  C85  1  0.072940  0.512640  0.001380  1.0
  C  C86  1  0.413040  0.072940  0.001380  1.0
  C  C87  1  0.512640  0.413040  0.001380  1.0
  C  C88  1  0.086960  0.987360  0.498620  1.0
  C  C89  1  0.987360  0.427060  0.498620  1.0
  C  C90  1  0.427060  0.086960  0.498620  1.0
  C  C91  1  0.927060  0.487360  0.998620  1.0
  C  C92  1  0.586960  0.927060  0.998620  1.0
  C  C93  1  0.487360  0.586960  0.998620  1.0
  C  C94  1  0.913040  0.012640  0.501380  1.0
  C  C95  1  0.012640  0.572940  0.501380  1.0
  C  C96  1  0.572940  0.913040  0.501380  1.0
  C  C97  1  0.036080  0.541380  0.032760  1.0
  C  C98  1  0.389780  0.036080  0.032760  1.0
  C  C99  1  0.541380  0.389780  0.032760  1.0
  C  C100  1  0.110220  0.958620  0.467240  1.0
  C  C101  1  0.958620  0.463920  0.467240  1.0
  C  C102  1  0.463920  0.110220  0.467240  1.0
  C  C103  1  0.963920  0.458620  0.967240  1.0
  C  C104  1  0.610220  0.963920  0.967240  1.0
  C  C105  1  0.458620  0.610220  0.967240  1.0
  C  C106  1  0.889780  0.041380  0.532760  1.0
  C  C107  1  0.041380  0.536080  0.532760  1.0
  C  C108  1  0.536080  0.889780  0.532760  1.0
  C  C109  1  0.061510  0.552710  0.054870  1.0
  C  C110  1  0.330910  0.061510  0.054870  1.0
  C  C111  1  0.552710  0.330910  0.054870  1.0
  C  C112  1  0.169090  0.947290  0.445130  1.0
  C  C113  1  0.947290  0.438490  0.445130  1.0
  C  C114  1  0.438490  0.169090  0.445130  1.0
  C  C115  1  0.938490  0.447290  0.945130  1.0
  C  C116  1  0.669090  0.938490  0.945130  1.0
  C  C117  1  0.447290  0.669090  0.945130  1.0
  C  C118  1  0.830910  0.052710  0.554870  1.0
  C  C119  1  0.052710  0.561510  0.554870  1.0
  C  C120  1  0.561510  0.830910  0.554870  1.0
  C  C121  1  0.025770  0.580970  0.089790  1.0
  C  C122  1  0.303470  0.025770  0.089790  1.0
  C  C123  1  0.580970  0.303470  0.089790  1.0
  C  C124  1  0.196530  0.919030  0.410210  1.0
  C  C125  1  0.919030  0.474230  0.410210  1.0
  C  C126  1  0.474230  0.196530  0.410210  1.0
  C  C127  1  0.974230  0.419030  0.910210  1.0
  C  C128  1  0.696530  0.974230  0.910210  1.0
  C  C129  1  0.419030  0.696530  0.910210  1.0
  C  C130  1  0.803470  0.080970  0.589790  1.0
  C  C131  1  0.080970  0.525770  0.589790  1.0
  C  C132  1  0.525770  0.803470  0.589790  1.0
  C  C133  1  0.966110  0.594210  0.110670  1.0
  C  C134  1  0.329010  0.966110  0.110670  1.0
  C  C135  1  0.594210  0.329010  0.110670  1.0
  C  C136  1  0.170990  0.905790  0.389330  1.0
  C  C137  1  0.905790  0.533890  0.389330  1.0
  C  C138  1  0.533890  0.170990  0.389330  1.0
  C  C139  1  0.033890  0.405790  0.889330  1.0
  C  C140  1  0.670990  0.033890  0.889330  1.0
  C  C141  1  0.405790  0.670990  0.889330  1.0
  C  C142  1  0.829010  0.094210  0.610670  1.0
  C  C143  1  0.094210  0.466110  0.610670  1.0
  C  C144  1  0.466110  0.829010  0.610670  1.0
  C  C145  1  0.958280  0.615880  0.141960  1.0
  C  C146  1  0.283880  0.958280  0.141960  1.0
  C  C147  1  0.615880  0.283880  0.141960  1.0
  C  C148  1  0.216120  0.884120  0.358040  1.0
  C  C149  1  0.884120  0.541720  0.358040  1.0
  C  C150  1  0.541720  0.216120  0.358040  1.0
  C  C151  1  0.041720  0.384120  0.858040  1.0
  C  C152  1  0.716120  0.041720  0.858040  1.0
  C  C153  1  0.384120  0.716120  0.858040  1.0
  C  C154  1  0.783880  0.115880  0.641960  1.0
  C  C155  1  0.115880  0.458280  0.641960  1.0
  C  C156  1  0.458280  0.783880  0.641960  1.0
  C  C157  1  0.026240  0.628440  0.169380  1.0
  C  C158  1  0.175940  0.026240  0.169380  1.0
  C  C159  1  0.628440  0.175940  0.169380  1.0
  C  C160  1  0.324060  0.871560  0.330620  1.0
  C  C161  1  0.871560  0.473760  0.330620  1.0
  C  C162  1  0.473760  0.324060  0.330620  1.0
  C  C163  1  0.973760  0.371560  0.830620  1.0
  C  C164  1  0.824060  0.973760  0.830620  1.0
  C  C165  1  0.371560  0.824060  0.830620  1.0
  C  C166  1  0.675940  0.128440  0.669380  1.0
  C  C167  1  0.128440  0.526240  0.669380  1.0
  C  C168  1  0.526240  0.675940  0.669380  1.0
  C  C169  1  0.058750  0.890650  0.200850  1.0
  C  C170  1  0.849750  0.058750  0.200850  1.0
  C  C171  1  0.890650  0.849750  0.200850  1.0
  C  C172  1  0.650250  0.609350  0.299150  1.0
  C  C173  1  0.609350  0.441250  0.299150  1.0
  C  C174  1  0.441250  0.650250  0.299150  1.0
  C  C175  1  0.941250  0.109350  0.799150  1.0
  C  C176  1  0.150250  0.941250  0.799150  1.0
  C  C177  1  0.109350  0.150250  0.799150  1.0
  C  C178  1  0.349750  0.390650  0.700850  1.0
  C  C179  1  0.390650  0.558750  0.700850  1.0
  C  C180  1  0.558750  0.349750  0.700850  1.0
  C  C181  1  0.118330  0.868030  0.178710  1.0
  C  C182  1  0.834930  0.118330  0.178710  1.0
  C  C183  1  0.868030  0.834930  0.178710  1.0
  C  C184  1  0.665070  0.631970  0.321290  1.0
  C  C185  1  0.631970  0.381670  0.321290  1.0
  C  C186  1  0.381670  0.665070  0.321290  1.0
  C  C187  1  0.881670  0.131970  0.821290  1.0
  C  C188  1  0.165070  0.881670  0.821290  1.0
  C  C189  1  0.131970  0.165070  0.821290  1.0
  C  C190  1  0.334930  0.368030  0.678710  1.0
  C  C191  1  0.368030  0.618330  0.678710  1.0
  C  C192  1  0.618330  0.334930  0.678710  1.0
  C  C193  1  0.114520  0.858120  0.145440  1.0
  C  C194  1  0.881920  0.114520  0.145440  1.0
  C  C195  1  0.858120  0.881920  0.145440  1.0
  C  C196  1  0.618080  0.641880  0.354560  1.0
  C  C197  1  0.641880  0.385480  0.354560  1.0
  C  C198  1  0.385480  0.618080  0.354560  1.0
  C  C199  1  0.885480  0.141880  0.854560  1.0
  C  C200  1  0.118080  0.885480  0.854560  1.0
  C  C201  1  0.141880  0.118080  0.854560  1.0
  C  C202  1  0.381920  0.358120  0.645440  1.0
  C  C203  1  0.358120  0.614520  0.645440  1.0
  C  C204  1  0.614520  0.381920  0.645440  1.0
  C  C205  1  0.031160  0.864760  0.122220  1.0
  C  C206  1  0.981860  0.031160  0.122220  1.0
  C  C207  1  0.864760  0.981860  0.122220  1.0
  C  C208  1  0.518140  0.635240  0.377780  1.0
  C  C209  1  0.635240  0.468840  0.377780  1.0
  C  C210  1  0.468840  0.518140  0.377780  1.0
  C  C211  1  0.968840  0.135240  0.877780  1.0
  C  C212  1  0.018140  0.968840  0.877780  1.0
  C  C213  1  0.135240  0.018140  0.877780  1.0
  C  C214  1  0.481860  0.364760  0.622220  1.0
  C  C215  1  0.364760  0.531160  0.622220  1.0
  C  C216  1  0.531160  0.481860  0.622220  1.0
  C  C217  1  0.026060  0.690360  0.156720  1.0
  C  C218  1  0.126860  0.026060  0.156720  1.0
  C  C219  1  0.690360  0.126860  0.156720  1.0
  C  C220  1  0.373140  0.809640  0.343280  1.0
  C  C221  1  0.809640  0.473940  0.343280  1.0
  C  C222  1  0.473940  0.373140  0.343280  1.0
  C  C223  1  0.973940  0.309640  0.843280  1.0
  C  C224  1  0.873140  0.973940  0.843280  1.0
  C  C225  1  0.309640  0.873140  0.843280  1.0
  C  C226  1  0.626860  0.190360  0.656720  1.0
  C  C227  1  0.190360  0.526060  0.656720  1.0
  C  C228  1  0.526060  0.626860  0.656720  1.0
  C  C229  1  0.045870  0.705470  0.180690  1.0
  C  C230  1  0.067970  0.045870  0.180690  1.0
  C  C231  1  0.705470  0.067970  0.180690  1.0
  C  C232  1  0.432030  0.794530  0.319310  1.0
  C  C233  1  0.794530  0.454130  0.319310  1.0
  C  C234  1  0.454130  0.432030  0.319310  1.0
  C  C235  1  0.954130  0.294530  0.819310  1.0
  C  C236  1  0.932030  0.954130  0.819310  1.0
  C  C237  1  0.294530  0.932030  0.819310  1.0
  C  C238  1  0.567970  0.205470  0.680690  1.0
  C  C239  1  0.205470  0.545870  0.680690  1.0
  C  C240  1  0.545870  0.567970  0.680690  1.0
  C  C241  1  0.046990  0.761690  0.170130  1.0
  C  C242  1  0.021190  0.046990  0.170130  1.0
  C  C243  1  0.761690  0.021190  0.170130  1.0
  C  C244  1  0.478810  0.738310  0.329870  1.0
  C  C245  1  0.738310  0.453010  0.329870  1.0
  C  C246  1  0.453010  0.478810  0.329870  1.0
  C  C247  1  0.953010  0.238310  0.829870  1.0
  C  C248  1  0.978810  0.953010  0.829870  1.0
  C  C249  1  0.238310  0.978810  0.829870  1.0
  C  C250  1  0.521190  0.261690  0.670130  1.0
  C  C251  1  0.261690  0.546990  0.670130  1.0
  C  C252  1  0.546990  0.521190  0.670130  1.0
  C  C253  1  0.028920  0.803120  0.135840  1.0
  C  C254  1  0.032120  0.028920  0.135840  1.0
  C  C255  1  0.803120  0.032120  0.135840  1.0
  C  C256  1  0.467880  0.696880  0.364160  1.0
  C  C257  1  0.696880  0.471080  0.364160  1.0
  C  C258  1  0.471080  0.467880  0.364160  1.0
  C  C259  1  0.971080  0.196880  0.864160  1.0
  C  C260  1  0.967880  0.971080  0.864160  1.0
  C  C261  1  0.196880  0.967880  0.864160  1.0
  C  C262  1  0.532120  0.303120  0.635840  1.0
  C  C263  1  0.303120  0.528920  0.635840  1.0
  C  C264  1  0.528920  0.532120  0.635840  1.0
  C  C265  1  0.008410  0.789510  0.111870  1.0
  C  C266  1  0.090210  0.008410  0.111870  1.0
  C  C267  1  0.789510  0.090210  0.111870  1.0
  C  C268  1  0.409790  0.710490  0.388130  1.0
  C  C269  1  0.710490  0.491590  0.388130  1.0
  C  C270  1  0.491590  0.409790  0.388130  1.0
  C  C271  1  0.991590  0.210490  0.888130  1.0
  C  C272  1  0.909790  0.991590  0.888130  1.0
  C  C273  1  0.210490  0.909790  0.888130  1.0
  C  C274  1  0.590210  0.289510  0.611870  1.0
  C  C275  1  0.289510  0.508410  0.611870  1.0
  C  C276  1  0.508410  0.590210  0.611870  1.0
  C  C277  1  0.007090  0.732990  0.122130  1.0
  C  C278  1  0.137790  0.007090  0.122130  1.0
  C  C279  1  0.732990  0.137790  0.122130  1.0
  C  C280  1  0.362210  0.767010  0.377870  1.0
  C  C281  1  0.767010  0.492910  0.377870  1.0
  C  C282  1  0.492910  0.362210  0.377870  1.0
  C  C283  1  0.992910  0.267010  0.877870  1.0
  C  C284  1  0.862210  0.992910  0.877870  1.0
  C  C285  1  0.267010  0.862210  0.877870  1.0
  C  C286  1  0.637790  0.232990  0.622130  1.0
  C  C287  1  0.232990  0.507090  0.622130  1.0
  C  C288  1  0.507090  0.637790  0.622130  1.0
  C  C289  1  0.189590  0.576290  0.145830  1.0
  C  C290  1  0.088290  0.189590  0.145830  1.0
  C  C291  1  0.576290  0.088290  0.145830  1.0
  C  C292  1  0.411710  0.923710  0.354170  1.0
  C  C293  1  0.923710  0.310410  0.354170  1.0
  C  C294  1  0.310410  0.411710  0.354170  1.0
  C  C295  1  0.810410  0.423710  0.854170  1.0
  C  C296  1  0.911710  0.810410  0.854170  1.0
  C  C297  1  0.423710  0.911710  0.854170  1.0
  C  C298  1  0.588290  0.076290  0.645830  1.0
  C  C299  1  0.076290  0.689590  0.645830  1.0
  C  C300  1  0.689590  0.588290  0.645830  1.0
  C  C301  1  0.207240  0.604240  0.163380  1.0
  C  C302  1  0.025140  0.207240  0.163380  1.0
  C  C303  1  0.604240  0.025140  0.163380  1.0
  C  C304  1  0.474860  0.895760  0.336620  1.0
  C  C305  1  0.895760  0.292760  0.336620  1.0
  C  C306  1  0.292760  0.474860  0.336620  1.0
  C  C307  1  0.792760  0.395760  0.836620  1.0
  C  C308  1  0.974860  0.792760  0.836620  1.0
  C  C309  1  0.395760  0.974860  0.836620  1.0
  C  C310  1  0.525140  0.104240  0.663380  1.0
  C  C311  1  0.104240  0.707240  0.663380  1.0
  C  C312  1  0.707240  0.525140  0.663380  1.0
  C  C313  1  0.204500  0.659400  0.144900  1.0
  C  C314  1  0.991200  0.204500  0.144900  1.0
  C  C315  1  0.659400  0.991200  0.144900  1.0
  C  C316  1  0.508800  0.840600  0.355100  1.0
  C  C317  1  0.840600  0.295500  0.355100  1.0
  C  C318  1  0.295500  0.508800  0.355100  1.0
  C  C319  1  0.795500  0.340600  0.855100  1.0
  C  C320  1  0.008800  0.795500  0.855100  1.0
  C  C321  1  0.340600  0.008800  0.855100  1.0
  C  C322  1  0.491200  0.159400  0.644900  1.0
  C  C323  1  0.159400  0.704500  0.644900  1.0
  C  C324  1  0.704500  0.491200  0.644900  1.0
  C  C325  1  0.183480  0.690780  0.108660  1.0
  C  C326  1  0.017080  0.183480  0.108660  1.0
  C  C327  1  0.690780  0.017080  0.108660  1.0
  C  C328  1  0.482920  0.809220  0.391340  1.0
  C  C329  1  0.809220  0.316520  0.391340  1.0
  C  C330  1  0.316520  0.482920  0.391340  1.0
  C  C331  1  0.816520  0.309220  0.891340  1.0
  C  C332  1  0.982920  0.816520  0.891340  1.0
  C  C333  1  0.309220  0.982920  0.891340  1.0
  C  C334  1  0.517080  0.190780  0.608660  1.0
  C  C335  1  0.190780  0.683480  0.608660  1.0
  C  C336  1  0.683480  0.517080  0.608660  1.0
  C  C337  1  0.166550  0.659950  0.093750  1.0
  C  C338  1  0.079750  0.166550  0.093750  1.0
  C  C339  1  0.659950  0.079750  0.093750  1.0
  C  C340  1  0.420250  0.840050  0.406250  1.0
  C  C341  1  0.840050  0.333450  0.406250  1.0
  C  C342  1  0.333450  0.420250  0.406250  1.0
  C  C343  1  0.833450  0.340050  0.906250  1.0
  C  C344  1  0.920250  0.833450  0.906250  1.0
  C  C345  1  0.340050  0.920250  0.906250  1.0
  C  C346  1  0.579750  0.159950  0.593750  1.0
  C  C347  1  0.159950  0.666550  0.593750  1.0
  C  C348  1  0.666550  0.579750  0.593750  1.0
  C  C349  1  0.144640  0.687940  0.056280  1.0
  C  C350  1  0.111140  0.144640  0.056280  1.0
  C  C351  1  0.687940  0.111140  0.056280  1.0
  C  C352  1  0.388860  0.812060  0.443720  1.0
  C  C353  1  0.812060  0.355360  0.443720  1.0
  C  C354  1  0.355360  0.388860  0.443720  1.0
  C  C355  1  0.855360  0.312060  0.943720  1.0
  C  C356  1  0.888860  0.855360  0.943720  1.0
  C  C357  1  0.312060  0.888860  0.943720  1.0
  C  C358  1  0.611140  0.187940  0.556280  1.0
  C  C359  1  0.187940  0.644640  0.556280  1.0
  C  C360  1  0.644640  0.611140  0.556280  1.0
  C  C361  1  0.133480  0.745380  0.029460  1.0
  C  C362  1  0.091680  0.133480  0.029460  1.0
  C  C363  1  0.745380  0.091680  0.029460  1.0
  C  C364  1  0.408320  0.754620  0.470540  1.0
  C  C365  1  0.754620  0.366520  0.470540  1.0
  C  C366  1  0.366520  0.408320  0.470540  1.0
  C  C367  1  0.866520  0.254620  0.970540  1.0
  C  C368  1  0.908320  0.866520  0.970540  1.0
  C  C369  1  0.254620  0.908320  0.970540  1.0
  C  C370  1  0.591680  0.245380  0.529460  1.0
  C  C371  1  0.245380  0.633480  0.529460  1.0
  C  C372  1  0.633480  0.591680  0.529460  1.0
  C  C373  1  0.119130  0.744130  0.999010  1.0
  C  C374  1  0.137730  0.119130  0.999010  1.0
  C  C375  1  0.744130  0.137730  0.999010  1.0
  C  C376  1  0.362270  0.755870  0.500990  1.0
  C  C377  1  0.755870  0.380870  0.500990  1.0
  C  C378  1  0.380870  0.362270  0.500990  1.0
  C  C379  1  0.880870  0.255870  0.000990  1.0
  C  C380  1  0.862270  0.880870  0.000990  1.0
  C  C381  1  0.255870  0.862270  0.000990  1.0
  C  C382  1  0.637730  0.244130  0.499010  1.0
  C  C383  1  0.244130  0.619130  0.499010  1.0
  C  C384  1  0.619130  0.637730  0.499010  1.0
  C  C385  1  0.103780  0.671180  0.979360  1.0
  C  C386  1  0.245680  0.103780  0.979360  1.0
  C  C387  1  0.671180  0.245680  0.979360  1.0
  C  C388  1  0.254320  0.828820  0.520640  1.0
  C  C389  1  0.828820  0.396220  0.520640  1.0
  C  C390  1  0.396220  0.254320  0.520640  1.0
  C  C391  1  0.896220  0.328820  0.020640  1.0
  C  C392  1  0.754320  0.896220  0.020640  1.0
  C  C393  1  0.328820  0.754320  0.020640  1.0
  C  C394  1  0.745680  0.171180  0.479360  1.0
  C  C395  1  0.171180  0.603780  0.479360  1.0
  C  C396  1  0.603780  0.745680  0.479360  1.0
  C  C397  1  0.037300  0.687400  0.987700  1.0
  C  C398  1  0.287600  0.037300  0.987700  1.0
  C  C399  1  0.687400  0.287600  0.987700  1.0
  C  C400  1  0.212400  0.812600  0.512300  1.0
  C  C401  1  0.812600  0.462700  0.512300  1.0
  C  C402  1  0.462700  0.212400  0.512300  1.0
  C  C403  1  0.962700  0.312600  0.012300  1.0
  C  C404  1  0.712400  0.962700  0.012300  1.0
  C  C405  1  0.312600  0.712400  0.012300  1.0
  C  C406  1  0.787600  0.187400  0.487700  1.0
  C  C407  1  0.187400  0.537300  0.487700  1.0
  C  C408  1  0.537300  0.787600  0.487700  1.0
  C  C409  1  0.017500  0.676300  0.961900  1.0
  C  C410  1  0.344300  0.017500  0.961900  1.0
  C  C411  1  0.676300  0.344300  0.961900  1.0
  C  C412  1  0.155700  0.823700  0.538100  1.0
  C  C413  1  0.823700  0.482500  0.538100  1.0
  C  C414  1  0.482500  0.155700  0.538100  1.0
  C  C415  1  0.982500  0.323700  0.038100  1.0
  C  C416  1  0.655700  0.982500  0.038100  1.0
  C  C417  1  0.323700  0.655700  0.038100  1.0
  C  C418  1  0.844300  0.176300  0.461900  1.0
  C  C419  1  0.176300  0.517500  0.461900  1.0
  C  C420  1  0.517500  0.844300  0.461900  1.0
  C  C421  1  0.995610  0.710610  0.020970  1.0
  C  C422  1  0.272810  0.995610  0.020970  1.0
  C  C423  1  0.710610  0.272810  0.020970  1.0
  C  C424  1  0.227190  0.789390  0.479030  1.0
  C  C425  1  0.789390  0.504390  0.479030  1.0
  C  C426  1  0.504390  0.227190  0.479030  1.0
  C  C427  1  0.004390  0.289390  0.979030  1.0
  C  C428  1  0.727190  0.004390  0.979030  1.0
  C  C429  1  0.289390  0.727190  0.979030  1.0
  C  C430  1  0.772810  0.210610  0.520970  1.0
  C  C431  1  0.210610  0.495610  0.520970  1.0
  C  C432  1  0.495610  0.772810  0.520970  1.0
  C  C433  1  0.136180  0.466280  0.153660  1.0
  C  C434  1  0.243880  0.136180  0.153660  1.0
  C  C435  1  0.466280  0.243880  0.153660  1.0
  C  C436  1  0.256120  0.033720  0.346340  1.0
  C  C437  1  0.033720  0.363820  0.346340  1.0
  C  C438  1  0.363820  0.256120  0.346340  1.0
  C  C439  1  0.863820  0.533720  0.846340  1.0
  C  C440  1  0.756120  0.863820  0.846340  1.0
  C  C441  1  0.533720  0.756120  0.846340  1.0
  C  C442  1  0.743880  0.966280  0.653660  1.0
  C  C443  1  0.966280  0.636180  0.653660  1.0
  C  C444  1  0.636180  0.743880  0.653660  1.0
  C  C445  1  0.156640  0.410140  0.180180  1.0
  C  C446  1  0.253040  0.156640  0.180180  1.0
  C  C447  1  0.410140  0.253040  0.180180  1.0
  C  C448  1  0.246960  0.089860  0.319820  1.0
  C  C449  1  0.089860  0.343360  0.319820  1.0
  C  C450  1  0.343360  0.246960  0.319820  1.0
  C  C451  1  0.843360  0.589860  0.819820  1.0
  C  C452  1  0.746960  0.843360  0.819820  1.0
  C  C453  1  0.589860  0.746960  0.819820  1.0
  C  C454  1  0.753040  0.910140  0.680180  1.0
  C  C455  1  0.910140  0.656640  0.680180  1.0
  C  C456  1  0.656640  0.753040  0.680180  1.0
  C  C457  1  0.215690  0.371490  0.171330  1.0
  C  C458  1  0.241490  0.215690  0.171330  1.0
  C  C459  1  0.371490  0.241490  0.171330  1.0
  C  C460  1  0.258510  0.128510  0.328670  1.0
  C  C461  1  0.128510  0.284310  0.328670  1.0
  C  C462  1  0.284310  0.258510  0.328670  1.0
  C  C463  1  0.784310  0.628510  0.828670  1.0
  C  C464  1  0.758510  0.784310  0.828670  1.0
  C  C465  1  0.628510  0.758510  0.828670  1.0
  C  C466  1  0.741490  0.871490  0.671330  1.0
  C  C467  1  0.871490  0.715690  0.671330  1.0
  C  C468  1  0.715690  0.741490  0.671330  1.0
  C  C469  1  0.254200  0.387100  0.136200  1.0
  C  C470  1  0.222500  0.254200  0.136200  1.0
  C  C471  1  0.387100  0.222500  0.136200  1.0
  C  C472  1  0.277500  0.112900  0.363800  1.0
  C  C473  1  0.112900  0.245800  0.363800  1.0
  C  C474  1  0.245800  0.277500  0.363800  1.0
  C  C475  1  0.745800  0.612900  0.863800  1.0
  C  C476  1  0.777500  0.745800  0.863800  1.0
  C  C477  1  0.612900  0.777500  0.863800  1.0
  C  C478  1  0.722500  0.887100  0.636200  1.0
  C  C479  1  0.887100  0.754200  0.636200  1.0
  C  C480  1  0.754200  0.722500  0.636200  1.0
  C  C481  1  0.231270  0.443970  0.110790  1.0
  C  C482  1  0.213970  0.231270  0.110790  1.0
  C  C483  1  0.443970  0.213970  0.110790  1.0
  C  C484  1  0.286030  0.056030  0.389210  1.0
  C  C485  1  0.056030  0.268730  0.389210  1.0
  C  C486  1  0.268730  0.286030  0.389210  1.0
  C  C487  1  0.768730  0.556030  0.889210  1.0
  C  C488  1  0.786030  0.768730  0.889210  1.0
  C  C489  1  0.556030  0.786030  0.889210  1.0
  C  C490  1  0.713970  0.943970  0.610790  1.0
  C  C491  1  0.943970  0.731270  0.610790  1.0
  C  C492  1  0.731270  0.713970  0.610790  1.0
  C  C493  1  0.267520  0.465820  0.072840  1.0
  C  C494  1  0.193820  0.267520  0.072840  1.0
  C  C495  1  0.465820  0.193820  0.072840  1.0
  C  C496  1  0.306180  0.034180  0.427160  1.0
  C  C497  1  0.034180  0.232480  0.427160  1.0
  C  C498  1  0.232480  0.306180  0.427160  1.0
  C  C499  1  0.732480  0.534180  0.927160  1.0
  C  C500  1  0.806180  0.732480  0.927160  1.0
  C  C501  1  0.534180  0.806180  0.927160  1.0
  C  C502  1  0.693820  0.965820  0.572840  1.0
  C  C503  1  0.965820  0.767520  0.572840  1.0
  C  C504  1  0.767520  0.693820  0.572840  1.0
  C  C505  1  0.328000  0.435700  0.053400  1.0
  C  C506  1  0.182900  0.328000  0.053400  1.0
  C  C507  1  0.435700  0.182900  0.053400  1.0
  C  C508  1  0.317100  0.064300  0.446600  1.0
  C  C509  1  0.064300  0.172000  0.446600  1.0
  C  C510  1  0.172000  0.317100  0.446600  1.0
  C  C511  1  0.672000  0.564300  0.946600  1.0
  C  C512  1  0.817100  0.672000  0.946600  1.0
  C  C513  1  0.564300  0.817100  0.946600  1.0
  C  C514  1  0.682900  0.935700  0.553400  1.0
  C  C515  1  0.935700  0.828000  0.553400  1.0
  C  C516  1  0.828000  0.682900  0.553400  1.0
  C  C517  1  0.336270  0.476170  0.018990  1.0
  C  C518  1  0.168570  0.336270  0.018990  1.0
  C  C519  1  0.476170  0.168570  0.018990  1.0
  C  C520  1  0.331430  0.023830  0.481010  1.0
  C  C521  1  0.023830  0.163730  0.481010  1.0
  C  C522  1  0.163730  0.331430  0.481010  1.0
  C  C523  1  0.663730  0.523830  0.981010  1.0
  C  C524  1  0.831430  0.663730  0.981010  1.0
  C  C525  1  0.523830  0.831430  0.981010  1.0
  C  C526  1  0.668570  0.976170  0.518990  1.0
  C  C527  1  0.976170  0.836270  0.518990  1.0
  C  C528  1  0.836270  0.668570  0.518990  1.0
  C  C529  1  0.274720  0.585920  0.988240  1.0
  C  C530  1  0.151120  0.274720  0.988240  1.0
  C  C531  1  0.585920  0.151120  0.988240  1.0
  C  C532  1  0.348880  0.914080  0.511760  1.0
  C  C533  1  0.914080  0.225280  0.511760  1.0
  C  C534  1  0.225280  0.348880  0.511760  1.0
  C  C535  1  0.725280  0.414080  0.011760  1.0
  C  C536  1  0.848880  0.725280  0.011760  1.0
  C  C537  1  0.414080  0.848880  0.011760  1.0
  C  C538  1  0.651120  0.085920  0.488240  1.0
  C  C539  1  0.085920  0.774720  0.488240  1.0
  C  C540  1  0.774720  0.651120  0.488240  1.0
  C  C541  1  0.287710  0.629210  0.998470  1.0
  C  C542  1  0.084610  0.287710  0.998470  1.0
  C  C543  1  0.629210  0.084610  0.998470  1.0
  C  C544  1  0.415390  0.870790  0.501530  1.0
  C  C545  1  0.870790  0.212290  0.501530  1.0
  C  C546  1  0.212290  0.415390  0.501530  1.0
  C  C547  1  0.712290  0.370790  0.001530  1.0
  C  C548  1  0.915390  0.712290  0.001530  1.0
  C  C549  1  0.370790  0.915390  0.001530  1.0
  C  C550  1  0.584610  0.129210  0.498470  1.0
  C  C551  1  0.129210  0.787710  0.498470  1.0
  C  C552  1  0.787710  0.584610  0.498470  1.0
  C  C553  1  0.956570  0.689470  0.968890  1.0
  C  C554  1  0.385070  0.956570  0.968890  1.0
  C  C555  1  0.689470  0.385070  0.968890  1.0
  C  C556  1  0.114930  0.810530  0.531110  1.0
  C  C557  1  0.810530  0.543430  0.531110  1.0
  C  C558  1  0.543430  0.114930  0.531110  1.0
  C  C559  1  0.043430  0.310530  0.031110  1.0
  C  C560  1  0.614930  0.043430  0.031110  1.0
  C  C561  1  0.310530  0.614930  0.031110  1.0
  C  C562  1  0.885070  0.189470  0.468890  1.0
  C  C563  1  0.189470  0.456570  0.468890  1.0
  C  C564  1  0.456570  0.885070  0.468890  1.0
  C  C565  1  0.934970  0.723170  0.027390  1.0
  C  C566  1  0.314470  0.934970  0.027390  1.0
  C  C567  1  0.723170  0.314470  0.027390  1.0
  C  C568  1  0.185530  0.776830  0.472610  1.0
  C  C569  1  0.776830  0.565030  0.472610  1.0
  C  C570  1  0.565030  0.185530  0.472610  1.0
  C  C571  1  0.065030  0.276830  0.972610  1.0
  C  C572  1  0.685530  0.065030  0.972610  1.0
  C  C573  1  0.276830  0.685530  0.972610  1.0
  C  C574  1  0.814470  0.223170  0.527390  1.0
  C  C575  1  0.223170  0.434970  0.527390  1.0
  C  C576  1  0.434970  0.814470  0.527390  1.0
  C  C577  1  0.033050  0.912350  0.238350  1.0
  C  C578  1  0.816250  0.033050  0.238350  1.0
  C  C579  1  0.912350  0.816250  0.238350  1.0
  C  C580  1  0.683750  0.587650  0.261650  1.0
  C  C581  1  0.587650  0.466950  0.261650  1.0
  C  C582  1  0.466950  0.683750  0.261650  1.0
  C  C583  1  0.966950  0.087650  0.761650  1.0
  C  C584  1  0.183750  0.966950  0.761650  1.0
  C  C585  1  0.087650  0.183750  0.761650  1.0
  C  C586  1  0.316250  0.412350  0.738350  1.0
  C  C587  1  0.412350  0.533050  0.738350  1.0
  C  C588  1  0.533050  0.316250  0.738350  1.0
  C  C589  1  0.068700  0.907700  0.261000  1.0
  C  C590  1  0.762600  0.068700  0.261000  1.0
  C  C591  1  0.907700  0.762600  0.261000  1.0
  C  C592  1  0.737400  0.592300  0.239000  1.0
  C  C593  1  0.592300  0.431300  0.239000  1.0
  C  C594  1  0.431300  0.737400  0.239000  1.0
  C  C595  1  0.931300  0.092300  0.739000  1.0
  C  C596  1  0.237400  0.931300  0.739000  1.0
  C  C597  1  0.092300  0.237400  0.739000  1.0
  C  C598  1  0.262600  0.407700  0.761000  1.0
  C  C599  1  0.407700  0.568700  0.761000  1.0
  C  C600  1  0.568700  0.262600  0.761000  1.0
  C  C601  1  0.041270  0.928670  0.296190  1.0
  C  C602  1  0.733870  0.041270  0.296190  1.0
  C  C603  1  0.928670  0.733870  0.296190  1.0
  C  C604  1  0.766130  0.571330  0.203810  1.0
  C  C605  1  0.571330  0.458730  0.203810  1.0
  C  C606  1  0.458730  0.766130  0.203810  1.0
  C  C607  1  0.958730  0.071330  0.703810  1.0
  C  C608  1  0.266130  0.958730  0.703810  1.0
  C  C609  1  0.071330  0.266130  0.703810  1.0
  C  C610  1  0.233870  0.428670  0.796190  1.0
  C  C611  1  0.428670  0.541270  0.796190  1.0
  C  C612  1  0.541270  0.233870  0.796190  1.0
  C  C613  1  0.977380  0.954880  0.307860  1.0
  C  C614  1  0.759880  0.977380  0.307860  1.0
  C  C615  1  0.954880  0.759880  0.307860  1.0
  C  C616  1  0.740120  0.545120  0.192140  1.0
  C  C617  1  0.545120  0.522620  0.192140  1.0
  C  C618  1  0.522620  0.740120  0.192140  1.0
  C  C619  1  0.022620  0.045120  0.692140  1.0
  C  C620  1  0.240120  0.022620  0.692140  1.0
  C  C621  1  0.045120  0.240120  0.692140  1.0
  C  C622  1  0.259880  0.454880  0.807860  1.0
  C  C623  1  0.454880  0.477380  0.807860  1.0
  C  C624  1  0.477380  0.259880  0.807860  1.0
  C  C625  1  0.958430  0.813230  0.283410  1.0
  C  C626  1  0.944930  0.958430  0.283410  1.0
  C  C627  1  0.813230  0.944930  0.283410  1.0
  C  C628  1  0.555070  0.686770  0.216590  1.0
  C  C629  1  0.686770  0.541570  0.216590  1.0
  C  C630  1  0.541570  0.555070  0.216590  1.0
  C  C631  1  0.041570  0.186770  0.716590  1.0
  C  C632  1  0.055070  0.041570  0.716590  1.0
  C  C633  1  0.186770  0.055070  0.716590  1.0
  C  C634  1  0.444930  0.313230  0.783410  1.0
  C  C635  1  0.313230  0.458430  0.783410  1.0
  C  C636  1  0.458430  0.444930  0.783410  1.0
  F  F637  1  0.549330  0.802200  0.091770  1
  F  F638  1  0.556700  0.549330  0.091770  1
  F  F639  1  0.802200  0.556700  0.091770  1
  F  F640  1  0.943300  0.697800  0.408230  1
  F  F641  1  0.697800  0.950670  0.408230  1
  F  F642  1  0.950670  0.943300  0.408230  1
  F  F643  1  0.450670  0.197800  0.908230  1
  F  F644  1  0.443300  0.450670  0.908230  1
  F  F645  1  0.197800  0.443300  0.908230  1
  F  F646  1  0.056700  0.302200  0.591770  1
  F  F647  1  0.302200  0.049330  0.591770  1
  F  F648  1  0.049330  0.056700  0.591770  1
  F  F649  1  0.473890  0.874200  0.126240  1
  F  F650  1  0.525670  0.473890  0.126240  1
  F  F651  1  0.874200  0.525670  0.126240  1
  F  F652  1  0.974330  0.625800  0.373760  1
  F  F653  1  0.625800  0.026110  0.373760  1
  F  F654  1  0.026110  0.974330  0.373760  1
  F  F655  1  0.526110  0.125800  0.873760  1
  F  F656  1  0.474330  0.526110  0.873760  1
  F  F657  1  0.125800  0.474330  0.873760  1
  F  F658  1  0.025670  0.374200  0.626240  1
  F  F659  1  0.374200  0.973890  0.626240  1
  F  F660  1  0.973890  0.025670  0.626240  1
  F  F661  1  0.482690  0.889610  0.059010  1
  F  F662  1  0.568690  0.482690  0.059010  1
  F  F663  1  0.889610  0.568690  0.059010  1
  F  F664  1  0.931310  0.610390  0.440990  1
  F  F665  1  0.610390  0.017310  0.440990  1
  F  F666  1  0.017310  0.931310  0.440990  1
  F  F667  1  0.517310  0.110390  0.940990  1
  F  F668  1  0.431310  0.517310  0.940990  1
  F  F669  1  0.110390  0.431310  0.940990  1
  F  F670  1  0.068690  0.389610  0.559010  1
  F  F671  1  0.389610  0.982690  0.559010  1
  F  F672  1  0.982690  0.068690  0.559010  1
  F  F673  1  0.450740  0.818580  0.104340  1
  F  F674  1  0.626340  0.450740  0.104340  1
  F  F675  1  0.818580  0.626340  0.104340  1
  F  F676  1  0.873660  0.681420  0.395660  1
  F  F677  1  0.681420  0.049260  0.395660  1
  F  F678  1  0.049260  0.873660  0.395660  1
  F  F679  1  0.549260  0.181420  0.895660  1
  F  F680  1  0.373660  0.549260  0.895660  1
  F  F681  1  0.181420  0.373660  0.895660  1
  F  F682  1  0.126340  0.318580  0.604340  1
  F  F683  1  0.318580  0.950740  0.604340  1
  F  F684  1  0.950740  0.126340  0.604340  1
  F  F685  1  0.314183  0.314183  0.057450  1
  F  F686  1  0.185817  0.185817  0.442550  1
  F  F687  1  0.685817  0.685817  0.942550  1
  F  F688  1  0.814183  0.814183  0.557450  1
  F  F689  1  0.914956  0.585022  0.250033  1
  F  F690  1  0.249989  0.914956  0.250033  1
  F  F691  1  0.585022  0.249989  0.250033  1
  F  F692  1  0.085044  0.414978  0.749967  1
  F  F693  1  0.750011  0.085044  0.749967  1
  F  F694  1  0.414978  0.750011  0.749967  1
  F  F695  1  0.785756  0.714222  0.250033  1
  F  F696  1  0.249989  0.785756  0.250033  1
  F  F697  1  0.714222  0.249989  0.250033  1
  F  F698  1  0.214244  0.285778  0.749967  1
  F  F699  1  0.750011  0.214244  0.749967  1
  F  F700  1  0.285778  0.750011  0.749967  1
  F  F701  1  0.045920  0.933020  0.031140  1
  F  F702  1  0.989920  0.045920  0.031140  1
  F  F703  1  0.933020  0.989920  0.031140  1
  F  F704  1  0.510080  0.566980  0.468860  1
  F  F705  1  0.566980  0.454080  0.468860  1
  F  F706  1  0.454080  0.510080  0.468860  1
  F  F707  1  0.954080  0.066980  0.968860  1
  F  F708  1  0.010080  0.954080  0.968860  1
  F  F709  1  0.066980  0.010080  0.968860  1
  F  F710  1  0.489920  0.433020  0.531140  1
  F  F711  1  0.433020  0.545920  0.531140  1
  F  F712  1  0.545920  0.489920  0.531140  1
  F  F713  1  0.865740  0.661650  0.286560  1.0
  F  F714  1  0.186050  0.865740  0.286560  1.0
  F  F715  1  0.661650  0.186050  0.286560  1.0
  F  F716  1  0.313950  0.838350  0.213440  1.0
  F  F717  1  0.838350  0.634260  0.213440  1.0
  F  F718  1  0.634260  0.313950  0.213440  1.0
  F  F719  1  0.134260  0.338350  0.713440  1.0
  F  F720  1  0.813950  0.134260  0.713440  1.0
  F  F721  1  0.338350  0.813950  0.713440  1.0
  F  F722  1  0.686050  0.161650  0.786560  1.0
  F  F723  1  0.161650  0.365740  0.786560  1.0
  F  F724  1  0.365740  0.686050  0.786560  1.0
  F  F725  1  0.884990  0.689890  0.214230  1.0
  F  F726  1  0.210890  0.884990  0.214230  1.0
  F  F727  1  0.689890  0.210890  0.214230  1.0
  F  F728  1  0.289110  0.810110  0.285770  1.0
  F  F729  1  0.810110  0.615010  0.285770  1.0
  F  F730  1  0.615010  0.289110  0.285770  1.0
  F  F731  1  0.115010  0.310110  0.785770  1.0
  F  F732  1  0.789110  0.115010  0.785770  1.0
  F  F733  1  0.310110  0.789110  0.785770  1.0
  F  F734  1  0.710890  0.189890  0.714230  1.0
  F  F735  1  0.189890  0.384990  0.714230  1.0
  F  F736  1  0.384990  0.710890  0.714230  1.0
  F  F737  1  0.280910  0.383610  0.001770  1.0
  F  F738  1  0.333710  0.280910  0.001770  1.0
  F  F739  1  0.383610  0.333710  0.001770  1.0
  F  F740  1  0.166290  0.116390  0.498230  1.0
  F  F741  1  0.116390  0.219090  0.498230  1.0
  F  F742  1  0.219090  0.166290  0.498230  1.0
  F  F743  1  0.719090  0.616390  0.998230  1.0
  F  F744  1  0.666290  0.719090  0.998230  1.0
  F  F745  1  0.616390  0.666290  0.998230  1.0
  F  F746  1  0.833710  0.883610  0.501770  1.0
  F  F747  1  0.883610  0.780910  0.501770  1.0
  F  F748  1  0.780910  0.833710  0.501770  1.0
  H  H749  1  0.023000  0.615300  0.269100  1
  H  H750  1  0.092600  0.023000  0.269100  1
  H  H751  1  0.615300  0.092600  0.269100  1
  H  H752  1  0.407400  0.884700  0.230900  1
  H  H753  1  0.884700  0.477000  0.230900  1
  H  H754  1  0.477000  0.407400  0.230900  1
  H  H755  1  0.977000  0.384700  0.730900  1
  H  H756  1  0.907400  0.977000  0.730900  1
  H  H757  1  0.384700  0.907400  0.730900  1
  H  H758  1  0.592600  0.115300  0.769100  1
  H  H759  1  0.115300  0.523000  0.769100  1
  H  H760  1  0.523000  0.592600  0.769100  1
  H  H761  1  0.012600  0.573700  0.313500  1
  H  H762  1  0.100200  0.012600  0.313500  1
  H  H763  1  0.573700  0.100200  0.313500  1
  H  H764  1  0.399800  0.926300  0.186500  1
  H  H765  1  0.926300  0.487400  0.186500  1
  H  H766  1  0.487400  0.399800  0.186500  1
  H  H767  1  0.987400  0.426300  0.686500  1
  H  H768  1  0.899800  0.987400  0.686500  1
  H  H769  1  0.426300  0.899800  0.686500  1
  H  H770  1  0.600200  0.073700  0.813500  1
  H  H771  1  0.073700  0.512600  0.813500  1
  H  H772  1  0.512600  0.600200  0.813500  1
  H  H773  1  0.974700  0.587700  0.282000  1
  H  H774  1  0.155600  0.974700  0.282000  1
  H  H775  1  0.587700  0.155600  0.282000  1
  H  H776  1  0.344400  0.912300  0.218000  1
  H  H777  1  0.912300  0.525300  0.218000  1
  H  H778  1  0.525300  0.344400  0.218000  1
  H  H779  1  0.025300  0.412300  0.718000  1
  H  H780  1  0.844400  0.025300  0.718000  1
  H  H781  1  0.412300  0.844400  0.718000  1
  H  H782  1  0.655600  0.087700  0.782000  1
  H  H783  1  0.087700  0.474700  0.782000  1
  H  H784  1  0.474700  0.655600  0.782000  1
  H  H785  1  0.701700  0.561100  0.096600  1
  H  H786  1  0.640600  0.701700  0.096600  1
  H  H787  1  0.561100  0.640600  0.096600  1
  H  H788  1  0.859400  0.938900  0.403400  1
  H  H789  1  0.938900  0.798300  0.403400  1
  H  H790  1  0.798300  0.859400  0.403400  1
  H  H791  1  0.298300  0.438900  0.903400  1
  H  H792  1  0.359400  0.298300  0.903400  1
  H  H793  1  0.438900  0.359400  0.903400  1
  H  H794  1  0.140600  0.061100  0.596600  1
  H  H795  1  0.061100  0.201700  0.596600  1
  H  H796  1  0.201700  0.140600  0.596600  1
  H  H797  1  0.653400  0.538700  0.098700  1
  H  H798  1  0.709200  0.653400  0.098700  1
  H  H799  1  0.538700  0.709200  0.098700  1
  H  H800  1  0.790800  0.961300  0.401300  1
  H  H801  1  0.961300  0.846600  0.401300  1
  H  H802  1  0.846600  0.790800  0.401300  1
  H  H803  1  0.346600  0.461300  0.901300  1
  H  H804  1  0.290800  0.346600  0.901300  1
  H  H805  1  0.461300  0.290800  0.901300  1
  H  H806  1  0.209200  0.038700  0.598700  1
  H  H807  1  0.038700  0.153400  0.598700  1
  H  H808  1  0.153400  0.209200  0.598700  1
  H  H809  1  0.705500  0.541300  0.058200  1
  H  H810  1  0.695000  0.705500  0.058200  1
  H  H811  1  0.541300  0.695000  0.058200  1
  H  H812  1  0.805000  0.958700  0.441800  1
  H  H813  1  0.958700  0.794500  0.441800  1
  H  H814  1  0.794500  0.805000  0.441800  1
  H  H815  1  0.294500  0.458700  0.941800  1
  H  H816  1  0.305000  0.294500  0.941800  1
  H  H817  1  0.458700  0.305000  0.941800  1
  H  H818  1  0.195000  0.041300  0.558200  1
  H  H819  1  0.041300  0.205500  0.558200  1
  H  H820  1  0.205500  0.195000  0.558200  1
  H  H821  1  0.728800  0.285500  0.169800  1
  H  H822  1  0.815900  0.728800  0.169800  1
  H  H823  1  0.285500  0.815900  0.169800  1
  H  H824  1  0.684100  0.214500  0.330200  1
  H  H825  1  0.214500  0.771200  0.330200  1
  H  H826  1  0.771200  0.684100  0.330200  1
  H  H827  1  0.271200  0.714500  0.830200  1
  H  H828  1  0.184100  0.271200  0.830200  1
  H  H829  1  0.714500  0.184100  0.830200  1
  H  H830  1  0.315900  0.785500  0.669800  1
  H  H831  1  0.785500  0.228800  0.669800  1
  H  H832  1  0.228800  0.315900  0.669800  1
  H  H833  1  0.714000  0.341100  0.131400  1
  H  H834  1  0.813500  0.714000  0.131400  1
  H  H835  1  0.341100  0.813500  0.131400  1
  H  H836  1  0.686500  0.158900  0.368600  1
  H  H837  1  0.158900  0.786000  0.368600  1
  H  H838  1  0.786000  0.686500  0.368600  1
  H  H839  1  0.286000  0.658900  0.868600  1
  H  H840  1  0.186500  0.286000  0.868600  1
  H  H841  1  0.658900  0.186500  0.868600  1
  H  H842  1  0.313500  0.841100  0.631400  1
  H  H843  1  0.841100  0.214000  0.631400  1
  H  H844  1  0.214000  0.313500  0.631400  1
  H  H845  1  0.742700  0.341700  0.163500  1
  H  H846  1  0.752100  0.742700  0.163500  1
  H  H847  1  0.341700  0.752100  0.163500  1
  H  H848  1  0.747900  0.158300  0.336500  1
  H  H849  1  0.158300  0.757300  0.336500  1
  H  H850  1  0.757300  0.747900  0.336500  1
  H  H851  1  0.257300  0.658300  0.836500  1
  H  H852  1  0.247900  0.257300  0.836500  1
  H  H853  1  0.658300  0.247900  0.836500  1
  H  H854  1  0.252100  0.841700  0.663500  1
  H  H855  1  0.841700  0.242700  0.663500  1
  H  H856  1  0.242700  0.252100  0.663500  1
  H  H857  1  0.199700  0.499000  0.008400  1.0
  H  H858  1  0.292900  0.199700  0.008400  1.0
  H  H859  1  0.499000  0.292900  0.008400  1.0
  H  H860  1  0.207100  0.001000  0.491600  1.0
  H  H861  1  0.001000  0.300300  0.491600  1.0
  H  H862  1  0.300300  0.207100  0.491600  1.0
  H  H863  1  0.800300  0.501000  0.991600  1.0
  H  H864  1  0.707100  0.800300  0.991600  1.0
  H  H865  1  0.501000  0.707100  0.991600  1.0
  H  H866  1  0.792900  0.999000  0.508400  1.0
  H  H867  1  0.999000  0.699700  0.508400  1.0
  H  H868  1  0.699700  0.792900  0.508400  1.0
  H  H869  1  0.161700  0.477500  0.969400  1.0
  H  H870  1  0.391400  0.161700  0.969400  1.0
  H  H871  1  0.477500  0.391400  0.969400  1.0
  H  H872  1  0.108600  0.022500  0.530600  1.0
  H  H873  1  0.022500  0.338300  0.530600  1.0
  H  H874  1  0.338300  0.108600  0.530600  1.0
  H  H875  1  0.838300  0.522500  0.030600  1.0
  H  H876  1  0.608600  0.838300  0.030600  1.0
  H  H877  1  0.522500  0.608600  0.030600  1.0
  H  H878  1  0.891400  0.977500  0.469400  1.0
  H  H879  1  0.977500  0.661700  0.469400  1.0
  H  H880  1  0.661700  0.891400  0.469400  1.0
  H  H881  1  0.056200  0.503600  0.986500  1.0
  H  H882  1  0.453700  0.056200  0.986500  1.0
  H  H883  1  0.503600  0.453700  0.986500  1.0
  H  H884  1  0.046300  0.996400  0.513500  1.0
  H  H885  1  0.996400  0.443800  0.513500  1.0
  H  H886  1  0.443800  0.046300  0.513500  1.0
  H  H887  1  0.943800  0.496400  0.013500  1.0
  H  H888  1  0.546300  0.943800  0.013500  1.0
  H  H889  1  0.496400  0.546300  0.013500  1.0
  H  H890  1  0.953700  0.003600  0.486500  1.0
  H  H891  1  0.003600  0.556200  0.486500  1.0
  H  H892  1  0.556200  0.953700  0.486500  1.0
  H  H893  1  0.993500  0.553300  0.039300  1.0
  H  H894  1  0.413900  0.993500  0.039300  1.0
  H  H895  1  0.553300  0.413900  0.039300  1.0
  H  H896  1  0.086100  0.946700  0.460700  1.0
  H  H897  1  0.946700  0.506500  0.460700  1.0
  H  H898  1  0.506500  0.086100  0.460700  1.0
  H  H899  1  0.006500  0.446700  0.960700  1.0
  H  H900  1  0.586100  0.006500  0.960700  1.0
  H  H901  1  0.446700  0.586100  0.960700  1.0
  H  H902  1  0.913900  0.053300  0.539300  1.0
  H  H903  1  0.053300  0.493500  0.539300  1.0
  H  H904  1  0.493500  0.913900  0.539300  1.0
  H  H905  1  0.936800  0.589100  0.104400  1.0
  H  H906  1  0.369700  0.936800  0.104400  1.0
  H  H907  1  0.589100  0.369700  0.104400  1.0
  H  H908  1  0.130300  0.910900  0.395600  1.0
  H  H909  1  0.910900  0.563200  0.395600  1.0
  H  H910  1  0.563200  0.130300  0.395600  1.0
  H  H911  1  0.063200  0.410900  0.895600  1.0
  H  H912  1  0.630300  0.063200  0.895600  1.0
  H  H913  1  0.410900  0.630300  0.895600  1.0
  H  H914  1  0.869700  0.089100  0.604400  1.0
  H  H915  1  0.089100  0.436800  0.604400  1.0
  H  H916  1  0.436800  0.869700  0.604400  1.0
  H  H917  1  0.921600  0.630200  0.161700  1.0
  H  H918  1  0.286500  0.921600  0.161700  1.0
  H  H919  1  0.630200  0.286500  0.161700  1.0
  H  H920  1  0.213500  0.869800  0.338300  1.0
  H  H921  1  0.869800  0.578400  0.338300  1.0
  H  H922  1  0.578400  0.213500  0.338300  1.0
  H  H923  1  0.078400  0.369800  0.838300  1.0
  H  H924  1  0.713500  0.078400  0.838300  1.0
  H  H925  1  0.369800  0.713500  0.838300  1.0
  H  H926  1  0.786500  0.130200  0.661700  1.0
  H  H927  1  0.130200  0.421600  0.661700  1.0
  H  H928  1  0.421600  0.786500  0.661700  1.0
  H  H929  1  0.066700  0.597400  0.174600  1.0
  H  H930  1  0.161300  0.066700  0.174600  1.0
  H  H931  1  0.597400  0.161300  0.174600  1.0
  H  H932  1  0.338700  0.902600  0.325400  1.0
  H  H933  1  0.902600  0.433300  0.325400  1.0
  H  H934  1  0.433300  0.338700  0.325400  1.0
  H  H935  1  0.933300  0.402600  0.825400  1.0
  H  H936  1  0.838700  0.933300  0.825400  1.0
  H  H937  1  0.402600  0.838700  0.825400  1.0
  H  H938  1  0.661300  0.097400  0.674600  1.0
  H  H939  1  0.097400  0.566700  0.674600  1.0
  H  H940  1  0.566700  0.661300  0.674600  1.0
  H  H941  1  0.996000  0.626200  0.195300  1.0
  H  H942  1  0.182500  0.996000  0.195300  1.0
  H  H943  1  0.626200  0.182500  0.195300  1.0
  H  H944  1  0.317500  0.873800  0.304700  1.0
  H  H945  1  0.873800  0.504000  0.304700  1.0
  H  H946  1  0.504000  0.317500  0.304700  1.0
  H  H947  1  0.004000  0.373800  0.804700  1.0
  H  H948  1  0.817500  0.004000  0.804700  1.0
  H  H949  1  0.373800  0.817500  0.804700  1.0
  H  H950  1  0.682500  0.126200  0.695300  1.0
  H  H951  1  0.126200  0.496000  0.695300  1.0
  H  H952  1  0.496000  0.682500  0.695300  1.0
  H  H953  1  0.153800  0.861000  0.185400  1.0
  H  H954  1  0.799800  0.153800  0.185400  1.0
  H  H955  1  0.861000  0.799800  0.185400  1.0
  H  H956  1  0.700200  0.639000  0.314600  1.0
  H  H957  1  0.639000  0.346200  0.314600  1.0
  H  H958  1  0.346200  0.700200  0.314600  1.0
  H  H959  1  0.846200  0.139000  0.814600  1.0
  H  H960  1  0.200200  0.846200  0.814600  1.0
  H  H961  1  0.139000  0.200200  0.814600  1.0
  H  H962  1  0.299800  0.361000  0.685400  1.0
  H  H963  1  0.361000  0.653800  0.685400  1.0
  H  H964  1  0.653800  0.299800  0.685400  1.0
  H  H965  1  0.147400  0.843200  0.123900  1.0
  H  H966  1  0.885500  0.147400  0.123900  1.0
  H  H967  1  0.843200  0.885500  0.123900  1.0
  H  H968  1  0.614500  0.656800  0.376100  1.0
  H  H969  1  0.656800  0.352600  0.376100  1.0
  H  H970  1  0.352600  0.614500  0.376100  1.0
  H  H971  1  0.852600  0.156800  0.876100  1.0
  H  H972  1  0.114500  0.852600  0.876100  1.0
  H  H973  1  0.156800  0.114500  0.876100  1.0
  H  H974  1  0.385500  0.343200  0.623900  1.0
  H  H975  1  0.343200  0.647400  0.623900  1.0
  H  H976  1  0.647400  0.385500  0.623900  1.0
  H  H977  1  0.056700  0.868600  0.094200  1.0
  H  H978  1  0.980500  0.056700  0.094200  1.0
  H  H979  1  0.868600  0.980500  0.094200  1.0
  H  H980  1  0.519500  0.631400  0.405800  1.0
  H  H981  1  0.631400  0.443300  0.405800  1.0
  H  H982  1  0.443300  0.519500  0.405800  1.0
  H  H983  1  0.943300  0.131400  0.905800  1.0
  H  H984  1  0.019500  0.943300  0.905800  1.0
  H  H985  1  0.131400  0.019500  0.905800  1.0
  H  H986  1  0.480500  0.368600  0.594200  1.0
  H  H987  1  0.368600  0.556700  0.594200  1.0
  H  H988  1  0.556700  0.480500  0.594200  1.0
  H  H989  1  0.989600  0.897300  0.121200  1.0
  H  H990  1  0.991900  0.989600  0.121200  1.0
  H  H991  1  0.897300  0.991900  0.121200  1.0
  H  H992  1  0.508100  0.602700  0.378800  1.0
  H  H993  1  0.602700  0.510400  0.378800  1.0
  H  H994  1  0.510400  0.508100  0.378800  1.0
  H  H995  1  0.010400  0.102700  0.878800  1.0
  H  H996  1  0.008100  0.010400  0.878800  1.0
  H  H997  1  0.102700  0.008100  0.878800  1.0
  H  H998  1  0.491900  0.397300  0.621200  1.0
  H  H999  1  0.397300  0.489600  0.621200  1.0
  H  H1000  1  0.489600  0.491900  0.621200  1.0
  H  H1001  1  0.058800  0.677000  0.204300  1.0
  H  H1002  1  0.059900  0.058800  0.204300  1.0
  H  H1003  1  0.677000  0.059900  0.204300  1.0
  H  H1004  1  0.440100  0.823000  0.295700  1.0
  H  H1005  1  0.823000  0.441200  0.295700  1.0
  H  H1006  1  0.441200  0.440100  0.295700  1.0
  H  H1007  1  0.941200  0.323000  0.795700  1.0
  H  H1008  1  0.940100  0.941200  0.795700  1.0
  H  H1009  1  0.323000  0.940100  0.795700  1.0
  H  H1010  1  0.559900  0.177000  0.704300  1.0
  H  H1011  1  0.177000  0.558800  0.704300  1.0
  H  H1012  1  0.558800  0.559900  0.704300  1.0
  H  H1013  1  0.060300  0.771500  0.186900  1.0
  H  H1014  1  0.981300  0.060300  0.186900  1.0
  H  H1015  1  0.771500  0.981300  0.186900  1.0
  H  H1016  1  0.518700  0.728500  0.313100  1.0
  H  H1017  1  0.728500  0.439700  0.313100  1.0
  H  H1018  1  0.439700  0.518700  0.313100  1.0
  H  H1019  1  0.939700  0.228500  0.813100  1.0
  H  H1020  1  0.018700  0.939700  0.813100  1.0
  H  H1021  1  0.228500  0.018700  0.813100  1.0
  H  H1022  1  0.481300  0.271500  0.686900  1.0
  H  H1023  1  0.271500  0.560300  0.686900  1.0
  H  H1024  1  0.560300  0.481300  0.686900  1.0
  H  H1025  1  0.995100  0.818600  0.088500  1.0
  H  H1026  1  0.097800  0.995100  0.088500  1.0
  H  H1027  1  0.818600  0.097800  0.088500  1.0
  H  H1028  1  0.402200  0.681400  0.411500  1.0
  H  H1029  1  0.681400  0.504900  0.411500  1.0
  H  H1030  1  0.504900  0.402200  0.411500  1.0
  H  H1031  1  0.004900  0.181400  0.911500  1.0
  H  H1032  1  0.902200  0.004900  0.911500  1.0
  H  H1033  1  0.181400  0.902200  0.911500  1.0
  H  H1034  1  0.597800  0.318600  0.588500  1.0
  H  H1035  1  0.318600  0.495100  0.588500  1.0
  H  H1036  1  0.495100  0.597800  0.588500  1.0
  H  H1037  1  0.993300  0.723600  0.105600  1.0
  H  H1038  1  0.177500  0.993300  0.105600  1.0
  H  H1039  1  0.723600  0.177500  0.105600  1.0
  H  H1040  1  0.322500  0.776400  0.394400  1.0
  H  H1041  1  0.776400  0.506700  0.394400  1.0
  H  H1042  1  0.506700  0.322500  0.394400  1.0
  H  H1043  1  0.006700  0.276400  0.894400  1.0
  H  H1044  1  0.822500  0.006700  0.894400  1.0
  H  H1045  1  0.276400  0.822500  0.894400  1.0
  H  H1046  1  0.677500  0.223600  0.605600  1.0
  H  H1047  1  0.223600  0.493300  0.605600  1.0
  H  H1048  1  0.493300  0.677500  0.605600  1.0
  H  H1049  1  0.191900  0.536600  0.159000  1.0
  H  H1050  1  0.112500  0.191900  0.159000  1.0
  H  H1051  1  0.536600  0.112500  0.159000  1.0
  H  H1052  1  0.387500  0.963400  0.341000  1.0
  H  H1053  1  0.963400  0.308100  0.341000  1.0
  H  H1054  1  0.308100  0.387500  0.341000  1.0
  H  H1055  1  0.808100  0.463400  0.841000  1.0
  H  H1056  1  0.887500  0.808100  0.841000  1.0
  H  H1057  1  0.463400  0.887500  0.841000  1.0
  H  H1058  1  0.612500  0.036600  0.659000  1.0
  H  H1059  1  0.036600  0.691900  0.659000  1.0
  H  H1060  1  0.691900  0.612500  0.659000  1.0
  H  H1061  1  0.220800  0.583600  0.188100  1.0
  H  H1062  1  0.007500  0.220800  0.188100  1.0
  H  H1063  1  0.583600  0.007500  0.188100  1.0
  H  H1064  1  0.492500  0.916400  0.311900  1.0
  H  H1065  1  0.916400  0.279200  0.311900  1.0
  H  H1066  1  0.279200  0.492500  0.311900  1.0
  H  H1067  1  0.779200  0.416400  0.811900  1.0
  H  H1068  1  0.992500  0.779200  0.811900  1.0
  H  H1069  1  0.416400  0.992500  0.811900  1.0
  H  H1070  1  0.507500  0.083600  0.688100  1.0
  H  H1071  1  0.083600  0.720800  0.688100  1.0
  H  H1072  1  0.720800  0.507500  0.688100  1.0
  H  H1073  1  0.216800  0.678100  0.156300  1.0
  H  H1074  1  0.948800  0.216800  0.156300  1.0
  H  H1075  1  0.678100  0.948800  0.156300  1.0
  H  H1076  1  0.551200  0.821900  0.343700  1.0
  H  H1077  1  0.821900  0.283200  0.343700  1.0
  H  H1078  1  0.283200  0.551200  0.343700  1.0
  H  H1079  1  0.783200  0.321900  0.843700  1.0
  H  H1080  1  0.051200  0.783200  0.843700  1.0
  H  H1081  1  0.321900  0.051200  0.843700  1.0
  H  H1082  1  0.448800  0.178100  0.656300  1.0
  H  H1083  1  0.178100  0.716800  0.656300  1.0
  H  H1084  1  0.716800  0.448800  0.656300  1.0
  H  H1085  1  0.180800  0.730500  0.095100  1.0
  H  H1086  1  0.993600  0.180800  0.095100  1.0
  H  H1087  1  0.730500  0.993600  0.095100  1.0
  H  H1088  1  0.506400  0.769500  0.404900  1.0
  H  H1089  1  0.769500  0.319200  0.404900  1.0
  H  H1090  1  0.319200  0.506400  0.404900  1.0
  H  H1091  1  0.819200  0.269500  0.904900  1.0
  H  H1092  1  0.006400  0.819200  0.904900  1.0
  H  H1093  1  0.269500  0.006400  0.904900  1.0
  H  H1094  1  0.493600  0.230500  0.595100  1.0
  H  H1095  1  0.230500  0.680800  0.595100  1.0
  H  H1096  1  0.680800  0.493600  0.595100  1.0
  H  H1097  1  0.136000  0.778400  0.033000  1.0
  H  H1098  1  0.052600  0.136000  0.033000  1.0
  H  H1099  1  0.778400  0.052600  0.033000  1.0
  H  H1100  1  0.447400  0.721600  0.467000  1.0
  H  H1101  1  0.721600  0.364000  0.467000  1.0
  H  H1102  1  0.364000  0.447400  0.467000  1.0
  H  H1103  1  0.864000  0.221600  0.967000  1.0
  H  H1104  1  0.947400  0.864000  0.967000  1.0
  H  H1105  1  0.221600  0.947400  0.967000  1.0
  H  H1106  1  0.552600  0.278400  0.533000  1.0
  H  H1107  1  0.278400  0.636000  0.533000  1.0
  H  H1108  1  0.636000  0.552600  0.533000  1.0
  H  H1109  1  0.110000  0.776400  0.975700  1.0
  H  H1110  1  0.137900  0.110000  0.975700  1.0
  H  H1111  1  0.776400  0.137900  0.975700  1.0
  H  H1112  1  0.362100  0.723600  0.524300  1.0
  H  H1113  1  0.723600  0.390000  0.524300  1.0
  H  H1114  1  0.390000  0.362100  0.524300  1.0
  H  H1115  1  0.890000  0.223600  0.024300  1.0
  H  H1116  1  0.862100  0.890000  0.024300  1.0
  H  H1117  1  0.223600  0.862100  0.024300  1.0
  H  H1118  1  0.637900  0.276400  0.475700  1.0
  H  H1119  1  0.276400  0.610000  0.475700  1.0
  H  H1120  1  0.610000  0.637900  0.475700  1.0
  H  H1121  1  0.126800  0.626600  0.982300  1.0
  H  H1122  1  0.264300  0.126800  0.982300  1.0
  H  H1123  1  0.626600  0.264300  0.982300  1.0
  H  H1124  1  0.235700  0.873400  0.517700  1.0
  H  H1125  1  0.873400  0.373200  0.517700  1.0
  H  H1126  1  0.373200  0.235700  0.517700  1.0
  H  H1127  1  0.873200  0.373400  0.017700  1.0
  H  H1128  1  0.735700  0.873200  0.017700  1.0
  H  H1129  1  0.373400  0.735700  0.017700  1.0
  H  H1130  1  0.764300  0.126600  0.482300  1.0
  H  H1131  1  0.126600  0.626800  0.482300  1.0
  H  H1132  1  0.626800  0.764300  0.482300  1.0
  H  H1133  1  0.116900  0.690600  0.950800  1.0
  H  H1134  1  0.241700  0.116900  0.950800  1.0
  H  H1135  1  0.690600  0.241700  0.950800  1.0
  H  H1136  1  0.258300  0.809400  0.549200  1.0
  H  H1137  1  0.809400  0.383100  0.549200  1.0
  H  H1138  1  0.383100  0.258300  0.549200  1.0
  H  H1139  1  0.883100  0.309400  0.049200  1.0
  H  H1140  1  0.758300  0.883100  0.049200  1.0
  H  H1141  1  0.309400  0.758300  0.049200  1.0
  H  H1142  1  0.741700  0.190600  0.450800  1.0
  H  H1143  1  0.190600  0.616900  0.450800  1.0
  H  H1144  1  0.616900  0.741700  0.450800  1.0
  H  H1145  1  0.045700  0.659600  0.939400  1.0
  H  H1146  1  0.355300  0.045700  0.939400  1.0
  H  H1147  1  0.659600  0.355300  0.939400  1.0
  H  H1148  1  0.144700  0.840400  0.560600  1.0
  H  H1149  1  0.840400  0.454300  0.560600  1.0
  H  H1150  1  0.454300  0.144700  0.560600  1.0
  H  H1151  1  0.954300  0.340400  0.060600  1.0
  H  H1152  1  0.644700  0.954300  0.060600  1.0
  H  H1153  1  0.340400  0.644700  0.060600  1.0
  H  H1154  1  0.855300  0.159600  0.439400  1.0
  H  H1155  1  0.159600  0.545700  0.439400  1.0
  H  H1156  1  0.545700  0.855300  0.439400  1.0
  H  H1157  1  0.008400  0.718000  0.039300  1.0
  H  H1158  1  0.234300  0.008400  0.039300  1.0
  H  H1159  1  0.718000  0.234300  0.039300  1.0
  H  H1160  1  0.265700  0.782000  0.460700  1.0
  H  H1161  1  0.782000  0.491600  0.460700  1.0
  H  H1162  1  0.491600  0.265700  0.460700  1.0
  H  H1163  1  0.991600  0.282000  0.960700  1.0
  H  H1164  1  0.765700  0.991600  0.960700  1.0
  H  H1165  1  0.282000  0.765700  0.960700  1.0
  H  H1166  1  0.734300  0.218000  0.539300  1.0
  H  H1167  1  0.218000  0.508400  0.539300  1.0
  H  H1168  1  0.508400  0.734300  0.539300  1.0
  H  H1169  1  0.094700  0.493800  0.159900  1.0
  H  H1170  1  0.251600  0.094700  0.159900  1.0
  H  H1171  1  0.493800  0.251600  0.159900  1.0
  H  H1172  1  0.248400  0.006200  0.340100  1.0
  H  H1173  1  0.006200  0.405300  0.340100  1.0
  H  H1174  1  0.405300  0.248400  0.340100  1.0
  H  H1175  1  0.905300  0.506200  0.840100  1.0
  H  H1176  1  0.748400  0.905300  0.840100  1.0
  H  H1177  1  0.506200  0.748400  0.840100  1.0
  H  H1178  1  0.751600  0.993800  0.659900  1.0
  H  H1179  1  0.993800  0.594700  0.659900  1.0
  H  H1180  1  0.594700  0.751600  0.659900  1.0
  H  H1181  1  0.129600  0.399400  0.204000  1.0
  H  H1182  1  0.267000  0.129600  0.204000  1.0
  H  H1183  1  0.399400  0.267000  0.204000  1.0
  H  H1184  1  0.233000  0.100600  0.296000  1.0
  H  H1185  1  0.100600  0.370400  0.296000  1.0
  H  H1186  1  0.370400  0.233000  0.296000  1.0
  H  H1187  1  0.870400  0.600600  0.796000  1.0
  H  H1188  1  0.733000  0.870400  0.796000  1.0
  H  H1189  1  0.600600  0.733000  0.796000  1.0
  H  H1190  1  0.767000  0.899400  0.704000  1.0
  H  H1191  1  0.899400  0.629600  0.704000  1.0
  H  H1192  1  0.629600  0.767000  0.704000  1.0
  H  H1193  1  0.231000  0.333300  0.189300  1.0
  H  H1194  1  0.246400  0.231000  0.189300  1.0
  H  H1195  1  0.333300  0.246400  0.189300  1.0
  H  H1196  1  0.253600  0.166700  0.310700  1.0
  H  H1197  1  0.166700  0.269000  0.310700  1.0
  H  H1198  1  0.269000  0.253600  0.310700  1.0
  H  H1199  1  0.769000  0.666700  0.810700  1.0
  H  H1200  1  0.753600  0.769000  0.810700  1.0
  H  H1201  1  0.666700  0.753600  0.810700  1.0
  H  H1202  1  0.746400  0.833300  0.689300  1.0
  H  H1203  1  0.833300  0.731000  0.689300  1.0
  H  H1204  1  0.731000  0.746400  0.689300  1.0
  H  H1205  1  0.295600  0.359400  0.129600  1.0
  H  H1206  1  0.215400  0.295600  0.129600  1.0
  H  H1207  1  0.359400  0.215400  0.129600  1.0
  H  H1208  1  0.284600  0.140600  0.370400  1.0
  H  H1209  1  0.140600  0.204400  0.370400  1.0
  H  H1210  1  0.204400  0.284600  0.370400  1.0
  H  H1211  1  0.704400  0.640600  0.870400  1.0
  H  H1212  1  0.784600  0.704400  0.870400  1.0
  H  H1213  1  0.640600  0.784600  0.870400  1.0
  H  H1214  1  0.715400  0.859400  0.629600  1.0
  H  H1215  1  0.859400  0.795600  0.629600  1.0
  H  H1216  1  0.795600  0.715400  0.629600  1.0
  H  H1217  1  0.356700  0.395800  0.062400  1.0
  H  H1218  1  0.185100  0.356700  0.062400  1.0
  H  H1219  1  0.395800  0.185100  0.062400  1.0
  H  H1220  1  0.314900  0.104200  0.437600  1.0
  H  H1221  1  0.104200  0.143300  0.437600  1.0
  H  H1222  1  0.143300  0.314900  0.437600  1.0
  H  H1223  1  0.643300  0.604200  0.937600  1.0
  H  H1224  1  0.814900  0.643300  0.937600  1.0
  H  H1225  1  0.604200  0.814900  0.937600  1.0
  H  H1226  1  0.685100  0.895800  0.562400  1.0
  H  H1227  1  0.895800  0.856700  0.562400  1.0
  H  H1228  1  0.856700  0.685100  0.562400  1.0
  H  H1229  1  0.372600  0.469200  0.998200  1.0
  H  H1230  1  0.160000  0.372600  0.998200  1.0
  H  H1231  1  0.469200  0.160000  0.998200  1.0
  H  H1232  1  0.340000  0.030800  0.501800  1.0
  H  H1233  1  0.030800  0.127400  0.501800  1.0
  H  H1234  1  0.127400  0.340000  0.501800  1.0
  H  H1235  1  0.627400  0.530800  0.001800  1.0
  H  H1236  1  0.840000  0.627400  0.001800  1.0
  H  H1237  1  0.530800  0.840000  0.001800  1.0
  H  H1238  1  0.660000  0.969200  0.498200  1.0
  H  H1239  1  0.969200  0.872600  0.498200  1.0
  H  H1240  1  0.872600  0.660000  0.498200  1.0
  H  H1241  1  0.232000  0.606200  0.985600  1.0
  H  H1242  1  0.176200  0.232000  0.985600  1.0
  H  H1243  1  0.606200  0.176200  0.985600  1.0
  H  H1244  1  0.323800  0.893800  0.514400  1.0
  H  H1245  1  0.893800  0.268000  0.514400  1.0
  H  H1246  1  0.268000  0.323800  0.514400  1.0
  H  H1247  1  0.768000  0.393800  0.014400  1.0
  H  H1248  1  0.823800  0.768000  0.014400  1.0
  H  H1249  1  0.393800  0.823800  0.014400  1.0
  H  H1250  1  0.676200  0.106200  0.485600  1.0
  H  H1251  1  0.106200  0.732000  0.485600  1.0
  H  H1252  1  0.732000  0.676200  0.485600  1.0
  H  H1253  1  0.301000  0.577200  0.961600  1.0
  H  H1254  1  0.160200  0.301000  0.961600  1.0
  H  H1255  1  0.577200  0.160200  0.961600  1.0
  H  H1256  1  0.339800  0.922800  0.538400  1.0
  H  H1257  1  0.922800  0.199000  0.538400  1.0
  H  H1258  1  0.199000  0.339800  0.538400  1.0
  H  H1259  1  0.699000  0.422800  0.038400  1.0
  H  H1260  1  0.839800  0.699000  0.038400  1.0
  H  H1261  1  0.422800  0.839800  0.038400  1.0
  H  H1262  1  0.660200  0.077200  0.461600  1.0
  H  H1263  1  0.077200  0.801000  0.461600  1.0
  H  H1264  1  0.801000  0.660200  0.461600  1.0
  H  H1265  1  0.943500  0.682500  0.950500  1.0
  H  H1266  1  0.423500  0.943500  0.950500  1.0
  H  H1267  1  0.682500  0.423500  0.950500  1.0
  H  H1268  1  0.076500  0.817500  0.549500  1.0
  H  H1269  1  0.817500  0.556500  0.549500  1.0
  H  H1270  1  0.556500  0.076500  0.549500  1.0
  H  H1271  1  0.056500  0.317500  0.049500  1.0
  H  H1272  1  0.576500  0.056500  0.049500  1.0
  H  H1273  1  0.317500  0.576500  0.049500  1.0
  H  H1274  1  0.923500  0.182500  0.450500  1.0
  H  H1275  1  0.182500  0.443500  0.450500  1.0
  H  H1276  1  0.443500  0.923500  0.450500  1.0
  H  H1277  1  0.906500  0.739400  0.050100  1.0
  H  H1278  1  0.304000  0.906500  0.050100  1.0
  H  H1279  1  0.739400  0.304000  0.050100  1.0
  H  H1280  1  0.196000  0.760600  0.449900  1.0
  H  H1281  1  0.760600  0.593500  0.449900  1.0
  H  H1282  1  0.593500  0.196000  0.449900  1.0
  H  H1283  1  0.093500  0.260600  0.949900  1.0
  H  H1284  1  0.696000  0.093500  0.949900  1.0
  H  H1285  1  0.260600  0.696000  0.949900  1.0
  H  H1286  1  0.804000  0.239400  0.550100  1.0
  H  H1287  1  0.239400  0.406500  0.550100  1.0
  H  H1288  1  0.406500  0.804000  0.550100  1.0
  H  H1289  1  0.111800  0.890300  0.252300  1.0
  H  H1290  1  0.745600  0.111800  0.252300  1.0
  H  H1291  1  0.890300  0.745600  0.252300  1.0
  H  H1292  1  0.754400  0.609700  0.247700  1.0
  H  H1293  1  0.609700  0.388200  0.247700  1.0
  H  H1294  1  0.388200  0.754400  0.247700  1.0
  H  H1295  1  0.888200  0.109700  0.747700  1.0
  H  H1296  1  0.254400  0.888200  0.747700  1.0
  H  H1297  1  0.109700  0.254400  0.747700  1.0
  H  H1298  1  0.245600  0.390300  0.752300  1.0
  H  H1299  1  0.390300  0.611800  0.752300  1.0
  H  H1300  1  0.611800  0.245600  0.752300  1.0
  H  H1301  1  0.064900  0.925600  0.312300  1.0
  H  H1302  1  0.697200  0.064900  0.312300  1.0
  H  H1303  1  0.925600  0.697200  0.312300  1.0
  H  H1304  1  0.802800  0.574400  0.187700  1.0
  H  H1305  1  0.574400  0.435100  0.187700  1.0
  H  H1306  1  0.435100  0.802800  0.187700  1.0
  H  H1307  1  0.935100  0.074400  0.687700  1.0
  H  H1308  1  0.302800  0.935100  0.687700  1.0
  H  H1309  1  0.074400  0.302800  0.687700  1.0
  H  H1310  1  0.197200  0.425600  0.812300  1.0
  H  H1311  1  0.425600  0.564900  0.812300  1.0
  H  H1312  1  0.564900  0.197200  0.812300  1.0
  H  H1313  1  0.957000  0.969700  0.332100  1.0
  H  H1314  1  0.741200  0.957000  0.332100  1.0
  H  H1315  1  0.969700  0.741200  0.332100  1.0
  H  H1316  1  0.758800  0.530300  0.167900  1.0
  H  H1317  1  0.530300  0.543000  0.167900  1.0
  H  H1318  1  0.543000  0.758800  0.167900  1.0
  H  H1319  1  0.043000  0.030300  0.667900  1.0
  H  H1320  1  0.258800  0.043000  0.667900  1.0
  H  H1321  1  0.030300  0.258800  0.667900  1.0
  H  H1322  1  0.241200  0.469700  0.832100  1.0
  H  H1323  1  0.469700  0.457000  0.832100  1.0
  H  H1324  1  0.457000  0.241200  0.832100  1.0
  H  H1325  1  0.976900  0.830200  0.291000  1.0
  H  H1326  1  0.901900  0.976900  0.291000  1.0
  H  H1327  1  0.830200  0.901900  0.291000  1.0
  H  H1328  1  0.598100  0.669800  0.209000  1.0
  H  H1329  1  0.669800  0.523100  0.209000  1.0
  H  H1330  1  0.523100  0.598100  0.209000  1.0
  H  H1331  1  0.023100  0.169800  0.709000  1.0
  H  H1332  1  0.098100  0.023100  0.709000  1.0
  H  H1333  1  0.169800  0.098100  0.709000  1.0
  H  H1334  1  0.401900  0.330200  0.791000  1.0
  H  H1335  1  0.330200  0.476900  0.791000  1.0
  H  H1336  1  0.476900  0.401900  0.791000  1.0
  N  N1337  1  0.058580  0.529480  0.270660  1
  N  N1338  1  0.141280  0.058580  0.270660  1
  N  N1339  1  0.529480  0.141280  0.270660  1
  N  N1340  1  0.358720  0.970520  0.229340  1
  N  N1341  1  0.970520  0.441420  0.229340  1
  N  N1342  1  0.441420  0.358720  0.229340  1
  N  N1343  1  0.941420  0.470520  0.729340  1
  N  N1344  1  0.858720  0.941420  0.729340  1
  N  N1345  1  0.470520  0.858720  0.729340  1
  N  N1346  1  0.641280  0.029480  0.770660  1
  N  N1347  1  0.029480  0.558580  0.770660  1
  N  N1348  1  0.558580  0.641280  0.770660  1
  N  N1349  1  0.734170  0.473170  0.103290  1
  N  N1350  1  0.689370  0.734170  0.103290  1
  N  N1351  1  0.473170  0.689370  0.103290  1
  N  N1352  1  0.810630  0.026830  0.396710  1
  N  N1353  1  0.026830  0.765830  0.396710  1
  N  N1354  1  0.765830  0.810630  0.396710  1
  N  N1355  1  0.265830  0.526830  0.896710  1
  N  N1356  1  0.310630  0.265830  0.896710  1
  N  N1357  1  0.526830  0.310630  0.896710  1
  N  N1358  1  0.189370  0.973170  0.603290  1
  N  N1359  1  0.973170  0.234170  0.603290  1
  N  N1360  1  0.234170  0.189370  0.603290  1
  N  N1361  1  0.802010  0.285910  0.126570  1
  N  N1362  1  0.785510  0.802010  0.126570  1
  N  N1363  1  0.285910  0.785510  0.126570  1
  N  N1364  1  0.714490  0.214090  0.373430  1
  N  N1365  1  0.214090  0.697990  0.373430  1
  N  N1366  1  0.697990  0.714490  0.373430  1
  N  N1367  1  0.197990  0.714090  0.873430  1
  N  N1368  1  0.214490  0.197990  0.873430  1
  N  N1369  1  0.714090  0.214490  0.873430  1
  N  N1370  1  0.285510  0.785910  0.626570  1
  N  N1371  1  0.785910  0.302010  0.626570  1
  N  N1372  1  0.302010  0.285510  0.626570  1
  N  N1373  1  0.121630  0.538430  0.045330  1.0
  N  N1374  1  0.294610  0.121630  0.045330  1.0
  N  N1375  1  0.538430  0.294610  0.045330  1.0
  N  N1376  1  0.205390  0.961570  0.454670  1.0
  N  N1377  1  0.961570  0.378370  0.454670  1.0
  N  N1378  1  0.378370  0.205390  0.454670  1.0
  N  N1379  1  0.878370  0.461570  0.954670  1.0
  N  N1380  1  0.705390  0.878370  0.954670  1.0
  N  N1381  1  0.461570  0.705390  0.954670  1.0
  N  N1382  1  0.794610  0.038430  0.545330  1.0
  N  N1383  1  0.038430  0.621630  0.545330  1.0
  N  N1384  1  0.621630  0.794610  0.545330  1.0
  N  N1385  1  0.012880  0.613310  0.140070  1.0
  N  N1386  1  0.233740  0.012880  0.140070  1.0
  N  N1387  1  0.613310  0.233740  0.140070  1.0
  N  N1388  1  0.266260  0.886690  0.359930  1.0
  N  N1389  1  0.886690  0.487120  0.359930  1.0
  N  N1390  1  0.487120  0.266260  0.359930  1.0
  N  N1391  1  0.987120  0.386690  0.859930  1.0
  N  N1392  1  0.766260  0.987120  0.859930  1.0
  N  N1393  1  0.386690  0.766260  0.859930  1.0
  N  N1394  1  0.733740  0.113310  0.640070  1.0
  N  N1395  1  0.113310  0.512880  0.640070  1.0
  N  N1396  1  0.512880  0.733740  0.640070  1.0
  N  N1397  1  0.054380  0.592670  0.107850  1.0
  N  N1398  1  0.245100  0.054380  0.107850  1.0
  N  N1399  1  0.592670  0.245100  0.107850  1.0
  N  N1400  1  0.254900  0.907330  0.392150  1.0
  N  N1401  1  0.907330  0.445620  0.392150  1.0
  N  N1402  1  0.445620  0.254900  0.392150  1.0
  N  N1403  1  0.945620  0.407330  0.892150  1.0
  N  N1404  1  0.754900  0.945620  0.892150  1.0
  N  N1405  1  0.407330  0.754900  0.892150  1.0
  N  N1406  1  0.745100  0.092670  0.607850  1.0
  N  N1407  1  0.092670  0.554380  0.607850  1.0
  N  N1408  1  0.554380  0.745100  0.607850  1.0
  N  N1409  1  0.055290  0.873410  0.148740  1.0
  N  N1410  1  0.922560  0.055290  0.148740  1.0
  N  N1411  1  0.873410  0.922560  0.148740  1.0
  N  N1412  1  0.577440  0.626590  0.351260  1.0
  N  N1413  1  0.626590  0.444710  0.351260  1.0
  N  N1414  1  0.444710  0.577440  0.351260  1.0
  N  N1415  1  0.944710  0.126590  0.851260  1.0
  N  N1416  1  0.077440  0.944710  0.851260  1.0
  N  N1417  1  0.126590  0.077440  0.851260  1.0
  N  N1418  1  0.422560  0.373410  0.648740  1.0
  N  N1419  1  0.373410  0.555290  0.648740  1.0
  N  N1420  1  0.555290  0.422560  0.648740  1.0
  N  N1421  1  0.020760  0.893390  0.182850  1.0
  N  N1422  1  0.903000  0.020760  0.182850  1.0
  N  N1423  1  0.893390  0.903000  0.182850  1.0
  N  N1424  1  0.597000  0.606610  0.317150  1.0
  N  N1425  1  0.606610  0.479240  0.317150  1.0
  N  N1426  1  0.479240  0.597000  0.317150  1.0
  N  N1427  1  0.979240  0.106610  0.817150  1.0
  N  N1428  1  0.097000  0.979240  0.817150  1.0
  N  N1429  1  0.106610  0.097000  0.817150  1.0
  N  N1430  1  0.403000  0.393390  0.682850  1.0
  N  N1431  1  0.393390  0.520760  0.682850  1.0
  N  N1432  1  0.520760  0.403000  0.682850  1.0
  N  N1433  1  0.169990  0.604300  0.111930  1.0
  N  N1434  1  0.113780  0.169990  0.111930  1.0
  N  N1435  1  0.604300  0.113780  0.111930  1.0
  N  N1436  1  0.386220  0.895700  0.388070  1.0
  N  N1437  1  0.895700  0.330010  0.388070  1.0
  N  N1438  1  0.330010  0.386220  0.388070  1.0
  N  N1439  1  0.830010  0.395700  0.888070  1.0
  N  N1440  1  0.886220  0.830010  0.888070  1.0
  N  N1441  1  0.395700  0.886220  0.888070  1.0
  N  N1442  1  0.613780  0.104300  0.611930  1.0
  N  N1443  1  0.104300  0.669990  0.611930  1.0
  N  N1444  1  0.669990  0.613780  0.611930  1.0
  N  N1445  1  0.119450  0.689550  0.005850  1.0
  N  N1446  1  0.185150  0.119450  0.005850  1.0
  N  N1447  1  0.689550  0.185150  0.005850  1.0
  N  N1448  1  0.314850  0.810450  0.494150  1.0
  N  N1449  1  0.810450  0.380550  0.494150  1.0
  N  N1450  1  0.380550  0.314850  0.494150  1.0
  N  N1451  1  0.880550  0.310450  0.994150  1.0
  N  N1452  1  0.814850  0.880550  0.994150  1.0
  N  N1453  1  0.310450  0.814850  0.994150  1.0
  N  N1454  1  0.685150  0.189550  0.505850  1.0
  N  N1455  1  0.189550  0.619450  0.505850  1.0
  N  N1456  1  0.619450  0.685150  0.505850  1.0
  N  N1457  1  0.134710  0.654840  0.041190  1.0
  N  N1458  1  0.169260  0.134710  0.041190  1.0
  N  N1459  1  0.654840  0.169260  0.041190  1.0
  N  N1460  1  0.330740  0.845160  0.458810  1.0
  N  N1461  1  0.845160  0.365290  0.458810  1.0
  N  N1462  1  0.365290  0.330740  0.458810  1.0
  N  N1463  1  0.865290  0.345160  0.958810  1.0
  N  N1464  1  0.830740  0.865290  0.958810  1.0
  N  N1465  1  0.345160  0.830740  0.958810  1.0
  N  N1466  1  0.669260  0.154840  0.541190  1.0
  N  N1467  1  0.154840  0.634710  0.541190  1.0
  N  N1468  1  0.634710  0.669260  0.541190  1.0
  N  N1469  1  0.172050  0.483350  0.119850  1.0
  N  N1470  1  0.224750  0.172050  0.119850  1.0
  N  N1471  1  0.483350  0.224750  0.119850  1.0
  N  N1472  1  0.275250  0.016650  0.380150  1.0
  N  N1473  1  0.016650  0.327950  0.380150  1.0
  N  N1474  1  0.327950  0.275250  0.380150  1.0
  N  N1475  1  0.827950  0.516650  0.880150  1.0
  N  N1476  1  0.775250  0.827950  0.880150  1.0
  N  N1477  1  0.516650  0.775250  0.880150  1.0
  N  N1478  1  0.724750  0.983350  0.619850  1.0
  N  N1479  1  0.983350  0.672050  0.619850  1.0
  N  N1480  1  0.672050  0.724750  0.619850  1.0
  N  N1481  1  0.284630  0.528650  0.018330  1.0
  N  N1482  1  0.168390  0.284630  0.018330  1.0
  N  N1483  1  0.528650  0.168390  0.018330  1.0
  N  N1484  1  0.331610  0.971350  0.481670  1.0
  N  N1485  1  0.971350  0.215370  0.481670  1.0
  N  N1486  1  0.215370  0.331610  0.481670  1.0
  N  N1487  1  0.715370  0.471350  0.981670  1.0
  N  N1488  1  0.831610  0.715370  0.981670  1.0
  N  N1489  1  0.471350  0.831610  0.981670  1.0
  N  N1490  1  0.668390  0.028650  0.518330  1.0
  N  N1491  1  0.028650  0.784630  0.518330  1.0
  N  N1492  1  0.784630  0.668390  0.518330  1.0
  N  N1493  1  0.241770  0.521960  0.052890  1.0
  N  N1494  1  0.183380  0.241770  0.052890  1.0
  N  N1495  1  0.521960  0.183380  0.052890  1.0
  N  N1496  1  0.316620  0.978040  0.447110  1.0
  N  N1497  1  0.978040  0.258230  0.447110  1.0
  N  N1498  1  0.258230  0.316620  0.447110  1.0
  N  N1499  1  0.758230  0.478040  0.947110  1.0
  N  N1500  1  0.816620  0.758230  0.947110  1.0
  N  N1501  1  0.478040  0.816620  0.947110  1.0
  N  N1502  1  0.683380  0.021960  0.552890  1.0
  N  N1503  1  0.021960  0.741770  0.552890  1.0
  N  N1504  1  0.741770  0.683380  0.552890  1.0
  N  N1505  1  0.937290  0.842120  0.249540  1.0
  N  N1506  1  0.971050  0.937290  0.249540  1.0
  N  N1507  1  0.842120  0.971050  0.249540  1.0
  N  N1508  1  0.528950  0.657880  0.250460  1.0
  N  N1509  1  0.657880  0.562710  0.250460  1.0
  N  N1510  1  0.562710  0.528950  0.250460  1.0
  N  N1511  1  0.062710  0.157880  0.750460  1.0
  N  N1512  1  0.028950  0.062710  0.750460  1.0
  N  N1513  1  0.157880  0.028950  0.750460  1.0
  N  N1514  1  0.471050  0.342120  0.749540  1.0
  N  N1515  1  0.342120  0.437290  0.749540  1.0
  N  N1516  1  0.437290  0.471050  0.749540  1.0
  Ni  Ni1517  1  0.928723  0.928723  0.213831  1.0
  Ni  Ni1518  1  0.571277  0.571277  0.286169  1.0
  Ni  Ni1519  1  0.071277  0.071277  0.786169  1.0
  Ni  Ni1520  1  0.428723  0.428723  0.713831  1.0
  Ni  Ni1521  1  0.148201  0.567721  0.079227  1.0
  Ni  Ni1522  1  0.204851  0.148201  0.079227  1.0
  Ni  Ni1523  1  0.567721  0.204851  0.079227  1.0
  Ni  Ni1524  1  0.295149  0.932279  0.420773  1.0
  Ni  Ni1525  1  0.932279  0.351799  0.420773  1.0
  Ni  Ni1526  1  0.351799  0.295149  0.420773  1.0
  Ni  Ni1527  1  0.851799  0.432279  0.920773  1.0
  Ni  Ni1528  1  0.795149  0.851799  0.920773  1.0
  Ni  Ni1529  1  0.432279  0.795149  0.920773  1.0
  Ni  Ni1530  1  0.704851  0.067721  0.579227  1.0
  Ni  Ni1531  1  0.067721  0.648201  0.579227  1.0
  Ni  Ni1532  1  0.648201  0.704851  0.579227  1.0
  O  O1533  1  0.101180  0.531180  0.241260  1
  O  O1534  1  0.126380  0.101180  0.241260  1
  O  O1535  1  0.531180  0.126380  0.241260  1
  O  O1536  1  0.373620  0.968820  0.258740  1
  O  O1537  1  0.968820  0.398820  0.258740  1
  O  O1538  1  0.398820  0.373620  0.258740  1
  O  O1539  1  0.898820  0.468820  0.758740  1
  O  O1540  1  0.873620  0.898820  0.758740  1
  O  O1541  1  0.468820  0.873620  0.758740  1
  O  O1542  1  0.626380  0.031180  0.741260  1
  O  O1543  1  0.031180  0.601180  0.741260  1
  O  O1544  1  0.601180  0.626380  0.741260  1
  O  O1545  1  0.042620  0.485220  0.291540  1
  O  O1546  1  0.180620  0.042620  0.291540  1
  O  O1547  1  0.485220  0.180620  0.291540  1
  O  O1548  1  0.319380  0.014780  0.208460  1
  O  O1549  1  0.014780  0.457380  0.208460  1
  O  O1550  1  0.457380  0.319380  0.208460  1
  O  O1551  1  0.957380  0.514780  0.708460  1
  O  O1552  1  0.819380  0.957380  0.708460  1
  O  O1553  1  0.514780  0.819380  0.708460  1
  O  O1554  1  0.680620  0.985220  0.791540  1
  O  O1555  1  0.985220  0.542620  0.791540  1
  O  O1556  1  0.542620  0.680620  0.791540  1
  O  O1557  1  0.768460  0.436160  0.081120  1
  O  O1558  1  0.714260  0.768460  0.081120  1
  O  O1559  1  0.436160  0.714260  0.081120  1
  O  O1560  1  0.785740  0.063840  0.418880  1
  O  O1561  1  0.063840  0.731540  0.418880  1
  O  O1562  1  0.731540  0.785740  0.418880  1
  O  O1563  1  0.231540  0.563840  0.918880  1
  O  O1564  1  0.285740  0.231540  0.918880  1
  O  O1565  1  0.563840  0.285740  0.918880  1
  O  O1566  1  0.214260  0.936160  0.581120  1
  O  O1567  1  0.936160  0.268460  0.581120  1
  O  O1568  1  0.268460  0.214260  0.581120  1
  O  O1569  1  0.731500  0.459000  0.138600  1
  O  O1570  1  0.670900  0.731500  0.138600  1
  O  O1571  1  0.459000  0.670900  0.138600  1
  O  O1572  1  0.829100  0.041000  0.361400  1
  O  O1573  1  0.041000  0.768500  0.361400  1
  O  O1574  1  0.768500  0.829100  0.361400  1
  O  O1575  1  0.268500  0.541000  0.861400  1
  O  O1576  1  0.329100  0.268500  0.861400  1
  O  O1577  1  0.541000  0.329100  0.861400  1
  O  O1578  1  0.170900  0.959000  0.638600  1
  O  O1579  1  0.959000  0.231500  0.638600  1
  O  O1580  1  0.231500  0.170900  0.638600  1
  O  O1581  1  0.843720  0.277720  0.137340  1
  O  O1582  1  0.741220  0.843720  0.137340  1
  O  O1583  1  0.277720  0.741220  0.137340  1
  O  O1584  1  0.758780  0.222280  0.362660  1
  O  O1585  1  0.222280  0.656280  0.362660  1
  O  O1586  1  0.656280  0.758780  0.362660  1
  O  O1587  1  0.156280  0.722280  0.862660  1
  O  O1588  1  0.258780  0.156280  0.862660  1
  O  O1589  1  0.722280  0.258780  0.862660  1
  O  O1590  1  0.241220  0.777720  0.637340  1
  O  O1591  1  0.777720  0.343720  0.637340  1
  O  O1592  1  0.343720  0.241220  0.637340  1
  O  O1593  1  0.809410  0.264610  0.100170  1
  O  O1594  1  0.825810  0.809410  0.100170  1
  O  O1595  1  0.264610  0.825810  0.100170  1
  O  O1596  1  0.674190  0.235390  0.399830  1
  O  O1597  1  0.235390  0.690590  0.399830  1
  O  O1598  1  0.690590  0.674190  0.399830  1
  O  O1599  1  0.190590  0.735390  0.899830  1
  O  O1600  1  0.174190  0.190590  0.899830  1
  O  O1601  1  0.735390  0.174190  0.899830  1
  O  O1602  1  0.325810  0.764610  0.600170  1
  O  O1603  1  0.764610  0.309410  0.600170  1
  O  O1604  1  0.309410  0.325810  0.600170  1
  Si  Si1605  1  0.850126  0.649852  0.250033  1
  Si  Si1606  1  0.249989  0.850126  0.250033  1
  Si  Si1607  1  0.649852  0.249989  0.250033  1
  Si  Si1608  1  0.149874  0.350148  0.749967  1
  Si  Si1609  1  0.750011  0.149874  0.749967  1
  Si  Si1610  1  0.350148  0.750011  0.749967  1
