
#######################################################################
#
#                 Cambridge Crystallographic Data Centre
#                                CCDC 
#
#######################################################################
#
# If this CIF has been generated from an entry in the Cambridge 
# Structural Database, then it will include bibliographic, chemical, 
# crystal, experimental, refinement or atomic coordinate data resulting 
# from the CCDC's data processing and validation procedures.
#
#######################################################################

data_UZIREB
_chemical_formula_moiety         'C336 H240 F48 N48 O24 Pt12'
_chemical_name_systematic        
'tetracosakis(\m~2~-2,5-bis(2-pyridyl)furan)-tetracosakis(hexafluoroantimonate)-dodeca-platinum(ii) unknown solvate'
_symmetry_cell_setting           cubic
_symmetry_space_group_name_H-M   'P m -3 m'
_symmetry_Int_Tables_number      221
_space_group_name_Hall           '-P 4 2 3'
loop_
_symmetry_equiv_pos_site_id
_symmetry_equiv_pos_as_xyz
1 x,y,z
2 x,-y,-z
3 -x,-y,z
4 -x,y,-z
5 -y,x,z
6 y,x,-z
7 y,-x,z
8 -y,-x,-z
9 y,z,x
10 -y,-z,x
11 y,-z,-x
12 -y,z,-x
13 -z,y,x
14 -z,-y,-x
15 z,-y,x
16 z,y,-x
17 z,x,y
18 -z,x,-y
19 -z,-x,y
20 z,-x,-y
21 -x,-z,-y
22 -x,z,y
23 x,-z,y
24 x,z,-y
25 -x,-y,-z
26 -x,y,z
27 x,y,-z
28 x,-y,z
29 y,-x,-z
30 -y,-x,z
31 -y,x,-z
32 y,x,z
33 -y,-z,-x
34 y,z,-x
35 -y,z,x
36 y,-z,x
37 z,-y,-x
38 z,y,x
39 -z,y,-x
40 -z,-y,x
41 -z,-x,-y
42 z,-x,y
43 z,x,-y
44 -z,x,y
45 x,z,y
46 x,-z,-y
47 -x,z,-y
48 -x,-z,y
_cell_length_a                   30.8030(10)
_cell_length_b                   30.8030(10)
_cell_length_c                   30.8030(10)
_cell_angle_alpha                90
_cell_angle_beta                 90
_cell_angle_gamma                90
_cell_volume                     29226.7
_exptl_crystal_colour            colorless
_exptl_crystal_description       prism
_cell_formula_units_Z            1
loop_
_atom_site_label
_atom_site_type_symbol
_atom_site_fract_x
_atom_site_fract_y
_atom_site_fract_z
Pt1 Pt 0.30107(2) 0.30107(2) 0.0000
N1 N 0.3344(4) 0.2686(3) 0.0461(2)
C1 C 0.3120(2) 0.2331(3) 0.0626(3)
H1 H 0.2851 0.2256 0.0512
C2 C 0.3299(3) 0.2087(2) 0.0961(3)
H2 H 0.3149 0.185 0.1071
C3 C 0.3702(3) 0.2199(3) 0.1131(2)
C4 C 0.3926(2) 0.2554(4) 0.0966(3)
H3 H 0.4195 0.2629 0.108
C5 C 0.3747(3) 0.2797(2) 0.0631(3)
H4 H 0.3897 0.3035 0.052
C6 C 0.3949(6) 0.1991(3) 0.1474(4)
C7 C 0.4351(5) 0.2031(4) 0.1726(5)
H5 H 0.4569 0.2235 0.1681
O1 O 0.3715(3) 0.1647(3) 0.1647(3)
Pt1H Pt 0.30107(2) 0.0000 0.30107(2)
Pt1N Pt 0.0000 -0.30107(2) 0.30107(2)
Pt1B Pt -0.30107(2) -0.30107(2) 0.0000
Pt1K Pt -0.30107(2) 0.0000 -0.30107(2)
Pt1O Pt 0.0000 0.30107(2) -0.30107(2)
Pt1J Pt 0.30107(2) 0.0000 -0.30107(2)
Pt1M Pt 0.0000 -0.30107(2) -0.30107(2)
Pt1I Pt -0.30107(2) 0.0000 0.30107(2)
Pt1L Pt 0.0000 0.30107(2) 0.30107(2)
Pt1A Pt 0.30107(2) -0.30107(2) 0.0000
Pt1C Pt -0.30107(2) 0.30107(2) 0.0000
N1RA N 0.3344(4) 0.0461(2) 0.2686(3)
N1IA N 0.2686(3) -0.0461(2) 0.3344(4)
N1N N 0.0461(2) -0.2686(3) 0.3344(4)
N1R N -0.0461(2) -0.3344(4) 0.2686(3)
N1CA N -0.2686(3) -0.3344(4) 0.0461(2)
N1X N -0.3344(4) -0.2686(3) -0.0461(2)
N1T N -0.3344(4) -0.0461(2) -0.2686(3)
N1K N -0.2686(3) 0.0461(2) -0.3344(4)
N1LA N -0.0461(2) 0.2686(3) -0.3344(4)
N1PA N 0.0461(2) 0.3344(4) -0.2686(3)
N1E N 0.2686(3) 0.3344(4) -0.0461(2)
N1Z N 0.3344(4) 0.2686(3) -0.0461(2)
N1W N 0.3344(4) 0.0461(2) -0.2686(3)
N1J N 0.2686(3) -0.0461(2) -0.3344(4)
N1JA N 0.0461(2) -0.2686(3) -0.3344(4)
N1NA N -0.0461(2) -0.3344(4) -0.2686(3)
N1G N -0.2686(3) -0.3344(4) -0.0461(2)
N1B N -0.3344(4) -0.2686(3) 0.0461(2)
N1UA N -0.3344(4) -0.0461(2) 0.2686(3)
N1HA N -0.2686(3) 0.0461(2) 0.3344(4)
N1L N -0.0461(2) 0.2686(3) 0.3344(4)
N1P N 0.0461(2) 0.3344(4) 0.2686(3)
N1EA N 0.2686(3) 0.3344(4) 0.0461(2)
N1KA N 0.0461(2) 0.2686(3) 0.3344(4)
N1H N 0.2686(3) 0.0461(2) 0.3344(4)
N1V N 0.3344(4) -0.0461(2) 0.2686(3)
N1AA N 0.3344(4) -0.2686(3) 0.0461(2)
N1BA N 0.2686(3) -0.3344(4) -0.0461(2)
N1S N 0.0461(2) -0.3344(4) -0.2686(3)
N1M N -0.0461(2) -0.2686(3) -0.3344(4)
N1FA N -0.2686(3) -0.0461(2) -0.3344(4)
N1TA N -0.3344(4) 0.0461(2) -0.2686(3)
N1C N -0.3344(4) 0.2686(3) -0.0461(2)
N1D N -0.2686(3) 0.3344(4) 0.0461(2)
N1QA N -0.0461(2) 0.3344(4) 0.2686(3)
N1Y N -0.3344(4) 0.2686(3) 0.0461(2)
N1U N -0.3344(4) 0.0461(2) 0.2686(3)
N1I N -0.2686(3) -0.0461(2) 0.3344(4)
N1MA N -0.0461(2) -0.2686(3) 0.3344(4)
N1OA N 0.0461(2) -0.3344(4) 0.2686(3)
N1F N 0.2686(3) -0.3344(4) 0.0461(2)
N1A N 0.3344(4) -0.2686(3) -0.0461(2)
N1SA N 0.3344(4) -0.0461(2) -0.2686(3)
N1GA N 0.2686(3) 0.0461(2) -0.3344(4)
N1O N 0.0461(2) 0.2686(3) -0.3344(4)
N1Q N -0.0461(2) 0.3344(4) -0.2686(3)
N1DA N -0.2686(3) 0.3344(4) -0.0461(2)
C1RA C 0.3120(2) 0.0626(3) 0.2331(3)
C1IA C 0.2331(3) -0.0626(3) 0.3120(2)
C1N C 0.0626(3) -0.2331(3) 0.3120(2)
C1R C -0.0626(3) -0.3120(2) 0.2331(3)
C1CA C -0.2331(3) -0.3120(2) 0.0626(3)
C1X C -0.3120(2) -0.2331(3) -0.0626(3)
C1T C -0.3120(2) -0.0626(3) -0.2331(3)
C1K C -0.2331(3) 0.0626(3) -0.3120(2)
C1LA C -0.0626(3) 0.2331(3) -0.3120(2)
C1PA C 0.0626(3) 0.3120(2) -0.2331(3)
C1E C 0.2331(3) 0.3120(2) -0.0626(3)
C1Z C 0.3120(2) 0.2331(3) -0.0626(3)
C1W C 0.3120(2) 0.0626(3) -0.2331(3)
C1J C 0.2331(3) -0.0626(3) -0.3120(2)
C1JA C 0.0626(3) -0.2331(3) -0.3120(2)
C1NA C -0.0626(3) -0.3120(2) -0.2331(3)
C1G C -0.2331(3) -0.3120(2) -0.0626(3)
C1B C -0.3120(2) -0.2331(3) 0.0626(3)
C1UA C -0.3120(2) -0.0626(3) 0.2331(3)
C1HA C -0.2331(3) 0.0626(3) 0.3120(2)
C1L C -0.0626(3) 0.2331(3) 0.3120(2)
C1P C 0.0626(3) 0.3120(2) 0.2331(3)
C1EA C 0.2331(3) 0.3120(2) 0.0626(3)
C1KA C 0.0626(3) 0.2331(3) 0.3120(2)
C1H C 0.2331(3) 0.0626(3) 0.3120(2)
C1V C 0.3120(2) -0.0626(3) 0.2331(3)
C1AA C 0.3120(2) -0.2331(3) 0.0626(3)
C1BA C 0.2331(3) -0.3120(2) -0.0626(3)
C1S C 0.0626(3) -0.3120(2) -0.2331(3)
C1M C -0.0626(3) -0.2331(3) -0.3120(2)
C1FA C -0.2331(3) -0.0626(3) -0.3120(2)
C1TA C -0.3120(2) 0.0626(3) -0.2331(3)
C1C C -0.3120(2) 0.2331(3) -0.0626(3)
C1D C -0.2331(3) 0.3120(2) 0.0626(3)
C1QA C -0.0626(3) 0.3120(2) 0.2331(3)
C1Y C -0.3120(2) 0.2331(3) 0.0626(3)
C1U C -0.3120(2) 0.0626(3) 0.2331(3)
C1I C -0.2331(3) -0.0626(3) 0.3120(2)
C1MA C -0.0626(3) -0.2331(3) 0.3120(2)
C1OA C 0.0626(3) -0.3120(2) 0.2331(3)
C1F C 0.2331(3) -0.3120(2) 0.0626(3)
C1A C 0.3120(2) -0.2331(3) -0.0626(3)
C1SA C 0.3120(2) -0.0626(3) -0.2331(3)
C1GA C 0.2331(3) 0.0626(3) -0.3120(2)
C1O C 0.0626(3) 0.2331(3) -0.3120(2)
C1Q C -0.0626(3) 0.3120(2) -0.2331(3)
C1DA C -0.2331(3) 0.3120(2) -0.0626(3)
H1IA H 0.2256 -0.0512 0.2851
H1R H -0.0512 -0.2851 0.2256
H1X H -0.2851 -0.2256 -0.0512
H1K H -0.2256 0.0512 -0.2851
H1PA H 0.0512 0.2851 -0.2256
H1Z H 0.2851 0.2256 -0.0512
H1J H 0.2256 -0.0512 -0.2851
H1NA H -0.0512 -0.2851 -0.2256
H1B H -0.2851 -0.2256 0.0512
H1HA H -0.2256 0.0512 0.2851
H1P H 0.0512 0.2851 0.2256
H1EA H 0.2256 0.2851 0.0512
H1KA H 0.0512 0.2256 0.2851
H1V H 0.2851 -0.0512 0.2256
H1BA H 0.2256 -0.2851 -0.0512
H1M H -0.0512 -0.2256 -0.2851
H1TA H -0.2851 0.0512 -0.2256
H1D H -0.2256 0.2851 0.0512
H1QA H -0.0512 0.2851 0.2256
H1Y H -0.2851 0.2256 0.0512
H1I H -0.2256 -0.0512 0.2851
H1OA H 0.0512 -0.2851 0.2256
H1A H 0.2851 -0.2256 -0.0512
H1GA H 0.2256 0.0512 -0.2851
H1Q H -0.0512 0.2851 -0.2256
H1DA H -0.2256 0.2851 -0.0512
H1O H 0.0512 0.2256 -0.2851
H1SA H 0.2851 -0.0512 -0.2256
H1F H 0.2256 -0.2851 0.0512
H1MA H -0.0512 -0.2256 0.2851
H1U H -0.2851 0.0512 0.2256
H1C H -0.2851 0.2256 -0.0512
H1FA H -0.2256 -0.0512 -0.2851
H1S H 0.0512 -0.2851 -0.2256
H1AA H 0.2851 -0.2256 0.0512
H1H H 0.2256 0.0512 0.2851
H1L H -0.0512 0.2256 0.2851
H1UA H -0.2851 -0.0512 0.2256
H1G H -0.2256 -0.2851 -0.0512
H1JA H 0.0512 -0.2256 -0.2851
H1W H 0.2851 0.0512 -0.2256
H1E H 0.2256 0.2851 -0.0512
H1LA H -0.0512 0.2256 -0.2851
H1T H -0.2851 -0.0512 -0.2256
H1CA H -0.2256 -0.2851 0.0512
H1N H 0.0512 -0.2256 0.2851
H1RA H 0.2851 0.0512 0.2256
C2RA C 0.3299(3) 0.0961(3) 0.2087(2)
C2IA C 0.2087(2) -0.0961(3) 0.3299(3)
C2N C 0.0961(3) -0.2087(2) 0.3299(3)
C2R C -0.0961(3) -0.3299(3) 0.2087(2)
C2CA C -0.2087(2) -0.3299(3) 0.0961(3)
C2X C -0.3299(3) -0.2087(2) -0.0961(3)
C2T C -0.3299(3) -0.0961(3) -0.2087(2)
C2K C -0.2087(2) 0.0961(3) -0.3299(3)
C2LA C -0.0961(3) 0.2087(2) -0.3299(3)
C2PA C 0.0961(3) 0.3299(3) -0.2087(2)
C2E C 0.2087(2) 0.3299(3) -0.0961(3)
C2Z C 0.3299(3) 0.2087(2) -0.0961(3)
C2W C 0.3299(3) 0.0961(3) -0.2087(2)
C2J C 0.2087(2) -0.0961(3) -0.3299(3)
C2JA C 0.0961(3) -0.2087(2) -0.3299(3)
C2NA C -0.0961(3) -0.3299(3) -0.2087(2)
C2G C -0.2087(2) -0.3299(3) -0.0961(3)
C2B C -0.3299(3) -0.2087(2) 0.0961(3)
C2UA C -0.3299(3) -0.0961(3) 0.2087(2)
C2HA C -0.2087(2) 0.0961(3) 0.3299(3)
C2L C -0.0961(3) 0.2087(2) 0.3299(3)
C2P C 0.0961(3) 0.3299(3) 0.2087(2)
C2EA C 0.2087(2) 0.3299(3) 0.0961(3)
C2KA C 0.0961(3) 0.2087(2) 0.3299(3)
C2H C 0.2087(2) 0.0961(3) 0.3299(3)
C2V C 0.3299(3) -0.0961(3) 0.2087(2)
C2AA C 0.3299(3) -0.2087(2) 0.0961(3)
C2BA C 0.2087(2) -0.3299(3) -0.0961(3)
C2S C 0.0961(3) -0.3299(3) -0.2087(2)
C2M C -0.0961(3) -0.2087(2) -0.3299(3)
C2FA C -0.2087(2) -0.0961(3) -0.3299(3)
C2TA C -0.3299(3) 0.0961(3) -0.2087(2)
C2C C -0.3299(3) 0.2087(2) -0.0961(3)
C2D C -0.2087(2) 0.3299(3) 0.0961(3)
C2QA C -0.0961(3) 0.3299(3) 0.2087(2)
C2Y C -0.3299(3) 0.2087(2) 0.0961(3)
C2U C -0.3299(3) 0.0961(3) 0.2087(2)
C2I C -0.2087(2) -0.0961(3) 0.3299(3)
C2MA C -0.0961(3) -0.2087(2) 0.3299(3)
C2OA C 0.0961(3) -0.3299(3) 0.2087(2)
C2F C 0.2087(2) -0.3299(3) 0.0961(3)
C2A C 0.3299(3) -0.2087(2) -0.0961(3)
C2SA C 0.3299(3) -0.0961(3) -0.2087(2)
C2GA C 0.2087(2) 0.0961(3) -0.3299(3)
C2O C 0.0961(3) 0.2087(2) -0.3299(3)
C2Q C -0.0961(3) 0.3299(3) -0.2087(2)
C2DA C -0.2087(2) 0.3299(3) -0.0961(3)
H2IA H 0.185 -0.1071 0.3149
H2R H -0.1071 -0.3149 0.185
H2X H -0.3149 -0.185 -0.1071
H2K H -0.185 0.1071 -0.3149
H2PA H 0.1071 0.3149 -0.185
H2Z H 0.3149 0.185 -0.1071
H2J H 0.185 -0.1071 -0.3149
H2NA H -0.1071 -0.3149 -0.185
H2B H -0.3149 -0.185 0.1071
H2HA H -0.185 0.1071 0.3149
H2P H 0.1071 0.3149 0.185
H2EA H 0.185 0.3149 0.1071
H2KA H 0.1071 0.185 0.3149
H2V H 0.3149 -0.1071 0.185
H2BA H 0.185 -0.3149 -0.1071
H2M H -0.1071 -0.185 -0.3149
H2TA H -0.3149 0.1071 -0.185
H2D H -0.185 0.3149 0.1071
H2QA H -0.1071 0.3149 0.185
H2Y H -0.3149 0.185 0.1071
H2I H -0.185 -0.1071 0.3149
H2OA H 0.1071 -0.3149 0.185
H2A H 0.3149 -0.185 -0.1071
H2GA H 0.185 0.1071 -0.3149
H2Q H -0.1071 0.3149 -0.185
H2DA H -0.185 0.3149 -0.1071
H2O H 0.1071 0.185 -0.3149
H2SA H 0.3149 -0.1071 -0.185
H2F H 0.185 -0.3149 0.1071
H2MA H -0.1071 -0.185 0.3149
H2U H -0.3149 0.1071 0.185
H2C H -0.3149 0.185 -0.1071
H2FA H -0.185 -0.1071 -0.3149
H2S H 0.1071 -0.3149 -0.185
H2AA H 0.3149 -0.185 0.1071
H2H H 0.185 0.1071 0.3149
H2L H -0.1071 0.185 0.3149
H2UA H -0.3149 -0.1071 0.185
H2G H -0.185 -0.3149 -0.1071
H2JA H 0.1071 -0.185 -0.3149
H2W H 0.3149 0.1071 -0.185
H2E H 0.185 0.3149 -0.1071
H2LA H -0.1071 0.185 -0.3149
H2T H -0.3149 -0.1071 -0.185
H2CA H -0.185 -0.3149 0.1071
H2N H 0.1071 -0.185 0.3149
H2RA H 0.3149 0.1071 0.185
C3RA C 0.3702(3) 0.1131(2) 0.2199(3)
C3IA C 0.2199(3) -0.1131(2) 0.3702(3)
C3N C 0.1131(2) -0.2199(3) 0.3702(3)
C3R C -0.1131(2) -0.3702(3) 0.2199(3)
C3CA C -0.2199(3) -0.3702(3) 0.1131(2)
C3X C -0.3702(3) -0.2199(3) -0.1131(2)
C3T C -0.3702(3) -0.1131(2) -0.2199(3)
C3K C -0.2199(3) 0.1131(2) -0.3702(3)
C3LA C -0.1131(2) 0.2199(3) -0.3702(3)
C3PA C 0.1131(2) 0.3702(3) -0.2199(3)
C3E C 0.2199(3) 0.3702(3) -0.1131(2)
C3Z C 0.3702(3) 0.2199(3) -0.1131(2)
C3W C 0.3702(3) 0.1131(2) -0.2199(3)
C3J C 0.2199(3) -0.1131(2) -0.3702(3)
C3JA C 0.1131(2) -0.2199(3) -0.3702(3)
C3NA C -0.1131(2) -0.3702(3) -0.2199(3)
C3G C -0.2199(3) -0.3702(3) -0.1131(2)
C3B C -0.3702(3) -0.2199(3) 0.1131(2)
C3UA C -0.3702(3) -0.1131(2) 0.2199(3)
C3HA C -0.2199(3) 0.1131(2) 0.3702(3)
C3L C -0.1131(2) 0.2199(3) 0.3702(3)
C3P C 0.1131(2) 0.3702(3) 0.2199(3)
C3EA C 0.2199(3) 0.3702(3) 0.1131(2)
C3KA C 0.1131(2) 0.2199(3) 0.3702(3)
C3H C 0.2199(3) 0.1131(2) 0.3702(3)
C3V C 0.3702(3) -0.1131(2) 0.2199(3)
C3AA C 0.3702(3) -0.2199(3) 0.1131(2)
C3BA C 0.2199(3) -0.3702(3) -0.1131(2)
C3S C 0.1131(2) -0.3702(3) -0.2199(3)
C3M C -0.1131(2) -0.2199(3) -0.3702(3)
C3FA C -0.2199(3) -0.1131(2) -0.3702(3)
C3TA C -0.3702(3) 0.1131(2) -0.2199(3)
C3C C -0.3702(3) 0.2199(3) -0.1131(2)
C3D C -0.2199(3) 0.3702(3) 0.1131(2)
C3QA C -0.1131(2) 0.3702(3) 0.2199(3)
C3Y C -0.3702(3) 0.2199(3) 0.1131(2)
C3U C -0.3702(3) 0.1131(2) 0.2199(3)
C3I C -0.2199(3) -0.1131(2) 0.3702(3)
C3MA C -0.1131(2) -0.2199(3) 0.3702(3)
C3OA C 0.1131(2) -0.3702(3) 0.2199(3)
C3F C 0.2199(3) -0.3702(3) 0.1131(2)
C3A C 0.3702(3) -0.2199(3) -0.1131(2)
C3SA C 0.3702(3) -0.1131(2) -0.2199(3)
C3GA C 0.2199(3) 0.1131(2) -0.3702(3)
C3O C 0.1131(2) 0.2199(3) -0.3702(3)
C3Q C -0.1131(2) 0.3702(3) -0.2199(3)
C3DA C -0.2199(3) 0.3702(3) -0.1131(2)
C4IA C 0.2554(4) -0.0966(3) 0.3926(2)
C4R C -0.0966(3) -0.3926(2) 0.2554(4)
C4X C -0.3926(2) -0.2554(4) -0.0966(3)
C4K C -0.2554(4) 0.0966(3) -0.3926(2)
C4PA C 0.0966(3) 0.3926(2) -0.2554(4)
C4Z C 0.3926(2) 0.2554(4) -0.0966(3)
C4J C 0.2554(4) -0.0966(3) -0.3926(2)
C4NA C -0.0966(3) -0.3926(2) -0.2554(4)
C4B C -0.3926(2) -0.2554(4) 0.0966(3)
C4HA C -0.2554(4) 0.0966(3) 0.3926(2)
C4P C 0.0966(3) 0.3926(2) 0.2554(4)
C4EA C 0.2554(4) 0.3926(2) 0.0966(3)
C4KA C 0.0966(3) 0.2554(4) 0.3926(2)
C4V C 0.3926(2) -0.0966(3) 0.2554(4)
C4BA C 0.2554(4) -0.3926(2) -0.0966(3)
C4M C -0.0966(3) -0.2554(4) -0.3926(2)
C4TA C -0.3926(2) 0.0966(3) -0.2554(4)
C4D C -0.2554(4) 0.3926(2) 0.0966(3)
C4QA C -0.0966(3) 0.3926(2) 0.2554(4)
C4Y C -0.3926(2) 0.2554(4) 0.0966(3)
C4I C -0.2554(4) -0.0966(3) 0.3926(2)
C4OA C 0.0966(3) -0.3926(2) 0.2554(4)
C4A C 0.3926(2) -0.2554(4) -0.0966(3)
C4GA C 0.2554(4) 0.0966(3) -0.3926(2)
C4Q C -0.0966(3) 0.3926(2) -0.2554(4)
C4DA C -0.2554(4) 0.3926(2) -0.0966(3)
C4O C 0.0966(3) 0.2554(4) -0.3926(2)
C4SA C 0.3926(2) -0.0966(3) -0.2554(4)
C4F C 0.2554(4) -0.3926(2) 0.0966(3)
C4MA C -0.0966(3) -0.2554(4) 0.3926(2)
C4U C -0.3926(2) 0.0966(3) 0.2554(4)
C4C C -0.3926(2) 0.2554(4) -0.0966(3)
C4FA C -0.2554(4) -0.0966(3) -0.3926(2)
C4S C 0.0966(3) -0.3926(2) -0.2554(4)
C4AA C 0.3926(2) -0.2554(4) 0.0966(3)
C4H C 0.2554(4) 0.0966(3) 0.3926(2)
C4L C -0.0966(3) 0.2554(4) 0.3926(2)
C4UA C -0.3926(2) -0.0966(3) 0.2554(4)
C4G C -0.2554(4) -0.3926(2) -0.0966(3)
C4JA C 0.0966(3) -0.2554(4) -0.3926(2)
C4W C 0.3926(2) 0.0966(3) -0.2554(4)
C4E C 0.2554(4) 0.3926(2) -0.0966(3)
C4LA C -0.0966(3) 0.2554(4) -0.3926(2)
C4T C -0.3926(2) -0.0966(3) -0.2554(4)
C4CA C -0.2554(4) -0.3926(2) 0.0966(3)
C4N C 0.0966(3) -0.2554(4) 0.3926(2)
C4RA C 0.3926(2) 0.0966(3) 0.2554(4)
H3IA H 0.2629 -0.108 0.4195
H3R H -0.108 -0.4195 0.2629
H3X H -0.4195 -0.2629 -0.108
H3K H -0.2629 0.108 -0.4195
H3PA H 0.108 0.4195 -0.2629
H3Z H 0.4195 0.2629 -0.108
H3J H 0.2629 -0.108 -0.4195
H3NA H -0.108 -0.4195 -0.2629
H3B H -0.4195 -0.2629 0.108
H3HA H -0.2629 0.108 0.4195
H3P H 0.108 0.4195 0.2629
H3EA H 0.2629 0.4195 0.108
H3KA H 0.108 0.2629 0.4195
H3V H 0.4195 -0.108 0.2629
H3BA H 0.2629 -0.4195 -0.108
H3M H -0.108 -0.2629 -0.4195
H3TA H -0.4195 0.108 -0.2629
H3D H -0.2629 0.4195 0.108
H3QA H -0.108 0.4195 0.2629
H3Y H -0.4195 0.2629 0.108
H3I H -0.2629 -0.108 0.4195
H3OA H 0.108 -0.4195 0.2629
H3A H 0.4195 -0.2629 -0.108
H3GA H 0.2629 0.108 -0.4195
H3Q H -0.108 0.4195 -0.2629
H3DA H -0.2629 0.4195 -0.108
H3O H 0.108 0.2629 -0.4195
H3SA H 0.4195 -0.108 -0.2629
H3F H 0.2629 -0.4195 0.108
H3MA H -0.108 -0.2629 0.4195
H3U H -0.4195 0.108 0.2629
H3C H -0.4195 0.2629 -0.108
H3FA H -0.2629 -0.108 -0.4195
H3S H 0.108 -0.4195 -0.2629
H3AA H 0.4195 -0.2629 0.108
H3H H 0.2629 0.108 0.4195
H3L H -0.108 0.2629 0.4195
H3UA H -0.4195 -0.108 0.2629
H3G H -0.2629 -0.4195 -0.108
H3JA H 0.108 -0.2629 -0.4195
H3W H 0.4195 0.108 -0.2629
H3E H 0.2629 0.4195 -0.108
H3LA H -0.108 0.2629 -0.4195
H3T H -0.4195 -0.108 -0.2629
H3CA H -0.2629 -0.4195 0.108
H3N H 0.108 -0.2629 0.4195
H3RA H 0.4195 0.108 0.2629
C5IA C 0.2797(2) -0.0631(3) 0.3747(3)
C5R C -0.0631(3) -0.3747(3) 0.2797(2)
C5X C -0.3747(3) -0.2797(2) -0.0631(3)
C5K C -0.2797(2) 0.0631(3) -0.3747(3)
C5PA C 0.0631(3) 0.3747(3) -0.2797(2)
C5Z C 0.3747(3) 0.2797(2) -0.0631(3)
C5J C 0.2797(2) -0.0631(3) -0.3747(3)
C5NA C -0.0631(3) -0.3747(3) -0.2797(2)
C5B C -0.3747(3) -0.2797(2) 0.0631(3)
C5HA C -0.2797(2) 0.0631(3) 0.3747(3)
C5P C 0.0631(3) 0.3747(3) 0.2797(2)
C5EA C 0.2797(2) 0.3747(3) 0.0631(3)
C5KA C 0.0631(3) 0.2797(2) 0.3747(3)
C5V C 0.3747(3) -0.0631(3) 0.2797(2)
C5BA C 0.2797(2) -0.3747(3) -0.0631(3)
C5M C -0.0631(3) -0.2797(2) -0.3747(3)
C5TA C -0.3747(3) 0.0631(3) -0.2797(2)
C5D C -0.2797(2) 0.3747(3) 0.0631(3)
C5QA C -0.0631(3) 0.3747(3) 0.2797(2)
C5Y C -0.3747(3) 0.2797(2) 0.0631(3)
C5I C -0.2797(2) -0.0631(3) 0.3747(3)
C5OA C 0.0631(3) -0.3747(3) 0.2797(2)
C5A C 0.3747(3) -0.2797(2) -0.0631(3)
C5GA C 0.2797(2) 0.0631(3) -0.3747(3)
C5Q C -0.0631(3) 0.3747(3) -0.2797(2)
C5DA C -0.2797(2) 0.3747(3) -0.0631(3)
C5O C 0.0631(3) 0.2797(2) -0.3747(3)
C5SA C 0.3747(3) -0.0631(3) -0.2797(2)
C5F C 0.2797(2) -0.3747(3) 0.0631(3)
C5MA C -0.0631(3) -0.2797(2) 0.3747(3)
C5U C -0.3747(3) 0.0631(3) 0.2797(2)
C5C C -0.3747(3) 0.2797(2) -0.0631(3)
C5FA C -0.2797(2) -0.0631(3) -0.3747(3)
C5S C 0.0631(3) -0.3747(3) -0.2797(2)
C5AA C 0.3747(3) -0.2797(2) 0.0631(3)
C5H C 0.2797(2) 0.0631(3) 0.3747(3)
C5L C -0.0631(3) 0.2797(2) 0.3747(3)
C5UA C -0.3747(3) -0.0631(3) 0.2797(2)
C5G C -0.2797(2) -0.3747(3) -0.0631(3)
C5JA C 0.0631(3) -0.2797(2) -0.3747(3)
C5W C 0.3747(3) 0.0631(3) -0.2797(2)
C5E C 0.2797(2) 0.3747(3) -0.0631(3)
C5LA C -0.0631(3) 0.2797(2) -0.3747(3)
C5T C -0.3747(3) -0.0631(3) -0.2797(2)
C5CA C -0.2797(2) -0.3747(3) 0.0631(3)
C5N C 0.0631(3) -0.2797(2) 0.3747(3)
C5RA C 0.3747(3) 0.0631(3) 0.2797(2)
H4IA H 0.3035 -0.052 0.3897
H4R H -0.052 -0.3897 0.3035
H4X H -0.3897 -0.3035 -0.052
H4K H -0.3035 0.052 -0.3897
H4PA H 0.052 0.3897 -0.3035
H4Z H 0.3897 0.3035 -0.052
H4J H 0.3035 -0.052 -0.3897
H4NA H -0.052 -0.3897 -0.3035
H4B H -0.3897 -0.3035 0.052
H4HA H -0.3035 0.052 0.3897
H4P H 0.052 0.3897 0.3035
H4EA H 0.3035 0.3897 0.052
H4KA H 0.052 0.3035 0.3897
H4V H 0.3897 -0.052 0.3035
H4BA H 0.3035 -0.3897 -0.052
H4M H -0.052 -0.3035 -0.3897
H4TA H -0.3897 0.052 -0.3035
H4D H -0.3035 0.3897 0.052
H4QA H -0.052 0.3897 0.3035
H4Y H -0.3897 0.3035 0.052
H4I H -0.3035 -0.052 0.3897
H4OA H 0.052 -0.3897 0.3035
H4A H 0.3897 -0.3035 -0.052
H4GA H 0.3035 0.052 -0.3897
H4Q H -0.052 0.3897 -0.3035
H4DA H -0.3035 0.3897 -0.052
H4O H 0.052 0.3035 -0.3897
H4SA H 0.3897 -0.052 -0.3035
H4F H 0.3035 -0.3897 0.052
H4MA H -0.052 -0.3035 0.3897
H4U H -0.3897 0.052 0.3035
H4C H -0.3897 0.3035 -0.052
H4FA H -0.3035 -0.052 -0.3897
H4S H 0.052 -0.3897 -0.3035
H4AA H 0.3897 -0.3035 0.052
H4H H 0.3035 0.052 0.3897
H4L H -0.052 0.3035 0.3897
H4UA H -0.3897 -0.052 0.3035
H4G H -0.3035 -0.3897 -0.052
H4JA H 0.052 -0.3035 -0.3897
H4W H 0.3897 0.052 -0.3035
H4E H 0.3035 0.3897 -0.052
H4LA H -0.052 0.3035 -0.3897
H4T H -0.3897 -0.052 -0.3035
H4CA H -0.3035 -0.3897 0.052
H4N H 0.052 -0.3035 0.3897
H4RA H 0.3897 0.052 0.3035
C6RA C 0.3949(6) 0.1474(4) 0.1991(3)
C6IA C 0.1991(3) -0.1474(4) 0.3949(6)
C6N C 0.1474(4) -0.1991(3) 0.3949(6)
C6R C -0.1474(4) -0.3949(6) 0.1991(3)
C6CA C -0.1991(3) -0.3949(6) 0.1474(4)
C6X C -0.3949(6) -0.1991(3) -0.1474(4)
C6T C -0.3949(6) -0.1474(4) -0.1991(3)
C6K C -0.1991(3) 0.1474(4) -0.3949(6)
C6LA C -0.1474(4) 0.1991(3) -0.3949(6)
C6PA C 0.1474(4) 0.3949(6) -0.1991(3)
C6E C 0.1991(3) 0.3949(6) -0.1474(4)
C6Z C 0.3949(6) 0.1991(3) -0.1474(4)
C6W C 0.3949(6) 0.1474(4) -0.1991(3)
C6J C 0.1991(3) -0.1474(4) -0.3949(6)
C6JA C 0.1474(4) -0.1991(3) -0.3949(6)
C6NA C -0.1474(4) -0.3949(6) -0.1991(3)
C6G C -0.1991(3) -0.3949(6) -0.1474(4)
C6B C -0.3949(6) -0.1991(3) 0.1474(4)
C6UA C -0.3949(6) -0.1474(4) 0.1991(3)
C6HA C -0.1991(3) 0.1474(4) 0.3949(6)
C6L C -0.1474(4) 0.1991(3) 0.3949(6)
C6P C 0.1474(4) 0.3949(6) 0.1991(3)
C6EA C 0.1991(3) 0.3949(6) 0.1474(4)
C6KA C 0.1474(4) 0.1991(3) 0.3949(6)
C6H C 0.1991(3) 0.1474(4) 0.3949(6)
C6V C 0.3949(6) -0.1474(4) 0.1991(3)
C6AA C 0.3949(6) -0.1991(3) 0.1474(4)
C6BA C 0.1991(3) -0.3949(6) -0.1474(4)
C6S C 0.1474(4) -0.3949(6) -0.1991(3)
C6M C -0.1474(4) -0.1991(3) -0.3949(6)
C6FA C -0.1991(3) -0.1474(4) -0.3949(6)
C6TA C -0.3949(6) 0.1474(4) -0.1991(3)
C6C C -0.3949(6) 0.1991(3) -0.1474(4)
C6D C -0.1991(3) 0.3949(6) 0.1474(4)
C6QA C -0.1474(4) 0.3949(6) 0.1991(3)
C6Y C -0.3949(6) 0.1991(3) 0.1474(4)
C6U C -0.3949(6) 0.1474(4) 0.1991(3)
C6I C -0.1991(3) -0.1474(4) 0.3949(6)
C6MA C -0.1474(4) -0.1991(3) 0.3949(6)
C6OA C 0.1474(4) -0.3949(6) 0.1991(3)
C6F C 0.1991(3) -0.3949(6) 0.1474(4)
C6A C 0.3949(6) -0.1991(3) -0.1474(4)
C6SA C 0.3949(6) -0.1474(4) -0.1991(3)
C6GA C 0.1991(3) 0.1474(4) -0.3949(6)
C6O C 0.1474(4) 0.1991(3) -0.3949(6)
C6Q C -0.1474(4) 0.3949(6) -0.1991(3)
C6DA C -0.1991(3) 0.3949(6) -0.1474(4)
C7RA C 0.4351(5) 0.1726(5) 0.2031(4)
C7IA C 0.2031(4) -0.1726(5) 0.4351(5)
C7N C 0.1726(5) -0.2031(4) 0.4351(5)
C7R C -0.1726(5) -0.4351(5) 0.2031(4)
C7CA C -0.2031(4) -0.4351(5) 0.1726(5)
C7X C -0.4351(5) -0.2031(4) -0.1726(5)
C7T C -0.4351(5) -0.1726(5) -0.2031(4)
C7K C -0.2031(4) 0.1726(5) -0.4351(5)
C7LA C -0.1726(5) 0.2031(4) -0.4351(5)
C7PA C 0.1726(5) 0.4351(5) -0.2031(4)
C7E C 0.2031(4) 0.4351(5) -0.1726(5)
C7Z C 0.4351(5) 0.2031(4) -0.1726(5)
C7W C 0.4351(5) 0.1726(5) -0.2031(4)
C7J C 0.2031(4) -0.1726(5) -0.4351(5)
C7JA C 0.1726(5) -0.2031(4) -0.4351(5)
C7NA C -0.1726(5) -0.4351(5) -0.2031(4)
C7G C -0.2031(4) -0.4351(5) -0.1726(5)
C7B C -0.4351(5) -0.2031(4) 0.1726(5)
C7UA C -0.4351(5) -0.1726(5) 0.2031(4)
C7HA C -0.2031(4) 0.1726(5) 0.4351(5)
C7L C -0.1726(5) 0.2031(4) 0.4351(5)
C7P C 0.1726(5) 0.4351(5) 0.2031(4)
C7EA C 0.2031(4) 0.4351(5) 0.1726(5)
C7KA C 0.1726(5) 0.2031(4) 0.4351(5)
C7H C 0.2031(4) 0.1726(5) 0.4351(5)
C7V C 0.4351(5) -0.1726(5) 0.2031(4)
C7AA C 0.4351(5) -0.2031(4) 0.1726(5)
C7BA C 0.2031(4) -0.4351(5) -0.1726(5)
C7S C 0.1726(5) -0.4351(5) -0.2031(4)
C7M C -0.1726(5) -0.2031(4) -0.4351(5)
C7FA C -0.2031(4) -0.1726(5) -0.4351(5)
C7TA C -0.4351(5) 0.1726(5) -0.2031(4)
C7C C -0.4351(5) 0.2031(4) -0.1726(5)
C7D C -0.2031(4) 0.4351(5) 0.1726(5)
C7QA C -0.1726(5) 0.4351(5) 0.2031(4)
C7Y C -0.4351(5) 0.2031(4) 0.1726(5)
C7U C -0.4351(5) 0.1726(5) 0.2031(4)
C7I C -0.2031(4) -0.1726(5) 0.4351(5)
C7MA C -0.1726(5) -0.2031(4) 0.4351(5)
C7OA C 0.1726(5) -0.4351(5) 0.2031(4)
C7F C 0.2031(4) -0.4351(5) 0.1726(5)
C7A C 0.4351(5) -0.2031(4) -0.1726(5)
C7SA C 0.4351(5) -0.1726(5) -0.2031(4)
C7GA C 0.2031(4) 0.1726(5) -0.4351(5)
C7O C 0.1726(5) 0.2031(4) -0.4351(5)
C7Q C -0.1726(5) 0.4351(5) -0.2031(4)
C7DA C -0.2031(4) 0.4351(5) -0.1726(5)
H5J H 0.2235 -0.1681 -0.4569
H5HA H -0.2235 0.1681 0.4569
H5EA H 0.2235 0.4569 0.1681
H5P H 0.1681 0.4569 0.2235
H5V H 0.4569 -0.1681 0.2235
H5BA H 0.2235 -0.4569 -0.1681
H5TA H -0.4569 0.1681 -0.2235
H5D H -0.2235 0.4569 0.1681
H5QA H -0.1681 0.4569 0.2235
H5Y H -0.4569 0.2235 0.1681
H5I H -0.2235 -0.1681 0.4569
H5OA H 0.1681 -0.4569 0.2235
H5A H 0.4569 -0.2235 -0.1681
H5GA H 0.2235 0.1681 -0.4569
H5Q H -0.1681 0.4569 -0.2235
H5DA H -0.2235 0.4569 -0.1681
H5O H 0.1681 0.2235 -0.4569
H5SA H 0.4569 -0.1681 -0.2235
H5F H 0.2235 -0.4569 0.1681
H5MA H -0.1681 -0.2235 0.4569
H5U H -0.4569 0.1681 0.2235
H5C H -0.4569 0.2235 -0.1681
H5FA H -0.2235 -0.1681 -0.4569
H5M H -0.1681 -0.2235 -0.4569
H5S H 0.1681 -0.4569 -0.2235
H5AA H 0.4569 -0.2235 0.1681
H5H H 0.2235 0.1681 0.4569
H5KA H 0.1681 0.2235 0.4569
H5L H -0.1681 0.2235 0.4569
H5UA H -0.4569 -0.1681 0.2235
H5B H -0.4569 -0.2235 0.1681
H5G H -0.2235 -0.4569 -0.1681
H5NA H -0.1681 -0.4569 -0.2235
H5JA H 0.1681 -0.2235 -0.4569
H5W H 0.4569 0.1681 -0.2235
H5Z H 0.4569 0.2235 -0.1681
H5E H 0.2235 0.4569 -0.1681
H5PA H 0.1681 0.4569 -0.2235
H5LA H -0.1681 0.2235 -0.4569
H5K H -0.2235 0.1681 -0.4569
H5T H -0.4569 -0.1681 -0.2235
H5X H -0.4569 -0.2235 -0.1681
H5CA H -0.2235 -0.4569 0.1681
H5R H -0.1681 -0.4569 0.2235
H5N H 0.1681 -0.2235 0.4569
H5IA H 0.2235 -0.1681 0.4569
H5RA H 0.4569 0.1681 0.2235
O1J O 0.1647(3) -0.1647(3) -0.3715(3)
O1L O -0.1647(3) 0.1647(3) 0.3715(3)
O1P O 0.1647(3) 0.3715(3) 0.1647(3)
O1V O 0.3715(3) -0.1647(3) 0.1647(3)
O1S O 0.1647(3) -0.3715(3) -0.1647(3)
O1C O -0.3715(3) 0.1647(3) -0.1647(3)
O1D O -0.1647(3) 0.3715(3) 0.1647(3)
O1U O -0.3715(3) 0.1647(3) 0.1647(3)
O1I O -0.1647(3) -0.1647(3) 0.3715(3)
O1F O 0.1647(3) -0.3715(3) 0.1647(3)
O1A O 0.3715(3) -0.1647(3) -0.1647(3)
O1O O 0.1647(3) 0.1647(3) -0.3715(3)
O1Q O -0.1647(3) 0.3715(3) -0.1647(3)
O1M O -0.1647(3) -0.1647(3) -0.3715(3)
O1H O 0.1647(3) 0.1647(3) 0.3715(3)
O1B O -0.3715(3) -0.1647(3) 0.1647(3)
O1G O -0.1647(3) -0.3715(3) -0.1647(3)
O1W O 0.3715(3) 0.1647(3) -0.1647(3)
O1E O 0.1647(3) 0.3715(3) -0.1647(3)
O1K O -0.1647(3) 0.1647(3) -0.3715(3)
O1T O -0.3715(3) -0.1647(3) -0.1647(3)
O1R O -0.1647(3) -0.3715(3) 0.1647(3)
O1N O 0.1647(3) -0.1647(3) 0.3715(3)
F1 F 0.50000 0.2474(17) 0.0000
F2 F 0.50000 0.3333(9) 0.1467(9)
F3 F 0.4034(4) 0.4034(4) 0.0000
F4 F 0.3738(13) 0.3738(13) 0.0000
F5 F 0.1961(13) 0.1961(13) 0.1961(13)
F6 F 0.2280(8) 0.2280(8) 0.0000
F7 F 0.50000 0.50000 0.1383(4)
F8? F 0.50000 0.50000 0.1162(4)
F9? F 0.1919(8) 0.1919(8) 0.0105(17)
F10? F 0.50000 0.3331(13) 0.1290(15)
F11? F 0.50000 0.2859(10) 0.1363(10)
F12? F 0.50000 0.2636(11) 0.0000
loop_
_geom_bond_atom_site_label_1
_geom_bond_atom_site_label_2
_geom_bond_site_symmetry_1
_geom_bond_site_symmetry_2
Pt1 N1 1_555 1_555
N1 C1 1_555 1_555
C1 H1 1_555 1_555
C2 C1 1_555 1_555
H2 C2 1_555 1_555
C3 C2 1_555 1_555
C4 C3 1_555 1_555
H3 C4 1_555 1_555
C5 N1 1_555 1_555
H4 C5 1_555 1_555
C6 C3 1_555 1_555
C7 C6 1_555 1_555
H5 C7 1_555 1_555
O1 C6 1_555 1_555
F3 F4 1_555 1_555
Pt1H N1RA 1_555 1_555
Pt1N N1N 1_555 1_555
Pt1B N1CA 1_555 1_555
Pt1K N1T 1_555 1_555
Pt1O N1LA 1_555 1_555
Pt1J N1W 1_555 1_555
Pt1M N1JA 1_555 1_555
Pt1I N1UA 1_555 1_555
Pt1L N1L 1_555 1_555
Pt1A N1AA 1_555 1_555
Pt1C N1C 1_555 1_555
N1RA C1RA 1_555 1_555
N1IA Pt1H 1_555 1_555
N1N C1N 1_555 1_555
N1R Pt1N 1_555 1_555
N1CA C1CA 1_555 1_555
N1X Pt1B 1_555 1_555
N1T C1T 1_555 1_555
N1K Pt1K 1_555 1_555
N1LA C1LA 1_555 1_555
N1PA Pt1O 1_555 1_555
N1E Pt1 1_555 1_555
N1Z Pt1 1_555 1_555
N1W C1W 1_555 1_555
N1J Pt1J 1_555 1_555
N1JA C1JA 1_555 1_555
N1NA Pt1M 1_555 1_555
N1G Pt1B 1_555 1_555
N1B Pt1B 1_555 1_555
N1UA C1UA 1_555 1_555
N1HA Pt1I 1_555 1_555
N1L C1L 1_555 1_555
N1P Pt1L 1_555 1_555
N1EA Pt1 1_555 1_555
N1KA Pt1L 1_555 1_555
N1H Pt1H 1_555 1_555
N1V Pt1H 1_555 1_555
N1AA C1AA 1_555 1_555
N1BA Pt1A 1_555 1_555
N1S Pt1M 1_555 1_555
N1M Pt1M 1_555 1_555
N1FA Pt1K 1_555 1_555
N1TA Pt1K 1_555 1_555
N1C C1C 1_555 1_555
N1D Pt1C 1_555 1_555
N1QA Pt1L 1_555 1_555
N1Y Pt1C 1_555 1_555
N1U Pt1I 1_555 1_555
N1I Pt1I 1_555 1_555
N1MA Pt1N 1_555 1_555
N1OA Pt1N 1_555 1_555
N1F Pt1A 1_555 1_555
N1A Pt1A 1_555 1_555
N1SA Pt1J 1_555 1_555
N1GA Pt1J 1_555 1_555
N1O Pt1O 1_555 1_555
N1Q Pt1O 1_555 1_555
N1DA Pt1C 1_555 1_555
C1RA H1RA 1_555 1_555
C1IA N1IA 1_555 1_555
C1N H1N 1_555 1_555
C1R N1R 1_555 1_555
C1CA H1CA 1_555 1_555
C1X N1X 1_555 1_555
C1T H1T 1_555 1_555
C1K N1K 1_555 1_555
C1LA H1LA 1_555 1_555
C1PA N1PA 1_555 1_555
C1E N1E 1_555 1_555
C1Z N1Z 1_555 1_555
C1W H1W 1_555 1_555
C1J N1J 1_555 1_555
C1JA H1JA 1_555 1_555
C1NA N1NA 1_555 1_555
C1G N1G 1_555 1_555
C1B N1B 1_555 1_555
C1UA H1UA 1_555 1_555
C1HA N1HA 1_555 1_555
C1L H1L 1_555 1_555
C1P N1P 1_555 1_555
C1EA N1EA 1_555 1_555
C1KA N1KA 1_555 1_555
C1H N1H 1_555 1_555
C1V N1V 1_555 1_555
C1AA H1AA 1_555 1_555
C1BA N1BA 1_555 1_555
C1S N1S 1_555 1_555
C1M N1M 1_555 1_555
C1FA N1FA 1_555 1_555
C1TA N1TA 1_555 1_555
C1C H1C 1_555 1_555
C1D N1D 1_555 1_555
C1QA N1QA 1_555 1_555
C1Y N1Y 1_555 1_555
C1U N1U 1_555 1_555
C1I N1I 1_555 1_555
C1MA N1MA 1_555 1_555
C1OA N1OA 1_555 1_555
C1F N1F 1_555 1_555
C1A N1A 1_555 1_555
C1SA N1SA 1_555 1_555
C1GA N1GA 1_555 1_555
C1O N1O 1_555 1_555
C1Q N1Q 1_555 1_555
C1DA N1DA 1_555 1_555
H1IA C1IA 1_555 1_555
H1R C1R 1_555 1_555
H1X C1X 1_555 1_555
H1K C1K 1_555 1_555
H1PA C1PA 1_555 1_555
H1Z C1Z 1_555 1_555
H1J C1J 1_555 1_555
H1NA C1NA 1_555 1_555
H1B C1B 1_555 1_555
H1HA C1HA 1_555 1_555
H1P C1P 1_555 1_555
H1EA C1EA 1_555 1_555
H1KA C1KA 1_555 1_555
H1V C1V 1_555 1_555
H1BA C1BA 1_555 1_555
H1M C1M 1_555 1_555
H1TA C1TA 1_555 1_555
H1D C1D 1_555 1_555
H1QA C1QA 1_555 1_555
H1Y C1Y 1_555 1_555
H1I C1I 1_555 1_555
H1OA C1OA 1_555 1_555
H1A C1A 1_555 1_555
H1GA C1GA 1_555 1_555
H1Q C1Q 1_555 1_555
H1DA C1DA 1_555 1_555
H1O C1O 1_555 1_555
H1SA C1SA 1_555 1_555
H1F C1F 1_555 1_555
H1MA C1MA 1_555 1_555
H1U C1U 1_555 1_555
H1FA C1FA 1_555 1_555
H1S C1S 1_555 1_555
H1H C1H 1_555 1_555
H1G C1G 1_555 1_555
H1E C1E 1_555 1_555
C2RA C1RA 1_555 1_555
C2IA C1IA 1_555 1_555
C2N C1N 1_555 1_555
C2R C1R 1_555 1_555
C2CA C1CA 1_555 1_555
C2X C1X 1_555 1_555
C2T C1T 1_555 1_555
C2K C1K 1_555 1_555
C2LA C1LA 1_555 1_555
C2PA C1PA 1_555 1_555
C2E C1E 1_555 1_555
C2Z C1Z 1_555 1_555
C2W C1W 1_555 1_555
C2J C1J 1_555 1_555
C2JA C1JA 1_555 1_555
C2NA C1NA 1_555 1_555
C2G C1G 1_555 1_555
C2B C1B 1_555 1_555
C2UA C1UA 1_555 1_555
C2HA C1HA 1_555 1_555
C2L C1L 1_555 1_555
C2P C1P 1_555 1_555
C2EA C1EA 1_555 1_555
C2KA C1KA 1_555 1_555
C2H C1H 1_555 1_555
C2V C1V 1_555 1_555
C2AA C1AA 1_555 1_555
C2BA C1BA 1_555 1_555
C2S C1S 1_555 1_555
C2M C1M 1_555 1_555
C2FA C1FA 1_555 1_555
C2TA C1TA 1_555 1_555
C2C C1C 1_555 1_555
C2D C1D 1_555 1_555
C2QA C1QA 1_555 1_555
C2Y C1Y 1_555 1_555
C2U C1U 1_555 1_555
C2I C1I 1_555 1_555
C2MA C1MA 1_555 1_555
C2OA C1OA 1_555 1_555
C2F C1F 1_555 1_555
C2A C1A 1_555 1_555
C2SA C1SA 1_555 1_555
C2GA C1GA 1_555 1_555
C2O C1O 1_555 1_555
C2Q C1Q 1_555 1_555
C2DA C1DA 1_555 1_555
H2IA C2IA 1_555 1_555
H2R C2R 1_555 1_555
H2X C2X 1_555 1_555
H2K C2K 1_555 1_555
H2PA C2PA 1_555 1_555
H2Z C2Z 1_555 1_555
H2J C2J 1_555 1_555
H2NA C2NA 1_555 1_555
H2B C2B 1_555 1_555
H2HA C2HA 1_555 1_555
H2P C2P 1_555 1_555
H2EA C2EA 1_555 1_555
H2KA C2KA 1_555 1_555
H2V C2V 1_555 1_555
H2BA C2BA 1_555 1_555
H2M C2M 1_555 1_555
H2TA C2TA 1_555 1_555
H2D C2D 1_555 1_555
H2QA C2QA 1_555 1_555
H2Y C2Y 1_555 1_555
H2I C2I 1_555 1_555
H2OA C2OA 1_555 1_555
H2A C2A 1_555 1_555
H2GA C2GA 1_555 1_555
H2Q C2Q 1_555 1_555
H2DA C2DA 1_555 1_555
H2O C2O 1_555 1_555
H2SA C2SA 1_555 1_555
H2F C2F 1_555 1_555
H2MA C2MA 1_555 1_555
H2U C2U 1_555 1_555
H2C C2C 1_555 1_555
H2FA C2FA 1_555 1_555
H2S C2S 1_555 1_555
H2AA C2AA 1_555 1_555
H2H C2H 1_555 1_555
H2L C2L 1_555 1_555
H2UA C2UA 1_555 1_555
H2G C2G 1_555 1_555
H2JA C2JA 1_555 1_555
H2W C2W 1_555 1_555
H2E C2E 1_555 1_555
H2LA C2LA 1_555 1_555
H2T C2T 1_555 1_555
H2CA C2CA 1_555 1_555
H2N C2N 1_555 1_555
H2RA C2RA 1_555 1_555
C3RA C2RA 1_555 1_555
C3IA C2IA 1_555 1_555
C3N C2N 1_555 1_555
C3R C2R 1_555 1_555
C3CA C2CA 1_555 1_555
C3X C2X 1_555 1_555
C3T C2T 1_555 1_555
C3K C2K 1_555 1_555
C3LA C2LA 1_555 1_555
C3PA C2PA 1_555 1_555
C3E C2E 1_555 1_555
C3Z C2Z 1_555 1_555
C3W C2W 1_555 1_555
C3J C2J 1_555 1_555
C3JA C2JA 1_555 1_555
C3NA C2NA 1_555 1_555
C3G C2G 1_555 1_555
C3B C2B 1_555 1_555
C3UA C2UA 1_555 1_555
C3HA C2HA 1_555 1_555
C3L C2L 1_555 1_555
C3P C2P 1_555 1_555
C3EA C2EA 1_555 1_555
C3KA C2KA 1_555 1_555
C3H C2H 1_555 1_555
C3V C2V 1_555 1_555
C3AA C2AA 1_555 1_555
C3BA C2BA 1_555 1_555
C3S C2S 1_555 1_555
C3M C2M 1_555 1_555
C3FA C2FA 1_555 1_555
C3TA C2TA 1_555 1_555
C3C C2C 1_555 1_555
C3D C2D 1_555 1_555
C3QA C2QA 1_555 1_555
C3Y C2Y 1_555 1_555
C3U C2U 1_555 1_555
C3I C2I 1_555 1_555
C3MA C2MA 1_555 1_555
C3OA C2OA 1_555 1_555
C3F C2F 1_555 1_555
C3A C2A 1_555 1_555
C3SA C2SA 1_555 1_555
C3GA C2GA 1_555 1_555
C3O C2O 1_555 1_555
C3Q C2Q 1_555 1_555
C3DA C2DA 1_555 1_555
C4IA C3IA 1_555 1_555
C4R C3R 1_555 1_555
C4X C3X 1_555 1_555
C4K C3K 1_555 1_555
C4PA C3PA 1_555 1_555
C4Z C3Z 1_555 1_555
C4J C3J 1_555 1_555
C4NA C3NA 1_555 1_555
C4B C3B 1_555 1_555
C4HA C3HA 1_555 1_555
C4P C3P 1_555 1_555
C4EA C3EA 1_555 1_555
C4KA C3KA 1_555 1_555
C4V C3V 1_555 1_555
C4BA C3BA 1_555 1_555
C4M C3M 1_555 1_555
C4TA C3TA 1_555 1_555
C4D C3D 1_555 1_555
C4QA C3QA 1_555 1_555
C4Y C3Y 1_555 1_555
C4I C3I 1_555 1_555
C4OA C3OA 1_555 1_555
C4A C3A 1_555 1_555
C4GA C3GA 1_555 1_555
C4Q C3Q 1_555 1_555
C4DA C3DA 1_555 1_555
C4O C3O 1_555 1_555
C4SA C3SA 1_555 1_555
C4F C3F 1_555 1_555
C4MA C3MA 1_555 1_555
C4U C3U 1_555 1_555
C4C C3C 1_555 1_555
C4FA C3FA 1_555 1_555
C4S C3S 1_555 1_555
C4AA C3AA 1_555 1_555
C4H C3H 1_555 1_555
C4L C3L 1_555 1_555
C4UA C3UA 1_555 1_555
C4G C3G 1_555 1_555
C4JA C3JA 1_555 1_555
C4W C3W 1_555 1_555
C4E C3E 1_555 1_555
C4LA C3LA 1_555 1_555
C4T C3T 1_555 1_555
C4CA C3CA 1_555 1_555
C4N C3N 1_555 1_555
C4RA C3RA 1_555 1_555
H3IA C4IA 1_555 1_555
H3R C4R 1_555 1_555
H3X C4X 1_555 1_555
H3K C4K 1_555 1_555
H3PA C4PA 1_555 1_555
H3Z C4Z 1_555 1_555
H3J C4J 1_555 1_555
H3NA C4NA 1_555 1_555
H3B C4B 1_555 1_555
H3HA C4HA 1_555 1_555
H3P C4P 1_555 1_555
H3EA C4EA 1_555 1_555
H3KA C4KA 1_555 1_555
H3V C4V 1_555 1_555
H3BA C4BA 1_555 1_555
H3M C4M 1_555 1_555
H3TA C4TA 1_555 1_555
H3D C4D 1_555 1_555
H3QA C4QA 1_555 1_555
H3Y C4Y 1_555 1_555
H3I C4I 1_555 1_555
H3OA C4OA 1_555 1_555
H3A C4A 1_555 1_555
H3GA C4GA 1_555 1_555
H3Q C4Q 1_555 1_555
H3DA C4DA 1_555 1_555
H3O C4O 1_555 1_555
H3SA C4SA 1_555 1_555
H3F C4F 1_555 1_555
H3MA C4MA 1_555 1_555
H3U C4U 1_555 1_555
H3C C4C 1_555 1_555
H3FA C4FA 1_555 1_555
H3S C4S 1_555 1_555
H3AA C4AA 1_555 1_555
H3H C4H 1_555 1_555
H3L C4L 1_555 1_555
H3UA C4UA 1_555 1_555
H3G C4G 1_555 1_555
H3JA C4JA 1_555 1_555
H3W C4W 1_555 1_555
H3E C4E 1_555 1_555
H3LA C4LA 1_555 1_555
H3T C4T 1_555 1_555
H3CA C4CA 1_555 1_555
H3N C4N 1_555 1_555
H3RA C4RA 1_555 1_555
C5IA N1IA 1_555 1_555
C5R N1R 1_555 1_555
C5X N1X 1_555 1_555
C5K N1K 1_555 1_555
C5PA N1PA 1_555 1_555
C5Z N1Z 1_555 1_555
C5J N1J 1_555 1_555
C5NA N1NA 1_555 1_555
C5B N1B 1_555 1_555
C5HA N1HA 1_555 1_555
C5P N1P 1_555 1_555
C5EA N1EA 1_555 1_555
C5KA N1KA 1_555 1_555
C5V N1V 1_555 1_555
C5BA N1BA 1_555 1_555
C5M N1M 1_555 1_555
C5TA N1TA 1_555 1_555
C5D N1D 1_555 1_555
C5QA N1QA 1_555 1_555
C5Y N1Y 1_555 1_555
C5I N1I 1_555 1_555
C5OA N1OA 1_555 1_555
C5A N1A 1_555 1_555
C5GA N1GA 1_555 1_555
C5Q N1Q 1_555 1_555
C5DA N1DA 1_555 1_555
C5O N1O 1_555 1_555
C5SA N1SA 1_555 1_555
C5F N1F 1_555 1_555
C5MA N1MA 1_555 1_555
C5U N1U 1_555 1_555
C5C N1C 1_555 1_555
C5FA N1FA 1_555 1_555
C5S N1S 1_555 1_555
C5AA N1AA 1_555 1_555
C5H N1H 1_555 1_555
C5L N1L 1_555 1_555
C5UA N1UA 1_555 1_555
C5G N1G 1_555 1_555
C5JA N1JA 1_555 1_555
C5W N1W 1_555 1_555
C5E N1E 1_555 1_555
C5LA N1LA 1_555 1_555
C5T N1T 1_555 1_555
C5CA N1CA 1_555 1_555
C5N N1N 1_555 1_555
C5RA N1RA 1_555 1_555
H4IA C5IA 1_555 1_555
H4R C5R 1_555 1_555
H4X C5X 1_555 1_555
H4K C5K 1_555 1_555
H4PA C5PA 1_555 1_555
H4Z C5Z 1_555 1_555
H4J C5J 1_555 1_555
H4NA C5NA 1_555 1_555
H4B C5B 1_555 1_555
H4HA C5HA 1_555 1_555
H4P C5P 1_555 1_555
H4EA C5EA 1_555 1_555
H4KA C5KA 1_555 1_555
H4V C5V 1_555 1_555
H4BA C5BA 1_555 1_555
H4M C5M 1_555 1_555
H4TA C5TA 1_555 1_555
H4D C5D 1_555 1_555
H4QA C5QA 1_555 1_555
H4Y C5Y 1_555 1_555
H4I C5I 1_555 1_555
H4OA C5OA 1_555 1_555
H4A C5A 1_555 1_555
H4GA C5GA 1_555 1_555
H4Q C5Q 1_555 1_555
H4DA C5DA 1_555 1_555
H4O C5O 1_555 1_555
H4SA C5SA 1_555 1_555
H4F C5F 1_555 1_555
H4MA C5MA 1_555 1_555
H4U C5U 1_555 1_555
H4C C5C 1_555 1_555
H4FA C5FA 1_555 1_555
H4S C5S 1_555 1_555
H4AA C5AA 1_555 1_555
H4H C5H 1_555 1_555
H4L C5L 1_555 1_555
H4UA C5UA 1_555 1_555
H4G C5G 1_555 1_555
H4JA C5JA 1_555 1_555
H4W C5W 1_555 1_555
H4E C5E 1_555 1_555
H4LA C5LA 1_555 1_555
H4T C5T 1_555 1_555
H4CA C5CA 1_555 1_555
H4N C5N 1_555 1_555
H4RA C5RA 1_555 1_555
C6RA O1 1_555 1_555
C6IA C3IA 1_555 1_555
C6N C3N 1_555 1_555
C6R C3R 1_555 1_555
C6CA C3CA 1_555 1_555
C6X C3X 1_555 1_555
C6T C3T 1_555 1_555
C6K C3K 1_555 1_555
C6LA C3LA 1_555 1_555
C6PA C3PA 1_555 1_555
C6E C3E 1_555 1_555
C6Z C3Z 1_555 1_555
C6W C3W 1_555 1_555
C6J C3J 1_555 1_555
C6JA C3JA 1_555 1_555
C6NA C3NA 1_555 1_555
C6G C3G 1_555 1_555
C6B C3B 1_555 1_555
C6UA C3UA 1_555 1_555
C6HA C3HA 1_555 1_555
C6L C3L 1_555 1_555
C6P C3P 1_555 1_555
C6EA C3EA 1_555 1_555
C6KA C3KA 1_555 1_555
C6H C3H 1_555 1_555
C6V C3V 1_555 1_555
C6AA C3AA 1_555 1_555
C6BA C3BA 1_555 1_555
C6S C3S 1_555 1_555
C6M C3M 1_555 1_555
C6FA C3FA 1_555 1_555
C6TA C3TA 1_555 1_555
C6C C3C 1_555 1_555
C6D C3D 1_555 1_555
C6QA C3QA 1_555 1_555
C6Y C3Y 1_555 1_555
C6U C3U 1_555 1_555
C6I C3I 1_555 1_555
C6MA C3MA 1_555 1_555
C6OA C3OA 1_555 1_555
C6F C3F 1_555 1_555
C6A C3A 1_555 1_555
C6SA C3SA 1_555 1_555
C6GA C3GA 1_555 1_555
C6O C3O 1_555 1_555
C6Q C3Q 1_555 1_555
C6DA C3DA 1_555 1_555
C7RA C7 1_555 1_555
C7IA C6IA 1_555 1_555
C7N C6N 1_555 1_555
C7R C6R 1_555 1_555
C7CA C6CA 1_555 1_555
C7X C6X 1_555 1_555
C7T C6T 1_555 1_555
C7K C6K 1_555 1_555
C7LA C6LA 1_555 1_555
C7PA C6PA 1_555 1_555
C7E C6E 1_555 1_555
C7Z C6Z 1_555 1_555
C7W C6W 1_555 1_555
C7J C6J 1_555 1_555
C7JA C6JA 1_555 1_555
C7NA C6NA 1_555 1_555
C7G C6G 1_555 1_555
C7B C6B 1_555 1_555
C7UA C6UA 1_555 1_555
C7HA C6HA 1_555 1_555
C7L C6L 1_555 1_555
C7P C6P 1_555 1_555
C7EA C6EA 1_555 1_555
C7KA C6KA 1_555 1_555
C7H C6H 1_555 1_555
C7V C6V 1_555 1_555
C7AA C6AA 1_555 1_555
C7BA C6BA 1_555 1_555
C7S C6S 1_555 1_555
C7M C6M 1_555 1_555
C7FA C6FA 1_555 1_555
C7TA C6TA 1_555 1_555
C7C C6C 1_555 1_555
C7D C6D 1_555 1_555
C7QA C6QA 1_555 1_555
C7Y C6Y 1_555 1_555
C7U C6U 1_555 1_555
C7I C6I 1_555 1_555
C7MA C6MA 1_555 1_555
C7OA C6OA 1_555 1_555
C7F C6F 1_555 1_555
C7A C6A 1_555 1_555
C7SA C6SA 1_555 1_555
C7GA C6GA 1_555 1_555
C7O C6O 1_555 1_555
C7Q C6Q 1_555 1_555
C7DA C6DA 1_555 1_555
H5J C7J 1_555 1_555
H5HA C7HA 1_555 1_555
H5EA C7EA 1_555 1_555
H5P C7P 1_555 1_555
H5V C7V 1_555 1_555
H5BA C7BA 1_555 1_555
H5TA C7TA 1_555 1_555
H5D C7D 1_555 1_555
H5QA C7QA 1_555 1_555
H5Y C7Y 1_555 1_555
H5I C7I 1_555 1_555
H5OA C7OA 1_555 1_555
H5A C7A 1_555 1_555
H5GA C7GA 1_555 1_555
H5Q C7Q 1_555 1_555
H5DA C7DA 1_555 1_555
H5O C7O 1_555 1_555
H5SA C7SA 1_555 1_555
H5F C7F 1_555 1_555
H5MA C7MA 1_555 1_555
H5U C7U 1_555 1_555
H5C C7C 1_555 1_555
H5FA C7FA 1_555 1_555
H5M C7M 1_555 1_555
H5S C7S 1_555 1_555
H5AA C7AA 1_555 1_555
H5H C7H 1_555 1_555
H5KA C7KA 1_555 1_555
H5L C7L 1_555 1_555
H5UA C7UA 1_555 1_555
H5B C7B 1_555 1_555
H5G C7G 1_555 1_555
H5NA C7NA 1_555 1_555
H5JA C7JA 1_555 1_555
H5W C7W 1_555 1_555
H5Z C7Z 1_555 1_555
H5E C7E 1_555 1_555
H5PA C7PA 1_555 1_555
H5LA C7LA 1_555 1_555
H5K C7K 1_555 1_555
H5T C7T 1_555 1_555
H5X C7X 1_555 1_555
H5CA C7CA 1_555 1_555
H5R C7R 1_555 1_555
H5N C7N 1_555 1_555
H5IA C7IA 1_555 1_555
H5RA C7RA 1_555 1_555
O1J C6J 1_555 1_555
O1L C6HA 1_555 1_555
O1P C6P 1_555 1_555
O1V C6V 1_555 1_555
O1S C6BA 1_555 1_555
O1C C6TA 1_555 1_555
O1D C6D 1_555 1_555
O1U C6Y 1_555 1_555
O1I C6I 1_555 1_555
O1F C6OA 1_555 1_555
O1A C6A 1_555 1_555
O1O C6GA 1_555 1_555
O1Q C6Q 1_555 1_555
O1M C6M 1_555 1_555
O1H C6KA 1_555 1_555
O1B C6B 1_555 1_555
O1G C6NA 1_555 1_555
O1W C6Z 1_555 1_555
O1E C6PA 1_555 1_555
O1K C6K 1_555 1_555
O1T C6X 1_555 1_555
O1R C6R 1_555 1_555
O1N C6IA 1_555 1_555
C4 C5 1_555 1_555
C3RA C6RA 1_555 1_555
C4IA C5IA 1_555 1_555
C4R C5R 1_555 1_555
C4X C5X 1_555 1_555
C4K C5K 1_555 1_555
C4PA C5PA 1_555 1_555
C4Z C5Z 1_555 1_555
C4J C5J 1_555 1_555
C4NA C5NA 1_555 1_555
C4B C5B 1_555 1_555
C4HA C5HA 1_555 1_555
C4P C5P 1_555 1_555
C4EA C5EA 1_555 1_555
C4KA C5KA 1_555 1_555
C4V C5V 1_555 1_555
C4BA C5BA 1_555 1_555
C4M C5M 1_555 1_555
C4TA C5TA 1_555 1_555
C4D C5D 1_555 1_555
C4QA C5QA 1_555 1_555
C4Y C5Y 1_555 1_555
C4I C5I 1_555 1_555
C4OA C5OA 1_555 1_555
C4A C5A 1_555 1_555
C4GA C5GA 1_555 1_555
C4Q C5Q 1_555 1_555
C4DA C5DA 1_555 1_555
C4O C5O 1_555 1_555
C4SA C5SA 1_555 1_555
C4F C5F 1_555 1_555
C4MA C5MA 1_555 1_555
C4U C5U 1_555 1_555
C4C C5C 1_555 1_555
C4FA C5FA 1_555 1_555
C4S C5S 1_555 1_555
C4AA C5AA 1_555 1_555
C4H C5H 1_555 1_555
C4L C5L 1_555 1_555
C4UA C5UA 1_555 1_555
C4G C5G 1_555 1_555
C4JA C5JA 1_555 1_555
C4W C5W 1_555 1_555
C4E C5E 1_555 1_555
C4LA C5LA 1_555 1_555
C4T C5T 1_555 1_555
C4CA C5CA 1_555 1_555
C4N C5N 1_555 1_555
C4RA C5RA 1_555 1_555
C6RA C7RA 1_555 1_555
C6N O1N 1_555 1_555
C6CA O1R 1_555 1_555
C6T O1T 1_555 1_555
C6LA O1K 1_555 1_555
C6E O1E 1_555 1_555
C6W O1W 1_555 1_555
C6JA O1J 1_555 1_555
C6G O1G 1_555 1_555
C6UA O1B 1_555 1_555
C6L O1L 1_555 1_555
C6EA O1P 1_555 1_555
C6H O1H 1_555 1_555
C6AA O1V 1_555 1_555
C6S O1S 1_555 1_555
C6FA O1M 1_555 1_555
C6C O1C 1_555 1_555
C6QA O1D 1_555 1_555
C6U O1U 1_555 1_555
C6MA O1I 1_555 1_555
C6F O1F 1_555 1_555
C6SA O1A 1_555 1_555
C6O O1O 1_555 1_555
C6DA O1Q 1_555 1_555
C7IA C7N 1_555 1_555
C7R C7CA 1_555 1_555
C7X C7T 1_555 1_555
C7K C7LA 1_555 1_555
C7PA C7E 1_555 1_555
C7Z C7W 1_555 1_555
C7J C7JA 1_555 1_555
C7NA C7G 1_555 1_555
C7B C7UA 1_555 1_555
C7HA C7L 1_555 1_555
C7P C7EA 1_555 1_555
C7KA C7H 1_555 1_555
C7V C7AA 1_555 1_555
C7BA C7S 1_555 1_555
C7M C7FA 1_555 1_555
C7TA C7C 1_555 1_555
C7D C7QA 1_555 1_555
C7Y C7U 1_555 1_555
C7I C7MA 1_555 1_555
C7OA C7F 1_555 1_555
C7A C7SA 1_555 1_555
C7GA C7O 1_555 1_555
C7Q C7DA 1_555 1_555

#END
