# generated using pymatgen
data_H60Pt3C84N12(O3F22)2
_symmetry_space_group_name_H-M   'P 1'
_cell_length_a   30.80300000
_cell_length_b   30.80300000
_cell_length_c   30.80300000
_cell_angle_alpha   90.00000000
_cell_angle_beta   90.00000000
_cell_angle_gamma   90.00000000
_symmetry_Int_Tables_number   1
_chemical_formula_structural   H60Pt3C84N12(O3F22)2
_chemical_formula_sum   'H240 Pt12 C336 N48 O24 F176'
_cell_volume   29226.65059163
_cell_formula_units_Z   4
loop_
 _symmetry_equiv_pos_site_id
 _symmetry_equiv_pos_as_xyz
  1  'x, y, z'
loop_
 _atom_site_type_symbol
 _atom_site_label
 _atom_site_symmetry_multiplicity
 _atom_site_fract_x
 _atom_site_fract_y
 _atom_site_fract_z
 _atom_site_occupancy
  H  H1  1  0.285100  0.225600  0.051200  1.0
  H  H2  1  0.285100  0.774400  0.948800  1.0
  H  H3  1  0.714900  0.774400  0.051200  1.0
  H  H4  1  0.714900  0.225600  0.948800  1.0
  H  H5  1  0.774400  0.285100  0.051200  1.0
  H  H6  1  0.225600  0.285100  0.948800  1.0
  H  H7  1  0.225600  0.714900  0.051200  1.0
  H  H8  1  0.774400  0.714900  0.948800  1.0
  H  H9  1  0.225600  0.051200  0.285100  1.0
  H  H10  1  0.774400  0.948800  0.285100  1.0
  H  H11  1  0.225600  0.948800  0.714900  1.0
  H  H12  1  0.774400  0.051200  0.714900  1.0
  H  H13  1  0.948800  0.225600  0.285100  1.0
  H  H14  1  0.948800  0.774400  0.714900  1.0
  H  H15  1  0.051200  0.774400  0.285100  1.0
  H  H16  1  0.051200  0.225600  0.714900  1.0
  H  H17  1  0.051200  0.285100  0.225600  1.0
  H  H18  1  0.948800  0.285100  0.774400  1.0
  H  H19  1  0.948800  0.714900  0.225600  1.0
  H  H20  1  0.051200  0.714900  0.774400  1.0
  H  H21  1  0.714900  0.948800  0.774400  1.0
  H  H22  1  0.714900  0.051200  0.225600  1.0
  H  H23  1  0.285100  0.948800  0.225600  1.0
  H  H24  1  0.285100  0.051200  0.774400  1.0
  H  H25  1  0.714900  0.774400  0.948800  1.0
  H  H26  1  0.714900  0.225600  0.051200  1.0
  H  H27  1  0.285100  0.225600  0.948800  1.0
  H  H28  1  0.285100  0.774400  0.051200  1.0
  H  H29  1  0.225600  0.714900  0.948800  1.0
  H  H30  1  0.774400  0.714900  0.051200  1.0
  H  H31  1  0.774400  0.285100  0.948800  1.0
  H  H32  1  0.225600  0.285100  0.051200  1.0
  H  H33  1  0.774400  0.948800  0.714900  1.0
  H  H34  1  0.225600  0.051200  0.714900  1.0
  H  H35  1  0.774400  0.051200  0.285100  1.0
  H  H36  1  0.225600  0.948800  0.285100  1.0
  H  H37  1  0.051200  0.774400  0.714900  1.0
  H  H38  1  0.051200  0.225600  0.285100  1.0
  H  H39  1  0.948800  0.225600  0.714900  1.0
  H  H40  1  0.948800  0.774400  0.285100  1.0
  H  H41  1  0.948800  0.714900  0.774400  1.0
  H  H42  1  0.051200  0.714900  0.225600  1.0
  H  H43  1  0.051200  0.285100  0.774400  1.0
  H  H44  1  0.948800  0.285100  0.225600  1.0
  H  H45  1  0.285100  0.051200  0.225600  1.0
  H  H46  1  0.285100  0.948800  0.774400  1.0
  H  H47  1  0.714900  0.051200  0.774400  1.0
  H  H48  1  0.714900  0.948800  0.225600  1.0
  H  H49  1  0.314900  0.185000  0.107100  1.0
  H  H50  1  0.314900  0.815000  0.892900  1.0
  H  H51  1  0.685100  0.815000  0.107100  1.0
  H  H52  1  0.685100  0.185000  0.892900  1.0
  H  H53  1  0.815000  0.314900  0.107100  1.0
  H  H54  1  0.185000  0.314900  0.892900  1.0
  H  H55  1  0.185000  0.685100  0.107100  1.0
  H  H56  1  0.815000  0.685100  0.892900  1.0
  H  H57  1  0.185000  0.107100  0.314900  1.0
  H  H58  1  0.815000  0.892900  0.314900  1.0
  H  H59  1  0.185000  0.892900  0.685100  1.0
  H  H60  1  0.815000  0.107100  0.685100  1.0
  H  H61  1  0.892900  0.185000  0.314900  1.0
  H  H62  1  0.892900  0.815000  0.685100  1.0
  H  H63  1  0.107100  0.815000  0.314900  1.0
  H  H64  1  0.107100  0.185000  0.685100  1.0
  H  H65  1  0.107100  0.314900  0.185000  1.0
  H  H66  1  0.892900  0.314900  0.815000  1.0
  H  H67  1  0.892900  0.685100  0.185000  1.0
  H  H68  1  0.107100  0.685100  0.815000  1.0
  H  H69  1  0.685100  0.892900  0.815000  1.0
  H  H70  1  0.685100  0.107100  0.185000  1.0
  H  H71  1  0.314900  0.892900  0.185000  1.0
  H  H72  1  0.314900  0.107100  0.815000  1.0
  H  H73  1  0.685100  0.815000  0.892900  1.0
  H  H74  1  0.685100  0.185000  0.107100  1.0
  H  H75  1  0.314900  0.185000  0.892900  1.0
  H  H76  1  0.314900  0.815000  0.107100  1.0
  H  H77  1  0.185000  0.685100  0.892900  1.0
  H  H78  1  0.815000  0.685100  0.107100  1.0
  H  H79  1  0.815000  0.314900  0.892900  1.0
  H  H80  1  0.185000  0.314900  0.107100  1.0
  H  H81  1  0.815000  0.892900  0.685100  1.0
  H  H82  1  0.185000  0.107100  0.685100  1.0
  H  H83  1  0.815000  0.107100  0.314900  1.0
  H  H84  1  0.185000  0.892900  0.314900  1.0
  H  H85  1  0.107100  0.815000  0.685100  1.0
  H  H86  1  0.107100  0.185000  0.314900  1.0
  H  H87  1  0.892900  0.185000  0.685100  1.0
  H  H88  1  0.892900  0.815000  0.314900  1.0
  H  H89  1  0.892900  0.685100  0.815000  1.0
  H  H90  1  0.107100  0.685100  0.185000  1.0
  H  H91  1  0.107100  0.314900  0.815000  1.0
  H  H92  1  0.892900  0.314900  0.185000  1.0
  H  H93  1  0.314900  0.107100  0.185000  1.0
  H  H94  1  0.314900  0.892900  0.815000  1.0
  H  H95  1  0.685100  0.107100  0.815000  1.0
  H  H96  1  0.685100  0.892900  0.185000  1.0
  H  H97  1  0.419500  0.262900  0.108000  1.0
  H  H98  1  0.419500  0.737100  0.892000  1.0
  H  H99  1  0.580500  0.737100  0.108000  1.0
  H  H100  1  0.580500  0.262900  0.892000  1.0
  H  H101  1  0.737100  0.419500  0.108000  1.0
  H  H102  1  0.262900  0.419500  0.892000  1.0
  H  H103  1  0.262900  0.580500  0.108000  1.0
  H  H104  1  0.737100  0.580500  0.892000  1.0
  H  H105  1  0.262900  0.108000  0.419500  1.0
  H  H106  1  0.737100  0.892000  0.419500  1.0
  H  H107  1  0.262900  0.892000  0.580500  1.0
  H  H108  1  0.737100  0.108000  0.580500  1.0
  H  H109  1  0.892000  0.262900  0.419500  1.0
  H  H110  1  0.892000  0.737100  0.580500  1.0
  H  H111  1  0.108000  0.737100  0.419500  1.0
  H  H112  1  0.108000  0.262900  0.580500  1.0
  H  H113  1  0.108000  0.419500  0.262900  1.0
  H  H114  1  0.892000  0.419500  0.737100  1.0
  H  H115  1  0.892000  0.580500  0.262900  1.0
  H  H116  1  0.108000  0.580500  0.737100  1.0
  H  H117  1  0.580500  0.892000  0.737100  1.0
  H  H118  1  0.580500  0.108000  0.262900  1.0
  H  H119  1  0.419500  0.892000  0.262900  1.0
  H  H120  1  0.419500  0.108000  0.737100  1.0
  H  H121  1  0.580500  0.737100  0.892000  1.0
  H  H122  1  0.580500  0.262900  0.108000  1.0
  H  H123  1  0.419500  0.262900  0.892000  1.0
  H  H124  1  0.419500  0.737100  0.108000  1.0
  H  H125  1  0.262900  0.580500  0.892000  1.0
  H  H126  1  0.737100  0.580500  0.108000  1.0
  H  H127  1  0.737100  0.419500  0.892000  1.0
  H  H128  1  0.262900  0.419500  0.108000  1.0
  H  H129  1  0.737100  0.892000  0.580500  1.0
  H  H130  1  0.262900  0.108000  0.580500  1.0
  H  H131  1  0.737100  0.108000  0.419500  1.0
  H  H132  1  0.262900  0.892000  0.419500  1.0
  H  H133  1  0.108000  0.737100  0.580500  1.0
  H  H134  1  0.108000  0.262900  0.419500  1.0
  H  H135  1  0.892000  0.262900  0.580500  1.0
  H  H136  1  0.892000  0.737100  0.419500  1.0
  H  H137  1  0.892000  0.580500  0.737100  1.0
  H  H138  1  0.108000  0.580500  0.262900  1.0
  H  H139  1  0.108000  0.419500  0.737100  1.0
  H  H140  1  0.892000  0.419500  0.262900  1.0
  H  H141  1  0.419500  0.108000  0.262900  1.0
  H  H142  1  0.419500  0.892000  0.737100  1.0
  H  H143  1  0.580500  0.108000  0.737100  1.0
  H  H144  1  0.580500  0.892000  0.262900  1.0
  H  H145  1  0.389700  0.303500  0.052000  1.0
  H  H146  1  0.389700  0.696500  0.948000  1.0
  H  H147  1  0.610300  0.696500  0.052000  1.0
  H  H148  1  0.610300  0.303500  0.948000  1.0
  H  H149  1  0.696500  0.389700  0.052000  1.0
  H  H150  1  0.303500  0.389700  0.948000  1.0
  H  H151  1  0.303500  0.610300  0.052000  1.0
  H  H152  1  0.696500  0.610300  0.948000  1.0
  H  H153  1  0.303500  0.052000  0.389700  1.0
  H  H154  1  0.696500  0.948000  0.389700  1.0
  H  H155  1  0.303500  0.948000  0.610300  1.0
  H  H156  1  0.696500  0.052000  0.610300  1.0
  H  H157  1  0.948000  0.303500  0.389700  1.0
  H  H158  1  0.948000  0.696500  0.610300  1.0
  H  H159  1  0.052000  0.696500  0.389700  1.0
  H  H160  1  0.052000  0.303500  0.610300  1.0
  H  H161  1  0.052000  0.389700  0.303500  1.0
  H  H162  1  0.948000  0.389700  0.696500  1.0
  H  H163  1  0.948000  0.610300  0.303500  1.0
  H  H164  1  0.052000  0.610300  0.696500  1.0
  H  H165  1  0.610300  0.948000  0.696500  1.0
  H  H166  1  0.610300  0.052000  0.303500  1.0
  H  H167  1  0.389700  0.948000  0.303500  1.0
  H  H168  1  0.389700  0.052000  0.696500  1.0
  H  H169  1  0.610300  0.696500  0.948000  1.0
  H  H170  1  0.610300  0.303500  0.052000  1.0
  H  H171  1  0.389700  0.303500  0.948000  1.0
  H  H172  1  0.389700  0.696500  0.052000  1.0
  H  H173  1  0.303500  0.610300  0.948000  1.0
  H  H174  1  0.696500  0.610300  0.052000  1.0
  H  H175  1  0.696500  0.389700  0.948000  1.0
  H  H176  1  0.303500  0.389700  0.052000  1.0
  H  H177  1  0.696500  0.948000  0.610300  1.0
  H  H178  1  0.303500  0.052000  0.610300  1.0
  H  H179  1  0.696500  0.052000  0.389700  1.0
  H  H180  1  0.303500  0.948000  0.389700  1.0
  H  H181  1  0.052000  0.696500  0.610300  1.0
  H  H182  1  0.052000  0.303500  0.389700  1.0
  H  H183  1  0.948000  0.303500  0.610300  1.0
  H  H184  1  0.948000  0.696500  0.389700  1.0
  H  H185  1  0.948000  0.610300  0.696500  1.0
  H  H186  1  0.052000  0.610300  0.303500  1.0
  H  H187  1  0.052000  0.389700  0.696500  1.0
  H  H188  1  0.948000  0.389700  0.303500  1.0
  H  H189  1  0.389700  0.052000  0.303500  1.0
  H  H190  1  0.389700  0.948000  0.696500  1.0
  H  H191  1  0.610300  0.052000  0.696500  1.0
  H  H192  1  0.610300  0.948000  0.303500  1.0
  H  H193  1  0.456900  0.223500  0.168100  1.0
  H  H194  1  0.456900  0.776500  0.831900  1.0
  H  H195  1  0.543100  0.776500  0.168100  1.0
  H  H196  1  0.543100  0.223500  0.831900  1.0
  H  H197  1  0.776500  0.456900  0.168100  1.0
  H  H198  1  0.223500  0.456900  0.831900  1.0
  H  H199  1  0.223500  0.543100  0.168100  1.0
  H  H200  1  0.776500  0.543100  0.831900  1.0
  H  H201  1  0.223500  0.168100  0.456900  1.0
  H  H202  1  0.776500  0.831900  0.456900  1.0
  H  H203  1  0.223500  0.831900  0.543100  1.0
  H  H204  1  0.776500  0.168100  0.543100  1.0
  H  H205  1  0.831900  0.223500  0.456900  1.0
  H  H206  1  0.831900  0.776500  0.543100  1.0
  H  H207  1  0.168100  0.776500  0.456900  1.0
  H  H208  1  0.168100  0.223500  0.543100  1.0
  H  H209  1  0.168100  0.456900  0.223500  1.0
  H  H210  1  0.831900  0.456900  0.776500  1.0
  H  H211  1  0.831900  0.543100  0.223500  1.0
  H  H212  1  0.168100  0.543100  0.776500  1.0
  H  H213  1  0.543100  0.831900  0.776500  1.0
  H  H214  1  0.543100  0.168100  0.223500  1.0
  H  H215  1  0.456900  0.831900  0.223500  1.0
  H  H216  1  0.456900  0.168100  0.776500  1.0
  H  H217  1  0.543100  0.776500  0.831900  1.0
  H  H218  1  0.543100  0.223500  0.168100  1.0
  H  H219  1  0.456900  0.223500  0.831900  1.0
  H  H220  1  0.456900  0.776500  0.168100  1.0
  H  H221  1  0.223500  0.543100  0.831900  1.0
  H  H222  1  0.776500  0.543100  0.168100  1.0
  H  H223  1  0.776500  0.456900  0.831900  1.0
  H  H224  1  0.223500  0.456900  0.168100  1.0
  H  H225  1  0.776500  0.831900  0.543100  1.0
  H  H226  1  0.223500  0.168100  0.543100  1.0
  H  H227  1  0.776500  0.168100  0.456900  1.0
  H  H228  1  0.223500  0.831900  0.456900  1.0
  H  H229  1  0.168100  0.776500  0.543100  1.0
  H  H230  1  0.168100  0.223500  0.456900  1.0
  H  H231  1  0.831900  0.223500  0.543100  1.0
  H  H232  1  0.831900  0.776500  0.456900  1.0
  H  H233  1  0.831900  0.543100  0.776500  1.0
  H  H234  1  0.168100  0.543100  0.223500  1.0
  H  H235  1  0.168100  0.456900  0.776500  1.0
  H  H236  1  0.831900  0.456900  0.223500  1.0
  H  H237  1  0.456900  0.168100  0.223500  1.0
  H  H238  1  0.456900  0.831900  0.776500  1.0
  H  H239  1  0.543100  0.168100  0.776500  1.0
  H  H240  1  0.543100  0.831900  0.223500  1.0
  Pt  Pt241  1  0.301070  0.301070  0.000000  1.0
  Pt  Pt242  1  0.301070  0.698930  0.000000  1.0
  Pt  Pt243  1  0.698930  0.698930  0.000000  1.0
  Pt  Pt244  1  0.698930  0.301070  0.000000  1.0
  Pt  Pt245  1  0.301070  0.000000  0.301070  1.0
  Pt  Pt246  1  0.698930  0.000000  0.301070  1.0
  Pt  Pt247  1  0.301070  0.000000  0.698930  1.0
  Pt  Pt248  1  0.698930  0.000000  0.698930  1.0
  Pt  Pt249  1  0.000000  0.301070  0.301070  1.0
  Pt  Pt250  1  0.000000  0.698930  0.698930  1.0
  Pt  Pt251  1  0.000000  0.698930  0.301070  1.0
  Pt  Pt252  1  0.000000  0.301070  0.698930  1.0
  C  C253  1  0.312000  0.233100  0.062600  1.0
  C  C254  1  0.312000  0.766900  0.937400  1.0
  C  C255  1  0.688000  0.766900  0.062600  1.0
  C  C256  1  0.688000  0.233100  0.937400  1.0
  C  C257  1  0.766900  0.312000  0.062600  1.0
  C  C258  1  0.233100  0.312000  0.937400  1.0
  C  C259  1  0.233100  0.688000  0.062600  1.0
  C  C260  1  0.766900  0.688000  0.937400  1.0
  C  C261  1  0.233100  0.062600  0.312000  1.0
  C  C262  1  0.766900  0.937400  0.312000  1.0
  C  C263  1  0.233100  0.937400  0.688000  1.0
  C  C264  1  0.766900  0.062600  0.688000  1.0
  C  C265  1  0.937400  0.233100  0.312000  1.0
  C  C266  1  0.937400  0.766900  0.688000  1.0
  C  C267  1  0.062600  0.766900  0.312000  1.0
  C  C268  1  0.062600  0.233100  0.688000  1.0
  C  C269  1  0.062600  0.312000  0.233100  1.0
  C  C270  1  0.937400  0.312000  0.766900  1.0
  C  C271  1  0.937400  0.688000  0.233100  1.0
  C  C272  1  0.062600  0.688000  0.766900  1.0
  C  C273  1  0.688000  0.937400  0.766900  1.0
  C  C274  1  0.688000  0.062600  0.233100  1.0
  C  C275  1  0.312000  0.937400  0.233100  1.0
  C  C276  1  0.312000  0.062600  0.766900  1.0
  C  C277  1  0.688000  0.766900  0.937400  1.0
  C  C278  1  0.688000  0.233100  0.062600  1.0
  C  C279  1  0.312000  0.233100  0.937400  1.0
  C  C280  1  0.312000  0.766900  0.062600  1.0
  C  C281  1  0.233100  0.688000  0.937400  1.0
  C  C282  1  0.766900  0.688000  0.062600  1.0
  C  C283  1  0.766900  0.312000  0.937400  1.0
  C  C284  1  0.233100  0.312000  0.062600  1.0
  C  C285  1  0.766900  0.937400  0.688000  1.0
  C  C286  1  0.233100  0.062600  0.688000  1.0
  C  C287  1  0.766900  0.062600  0.312000  1.0
  C  C288  1  0.233100  0.937400  0.312000  1.0
  C  C289  1  0.062600  0.766900  0.688000  1.0
  C  C290  1  0.062600  0.233100  0.312000  1.0
  C  C291  1  0.937400  0.233100  0.688000  1.0
  C  C292  1  0.937400  0.766900  0.312000  1.0
  C  C293  1  0.937400  0.688000  0.766900  1.0
  C  C294  1  0.062600  0.688000  0.233100  1.0
  C  C295  1  0.062600  0.312000  0.766900  1.0
  C  C296  1  0.937400  0.312000  0.233100  1.0
  C  C297  1  0.312000  0.062600  0.233100  1.0
  C  C298  1  0.312000  0.937400  0.766900  1.0
  C  C299  1  0.688000  0.062600  0.766900  1.0
  C  C300  1  0.688000  0.937400  0.233100  1.0
  C  C301  1  0.329900  0.208700  0.096100  1.0
  C  C302  1  0.329900  0.791300  0.903900  1.0
  C  C303  1  0.670100  0.791300  0.096100  1.0
  C  C304  1  0.670100  0.208700  0.903900  1.0
  C  C305  1  0.791300  0.329900  0.096100  1.0
  C  C306  1  0.208700  0.329900  0.903900  1.0
  C  C307  1  0.208700  0.670100  0.096100  1.0
  C  C308  1  0.791300  0.670100  0.903900  1.0
  C  C309  1  0.208700  0.096100  0.329900  1.0
  C  C310  1  0.791300  0.903900  0.329900  1.0
  C  C311  1  0.208700  0.903900  0.670100  1.0
  C  C312  1  0.791300  0.096100  0.670100  1.0
  C  C313  1  0.903900  0.208700  0.329900  1.0
  C  C314  1  0.903900  0.791300  0.670100  1.0
  C  C315  1  0.096100  0.791300  0.329900  1.0
  C  C316  1  0.096100  0.208700  0.670100  1.0
  C  C317  1  0.096100  0.329900  0.208700  1.0
  C  C318  1  0.903900  0.329900  0.791300  1.0
  C  C319  1  0.903900  0.670100  0.208700  1.0
  C  C320  1  0.096100  0.670100  0.791300  1.0
  C  C321  1  0.670100  0.903900  0.791300  1.0
  C  C322  1  0.670100  0.096100  0.208700  1.0
  C  C323  1  0.329900  0.903900  0.208700  1.0
  C  C324  1  0.329900  0.096100  0.791300  1.0
  C  C325  1  0.670100  0.791300  0.903900  1.0
  C  C326  1  0.670100  0.208700  0.096100  1.0
  C  C327  1  0.329900  0.208700  0.903900  1.0
  C  C328  1  0.329900  0.791300  0.096100  1.0
  C  C329  1  0.208700  0.670100  0.903900  1.0
  C  C330  1  0.791300  0.670100  0.096100  1.0
  C  C331  1  0.791300  0.329900  0.903900  1.0
  C  C332  1  0.208700  0.329900  0.096100  1.0
  C  C333  1  0.791300  0.903900  0.670100  1.0
  C  C334  1  0.208700  0.096100  0.670100  1.0
  C  C335  1  0.791300  0.096100  0.329900  1.0
  C  C336  1  0.208700  0.903900  0.329900  1.0
  C  C337  1  0.096100  0.791300  0.670100  1.0
  C  C338  1  0.096100  0.208700  0.329900  1.0
  C  C339  1  0.903900  0.208700  0.670100  1.0
  C  C340  1  0.903900  0.791300  0.329900  1.0
  C  C341  1  0.903900  0.670100  0.791300  1.0
  C  C342  1  0.096100  0.670100  0.208700  1.0
  C  C343  1  0.096100  0.329900  0.791300  1.0
  C  C344  1  0.903900  0.329900  0.208700  1.0
  C  C345  1  0.329900  0.096100  0.208700  1.0
  C  C346  1  0.329900  0.903900  0.791300  1.0
  C  C347  1  0.670100  0.096100  0.791300  1.0
  C  C348  1  0.670100  0.903900  0.208700  1.0
  C  C349  1  0.370200  0.219900  0.113100  1.0
  C  C350  1  0.370200  0.780100  0.886900  1.0
  C  C351  1  0.629800  0.780100  0.113100  1.0
  C  C352  1  0.629800  0.219900  0.886900  1.0
  C  C353  1  0.780100  0.370200  0.113100  1.0
  C  C354  1  0.219900  0.370200  0.886900  1.0
  C  C355  1  0.219900  0.629800  0.113100  1.0
  C  C356  1  0.780100  0.629800  0.886900  1.0
  C  C357  1  0.219900  0.113100  0.370200  1.0
  C  C358  1  0.780100  0.886900  0.370200  1.0
  C  C359  1  0.219900  0.886900  0.629800  1.0
  C  C360  1  0.780100  0.113100  0.629800  1.0
  C  C361  1  0.886900  0.219900  0.370200  1.0
  C  C362  1  0.886900  0.780100  0.629800  1.0
  C  C363  1  0.113100  0.780100  0.370200  1.0
  C  C364  1  0.113100  0.219900  0.629800  1.0
  C  C365  1  0.113100  0.370200  0.219900  1.0
  C  C366  1  0.886900  0.370200  0.780100  1.0
  C  C367  1  0.886900  0.629800  0.219900  1.0
  C  C368  1  0.113100  0.629800  0.780100  1.0
  C  C369  1  0.629800  0.886900  0.780100  1.0
  C  C370  1  0.629800  0.113100  0.219900  1.0
  C  C371  1  0.370200  0.886900  0.219900  1.0
  C  C372  1  0.370200  0.113100  0.780100  1.0
  C  C373  1  0.629800  0.780100  0.886900  1.0
  C  C374  1  0.629800  0.219900  0.113100  1.0
  C  C375  1  0.370200  0.219900  0.886900  1.0
  C  C376  1  0.370200  0.780100  0.113100  1.0
  C  C377  1  0.219900  0.629800  0.886900  1.0
  C  C378  1  0.780100  0.629800  0.113100  1.0
  C  C379  1  0.780100  0.370200  0.886900  1.0
  C  C380  1  0.219900  0.370200  0.113100  1.0
  C  C381  1  0.780100  0.886900  0.629800  1.0
  C  C382  1  0.219900  0.113100  0.629800  1.0
  C  C383  1  0.780100  0.113100  0.370200  1.0
  C  C384  1  0.219900  0.886900  0.370200  1.0
  C  C385  1  0.113100  0.780100  0.629800  1.0
  C  C386  1  0.113100  0.219900  0.370200  1.0
  C  C387  1  0.886900  0.219900  0.629800  1.0
  C  C388  1  0.886900  0.780100  0.370200  1.0
  C  C389  1  0.886900  0.629800  0.780100  1.0
  C  C390  1  0.113100  0.629800  0.219900  1.0
  C  C391  1  0.113100  0.370200  0.780100  1.0
  C  C392  1  0.886900  0.370200  0.219900  1.0
  C  C393  1  0.370200  0.113100  0.219900  1.0
  C  C394  1  0.370200  0.886900  0.780100  1.0
  C  C395  1  0.629800  0.113100  0.780100  1.0
  C  C396  1  0.629800  0.886900  0.219900  1.0
  C  C397  1  0.392600  0.255400  0.096600  1.0
  C  C398  1  0.392600  0.744600  0.903400  1.0
  C  C399  1  0.607400  0.744600  0.096600  1.0
  C  C400  1  0.607400  0.255400  0.903400  1.0
  C  C401  1  0.744600  0.392600  0.096600  1.0
  C  C402  1  0.255400  0.392600  0.903400  1.0
  C  C403  1  0.255400  0.607400  0.096600  1.0
  C  C404  1  0.744600  0.607400  0.903400  1.0
  C  C405  1  0.255400  0.096600  0.392600  1.0
  C  C406  1  0.744600  0.903400  0.392600  1.0
  C  C407  1  0.255400  0.903400  0.607400  1.0
  C  C408  1  0.744600  0.096600  0.607400  1.0
  C  C409  1  0.903400  0.255400  0.392600  1.0
  C  C410  1  0.903400  0.744600  0.607400  1.0
  C  C411  1  0.096600  0.744600  0.392600  1.0
  C  C412  1  0.096600  0.255400  0.607400  1.0
  C  C413  1  0.096600  0.392600  0.255400  1.0
  C  C414  1  0.903400  0.392600  0.744600  1.0
  C  C415  1  0.903400  0.607400  0.255400  1.0
  C  C416  1  0.096600  0.607400  0.744600  1.0
  C  C417  1  0.607400  0.903400  0.744600  1.0
  C  C418  1  0.607400  0.096600  0.255400  1.0
  C  C419  1  0.392600  0.903400  0.255400  1.0
  C  C420  1  0.392600  0.096600  0.744600  1.0
  C  C421  1  0.607400  0.744600  0.903400  1.0
  C  C422  1  0.607400  0.255400  0.096600  1.0
  C  C423  1  0.392600  0.255400  0.903400  1.0
  C  C424  1  0.392600  0.744600  0.096600  1.0
  C  C425  1  0.255400  0.607400  0.903400  1.0
  C  C426  1  0.744600  0.607400  0.096600  1.0
  C  C427  1  0.744600  0.392600  0.903400  1.0
  C  C428  1  0.255400  0.392600  0.096600  1.0
  C  C429  1  0.744600  0.903400  0.607400  1.0
  C  C430  1  0.255400  0.096600  0.607400  1.0
  C  C431  1  0.744600  0.096600  0.392600  1.0
  C  C432  1  0.255400  0.903400  0.392600  1.0
  C  C433  1  0.096600  0.744600  0.607400  1.0
  C  C434  1  0.096600  0.255400  0.392600  1.0
  C  C435  1  0.903400  0.255400  0.607400  1.0
  C  C436  1  0.903400  0.744600  0.392600  1.0
  C  C437  1  0.903400  0.607400  0.744600  1.0
  C  C438  1  0.096600  0.607400  0.255400  1.0
  C  C439  1  0.096600  0.392600  0.744600  1.0
  C  C440  1  0.903400  0.392600  0.255400  1.0
  C  C441  1  0.392600  0.096600  0.255400  1.0
  C  C442  1  0.392600  0.903400  0.744600  1.0
  C  C443  1  0.607400  0.096600  0.744600  1.0
  C  C444  1  0.607400  0.903400  0.255400  1.0
  C  C445  1  0.374700  0.279700  0.063100  1.0
  C  C446  1  0.374700  0.720300  0.936900  1.0
  C  C447  1  0.625300  0.720300  0.063100  1.0
  C  C448  1  0.625300  0.279700  0.936900  1.0
  C  C449  1  0.720300  0.374700  0.063100  1.0
  C  C450  1  0.279700  0.374700  0.936900  1.0
  C  C451  1  0.279700  0.625300  0.063100  1.0
  C  C452  1  0.720300  0.625300  0.936900  1.0
  C  C453  1  0.279700  0.063100  0.374700  1.0
  C  C454  1  0.720300  0.936900  0.374700  1.0
  C  C455  1  0.279700  0.936900  0.625300  1.0
  C  C456  1  0.720300  0.063100  0.625300  1.0
  C  C457  1  0.936900  0.279700  0.374700  1.0
  C  C458  1  0.936900  0.720300  0.625300  1.0
  C  C459  1  0.063100  0.720300  0.374700  1.0
  C  C460  1  0.063100  0.279700  0.625300  1.0
  C  C461  1  0.063100  0.374700  0.279700  1.0
  C  C462  1  0.936900  0.374700  0.720300  1.0
  C  C463  1  0.936900  0.625300  0.279700  1.0
  C  C464  1  0.063100  0.625300  0.720300  1.0
  C  C465  1  0.625300  0.936900  0.720300  1.0
  C  C466  1  0.625300  0.063100  0.279700  1.0
  C  C467  1  0.374700  0.936900  0.279700  1.0
  C  C468  1  0.374700  0.063100  0.720300  1.0
  C  C469  1  0.625300  0.720300  0.936900  1.0
  C  C470  1  0.625300  0.279700  0.063100  1.0
  C  C471  1  0.374700  0.279700  0.936900  1.0
  C  C472  1  0.374700  0.720300  0.063100  1.0
  C  C473  1  0.279700  0.625300  0.936900  1.0
  C  C474  1  0.720300  0.625300  0.063100  1.0
  C  C475  1  0.720300  0.374700  0.936900  1.0
  C  C476  1  0.279700  0.374700  0.063100  1.0
  C  C477  1  0.720300  0.936900  0.625300  1.0
  C  C478  1  0.279700  0.063100  0.625300  1.0
  C  C479  1  0.720300  0.063100  0.374700  1.0
  C  C480  1  0.279700  0.936900  0.374700  1.0
  C  C481  1  0.063100  0.720300  0.625300  1.0
  C  C482  1  0.063100  0.279700  0.374700  1.0
  C  C483  1  0.936900  0.279700  0.625300  1.0
  C  C484  1  0.936900  0.720300  0.374700  1.0
  C  C485  1  0.936900  0.625300  0.720300  1.0
  C  C486  1  0.063100  0.625300  0.279700  1.0
  C  C487  1  0.063100  0.374700  0.720300  1.0
  C  C488  1  0.936900  0.374700  0.279700  1.0
  C  C489  1  0.374700  0.063100  0.279700  1.0
  C  C490  1  0.374700  0.936900  0.720300  1.0
  C  C491  1  0.625300  0.063100  0.720300  1.0
  C  C492  1  0.625300  0.936900  0.279700  1.0
  C  C493  1  0.394900  0.199100  0.147400  1.0
  C  C494  1  0.394900  0.800900  0.852600  1.0
  C  C495  1  0.605100  0.800900  0.147400  1.0
  C  C496  1  0.605100  0.199100  0.852600  1.0
  C  C497  1  0.800900  0.394900  0.147400  1.0
  C  C498  1  0.199100  0.394900  0.852600  1.0
  C  C499  1  0.199100  0.605100  0.147400  1.0
  C  C500  1  0.800900  0.605100  0.852600  1.0
  C  C501  1  0.199100  0.147400  0.394900  1.0
  C  C502  1  0.800900  0.852600  0.394900  1.0
  C  C503  1  0.199100  0.852600  0.605100  1.0
  C  C504  1  0.800900  0.147400  0.605100  1.0
  C  C505  1  0.852600  0.199100  0.394900  1.0
  C  C506  1  0.852600  0.800900  0.605100  1.0
  C  C507  1  0.147400  0.800900  0.394900  1.0
  C  C508  1  0.147400  0.199100  0.605100  1.0
  C  C509  1  0.147400  0.394900  0.199100  1.0
  C  C510  1  0.852600  0.394900  0.800900  1.0
  C  C511  1  0.852600  0.605100  0.199100  1.0
  C  C512  1  0.147400  0.605100  0.800900  1.0
  C  C513  1  0.605100  0.852600  0.800900  1.0
  C  C514  1  0.605100  0.147400  0.199100  1.0
  C  C515  1  0.394900  0.852600  0.199100  1.0
  C  C516  1  0.394900  0.147400  0.800900  1.0
  C  C517  1  0.605100  0.800900  0.852600  1.0
  C  C518  1  0.605100  0.199100  0.147400  1.0
  C  C519  1  0.394900  0.199100  0.852600  1.0
  C  C520  1  0.394900  0.800900  0.147400  1.0
  C  C521  1  0.199100  0.605100  0.852600  1.0
  C  C522  1  0.800900  0.605100  0.147400  1.0
  C  C523  1  0.800900  0.394900  0.852600  1.0
  C  C524  1  0.199100  0.394900  0.147400  1.0
  C  C525  1  0.800900  0.852600  0.605100  1.0
  C  C526  1  0.199100  0.147400  0.605100  1.0
  C  C527  1  0.800900  0.147400  0.394900  1.0
  C  C528  1  0.199100  0.852600  0.394900  1.0
  C  C529  1  0.147400  0.800900  0.605100  1.0
  C  C530  1  0.147400  0.199100  0.394900  1.0
  C  C531  1  0.852600  0.199100  0.605100  1.0
  C  C532  1  0.852600  0.800900  0.394900  1.0
  C  C533  1  0.852600  0.605100  0.800900  1.0
  C  C534  1  0.147400  0.605100  0.199100  1.0
  C  C535  1  0.147400  0.394900  0.800900  1.0
  C  C536  1  0.852600  0.394900  0.199100  1.0
  C  C537  1  0.394900  0.147400  0.199100  1.0
  C  C538  1  0.394900  0.852600  0.800900  1.0
  C  C539  1  0.605100  0.147400  0.800900  1.0
  C  C540  1  0.605100  0.852600  0.199100  1.0
  C  C541  1  0.435100  0.203100  0.172600  1.0
  C  C542  1  0.435100  0.796900  0.827400  1.0
  C  C543  1  0.564900  0.796900  0.172600  1.0
  C  C544  1  0.564900  0.203100  0.827400  1.0
  C  C545  1  0.796900  0.435100  0.172600  1.0
  C  C546  1  0.203100  0.435100  0.827400  1.0
  C  C547  1  0.203100  0.564900  0.172600  1.0
  C  C548  1  0.796900  0.564900  0.827400  1.0
  C  C549  1  0.203100  0.172600  0.435100  1.0
  C  C550  1  0.796900  0.827400  0.435100  1.0
  C  C551  1  0.203100  0.827400  0.564900  1.0
  C  C552  1  0.796900  0.172600  0.564900  1.0
  C  C553  1  0.827400  0.203100  0.435100  1.0
  C  C554  1  0.827400  0.796900  0.564900  1.0
  C  C555  1  0.172600  0.796900  0.435100  1.0
  C  C556  1  0.172600  0.203100  0.564900  1.0
  C  C557  1  0.172600  0.435100  0.203100  1.0
  C  C558  1  0.827400  0.435100  0.796900  1.0
  C  C559  1  0.827400  0.564900  0.203100  1.0
  C  C560  1  0.172600  0.564900  0.796900  1.0
  C  C561  1  0.564900  0.827400  0.796900  1.0
  C  C562  1  0.564900  0.172600  0.203100  1.0
  C  C563  1  0.435100  0.827400  0.203100  1.0
  C  C564  1  0.435100  0.172600  0.796900  1.0
  C  C565  1  0.564900  0.796900  0.827400  1.0
  C  C566  1  0.564900  0.203100  0.172600  1.0
  C  C567  1  0.435100  0.203100  0.827400  1.0
  C  C568  1  0.435100  0.796900  0.172600  1.0
  C  C569  1  0.203100  0.564900  0.827400  1.0
  C  C570  1  0.796900  0.564900  0.172600  1.0
  C  C571  1  0.796900  0.435100  0.827400  1.0
  C  C572  1  0.203100  0.435100  0.172600  1.0
  C  C573  1  0.796900  0.827400  0.564900  1.0
  C  C574  1  0.203100  0.172600  0.564900  1.0
  C  C575  1  0.796900  0.172600  0.435100  1.0
  C  C576  1  0.203100  0.827400  0.435100  1.0
  C  C577  1  0.172600  0.796900  0.564900  1.0
  C  C578  1  0.172600  0.203100  0.435100  1.0
  C  C579  1  0.827400  0.203100  0.564900  1.0
  C  C580  1  0.827400  0.796900  0.435100  1.0
  C  C581  1  0.827400  0.564900  0.796900  1.0
  C  C582  1  0.172600  0.564900  0.203100  1.0
  C  C583  1  0.172600  0.435100  0.796900  1.0
  C  C584  1  0.827400  0.435100  0.203100  1.0
  C  C585  1  0.435100  0.172600  0.203100  1.0
  C  C586  1  0.435100  0.827400  0.796900  1.0
  C  C587  1  0.564900  0.172600  0.796900  1.0
  C  C588  1  0.564900  0.827400  0.203100  1.0
  N  N589  1  0.334400  0.268600  0.046100  1.0
  N  N590  1  0.334400  0.731400  0.953900  1.0
  N  N591  1  0.665600  0.731400  0.046100  1.0
  N  N592  1  0.665600  0.268600  0.953900  1.0
  N  N593  1  0.731400  0.334400  0.046100  1.0
  N  N594  1  0.268600  0.334400  0.953900  1.0
  N  N595  1  0.268600  0.665600  0.046100  1.0
  N  N596  1  0.731400  0.665600  0.953900  1.0
  N  N597  1  0.268600  0.046100  0.334400  1.0
  N  N598  1  0.731400  0.953900  0.334400  1.0
  N  N599  1  0.268600  0.953900  0.665600  1.0
  N  N600  1  0.731400  0.046100  0.665600  1.0
  N  N601  1  0.953900  0.268600  0.334400  1.0
  N  N602  1  0.953900  0.731400  0.665600  1.0
  N  N603  1  0.046100  0.731400  0.334400  1.0
  N  N604  1  0.046100  0.268600  0.665600  1.0
  N  N605  1  0.046100  0.334400  0.268600  1.0
  N  N606  1  0.953900  0.334400  0.731400  1.0
  N  N607  1  0.953900  0.665600  0.268600  1.0
  N  N608  1  0.046100  0.665600  0.731400  1.0
  N  N609  1  0.665600  0.953900  0.731400  1.0
  N  N610  1  0.665600  0.046100  0.268600  1.0
  N  N611  1  0.334400  0.953900  0.268600  1.0
  N  N612  1  0.334400  0.046100  0.731400  1.0
  N  N613  1  0.665600  0.731400  0.953900  1.0
  N  N614  1  0.665600  0.268600  0.046100  1.0
  N  N615  1  0.334400  0.268600  0.953900  1.0
  N  N616  1  0.334400  0.731400  0.046100  1.0
  N  N617  1  0.268600  0.665600  0.953900  1.0
  N  N618  1  0.731400  0.665600  0.046100  1.0
  N  N619  1  0.731400  0.334400  0.953900  1.0
  N  N620  1  0.268600  0.334400  0.046100  1.0
  N  N621  1  0.731400  0.953900  0.665600  1.0
  N  N622  1  0.268600  0.046100  0.665600  1.0
  N  N623  1  0.731400  0.046100  0.334400  1.0
  N  N624  1  0.268600  0.953900  0.334400  1.0
  N  N625  1  0.046100  0.731400  0.665600  1.0
  N  N626  1  0.046100  0.268600  0.334400  1.0
  N  N627  1  0.953900  0.268600  0.665600  1.0
  N  N628  1  0.953900  0.731400  0.334400  1.0
  N  N629  1  0.953900  0.665600  0.731400  1.0
  N  N630  1  0.046100  0.665600  0.268600  1.0
  N  N631  1  0.046100  0.334400  0.731400  1.0
  N  N632  1  0.953900  0.334400  0.268600  1.0
  N  N633  1  0.334400  0.046100  0.268600  1.0
  N  N634  1  0.334400  0.953900  0.731400  1.0
  N  N635  1  0.665600  0.046100  0.731400  1.0
  N  N636  1  0.665600  0.953900  0.268600  1.0
  O  O637  1  0.371500  0.164700  0.164700  1.0
  O  O638  1  0.371500  0.835300  0.835300  1.0
  O  O639  1  0.628500  0.835300  0.164700  1.0
  O  O640  1  0.628500  0.164700  0.835300  1.0
  O  O641  1  0.835300  0.371500  0.164700  1.0
  O  O642  1  0.164700  0.371500  0.835300  1.0
  O  O643  1  0.164700  0.628500  0.164700  1.0
  O  O644  1  0.835300  0.628500  0.835300  1.0
  O  O645  1  0.164700  0.164700  0.371500  1.0
  O  O646  1  0.835300  0.835300  0.371500  1.0
  O  O647  1  0.164700  0.835300  0.628500  1.0
  O  O648  1  0.835300  0.164700  0.628500  1.0
  O  O649  1  0.835300  0.164700  0.371500  1.0
  O  O650  1  0.835300  0.835300  0.628500  1.0
  O  O651  1  0.164700  0.835300  0.371500  1.0
  O  O652  1  0.164700  0.164700  0.628500  1.0
  O  O653  1  0.164700  0.371500  0.164700  1.0
  O  O654  1  0.835300  0.371500  0.835300  1.0
  O  O655  1  0.835300  0.628500  0.164700  1.0
  O  O656  1  0.164700  0.628500  0.835300  1.0
  O  O657  1  0.628500  0.835300  0.835300  1.0
  O  O658  1  0.628500  0.164700  0.164700  1.0
  O  O659  1  0.371500  0.835300  0.164700  1.0
  O  O660  1  0.371500  0.164700  0.835300  1.0
  F  F661  1  0.500000  0.247400  0.000000  1
  F  F662  1  0.500000  0.752600  0.000000  1
  F  F663  1  0.752600  0.500000  0.000000  1
  F  F664  1  0.247400  0.500000  0.000000  1
  F  F665  1  0.247400  0.000000  0.500000  1
  F  F666  1  0.752600  0.000000  0.500000  1
  F  F667  1  0.000000  0.247400  0.500000  1
  F  F668  1  0.000000  0.752600  0.500000  1
  F  F669  1  0.000000  0.500000  0.247400  1
  F  F670  1  0.000000  0.500000  0.752600  1
  F  F671  1  0.500000  0.000000  0.752600  1
  F  F672  1  0.500000  0.000000  0.247400  1
  F  F673  1  0.500000  0.333333  0.146700  1
  F  F674  1  0.500000  0.666667  0.853300  1
  F  F675  1  0.500000  0.666667  0.146700  1
  F  F676  1  0.500000  0.333333  0.853300  1
  F  F677  1  0.666667  0.500000  0.146700  1
  F  F678  1  0.333333  0.500000  0.853300  1
  F  F679  1  0.333333  0.500000  0.146700  1
  F  F680  1  0.666667  0.500000  0.853300  1
  F  F681  1  0.333333  0.146700  0.500000  1
  F  F682  1  0.666667  0.853300  0.500000  1
  F  F683  1  0.333333  0.853300  0.500000  1
  F  F684  1  0.666667  0.146700  0.500000  1
  F  F685  1  0.853300  0.333333  0.500000  1
  F  F686  1  0.853300  0.666667  0.500000  1
  F  F687  1  0.146700  0.666667  0.500000  1
  F  F688  1  0.146700  0.333333  0.500000  1
  F  F689  1  0.146700  0.500000  0.333333  1
  F  F690  1  0.853300  0.500000  0.666667  1
  F  F691  1  0.853300  0.500000  0.333333  1
  F  F692  1  0.146700  0.500000  0.666667  1
  F  F693  1  0.500000  0.853300  0.666667  1
  F  F694  1  0.500000  0.146700  0.333333  1
  F  F695  1  0.500000  0.853300  0.333333  1
  F  F696  1  0.500000  0.146700  0.666667  1
  F  F697  1  0.403400  0.403400  0.000000  1
  F  F698  1  0.403400  0.596600  0.000000  1
  F  F699  1  0.596600  0.596600  0.000000  1
  F  F700  1  0.596600  0.403400  0.000000  1
  F  F701  1  0.403400  0.000000  0.403400  1
  F  F702  1  0.596600  0.000000  0.403400  1
  F  F703  1  0.403400  0.000000  0.596600  1
  F  F704  1  0.596600  0.000000  0.596600  1
  F  F705  1  0.000000  0.403400  0.403400  1
  F  F706  1  0.000000  0.596600  0.596600  1
  F  F707  1  0.000000  0.596600  0.403400  1
  F  F708  1  0.000000  0.403400  0.596600  1
  F  F709  1  0.373800  0.373800  0.000000  1
  F  F710  1  0.373800  0.626200  0.000000  1
  F  F711  1  0.626200  0.626200  0.000000  1
  F  F712  1  0.626200  0.373800  0.000000  1
  F  F713  1  0.373800  0.000000  0.373800  1
  F  F714  1  0.626200  0.000000  0.373800  1
  F  F715  1  0.373800  0.000000  0.626200  1
  F  F716  1  0.626200  0.000000  0.626200  1
  F  F717  1  0.000000  0.373800  0.373800  1
  F  F718  1  0.000000  0.626200  0.626200  1
  F  F719  1  0.000000  0.626200  0.373800  1
  F  F720  1  0.000000  0.373800  0.626200  1
  F  F721  1  0.196100  0.196100  0.196100  1
  F  F722  1  0.196100  0.803900  0.803900  1
  F  F723  1  0.803900  0.803900  0.196100  1
  F  F724  1  0.803900  0.196100  0.803900  1
  F  F725  1  0.803900  0.196100  0.196100  1
  F  F726  1  0.196100  0.196100  0.803900  1
  F  F727  1  0.196100  0.803900  0.196100  1
  F  F728  1  0.803900  0.803900  0.803900  1
  F  F729  1  0.228000  0.228000  0.000000  1
  F  F730  1  0.228000  0.772000  0.000000  1
  F  F731  1  0.772000  0.772000  0.000000  1
  F  F732  1  0.772000  0.228000  0.000000  1
  F  F733  1  0.228000  0.000000  0.228000  1
  F  F734  1  0.772000  0.000000  0.228000  1
  F  F735  1  0.228000  0.000000  0.772000  1
  F  F736  1  0.772000  0.000000  0.772000  1
  F  F737  1  0.000000  0.228000  0.228000  1
  F  F738  1  0.000000  0.772000  0.772000  1
  F  F739  1  0.000000  0.772000  0.228000  1
  F  F740  1  0.000000  0.228000  0.772000  1
  F  F741  1  0.500000  0.500000  0.138300  1
  F  F742  1  0.500000  0.500000  0.861700  1
  F  F743  1  0.500000  0.138300  0.500000  1
  F  F744  1  0.500000  0.861700  0.500000  1
  F  F745  1  0.861700  0.500000  0.500000  1
  F  F746  1  0.138300  0.500000  0.500000  1
  F  F747  1  0.500000  0.500000  0.116200  1
  F  F748  1  0.500000  0.500000  0.883800  1
  F  F749  1  0.500000  0.116200  0.500000  1
  F  F750  1  0.500000  0.883800  0.500000  1
  F  F751  1  0.883800  0.500000  0.500000  1
  F  F752  1  0.116200  0.500000  0.500000  1
  F  F753  1  0.191900  0.191900  0.010500  1
  F  F754  1  0.191900  0.808100  0.989500  1
  F  F755  1  0.808100  0.808100  0.010500  1
  F  F756  1  0.808100  0.191900  0.989500  1
  F  F757  1  0.808100  0.191900  0.010500  1
  F  F758  1  0.191900  0.191900  0.989500  1
  F  F759  1  0.191900  0.808100  0.010500  1
  F  F760  1  0.808100  0.808100  0.989500  1
  F  F761  1  0.191900  0.010500  0.191900  1
  F  F762  1  0.808100  0.989500  0.191900  1
  F  F763  1  0.191900  0.989500  0.808100  1
  F  F764  1  0.808100  0.010500  0.808100  1
  F  F765  1  0.989500  0.191900  0.191900  1
  F  F766  1  0.989500  0.808100  0.808100  1
  F  F767  1  0.010500  0.808100  0.191900  1
  F  F768  1  0.010500  0.191900  0.808100  1
  F  F769  1  0.010500  0.191900  0.191900  1
  F  F770  1  0.989500  0.191900  0.808100  1
  F  F771  1  0.989500  0.808100  0.191900  1
  F  F772  1  0.010500  0.808100  0.808100  1
  F  F773  1  0.808100  0.989500  0.808100  1
  F  F774  1  0.808100  0.010500  0.191900  1
  F  F775  1  0.191900  0.989500  0.191900  1
  F  F776  1  0.191900  0.010500  0.808100  1
  F  F777  1  0.500000  0.333100  0.129000  1
  F  F778  1  0.500000  0.666900  0.871000  1
  F  F779  1  0.500000  0.666900  0.129000  1
  F  F780  1  0.500000  0.333100  0.871000  1
  F  F781  1  0.666900  0.500000  0.129000  1
  F  F782  1  0.333100  0.500000  0.871000  1
  F  F783  1  0.333100  0.500000  0.129000  1
  F  F784  1  0.666900  0.500000  0.871000  1
  F  F785  1  0.333100  0.129000  0.500000  1
  F  F786  1  0.666900  0.871000  0.500000  1
  F  F787  1  0.333100  0.871000  0.500000  1
  F  F788  1  0.666900  0.129000  0.500000  1
  F  F789  1  0.871000  0.333100  0.500000  1
  F  F790  1  0.871000  0.666900  0.500000  1
  F  F791  1  0.129000  0.666900  0.500000  1
  F  F792  1  0.129000  0.333100  0.500000  1
  F  F793  1  0.129000  0.500000  0.333100  1
  F  F794  1  0.871000  0.500000  0.666900  1
  F  F795  1  0.871000  0.500000  0.333100  1
  F  F796  1  0.129000  0.500000  0.666900  1
  F  F797  1  0.500000  0.871000  0.666900  1
  F  F798  1  0.500000  0.129000  0.333100  1
  F  F799  1  0.500000  0.871000  0.333100  1
  F  F800  1  0.500000  0.129000  0.666900  1
  F  F801  1  0.500000  0.285900  0.136300  1
  F  F802  1  0.500000  0.714100  0.863700  1
  F  F803  1  0.500000  0.714100  0.136300  1
  F  F804  1  0.500000  0.285900  0.863700  1
  F  F805  1  0.714100  0.500000  0.136300  1
  F  F806  1  0.285900  0.500000  0.863700  1
  F  F807  1  0.285900  0.500000  0.136300  1
  F  F808  1  0.714100  0.500000  0.863700  1
  F  F809  1  0.285900  0.136300  0.500000  1
  F  F810  1  0.714100  0.863700  0.500000  1
  F  F811  1  0.285900  0.863700  0.500000  1
  F  F812  1  0.714100  0.136300  0.500000  1
  F  F813  1  0.863700  0.285900  0.500000  1
  F  F814  1  0.863700  0.714100  0.500000  1
  F  F815  1  0.136300  0.714100  0.500000  1
  F  F816  1  0.136300  0.285900  0.500000  1
  F  F817  1  0.136300  0.500000  0.285900  1
  F  F818  1  0.863700  0.500000  0.714100  1
  F  F819  1  0.863700  0.500000  0.285900  1
  F  F820  1  0.136300  0.500000  0.714100  1
  F  F821  1  0.500000  0.863700  0.714100  1
  F  F822  1  0.500000  0.136300  0.285900  1
  F  F823  1  0.500000  0.863700  0.285900  1
  F  F824  1  0.500000  0.136300  0.714100  1
  F  F825  1  0.500000  0.263600  0.000000  1
  F  F826  1  0.500000  0.736400  0.000000  1
  F  F827  1  0.736400  0.500000  0.000000  1
  F  F828  1  0.263600  0.500000  0.000000  1
  F  F829  1  0.263600  0.000000  0.500000  1
  F  F830  1  0.736400  0.000000  0.500000  1
  F  F831  1  0.000000  0.263600  0.500000  1
  F  F832  1  0.000000  0.736400  0.500000  1
  F  F833  1  0.000000  0.500000  0.263600  1
  F  F834  1  0.000000  0.500000  0.736400  1
  F  F835  1  0.500000  0.000000  0.736400  1
  F  F836  1  0.500000  0.000000  0.263600  1
