# generated using pymatgen
data_Fe8H383(C8N)48
_symmetry_space_group_name_H-M   'P 1'
_cell_length_a   32.39410000
_cell_length_b   36.20500000
_cell_length_c   47.50400000
_cell_angle_alpha   90.00000000
_cell_angle_beta   90.00000000
_cell_angle_gamma   104.09800000
_symmetry_Int_Tables_number   1
_chemical_formula_structural   Fe8H383(C8N)48
_chemical_formula_sum   'Fe32 H1532 C1536 N192'
_cell_volume   54035.96186727
_cell_formula_units_Z   4
loop_
 _symmetry_equiv_pos_site_id
 _symmetry_equiv_pos_as_xyz
  1  'x, y, z'
loop_
 _atom_site_type_symbol
 _atom_site_label
 _atom_site_symmetry_multiplicity
 _atom_site_fract_x
 _atom_site_fract_y
 _atom_site_fract_z
 _atom_site_occupancy
  Fe  Fe1  1  0.625700  0.745000  0.874140  1
  Fe  Fe2  1  0.874300  0.755000  0.374140  1
  Fe  Fe3  1  0.374300  0.255000  0.125860  1
  Fe  Fe4  1  0.125700  0.245000  0.625860  1
  Fe  Fe5  1  0.373580  0.547830  0.576930  1
  Fe  Fe6  1  0.126420  0.952170  0.076930  1
  Fe  Fe7  1  0.626420  0.452170  0.423070  1
  Fe  Fe8  1  0.873580  0.047830  0.923070  1
  Fe  Fe9  1  0.094320  0.559610  0.877860  1
  Fe  Fe10  1  0.405680  0.940390  0.377860  1
  Fe  Fe11  1  0.905680  0.440390  0.122140  1
  Fe  Fe12  1  0.594320  0.059610  0.622140  1
  Fe  Fe13  1  0.430770  0.267360  0.855850  1
  Fe  Fe14  1  0.069230  0.232640  0.355850  1
  Fe  Fe15  1  0.569230  0.732640  0.144150  1
  Fe  Fe16  1  0.930770  0.767360  0.644150  1
  Fe  Fe17  1  0.713310  0.480900  0.919960  1
  Fe  Fe18  1  0.786690  0.019100  0.419960  1
  Fe  Fe19  1  0.286690  0.519100  0.080040  1
  Fe  Fe20  1  0.213310  0.980900  0.580040  1
  Fe  Fe21  1  0.643920  0.751890  0.639100  1
  Fe  Fe22  1  0.856080  0.748110  0.139100  1
  Fe  Fe23  1  0.356080  0.248110  0.360900  1
  Fe  Fe24  1  0.143920  0.251890  0.860900  1
  Fe  Fe25  1  0.451000  0.273190  0.627820  1
  Fe  Fe26  1  0.049000  0.226810  0.127820  1
  Fe  Fe27  1  0.549000  0.726810  0.372180  1
  Fe  Fe28  1  0.951000  0.773190  0.872180  1
  Fe  Fe29  1  0.981830  0.460750  0.616640  1
  Fe  Fe30  1  0.518170  0.039250  0.116640  1
  Fe  Fe31  1  0.018170  0.539250  0.383360  1
  Fe  Fe32  1  0.481830  0.960750  0.883360  1
  H  H33  1  0.658500  0.804700  0.923900  1
  H  H34  1  0.841500  0.695300  0.423900  1
  H  H35  1  0.341500  0.195300  0.076100  1
  H  H36  1  0.158500  0.304700  0.576100  1
  H  H37  1  0.644200  0.863000  0.935800  1
  H  H38  1  0.855800  0.637000  0.435800  1
  H  H39  1  0.355800  0.137000  0.064200  1
  H  H40  1  0.144200  0.363000  0.564200  1
  H  H41  1  0.594500  0.886100  0.909800  1
  H  H42  1  0.905500  0.613900  0.409800  1
  H  H43  1  0.405500  0.113900  0.090200  1
  H  H44  1  0.094500  0.386100  0.590200  1
  H  H45  1  0.559100  0.850900  0.871900  1
  H  H46  1  0.940900  0.649100  0.371900  1
  H  H47  1  0.440900  0.149100  0.128100  1
  H  H48  1  0.059100  0.350900  0.628100  1
  H  H49  1  0.555200  0.796500  0.835700  1
  H  H50  1  0.944800  0.703500  0.335700  1
  H  H51  1  0.444800  0.203500  0.164300  1
  H  H52  1  0.055200  0.296500  0.664300  1
  H  H53  1  0.507500  0.711300  0.840000  1
  H  H54  1  0.992500  0.788700  0.340000  1
  H  H55  1  0.492500  0.288700  0.160000  1
  H  H56  1  0.007500  0.211300  0.660000  1
  H  H57  1  0.589400  0.711800  0.758700  1
  H  H58  1  0.910600  0.788200  0.258700  1
  H  H59  1  0.410600  0.288200  0.241300  1
  H  H60  1  0.089400  0.211800  0.741300  1
  H  H61  1  0.619500  0.746400  0.798400  1
  H  H62  1  0.880500  0.753600  0.298400  1
  H  H63  1  0.380500  0.253600  0.201600  1
  H  H64  1  0.119500  0.246400  0.701600  1
  H  H65  1  0.449000  0.656300  0.788000  1
  H  H66  1  0.051000  0.843700  0.288000  1
  H  H67  1  0.551000  0.343700  0.212000  1
  H  H68  1  0.949000  0.156300  0.712000  1
  H  H69  1  0.444100  0.689000  0.809400  1
  H  H70  1  0.055900  0.811000  0.309400  1
  H  H71  1  0.555900  0.311000  0.190600  1
  H  H72  1  0.944100  0.189000  0.690600  1
  H  H73  1  0.459000  0.652700  0.820800  1
  H  H74  1  0.041000  0.847300  0.320800  1
  H  H75  1  0.541000  0.347300  0.179200  1
  H  H76  1  0.959000  0.152700  0.679200  1
  H  H77  1  0.467000  0.698300  0.740500  1
  H  H78  1  0.033000  0.801700  0.240500  1
  H  H79  1  0.533000  0.301700  0.259500  1
  H  H80  1  0.967000  0.198300  0.759500  1
  H  H81  1  0.441600  0.663200  0.700000  1
  H  H82  1  0.058400  0.836800  0.200000  1
  H  H83  1  0.558400  0.336800  0.300000  1
  H  H84  1  0.941600  0.163200  0.800000  1
  H  H85  1  0.527100  0.599300  0.711500  1
  H  H86  1  0.972900  0.900700  0.211500  1
  H  H87  1  0.472900  0.400700  0.288500  1
  H  H88  1  0.027100  0.099300  0.788500  1
  H  H89  1  0.552500  0.634400  0.752000  1
  H  H90  1  0.947500  0.865600  0.252000  1
  H  H91  1  0.447500  0.365600  0.248000  1
  H  H92  1  0.052500  0.134400  0.748000  1
  H  H93  1  0.425100  0.521000  0.649900  1
  H  H94  1  0.074900  0.979000  0.149900  1
  H  H95  1  0.574900  0.479000  0.350100  1
  H  H96  1  0.925100  0.021000  0.850100  1
  H  H97  1  0.453800  0.621300  0.607600  1
  H  H98  1  0.046200  0.878700  0.107600  1
  H  H99  1  0.546200  0.378700  0.392400  1
  H  H100  1  0.953800  0.121300  0.892400  1
  H  H101  1  0.477100  0.653500  0.649600  1
  H  H102  1  0.022900  0.846500  0.149600  1
  H  H103  1  0.522900  0.346500  0.350400  1
  H  H104  1  0.977100  0.153500  0.850400  1
  H  H105  1  0.455700  0.557100  0.716700  1
  H  H106  1  0.044300  0.942900  0.216700  1
  H  H107  1  0.544300  0.442900  0.283300  1
  H  H108  1  0.955700  0.057100  0.783300  1
  H  H109  1  0.466400  0.524800  0.697000  1
  H  H110  1  0.033600  0.975200  0.197000  1
  H  H111  1  0.533600  0.475200  0.303000  1
  H  H112  1  0.966400  0.024800  0.803000  1
  H  H113  1  0.418000  0.526200  0.702100  1
  H  H114  1  0.082000  0.973800  0.202100  1
  H  H115  1  0.582000  0.473800  0.297900  1
  H  H116  1  0.918000  0.026200  0.797900  1
  H  H117  1  0.477200  0.531100  0.598700  1
  H  H118  1  0.022800  0.968900  0.098700  1
  H  H119  1  0.522800  0.468900  0.401300  1
  H  H120  1  0.977200  0.031100  0.901300  1
  H  H121  1  0.360900  0.504200  0.519100  1
  H  H122  1  0.139100  0.995800  0.019100  1
  H  H123  1  0.639100  0.495800  0.480900  1
  H  H124  1  0.860900  0.004200  0.980900  1
  H  H125  1  0.399600  0.469600  0.492900  1
  H  H126  1  0.100400  0.030400  0.992900  1
  H  H127  1  0.600400  0.530400  0.507100  1
  H  H128  1  0.899600  0.969600  0.007100  1
  H  H129  1  0.465600  0.462900  0.509300  1
  H  H130  1  0.034400  0.037100  0.009300  1
  H  H131  1  0.534400  0.537100  0.490700  1
  H  H132  1  0.965600  0.962900  0.990700  1
  H  H133  1  0.492700  0.490900  0.552000  1
  H  H134  1  0.007300  0.009100  0.052000  1
  H  H135  1  0.507300  0.509100  0.448000  1
  H  H136  1  0.992700  0.990900  0.948000  1
  H  H137  1  0.724200  0.763600  0.889600  1
  H  H138  1  0.775800  0.736400  0.389600  1
  H  H139  1  0.275800  0.236400  0.110400  1
  H  H140  1  0.224200  0.263600  0.610400  1
  H  H141  1  0.760800  0.754500  0.930500  1
  H  H142  1  0.739200  0.745500  0.430500  1
  H  H143  1  0.239200  0.245500  0.069500  1
  H  H144  1  0.260800  0.254500  0.569500  1
  H  H145  1  0.723000  0.726600  0.970200  1
  H  H146  1  0.777000  0.773400  0.470200  1
  H  H147  1  0.277000  0.273400  0.029800  1
  H  H148  1  0.223000  0.226600  0.529800  1
  H  H149  1  0.648600  0.707900  0.969100  1
  H  H150  1  0.851400  0.792100  0.469100  1
  H  H151  1  0.351400  0.292100  0.030900  1
  H  H152  1  0.148600  0.207900  0.530900  1
  H  H153  1  0.578700  0.683800  0.936800  1
  H  H154  1  0.921300  0.816200  0.436800  1
  H  H155  1  0.421300  0.316200  0.063200  1
  H  H156  1  0.078700  0.183800  0.563200  1
  H  H157  1  0.536400  0.647900  0.889500  1
  H  H158  1  0.963600  0.852100  0.389500  1
  H  H159  1  0.463600  0.352100  0.110500  1
  H  H160  1  0.036400  0.147900  0.610500  1
  H  H161  1  0.451100  0.735300  0.892300  1
  H  H162  1  0.048900  0.764700  0.392300  1
  H  H163  1  0.548900  0.264700  0.107700  1
  H  H164  1  0.951100  0.235300  0.607700  1
  H  H165  1  0.524500  0.755900  0.900200  1
  H  H166  1  0.975500  0.744100  0.400200  1
  H  H167  1  0.475500  0.244100  0.099800  1
  H  H168  1  0.024500  0.255900  0.599800  1
  H  H169  1  0.426300  0.606100  0.877300  1
  H  H170  1  0.073700  0.893900  0.377300  1
  H  H171  1  0.573700  0.393900  0.122700  1
  H  H172  1  0.926300  0.106100  0.622700  1
  H  H173  1  0.461600  0.596800  0.897800  1
  H  H174  1  0.038400  0.903200  0.397800  1
  H  H175  1  0.538400  0.403200  0.102200  1
  H  H176  1  0.961600  0.096800  0.602200  1
  H  H177  1  0.470900  0.602100  0.864800  1
  H  H178  1  0.029100  0.897900  0.364800  1
  H  H179  1  0.529100  0.397900  0.135200  1
  H  H180  1  0.970900  0.102100  0.635200  1
  H  H181  1  0.387500  0.628900  0.913600  1
  H  H182  1  0.112500  0.871100  0.413600  1
  H  H183  1  0.612500  0.371100  0.086400  1
  H  H184  1  0.887500  0.128900  0.586400  1
  H  H185  1  0.314000  0.611900  0.905600  1
  H  H186  1  0.186000  0.888100  0.405600  1
  H  H187  1  0.686000  0.388100  0.094400  1
  H  H188  1  0.814000  0.111900  0.594400  1
  H  H189  1  0.329500  0.682900  0.838400  1
  H  H190  1  0.170500  0.817100  0.338400  1
  H  H191  1  0.670500  0.317100  0.161600  1
  H  H192  1  0.829500  0.182900  0.661600  1
  H  H193  1  0.403000  0.699900  0.846300  1
  H  H194  1  0.097000  0.800100  0.346300  1
  H  H195  1  0.597000  0.300100  0.153700  1
  H  H196  1  0.903000  0.199900  0.653700  1
  H  H197  1  0.194200  0.595900  0.821800  1
  H  H198  1  0.305800  0.904100  0.321800  1
  H  H199  1  0.805800  0.404100  0.178200  1
  H  H200  1  0.694200  0.095900  0.678200  1
  H  H201  1  0.179400  0.637100  0.899400  1
  H  H202  1  0.320600  0.862900  0.399400  1
  H  H203  1  0.820600  0.362900  0.100600  1
  H  H204  1  0.679400  0.137100  0.600600  1
  H  H205  1  0.253300  0.653600  0.905500  1
  H  H206  1  0.246700  0.846400  0.405500  1
  H  H207  1  0.746700  0.346400  0.094500  1
  H  H208  1  0.753300  0.153600  0.594500  1
  H  H209  1  0.308000  0.612800  0.816500  1
  H  H210  1  0.192000  0.887200  0.316500  1
  H  H211  1  0.692000  0.387200  0.183500  1
  H  H212  1  0.808000  0.112800  0.683500  1
  H  H213  1  0.269200  0.615200  0.796300  1
  H  H214  1  0.230800  0.884800  0.296300  1
  H  H215  1  0.730800  0.384800  0.203700  1
  H  H216  1  0.769200  0.115200  0.703700  1
  H  H217  1  0.269700  0.576100  0.811800  1
  H  H218  1  0.230300  0.923900  0.311800  1
  H  H219  1  0.730300  0.423900  0.188200  1
  H  H220  1  0.769700  0.076100  0.688200  1
  H  H221  1  0.135100  0.642100  0.832700  1
  H  H222  1  0.364900  0.857900  0.332700  1
  H  H223  1  0.864900  0.357900  0.167300  1
  H  H224  1  0.635100  0.142100  0.667300  1
  H  H225  1  0.996300  0.546100  0.866700  1
  H  H226  1  0.503700  0.953900  0.366700  1
  H  H227  1  0.003700  0.453900  0.133300  1
  H  H228  1  0.496300  0.046100  0.633300  1
  H  H229  1  0.953000  0.571800  0.836900  1
  H  H230  1  0.547000  0.928200  0.336900  1
  H  H231  1  0.047000  0.428200  0.163100  1
  H  H232  1  0.453000  0.071800  0.663100  1
  H  H233  1  0.983700  0.620600  0.805600  1
  H  H234  1  0.516300  0.879400  0.305600  1
  H  H235  1  0.016300  0.379400  0.194400  1
  H  H236  1  0.483700  0.120600  0.694400  1
  H  H237  1  0.057700  0.643800  0.804100  1
  H  H238  1  0.442300  0.856200  0.304100  1
  H  H239  1  0.942300  0.356200  0.195900  1
  H  H240  1  0.557700  0.143800  0.695900  1
  H  H241  1  0.681800  0.828000  0.857100  1
  H  H242  1  0.818200  0.672000  0.357100  1
  H  H243  1  0.318200  0.172000  0.142900  1
  H  H244  1  0.181800  0.328000  0.642900  1
  H  H245  1  0.737700  0.849500  0.825400  1
  H  H246  1  0.762300  0.650500  0.325400  1
  H  H247  1  0.262300  0.150500  0.174600  1
  H  H248  1  0.237700  0.349500  0.674600  1
  H  H249  1  0.762600  0.805800  0.797900  1
  H  H250  1  0.737400  0.694200  0.297900  1
  H  H251  1  0.237400  0.194200  0.202100  1
  H  H252  1  0.262600  0.305800  0.702100  1
  H  H253  1  0.731600  0.740500  0.802300  1
  H  H254  1  0.768400  0.759500  0.302300  1
  H  H255  1  0.268400  0.259500  0.197700  1
  H  H256  1  0.231600  0.240500  0.697700  1
  H  H257  1  0.674300  0.688600  0.828700  1
  H  H258  1  0.825700  0.811400  0.328700  1
  H  H259  1  0.325700  0.311400  0.171300  1
  H  H260  1  0.174300  0.188600  0.671300  1
  H  H261  1  0.586000  0.657900  0.820100  1
  H  H262  1  0.914000  0.842100  0.320100  1
  H  H263  1  0.414000  0.342100  0.179900  1
  H  H264  1  0.086000  0.157900  0.679900  1
  H  H265  1  0.597800  0.590400  0.902500  1
  H  H266  1  0.902200  0.909600  0.402500  1
  H  H267  1  0.402200  0.409600  0.097500  1
  H  H268  1  0.097800  0.090400  0.597500  1
  H  H269  1  0.635800  0.654000  0.898000  1
  H  H270  1  0.864200  0.846000  0.398000  1
  H  H271  1  0.364200  0.346000  0.102000  1
  H  H272  1  0.135800  0.154000  0.602000  1
  H  H273  1  0.522100  0.564800  0.816300  1
  H  H274  1  0.977900  0.935200  0.316300  1
  H  H275  1  0.477900  0.435200  0.183700  1
  H  H276  1  0.022100  0.064800  0.683700  1
  H  H277  1  0.553800  0.594400  0.796400  1
  H  H278  1  0.946200  0.905600  0.296400  1
  H  H279  1  0.446200  0.405600  0.203600  1
  H  H280  1  0.053800  0.094400  0.703600  1
  H  H281  1  0.515200  0.606600  0.811600  1
  H  H282  1  0.984800  0.893400  0.311600  1
  H  H283  1  0.484800  0.393400  0.188400  1
  H  H284  1  0.015200  0.106600  0.688400  1
  H  H285  1  0.523600  0.549800  0.903800  1
  H  H286  1  0.976400  0.950200  0.403800  1
  H  H287  1  0.476400  0.450200  0.096200  1
  H  H288  1  0.023600  0.049800  0.596200  1
  H  H289  1  0.489900  0.485200  0.909000  1
  H  H290  1  0.010100  0.014800  0.409000  1
  H  H291  1  0.510100  0.514800  0.091000  1
  H  H292  1  0.989900  0.985200  0.591000  1
  H  H293  1  0.541300  0.462000  0.835300  1
  H  H294  1  0.958700  0.038000  0.335300  1
  H  H295  1  0.458700  0.538000  0.164700  1
  H  H296  1  0.041300  0.962000  0.664700  1
  H  H297  1  0.575000  0.526600  0.830100  1
  H  H298  1  0.925000  0.973400  0.330100  1
  H  H299  1  0.425000  0.473400  0.169900  1
  H  H300  1  0.075000  0.026600  0.669900  1
  H  H301  1  0.397400  0.364700  0.880000  1
  H  H302  1  0.102600  0.135300  0.380000  1
  H  H303  1  0.602600  0.635300  0.120000  1
  H  H304  1  0.897400  0.864700  0.620000  1
  H  H305  1  0.514200  0.342800  0.878800  1
  H  H306  1  0.985800  0.157200  0.378800  1
  H  H307  1  0.485800  0.657200  0.121200  1
  H  H308  1  0.014200  0.842800  0.621200  1
  H  H309  1  0.545600  0.408200  0.875600  1
  H  H310  1  0.954400  0.091800  0.375600  1
  H  H311  1  0.454400  0.591800  0.124400  1
  H  H312  1  0.045600  0.908200  0.624400  1
  H  H313  1  0.434400  0.463600  0.874300  1
  H  H314  1  0.065600  0.036400  0.374300  1
  H  H315  1  0.565600  0.536400  0.125700  1
  H  H316  1  0.934400  0.963600  0.625700  1
  H  H317  1  0.399000  0.433600  0.891600  1
  H  H318  1  0.101000  0.066400  0.391600  1
  H  H319  1  0.601000  0.566400  0.108400  1
  H  H320  1  0.899000  0.933600  0.608400  1
  H  H321  1  0.400600  0.431000  0.858000  1
  H  H322  1  0.099400  0.069000  0.358000  1
  H  H323  1  0.599400  0.569000  0.142000  1
  H  H324  1  0.900600  0.931000  0.642000  1
  H  H325  1  0.422100  0.315900  0.924800  1
  H  H326  1  0.077900  0.184100  0.424800  1
  H  H327  1  0.577900  0.684100  0.075200  1
  H  H328  1  0.922100  0.815900  0.575200  1
  H  H329  1  0.393400  0.184000  0.872300  1
  H  H330  1  0.106600  0.316000  0.372300  1
  H  H331  1  0.606600  0.816000  0.127700  1
  H  H332  1  0.893400  0.684000  0.627700  1
  H  H333  1  0.366400  0.152900  0.914000  1
  H  H334  1  0.133600  0.347100  0.414000  1
  H  H335  1  0.633600  0.847100  0.086000  1
  H  H336  1  0.866400  0.652900  0.586000  1
  H  H337  1  0.363700  0.188200  0.954900  1
  H  H338  1  0.136300  0.311800  0.454900  1
  H  H339  1  0.636300  0.811800  0.045100  1
  H  H340  1  0.863700  0.688200  0.545100  1
  H  H341  1  0.388100  0.254600  0.954200  1
  H  H342  1  0.111900  0.245400  0.454200  1
  H  H343  1  0.611900  0.745400  0.045800  1
  H  H344  1  0.888100  0.754600  0.545800  1
  H  H345  1  0.436500  0.583400  0.526200  1
  H  H346  1  0.063500  0.916600  0.026200  1
  H  H347  1  0.563500  0.416600  0.473800  1
  H  H348  1  0.936500  0.083400  0.973800  1
  H  H349  1  0.466600  0.646500  0.513100  1
  H  H350  1  0.033400  0.853500  0.013100  1
  H  H351  1  0.533400  0.353500  0.486900  1
  H  H352  1  0.966600  0.146500  0.986900  1
  H  H353  1  0.447000  0.696400  0.536600  1
  H  H354  1  0.053000  0.803600  0.036600  1
  H  H355  1  0.553000  0.303600  0.463400  1
  H  H356  1  0.947000  0.196400  0.963400  1
  H  H357  1  0.397300  0.683200  0.573300  1
  H  H358  1  0.102700  0.816800  0.073300  1
  H  H359  1  0.602700  0.316800  0.426700  1
  H  H360  1  0.897300  0.183200  0.926700  1
  H  H361  1  0.359800  0.640100  0.608900  1
  H  H362  1  0.140200  0.859900  0.108900  1
  H  H363  1  0.640200  0.359900  0.391100  1
  H  H364  1  0.859800  0.140100  0.891100  1
  H  H365  1  0.373300  0.595300  0.655800  1
  H  H366  1  0.126700  0.904700  0.155800  1
  H  H367  1  0.626700  0.404700  0.344200  1
  H  H368  1  0.873300  0.095300  0.844200  1
  H  H369  1  0.228000  0.538400  0.646100  1
  H  H370  1  0.272000  0.961600  0.146100  1
  H  H371  1  0.772000  0.461600  0.353900  1
  H  H372  1  0.728000  0.038400  0.853900  1
  H  H373  1  0.271700  0.550000  0.606300  1
  H  H374  1  0.228300  0.950000  0.106300  1
  H  H375  1  0.728300  0.450000  0.393700  1
  H  H376  1  0.771700  0.050000  0.893700  1
  H  H377  1  0.373800  0.596100  0.700400  1
  H  H378  1  0.126200  0.903900  0.200400  1
  H  H379  1  0.626200  0.403900  0.299600  1
  H  H380  1  0.873800  0.096100  0.799600  1
  H  H381  1  0.342400  0.559600  0.714400  1
  H  H382  1  0.157600  0.940400  0.214400  1
  H  H383  1  0.657600  0.440400  0.285600  1
  H  H384  1  0.842400  0.059600  0.785600  1
  H  H385  1  0.332500  0.600700  0.717200  1
  H  H386  1  0.167500  0.899300  0.217200  1
  H  H387  1  0.667500  0.399300  0.282800  1
  H  H388  1  0.832500  0.100700  0.782800  1
  H  H389  1  0.260700  0.605600  0.715400  1
  H  H390  1  0.239300  0.894400  0.215400  1
  H  H391  1  0.739300  0.394400  0.284600  1
  H  H392  1  0.760700  0.105600  0.784600  1
  H  H393  1  0.218600  0.593800  0.756000  1
  H  H394  1  0.281400  0.906200  0.256000  1
  H  H395  1  0.781400  0.406200  0.244000  1
  H  H396  1  0.718600  0.093800  0.744000  1
  H  H397  1  0.185000  0.481400  0.736800  1
  H  H398  1  0.315000  0.018600  0.236800  1
  H  H399  1  0.815000  0.518600  0.263200  1
  H  H400  1  0.685000  0.981400  0.763200  1
  H  H401  1  0.227100  0.493200  0.696200  1
  H  H402  1  0.272900  0.006800  0.196200  1
  H  H403  1  0.772900  0.506800  0.303800  1
  H  H404  1  0.727100  0.993200  0.803800  1
  H  H405  1  0.162100  0.494300  0.839500  1
  H  H406  1  0.337900  0.005700  0.339500  1
  H  H407  1  0.837900  0.505700  0.160500  1
  H  H408  1  0.662100  0.994300  0.660500  1
  H  H409  1  0.087000  0.555200  0.802800  1
  H  H410  1  0.413000  0.944800  0.302800  1
  H  H411  1  0.913000  0.444800  0.197200  1
  H  H412  1  0.587000  0.055200  0.697200  1
  H  H413  1  0.127700  0.560300  0.761700  1
  H  H414  1  0.372300  0.939700  0.261700  1
  H  H415  1  0.872300  0.439700  0.238300  1
  H  H416  1  0.627700  0.060300  0.738300  1
  H  H417  1  0.211200  0.478500  0.821000  1
  H  H418  1  0.288800  0.021500  0.321000  1
  H  H419  1  0.788800  0.521500  0.179000  1
  H  H420  1  0.711200  0.978500  0.679000  1
  H  H421  1  0.240000  0.505600  0.798100  1
  H  H422  1  0.260000  0.994400  0.298100  1
  H  H423  1  0.760000  0.494400  0.201900  1
  H  H424  1  0.740000  0.005600  0.701900  1
  H  H425  1  0.206100  0.467900  0.788200  1
  H  H426  1  0.293900  0.032100  0.288200  1
  H  H427  1  0.793900  0.532100  0.211800  1
  H  H428  1  0.706100  0.967900  0.711800  1
  H  H429  1  0.074100  0.468000  0.842800  1
  H  H430  1  0.425900  0.032000  0.342800  1
  H  H431  1  0.925900  0.532000  0.157200  1
  H  H432  1  0.574100  0.968000  0.657200  1
  H  H433  1  0.033300  0.543800  0.929600  1
  H  H434  1  0.466700  0.956200  0.429600  1
  H  H435  1  0.966700  0.456200  0.070400  1
  H  H436  1  0.533300  0.043800  0.570400  1
  H  H437  1  0.974300  0.494100  0.940500  1
  H  H438  1  0.525700  0.005900  0.440500  1
  H  H439  1  0.025700  0.505900  0.059500  1
  H  H440  1  0.474300  0.994100  0.559500  1
  H  H441  1  0.957400  0.439700  0.912100  1
  H  H442  1  0.542600  0.060300  0.412100  1
  H  H443  1  0.042600  0.560300  0.087900  1
  H  H444  1  0.457400  0.939700  0.587900  1
  H  H445  1  0.999300  0.435000  0.872800  1
  H  H446  1  0.500700  0.065000  0.372800  1
  H  H447  1  0.000700  0.565000  0.127200  1
  H  H448  1  0.499300  0.935000  0.627200  1
  H  H449  1  0.334300  0.583100  0.528400  1
  H  H450  1  0.165700  0.916900  0.028400  1
  H  H451  1  0.665700  0.416900  0.471600  1
  H  H452  1  0.834300  0.083100  0.971600  1
  H  H453  1  0.267100  0.568800  0.507200  1
  H  H454  1  0.232900  0.931200  0.007200  1
  H  H455  1  0.732900  0.431200  0.492800  1
  H  H456  1  0.767100  0.068800  0.992800  1
  H  H457  1  0.215500  0.514700  0.521100  1
  H  H458  1  0.284500  0.985300  0.021100  1
  H  H459  1  0.784500  0.485300  0.478900  1
  H  H460  1  0.715500  0.014700  0.978900  1
  H  H461  1  0.231100  0.474900  0.556300  1
  H  H462  1  0.268900  0.025100  0.056300  1
  H  H463  1  0.768900  0.525100  0.443700  1
  H  H464  1  0.731100  0.974900  0.943700  1
  H  H465  1  0.285300  0.459500  0.590200  1
  H  H466  1  0.214700  0.040500  0.090200  1
  H  H467  1  0.714700  0.540500  0.409800  1
  H  H468  1  0.785300  0.959500  0.909800  1
  H  H469  1  0.311500  0.498100  0.645900  1
  H  H470  1  0.188500  0.001900  0.145900  1
  H  H471  1  0.688500  0.501900  0.354100  1
  H  H472  1  0.811500  0.998100  0.854100  1
  H  H473  1  0.412500  0.425600  0.638700  1
  H  H474  1  0.087500  0.074400  0.138700  1
  H  H475  1  0.587500  0.574400  0.361300  1
  H  H476  1  0.912500  0.925600  0.861300  1
  H  H477  1  0.394900  0.457000  0.599100  1
  H  H478  1  0.105100  0.043000  0.099100  1
  H  H479  1  0.605100  0.543000  0.400900  1
  H  H480  1  0.894900  0.957000  0.900900  1
  H  H481  1  0.330600  0.452700  0.712500  1
  H  H482  1  0.169400  0.047300  0.212500  1
  H  H483  1  0.669400  0.547300  0.287500  1
  H  H484  1  0.830600  0.952700  0.787500  1
  H  H485  1  0.288000  0.454800  0.696200  1
  H  H486  1  0.212000  0.045200  0.196200  1
  H  H487  1  0.712000  0.545200  0.303800  1
  H  H488  1  0.788000  0.954800  0.803800  1
  H  H489  1  0.322600  0.493100  0.704000  1
  H  H490  1  0.177400  0.006900  0.204000  1
  H  H491  1  0.677400  0.506900  0.296000  1
  H  H492  1  0.822600  0.993100  0.796000  1
  H  H493  1  0.325300  0.386400  0.698700  1
  H  H494  1  0.174700  0.113600  0.198700  1
  H  H495  1  0.674700  0.613600  0.301300  1
  H  H496  1  0.825300  0.886400  0.801300  1
  H  H497  1  0.345000  0.354300  0.737300  1
  H  H498  1  0.155000  0.145700  0.237300  1
  H  H499  1  0.655000  0.645700  0.262700  1
  H  H500  1  0.845000  0.854300  0.762700  1
  H  H501  1  0.465900  0.418800  0.731300  1
  H  H502  1  0.034100  0.081200  0.231300  1
  H  H503  1  0.534100  0.581200  0.268700  1
  H  H504  1  0.965900  0.918800  0.768700  1
  H  H505  1  0.446300  0.450900  0.692800  1
  H  H506  1  0.053700  0.049100  0.192800  1
  H  H507  1  0.553700  0.549100  0.307200  1
  H  H508  1  0.946300  0.950900  0.807200  1
  H  H509  1  0.472500  0.372100  0.821800  1
  H  H510  1  0.027500  0.127900  0.321800  1
  H  H511  1  0.527500  0.627900  0.178200  1
  H  H512  1  0.972500  0.872100  0.678200  1
  H  H513  1  0.416600  0.275300  0.780000  1
  H  H514  1  0.083400  0.224700  0.280000  1
  H  H515  1  0.583400  0.724700  0.220000  1
  H  H516  1  0.916600  0.775300  0.720000  1
  H  H517  1  0.395000  0.311400  0.744600  1
  H  H518  1  0.105000  0.188600  0.244600  1
  H  H519  1  0.605000  0.688600  0.255400  1
  H  H520  1  0.895000  0.811400  0.755400  1
  H  H521  1  0.444900  0.440300  0.772900  1
  H  H522  1  0.055100  0.059700  0.272900  1
  H  H523  1  0.555100  0.559700  0.227100  1
  H  H524  1  0.944900  0.940300  0.727100  1
  H  H525  1  0.487300  0.438300  0.789600  1
  H  H526  1  0.012700  0.061700  0.289600  1
  H  H527  1  0.512700  0.561700  0.210400  1
  H  H528  1  0.987300  0.938300  0.710400  1
  H  H529  1  0.443800  0.435400  0.806400  1
  H  H530  1  0.056200  0.064600  0.306400  1
  H  H531  1  0.556200  0.564600  0.193600  1
  H  H532  1  0.943800  0.935400  0.693600  1
  H  H533  1  0.522000  0.315100  0.810700  1
  H  H534  1  0.978000  0.184900  0.310700  1
  H  H535  1  0.478000  0.684900  0.189300  1
  H  H536  1  0.022000  0.815100  0.689300  1
  H  H537  1  0.480300  0.231100  0.900900  1
  H  H538  1  0.019700  0.268900  0.400900  1
  H  H539  1  0.519700  0.768900  0.099100  1
  H  H540  1  0.980300  0.731100  0.599100  1
  H  H541  1  0.550300  0.224700  0.904400  1
  H  H542  1  0.949700  0.275300  0.404400  1
  H  H543  1  0.449700  0.775300  0.095600  1
  H  H544  1  0.050300  0.724700  0.595600  1
  H  H545  1  0.600500  0.252100  0.870200  1
  H  H546  1  0.899500  0.247900  0.370200  1
  H  H547  1  0.399500  0.747900  0.129800  1
  H  H548  1  0.100500  0.752100  0.629800  1
  H  H549  1  0.580800  0.285900  0.832600  1
  H  H550  1  0.919200  0.214100  0.332600  1
  H  H551  1  0.419200  0.714100  0.167400  1
  H  H552  1  0.080800  0.785900  0.667400  1
  H  H553  1  0.058300  0.628500  0.888700  1
  H  H554  1  0.441700  0.871500  0.388700  1
  H  H555  1  0.941700  0.371500  0.111300  1
  H  H556  1  0.558300  0.128500  0.611300  1
  H  H557  1  0.060900  0.669800  0.926900  1
  H  H558  1  0.439100  0.830200  0.426900  1
  H  H559  1  0.939100  0.330200  0.073100  1
  H  H560  1  0.560900  0.169800  0.573100  1
  H  H561  1  0.098200  0.661500  0.967700  1
  H  H562  1  0.401800  0.838500  0.467700  1
  H  H563  1  0.901800  0.338500  0.032300  1
  H  H564  1  0.598200  0.161500  0.532300  1
  H  H565  1  0.132900  0.612000  0.970200  1
  H  H566  1  0.367100  0.888000  0.470200  1
  H  H567  1  0.867100  0.388000  0.029800  1
  H  H568  1  0.632900  0.112000  0.529800  1
  H  H569  1  0.166500  0.561500  0.939500  1
  H  H570  1  0.333500  0.938500  0.439500  1
  H  H571  1  0.833500  0.438500  0.060500  1
  H  H572  1  0.666500  0.061500  0.560500  1
  H  H573  1  0.218300  0.559000  0.891200  1
  H  H574  1  0.281700  0.941000  0.391200  1
  H  H575  1  0.781700  0.441000  0.108800  1
  H  H576  1  0.718300  0.059000  0.608800  1
  H  H577  1  0.154500  0.428300  0.892700  1
  H  H578  1  0.345500  0.071700  0.392700  1
  H  H579  1  0.845500  0.571700  0.107300  1
  H  H580  1  0.654500  0.928300  0.607300  1
  H  H581  1  0.113700  0.472100  0.901900  1
  H  H582  1  0.386300  0.027900  0.401900  1
  H  H583  1  0.886300  0.527900  0.098100  1
  H  H584  1  0.613700  0.972100  0.598100  1
  H  H585  1  0.284900  0.553300  0.882800  1
  H  H586  1  0.215100  0.946700  0.382800  1
  H  H587  1  0.715100  0.446700  0.117200  1
  H  H588  1  0.784900  0.053300  0.617200  1
  H  H589  1  0.289400  0.517800  0.863900  1
  H  H590  1  0.210600  0.982200  0.363900  1
  H  H591  1  0.710600  0.482200  0.136100  1
  H  H592  1  0.789400  0.017800  0.636100  1
  H  H593  1  0.295800  0.516900  0.897300  1
  H  H594  1  0.204200  0.983100  0.397300  1
  H  H595  1  0.704200  0.483100  0.102700  1
  H  H596  1  0.795800  0.016900  0.602700  1
  H  H597  1  0.204500  0.417600  0.843900  1
  H  H598  1  0.295500  0.082400  0.343900  1
  H  H599  1  0.795500  0.582400  0.156100  1
  H  H600  1  0.704500  0.917600  0.656100  1
  H  H601  1  0.244200  0.373300  0.833500  1
  H  H602  1  0.255800  0.126700  0.333500  1
  H  H603  1  0.755800  0.626700  0.166500  1
  H  H604  1  0.744200  0.873300  0.666500  1
  H  H605  1  0.316900  0.406900  0.902700  1
  H  H606  1  0.183100  0.093100  0.402700  1
  H  H607  1  0.683100  0.593100  0.097300  1
  H  H608  1  0.816900  0.906900  0.597300  1
  H  H609  1  0.277300  0.451200  0.913100  1
  H  H610  1  0.222700  0.048800  0.413100  1
  H  H611  1  0.722700  0.548800  0.086900  1
  H  H612  1  0.777300  0.951200  0.586900  1
  H  H613  1  0.363200  0.325400  0.810500  1
  H  H614  1  0.136800  0.174600  0.310500  1
  H  H615  1  0.636800  0.674600  0.189500  1
  H  H616  1  0.863200  0.825400  0.689500  1
  H  H617  1  0.332800  0.281800  0.888500  1
  H  H618  1  0.167200  0.218200  0.388500  1
  H  H619  1  0.667200  0.718200  0.111500  1
  H  H620  1  0.832800  0.781800  0.611500  1
  H  H621  1  0.298100  0.330000  0.897900  1
  H  H622  1  0.201900  0.170000  0.397900  1
  H  H623  1  0.701900  0.670000  0.102100  1
  H  H624  1  0.798100  0.830000  0.602100  1
  H  H625  1  0.313700  0.403700  0.819000  1
  H  H626  1  0.186300  0.096300  0.319000  1
  H  H627  1  0.686300  0.596300  0.181000  1
  H  H628  1  0.813700  0.903700  0.681000  1
  H  H629  1  0.319600  0.375400  0.794300  1
  H  H630  1  0.180400  0.124600  0.294300  1
  H  H631  1  0.680400  0.624600  0.205700  1
  H  H632  1  0.819600  0.875400  0.705700  1
  H  H633  1  0.360500  0.401100  0.809800  1
  H  H634  1  0.139500  0.098900  0.309800  1
  H  H635  1  0.639500  0.598900  0.190200  1
  H  H636  1  0.860500  0.901100  0.690200  1
  H  H637  1  0.332900  0.249600  0.812700  1
  H  H638  1  0.167100  0.250400  0.312700  1
  H  H639  1  0.667100  0.750400  0.187300  1
  H  H640  1  0.832900  0.749600  0.687300  1
  H  H641  1  0.466500  0.198700  0.834100  1
  H  H642  1  0.033500  0.301300  0.334100  1
  H  H643  1  0.533500  0.801300  0.165900  1
  H  H644  1  0.966500  0.698700  0.665900  1
  H  H645  1  0.444500  0.152600  0.799100  1
  H  H646  1  0.055500  0.347400  0.299100  1
  H  H647  1  0.555500  0.847400  0.200900  1
  H  H648  1  0.944500  0.652600  0.700900  1
  H  H649  1  0.381100  0.149300  0.774600  1
  H  H650  1  0.118900  0.350700  0.274600  1
  H  H651  1  0.618900  0.850700  0.225400  1
  H  H652  1  0.881100  0.649300  0.725400  1
  H  H653  1  0.339500  0.192100  0.785100  1
  H  H654  1  0.160500  0.307900  0.285100  1
  H  H655  1  0.660500  0.807900  0.214900  1
  H  H656  1  0.839500  0.692100  0.714900  1
  H  H657  1  0.756900  0.447500  0.968000  1
  H  H658  1  0.743100  0.052500  0.468000  1
  H  H659  1  0.243100  0.552500  0.032000  1
  H  H660  1  0.256900  0.947500  0.532000  1
  H  H661  1  0.824400  0.464600  0.988700  1
  H  H662  1  0.675600  0.035400  0.488700  1
  H  H663  1  0.175600  0.535400  0.011300  1
  H  H664  1  0.324400  0.964600  0.511300  1
  H  H665  1  0.873700  0.519900  0.974200  1
  H  H666  1  0.626300  0.980100  0.474200  1
  H  H667  1  0.126300  0.480100  0.025800  1
  H  H668  1  0.373700  0.019900  0.525800  1
  H  H669  1  0.855400  0.558100  0.938900  1
  H  H670  1  0.644600  0.941900  0.438900  1
  H  H671  1  0.144600  0.441900  0.061100  1
  H  H672  1  0.355400  0.058100  0.561100  1
  H  H673  1  0.796100  0.572900  0.905300  1
  H  H674  1  0.703900  0.927100  0.405300  1
  H  H675  1  0.203900  0.427100  0.094700  1
  H  H676  1  0.296100  0.072900  0.594700  1
  H  H677  1  0.772800  0.531100  0.851100  1
  H  H678  1  0.727200  0.968900  0.351100  1
  H  H679  1  0.227200  0.468900  0.148900  1
  H  H680  1  0.272800  0.031100  0.648900  1
  H  H681  1  0.665700  0.597600  0.853900  1
  H  H682  1  0.834300  0.902400  0.353900  1
  H  H683  1  0.334300  0.402400  0.146100  1
  H  H684  1  0.165700  0.097600  0.646100  1
  H  H685  1  0.684800  0.570200  0.895000  1
  H  H686  1  0.815200  0.929800  0.395000  1
  H  H687  1  0.315200  0.429800  0.105000  1
  H  H688  1  0.184800  0.070200  0.605000  1
  H  H689  1  0.751900  0.569000  0.783200  1
  H  H690  1  0.748100  0.931000  0.283200  1
  H  H691  1  0.248100  0.431000  0.216800  1
  H  H692  1  0.251900  0.069000  0.716800  1
  H  H693  1  0.760300  0.529700  0.794200  1
  H  H694  1  0.739700  0.970300  0.294200  1
  H  H695  1  0.239700  0.470300  0.205800  1
  H  H696  1  0.260300  0.029700  0.705800  1
  H  H697  1  0.794200  0.568900  0.800600  1
  H  H698  1  0.705800  0.931100  0.300600  1
  H  H699  1  0.205800  0.431100  0.199400  1
  H  H700  1  0.294200  0.068900  0.699400  1
  H  H701  1  0.634300  0.568600  0.801700  1
  H  H702  1  0.865700  0.931400  0.301700  1
  H  H703  1  0.365700  0.431400  0.198300  1
  H  H704  1  0.134300  0.068600  0.698300  1
  H  H705  1  0.613100  0.598300  0.762500  1
  H  H706  1  0.886900  0.901700  0.262500  1
  H  H707  1  0.386900  0.401700  0.237500  1
  H  H708  1  0.113100  0.098300  0.737500  1
  H  H709  1  0.730000  0.670900  0.758800  1
  H  H710  1  0.770000  0.829100  0.258800  1
  H  H711  1  0.270000  0.329100  0.241200  1
  H  H712  1  0.230000  0.170900  0.741200  1
  H  H713  1  0.751200  0.641200  0.798100  1
  H  H714  1  0.748800  0.858800  0.298100  1
  H  H715  1  0.248800  0.358800  0.201900  1
  H  H716  1  0.251200  0.141200  0.701900  1
  H  H717  1  0.606800  0.645500  0.672000  1
  H  H718  1  0.893200  0.854500  0.172000  1
  H  H719  1  0.393200  0.354500  0.328000  1
  H  H720  1  0.106800  0.145500  0.828000  1
  H  H721  1  0.645500  0.743100  0.716700  1
  H  H722  1  0.854500  0.756900  0.216700  1
  H  H723  1  0.354500  0.256900  0.283300  1
  H  H724  1  0.145500  0.243100  0.783300  1
  H  H725  1  0.670600  0.709700  0.752300  1
  H  H726  1  0.829400  0.790300  0.252300  1
  H  H727  1  0.329400  0.290300  0.247700  1
  H  H728  1  0.170600  0.209700  0.747700  1
  H  H729  1  0.640200  0.586800  0.720000  1
  H  H730  1  0.859800  0.913200  0.220000  1
  H  H731  1  0.359800  0.413200  0.280000  1
  H  H732  1  0.140200  0.086800  0.780000  1
  H  H733  1  0.643000  0.594700  0.686800  1
  H  H734  1  0.857000  0.905300  0.186800  1
  H  H735  1  0.357000  0.405300  0.313200  1
  H  H736  1  0.143000  0.094700  0.813200  1
  H  H737  1  0.598000  0.586700  0.702500  1
  H  H738  1  0.902000  0.913300  0.202500  1
  H  H739  1  0.402000  0.413300  0.297500  1
  H  H740  1  0.098000  0.086700  0.797500  1
  H  H741  1  0.551100  0.706600  0.685300  1
  H  H742  1  0.948900  0.793400  0.185300  1
  H  H743  1  0.448900  0.293400  0.314700  1
  H  H744  1  0.051100  0.206600  0.814700  1
  H  H745  1  0.602100  0.788400  0.594800  1
  H  H746  1  0.897900  0.711600  0.094800  1
  H  H747  1  0.397900  0.211600  0.405200  1
  H  H748  1  0.102100  0.288400  0.905200  1
  H  H749  1  0.532700  0.793100  0.585000  1
  H  H750  1  0.967300  0.706900  0.085000  1
  H  H751  1  0.467300  0.206900  0.415000  1
  H  H752  1  0.032700  0.293100  0.915000  1
  H  H753  1  0.476500  0.762700  0.614200  1
  H  H754  1  0.023500  0.737300  0.114200  1
  H  H755  1  0.523500  0.237300  0.385800  1
  H  H756  1  0.976500  0.262700  0.885800  1
  H  H757  1  0.489600  0.727600  0.653100  1
  H  H758  1  0.010400  0.772400  0.153100  1
  H  H759  1  0.510400  0.272400  0.346900  1
  H  H760  1  0.989600  0.227600  0.846900  1
  H  H761  1  0.728700  0.529600  0.975200  1
  H  H762  1  0.771300  0.970400  0.475200  1
  H  H763  1  0.271300  0.470400  0.024800  1
  H  H764  1  0.228700  0.029600  0.524800  1
  H  H765  1  0.688200  0.561900  0.002100  1
  H  H766  1  0.811800  0.938100  0.502100  1
  H  H767  1  0.311800  0.438100  0.997900  1
  H  H768  1  0.188200  0.061900  0.497900  1
  H  H769  1  0.619600  0.563200  0.987500  1
  H  H770  1  0.880400  0.936800  0.487500  1
  H  H771  1  0.380400  0.436800  0.012500  1
  H  H772  1  0.119600  0.063200  0.512500  1
  H  H773  1  0.591500  0.532100  0.946000  1
  H  H774  1  0.908500  0.967900  0.446000  1
  H  H775  1  0.408500  0.467900  0.054000  1
  H  H776  1  0.091500  0.032100  0.554000  1
  H  H777  1  0.608900  0.496000  0.900000  1
  H  H778  1  0.891100  0.004000  0.400000  1
  H  H779  1  0.391100  0.504000  0.100000  1
  H  H780  1  0.108900  0.996000  0.600000  1
  H  H781  1  0.658700  0.501500  0.848400  1
  H  H782  1  0.841300  0.998500  0.348400  1
  H  H783  1  0.341300  0.498500  0.151600  1
  H  H784  1  0.158700  0.001500  0.651600  1
  H  H785  1  0.610500  0.368700  0.849000  1
  H  H786  1  0.889500  0.131300  0.349000  1
  H  H787  1  0.389500  0.631300  0.151000  1
  H  H788  1  0.110500  0.868700  0.651000  1
  H  H789  1  0.635100  0.401200  0.890600  1
  H  H790  1  0.864900  0.098800  0.390600  1
  H  H791  1  0.364900  0.598800  0.109400  1
  H  H792  1  0.135100  0.901200  0.609400  1
  H  H793  1  0.648100  0.504300  0.799700  1
  H  H794  1  0.851900  0.995700  0.299700  1
  H  H795  1  0.351900  0.495700  0.200300  1
  H  H796  1  0.148100  0.004300  0.700300  1
  H  H797  1  0.609200  0.472300  0.787400  1
  H  H798  1  0.890800  0.027700  0.287400  1
  H  H799  1  0.390800  0.527700  0.212600  1
  H  H800  1  0.109200  0.972300  0.712600  1
  H  H801  1  0.656900  0.468200  0.783400  1
  H  H802  1  0.843100  0.031800  0.283400  1
  H  H803  1  0.343100  0.531800  0.216600  1
  H  H804  1  0.156900  0.968200  0.716600  1
  H  H805  1  0.638600  0.354400  0.799000  1
  H  H806  1  0.861400  0.145600  0.299000  1
  H  H807  1  0.361400  0.645600  0.201000  1
  H  H808  1  0.138600  0.854400  0.701000  1
  H  H809  1  0.607700  0.320200  0.759400  1
  H  H810  1  0.892300  0.179800  0.259400  1
  H  H811  1  0.392300  0.679800  0.240600  1
  H  H812  1  0.107700  0.820200  0.740600  1
  H  H813  1  0.528400  0.390500  0.751100  1
  H  H814  1  0.971600  0.109500  0.251100  1
  H  H815  1  0.471600  0.609500  0.248900  1
  H  H816  1  0.028400  0.890500  0.748900  1
  H  H817  1  0.559300  0.424800  0.790700  1
  H  H818  1  0.940700  0.075200  0.290700  1
  H  H819  1  0.440700  0.575200  0.209300  1
  H  H820  1  0.059300  0.924800  0.709300  1
  H  H821  1  0.568000  0.302000  0.662500  1
  H  H822  1  0.932000  0.198000  0.162500  1
  H  H823  1  0.432000  0.698000  0.337500  1
  H  H824  1  0.068000  0.802000  0.837500  1
  H  H825  1  0.456200  0.275600  0.705000  1
  H  H826  1  0.043800  0.224400  0.205000  1
  H  H827  1  0.543800  0.724400  0.295000  1
  H  H828  1  0.956200  0.775600  0.795000  1
  H  H829  1  0.488600  0.312500  0.743100  1
  H  H830  1  0.011400  0.187500  0.243100  1
  H  H831  1  0.511400  0.687500  0.256900  1
  H  H832  1  0.988600  0.812500  0.756900  1
  H  H833  1  0.628700  0.361300  0.715800  1
  H  H834  1  0.871300  0.138700  0.215800  1
  H  H835  1  0.371300  0.638700  0.284200  1
  H  H836  1  0.128700  0.861300  0.784200  1
  H  H837  1  0.624000  0.362500  0.682300  1
  H  H838  1  0.876000  0.137500  0.182300  1
  H  H839  1  0.376000  0.637500  0.317700  1
  H  H840  1  0.124000  0.862500  0.817700  1
  H  H841  1  0.635800  0.326700  0.697000  1
  H  H842  1  0.864200  0.173300  0.197000  1
  H  H843  1  0.364200  0.673300  0.303000  1
  H  H844  1  0.135800  0.826700  0.803000  1
  H  H845  1  0.522900  0.230700  0.666900  1
  H  H846  1  0.977100  0.269300  0.166900  1
  H  H847  1  0.477100  0.769300  0.333100  1
  H  H848  1  0.022900  0.730700  0.833100  1
  H  H849  1  0.418200  0.214100  0.579400  1
  H  H850  1  0.081800  0.285900  0.079400  1
  H  H851  1  0.581800  0.785900  0.420600  1
  H  H852  1  0.918200  0.714100  0.920600  1
  H  H853  1  0.428800  0.154300  0.567900  1
  H  H854  1  0.071200  0.345700  0.067900  1
  H  H855  1  0.571200  0.845700  0.432100  1
  H  H856  1  0.928800  0.654300  0.932100  1
  H  H857  1  0.475900  0.128500  0.594600  1
  H  H858  1  0.024100  0.371500  0.094600  1
  H  H859  1  0.524100  0.871500  0.405400  1
  H  H860  1  0.975900  0.628500  0.905400  1
  H  H861  1  0.512200  0.162700  0.632600  1
  H  H862  1  0.987800  0.337300  0.132600  1
  H  H863  1  0.487800  0.837300  0.367400  1
  H  H864  1  0.012200  0.662700  0.867400  1
  H  H865  1  0.658600  0.451400  0.970100  1
  H  H866  1  0.841400  0.048600  0.470100  1
  H  H867  1  0.341400  0.548600  0.029900  1
  H  H868  1  0.158600  0.951400  0.529900  1
  H  H869  1  0.631300  0.392900  0.992500  1
  H  H870  1  0.868700  0.107100  0.492500  1
  H  H871  1  0.368700  0.607100  0.007500  1
  H  H872  1  0.131300  0.892900  0.507500  1
  H  H873  1  0.646900  0.337500  0.974900  1
  H  H874  1  0.853100  0.162500  0.474900  1
  H  H875  1  0.353100  0.662500  0.025100  1
  H  H876  1  0.146900  0.837500  0.525100  1
  H  H877  1  0.689900  0.340500  0.935000  1
  H  H878  1  0.810100  0.159500  0.435000  1
  H  H879  1  0.310100  0.659500  0.065000  1
  H  H880  1  0.189900  0.840500  0.565000  1
  H  H881  1  0.725500  0.390300  0.886000  1
  H  H882  1  0.774500  0.109700  0.386000  1
  H  H883  1  0.274500  0.609700  0.114000  1
  H  H884  1  0.225500  0.890300  0.614000  1
  H  H885  1  0.710800  0.428900  0.845700  1
  H  H886  1  0.789200  0.071100  0.345700  1
  H  H887  1  0.289200  0.571100  0.154300  1
  H  H888  1  0.210800  0.928900  0.654300  1
  H  H889  1  0.856100  0.488400  0.849300  1
  H  H890  1  0.643900  0.011600  0.349300  1
  H  H891  1  0.143900  0.511600  0.150700  1
  H  H892  1  0.356100  0.988400  0.650700  1
  H  H893  1  0.816600  0.475700  0.891000  1
  H  H894  1  0.683400  0.024300  0.391000  1
  H  H895  1  0.183400  0.524300  0.109000  1
  H  H896  1  0.316600  0.975700  0.609000  1
  H  H897  1  0.714500  0.419300  0.791000  1
  H  H898  1  0.785500  0.080700  0.291000  1
  H  H899  1  0.285500  0.580700  0.209000  1
  H  H900  1  0.214500  0.919300  0.709000  1
  H  H901  1  0.761100  0.417200  0.781100  1
  H  H902  1  0.738900  0.082800  0.281100  1
  H  H903  1  0.238900  0.582800  0.218900  1
  H  H904  1  0.261100  0.917200  0.718900  1
  H  H905  1  0.745900  0.455800  0.777100  1
  H  H906  1  0.754100  0.044200  0.277100  1
  H  H907  1  0.254100  0.544200  0.222900  1
  H  H908  1  0.245900  0.955800  0.722900  1
  H  H909  1  0.822300  0.419900  0.783800  1
  H  H910  1  0.677700  0.080100  0.283800  1
  H  H911  1  0.177700  0.580100  0.216200  1
  H  H912  1  0.322300  0.919900  0.716200  1
  H  H913  1  0.862000  0.428500  0.742100  1
  H  H914  1  0.638000  0.071500  0.242100  1
  H  H915  1  0.138000  0.571500  0.257900  1
  H  H916  1  0.362000  0.928500  0.757900  1
  H  H917  1  0.900700  0.541600  0.758100  1
  H  H918  1  0.599300  0.958400  0.258100  1
  H  H919  1  0.099300  0.458400  0.241900  1
  H  H920  1  0.400700  0.041600  0.741900  1
  H  H921  1  0.861000  0.533100  0.799800  1
  H  H922  1  0.639000  0.966900  0.299800  1
  H  H923  1  0.139000  0.466900  0.200200  1
  H  H924  1  0.361000  0.033100  0.700200  1
  H  H925  1  0.918700  0.530300  0.656200  1
  H  H926  1  0.581300  0.969700  0.156200  1
  H  H927  1  0.081300  0.469700  0.343800  1
  H  H928  1  0.418700  0.030300  0.843800  1
  H  H929  1  0.992800  0.467400  0.691500  1
  H  H930  1  0.507200  0.032600  0.191500  1
  H  H931  1  0.007200  0.532600  0.308500  1
  H  H932  1  0.492800  0.967400  0.808500  1
  H  H933  1  0.951800  0.461100  0.732600  1
  H  H934  1  0.548200  0.038900  0.232600  1
  H  H935  1  0.048200  0.538900  0.267400  1
  H  H936  1  0.451800  0.961100  0.767400  1
  H  H937  1  0.846400  0.526800  0.714300  1
  H  H938  1  0.653600  0.973200  0.214300  1
  H  H939  1  0.153600  0.473200  0.285700  1
  H  H940  1  0.346400  0.026800  0.785700  1
  H  H941  1  0.841200  0.519900  0.681100  1
  H  H942  1  0.658800  0.980100  0.181100  1
  H  H943  1  0.158800  0.480100  0.318900  1
  H  H944  1  0.341200  0.019900  0.818900  1
  H  H945  1  0.870900  0.558800  0.692900  1
  H  H946  1  0.629100  0.941200  0.192900  1
  H  H947  1  0.129100  0.441200  0.307100  1
  H  H948  1  0.370900  0.058800  0.807100  1
  H  H949  1  0.014700  0.556400  0.650500  1
  H  H950  1  0.485300  0.943600  0.150500  1
  H  H951  1  0.985300  0.443600  0.349500  1
  H  H952  1  0.514700  0.056400  0.849500  1
  H  H953  1  0.034800  0.483800  0.557900  1
  H  H954  1  0.465200  0.016200  0.057900  1
  H  H955  1  0.965200  0.516200  0.442100  1
  H  H956  1  0.534800  0.983800  0.942100  1
  H  H957  1  0.078900  0.541000  0.541800  1
  H  H958  1  0.421100  0.959000  0.041800  1
  H  H959  1  0.921100  0.459000  0.458200  1
  H  H960  1  0.578900  0.041000  0.958200  1
  H  H961  1  0.093800  0.594700  0.571000  1
  H  H962  1  0.406200  0.905300  0.071000  1
  H  H963  1  0.906200  0.405300  0.429000  1
  H  H964  1  0.593800  0.094700  0.929000  1
  H  H965  1  0.687700  0.834200  0.623200  1
  H  H966  1  0.812300  0.665800  0.123200  1
  H  H967  1  0.312300  0.165800  0.376800  1
  H  H968  1  0.187700  0.334200  0.876800  1
  H  H969  1  0.715500  0.865900  0.581900  1
  H  H970  1  0.784500  0.634100  0.081900  1
  H  H971  1  0.284500  0.134100  0.418100  1
  H  H972  1  0.215500  0.365900  0.918100  1
  H  H973  1  0.716600  0.831400  0.540400  1
  H  H974  1  0.783400  0.668600  0.040400  1
  H  H975  1  0.283400  0.168600  0.459600  1
  H  H976  1  0.216600  0.331400  0.959600  1
  H  H977  1  0.689900  0.765300  0.540100  1
  H  H978  1  0.810100  0.734700  0.040100  1
  H  H979  1  0.310100  0.234700  0.459900  1
  H  H980  1  0.189900  0.265300  0.959900  1
  H  H981  1  0.652900  0.702900  0.571000  1
  H  H982  1  0.847100  0.797100  0.071000  1
  H  H983  1  0.347100  0.297100  0.429000  1
  H  H984  1  0.152900  0.202900  0.929000  1
  H  H985  1  0.680100  0.654200  0.612800  1
  H  H986  1  0.819900  0.845800  0.112800  1
  H  H987  1  0.319900  0.345800  0.387200  1
  H  H988  1  0.180100  0.154200  0.887200  1
  H  H989  1  0.532300  0.610000  0.621500  1
  H  H990  1  0.967700  0.890000  0.121500  1
  H  H991  1  0.467700  0.390000  0.378500  1
  H  H992  1  0.032300  0.110000  0.878500  1
  H  H993  1  0.562800  0.675100  0.615800  1
  H  H994  1  0.937200  0.824900  0.115800  1
  H  H995  1  0.437200  0.324900  0.384200  1
  H  H996  1  0.062800  0.175100  0.884200  1
  H  H997  1  0.651900  0.554200  0.626400  1
  H  H998  1  0.848100  0.945800  0.126400  1
  H  H999  1  0.348100  0.445800  0.373600  1
  H  H1000  1  0.151900  0.054200  0.873600  1
  H  H1001  1  0.683200  0.590200  0.640900  1
  H  H1002  1  0.816800  0.909800  0.140900  1
  H  H1003  1  0.316800  0.409800  0.359100  1
  H  H1004  1  0.183200  0.090200  0.859100  1
  H  H1005  1  0.686300  0.583200  0.607800  1
  H  H1006  1  0.813700  0.916800  0.107800  1
  H  H1007  1  0.313700  0.416800  0.392200  1
  H  H1008  1  0.186300  0.083200  0.892200  1
  H  H1009  1  0.588600  0.535400  0.587000  1
  H  H1010  1  0.911400  0.964600  0.087000  1
  H  H1011  1  0.411400  0.464600  0.413000  1
  H  H1012  1  0.088600  0.035400  0.913000  1
  H  H1013  1  0.557400  0.470400  0.592400  1
  H  H1014  1  0.942600  0.029600  0.092400  1
  H  H1015  1  0.442600  0.529600  0.407600  1
  H  H1016  1  0.057400  0.970400  0.907600  1
  H  H1017  1  0.512300  0.491100  0.668900  1
  H  H1018  1  0.987700  0.008900  0.168900  1
  H  H1019  1  0.487700  0.508900  0.331100  1
  H  H1020  1  0.012300  0.991100  0.831100  1
  H  H1021  1  0.543600  0.556100  0.663500  1
  H  H1022  1  0.956400  0.943900  0.163500  1
  H  H1023  1  0.456400  0.443900  0.336500  1
  H  H1024  1  0.043600  0.056100  0.836500  1
  H  H1025  1  0.496100  0.361500  0.679700  1
  H  H1026  1  0.003900  0.138500  0.179700  1
  H  H1027  1  0.503900  0.638500  0.320300  1
  H  H1028  1  0.996100  0.861500  0.820300  1
  H  H1029  1  0.441200  0.365300  0.603400  1
  H  H1030  1  0.058800  0.134700  0.103400  1
  H  H1031  1  0.558800  0.634700  0.396600  1
  H  H1032  1  0.941200  0.865300  0.896600  1
  H  H1033  1  0.478300  0.429000  0.598400  1
  H  H1034  1  0.021700  0.071000  0.098400  1
  H  H1035  1  0.521700  0.571000  0.401600  1
  H  H1036  1  0.978300  0.929000  0.901600  1
  H  H1037  1  0.545500  0.416200  0.699100  1
  H  H1038  1  0.954500  0.083800  0.199100  1
  H  H1039  1  0.454500  0.583800  0.300900  1
  H  H1040  1  0.045500  0.916200  0.800900  1
  H  H1041  1  0.536800  0.456100  0.689700  1
  H  H1042  1  0.963200  0.043900  0.189700  1
  H  H1043  1  0.463200  0.543900  0.310300  1
  H  H1044  1  0.036800  0.956100  0.810300  1
  H  H1045  1  0.574500  0.441300  0.675400  1
  H  H1046  1  0.925500  0.058700  0.175400  1
  H  H1047  1  0.425500  0.558700  0.324600  1
  H  H1048  1  0.074500  0.941300  0.824600  1
  H  H1049  1  0.404900  0.333800  0.675100  1
  H  H1050  1  0.095100  0.166200  0.175100  1
  H  H1051  1  0.595100  0.666200  0.324900  1
  H  H1052  1  0.904900  0.833800  0.824900  1
  H  H1053  1  0.393700  0.194200  0.644800  1
  H  H1054  1  0.106300  0.305800  0.144800  1
  H  H1055  1  0.606300  0.805800  0.355200  1
  H  H1056  1  0.893700  0.694200  0.855200  1
  H  H1057  1  0.337600  0.172800  0.676400  1
  H  H1058  1  0.162400  0.327200  0.176400  1
  H  H1059  1  0.662400  0.827200  0.323600  1
  H  H1060  1  0.837600  0.672800  0.823600  1
  H  H1061  1  0.312700  0.216600  0.703800  1
  H  H1062  1  0.187300  0.283400  0.203800  1
  H  H1063  1  0.687300  0.783400  0.296200  1
  H  H1064  1  0.812700  0.716600  0.796200  1
  H  H1065  1  0.344000  0.281800  0.699600  1
  H  H1066  1  0.156000  0.218200  0.199600  1
  H  H1067  1  0.656000  0.718200  0.300400  1
  H  H1068  1  0.844000  0.781800  0.800400  1
  H  H1069  1  0.602400  0.818400  0.659300  1
  H  H1070  1  0.897600  0.681600  0.159300  1
  H  H1071  1  0.397600  0.181600  0.340700  1
  H  H1072  1  0.102400  0.318400  0.840700  1
  H  H1073  1  0.619300  0.864000  0.695100  1
  H  H1074  1  0.880700  0.636000  0.195100  1
  H  H1075  1  0.380700  0.136000  0.304900  1
  H  H1076  1  0.119300  0.364000  0.804900  1
  H  H1077  1  0.681000  0.869000  0.722000  1
  H  H1078  1  0.819000  0.631000  0.222000  1
  H  H1079  1  0.319000  0.131000  0.278000  1
  H  H1080  1  0.181000  0.369000  0.778000  1
  H  H1081  1  0.725700  0.828300  0.713100  1
  H  H1082  1  0.774300  0.671700  0.213100  1
  H  H1083  1  0.274300  0.171700  0.286900  1
  H  H1084  1  0.225700  0.328300  0.786900  1
  H  H1085  1  0.740300  0.773300  0.683500  1
  H  H1086  1  0.759700  0.726700  0.183500  1
  H  H1087  1  0.259700  0.226700  0.316500  1
  H  H1088  1  0.240300  0.273300  0.816500  1
  H  H1089  1  0.713000  0.691700  0.686800  1
  H  H1090  1  0.787000  0.808300  0.186800  1
  H  H1091  1  0.287000  0.308300  0.313200  1
  H  H1092  1  0.213000  0.191700  0.813200  1
  H  H1093  1  0.780800  0.694300  0.599600  1
  H  H1094  1  0.719200  0.805700  0.099600  1
  H  H1095  1  0.219200  0.305700  0.400400  1
  H  H1096  1  0.280800  0.194300  0.900400  1
  H  H1097  1  0.743800  0.740500  0.610500  1
  H  H1098  1  0.756200  0.759500  0.110500  1
  H  H1099  1  0.256200  0.259500  0.389500  1
  H  H1100  1  0.243800  0.240500  0.889500  1
  H  H1101  1  0.763000  0.620400  0.679900  1
  H  H1102  1  0.737000  0.879600  0.179900  1
  H  H1103  1  0.237000  0.379600  0.320100  1
  H  H1104  1  0.263000  0.120400  0.820100  1
  H  H1105  1  0.717500  0.626500  0.689000  1
  H  H1106  1  0.782500  0.873500  0.189000  1
  H  H1107  1  0.282500  0.373500  0.311000  1
  H  H1108  1  0.217500  0.126500  0.811000  1
  H  H1109  1  0.760100  0.653400  0.701700  1
  H  H1110  1  0.739900  0.846600  0.201700  1
  H  H1111  1  0.239900  0.346600  0.298300  1
  H  H1112  1  0.260100  0.153400  0.798300  1
  H  H1113  1  0.758700  0.618500  0.594000  1
  H  H1114  1  0.741300  0.881500  0.094000  1
  H  H1115  1  0.241300  0.381500  0.406000  1
  H  H1116  1  0.258700  0.118500  0.906000  1
  H  H1117  1  0.795900  0.572700  0.582600  1
  H  H1118  1  0.704100  0.927300  0.082600  1
  H  H1119  1  0.204100  0.427300  0.417400  1
  H  H1120  1  0.295900  0.072700  0.917400  1
  H  H1121  1  0.867900  0.600200  0.652900  1
  H  H1122  1  0.632100  0.899800  0.152900  1
  H  H1123  1  0.132100  0.399800  0.347100  1
  H  H1124  1  0.367900  0.100200  0.847100  1
  H  H1125  1  0.830700  0.646000  0.664200  1
  H  H1126  1  0.669300  0.854000  0.164200  1
  H  H1127  1  0.169300  0.354000  0.335800  1
  H  H1128  1  0.330700  0.146000  0.835800  1
  H  H1129  1  0.855700  0.459100  0.606300  1
  H  H1130  1  0.644300  0.040900  0.106300  1
  H  H1131  1  0.144300  0.540900  0.393700  1
  H  H1132  1  0.355700  0.959100  0.893700  1
  H  H1133  1  0.957300  0.547200  0.590900  1
  H  H1134  1  0.542700  0.952800  0.090900  1
  H  H1135  1  0.042700  0.452800  0.409100  1
  H  H1136  1  0.457300  0.047200  0.909100  1
  H  H1137  1  0.916500  0.590300  0.602300  1
  H  H1138  1  0.583500  0.909700  0.102300  1
  H  H1139  1  0.083500  0.409700  0.397700  1
  H  H1140  1  0.416500  0.090300  0.897700  1
  H  H1141  1  0.783100  0.468500  0.611000  1
  H  H1142  1  0.716900  0.031500  0.111000  1
  H  H1143  1  0.216900  0.531500  0.389000  1
  H  H1144  1  0.283100  0.968500  0.889000  1
  H  H1145  1  0.779700  0.507100  0.595700  1
  H  H1146  1  0.720300  0.992900  0.095700  1
  H  H1147  1  0.220300  0.492900  0.404300  1
  H  H1148  1  0.279700  0.007100  0.904300  1
  H  H1149  1  0.779700  0.504700  0.629400  1
  H  H1150  1  0.720300  0.995300  0.129400  1
  H  H1151  1  0.220300  0.495300  0.370600  1
  H  H1152  1  0.279700  0.004700  0.870600  1
  H  H1153  1  0.909500  0.465900  0.551000  1
  H  H1154  1  0.590500  0.034100  0.051000  1
  H  H1155  1  0.090500  0.534100  0.449000  1
  H  H1156  1  0.409500  0.965900  0.949000  1
  H  H1157  1  0.019700  0.393300  0.602200  1
  H  H1158  1  0.480300  0.106700  0.102200  1
  H  H1159  1  0.980300  0.606700  0.397800  1
  H  H1160  1  0.519700  0.893300  0.897800  1
  H  H1161  1  0.012200  0.350600  0.564400  1
  H  H1162  1  0.487800  0.149400  0.064400  1
  H  H1163  1  0.987800  0.649400  0.435600  1
  H  H1164  1  0.512200  0.850600  0.935600  1
  H  H1165  1  0.967000  0.355500  0.526900  1
  H  H1166  1  0.533000  0.144500  0.026900  1
  H  H1167  1  0.033000  0.644500  0.473100  1
  H  H1168  1  0.467000  0.855500  0.973100  1
  H  H1169  1  0.929300  0.403000  0.527200  1
  H  H1170  1  0.570700  0.097000  0.027200  1
  H  H1171  1  0.070700  0.597000  0.472800  1
  H  H1172  1  0.429300  0.903000  0.972800  1
  H  H1173  1  0.358000  0.255300  0.611500  1
  H  H1174  1  0.142000  0.244700  0.111500  1
  H  H1175  1  0.642000  0.744700  0.388500  1
  H  H1176  1  0.858000  0.755300  0.888500  1
  H  H1177  1  0.322200  0.254600  0.568600  1
  H  H1178  1  0.177800  0.245400  0.068600  1
  H  H1179  1  0.677800  0.745400  0.431400  1
  H  H1180  1  0.822200  0.754600  0.931400  1
  H  H1181  1  0.359700  0.280600  0.528300  1
  H  H1182  1  0.140300  0.219400  0.028300  1
  H  H1183  1  0.640300  0.719400  0.471700  1
  H  H1184  1  0.859700  0.780600  0.971700  1
  H  H1185  1  0.433000  0.307400  0.530800  1
  H  H1186  1  0.067000  0.192600  0.030800  1
  H  H1187  1  0.567000  0.692600  0.469200  1
  H  H1188  1  0.933000  0.807400  0.969200  1
  H  H1189  1  0.504600  0.313700  0.562800  1
  H  H1190  1  0.995400  0.186300  0.062800  1
  H  H1191  1  0.495400  0.686300  0.437200  1
  H  H1192  1  0.004600  0.813700  0.937200  1
  H  H1193  1  0.541900  0.367800  0.612000  1
  H  H1194  1  0.958100  0.132200  0.112000  1
  H  H1195  1  0.458100  0.632200  0.388000  1
  H  H1196  1  0.041900  0.867800  0.888000  1
  H  H1197  1  0.626500  0.280000  0.607900  1
  H  H1198  1  0.873500  0.220000  0.107900  1
  H  H1199  1  0.373500  0.720000  0.392100  1
  H  H1200  1  0.126500  0.780000  0.892100  1
  H  H1201  1  0.553500  0.260200  0.598900  1
  H  H1202  1  0.946500  0.239800  0.098900  1
  H  H1203  1  0.446500  0.739800  0.401100  1
  H  H1204  1  0.053500  0.760200  0.901100  1
  H  H1205  1  0.652700  0.412000  0.629600  1
  H  H1206  1  0.847300  0.088000  0.129600  1
  H  H1207  1  0.347300  0.588000  0.370400  1
  H  H1208  1  0.152700  0.912000  0.870400  1
  H  H1209  1  0.607800  0.412600  0.643400  1
  H  H1210  1  0.892200  0.087400  0.143400  1
  H  H1211  1  0.392200  0.587400  0.356600  1
  H  H1212  1  0.107800  0.912600  0.856600  1
  H  H1213  1  0.616900  0.424300  0.611100  1
  H  H1214  1  0.883100  0.075700  0.111100  1
  H  H1215  1  0.383100  0.575700  0.388900  1
  H  H1216  1  0.116900  0.924300  0.888900  1
  H  H1217  1  0.680300  0.310400  0.652300  1
  H  H1218  1  0.819700  0.189600  0.152300  1
  H  H1219  1  0.319700  0.689600  0.347700  1
  H  H1220  1  0.180300  0.810400  0.847700  1
  H  H1221  1  0.753500  0.332600  0.659900  1
  H  H1222  1  0.746500  0.167400  0.159900  1
  H  H1223  1  0.246500  0.667400  0.340100  1
  H  H1224  1  0.253500  0.832600  0.840100  1
  H  H1225  1  0.760100  0.409100  0.596800  1
  H  H1226  1  0.739900  0.090900  0.096800  1
  H  H1227  1  0.239900  0.590900  0.403200  1
  H  H1228  1  0.260100  0.909100  0.903200  1
  H  H1229  1  0.686800  0.387000  0.589200  1
  H  H1230  1  0.813200  0.113000  0.089200  1
  H  H1231  1  0.313200  0.613000  0.410800  1
  H  H1232  1  0.186800  0.887000  0.910800  1
  H  H1233  1  0.886300  0.429000  0.674800  1
  H  H1234  1  0.613700  0.071000  0.174800  1
  H  H1235  1  0.113700  0.571000  0.325200  1
  H  H1236  1  0.386300  0.929000  0.825200  1
  H  H1237  1  0.898300  0.379800  0.599600  1
  H  H1238  1  0.601700  0.120200  0.099600  1
  H  H1239  1  0.101700  0.620200  0.400400  1
  H  H1240  1  0.398300  0.879800  0.900400  1
  H  H1241  1  0.824200  0.359800  0.596000  1
  H  H1242  1  0.675800  0.140200  0.096000  1
  H  H1243  1  0.175800  0.640200  0.404000  1
  H  H1244  1  0.324200  0.859800  0.904000  1
  H  H1245  1  0.769100  0.380800  0.684800  1
  H  H1246  1  0.730900  0.119200  0.184800  1
  H  H1247  1  0.230900  0.619200  0.315200  1
  H  H1248  1  0.269100  0.880800  0.815200  1
  H  H1249  1  0.801800  0.414900  0.700400  1
  H  H1250  1  0.698200  0.085100  0.200400  1
  H  H1251  1  0.198200  0.585100  0.299600  1
  H  H1252  1  0.301800  0.914900  0.799600  1
  H  H1253  1  0.810200  0.373100  0.700200  1
  H  H1254  1  0.689800  0.126900  0.200200  1
  H  H1255  1  0.189800  0.626900  0.299800  1
  H  H1256  1  0.310200  0.873100  0.799800  1
  H  H1257  1  0.945700  0.388300  0.669100  1
  H  H1258  1  0.554300  0.111700  0.169100  1
  H  H1259  1  0.054300  0.611700  0.330900  1
  H  H1260  1  0.445700  0.888300  0.830900  1
  H  H1261  1  0.079700  0.477300  0.622300  1
  H  H1262  1  0.420300  0.022700  0.122300  1
  H  H1263  1  0.920300  0.522700  0.377700  1
  H  H1264  1  0.579700  0.977300  0.877700  1
  H  H1265  1  0.127300  0.454300  0.650300  1
  H  H1266  1  0.372700  0.045700  0.150300  1
  H  H1267  1  0.872700  0.545700  0.349700  1
  H  H1268  1  0.627300  0.954300  0.849700  1
  H  H1269  1  0.101600  0.406100  0.683200  1
  H  H1270  1  0.398400  0.093900  0.183200  1
  H  H1271  1  0.898400  0.593900  0.316800  1
  H  H1272  1  0.601600  0.906100  0.816800  1
  H  H1273  1  0.028200  0.380900  0.688100  1
  H  H1274  1  0.471800  0.119100  0.188100  1
  H  H1275  1  0.971800  0.619100  0.311900  1
  H  H1276  1  0.528200  0.880900  0.811900  1
  H  H1277  1  0.695700  0.597600  0.623600  1
  H  H1278  1  0.804300  0.902400  0.123600  1
  H  H1279  1  0.304300  0.402400  0.376400  1
  H  H1280  1  0.195700  0.097600  0.876400  1
  H  H1281  1  0.664400  0.561500  0.609100  1
  H  H1282  1  0.835600  0.938500  0.109100  1
  H  H1283  1  0.335600  0.438500  0.390900  1
  H  H1284  1  0.164400  0.061500  0.890900  1
  H  H1285  1  0.661300  0.568500  0.642200  1
  H  H1286  1  0.838700  0.931500  0.142200  1
  H  H1287  1  0.338700  0.431500  0.357800  1
  H  H1288  1  0.161300  0.068500  0.857800  1
  H  H1289  1  0.559100  0.459500  0.677000  1
  H  H1290  1  0.940900  0.040500  0.177000  1
  H  H1291  1  0.440900  0.540500  0.323000  1
  H  H1292  1  0.059100  0.959500  0.823000  1
  H  H1293  1  0.567700  0.419600  0.686400  1
  H  H1294  1  0.932300  0.080400  0.186400  1
  H  H1295  1  0.432300  0.580400  0.313600  1
  H  H1296  1  0.067700  0.919600  0.813600  1
  H  H1297  1  0.530000  0.434400  0.700700  1
  H  H1298  1  0.970000  0.065600  0.200700  1
  H  H1299  1  0.470000  0.565600  0.299300  1
  H  H1300  1  0.030000  0.934400  0.799300  1
  H  H1301  1  0.785700  0.542700  0.802100  1
  H  H1302  1  0.714300  0.957300  0.302100  1
  H  H1303  1  0.214300  0.457300  0.197900  1
  H  H1304  1  0.285700  0.042700  0.697900  1
  H  H1305  1  0.777300  0.582100  0.791200  1
  H  H1306  1  0.722700  0.917900  0.291200  1
  H  H1307  1  0.222700  0.417900  0.208800  1
  H  H1308  1  0.277300  0.082100  0.708800  1
  H  H1309  1  0.743400  0.542800  0.784700  1
  H  H1310  1  0.756600  0.957200  0.284700  1
  H  H1311  1  0.256600  0.457200  0.215300  1
  H  H1312  1  0.243400  0.042800  0.715300  1
  H  H1313  1  0.730800  0.646500  0.700500  1
  H  H1314  1  0.769200  0.853500  0.200500  1
  H  H1315  1  0.269200  0.353500  0.299500  1
  H  H1316  1  0.230800  0.146500  0.799500  1
  H  H1317  1  0.776200  0.640400  0.691400  1
  H  H1318  1  0.723800  0.859600  0.191400  1
  H  H1319  1  0.223800  0.359600  0.308600  1
  H  H1320  1  0.276200  0.140400  0.808600  1
  H  H1321  1  0.733700  0.613500  0.678700  1
  H  H1322  1  0.766300  0.886500  0.178700  1
  H  H1323  1  0.266300  0.386500  0.321300  1
  H  H1324  1  0.233700  0.113500  0.821300  1
  H  H1325  1  0.778600  0.518300  0.613100  1
  H  H1326  1  0.721400  0.981700  0.113100  1
  H  H1327  1  0.221400  0.481700  0.386900  1
  H  H1328  1  0.278600  0.018300  0.886900  1
  H  H1329  1  0.781900  0.479800  0.628300  1
  H  H1330  1  0.718100  0.020200  0.128300  1
  H  H1331  1  0.218100  0.520200  0.371700  1
  H  H1332  1  0.281900  0.979800  0.871700  1
  H  H1333  1  0.782000  0.482200  0.594700  1
  H  H1334  1  0.718000  0.017800  0.094700  1
  H  H1335  1  0.218000  0.517800  0.405300  1
  H  H1336  1  0.282000  0.982200  0.905300  1
  H  H1337  1  0.598900  0.420600  0.626500  1
  H  H1338  1  0.901100  0.079400  0.126500  1
  H  H1339  1  0.401100  0.579400  0.373500  1
  H  H1340  1  0.098900  0.920600  0.873500  1
  H  H1341  1  0.643800  0.420000  0.612700  1
  H  H1342  1  0.856200  0.080000  0.112700  1
  H  H1343  1  0.356200  0.580000  0.387300  1
  H  H1344  1  0.143800  0.920000  0.887300  1
  H  H1345  1  0.634700  0.408300  0.645000  1
  H  H1346  1  0.865300  0.091700  0.145000  1
  H  H1347  1  0.365300  0.591700  0.355000  1
  H  H1348  1  0.134700  0.908300  0.855000  1
  H  H1349  1  0.818300  0.398400  0.705500  1
  H  H1350  1  0.681700  0.101600  0.205500  1
  H  H1351  1  0.181700  0.601600  0.294500  1
  H  H1352  1  0.318300  0.898400  0.794500  1
  H  H1353  1  0.785600  0.364300  0.689800  1
  H  H1354  1  0.714400  0.135700  0.189800  1
  H  H1355  1  0.214400  0.635700  0.310200  1
  H  H1356  1  0.285600  0.864300  0.810200  1
  H  H1357  1  0.777200  0.406100  0.690100  1
  H  H1358  1  0.722800  0.093900  0.190100  1
  H  H1359  1  0.222800  0.593900  0.309900  1
  H  H1360  1  0.277200  0.906100  0.809900  1
  H  H1361  1  0.452400  0.675700  0.824100  1
  H  H1362  1  0.047600  0.824300  0.324100  1
  H  H1363  1  0.547600  0.324300  0.175900  1
  H  H1364  1  0.952400  0.175700  0.675900  1
  H  H1365  1  0.457300  0.643000  0.802700  1
  H  H1366  1  0.042700  0.857000  0.302700  1
  H  H1367  1  0.542700  0.357000  0.197300  1
  H  H1368  1  0.957300  0.143000  0.697300  1
  H  H1369  1  0.442300  0.679300  0.791400  1
  H  H1370  1  0.057700  0.820700  0.291400  1
  H  H1371  1  0.557700  0.320700  0.208600  1
  H  H1372  1  0.942300  0.179300  0.708600  1
  H  H1373  1  0.437700  0.514900  0.693800  1
  H  H1374  1  0.062300  0.985100  0.193800  1
  H  H1375  1  0.562300  0.485100  0.306200  1
  H  H1376  1  0.937700  0.014900  0.806200  1
  H  H1377  1  0.427000  0.547300  0.713500  1
  H  H1378  1  0.073000  0.952700  0.213500  1
  H  H1379  1  0.573000  0.452700  0.286500  1
  H  H1380  1  0.927000  0.047300  0.786500  1
  H  H1381  1  0.475400  0.545800  0.708500  1
  H  H1382  1  0.024600  0.954200  0.208500  1
  H  H1383  1  0.524600  0.454200  0.291500  1
  H  H1384  1  0.975400  0.045800  0.791500  1
  H  H1385  1  0.479500  0.597300  0.882600  1
  H  H1386  1  0.020500  0.902700  0.382600  1
  H  H1387  1  0.520500  0.402700  0.117400  1
  H  H1388  1  0.979500  0.097300  0.617400  1
  H  H1389  1  0.444200  0.606500  0.862100  1
  H  H1390  1  0.055800  0.893500  0.362100  1
  H  H1391  1  0.555800  0.393500  0.137900  1
  H  H1392  1  0.944200  0.106500  0.637900  1
  H  H1393  1  0.434900  0.601200  0.895100  1
  H  H1394  1  0.065100  0.898800  0.395100  1
  H  H1395  1  0.565100  0.398800  0.104900  1
  H  H1396  1  0.934900  0.101200  0.604900  1
  H  H1397  1  0.256600  0.589900  0.799900  1
  H  H1398  1  0.243400  0.910100  0.299900  1
  H  H1399  1  0.743400  0.410100  0.200100  1
  H  H1400  1  0.756600  0.089900  0.700100  1
  H  H1401  1  0.295400  0.587500  0.820100  1
  H  H1402  1  0.204600  0.912500  0.320100  1
  H  H1403  1  0.704600  0.412500  0.179900  1
  H  H1404  1  0.795400  0.087500  0.679900  1
  H  H1405  1  0.295000  0.626700  0.804600  1
  H  H1406  1  0.205000  0.873300  0.304600  1
  H  H1407  1  0.705000  0.373300  0.195400  1
  H  H1408  1  0.795000  0.126700  0.695400  1
  H  H1409  1  0.613900  0.592000  0.686200  1
  H  H1410  1  0.886100  0.908000  0.186200  1
  H  H1411  1  0.386100  0.408000  0.313800  1
  H  H1412  1  0.113900  0.092000  0.813800  1
  H  H1413  1  0.611100  0.584100  0.719400  1
  H  H1414  1  0.888900  0.915900  0.219400  1
  H  H1415  1  0.388900  0.415900  0.280600  1
  H  H1416  1  0.111100  0.084100  0.780600  1
  H  H1417  1  0.656200  0.592100  0.703700  1
  H  H1418  1  0.843800  0.907900  0.203700  1
  H  H1419  1  0.343800  0.407900  0.296300  1
  H  H1420  1  0.156200  0.092100  0.796300  1
  H  H1421  1  0.538600  0.612400  0.799900  1
  H  H1422  1  0.961400  0.887600  0.299900  1
  H  H1423  1  0.461400  0.387600  0.200100  1
  H  H1424  1  0.038600  0.112400  0.700100  1
  H  H1425  1  0.506900  0.582800  0.819800  1
  H  H1426  1  0.993100  0.917200  0.319800  1
  H  H1427  1  0.493100  0.417200  0.180200  1
  H  H1428  1  0.006900  0.082800  0.680200  1
  H  H1429  1  0.545600  0.570500  0.804600  1
  H  H1430  1  0.954400  0.929500  0.304600  1
  H  H1431  1  0.454400  0.429500  0.195400  1
  H  H1432  1  0.045600  0.070500  0.695400  1
  H  H1433  1  0.388300  0.421900  0.874900  1
  H  H1434  1  0.111700  0.078100  0.374900  1
  H  H1435  1  0.611700  0.578100  0.125100  1
  H  H1436  1  0.888300  0.921900  0.625100  1
  H  H1437  1  0.423600  0.451900  0.857600  1
  H  H1438  1  0.076400  0.048100  0.357600  1
  H  H1439  1  0.576400  0.548100  0.142400  1
  H  H1440  1  0.923600  0.951900  0.642400  1
  H  H1441  1  0.422100  0.454400  0.891200  1
  H  H1442  1  0.077900  0.045600  0.391200  1
  H  H1443  1  0.577900  0.545600  0.108800  1
  H  H1444  1  0.922100  0.954400  0.608800  1
  H  H1445  1  0.325300  0.574900  0.720900  1
  H  H1446  1  0.174700  0.925100  0.220900  1
  H  H1447  1  0.674700  0.425100  0.279100  1
  H  H1448  1  0.825300  0.074900  0.779100  1
  H  H1449  1  0.356700  0.611300  0.707000  1
  H  H1450  1  0.143300  0.888700  0.207000  1
  H  H1451  1  0.643300  0.388700  0.293000  1
  H  H1452  1  0.856700  0.111300  0.793000  1
  H  H1453  1  0.366600  0.570200  0.704100  1
  H  H1454  1  0.133400  0.929800  0.204100  1
  H  H1455  1  0.633400  0.429800  0.295900  1
  H  H1456  1  0.866600  0.070200  0.795900  1
  H  H1457  1  0.227000  0.489500  0.783900  1
  H  H1458  1  0.273000  0.010500  0.283900  1
  H  H1459  1  0.773000  0.510500  0.216100  1
  H  H1460  1  0.727000  0.989500  0.716100  1
  H  H1461  1  0.198200  0.462400  0.806700  1
  H  H1462  1  0.301800  0.037600  0.306700  1
  H  H1463  1  0.801800  0.537600  0.193300  1
  H  H1464  1  0.698200  0.962400  0.693300  1
  H  H1465  1  0.232200  0.500100  0.816700  1
  H  H1466  1  0.267800  0.999900  0.316700  1
  H  H1467  1  0.767800  0.499900  0.183300  1
  H  H1468  1  0.732200  0.000100  0.683300  1
  H  H1469  1  0.296900  0.481100  0.696000  1
  H  H1470  1  0.203100  0.018900  0.196000  1
  H  H1471  1  0.703100  0.518900  0.304000  1
  H  H1472  1  0.796900  0.981100  0.804000  1
  H  H1473  1  0.339400  0.478900  0.712300  1
  H  H1474  1  0.160600  0.021100  0.212300  1
  H  H1475  1  0.660600  0.521100  0.287700  1
  H  H1476  1  0.839400  0.978900  0.787700  1
  H  H1477  1  0.304900  0.440600  0.704400  1
  H  H1478  1  0.195100  0.059400  0.204400  1
  H  H1479  1  0.695100  0.559400  0.295600  1
  H  H1480  1  0.804900  0.940600  0.795600  1
  H  H1481  1  0.472400  0.435700  0.806300  1
  H  H1482  1  0.027600  0.064300  0.306300  1
  H  H1483  1  0.527600  0.564300  0.193700  1
  H  H1484  1  0.972400  0.935700  0.693700  1
  H  H1485  1  0.430100  0.437700  0.789700  1
  H  H1486  1  0.069900  0.062300  0.289700  1
  H  H1487  1  0.569900  0.562300  0.210300  1
  H  H1488  1  0.930100  0.937700  0.710300  1
  H  H1489  1  0.473500  0.440600  0.772800  1
  H  H1490  1  0.026500  0.059400  0.272800  1
  H  H1491  1  0.526500  0.559400  0.227200  1
  H  H1492  1  0.973500  0.940600  0.727200  1
  H  H1493  1  0.295200  0.505400  0.879900  1
  H  H1494  1  0.204800  0.994600  0.379900  1
  H  H1495  1  0.704800  0.494600  0.120100  1
  H  H1496  1  0.795200  0.005400  0.620100  1
  H  H1497  1  0.290700  0.540900  0.898700  1
  H  H1498  1  0.209300  0.959100  0.398700  1
  H  H1499  1  0.709300  0.459100  0.101300  1
  H  H1500  1  0.790700  0.040900  0.601300  1
  H  H1501  1  0.284300  0.541800  0.865400  1
  H  H1502  1  0.215700  0.958200  0.365400  1
  H  H1503  1  0.715700  0.458200  0.134600  1
  H  H1504  1  0.784300  0.041800  0.634600  1
  H  H1505  1  0.348800  0.383100  0.796400  1
  H  H1506  1  0.151200  0.116900  0.296400  1
  H  H1507  1  0.651200  0.616900  0.203600  1
  H  H1508  1  0.848800  0.883100  0.703600  1
  H  H1509  1  0.342900  0.411400  0.821100  1
  H  H1510  1  0.157100  0.088600  0.321100  1
  H  H1511  1  0.657100  0.588600  0.178900  1
  H  H1512  1  0.842900  0.911400  0.678900  1
  H  H1513  1  0.302100  0.385700  0.805600  1
  H  H1514  1  0.197900  0.114300  0.305600  1
  H  H1515  1  0.697900  0.614300  0.194400  1
  H  H1516  1  0.802100  0.885700  0.694400  1
  H  H1517  1  0.628000  0.458900  0.780600  1
  H  H1518  1  0.872000  0.041100  0.280600  1
  H  H1519  1  0.372000  0.541100  0.219400  1
  H  H1520  1  0.128000  0.958900  0.719400  1
  H  H1521  1  0.667000  0.490900  0.792900  1
  H  H1522  1  0.833000  0.009100  0.292900  1
  H  H1523  1  0.333000  0.509100  0.207100  1
  H  H1524  1  0.167000  0.990900  0.707100  1
  H  H1525  1  0.619200  0.495000  0.796900  1
  H  H1526  1  0.880800  0.005000  0.296900  1
  H  H1527  1  0.380800  0.505000  0.203100  1
  H  H1528  1  0.119200  0.995000  0.703100  1
  H  H1529  1  0.630300  0.339000  0.680900  1
  H  H1530  1  0.869700  0.161000  0.180900  1
  H  H1531  1  0.369700  0.661000  0.319100  1
  H  H1532  1  0.130300  0.839000  0.819100  1
  H  H1533  1  0.635000  0.337800  0.714400  1
  H  H1534  1  0.865000  0.162200  0.214400  1
  H  H1535  1  0.365000  0.662200  0.285600  1
  H  H1536  1  0.135000  0.837800  0.785600  1
  H  H1537  1  0.623200  0.373700  0.699700  1
  H  H1538  1  0.876800  0.126300  0.199700  1
  H  H1539  1  0.376800  0.626300  0.300300  1
  H  H1540  1  0.123200  0.873700  0.800300  1
  H  H1541  1  0.766500  0.442200  0.775100  1
  H  H1542  1  0.733500  0.057800  0.275100  1
  H  H1543  1  0.233500  0.557800  0.224900  1
  H  H1544  1  0.266500  0.942200  0.724900  1
  H  H1545  1  0.719900  0.444300  0.785000  1
  H  H1546  1  0.780100  0.055700  0.285000  1
  H  H1547  1  0.280100  0.555700  0.215000  1
  H  H1548  1  0.219900  0.944300  0.715000  1
  H  H1549  1  0.735000  0.405700  0.789000  1
  H  H1550  1  0.765000  0.094300  0.289000  1
  H  H1551  1  0.265000  0.594300  0.211000  1
  H  H1552  1  0.235000  0.905700  0.711000  1
  H  H1553  1  0.859200  0.543600  0.677800  1
  H  H1554  1  0.640800  0.956400  0.177800  1
  H  H1555  1  0.140800  0.456400  0.322200  1
  H  H1556  1  0.359200  0.043600  0.822200  1
  H  H1557  1  0.864400  0.550400  0.711100  1
  H  H1558  1  0.635600  0.949600  0.211100  1
  H  H1559  1  0.135600  0.449600  0.288900  1
  H  H1560  1  0.364400  0.050400  0.788900  1
  H  H1561  1  0.834800  0.511500  0.699300  1
  H  H1562  1  0.665200  0.988500  0.199300  1
  H  H1563  1  0.165200  0.488500  0.300700  1
  H  H1564  1  0.334800  0.011500  0.800700  1
  C  C1565  1  0.587800  0.806800  0.875340  1
  C  C1566  1  0.912200  0.693200  0.375340  1
  C  C1567  1  0.412200  0.193200  0.124660  1
  C  C1568  1  0.087800  0.306800  0.624660  1
  C  C1569  1  0.638300  0.814100  0.913300  1
  C  C1570  1  0.861700  0.685900  0.413300  1
  C  C1571  1  0.361700  0.185900  0.086700  1
  C  C1572  1  0.138300  0.314100  0.586700  1
  C  C1573  1  0.629800  0.848700  0.920400  1
  C  C1574  1  0.870200  0.651300  0.420400  1
  C  C1575  1  0.370200  0.151300  0.079600  1
  C  C1576  1  0.129800  0.348700  0.579600  1
  C  C1577  1  0.600300  0.862400  0.904900  1
  C  C1578  1  0.899700  0.637600  0.404900  1
  C  C1579  1  0.399700  0.137600  0.095100  1
  C  C1580  1  0.100300  0.362400  0.595100  1
  C  C1581  1  0.579300  0.841500  0.882400  1
  C  C1582  1  0.920700  0.658500  0.382400  1
  C  C1583  1  0.420700  0.158500  0.117600  1
  C  C1584  1  0.079300  0.341500  0.617600  1
  C  C1585  1  0.571500  0.787500  0.849600  1
  C  C1586  1  0.928500  0.712500  0.349600  1
  C  C1587  1  0.428500  0.212500  0.150400  1
  C  C1588  1  0.071500  0.287500  0.650400  1
  C  C1589  1  0.566300  0.732100  0.822920  1
  C  C1590  1  0.933700  0.767900  0.322920  1
  C  C1591  1  0.433700  0.267900  0.177080  1
  C  C1592  1  0.066300  0.232100  0.677080  1
  C  C1593  1  0.524100  0.711400  0.823480  1
  C  C1594  1  0.975900  0.788600  0.323480  1
  C  C1595  1  0.475900  0.288600  0.176520  1
  C  C1596  1  0.024100  0.211400  0.676520  1
  C  C1597  1  0.506200  0.690900  0.799900  1
  C  C1598  1  0.993800  0.809100  0.299900  1
  C  C1599  1  0.493800  0.309100  0.200100  1
  C  C1600  1  0.006200  0.190900  0.700100  1
  C  C1601  1  0.530500  0.691100  0.775780  1
  C  C1602  1  0.969500  0.808900  0.275780  1
  C  C1603  1  0.469500  0.308900  0.224220  1
  C  C1604  1  0.030500  0.191100  0.724220  1
  C  C1605  1  0.572700  0.711700  0.775230  1
  C  C1606  1  0.927300  0.788300  0.275230  1
  C  C1607  1  0.427300  0.288300  0.224770  1
  C  C1608  1  0.072700  0.211700  0.724770  1
  C  C1609  1  0.590600  0.732300  0.798800  1
  C  C1610  1  0.909400  0.767700  0.298800  1
  C  C1611  1  0.409400  0.267700  0.201200  1
  C  C1612  1  0.090600  0.232300  0.701200  1
  C  C1613  1  0.460600  0.670500  0.805000  1
  C  C1614  1  0.039400  0.829500  0.305000  1
  C  C1615  1  0.539400  0.329500  0.195000  1
  C  C1616  1  0.960600  0.170500  0.695000  1
  C  C1617  1  0.512200  0.669600  0.750040  1
  C  C1618  1  0.987800  0.830400  0.250040  1
  C  C1619  1  0.487800  0.330400  0.249960  1
  C  C1620  1  0.012200  0.169600  0.749960  1
  C  C1621  1  0.479200  0.678200  0.734600  1
  C  C1622  1  0.020800  0.821800  0.234600  1
  C  C1623  1  0.520800  0.321800  0.265400  1
  C  C1624  1  0.979200  0.178200  0.765400  1
  C  C1625  1  0.464100  0.657400  0.710580  1
  C  C1626  1  0.035900  0.842600  0.210580  1
  C  C1627  1  0.535900  0.342600  0.289420  1
  C  C1628  1  0.964100  0.157400  0.789420  1
  C  C1629  1  0.481900  0.628000  0.701980  1
  C  C1630  1  0.018100  0.872000  0.201980  1
  C  C1631  1  0.518100  0.372000  0.298020  1
  C  C1632  1  0.981900  0.128000  0.798020  1
  C  C1633  1  0.514900  0.619400  0.717400  1
  C  C1634  1  0.985100  0.880600  0.217400  1
  C  C1635  1  0.485100  0.380600  0.282600  1
  C  C1636  1  0.014900  0.119400  0.782600  1
  C  C1637  1  0.530000  0.640200  0.741440  1
  C  C1638  1  0.970000  0.859800  0.241440  1
  C  C1639  1  0.470000  0.359800  0.258560  1
  C  C1640  1  0.030000  0.140200  0.758560  1
  C  C1641  1  0.464900  0.606400  0.674700  1
  C  C1642  1  0.035100  0.893600  0.174700  1
  C  C1643  1  0.535100  0.393600  0.325300  1
  C  C1644  1  0.964900  0.106400  0.825300  1
  C  C1645  1  0.449500  0.567100  0.674790  1
  C  C1646  1  0.050500  0.932900  0.174790  1
  C  C1647  1  0.550500  0.432900  0.325210  1
  C  C1648  1  0.949500  0.067100  0.825210  1
  C  C1649  1  0.435600  0.547900  0.649900  1
  C  C1650  1  0.064400  0.952100  0.149900  1
  C  C1651  1  0.564400  0.452100  0.350100  1
  C  C1652  1  0.935600  0.047900  0.850100  1
  C  C1653  1  0.437300  0.568100  0.624830  1
  C  C1654  1  0.062700  0.931900  0.124830  1
  C  C1655  1  0.562700  0.431900  0.375170  1
  C  C1656  1  0.937300  0.068100  0.875170  1
  C  C1657  1  0.452700  0.607500  0.624740  1
  C  C1658  1  0.047300  0.892500  0.124740  1
  C  C1659  1  0.547300  0.392500  0.375260  1
  C  C1660  1  0.952700  0.107500  0.875260  1
  C  C1661  1  0.466500  0.626600  0.649700  1
  C  C1662  1  0.033500  0.873400  0.149700  1
  C  C1663  1  0.533500  0.373400  0.350300  1
  C  C1664  1  0.966500  0.126600  0.850300  1
  C  C1665  1  0.447200  0.541600  0.699800  1
  C  C1666  1  0.052800  0.958400  0.199800  1
  C  C1667  1  0.552800  0.458400  0.300200  1
  C  C1668  1  0.947200  0.041600  0.800200  1
  C  C1669  1  0.452500  0.532100  0.588300  1
  C  C1670  1  0.047500  0.967900  0.088300  1
  C  C1671  1  0.547500  0.467900  0.411700  1
  C  C1672  1  0.952500  0.032100  0.911700  1
  C  C1673  1  0.442900  0.514200  0.560900  1
  C  C1674  1  0.057100  0.985800  0.060900  1
  C  C1675  1  0.557100  0.485800  0.439100  1
  C  C1676  1  0.942900  0.014200  0.939100  1
  C  C1677  1  0.387600  0.501500  0.525800  1
  C  C1678  1  0.112400  0.998500  0.025800  1
  C  C1679  1  0.612400  0.498500  0.474200  1
  C  C1680  1  0.887600  0.001500  0.974200  1
  C  C1681  1  0.410700  0.481000  0.510200  1
  C  C1682  1  0.089300  0.019000  0.010200  1
  C  C1683  1  0.589300  0.519000  0.489800  1
  C  C1684  1  0.910700  0.981000  0.989800  1
  C  C1685  1  0.449800  0.477000  0.519900  1
  C  C1686  1  0.050200  0.023000  0.019900  1
  C  C1687  1  0.550200  0.523000  0.480100  1
  C  C1688  1  0.949800  0.977000  0.980100  1
  C  C1689  1  0.465900  0.493600  0.545300  1
  C  C1690  1  0.034100  0.006400  0.045300  1
  C  C1691  1  0.534100  0.506400  0.454700  1
  C  C1692  1  0.965900  0.993600  0.954700  1
  C  C1693  1  0.642200  0.724600  0.928700  1
  C  C1694  1  0.857800  0.775400  0.428700  1
  C  C1695  1  0.357800  0.275400  0.071300  1
  C  C1696  1  0.142200  0.224600  0.571300  1
  C  C1697  1  0.708900  0.752300  0.905700  1
  C  C1698  1  0.791100  0.747700  0.405700  1
  C  C1699  1  0.291100  0.247700  0.094300  1
  C  C1700  1  0.208900  0.252300  0.594300  1
  C  C1701  1  0.730600  0.746800  0.930000  1
  C  C1702  1  0.769400  0.753200  0.430000  1
  C  C1703  1  0.269400  0.253200  0.070000  1
  C  C1704  1  0.230600  0.246800  0.570000  1
  C  C1705  1  0.708200  0.730300  0.953600  1
  C  C1706  1  0.791800  0.769700  0.453600  1
  C  C1707  1  0.291800  0.269700  0.046400  1
  C  C1708  1  0.208200  0.230300  0.546400  1
  C  C1709  1  0.664000  0.719200  0.952900  1
  C  C1710  1  0.836000  0.780800  0.452900  1
  C  C1711  1  0.336000  0.280800  0.047100  1
  C  C1712  1  0.164000  0.219200  0.547100  1
  C  C1713  1  0.595400  0.702600  0.924900  1
  C  C1714  1  0.904600  0.797400  0.424900  1
  C  C1715  1  0.404600  0.297400  0.075100  1
  C  C1716  1  0.095400  0.202600  0.575100  1
  C  C1717  1  0.537300  0.703900  0.895560  1
  C  C1718  1  0.962700  0.796100  0.395560  1
  C  C1719  1  0.462700  0.296100  0.104440  1
  C  C1720  1  0.037300  0.203900  0.604440  1
  C  C1721  1  0.519100  0.665600  0.890070  1
  C  C1722  1  0.980900  0.834400  0.390070  1
  C  C1723  1  0.480900  0.334400  0.109930  1
  C  C1724  1  0.019100  0.165600  0.609930  1
  C  C1725  1  0.475500  0.653400  0.885430  1
  C  C1726  1  0.024500  0.846600  0.385430  1
  C  C1727  1  0.524500  0.346600  0.114570  1
  C  C1728  1  0.975500  0.153400  0.614570  1
  C  C1729  1  0.450200  0.679400  0.886270  1
  C  C1730  1  0.049800  0.820600  0.386270  1
  C  C1731  1  0.549800  0.320600  0.113730  1
  C  C1732  1  0.950200  0.179400  0.613730  1
  C  C1733  1  0.468400  0.717600  0.891760  1
  C  C1734  1  0.031600  0.782400  0.391760  1
  C  C1735  1  0.531600  0.282400  0.108240  1
  C  C1736  1  0.968400  0.217600  0.608240  1
  C  C1737  1  0.512000  0.729800  0.896400  1
  C  C1738  1  0.988000  0.770200  0.396400  1
  C  C1739  1  0.488000  0.270200  0.103600  1
  C  C1740  1  0.012000  0.229800  0.603600  1
  C  C1741  1  0.456900  0.610800  0.880900  1
  C  C1742  1  0.043100  0.889200  0.380900  1
  C  C1743  1  0.543100  0.389200  0.119100  1
  C  C1744  1  0.956900  0.110800  0.619100  1
  C  C1745  1  0.402200  0.666000  0.880700  1
  C  C1746  1  0.097800  0.834000  0.380700  1
  C  C1747  1  0.597800  0.334000  0.119300  1
  C  C1748  1  0.902200  0.166000  0.619300  1
  C  C1749  1  0.375700  0.639900  0.898300  1
  C  C1750  1  0.124300  0.860100  0.398300  1
  C  C1751  1  0.624300  0.360100  0.101700  1
  C  C1752  1  0.875700  0.139900  0.601700  1
  C  C1753  1  0.332100  0.629800  0.893600  1
  C  C1754  1  0.167900  0.870200  0.393600  1
  C  C1755  1  0.667900  0.370200  0.106400  1
  C  C1756  1  0.832100  0.129800  0.606400  1
  C  C1757  1  0.314900  0.645800  0.871200  1
  C  C1758  1  0.185100  0.854200  0.371200  1
  C  C1759  1  0.685100  0.354200  0.128800  1
  C  C1760  1  0.814900  0.145800  0.628800  1
  C  C1761  1  0.341300  0.672000  0.853640  1
  C  C1762  1  0.158700  0.828000  0.353640  1
  C  C1763  1  0.658700  0.328000  0.146360  1
  C  C1764  1  0.841300  0.172000  0.646360  1
  C  C1765  1  0.384900  0.682000  0.858400  1
  C  C1766  1  0.115100  0.818000  0.358400  1
  C  C1767  1  0.615100  0.318000  0.141600  1
  C  C1768  1  0.884900  0.182000  0.641600  1
  C  C1769  1  0.267700  0.634500  0.867200  1
  C  C1770  1  0.232300  0.865500  0.367200  1
  C  C1771  1  0.732300  0.365500  0.132800  1
  C  C1772  1  0.767700  0.134500  0.632800  1
  C  C1773  1  0.250100  0.617400  0.842400  1
  C  C1774  1  0.249900  0.882600  0.342400  1
  C  C1775  1  0.749900  0.382600  0.157600  1
  C  C1776  1  0.750100  0.117400  0.657600  1
  C  C1777  1  0.206200  0.607600  0.838750  1
  C  C1778  1  0.293800  0.892400  0.338750  1
  C  C1779  1  0.793800  0.392400  0.161250  1
  C  C1780  1  0.706200  0.107600  0.661250  1
  C  C1781  1  0.179900  0.614900  0.860000  1
  C  C1782  1  0.320100  0.885100  0.360000  1
  C  C1783  1  0.820100  0.385100  0.140000  1
  C  C1784  1  0.679900  0.114900  0.640000  1
  C  C1785  1  0.197400  0.632100  0.884900  1
  C  C1786  1  0.302600  0.867900  0.384900  1
  C  C1787  1  0.802600  0.367900  0.115100  1
  C  C1788  1  0.697400  0.132100  0.615100  1
  C  C1789  1  0.241300  0.641800  0.888500  1
  C  C1790  1  0.258700  0.858200  0.388500  1
  C  C1791  1  0.758700  0.358200  0.111500  1
  C  C1792  1  0.741300  0.141800  0.611500  1
  C  C1793  1  0.277300  0.603900  0.813500  1
  C  C1794  1  0.222700  0.896100  0.313500  1
  C  C1795  1  0.722700  0.396100  0.186500  1
  C  C1796  1  0.777300  0.103900  0.686500  1
  C  C1797  1  0.117400  0.619900  0.840900  1
  C  C1798  1  0.382600  0.880100  0.340900  1
  C  C1799  1  0.882600  0.380100  0.159100  1
  C  C1800  1  0.617400  0.119900  0.659100  1
  C  C1801  1  0.071000  0.608700  0.834500  1
  C  C1802  1  0.429000  0.891300  0.334500  1
  C  C1803  1  0.929000  0.391300  0.165500  1
  C  C1804  1  0.571000  0.108700  0.665500  1
  C  C1805  1  0.008800  0.565900  0.854000  1
  C  C1806  1  0.491200  0.934100  0.354000  1
  C  C1807  1  0.991200  0.434100  0.146000  1
  C  C1808  1  0.508800  0.065900  0.646000  1
  C  C1809  1  0.983000  0.581200  0.836300  1
  C  C1810  1  0.517000  0.918800  0.336300  1
  C  C1811  1  0.017000  0.418800  0.163700  1
  C  C1812  1  0.483000  0.081200  0.663700  1
  C  C1813  1  0.001300  0.610200  0.817700  1
  C  C1814  1  0.498700  0.889800  0.317700  1
  C  C1815  1  0.998700  0.389800  0.182300  1
  C  C1816  1  0.501300  0.110200  0.682300  1
  C  C1817  1  0.045200  0.624000  0.816800  1
  C  C1818  1  0.454800  0.876000  0.316800  1
  C  C1819  1  0.954800  0.376000  0.183200  1
  C  C1820  1  0.545200  0.124000  0.683200  1
  C  C1821  1  0.688300  0.745500  0.832300  1
  C  C1822  1  0.811700  0.754500  0.332300  1
  C  C1823  1  0.311700  0.254500  0.167700  1
  C  C1824  1  0.188300  0.245500  0.667700  1
  C  C1825  1  0.691900  0.810200  0.845990  1
  C  C1826  1  0.808100  0.689800  0.345990  1
  C  C1827  1  0.308100  0.189800  0.154010  1
  C  C1828  1  0.191900  0.310200  0.654010  1
  C  C1829  1  0.725100  0.823000  0.827100  1
  C  C1830  1  0.774900  0.677000  0.327100  1
  C  C1831  1  0.274900  0.177000  0.172900  1
  C  C1832  1  0.225100  0.323000  0.672900  1
  C  C1833  1  0.739900  0.797000  0.810830  1
  C  C1834  1  0.760100  0.703000  0.310830  1
  C  C1835  1  0.260100  0.203000  0.189170  1
  C  C1836  1  0.239900  0.297000  0.689170  1
  C  C1837  1  0.721500  0.758300  0.813400  1
  C  C1838  1  0.778500  0.741700  0.313400  1
  C  C1839  1  0.278500  0.241700  0.186600  1
  C  C1840  1  0.221500  0.258300  0.686600  1
  C  C1841  1  0.666300  0.709200  0.837700  1
  C  C1842  1  0.833700  0.790800  0.337700  1
  C  C1843  1  0.333700  0.290800  0.162300  1
  C  C1844  1  0.166300  0.209200  0.662300  1
  C  C1845  1  0.614500  0.661890  0.858600  1
  C  C1846  1  0.885500  0.838110  0.358600  1
  C  C1847  1  0.385500  0.338110  0.141400  1
  C  C1848  1  0.114500  0.161890  0.641400  1
  C  C1849  1  0.588400  0.644200  0.836790  1
  C  C1850  1  0.911600  0.855800  0.336790  1
  C  C1851  1  0.411600  0.355800  0.163210  1
  C  C1852  1  0.088400  0.144200  0.663210  1
  C  C1853  1  0.565900  0.606400  0.839480  1
  C  C1854  1  0.934100  0.893600  0.339480  1
  C  C1855  1  0.434100  0.393600  0.160520  1
  C  C1856  1  0.065900  0.106400  0.660520  1
  C  C1857  1  0.569400  0.586400  0.864000  1
  C  C1858  1  0.930600  0.913600  0.364000  1
  C  C1859  1  0.430600  0.413600  0.136000  1
  C  C1860  1  0.069400  0.086400  0.636000  1
  C  C1861  1  0.595400  0.604100  0.885760  1
  C  C1862  1  0.904600  0.895900  0.385760  1
  C  C1863  1  0.404600  0.395900  0.114240  1
  C  C1864  1  0.095400  0.104100  0.614240  1
  C  C1865  1  0.618000  0.641800  0.883070  1
  C  C1866  1  0.882000  0.858200  0.383070  1
  C  C1867  1  0.382000  0.358200  0.116930  1
  C  C1868  1  0.118000  0.141800  0.616930  1
  C  C1869  1  0.536500  0.591700  0.813500  1
  C  C1870  1  0.963500  0.908300  0.313500  1
  C  C1871  1  0.463500  0.408300  0.186500  1
  C  C1872  1  0.036500  0.091700  0.686500  1
  C  C1873  1  0.552500  0.544300  0.866400  1
  C  C1874  1  0.947500  0.955700  0.366400  1
  C  C1875  1  0.447500  0.455700  0.133600  1
  C  C1876  1  0.052500  0.044300  0.633600  1
  C  C1877  1  0.527200  0.532000  0.889890  1
  C  C1878  1  0.972800  0.968000  0.389890  1
  C  C1879  1  0.472800  0.468000  0.110110  1
  C  C1880  1  0.027200  0.032000  0.610110  1
  C  C1881  1  0.507200  0.493600  0.892990  1
  C  C1882  1  0.992800  0.006400  0.392990  1
  C  C1883  1  0.492800  0.506400  0.107010  1
  C  C1884  1  0.007200  0.993600  0.607010  1
  C  C1885  1  0.512400  0.467500  0.872600  1
  C  C1886  1  0.987600  0.032500  0.372600  1
  C  C1887  1  0.487600  0.532500  0.127400  1
  C  C1888  1  0.012400  0.967500  0.627400  1
  C  C1889  1  0.537700  0.479800  0.849190  1
  C  C1890  1  0.962300  0.020200  0.349190  1
  C  C1891  1  0.462300  0.520200  0.150810  1
  C  C1892  1  0.037700  0.979800  0.650810  1
  C  C1893  1  0.557700  0.518200  0.846090  1
  C  C1894  1  0.942300  0.981800  0.346090  1
  C  C1895  1  0.442300  0.481800  0.153910  1
  C  C1896  1  0.057700  0.018200  0.653910  1
  C  C1897  1  0.490100  0.425200  0.875860  1
  C  C1898  1  0.009900  0.074800  0.375860  1
  C  C1899  1  0.509900  0.574800  0.124140  1
  C  C1900  1  0.990100  0.925200  0.624140  1
  C  C1901  1  0.446100  0.412300  0.877170  1
  C  C1902  1  0.053900  0.087700  0.377170  1
  C  C1903  1  0.553900  0.587700  0.122830  1
  C  C1904  1  0.946100  0.912300  0.622830  1
  C  C1905  1  0.427400  0.373500  0.879100  1
  C  C1906  1  0.072600  0.126500  0.379100  1
  C  C1907  1  0.572600  0.626500  0.120900  1
  C  C1908  1  0.927400  0.873500  0.620900  1
  C  C1909  1  0.452900  0.347600  0.879720  1
  C  C1910  1  0.047100  0.152400  0.379720  1
  C  C1911  1  0.547100  0.652400  0.120280  1
  C  C1912  1  0.952900  0.847600  0.620280  1
  C  C1913  1  0.496900  0.360500  0.878410  1
  C  C1914  1  0.003100  0.139500  0.378410  1
  C  C1915  1  0.503100  0.639500  0.121590  1
  C  C1916  1  0.996900  0.860500  0.621590  1
  C  C1917  1  0.515500  0.399300  0.876480  1
  C  C1918  1  0.984500  0.100700  0.376480  1
  C  C1919  1  0.484500  0.600700  0.123520  1
  C  C1920  1  0.015500  0.899300  0.623520  1
  C  C1921  1  0.417800  0.437100  0.875100  1
  C  C1922  1  0.082200  0.062900  0.375100  1
  C  C1923  1  0.582200  0.562900  0.124900  1
  C  C1924  1  0.917800  0.937100  0.624900  1
  C  C1925  1  0.421700  0.297600  0.910400  1
  C  C1926  1  0.078300  0.202400  0.410400  1
  C  C1927  1  0.578300  0.702400  0.089600  1
  C  C1928  1  0.921700  0.797600  0.589600  1
  C  C1929  1  0.405300  0.258800  0.912800  1
  C  C1930  1  0.094700  0.241200  0.412800  1
  C  C1931  1  0.594700  0.741200  0.087200  1
  C  C1932  1  0.905300  0.758800  0.587200  1
  C  C1933  1  0.392300  0.198400  0.888900  1
  C  C1934  1  0.107700  0.301600  0.388900  1
  C  C1935  1  0.607700  0.801600  0.111100  1
  C  C1936  1  0.892300  0.698400  0.611100  1
  C  C1937  1  0.376300  0.179900  0.913700  1
  C  C1938  1  0.123700  0.320100  0.413700  1
  C  C1939  1  0.623700  0.820100  0.086300  1
  C  C1940  1  0.876300  0.679900  0.586300  1
  C  C1941  1  0.374700  0.200900  0.938000  1
  C  C1942  1  0.125300  0.299100  0.438000  1
  C  C1943  1  0.625300  0.799100  0.062000  1
  C  C1944  1  0.874700  0.700900  0.562000  1
  C  C1945  1  0.389200  0.240300  0.937540  1
  C  C1946  1  0.110800  0.259700  0.437540  1
  C  C1947  1  0.610800  0.759700  0.062460  1
  C  C1948  1  0.889200  0.740300  0.562460  1
  C  C1949  1  0.387300  0.625500  0.571500  1
  C  C1950  1  0.112700  0.874500  0.071500  1
  C  C1951  1  0.612700  0.374500  0.428500  1
  C  C1952  1  0.887300  0.125500  0.928500  1
  C  C1953  1  0.428500  0.603600  0.535800  1
  C  C1954  1  0.071500  0.896400  0.035800  1
  C  C1955  1  0.571500  0.396400  0.464200  1
  C  C1956  1  0.928500  0.103600  0.964200  1
  C  C1957  1  0.446400  0.641100  0.528000  1
  C  C1958  1  0.053600  0.858900  0.028000  1
  C  C1959  1  0.553600  0.358900  0.472000  1
  C  C1960  1  0.946400  0.141100  0.972000  1
  C  C1961  1  0.434800  0.670800  0.542000  1
  C  C1962  1  0.065200  0.829200  0.042000  1
  C  C1963  1  0.565200  0.329200  0.458000  1
  C  C1964  1  0.934800  0.170800  0.958000  1
  C  C1965  1  0.405200  0.663000  0.563700  1
  C  C1966  1  0.094800  0.837000  0.063700  1
  C  C1967  1  0.594800  0.337000  0.436300  1
  C  C1968  1  0.905200  0.163000  0.936300  1
  C  C1969  1  0.364400  0.620500  0.596900  1
  C  C1970  1  0.135600  0.879500  0.096900  1
  C  C1971  1  0.635600  0.379500  0.403100  1
  C  C1972  1  0.864400  0.120500  0.903100  1
  C  C1973  1  0.326600  0.573800  0.627270  1
  C  C1974  1  0.173400  0.926200  0.127270  1
  C  C1975  1  0.673400  0.426200  0.372730  1
  C  C1976  1  0.826600  0.073800  0.872730  1
  C  C1977  1  0.343800  0.583800  0.653800  1
  C  C1978  1  0.156200  0.916200  0.153800  1
  C  C1979  1  0.656200  0.416200  0.346200  1
  C  C1980  1  0.843800  0.083800  0.846200  1
  C  C1981  1  0.317900  0.576900  0.677480  1
  C  C1982  1  0.182100  0.923100  0.177480  1
  C  C1983  1  0.682100  0.423100  0.322520  1
  C  C1984  1  0.817900  0.076900  0.822520  1
  C  C1985  1  0.274700  0.559900  0.674610  1
  C  C1986  1  0.225300  0.940100  0.174610  1
  C  C1987  1  0.725300  0.440100  0.325390  1
  C  C1988  1  0.774700  0.059900  0.825390  1
  C  C1989  1  0.257500  0.549900  0.648100  1
  C  C1990  1  0.242500  0.950100  0.148100  1
  C  C1991  1  0.742500  0.450100  0.351900  1
  C  C1992  1  0.757500  0.049900  0.851900  1
  C  C1993  1  0.283500  0.556800  0.624410  1
  C  C1994  1  0.216500  0.943200  0.124410  1
  C  C1995  1  0.716500  0.443200  0.375590  1
  C  C1996  1  0.783500  0.056800  0.875590  1
  C  C1997  1  0.344000  0.584000  0.704900  1
  C  C1998  1  0.156000  0.916000  0.204900  1
  C  C1999  1  0.656000  0.416000  0.295100  1
  C  C2000  1  0.844000  0.084000  0.795100  1
  C  C2001  1  0.247800  0.550500  0.701940  1
  C  C2002  1  0.252200  0.949500  0.201940  1
  C  C2003  1  0.752200  0.449500  0.298060  1
  C  C2004  1  0.747800  0.050500  0.798060  1
  C  C2005  1  0.245300  0.580400  0.719700  1
  C  C2006  1  0.254700  0.919600  0.219700  1
  C  C2007  1  0.754700  0.419600  0.280300  1
  C  C2008  1  0.745300  0.080400  0.780300  1
  C  C2009  1  0.220300  0.573400  0.743800  1
  C  C2010  1  0.279700  0.926600  0.243800  1
  C  C2011  1  0.779700  0.426600  0.256200  1
  C  C2012  1  0.720300  0.073400  0.756200  1
  C  C2013  1  0.197800  0.536500  0.750170  1
  C  C2014  1  0.302200  0.963500  0.250170  1
  C  C2015  1  0.802200  0.463500  0.249830  1
  C  C2016  1  0.697800  0.036500  0.749830  1
  C  C2017  1  0.200400  0.506600  0.732400  1
  C  C2018  1  0.299600  0.993400  0.232400  1
  C  C2019  1  0.799600  0.493400  0.267600  1
  C  C2020  1  0.700400  0.006600  0.767600  1
  C  C2021  1  0.225300  0.513600  0.708300  1
  C  C2022  1  0.274700  0.986400  0.208300  1
  C  C2023  1  0.774700  0.486400  0.291700  1
  C  C2024  1  0.725300  0.013600  0.791700  1
  C  C2025  1  0.169100  0.530300  0.776130  1
  C  C2026  1  0.330900  0.969700  0.276130  1
  C  C2027  1  0.830900  0.469700  0.223870  1
  C  C2028  1  0.669100  0.030300  0.723870  1
  C  C2029  1  0.179400  0.510700  0.799200  1
  C  C2030  1  0.320600  0.989300  0.299200  1
  C  C2031  1  0.820600  0.489300  0.200800  1
  C  C2032  1  0.679400  0.010700  0.700800  1
  C  C2033  1  0.155100  0.507700  0.823700  1
  C  C2034  1  0.344900  0.992300  0.323700  1
  C  C2035  1  0.844900  0.492300  0.176300  1
  C  C2036  1  0.655100  0.007700  0.676300  1
  C  C2037  1  0.120700  0.524200  0.824990  1
  C  C2038  1  0.379300  0.975800  0.324990  1
  C  C2039  1  0.879300  0.475800  0.175010  1
  C  C2040  1  0.620700  0.024200  0.675010  1
  C  C2041  1  0.110500  0.543900  0.801900  1
  C  C2042  1  0.389500  0.956100  0.301900  1
  C  C2043  1  0.889500  0.456100  0.198100  1
  C  C2044  1  0.610500  0.043900  0.698100  1
  C  C2045  1  0.134700  0.546900  0.777500  1
  C  C2046  1  0.365300  0.953100  0.277500  1
  C  C2047  1  0.865300  0.453100  0.222500  1
  C  C2048  1  0.634700  0.046900  0.722500  1
  C  C2049  1  0.211900  0.488900  0.801900  1
  C  C2050  1  0.288100  0.011100  0.301900  1
  C  C2051  1  0.788100  0.511100  0.198100  1
  C  C2052  1  0.711900  0.988900  0.698100  1
  C  C2053  1  0.071500  0.489000  0.854000  1
  C  C2054  1  0.428500  0.011000  0.354000  1
  C  C2055  1  0.928500  0.511000  0.146000  1
  C  C2056  1  0.571500  0.989000  0.646000  1
  C  C2057  1  0.041200  0.486600  0.877900  1
  C  C2058  1  0.458800  0.013400  0.377900  1
  C  C2059  1  0.958800  0.513400  0.122100  1
  C  C2060  1  0.541200  0.986600  0.622100  1
  C  C2061  1  0.026400  0.521700  0.918100  1
  C  C2062  1  0.473600  0.978300  0.418100  1
  C  C2063  1  0.973600  0.478300  0.081900  1
  C  C2064  1  0.526400  0.021700  0.581900  1
  C  C2065  1  0.991400  0.492200  0.924600  1
  C  C2066  1  0.508600  0.007800  0.424600  1
  C  C2067  1  0.008600  0.507800  0.075400  1
  C  C2068  1  0.491400  0.992200  0.575400  1
  C  C2069  1  0.981300  0.459900  0.907700  1
  C  C2070  1  0.518700  0.040100  0.407700  1
  C  C2071  1  0.018700  0.540100  0.092300  1
  C  C2072  1  0.481300  0.959900  0.592300  1
  C  C2073  1  0.006200  0.457100  0.884300  1
  C  C2074  1  0.493800  0.042900  0.384300  1
  C  C2075  1  0.993800  0.542900  0.115700  1
  C  C2076  1  0.506200  0.957100  0.615700  1
  C  C2077  1  0.292000  0.505400  0.563200  1
  C  C2078  1  0.208000  0.994600  0.063200  1
  C  C2079  1  0.708000  0.494600  0.436800  1
  C  C2080  1  0.792000  0.005400  0.936800  1
  C  C2081  1  0.313400  0.561100  0.534100  1
  C  C2082  1  0.186600  0.938900  0.034100  1
  C  C2083  1  0.686600  0.438900  0.465900  1
  C  C2084  1  0.813400  0.061100  0.965900  1
  C  C2085  1  0.273500  0.552600  0.521400  1
  C  C2086  1  0.226500  0.947400  0.021400  1
  C  C2087  1  0.726500  0.447400  0.478600  1
  C  C2088  1  0.773500  0.052600  0.978600  1
  C  C2089  1  0.242800  0.520500  0.529700  1
  C  C2090  1  0.257200  0.979500  0.029700  1
  C  C2091  1  0.757200  0.479500  0.470300  1
  C  C2092  1  0.742800  0.020500  0.970300  1
  C  C2093  1  0.252000  0.496900  0.550600  1
  C  C2094  1  0.248000  0.003100  0.050600  1
  C  C2095  1  0.748000  0.503100  0.449400  1
  C  C2096  1  0.752000  0.996900  0.949400  1
  C  C2097  1  0.302000  0.483500  0.584200  1
  C  C2098  1  0.198000  0.016500  0.084200  1
  C  C2099  1  0.698000  0.516500  0.415800  1
  C  C2100  1  0.802000  0.983500  0.915800  1
  C  C2101  1  0.351500  0.480500  0.618790  1
  C  C2102  1  0.148500  0.019500  0.118790  1
  C  C2103  1  0.648500  0.519500  0.381210  1
  C  C2104  1  0.851500  0.980500  0.881210  1
  C  C2105  1  0.332000  0.483400  0.644500  1
  C  C2106  1  0.168000  0.016600  0.144500  1
  C  C2107  1  0.668000  0.516600  0.355500  1
  C  C2108  1  0.832000  0.983400  0.855500  1
  C  C2109  1  0.342500  0.464700  0.668000  1
  C  C2110  1  0.157500  0.035300  0.168000  1
  C  C2111  1  0.657500  0.535300  0.332000  1
  C  C2112  1  0.842500  0.964700  0.832000  1
  C  C2113  1  0.372500  0.443200  0.665850  1
  C  C2114  1  0.127500  0.056800  0.165850  1
  C  C2115  1  0.627500  0.556800  0.334150  1
  C  C2116  1  0.872500  0.943200  0.834150  1
  C  C2117  1  0.392000  0.440300  0.640200  1
  C  C2118  1  0.108000  0.059700  0.140200  1
  C  C2119  1  0.608000  0.559700  0.359800  1
  C  C2120  1  0.892000  0.940300  0.859800  1
  C  C2121  1  0.381500  0.459000  0.616640  1
  C  C2122  1  0.118500  0.041000  0.116640  1
  C  C2123  1  0.618500  0.541000  0.383360  1
  C  C2124  1  0.881500  0.959000  0.883360  1
  C  C2125  1  0.318500  0.466500  0.698200  1
  C  C2126  1  0.181500  0.033500  0.198200  1
  C  C2127  1  0.681500  0.533500  0.301800  1
  C  C2128  1  0.818500  0.966500  0.801800  1
  C  C2129  1  0.384000  0.421700  0.692130  1
  C  C2130  1  0.116000  0.078300  0.192130  1
  C  C2131  1  0.616000  0.578300  0.307870  1
  C  C2132  1  0.884000  0.921700  0.807870  1
  C  C2133  1  0.353900  0.393000  0.705400  1
  C  C2134  1  0.146100  0.107000  0.205400  1
  C  C2135  1  0.646100  0.607000  0.294600  1
  C  C2136  1  0.853900  0.893000  0.794600  1
  C  C2137  1  0.365500  0.373900  0.728280  1
  C  C2138  1  0.134500  0.126100  0.228280  1
  C  C2139  1  0.634500  0.626100  0.271720  1
  C  C2140  1  0.865500  0.873900  0.771720  1
  C  C2141  1  0.407300  0.383500  0.737950  1
  C  C2142  1  0.092700  0.116500  0.237950  1
  C  C2143  1  0.592700  0.616500  0.262050  1
  C  C2144  1  0.907300  0.883500  0.762050  1
  C  C2145  1  0.437400  0.412200  0.724700  1
  C  C2146  1  0.062600  0.087800  0.224700  1
  C  C2147  1  0.562600  0.587800  0.275300  1
  C  C2148  1  0.937400  0.912200  0.775300  1
  C  C2149  1  0.425700  0.431300  0.701800  1
  C  C2150  1  0.074300  0.068700  0.201800  1
  C  C2151  1  0.574300  0.568700  0.298200  1
  C  C2152  1  0.925700  0.931300  0.798200  1
  C  C2153  1  0.420900  0.363200  0.762200  1
  C  C2154  1  0.079100  0.136800  0.262200  1
  C  C2155  1  0.579100  0.636800  0.237800  1
  C  C2156  1  0.920900  0.863200  0.737800  1
  C  C2157  1  0.443900  0.381300  0.785100  1
  C  C2158  1  0.056100  0.118700  0.285100  1
  C  C2159  1  0.556100  0.618700  0.214900  1
  C  C2160  1  0.943900  0.881300  0.714900  1
  C  C2161  1  0.456700  0.359800  0.806150  1
  C  C2162  1  0.043300  0.140200  0.306150  1
  C  C2163  1  0.543300  0.640200  0.193850  1
  C  C2164  1  0.956700  0.859800  0.693850  1
  C  C2165  1  0.446600  0.320300  0.804210  1
  C  C2166  1  0.053400  0.179700  0.304210  1
  C  C2167  1  0.553400  0.679700  0.195790  1
  C  C2168  1  0.946600  0.820300  0.695790  1
  C  C2169  1  0.423600  0.302300  0.781300  1
  C  C2170  1  0.076400  0.197700  0.281300  1
  C  C2171  1  0.576400  0.697700  0.218700  1
  C  C2172  1  0.923600  0.802300  0.718700  1
  C  C2173  1  0.410700  0.323800  0.760260  1
  C  C2174  1  0.089300  0.176200  0.260260  1
  C  C2175  1  0.589300  0.676200  0.239740  1
  C  C2176  1  0.910700  0.823800  0.739740  1
  C  C2177  1  0.456300  0.428800  0.788900  1
  C  C2178  1  0.043700  0.071200  0.288900  1
  C  C2179  1  0.543700  0.571200  0.211100  1
  C  C2180  1  0.956300  0.928800  0.711100  1
  C  C2181  1  0.504200  0.299900  0.824400  1
  C  C2182  1  0.995800  0.200100  0.324400  1
  C  C2183  1  0.495800  0.700100  0.175600  1
  C  C2184  1  0.004200  0.799900  0.675600  1
  C  C2185  1  0.518800  0.278600  0.844400  1
  C  C2186  1  0.981200  0.221400  0.344400  1
  C  C2187  1  0.481200  0.721400  0.155600  1
  C  C2188  1  0.018800  0.778600  0.655600  1
  C  C2189  1  0.500700  0.242200  0.887100  1
  C  C2190  1  0.999300  0.257800  0.387100  1
  C  C2191  1  0.499300  0.757800  0.112900  1
  C  C2192  1  0.000700  0.742200  0.612900  1
  C  C2193  1  0.542300  0.238400  0.889100  1
  C  C2194  1  0.957700  0.261600  0.389100  1
  C  C2195  1  0.457700  0.761600  0.110900  1
  C  C2196  1  0.042300  0.738400  0.610900  1
  C  C2197  1  0.572100  0.254700  0.868800  1
  C  C2198  1  0.927900  0.245300  0.368800  1
  C  C2199  1  0.427900  0.745300  0.131200  1
  C  C2200  1  0.072100  0.754700  0.631200  1
  C  C2201  1  0.560400  0.274800  0.846500  1
  C  C2202  1  0.939600  0.225200  0.346500  1
  C  C2203  1  0.439600  0.725200  0.153500  1
  C  C2204  1  0.060400  0.774800  0.653500  1
  C  C2205  1  0.116300  0.590800  0.931000  1
  C  C2206  1  0.383700  0.909200  0.431000  1
  C  C2207  1  0.883700  0.409200  0.069000  1
  C  C2208  1  0.616300  0.090800  0.569000  1
  C  C2209  1  0.073500  0.625100  0.905200  1
  C  C2210  1  0.426500  0.874900  0.405200  1
  C  C2211  1  0.926500  0.374900  0.094800  1
  C  C2212  1  0.573500  0.125100  0.594800  1
  C  C2213  1  0.075000  0.649700  0.928000  1
  C  C2214  1  0.425000  0.850300  0.428000  1
  C  C2215  1  0.925000  0.350300  0.072000  1
  C  C2216  1  0.575000  0.149700  0.572000  1
  C  C2217  1  0.097100  0.644800  0.952200  1
  C  C2218  1  0.402900  0.855200  0.452200  1
  C  C2219  1  0.902900  0.355200  0.047800  1
  C  C2220  1  0.597100  0.144800  0.547800  1
  C  C2221  1  0.117800  0.615300  0.953700  1
  C  C2222  1  0.382200  0.884700  0.453700  1
  C  C2223  1  0.882200  0.384700  0.046300  1
  C  C2224  1  0.617800  0.115300  0.546300  1
  C  C2225  1  0.145200  0.565100  0.926800  1
  C  C2226  1  0.354800  0.934900  0.426800  1
  C  C2227  1  0.854800  0.434900  0.073200  1
  C  C2228  1  0.645200  0.065100  0.573200  1
  C  C2229  1  0.162200  0.519700  0.897400  1
  C  C2230  1  0.337800  0.980300  0.397400  1
  C  C2231  1  0.837800  0.480300  0.102600  1
  C  C2232  1  0.662200  0.019700  0.602600  1
  C  C2233  1  0.205400  0.532400  0.891500  1
  C  C2234  1  0.294600  0.967600  0.391500  1
  C  C2235  1  0.794600  0.467600  0.108500  1
  C  C2236  1  0.705400  0.032400  0.608500  1
  C  C2237  1  0.229600  0.506400  0.886000  1
  C  C2238  1  0.270400  0.993600  0.386000  1
  C  C2239  1  0.770400  0.493600  0.114000  1
  C  C2240  1  0.729600  0.006400  0.614000  1
  C  C2241  1  0.210600  0.467600  0.886500  1
  C  C2242  1  0.289400  0.032400  0.386500  1
  C  C2243  1  0.789400  0.532400  0.113500  1
  C  C2244  1  0.710600  0.967600  0.613500  1
  C  C2245  1  0.167500  0.454800  0.892400  1
  C  C2246  1  0.332500  0.045200  0.392400  1
  C  C2247  1  0.832500  0.545200  0.107600  1
  C  C2248  1  0.667500  0.954800  0.607600  1
  C  C2249  1  0.143200  0.480800  0.897800  1
  C  C2250  1  0.356800  0.019200  0.397800  1
  C  C2251  1  0.856800  0.519200  0.102200  1
  C  C2252  1  0.643200  0.980800  0.602200  1
  C  C2253  1  0.279900  0.525500  0.882100  1
  C  C2254  1  0.220100  0.974500  0.382100  1
  C  C2255  1  0.720100  0.474500  0.117900  1
  C  C2256  1  0.779900  0.025500  0.617900  1
  C  C2257  1  0.237100  0.438600  0.879500  1
  C  C2258  1  0.262900  0.061400  0.379500  1
  C  C2259  1  0.762900  0.561400  0.120500  1
  C  C2260  1  0.737100  0.938600  0.620500  1
  C  C2261  1  0.227300  0.415400  0.855800  1
  C  C2262  1  0.272700  0.084600  0.355800  1
  C  C2263  1  0.772700  0.584600  0.144200  1
  C  C2264  1  0.727300  0.915400  0.644200  1
  C  C2265  1  0.250900  0.389100  0.849680  1
  C  C2266  1  0.249100  0.110900  0.349680  1
  C  C2267  1  0.749100  0.610900  0.150320  1
  C  C2268  1  0.750900  0.889100  0.650320  1
  C  C2269  1  0.284300  0.385900  0.867100  1
  C  C2270  1  0.215700  0.114100  0.367100  1
  C  C2271  1  0.715700  0.614100  0.132900  1
  C  C2272  1  0.784300  0.885900  0.632900  1
  C  C2273  1  0.294100  0.409100  0.890800  1
  C  C2274  1  0.205900  0.090900  0.390800  1
  C  C2275  1  0.705900  0.590900  0.109200  1
  C  C2276  1  0.794100  0.909100  0.609200  1
  C  C2277  1  0.270500  0.435400  0.896920  1
  C  C2278  1  0.229500  0.064600  0.396920  1
  C  C2279  1  0.729500  0.564600  0.103080  1
  C  C2280  1  0.770500  0.935400  0.603080  1
  C  C2281  1  0.310000  0.356400  0.859800  1
  C  C2282  1  0.190000  0.143600  0.359800  1
  C  C2283  1  0.690000  0.643600  0.140200  1
  C  C2284  1  0.810000  0.856400  0.640200  1
  C  C2285  1  0.329300  0.355000  0.833900  1
  C  C2286  1  0.170700  0.145000  0.333900  1
  C  C2287  1  0.670700  0.645000  0.166100  1
  C  C2288  1  0.829300  0.855000  0.666100  1
  C  C2289  1  0.350000  0.326300  0.828250  1
  C  C2290  1  0.150000  0.173700  0.328250  1
  C  C2291  1  0.650000  0.673700  0.171750  1
  C  C2292  1  0.850000  0.826300  0.671750  1
  C  C2293  1  0.351200  0.299000  0.848600  1
  C  C2294  1  0.148800  0.201000  0.348600  1
  C  C2295  1  0.648800  0.701000  0.151400  1
  C  C2296  1  0.851200  0.799000  0.651400  1
  C  C2297  1  0.331900  0.300400  0.874600  1
  C  C2298  1  0.168100  0.199600  0.374600  1
  C  C2299  1  0.668100  0.699600  0.125400  1
  C  C2300  1  0.831900  0.800400  0.625400  1
  C  C2301  1  0.311300  0.329100  0.880190  1
  C  C2302  1  0.188700  0.170900  0.380190  1
  C  C2303  1  0.688700  0.670900  0.119810  1
  C  C2304  1  0.811300  0.829100  0.619810  1
  C  C2305  1  0.330900  0.386600  0.812300  1
  C  C2306  1  0.169100  0.113400  0.312300  1
  C  C2307  1  0.669100  0.613400  0.187700  1
  C  C2308  1  0.830900  0.886600  0.687700  1
  C  C2309  1  0.358100  0.248200  0.822500  1
  C  C2310  1  0.141900  0.251800  0.322500  1
  C  C2311  1  0.641900  0.751800  0.177500  1
  C  C2312  1  0.858100  0.748200  0.677500  1
  C  C2313  1  0.378300  0.220800  0.815800  1
  C  C2314  1  0.121700  0.279200  0.315800  1
  C  C2315  1  0.621700  0.779200  0.184200  1
  C  C2316  1  0.878300  0.720800  0.684200  1
  C  C2317  1  0.440700  0.197400  0.824100  1
  C  C2318  1  0.059300  0.302600  0.324100  1
  C  C2319  1  0.559300  0.802600  0.175900  1
  C  C2320  1  0.940700  0.697400  0.675900  1
  C  C2321  1  0.427700  0.170000  0.803400  1
  C  C2322  1  0.072300  0.330000  0.303400  1
  C  C2323  1  0.572300  0.830000  0.196600  1
  C  C2324  1  0.927700  0.670000  0.696600  1
  C  C2325  1  0.390000  0.168000  0.788810  1
  C  C2326  1  0.110000  0.332000  0.288810  1
  C  C2327  1  0.610000  0.832000  0.211190  1
  C  C2328  1  0.890000  0.668000  0.711190  1
  C  C2329  1  0.365300  0.193400  0.795100  1
  C  C2330  1  0.134700  0.306600  0.295100  1
  C  C2331  1  0.634700  0.806600  0.204900  1
  C  C2332  1  0.865300  0.693400  0.704900  1
  C  C2333  1  0.776900  0.470000  0.962100  1
  C  C2334  1  0.723100  0.030000  0.462100  1
  C  C2335  1  0.223100  0.530000  0.037900  1
  C  C2336  1  0.276900  0.970000  0.537900  1
  C  C2337  1  0.817000  0.480100  0.974400  1
  C  C2338  1  0.683000  0.019900  0.474400  1
  C  C2339  1  0.183000  0.519900  0.025600  1
  C  C2340  1  0.317000  0.980100  0.525600  1
  C  C2341  1  0.846300  0.512900  0.965800  1
  C  C2342  1  0.653700  0.987100  0.465800  1
  C  C2343  1  0.153700  0.487100  0.034200  1
  C  C2344  1  0.346300  0.012900  0.534200  1
  C  C2345  1  0.835400  0.535600  0.944800  1
  C  C2346  1  0.664600  0.964400  0.444800  1
  C  C2347  1  0.164600  0.464400  0.055200  1
  C  C2348  1  0.335400  0.035600  0.555200  1
  C  C2349  1  0.795300  0.525500  0.932500  1
  C  C2350  1  0.704700  0.974500  0.432500  1
  C  C2351  1  0.204700  0.474500  0.067500  1
  C  C2352  1  0.295300  0.025500  0.567500  1
  C  C2353  1  0.781400  0.548000  0.910800  1
  C  C2354  1  0.718600  0.952000  0.410800  1
  C  C2355  1  0.218600  0.452000  0.089200  1
  C  C2356  1  0.281400  0.048000  0.589200  1
  C  C2357  1  0.730600  0.548000  0.876900  1
  C  C2358  1  0.769400  0.952000  0.376900  1
  C  C2359  1  0.269400  0.452000  0.123100  1
  C  C2360  1  0.230600  0.048000  0.623100  1
  C  C2361  1  0.751100  0.544600  0.851700  1
  C  C2362  1  0.748900  0.955400  0.351700  1
  C  C2363  1  0.248900  0.455400  0.148300  1
  C  C2364  1  0.251100  0.044600  0.648300  1
  C  C2365  1  0.739700  0.560800  0.827250  1
  C  C2366  1  0.760300  0.939200  0.327250  1
  C  C2367  1  0.260300  0.439200  0.172750  1
  C  C2368  1  0.239700  0.060800  0.672750  1
  C  C2369  1  0.707900  0.580600  0.828070  1
  C  C2370  1  0.792100  0.919400  0.328070  1
  C  C2371  1  0.292100  0.419400  0.171930  1
  C  C2372  1  0.207900  0.080600  0.671930  1
  C  C2373  1  0.687500  0.584100  0.853300  1
  C  C2374  1  0.812500  0.915900  0.353300  1
  C  C2375  1  0.312500  0.415900  0.146700  1
  C  C2376  1  0.187500  0.084100  0.646700  1
  C  C2377  1  0.698800  0.567800  0.877710  1
  C  C2378  1  0.801200  0.932200  0.377710  1
  C  C2379  1  0.301200  0.432200  0.122290  1
  C  C2380  1  0.198800  0.067800  0.622290  1
  C  C2381  1  0.763900  0.556700  0.798500  1
  C  C2382  1  0.736100  0.943300  0.298500  1
  C  C2383  1  0.236100  0.443300  0.201500  1
  C  C2384  1  0.263900  0.056700  0.701500  1
  C  C2385  1  0.694700  0.602100  0.803600  1
  C  C2386  1  0.805300  0.897900  0.303600  1
  C  C2387  1  0.305300  0.397900  0.196400  1
  C  C2388  1  0.194700  0.102100  0.696400  1
  C  C2389  1  0.653700  0.589400  0.793000  1
  C  C2390  1  0.846300  0.910600  0.293000  1
  C  C2391  1  0.346300  0.410600  0.207000  1
  C  C2392  1  0.153700  0.089400  0.707000  1
  C  C2393  1  0.641100  0.607000  0.769700  1
  C  C2394  1  0.858900  0.893000  0.269700  1
  C  C2395  1  0.358900  0.393000  0.230300  1
  C  C2396  1  0.141100  0.107000  0.730300  1
  C  C2397  1  0.669500  0.637400  0.756930  1
  C  C2398  1  0.830500  0.862600  0.256930  1
  C  C2399  1  0.330500  0.362600  0.243070  1
  C  C2400  1  0.169500  0.137400  0.743070  1
  C  C2401  1  0.710500  0.650200  0.767500  1
  C  C2402  1  0.789500  0.849800  0.267500  1
  C  C2403  1  0.289500  0.349800  0.232500  1
  C  C2404  1  0.210500  0.150200  0.732500  1
  C  C2405  1  0.723200  0.632500  0.790800  1
  C  C2406  1  0.776800  0.867500  0.290800  1
  C  C2407  1  0.276800  0.367500  0.209200  1
  C  C2408  1  0.223200  0.132500  0.709200  1
  C  C2409  1  0.653600  0.657700  0.733340  1
  C  C2410  1  0.846400  0.842300  0.233340  1
  C  C2411  1  0.346400  0.342300  0.266660  1
  C  C2412  1  0.153600  0.157700  0.766660  1
  C  C2413  1  0.634600  0.638600  0.709500  1
  C  C2414  1  0.865400  0.861400  0.209500  1
  C  C2415  1  0.365400  0.361400  0.290500  1
  C  C2416  1  0.134600  0.138600  0.790500  1
  C  C2417  1  0.619800  0.658500  0.688290  1
  C  C2418  1  0.880200  0.841500  0.188290  1
  C  C2419  1  0.380200  0.341500  0.311710  1
  C  C2420  1  0.119800  0.158500  0.811710  1
  C  C2421  1  0.623800  0.697400  0.690970  1
  C  C2422  1  0.876200  0.802600  0.190970  1
  C  C2423  1  0.376200  0.302600  0.309030  1
  C  C2424  1  0.123800  0.197400  0.809030  1
  C  C2425  1  0.642700  0.716500  0.714800  1
  C  C2426  1  0.857300  0.783500  0.214800  1
  C  C2427  1  0.357300  0.283500  0.285200  1
  C  C2428  1  0.142700  0.216500  0.785200  1
  C  C2429  1  0.657600  0.696600  0.736030  1
  C  C2430  1  0.842400  0.803400  0.236030  1
  C  C2431  1  0.342400  0.303400  0.263970  1
  C  C2432  1  0.157600  0.196600  0.763970  1
  C  C2433  1  0.628500  0.598500  0.704300  1
  C  C2434  1  0.871500  0.901500  0.204300  1
  C  C2435  1  0.371500  0.401500  0.295700  1
  C  C2436  1  0.128500  0.098500  0.795700  1
  C  C2437  1  0.568800  0.718700  0.670300  1
  C  C2438  1  0.931200  0.781300  0.170300  1
  C  C2439  1  0.431200  0.281300  0.329700  1
  C  C2440  1  0.068800  0.218700  0.829700  1
  C  C2441  1  0.553600  0.737200  0.647100  1
  C  C2442  1  0.946400  0.762800  0.147100  1
  C  C2443  1  0.446400  0.262800  0.352900  1
  C  C2444  1  0.053600  0.237200  0.852900  1
  C  C2445  1  0.579200  0.776000  0.606600  1
  C  C2446  1  0.920800  0.724000  0.106600  1
  C  C2447  1  0.420800  0.224000  0.393400  1
  C  C2448  1  0.079200  0.276000  0.893400  1
  C  C2449  1  0.538000  0.778800  0.600800  1
  C  C2450  1  0.962000  0.721200  0.100800  1
  C  C2451  1  0.462000  0.221200  0.399200  1
  C  C2452  1  0.038000  0.278800  0.899200  1
  C  C2453  1  0.504600  0.760800  0.618200  1
  C  C2454  1  0.995400  0.739200  0.118200  1
  C  C2455  1  0.495400  0.239200  0.381800  1
  C  C2456  1  0.004600  0.260800  0.881800  1
  C  C2457  1  0.512400  0.739900  0.641300  1
  C  C2458  1  0.987600  0.760100  0.141300  1
  C  C2459  1  0.487600  0.260100  0.358700  1
  C  C2460  1  0.012400  0.239900  0.858700  1
  C  C2461  1  0.643400  0.512400  0.935980  1
  C  C2462  1  0.856600  0.987600  0.435980  1
  C  C2463  1  0.356600  0.487600  0.064020  1
  C  C2464  1  0.143400  0.012400  0.564020  1
  C  C2465  1  0.700900  0.530100  0.969300  1
  C  C2466  1  0.799100  0.969900  0.469300  1
  C  C2467  1  0.299100  0.469900  0.030700  1
  C  C2468  1  0.200900  0.030100  0.530700  1
  C  C2469  1  0.676800  0.549300  0.985200  1
  C  C2470  1  0.823200  0.950700  0.485200  1
  C  C2471  1  0.323200  0.450700  0.014800  1
  C  C2472  1  0.176800  0.049300  0.514800  1
  C  C2473  1  0.636000  0.550100  0.976600  1
  C  C2474  1  0.864000  0.949900  0.476600  1
  C  C2475  1  0.364000  0.449900  0.023400  1
  C  C2476  1  0.136000  0.050100  0.523400  1
  C  C2477  1  0.619300  0.531600  0.951900  1
  C  C2478  1  0.880700  0.968400  0.451900  1
  C  C2479  1  0.380700  0.468400  0.048100  1
  C  C2480  1  0.119300  0.031600  0.548100  1
  C  C2481  1  0.633700  0.494300  0.910100  1
  C  C2482  1  0.866300  0.005700  0.410100  1
  C  C2483  1  0.366300  0.505700  0.089900  1
  C  C2484  1  0.133700  0.994300  0.589900  1
  C  C2485  1  0.649200  0.454400  0.873430  1
  C  C2486  1  0.850800  0.045600  0.373430  1
  C  C2487  1  0.350800  0.545600  0.126570  1
  C  C2488  1  0.149200  0.954400  0.626570  1
  C  C2489  1  0.648900  0.474500  0.848500  1
  C  C2490  1  0.851100  0.025500  0.348500  1
  C  C2491  1  0.351100  0.525500  0.151500  1
  C  C2492  1  0.148900  0.974500  0.651500  1
  C  C2493  1  0.634300  0.455200  0.823820  1
  C  C2494  1  0.865700  0.044800  0.323820  1
  C  C2495  1  0.365700  0.544800  0.176180  1
  C  C2496  1  0.134300  0.955200  0.676180  1
  C  C2497  1  0.620000  0.415700  0.823990  1
  C  C2498  1  0.880000  0.084300  0.323990  1
  C  C2499  1  0.380000  0.584300  0.176010  1
  C  C2500  1  0.120000  0.915700  0.676010  1
  C  C2501  1  0.620300  0.395600  0.848900  1
  C  C2502  1  0.879700  0.104400  0.348900  1
  C  C2503  1  0.379700  0.604400  0.151100  1
  C  C2504  1  0.120300  0.895600  0.651100  1
  C  C2505  1  0.634900  0.415000  0.873610  1
  C  C2506  1  0.865100  0.085000  0.373610  1
  C  C2507  1  0.365100  0.585000  0.126390  1
  C  C2508  1  0.134900  0.915000  0.626390  1
  C  C2509  1  0.637400  0.476900  0.796100  1
  C  C2510  1  0.862600  0.023100  0.296100  1
  C  C2511  1  0.362600  0.523100  0.203900  1
  C  C2512  1  0.137400  0.976900  0.703900  1
  C  C2513  1  0.601800  0.392800  0.798560  1
  C  C2514  1  0.898200  0.107200  0.298560  1
  C  C2515  1  0.398200  0.607200  0.201440  1
  C  C2516  1  0.101800  0.892800  0.701440  1
  C  C2517  1  0.616200  0.361800  0.789300  1
  C  C2518  1  0.883800  0.138200  0.289300  1
  C  C2519  1  0.383800  0.638200  0.210700  1
  C  C2520  1  0.116200  0.861800  0.710700  1
  C  C2521  1  0.597900  0.341400  0.765700  1
  C  C2522  1  0.902100  0.158600  0.265700  1
  C  C2523  1  0.402100  0.658600  0.234300  1
  C  C2524  1  0.097900  0.841400  0.734300  1
  C  C2525  1  0.565100  0.352100  0.751490  1
  C  C2526  1  0.934900  0.147900  0.251490  1
  C  C2527  1  0.434900  0.647900  0.248510  1
  C  C2528  1  0.065100  0.852100  0.748510  1
  C  C2529  1  0.550800  0.383200  0.760800  1
  C  C2530  1  0.949200  0.116800  0.260800  1
  C  C2531  1  0.449200  0.616800  0.239200  1
  C  C2532  1  0.050800  0.883200  0.739200  1
  C  C2533  1  0.569100  0.403500  0.784300  1
  C  C2534  1  0.930900  0.096500  0.284300  1
  C  C2535  1  0.430900  0.596500  0.215700  1
  C  C2536  1  0.069100  0.903500  0.715700  1
  C  C2537  1  0.547600  0.329200  0.725430  1
  C  C2538  1  0.952400  0.170800  0.225430  1
  C  C2539  1  0.452400  0.670800  0.274570  1
  C  C2540  1  0.047600  0.829200  0.774570  1
  C  C2541  1  0.571100  0.326000  0.701500  1
  C  C2542  1  0.928900  0.174000  0.201500  1
  C  C2543  1  0.428900  0.674000  0.298500  1
  C  C2544  1  0.071100  0.826000  0.798500  1
  C  C2545  1  0.551900  0.304100  0.678880  1
  C  C2546  1  0.948100  0.195900  0.178880  1
  C  C2547  1  0.448100  0.695900  0.321120  1
  C  C2548  1  0.051900  0.804100  0.821120  1
  C  C2549  1  0.509100  0.285300  0.680200  1
  C  C2550  1  0.990900  0.214700  0.180200  1
  C  C2551  1  0.490900  0.714700  0.319800  1
  C  C2552  1  0.009100  0.785300  0.819800  1
  C  C2553  1  0.485500  0.288500  0.704100  1
  C  C2554  1  0.014500  0.211500  0.204100  1
  C  C2555  1  0.514500  0.711500  0.295900  1
  C  C2556  1  0.985500  0.788500  0.795900  1
  C  C2557  1  0.504700  0.310400  0.726760  1
  C  C2558  1  0.995300  0.189600  0.226760  1
  C  C2559  1  0.495300  0.689600  0.273240  1
  C  C2560  1  0.004700  0.810400  0.773240  1
  C  C2561  1  0.619400  0.346000  0.698900  1
  C  C2562  1  0.880600  0.154000  0.198900  1
  C  C2563  1  0.380600  0.654000  0.301100  1
  C  C2564  1  0.119400  0.846000  0.801100  1
  C  C2565  1  0.503200  0.236000  0.653600  1
  C  C2566  1  0.996800  0.264000  0.153600  1
  C  C2567  1  0.496800  0.764000  0.346400  1
  C  C2568  1  0.003200  0.736000  0.846400  1
  C  C2569  1  0.486800  0.208700  0.628640  1
  C  C2570  1  0.013200  0.291300  0.128640  1
  C  C2571  1  0.513200  0.791300  0.371360  1
  C  C2572  1  0.986800  0.708700  0.871360  1
  C  C2573  1  0.437300  0.203700  0.590200  1
  C  C2574  1  0.062700  0.296300  0.090200  1
  C  C2575  1  0.562700  0.796300  0.409800  1
  C  C2576  1  0.937300  0.703700  0.909800  1
  C  C2577  1  0.443600  0.168100  0.583400  1
  C  C2578  1  0.056400  0.331900  0.083400  1
  C  C2579  1  0.556400  0.831900  0.416600  1
  C  C2580  1  0.943600  0.668100  0.916600  1
  C  C2581  1  0.471500  0.152800  0.599200  1
  C  C2582  1  0.028500  0.347200  0.099200  1
  C  C2583  1  0.528500  0.847200  0.400800  1
  C  C2584  1  0.971500  0.652800  0.900800  1
  C  C2585  1  0.493100  0.173100  0.621800  1
  C  C2586  1  0.006900  0.326900  0.121800  1
  C  C2587  1  0.506900  0.826900  0.378200  1
  C  C2588  1  0.993100  0.673100  0.878200  1
  C  C2589  1  0.699800  0.397700  0.928800  1
  C  C2590  1  0.800200  0.102300  0.428800  1
  C  C2591  1  0.300200  0.602300  0.071200  1
  C  C2592  1  0.199800  0.897700  0.571200  1
  C  C2593  1  0.665000  0.428900  0.963000  1
  C  C2594  1  0.835000  0.071100  0.463000  1
  C  C2595  1  0.335000  0.571100  0.037000  1
  C  C2596  1  0.165000  0.928900  0.537000  1
  C  C2597  1  0.648700  0.394100  0.976300  1
  C  C2598  1  0.851300  0.105900  0.476300  1
  C  C2599  1  0.351300  0.605900  0.023700  1
  C  C2600  1  0.148700  0.894100  0.523700  1
  C  C2601  1  0.658000  0.361200  0.965800  1
  C  C2602  1  0.842000  0.138800  0.465800  1
  C  C2603  1  0.342000  0.638800  0.034200  1
  C  C2604  1  0.158000  0.861200  0.534200  1
  C  C2605  1  0.683500  0.363000  0.942100  1
  C  C2606  1  0.816500  0.137000  0.442100  1
  C  C2607  1  0.316500  0.637000  0.057900  1
  C  C2608  1  0.183500  0.863000  0.557900  1
  C  C2609  1  0.721000  0.408100  0.899600  1
  C  C2610  1  0.779000  0.091900  0.399600  1
  C  C2611  1  0.279000  0.591900  0.100400  1
  C  C2612  1  0.221000  0.908100  0.600400  1
  C  C2613  1  0.760000  0.451100  0.872300  1
  C  C2614  1  0.740000  0.048900  0.372300  1
  C  C2615  1  0.240000  0.548900  0.127700  1
  C  C2616  1  0.260000  0.951100  0.627700  1
  C  C2617  1  0.740300  0.440900  0.846500  1
  C  C2618  1  0.759700  0.059100  0.346500  1
  C  C2619  1  0.259700  0.559100  0.153500  1
  C  C2620  1  0.240300  0.940900  0.653500  1
  C  C2621  1  0.763700  0.448500  0.821700  1
  C  C2622  1  0.736300  0.051500  0.321700  1
  C  C2623  1  0.236300  0.551500  0.178300  1
  C  C2624  1  0.263700  0.948500  0.678300  1
  C  C2625  1  0.806900  0.466200  0.822800  1
  C  C2626  1  0.693100  0.033800  0.322800  1
  C  C2627  1  0.193100  0.533800  0.177200  1
  C  C2628  1  0.306900  0.966200  0.677200  1
  C  C2629  1  0.826600  0.476300  0.848600  1
  C  C2630  1  0.673400  0.023700  0.348600  1
  C  C2631  1  0.173400  0.523700  0.151400  1
  C  C2632  1  0.326600  0.976300  0.651400  1
  C  C2633  1  0.803100  0.468800  0.873300  1
  C  C2634  1  0.696900  0.031200  0.373300  1
  C  C2635  1  0.196900  0.531200  0.126700  1
  C  C2636  1  0.303100  0.968800  0.626700  1
  C  C2637  1  0.744200  0.433600  0.789300  1
  C  C2638  1  0.755800  0.066400  0.289300  1
  C  C2639  1  0.255800  0.566400  0.210700  1
  C  C2640  1  0.244200  0.933600  0.710700  1
  C  C2641  1  0.838000  0.475700  0.795700  1
  C  C2642  1  0.662000  0.024300  0.295700  1
  C  C2643  1  0.162000  0.524300  0.204300  1
  C  C2644  1  0.338000  0.975700  0.704300  1
  C  C2645  1  0.838200  0.444600  0.778600  1
  C  C2646  1  0.661800  0.055400  0.278600  1
  C  C2647  1  0.161800  0.555400  0.221400  1
  C  C2648  1  0.338200  0.944600  0.721400  1
  C  C2649  1  0.861800  0.449700  0.753800  1
  C  C2650  1  0.638200  0.050300  0.253800  1
  C  C2651  1  0.138200  0.550300  0.246200  1
  C  C2652  1  0.361800  0.949700  0.746200  1
  C  C2653  1  0.885100  0.485800  0.746200  1
  C  C2654  1  0.614900  0.014200  0.246200  1
  C  C2655  1  0.114900  0.514200  0.253800  1
  C  C2656  1  0.385100  0.985800  0.753800  1
  C  C2657  1  0.884800  0.516900  0.763300  1
  C  C2658  1  0.615200  0.983100  0.263300  1
  C  C2659  1  0.115200  0.483100  0.236700  1
  C  C2660  1  0.384800  0.016900  0.736700  1
  C  C2661  1  0.861200  0.511900  0.788100  1
  C  C2662  1  0.638800  0.988100  0.288100  1
  C  C2663  1  0.138800  0.488100  0.211900  1
  C  C2664  1  0.361200  0.011900  0.711900  1
  C  C2665  1  0.910800  0.491900  0.718800  1
  C  C2666  1  0.589200  0.008100  0.218800  1
  C  C2667  1  0.089200  0.508100  0.281200  1
  C  C2668  1  0.410800  0.991900  0.781200  1
  C  C2669  1  0.901000  0.512500  0.696100  1
  C  C2670  1  0.599000  0.987500  0.196100  1
  C  C2671  1  0.099000  0.487500  0.303900  1
  C  C2672  1  0.401000  0.012500  0.803900  1
  C  C2673  1  0.925400  0.516200  0.671700  1
  C  C2674  1  0.574600  0.983800  0.171700  1
  C  C2675  1  0.074600  0.483800  0.328300  1
  C  C2676  1  0.425400  0.016200  0.828300  1
  C  C2677  1  0.959600  0.499500  0.670000  1
  C  C2678  1  0.540400  0.000500  0.170000  1
  C  C2679  1  0.040400  0.500500  0.330000  1
  C  C2680  1  0.459600  0.999500  0.830000  1
  C  C2681  1  0.969400  0.478900  0.692700  1
  C  C2682  1  0.530600  0.021100  0.192700  1
  C  C2683  1  0.030600  0.521100  0.307300  1
  C  C2684  1  0.469400  0.978900  0.807300  1
  C  C2685  1  0.945000  0.475100  0.717100  1
  C  C2686  1  0.555000  0.024900  0.217100  1
  C  C2687  1  0.055000  0.524900  0.282900  1
  C  C2688  1  0.445000  0.975100  0.782900  1
  C  C2689  1  0.861000  0.531300  0.696100  1
  C  C2690  1  0.639000  0.968700  0.196100  1
  C  C2691  1  0.139000  0.468700  0.303900  1
  C  C2692  1  0.361000  0.031300  0.803900  1
  C  C2693  1  0.010400  0.534800  0.638500  1
  C  C2694  1  0.489600  0.965200  0.138500  1
  C  C2695  1  0.989600  0.465200  0.361500  1
  C  C2696  1  0.510400  0.034800  0.861500  1
  C  C2697  1  0.040900  0.505600  0.569800  1
  C  C2698  1  0.459100  0.994400  0.069800  1
  C  C2699  1  0.959100  0.494400  0.430200  1
  C  C2700  1  0.540900  0.005600  0.930200  1
  C  C2701  1  0.067100  0.539600  0.560200  1
  C  C2702  1  0.432900  0.960400  0.060200  1
  C  C2703  1  0.932900  0.460400  0.439800  1
  C  C2704  1  0.567100  0.039600  0.939800  1
  C  C2705  1  0.075900  0.571500  0.577500  1
  C  C2706  1  0.424100  0.928500  0.077500  1
  C  C2707  1  0.924100  0.428500  0.422500  1
  C  C2708  1  0.575900  0.071500  0.922500  1
  C  C2709  1  0.058600  0.569400  0.604400  1
  C  C2710  1  0.441400  0.930600  0.104400  1
  C  C2711  1  0.941400  0.430600  0.395600  1
  C  C2712  1  0.558600  0.069400  0.895600  1
  C  C2713  1  0.032400  0.535400  0.614000  1
  C  C2714  1  0.467600  0.964600  0.114000  1
  C  C2715  1  0.967600  0.464600  0.386000  1
  C  C2716  1  0.532400  0.035400  0.886000  1
  C  C2717  1  0.672900  0.760500  0.581500  1
  C  C2718  1  0.827100  0.739500  0.081500  1
  C  C2719  1  0.327100  0.239500  0.418500  1
  C  C2720  1  0.172900  0.260500  0.918500  1
  C  C2721  1  0.688100  0.820200  0.606300  1
  C  C2722  1  0.811900  0.679800  0.106300  1
  C  C2723  1  0.311900  0.179800  0.393700  1
  C  C2724  1  0.188100  0.320200  0.893700  1
  C  C2725  1  0.704600  0.839100  0.581800  1
  C  C2726  1  0.795400  0.660900  0.081800  1
  C  C2727  1  0.295400  0.160900  0.418200  1
  C  C2728  1  0.204600  0.339100  0.918200  1
  C  C2729  1  0.705300  0.818600  0.557100  1
  C  C2730  1  0.794700  0.681400  0.057100  1
  C  C2731  1  0.294700  0.181400  0.442900  1
  C  C2732  1  0.205300  0.318600  0.942900  1
  C  C2733  1  0.689400  0.779300  0.557000  1
  C  C2734  1  0.810600  0.720700  0.057000  1
  C  C2735  1  0.310600  0.220700  0.443000  1
  C  C2736  1  0.189400  0.279300  0.943000  1
  C  C2737  1  0.654300  0.721500  0.585300  1
  C  C2738  1  0.845700  0.778500  0.085300  1
  C  C2739  1  0.345700  0.278500  0.414700  1
  C  C2740  1  0.154300  0.221500  0.914700  1
  C  C2741  1  0.624300  0.670800  0.613770  1
  C  C2742  1  0.875700  0.829200  0.113770  1
  C  C2743  1  0.375700  0.329200  0.386230  1
  C  C2744  1  0.124300  0.170800  0.886230  1
  C  C2745  1  0.650100  0.645300  0.614560  1
  C  C2746  1  0.849900  0.854700  0.114560  1
  C  C2747  1  0.349900  0.354700  0.385440  1
  C  C2748  1  0.150100  0.145300  0.885440  1
  C  C2749  1  0.632000  0.606600  0.617930  1
  C  C2750  1  0.868000  0.893400  0.117930  1
  C  C2751  1  0.368000  0.393400  0.382070  1
  C  C2752  1  0.132000  0.106600  0.882070  1
  C  C2753  1  0.588100  0.593400  0.620510  1
  C  C2754  1  0.911900  0.906600  0.120510  1
  C  C2755  1  0.411900  0.406600  0.379490  1
  C  C2756  1  0.088100  0.093400  0.879490  1
  C  C2757  1  0.562300  0.619000  0.619720  1
  C  C2758  1  0.937700  0.881000  0.119720  1
  C  C2759  1  0.437700  0.381000  0.380280  1
  C  C2760  1  0.062300  0.119000  0.880280  1
  C  C2761  1  0.580400  0.657700  0.616350  1
  C  C2762  1  0.919600  0.842300  0.116350  1
  C  C2763  1  0.419600  0.342300  0.383650  1
  C  C2764  1  0.080400  0.157700  0.883650  1
  C  C2765  1  0.666900  0.580900  0.623800  1
  C  C2766  1  0.833100  0.919100  0.123800  1
  C  C2767  1  0.333100  0.419100  0.376200  1
  C  C2768  1  0.166900  0.080900  0.876200  1
  C  C2769  1  0.569100  0.551900  0.624700  1
  C  C2770  1  0.930900  0.948100  0.124700  1
  C  C2771  1  0.430900  0.448100  0.375300  1
  C  C2772  1  0.069100  0.051900  0.875300  1
  C  C2773  1  0.573200  0.526400  0.603600  1
  C  C2774  1  0.926800  0.973600  0.103600  1
  C  C2775  1  0.426800  0.473600  0.396400  1
  C  C2776  1  0.073200  0.026400  0.896400  1
  C  C2777  1  0.554600  0.487800  0.606840  1
  C  C2778  1  0.945400  0.012200  0.106840  1
  C  C2779  1  0.445400  0.512200  0.393160  1
  C  C2780  1  0.054600  0.987800  0.893160  1
  C  C2781  1  0.531900  0.474620  0.631200  1
  C  C2782  1  0.968100  0.025380  0.131200  1
  C  C2783  1  0.468100  0.525380  0.368800  1
  C  C2784  1  0.031900  0.974620  0.868800  1
  C  C2785  1  0.527800  0.500100  0.652270  1
  C  C2786  1  0.972200  0.999900  0.152270  1
  C  C2787  1  0.472200  0.499900  0.347730  1
  C  C2788  1  0.027800  0.000100  0.847730  1
  C  C2789  1  0.546400  0.538700  0.649030  1
  C  C2790  1  0.953600  0.961300  0.149030  1
  C  C2791  1  0.453600  0.461300  0.350970  1
  C  C2792  1  0.046400  0.038700  0.850970  1
  C  C2793  1  0.509300  0.433100  0.636100  1
  C  C2794  1  0.990700  0.066900  0.136100  1
  C  C2795  1  0.490700  0.566900  0.363900  1
  C  C2796  1  0.009300  0.933100  0.863900  1
  C  C2797  1  0.514600  0.413000  0.660210  1
  C  C2798  1  0.985400  0.087000  0.160210  1
  C  C2799  1  0.485400  0.587000  0.339790  1
  C  C2800  1  0.014600  0.913000  0.839790  1
  C  C2801  1  0.492500  0.375200  0.663190  1
  C  C2802  1  0.007500  0.124800  0.163190  1
  C  C2803  1  0.507500  0.624800  0.336810  1
  C  C2804  1  0.992500  0.875200  0.836810  1
  C  C2805  1  0.465200  0.357400  0.642000  1
  C  C2806  1  0.034800  0.142600  0.142000  1
  C  C2807  1  0.534800  0.642600  0.358000  1
  C  C2808  1  0.965200  0.857400  0.858000  1
  C  C2809  1  0.459900  0.377400  0.617910  1
  C  C2810  1  0.040100  0.122600  0.117910  1
  C  C2811  1  0.540100  0.622600  0.382090  1
  C  C2812  1  0.959900  0.877400  0.882090  1
  C  C2813  1  0.481900  0.415300  0.614930  1
  C  C2814  1  0.018100  0.084700  0.114930  1
  C  C2815  1  0.518100  0.584700  0.385070  1
  C  C2816  1  0.981900  0.915300  0.885070  1
  C  C2817  1  0.545700  0.433500  0.683200  1
  C  C2818  1  0.954300  0.066500  0.183200  1
  C  C2819  1  0.454300  0.566500  0.316800  1
  C  C2820  1  0.045700  0.933500  0.816800  1
  C  C2821  1  0.410600  0.313100  0.664800  1
  C  C2822  1  0.089400  0.186900  0.164800  1
  C  C2823  1  0.589400  0.686900  0.335200  1
  C  C2824  1  0.910600  0.813100  0.835200  1
  C  C2825  1  0.387500  0.276700  0.669700  1
  C  C2826  1  0.112500  0.223300  0.169700  1
  C  C2827  1  0.612500  0.723300  0.330300  1
  C  C2828  1  0.887500  0.776700  0.830300  1
  C  C2829  1  0.383600  0.212000  0.655930  1
  C  C2830  1  0.116400  0.288000  0.155930  1
  C  C2831  1  0.616400  0.788000  0.344070  1
  C  C2832  1  0.883600  0.712000  0.844070  1
  C  C2833  1  0.350300  0.199300  0.674700  1
  C  C2834  1  0.149700  0.300700  0.174700  1
  C  C2835  1  0.649700  0.800700  0.325300  1
  C  C2836  1  0.850300  0.699300  0.825300  1
  C  C2837  1  0.335500  0.225300  0.690970  1
  C  C2838  1  0.164500  0.274700  0.190970  1
  C  C2839  1  0.664500  0.774700  0.309030  1
  C  C2840  1  0.835500  0.725300  0.809030  1
  C  C2841  1  0.354100  0.264000  0.688470  1
  C  C2842  1  0.145900  0.236000  0.188470  1
  C  C2843  1  0.645900  0.736000  0.311530  1
  C  C2844  1  0.854100  0.764000  0.811530  1
  C  C2845  1  0.690500  0.799200  0.680900  1
  C  C2846  1  0.809500  0.700800  0.180900  1
  C  C2847  1  0.309500  0.200800  0.319100  1
  C  C2848  1  0.190500  0.299200  0.819100  1
  C  C2849  1  0.627400  0.820400  0.670300  1
  C  C2850  1  0.872600  0.679600  0.170300  1
  C  C2851  1  0.372600  0.179600  0.329700  1
  C  C2852  1  0.127400  0.320400  0.829700  1
  C  C2853  1  0.637500  0.847500  0.691500  1
  C  C2854  1  0.862500  0.652500  0.191500  1
  C  C2855  1  0.362500  0.152500  0.308500  1
  C  C2856  1  0.137500  0.347500  0.808500  1
  C  C2857  1  0.674100  0.850500  0.707470  1
  C  C2858  1  0.825900  0.649500  0.207470  1
  C  C2859  1  0.325900  0.149500  0.292530  1
  C  C2860  1  0.174100  0.350500  0.792530  1
  C  C2861  1  0.700600  0.826300  0.702200  1
  C  C2862  1  0.799400  0.673700  0.202200  1
  C  C2863  1  0.299400  0.173700  0.297800  1
  C  C2864  1  0.200600  0.326300  0.797800  1
  C  C2865  1  0.714500  0.773200  0.673900  1
  C  C2866  1  0.785500  0.726800  0.173900  1
  C  C2867  1  0.285500  0.226800  0.326100  1
  C  C2868  1  0.214500  0.273200  0.826100  1
  C  C2869  1  0.724900  0.720400  0.649700  1
  C  C2870  1  0.775100  0.779600  0.149700  1
  C  C2871  1  0.275100  0.279600  0.350300  1
  C  C2872  1  0.224900  0.220400  0.850300  1
  C  C2873  1  0.726800  0.692200  0.669130  1
  C  C2874  1  0.773200  0.807800  0.169130  1
  C  C2875  1  0.273200  0.307800  0.330870  1
  C  C2876  1  0.226800  0.192200  0.830870  1
  C  C2877  1  0.748800  0.664800  0.662700  1
  C  C2878  1  0.751200  0.835200  0.162700  1
  C  C2879  1  0.251200  0.335200  0.337300  1
  C  C2880  1  0.248800  0.164800  0.837300  1
  C  C2881  1  0.768900  0.665500  0.636800  1
  C  C2882  1  0.731100  0.834500  0.136800  1
  C  C2883  1  0.231100  0.334500  0.363200  1
  C  C2884  1  0.268900  0.165500  0.863200  1
  C  C2885  1  0.767100  0.693800  0.617310  1
  C  C2886  1  0.732900  0.806200  0.117310  1
  C  C2887  1  0.232900  0.306200  0.382690  1
  C  C2888  1  0.267100  0.193800  0.882690  1
  C  C2889  1  0.745100  0.721200  0.623800  1
  C  C2890  1  0.754900  0.778800  0.123800  1
  C  C2891  1  0.254900  0.278800  0.376200  1
  C  C2892  1  0.245100  0.221200  0.876200  1
  C  C2893  1  0.747200  0.639400  0.685000  1
  C  C2894  1  0.752800  0.860600  0.185000  1
  C  C2895  1  0.252800  0.360600  0.315000  1
  C  C2896  1  0.247200  0.139400  0.815000  1
  C  C2897  1  0.791200  0.636600  0.630200  1
  C  C2898  1  0.708800  0.863400  0.130200  1
  C  C2899  1  0.208800  0.363400  0.369800  1
  C  C2900  1  0.291200  0.136600  0.869800  1
  C  C2901  1  0.780900  0.614800  0.606000  1
  C  C2902  1  0.719100  0.885200  0.106000  1
  C  C2903  1  0.219100  0.385200  0.394000  1
  C  C2904  1  0.280900  0.114800  0.894000  1
  C  C2905  1  0.803000  0.587600  0.599190  1
  C  C2906  1  0.697000  0.912400  0.099190  1
  C  C2907  1  0.197000  0.412400  0.400810  1
  C  C2908  1  0.303000  0.087600  0.900810  1
  C  C2909  1  0.835400  0.582100  0.616700  1
  C  C2910  1  0.664600  0.917900  0.116700  1
  C  C2911  1  0.164600  0.417900  0.383300  1
  C  C2912  1  0.335400  0.082100  0.883300  1
  C  C2913  1  0.845700  0.603900  0.640900  1
  C  C2914  1  0.654300  0.896100  0.140900  1
  C  C2915  1  0.154300  0.396100  0.359100  1
  C  C2916  1  0.345700  0.103900  0.859100  1
  C  C2917  1  0.823600  0.631100  0.647680  1
  C  C2918  1  0.676400  0.868900  0.147680  1
  C  C2919  1  0.176400  0.368900  0.352320  1
  C  C2920  1  0.323600  0.131100  0.852320  1
  C  C2921  1  0.861800  0.550300  0.611100  1
  C  C2922  1  0.638200  0.949700  0.111100  1
  C  C2923  1  0.138200  0.449700  0.388900  1
  C  C2924  1  0.361800  0.050300  0.888900  1
  C  C2925  1  0.843800  0.511300  0.612200  1
  C  C2926  1  0.656200  0.988700  0.112200  1
  C  C2927  1  0.156200  0.488700  0.387800  1
  C  C2928  1  0.343800  0.011300  0.887800  1
  C  C2929  1  0.868000  0.485800  0.605500  1
  C  C2930  1  0.632000  0.014200  0.105500  1
  C  C2931  1  0.132000  0.514200  0.394500  1
  C  C2932  1  0.368000  0.985800  0.894500  1
  C  C2933  1  0.910300  0.499100  0.597500  1
  C  C2934  1  0.589700  0.000900  0.097500  1
  C  C2935  1  0.089700  0.500900  0.402500  1
  C  C2936  1  0.410300  0.999100  0.902500  1
  C  C2937  1  0.928400  0.538100  0.596400  1
  C  C2938  1  0.571600  0.961900  0.096400  1
  C  C2939  1  0.071600  0.461900  0.403600  1
  C  C2940  1  0.428400  0.038100  0.903600  1
  C  C2941  1  0.904100  0.563700  0.603100  1
  C  C2942  1  0.595900  0.936300  0.103100  1
  C  C2943  1  0.095900  0.436300  0.396900  1
  C  C2944  1  0.404100  0.063700  0.896900  1
  C  C2945  1  0.791200  0.496400  0.612100  1
  C  C2946  1  0.708800  0.003600  0.112100  1
  C  C2947  1  0.208800  0.503600  0.387900  1
  C  C2948  1  0.291200  0.996400  0.887900  1
  C  C2949  1  0.925600  0.457700  0.565400  1
  C  C2950  1  0.574400  0.042300  0.065400  1
  C  C2951  1  0.074400  0.542300  0.434600  1
  C  C2952  1  0.425600  0.957700  0.934600  1
  C  C2953  1  0.952100  0.426400  0.564800  1
  C  C2954  1  0.547900  0.073600  0.064800  1
  C  C2955  1  0.047900  0.573600  0.435200  1
  C  C2956  1  0.452100  0.926400  0.935200  1
  C  C2957  1  0.001400  0.395300  0.586900  1
  C  C2958  1  0.498600  0.104700  0.086900  1
  C  C2959  1  0.998600  0.604700  0.413100  1
  C  C2960  1  0.501400  0.895300  0.913100  1
  C  C2961  1  0.996900  0.369900  0.564500  1
  C  C2962  1  0.503100  0.130100  0.064500  1
  C  C2963  1  0.003100  0.630100  0.435500  1
  C  C2964  1  0.496900  0.869900  0.935500  1
  C  C2965  1  0.970000  0.372800  0.542200  1
  C  C2966  1  0.530000  0.127200  0.042200  1
  C  C2967  1  0.030000  0.627200  0.457800  1
  C  C2968  1  0.470000  0.872800  0.957800  1
  C  C2969  1  0.947600  0.401000  0.542400  1
  C  C2970  1  0.552400  0.099000  0.042400  1
  C  C2971  1  0.052400  0.599000  0.457600  1
  C  C2972  1  0.447600  0.901000  0.957600  1
  C  C2973  1  0.439100  0.297200  0.572700  1
  C  C2974  1  0.060900  0.202800  0.072700  1
  C  C2975  1  0.560900  0.702800  0.427300  1
  C  C2976  1  0.939100  0.797200  0.927300  1
  C  C2977  1  0.373200  0.265800  0.595100  1
  C  C2978  1  0.126800  0.234200  0.095100  1
  C  C2979  1  0.626800  0.734200  0.404900  1
  C  C2980  1  0.873200  0.765800  0.904900  1
  C  C2981  1  0.352000  0.265400  0.569600  1
  C  C2982  1  0.148000  0.234600  0.069600  1
  C  C2983  1  0.648000  0.734600  0.430400  1
  C  C2984  1  0.852000  0.765400  0.930400  1
  C  C2985  1  0.374200  0.280900  0.545700  1
  C  C2986  1  0.125800  0.219100  0.045700  1
  C  C2987  1  0.625800  0.719100  0.454300  1
  C  C2988  1  0.874200  0.780900  0.954300  1
  C  C2989  1  0.417800  0.296800  0.547200  1
  C  C2990  1  0.082200  0.203200  0.047200  1
  C  C2991  1  0.582200  0.703200  0.452800  1
  C  C2992  1  0.917800  0.796800  0.952800  1
  C  C2993  1  0.484300  0.305100  0.577200  1
  C  C2994  1  0.015700  0.194900  0.077200  1
  C  C2995  1  0.515700  0.694900  0.422800  1
  C  C2996  1  0.984300  0.805100  0.922800  1
  C  C2997  1  0.540800  0.312100  0.604580  1
  C  C2998  1  0.959200  0.187900  0.104580  1
  C  C2999  1  0.459200  0.687900  0.395420  1
  C  C3000  1  0.040800  0.812100  0.895420  1
  C  C3001  1  0.559100  0.350000  0.611140  1
  C  C3002  1  0.940900  0.150000  0.111140  1
  C  C3003  1  0.440900  0.650000  0.388860  1
  C  C3004  1  0.059100  0.850000  0.888860  1
  C  C3005  1  0.602500  0.361800  0.616510  1
  C  C3006  1  0.897500  0.138200  0.116510  1
  C  C3007  1  0.397500  0.638200  0.383490  1
  C  C3008  1  0.102500  0.861800  0.883490  1
  C  C3009  1  0.627600  0.335700  0.615300  1
  C  C3010  1  0.872400  0.164300  0.115300  1
  C  C3011  1  0.372400  0.664300  0.384700  1
  C  C3012  1  0.127600  0.835700  0.884700  1
  C  C3013  1  0.609400  0.297800  0.608800  1
  C  C3014  1  0.890600  0.202200  0.108800  1
  C  C3015  1  0.390600  0.702200  0.391200  1
  C  C3016  1  0.109400  0.797800  0.891200  1
  C  C3017  1  0.566000  0.286100  0.603390  1
  C  C3018  1  0.934000  0.213900  0.103390  1
  C  C3019  1  0.434000  0.713900  0.396610  1
  C  C3020  1  0.066000  0.786100  0.896610  1
  C  C3021  1  0.622000  0.407400  0.626200  1
  C  C3022  1  0.878000  0.092600  0.126200  1
  C  C3023  1  0.378000  0.592600  0.373800  1
  C  C3024  1  0.122000  0.907400  0.873800  1
  C  C3025  1  0.676700  0.346600  0.620100  1
  C  C3026  1  0.823300  0.153400  0.120100  1
  C  C3027  1  0.323300  0.653400  0.379900  1
  C  C3028  1  0.176700  0.846600  0.879900  1
  C  C3029  1  0.696500  0.330500  0.641100  1
  C  C3030  1  0.803500  0.169500  0.141100  1
  C  C3031  1  0.303500  0.669500  0.358900  1
  C  C3032  1  0.196500  0.830500  0.858900  1
  C  C3033  1  0.740000  0.343600  0.645600  1
  C  C3034  1  0.760000  0.156400  0.145600  1
  C  C3035  1  0.260000  0.656400  0.354400  1
  C  C3036  1  0.240000  0.843600  0.854400  1
  C  C3037  1  0.763700  0.372900  0.629100  1
  C  C3038  1  0.736300  0.127100  0.129100  1
  C  C3039  1  0.236300  0.627100  0.370900  1
  C  C3040  1  0.263700  0.872900  0.870900  1
  C  C3041  1  0.743900  0.389100  0.608100  1
  C  C3042  1  0.756100  0.110900  0.108100  1
  C  C3043  1  0.256100  0.610900  0.391900  1
  C  C3044  1  0.243900  0.889100  0.891900  1
  C  C3045  1  0.700400  0.375900  0.603600  1
  C  C3046  1  0.799600  0.124100  0.103600  1
  C  C3047  1  0.299600  0.624100  0.396400  1
  C  C3048  1  0.200400  0.875900  0.896400  1
  C  C3049  1  0.811200  0.382500  0.633200  1
  C  C3050  1  0.688800  0.117500  0.133200  1
  C  C3051  1  0.188800  0.617500  0.366800  1
  C  C3052  1  0.311200  0.882500  0.866800  1
  C  C3053  1  0.829600  0.403000  0.656700  1
  C  C3054  1  0.670400  0.097000  0.156700  1
  C  C3055  1  0.170400  0.597000  0.343300  1
  C  C3056  1  0.329600  0.903000  0.843300  1
  C  C3057  1  0.873700  0.414900  0.658800  1
  C  C3058  1  0.626300  0.085100  0.158800  1
  C  C3059  1  0.126300  0.585100  0.341200  1
  C  C3060  1  0.373700  0.914900  0.841200  1
  C  C3061  1  0.899200  0.406300  0.637500  1
  C  C3062  1  0.600800  0.093700  0.137500  1
  C  C3063  1  0.100800  0.593700  0.362500  1
  C  C3064  1  0.399200  0.906300  0.862500  1
  C  C3065  1  0.880800  0.385700  0.614100  1
  C  C3066  1  0.619200  0.114300  0.114100  1
  C  C3067  1  0.119200  0.614300  0.385900  1
  C  C3068  1  0.380800  0.885700  0.885900  1
  C  C3069  1  0.836800  0.373800  0.612000  1
  C  C3070  1  0.663200  0.126200  0.112000  1
  C  C3071  1  0.163200  0.626200  0.388000  1
  C  C3072  1  0.336800  0.873800  0.888000  1
  C  C3073  1  0.799100  0.391600  0.689300  1
  C  C3074  1  0.700900  0.108400  0.189300  1
  C  C3075  1  0.200900  0.608400  0.310700  1
  C  C3076  1  0.299100  0.891600  0.810700  1
  C  C3077  1  0.962800  0.405700  0.656300  1
  C  C3078  1  0.537200  0.094300  0.156300  1
  C  C3079  1  0.037200  0.594300  0.343700  1
  C  C3080  1  0.462800  0.905700  0.843700  1
  C  C3081  1  0.010400  0.414100  0.658100  1
  C  C3082  1  0.489600  0.085900  0.158100  1
  C  C3083  1  0.989600  0.585900  0.341900  1
  C  C3084  1  0.510400  0.914100  0.841900  1
  C  C3085  1  0.069300  0.457700  0.635700  1
  C  C3086  1  0.430700  0.042300  0.135700  1
  C  C3087  1  0.930700  0.542300  0.364300  1
  C  C3088  1  0.569300  0.957700  0.864300  1
  C  C3089  1  0.097500  0.444100  0.652300  1
  C  C3090  1  0.402500  0.055900  0.152300  1
  C  C3091  1  0.902500  0.555900  0.347700  1
  C  C3092  1  0.597500  0.944100  0.847700  1
  C  C3093  1  0.082300  0.415400  0.671800  1
  C  C3094  1  0.417700  0.084600  0.171800  1
  C  C3095  1  0.917700  0.584600  0.328200  1
  C  C3096  1  0.582300  0.915400  0.828200  1
  C  C3097  1  0.038700  0.400400  0.674700  1
  C  C3098  1  0.461300  0.099600  0.174700  1
  C  C3099  1  0.961300  0.599600  0.325300  1
  C  C3100  1  0.538700  0.900400  0.825300  1
  N  N3101  1  0.617300  0.793100  0.890800  1
  N  N3102  1  0.882700  0.706900  0.390800  1
  N  N3103  1  0.382700  0.206900  0.109200  1
  N  N3104  1  0.117300  0.293100  0.609200  1
  N  N3105  1  0.403800  0.518200  0.551200  1
  N  N3106  1  0.096200  0.981800  0.051200  1
  N  N3107  1  0.596200  0.481800  0.448800  1
  N  N3108  1  0.903800  0.018200  0.948800  1
  N  N3109  1  0.664700  0.741100  0.905100  1
  N  N3110  1  0.835300  0.758900  0.405100  1
  N  N3111  1  0.335300  0.258900  0.094900  1
  N  N3112  1  0.164700  0.241100  0.594900  1
  N  N3113  1  0.052700  0.579700  0.853100  1
  N  N3114  1  0.447300  0.920300  0.353100  1
  N  N3115  1  0.947300  0.420300  0.146900  1
  N  N3116  1  0.552700  0.079700  0.646900  1
  N  N3117  1  0.673500  0.771400  0.848570  1
  N  N3118  1  0.826500  0.728600  0.348570  1
  N  N3119  1  0.326500  0.228600  0.151430  1
  N  N3120  1  0.173500  0.271400  0.651430  1
  N  N3121  1  0.406800  0.237800  0.888450  1
  N  N3122  1  0.093200  0.262200  0.388450  1
  N  N3123  1  0.593200  0.762200  0.111550  1
  N  N3124  1  0.906800  0.737800  0.611550  1
  N  N3125  1  0.399000  0.595800  0.557500  1
  N  N3126  1  0.101000  0.904200  0.057500  1
  N  N3127  1  0.601000  0.404200  0.442500  1
  N  N3128  1  0.899000  0.095800  0.942500  1
  N  N3129  1  0.051300  0.518900  0.894800  1
  N  N3130  1  0.448700  0.981100  0.394800  1
  N  N3131  1  0.948700  0.481100  0.105200  1
  N  N3132  1  0.551300  0.018900  0.605200  1
  N  N3133  1  0.322600  0.537500  0.554900  1
  N  N3134  1  0.177400  0.962500  0.054900  1
  N  N3135  1  0.677400  0.462500  0.445100  1
  N  N3136  1  0.822600  0.037500  0.945100  1
  N  N3137  1  0.489000  0.262300  0.864700  1
  N  N3138  1  0.011000  0.237700  0.364700  1
  N  N3139  1  0.511000  0.737700  0.135300  1
  N  N3140  1  0.989000  0.762300  0.635300  1
  N  N3141  1  0.094100  0.595700  0.906800  1
  N  N3142  1  0.405900  0.904300  0.406800  1
  N  N3143  1  0.905900  0.404300  0.093200  1
  N  N3144  1  0.594100  0.095700  0.593200  1
  N  N3145  1  0.416000  0.222800  0.830390  1
  N  N3146  1  0.084000  0.277200  0.330390  1
  N  N3147  1  0.584000  0.777200  0.169610  1
  N  N3148  1  0.916000  0.722800  0.669610  1
  N  N3149  1  0.582400  0.757400  0.848700  1
  N  N3150  1  0.917600  0.742600  0.348700  1
  N  N3151  1  0.417600  0.242600  0.151300  1
  N  N3152  1  0.082400  0.257400  0.651300  1
  N  N3153  1  0.425400  0.548900  0.597000  1
  N  N3154  1  0.074600  0.951100  0.097000  1
  N  N3155  1  0.574600  0.451100  0.403000  1
  N  N3156  1  0.925400  0.048900  0.903000  1
  N  N3157  1  0.583400  0.716800  0.900000  1
  N  N3158  1  0.916600  0.783200  0.400000  1
  N  N3159  1  0.416600  0.283200  0.100000  1
  N  N3160  1  0.083400  0.216800  0.600000  1
  N  N3161  1  0.133600  0.598700  0.857900  1
  N  N3162  1  0.366400  0.901300  0.357900  1
  N  N3163  1  0.866400  0.401300  0.142100  1
  N  N3164  1  0.633600  0.098700  0.642100  1
  N  N3165  1  0.635800  0.702700  0.854400  1
  N  N3166  1  0.864200  0.797300  0.354400  1
  N  N3167  1  0.364200  0.297300  0.145600  1
  N  N3168  1  0.135800  0.202700  0.645600  1
  N  N3169  1  0.437600  0.305300  0.883200  1
  N  N3170  1  0.062400  0.194700  0.383200  1
  N  N3171  1  0.562400  0.694700  0.116800  1
  N  N3172  1  0.937600  0.805300  0.616800  1
  N  N3173  1  0.350400  0.583800  0.601200  1
  N  N3174  1  0.149600  0.916200  0.101200  1
  N  N3175  1  0.649600  0.416200  0.398800  1
  N  N3176  1  0.850400  0.083800  0.898800  1
  N  N3177  1  0.094300  0.524600  0.850400  1
  N  N3178  1  0.405700  0.975400  0.350400  1
  N  N3179  1  0.905700  0.475400  0.149600  1
  N  N3180  1  0.594300  0.024600  0.649600  1
  N  N3181  1  0.339900  0.501900  0.594600  1
  N  N3182  1  0.160100  0.998100  0.094600  1
  N  N3183  1  0.660100  0.498100  0.405400  1
  N  N3184  1  0.839900  0.001900  0.905400  1
  N  N3185  1  0.463000  0.296900  0.826400  1
  N  N3186  1  0.037000  0.203100  0.326400  1
  N  N3187  1  0.537000  0.703100  0.173600  1
  N  N3188  1  0.963000  0.796900  0.673600  1
  N  N3189  1  0.373100  0.272800  0.842400  1
  N  N3190  1  0.126900  0.227200  0.342400  1
  N  N3191  1  0.626900  0.727200  0.157600  1
  N  N3192  1  0.873100  0.772800  0.657600  1
  N  N3193  1  0.136400  0.548300  0.902700  1
  N  N3194  1  0.363600  0.951700  0.402700  1
  N  N3195  1  0.863600  0.451700  0.097300  1
  N  N3196  1  0.636400  0.048300  0.597300  1
  N  N3197  1  0.766100  0.492700  0.941100  1
  N  N3198  1  0.733900  0.007300  0.441100  1
  N  N3199  1  0.233900  0.507300  0.058900  1
  N  N3200  1  0.266100  0.992700  0.558900  1
  N  N3201  1  0.587000  0.755200  0.629700  1
  N  N3202  1  0.913000  0.744800  0.129700  1
  N  N3203  1  0.413000  0.244800  0.370300  1
  N  N3204  1  0.087000  0.255200  0.870300  1
  N  N3205  1  0.684200  0.511600  0.944700  1
  N  N3206  1  0.815800  0.988400  0.444700  1
  N  N3207  1  0.315800  0.488400  0.055300  1
  N  N3208  1  0.184200  0.011600  0.555300  1
  N  N3209  1  0.458800  0.223900  0.612800  1
  N  N3210  1  0.041200  0.276100  0.112800  1
  N  N3211  1  0.541200  0.776100  0.387200  1
  N  N3212  1  0.958800  0.723900  0.887200  1
  N  N3213  1  0.690500  0.430600  0.939300  1
  N  N3214  1  0.809500  0.069400  0.439300  1
  N  N3215  1  0.309500  0.569400  0.060700  1
  N  N3216  1  0.190500  0.930600  0.560700  1
  N  N3217  1  0.023500  0.503500  0.596700  1
  N  N3218  1  0.476500  0.996500  0.096700  1
  N  N3219  1  0.976500  0.496500  0.403300  1
  N  N3220  1  0.523500  0.003500  0.903300  1
  N  N3221  1  0.672300  0.780900  0.606200  1
  N  N3222  1  0.827700  0.719100  0.106200  1
  N  N3223  1  0.327700  0.219100  0.393800  1
  N  N3224  1  0.172300  0.280900  0.893800  1
  N  N3225  1  0.402200  0.250700  0.653420  1
  N  N3226  1  0.097800  0.249300  0.153420  1
  N  N3227  1  0.597800  0.749300  0.346580  1
  N  N3228  1  0.902200  0.750700  0.846580  1
  N  N3229  1  0.653900  0.796300  0.664960  1
  N  N3230  1  0.846100  0.703700  0.164960  1
  N  N3231  1  0.346100  0.203700  0.335040  1
  N  N3232  1  0.153900  0.296300  0.835040  1
  N  N3233  1  0.979000  0.423500  0.587100  1
  N  N3234  1  0.521000  0.076500  0.087100  1
  N  N3235  1  0.021000  0.576500  0.412900  1
  N  N3236  1  0.479000  0.923500  0.912900  1
  N  N3237  1  0.416800  0.281700  0.596610  1
  N  N3238  1  0.083200  0.218300  0.096610  1
  N  N3239  1  0.583200  0.718300  0.403390  1
  N  N3240  1  0.916800  0.781700  0.903390  1
  N  N3241  1  0.025700  0.442800  0.638500  1
  N  N3242  1  0.474300  0.057200  0.138500  1
  N  N3243  1  0.974300  0.557200  0.361500  1
  N  N3244  1  0.525700  0.942800  0.861500  1
  N  N3245  1  0.747100  0.529600  0.900700  1
  N  N3246  1  0.752900  0.970400  0.400700  1
  N  N3247  1  0.252900  0.470400  0.099300  1
  N  N3248  1  0.247100  0.029600  0.599300  1
  N  N3249  1  0.611200  0.720300  0.668800  1
  N  N3250  1  0.888800  0.779700  0.168800  1
  N  N3251  1  0.388800  0.279700  0.331200  1
  N  N3252  1  0.111200  0.220300  0.831200  1
  N  N3253  1  0.659900  0.474600  0.899900  1
  N  N3254  1  0.840100  0.025400  0.399900  1
  N  N3255  1  0.340100  0.525400  0.100100  1
  N  N3256  1  0.159900  0.974600  0.600100  1
  N  N3257  1  0.489900  0.263900  0.655300  1
  N  N3258  1  0.010100  0.236100  0.155300  1
  N  N3259  1  0.510100  0.736100  0.344700  1
  N  N3260  1  0.989900  0.763900  0.844700  1
  N  N3261  1  0.731600  0.444800  0.896800  1
  N  N3262  1  0.768400  0.055200  0.396800  1
  N  N3263  1  0.268400  0.555200  0.103200  1
  N  N3264  1  0.231600  0.944800  0.603200  1
  N  N3265  1  0.983000  0.503100  0.644400  1
  N  N3266  1  0.517000  0.996900  0.144400  1
  N  N3267  1  0.017000  0.496900  0.355600  1
  N  N3268  1  0.483000  0.003100  0.855600  1
  N  N3269  1  0.639100  0.713800  0.610800  1
  N  N3270  1  0.860900  0.786200  0.110800  1
  N  N3271  1  0.360900  0.286200  0.389200  1
  N  N3272  1  0.139100  0.213800  0.889200  1
  N  N3273  1  0.441200  0.319100  0.645400  1
  N  N3274  1  0.058800  0.180900  0.145400  1
  N  N3275  1  0.558800  0.680900  0.354600  1
  N  N3276  1  0.941200  0.819100  0.854600  1
  N  N3277  1  0.701000  0.749500  0.654500  1
  N  N3278  1  0.799000  0.750500  0.154500  1
  N  N3279  1  0.299000  0.250500  0.345500  1
  N  N3280  1  0.201000  0.249500  0.845500  1
  N  N3281  1  0.932800  0.469800  0.593300  1
  N  N3282  1  0.567200  0.030200  0.093300  1
  N  N3283  1  0.067200  0.530200  0.406700  1
  N  N3284  1  0.432800  0.969800  0.906700  1
  N  N3285  1  0.494700  0.299300  0.602900  1
  N  N3286  1  0.005300  0.200700  0.102900  1
  N  N3287  1  0.505300  0.700700  0.397100  1
  N  N3288  1  0.994700  0.799300  0.897100  1
  N  N3289  1  0.946500  0.421000  0.638600  1
  N  N3290  1  0.553500  0.079000  0.138600  1
  N  N3291  1  0.053500  0.579000  0.361400  1
  N  N3292  1  0.446500  0.921000  0.861400  1
