
#######################################################################
#
#                 Cambridge Crystallographic Data Centre
#                                CCDC 
#
#######################################################################
#
# If this CIF has been generated from an entry in the Cambridge 
# Structural Database, then it will include bibliographic, chemical, 
# crystal, experimental, refinement or atomic coordinate data resulting 
# from the CCDC's data processing and validation procedures.
#
#######################################################################

data_UZOSOS
_chemical_formula_moiety         
'C192 H156 Fe4 N24 8+,8(B1 F4 1-),20(C1 H3 N1 O2)'
_chemical_name_systematic        
"hexakis(\m~2~-N,N'-bis(pyridin-2-ylmethylene)-1,1':4',1''-terphenyl-4,4''-diamine)-tetra-iron(ii) octakis(tetrafluoroborate) nitromethane solvate"
_symmetry_cell_setting           monoclinic
_symmetry_space_group_name_H-M   'P 21/n'
_symmetry_Int_Tables_number      14
_space_group_name_Hall           '-P 2yn'
loop_
_symmetry_equiv_pos_site_id
_symmetry_equiv_pos_as_xyz
1 x,y,z
2 1/2-x,1/2+y,1/2-z
3 -x,-y,-z
4 1/2+x,1/2-y,1/2+z
_cell_length_a                   32.3941(19)
_cell_length_b                   47.504(3)
_cell_length_c                   36.205(2)
_cell_angle_alpha                90
_cell_angle_beta                 104.098(2)
_cell_angle_gamma                90
_cell_volume                     54036
_exptl_crystal_colour            purple
_exptl_crystal_description       block
_cell_formula_units_Z            8
loop_
_atom_site_label
_atom_site_type_symbol
_atom_site_fract_x
_atom_site_fract_y
_atom_site_fract_z
C193 C 0.4122(3) 0.12466(18) 0.1932(3)
N13 N 0.3827(4) 0.1092(2) 0.2069(2)
C194 C 0.3617(3) 0.0867(2) 0.1859(4)
H156 H 0.3415 0.0761 0.1953
C195 C 0.3702(4) 0.07960(19) 0.1513(3)
H157 H 0.3558 0.0642 0.1370
C196 C 0.3997(4) 0.0951(3) 0.1376(2)
H158 H 0.4055 0.0902 0.1139
C197 C 0.4207(3) 0.1176(2) 0.1585(4)
H159 H 0.4409 0.1281 0.1491
C198 C 0.4285(4) 0.1504(3) 0.2125(5)
H160 H 0.4448 0.1643 0.2035
C199 C 0.4337(3) 0.17708(16) 0.2679(2)
C200 C 0.4759(3) 0.17652(17) 0.2886(3)
H161 H 0.4925 0.1600 0.2887
C201 C 0.4938(2) 0.2001(2) 0.3091(3)
C202 C 0.4695(3) 0.22422(18) 0.3089(2)
C203 C 0.4273(3) 0.22477(16) 0.2883(3)
H162 H 0.4106 0.2413 0.2882
C204 C 0.4094(2) 0.2012(2) 0.2677(2)
H163 H 0.3805 0.2016 0.2536
C205 C 0.5394(6) 0.1950(4) 0.3295(5)
H164 H 0.5510 0.2120 0.3437
H165 H 0.5559 0.1906 0.3110
H166 H 0.5410 0.1792 0.3473
C206 C 0.4878(3) 0.24996(15) 0.3304(3)
C207 C 0.5208(3) 0.2654(2) 0.3218(2)
H167 H 0.5330 0.2595 0.3017
C208 C 0.5359(2) 0.28942(19) 0.3426(3)
H168 H 0.5584 0.3000 0.3368
C209 C 0.5181(3) 0.29802(15) 0.3720(3)
C210 C 0.4851(3) 0.2826(2) 0.3806(2)
H169 H 0.4729 0.2885 0.4007
C211 C 0.4700(2) 0.25856(18) 0.3598(3)
H170 H 0.4475 0.2480 0.3656
C212 C 0.5351(3) 0.32530(17) 0.3936(3)
C213 C 0.5505(3) 0.32521(18) 0.4329(3)
C214 C 0.5644(3) 0.3501(3) 0.4521(2)
H171 H 0.5749 0.3501 0.4790
C215 C 0.5627(3) 0.37517(18) 0.4319(3)
C216 C 0.5473(3) 0.37526(17) 0.3925(3)
H172 H 0.5462 0.3924 0.3787
C217 C 0.5335(3) 0.3503(2) 0.3734(2)
H173 H 0.5229 0.3504 0.3465
C218 C 0.5528(5) 0.3002(3) 0.4584(4)
H174 H 0.5443 0.2833 0.4429
H175 H 0.5336 0.3030 0.4752
H176 H 0.5820 0.2979 0.4738
C219 C 0.5475(5) 0.4117(3) 0.4679(4)
H177 H 0.5228 0.4013 0.4689
C220 C 0.5571(4) 0.43910(17) 0.4858(3)
N14 N 0.5962(3) 0.4488(2) 0.4818(3)
C221 C 0.6124(3) 0.4742(2) 0.4985(3)
H178 H 0.6391 0.4809 0.4958
C222 C 0.5893(4) 0.48980(17) 0.5190(3)
H179 H 0.6004 0.5071 0.5304
C223 C 0.5502(4) 0.4801(2) 0.5230(3)
H180 H 0.5344 0.4907 0.5371
C224 C 0.5341(3) 0.4547(2) 0.5064(3)
H181 H 0.5073 0.4480 0.5091
C225 C 0.3578(4) 0.0713(5) 0.2754(4)
N15 N 0.3353(6) 0.0949(3) 0.2589(4)
C226 C 0.2911(6) 0.0943(3) 0.2477(4)
H182 H 0.2758 0.1104 0.2364
C227 C 0.2694(4) 0.0700(4) 0.2532(4)
H183 H 0.2392 0.0695 0.2455
C228 C 0.2918(6) 0.0464(3) 0.2697(4)
H184 H 0.2770 0.0298 0.2734
C229 C 0.3360(6) 0.0471(3) 0.2808(4)
H185 H 0.3514 0.0309 0.2921
C230 C 0.4046(5) 0.0751(4) 0.2974(5)
H186 H 0.4213 0.0632 0.3162
C231 C 0.4627(2) 0.10444(17) 0.2961(3)
C232 C 0.4809(3) 0.10993(18) 0.3344(3)
H187 H 0.4636 0.1105 0.3521
C233 C 0.5245(4) 0.11457(18) 0.3466(2)
C234 C 0.5498(2) 0.11373(18) 0.3206(3)
C235 C 0.5316(3) 0.10824(18) 0.2824(3)
H188 H 0.5489 0.1077 0.2647
C236 C 0.4880(3) 0.10360(17) 0.2702(2)
H189 H 0.4755 0.0998 0.2441
C237 C 0.5431(5) 0.1191(3) 0.3892(4)
H190 H 0.5737 0.1227 0.3939
H191 H 0.5384 0.1022 0.4032
H192 H 0.5291 0.1352 0.3979
C238 C 0.5978(2) 0.1193(2) 0.3340(3)
C239 C 0.6243(4) 0.10170(18) 0.3601(3)
H193 H 0.6125 0.0864 0.3711
C240 C 0.6679(4) 0.1064(2) 0.3702(3)
H194 H 0.6860 0.0944 0.3881
C241 C 0.6851(2) 0.1288(2) 0.3542(3)
C242 C 0.6587(4) 0.14636(18) 0.3280(3)
H195 H 0.6705 0.1616 0.3171
C243 C 0.6151(3) 0.1416(2) 0.3180(2)
H196 H 0.5970 0.1537 0.3001
C244 C 0.7323(3) 0.1328(3) 0.3655(3)
C245 C 0.7499(4) 0.1576(2) 0.3826(3)
C246 C 0.7938(4) 0.16125(19) 0.3924(3)
H197 H 0.8058 0.1782 0.4041
C247 C 0.8201(3) 0.1400(3) 0.3851(3)
C248 C 0.8026(4) 0.1151(2) 0.3679(3)
H198 H 0.8206 0.1006 0.3629
C249 C 0.7587(4) 0.1115(2) 0.3582(3)
H199 H 0.7467 0.0945 0.3464
C250 C 0.7227(7) 0.1865(5) 0.3961(7)
H200 H 0.6920 0.1835 0.3872
H201 H 0.7308 0.2037 0.3848
H202 H 0.7303 0.1882 0.4239
C251 C 0.8826(5) 0.1591(3) 0.3801(5)
H203 H 0.8649 0.1673 0.3579
C252 C 0.9290(3) 0.1655(3) 0.3913(3)
N16 N 0.9473(4) 0.1469(2) 0.4203(3)
C253 C 0.9912(4) 0.1460(2) 0.4341(3)
H204 H 1.0037 0.1333 0.4539
C254 C 1.0170(3) 0.1637(3) 0.4188(4)
H205 H 1.0470 0.1631 0.4282
C255 C 0.9987(4) 0.1823(2) 0.3898(4)
H206 H 1.0163 0.1944 0.3794
C256 C 0.9548(5) 0.1832(2) 0.3760(3)
H207 H 0.9423 0.1959 0.3562
C257 C 0.3117(3) 0.1677(2) 0.2545(2)
N17 N 0.3265(2) 0.15143(17) 0.2286(4)
C258 C 0.3081(3) 0.15401(19) 0.1898(3)
H208 H 0.3182 0.1429 0.1720
C259 C 0.2749(3) 0.1729(2) 0.1770(2)
H209 H 0.2623 0.1746 0.1505
C260 C 0.2601(3) 0.18917(18) 0.2030(4)
H210 H 0.2374 0.2021 0.1942
C261 C 0.2785(3) 0.18660(19) 0.2417(3)
H211 H 0.2684 0.1977 0.2595
C262 C 0.3337(4) 0.1623(3) 0.2908(4)
H212 H 0.3257 0.1713 0.3114
C263 C 0.3855(2) 0.1414(2) 0.33811(19)
C264 C 0.4116(3) 0.16321(15) 0.3558(3)
H213 H 0.4140 0.1799 0.3421
C265 C 0.4341(3) 0.16052(19) 0.3936(3)
C266 C 0.4306(3) 0.1360(2) 0.4136(2)
C267 C 0.4046(3) 0.11424(17) 0.3959(3)
H214 H 0.4022 0.0975 0.4096
C268 C 0.3820(2) 0.11693(16) 0.3582(3)
H215 H 0.3642 0.1020 0.3460
C269 C 0.4635(5) 0.1865(3) 0.4083(4)
H216 H 0.4779 0.1837 0.4352
H217 H 0.4462 0.2036 0.4056
H218 H 0.4848 0.1884 0.3934
C270 C 0.4475(3) 0.1336(2) 0.4557(2)
C271 C 0.4728(3) 0.11011(19) 0.4680(3)
H219 H 0.4764 0.0962 0.4502
C272 C 0.4928(3) 0.10701(17) 0.5064(3)
H220 H 0.5101 0.0910 0.5148
C273 C 0.4876(3) 0.1274(2) 0.5325(2)
C274 C 0.4623(3) 0.15081(19) 0.5202(3)
H221 H 0.4587 0.1647 0.5380
C275 C 0.4423(3) 0.15391(18) 0.4818(3)
H222 H 0.4250 0.1699 0.4734
C276 C 0.5099(4) 0.12414(19) 0.5748(2)
C277 C 0.5539(4) 0.12283(19) 0.5877(3)
C278 C 0.5726(2) 0.12090(18) 0.6265(4)
H223 H 0.6026 0.1200 0.6353
C279 C 0.5471(4) 0.12028(19) 0.6524(2)
C280 C 0.5031(4) 0.12159(18) 0.6395(3)
H224 H 0.4858 0.1212 0.6572
C281 C 0.4845(2) 0.12352(17) 0.6007(4)
H225 H 0.4544 0.1244 0.5918
C282 C 0.5822(5) 0.1249(3) 0.5629(4)
H226 H 0.5656 0.1257 0.5364
H227 H 0.6010 0.1084 0.5664
H228 H 0.5994 0.1420 0.5690
C283 C 0.5783(5) 0.0896(4) 0.7024(5)
H229 H 0.5779 0.0752 0.6841
C284 C 0.5947(3) 0.0872(3) 0.7412(2)
N18 N 0.5932(3) 0.11155(19) 0.7622(3)
C285 C 0.6077(3) 0.1111(2) 0.8016(3)
H230 H 0.6066 0.1277 0.8160
C286 C 0.6237(3) 0.0863(3) 0.8201(2)
H231 H 0.6336 0.0860 0.8471
C287 C 0.6253(3) 0.0620(2) 0.7991(4)
H232 H 0.6363 0.0451 0.8118
C288 C 0.6108(3) 0.06246(19) 0.7597(4)
H233 H 0.6119 0.0458 0.7454
C289 C 0.6127(3) 0.4285(2) 0.3745(5)
N19 N 0.6010(4) 0.4425(3) 0.4042(3)
C290 C 0.5715(4) 0.4642(2) 0.3964(4)
H234 H 0.5635 0.4738 0.4166
C291 C 0.5536(3) 0.4720(2) 0.3589(5)
H235 H 0.5334 0.4869 0.3535
C292 C 0.5652(5) 0.4580(3) 0.3292(3)
H236 H 0.5530 0.4634 0.3036
C293 C 0.5948(5) 0.4363(3) 0.3370(4)
H237 H 0.6027 0.4267 0.3168
C294 C 0.6356(4) 0.4031(3) 0.3795(5)
H238 H 0.6402 0.3911 0.3599
C295 C 0.6734(3) 0.37273(19) 0.4262(3)
C296 C 0.6562(2) 0.3462(2) 0.4162(3)
H239 H 0.6267 0.3442 0.4047
C297 C 0.6821(4) 0.32252(17) 0.4231(3)
C298 C 0.7253(3) 0.32539(19) 0.4401(3)
C299 C 0.7425(2) 0.3519(2) 0.4501(3)
H240 H 0.7720 0.3539 0.4616
C300 C 0.7165(4) 0.37559(17) 0.4432(3)
H241 H 0.7283 0.3937 0.4500
C301 C 0.6560(6) 0.2951(4) 0.4160(6)
H242 H 0.6262 0.2996 0.4039
H243 H 0.6576 0.2856 0.4404
H244 H 0.6675 0.2828 0.3993
C302 C 0.7522(3) 0.29806(17) 0.4495(4)
C303 C 0.7547(3) 0.2803(2) 0.4196(2)
H245 H 0.7393 0.2846 0.3944
C304 C 0.7797(3) 0.2562(2) 0.4266(3)
H246 H 0.7814 0.2440 0.4062
C305 C 0.8022(3) 0.24983(17) 0.4635(4)
C306 C 0.7996(3) 0.2676(2) 0.4934(2)
H247 H 0.8150 0.2632 0.5186
C307 C 0.7747(3) 0.2917(2) 0.4864(3)
H248 H 0.7729 0.3038 0.5068
C308 C 0.8309(3) 0.22387(19) 0.4697(3)
C309 C 0.8206(3) 0.2008(3) 0.4893(3)
C310 C 0.8449(4) 0.1763(2) 0.4923(3)
H249 H 0.8379 0.1605 0.5057
C311 C 0.8793(3) 0.17501(19) 0.4758(3)
C312 C 0.8895(3) 0.1981(3) 0.4561(3)
H250 H 0.9130 0.1972 0.4448
C313 C 0.8653(4) 0.2225(2) 0.4531(3)
H251 H 0.8723 0.2383 0.4397
C314 C 0.7881(6) 0.1981(4) 0.5111(6)
H252 H 0.7888 0.1790 0.5215
H253 H 0.7600 0.2019 0.4944
H254 H 0.7939 0.2118 0.5321
C315 C 0.9285(6) 0.1460(4) 0.5110(6)
H255 H 0.9259 0.1572 0.5320
C316 C 0.9588(5) 0.1221(2) 0.5134(5)
N20 N 0.9487(4) 0.1052(3) 0.4811(4)
C317 C 0.9736(6) 0.0819(3) 0.4783(4)
H256 H 0.9667 0.0704 0.4562
C318 C 1.0086(5) 0.0754(3) 0.5078(6)
H257 H 1.0257 0.0595 0.5059
C319 C 1.0187(4) 0.0923(5) 0.5401(5)
H258 H 1.0426 0.0879 0.5603
C320 C 0.9938(6) 0.1157(4) 0.5429(4)
H259 H 1.0007 0.1272 0.5650
C321 C 0.7080(5) 0.4368(2) 0.4946(3)
N21 N 0.6774(3) 0.4451(2) 0.4625(4)
C322 C 0.6866(4) 0.4659(3) 0.4389(3)
H260 H 0.6657 0.4716 0.4169
C323 C 0.7265(5) 0.4786(2) 0.4474(4)
H261 H 0.7329 0.4928 0.4312
C324 C 0.7572(3) 0.4703(3) 0.4795(5)
H262 H 0.7845 0.4789 0.4853
C325 C 0.7480(4) 0.4494(3) 0.5031(3)
H263 H 0.7689 0.4437 0.5251
C326 C 0.6980(5) 0.4158(3) 0.5165(5)
H264 H 0.7147 0.4098 0.5405
C327 C 0.6485(3) 0.38121(19) 0.5195(3)
C328 C 0.6680(3) 0.3555(3) 0.5166(3)
H265 H 0.6885 0.3541 0.5019
C329 C 0.6575(3) 0.33200(18) 0.5353(3)
C330 C 0.6275(3) 0.33415(18) 0.5568(3)
C331 C 0.6080(3) 0.3598(2) 0.5597(2)
H266 H 0.5875 0.3613 0.5744
C332 C 0.6185(3) 0.38336(17) 0.5410(3)
H267 H 0.6051 0.4009 0.5430
C333 C 0.6815(5) 0.3018(3) 0.5335(5)
H268 H 0.6694 0.2875 0.5473
H269 H 0.7120 0.3038 0.5452
H270 H 0.6774 0.2960 0.5069
C334 C 0.6160(4) 0.30787(16) 0.5783(3)
C335 C 0.6461(2) 0.2946(2) 0.6070(3)
H271 H 0.6747 0.3013 0.6136
C336 C 0.6345(3) 0.27172(19) 0.6261(2)
H272 H 0.6550 0.2627 0.6457
C337 C 0.5927(4) 0.26205(16) 0.6165(3)
C338 C 0.5626(2) 0.2753(2) 0.5878(3)
H273 H 0.5341 0.2687 0.5812
C339 C 0.5743(3) 0.2982(2) 0.5687(2)
H274 H 0.5537 0.3072 0.5491
C340 C 0.5791(3) 0.2378(2) 0.6368(3)
C341 C 0.5561(3) 0.2149(3) 0.6187(2)
C342 C 0.5433(3) 0.19385(19) 0.6402(4)
H275 H 0.5275 0.1782 0.6279
C343 C 0.5534(3) 0.19579(19) 0.6797(3)
C344 C 0.5764(3) 0.2187(2) 0.6977(2)
H276 H 0.5834 0.2200 0.7247
C345 C 0.5893(3) 0.23974(17) 0.6762(3)
H277 H 0.6050 0.2554 0.6886
C346 C 0.5437(5) 0.2111(3) 0.5712(4)
H278 H 0.5551 0.2271 0.5597
H279 H 0.5127 0.2104 0.5617
H280 H 0.5562 0.1936 0.5646
C347 C 0.4958(5) 0.1756(3) 0.7001(4)
H281 H 0.4780 0.1893 0.6849
C348 C 0.4812(4) 0.1556(2) 0.7214(3)
N22 N 0.5110(3) 0.1353(3) 0.7377(3)
C349 C 0.4993(4) 0.1129(2) 0.7578(3)
H282 H 0.5197 0.0991 0.7689
C350 C 0.4577(5) 0.1109(2) 0.7616(3)
H283 H 0.4497 0.0956 0.7753
C351 C 0.4279(3) 0.1312(3) 0.7453(4)
H284 H 0.3995 0.1298 0.7479
C352 C 0.4396(4) 0.1535(2) 0.7252(3)
H285 H 0.4192 0.1674 0.7141
C353 C 0.8837(4) 0.0690(4) 0.4092(4)
N23 N 0.9059(4) 0.0932(3) 0.4043(4)
C354 C 0.9265(4) 0.0948(3) 0.3749(5)
H286 H 0.9417 0.1113 0.3715
C355 C 0.9250(5) 0.0720(5) 0.3503(4)
H287 H 0.9391 0.0731 0.3302
C356 C 0.9029(6) 0.0478(3) 0.3552(5)
H288 H 0.9018 0.0323 0.3385
C357 C 0.8822(5) 0.0463(3) 0.3847(6)
H289 H 0.8671 0.0298 0.3880
C358 C 0.8548(5) 0.0732(3) 0.4349(4)
H290 H 0.8335 0.0605 0.4385
C359 C 0.8378(4) 0.10260(19) 0.4803(3)
C360 C 0.7946(4) 0.1085(2) 0.4676(3)
H291 H 0.7817 0.1088 0.4410
C361 C 0.7704(3) 0.1140(2) 0.4936(4)
C362 C 0.7894(4) 0.1135(2) 0.5324(4)
C363 C 0.8325(5) 0.1076(2) 0.5452(2)
H292 H 0.8455 0.1073 0.5717
C364 C 0.8568(3) 0.1022(2) 0.5192(4)
H293 H 0.8863 0.0981 0.5279
C365 C 0.7201(7) 0.1179(4) 0.4745(6)
H294 H 0.7151 0.1172 0.4467
H295 H 0.7106 0.1361 0.4822
H296 H 0.7042 0.1027 0.4831
C366 C 0.7629(3) 0.1205(2) 0.5614(3)
C367 C 0.7727(3) 0.1442(2) 0.5846(3)
H297 H 0.7955 0.1561 0.5824
C368 C 0.7491(3) 0.15032(17) 0.6109(3)
H298 H 0.7558 0.1665 0.6267
C369 C 0.7157(3) 0.1329(2) 0.6141(3)
C370 C 0.7059(3) 0.1092(2) 0.5909(3)
H299 H 0.6831 0.0973 0.5931
C371 C 0.7295(3) 0.10308(17) 0.5646(3)
H300 H 0.7227 0.0869 0.5488
C372 C 0.6900(3) 0.1402(2) 0.6436(2)
C373 C 0.6707(3) 0.1661(2) 0.6450(3)
C374 C 0.6500(3) 0.17175(16) 0.6737(3)
H301 H 0.6368 0.1895 0.6746
C375 C 0.6488(3) 0.1514(2) 0.7010(2)
C376 C 0.6681(3) 0.1254(2) 0.6996(3)
H302 H 0.6672 0.1115 0.7182
C377 C 0.6887(3) 0.11981(17) 0.6709(3)
H303 H 0.7019 0.1021 0.6700
C378 C 0.6691(5) 0.1877(3) 0.6134(4)
H304 H 0.6863 0.1810 0.5963
H305 H 0.6804 0.2057 0.6246
H306 H 0.6395 0.1902 0.5989
C379 C 0.6419(4) 0.1775(3) 0.7518(4)
H307 H 0.6671 0.1873 0.7504
C380 C 0.6217(3) 0.1842(2) 0.7792(3)
N24 N 0.5840(4) 0.16961(17) 0.7772(3)
C381 C 0.5593(3) 0.1759(2) 0.8026(3)
H308 H 0.5335 0.1659 0.8013
C382 C 0.5723(4) 0.1966(2) 0.8300(3)
H309 H 0.5555 0.2009 0.8474
C383 C 0.6100(4) 0.21119(18) 0.8320(3)
H310 H 0.6189 0.2254 0.8507
C384 C 0.6347(3) 0.2049(2) 0.8066(3)
H311 H 0.6605 0.2149 0.8079
N37 N 0.4176(3) 0.1513(2) 0.2426(4)
N38 N 0.5746(4) 0.4030(3) 0.4511(4)
N39 N 0.4166(3) 0.1000(2) 0.2832(3)
N40 N 0.8664(4) 0.1421(2) 0.4013(3)
N41 N 0.3642(4) 0.1456(2) 0.2973(3)
N42 N 0.5624(4) 0.1168(3) 0.6947(3)
N43 N 0.6496(3) 0.3988(2) 0.4162(4)
N44 N 0.9057(4) 0.1496(3) 0.4754(4)
N45 N 0.6601(4) 0.4054(2) 0.4981(3)
N46 N 0.5370(4) 0.1736(3) 0.7031(4)
N47 N 0.6269(4) 0.1576(3) 0.7272(4)
N48 N 0.8636(4) 0.0973(3) 0.4517(4)
Fe5 Fe 0.37430(6) 0.12586(4) 0.25500(7)
Fe6 Fe 0.62642(8) 0.42307(4) 0.45217(8)
Fe7 Fe 0.90568(7) 0.12214(5) 0.44039(8)
Fe8 Fe 0.56923(7) 0.14415(5) 0.73264(7)
N1 N 0.2339(4) 0.0589(3) 0.5073(6)
C1 C 0.2231(5) 0.0379(4) 0.5300(4)
H1 H 0.2431 0.0320 0.5525
C2 C 0.1830(6) 0.0256(3) 0.5199(5)
H2 H 0.1756 0.0113 0.5354
C3 C 0.1537(4) 0.0342(3) 0.4871(5)
H3 H 0.1263 0.0258 0.4801
C4 C 0.1646(5) 0.0552(4) 0.4644(4)
H4 H 0.1446 0.0611 0.4419
C5 C 0.2047(7) 0.0675(3) 0.4745(5)
C6 C 0.2186(8) 0.0892(5) 0.4520(7)
H5 H 0.2039 0.0947 0.4271
C7 C 0.2694(4) 0.1231(2) 0.4520(3)
C8 C 0.2489(3) 0.1483(3) 0.4554(3)
H6 H 0.2272 0.1489 0.4689
C9 C 0.2603(3) 0.17275(19) 0.4392(3)
C10 C 0.2921(4) 0.17193(19) 0.4194(3)
C11 C 0.3125(3) 0.1467(3) 0.4159(3)
H7 H 0.3343 0.1461 0.4024
C12 C 0.3012(3) 0.12229(18) 0.4322(3)
H8 H 0.3152 0.1050 0.4298
C13 C 0.2361(5) 0.2015(3) 0.4433(5)
H9 H 0.2481 0.2168 0.4310
H10 H 0.2397 0.2058 0.4703
H11 H 0.2058 0.1994 0.4311
C14 C 0.3053(3) 0.19640(16) 0.3979(3)
C15 C 0.3463(3) 0.2070(2) 0.4106(2)
H12 H 0.3657 0.1983 0.4314
C16 C 0.3589(2) 0.2303(2) 0.3930(3)
H13 H 0.3869 0.2375 0.4017
C17 C 0.3305(4) 0.24307(16) 0.3626(3)
C18 C 0.2895(3) 0.2325(2) 0.3498(2)
H14 H 0.2700 0.2412 0.3291
C19 C 0.2768(2) 0.2092(2) 0.3675(3)
H15 H 0.2488 0.2019 0.3588
C20 C 0.3464(3) 0.26666(18) 0.3423(3)
C21 C 0.3654(3) 0.2905(2) 0.3614(2)
C22 C 0.3802(3) 0.31171(17) 0.3415(3)
H16 H 0.3932 0.3280 0.3545
C23 C 0.3762(3) 0.30903(19) 0.3026(3)
C24 C 0.3573(3) 0.2852(2) 0.2835(2)
H17 H 0.3545 0.2833 0.2569
C25 C 0.3424(3) 0.26397(17) 0.3034(3)
H18 H 0.3294 0.2477 0.2903
C26 C 0.3715(5) 0.2957(3) 0.4015(4)
H19 H 0.3598 0.2800 0.4132
H20 H 0.3570 0.3132 0.4053
H21 H 0.4020 0.2975 0.4133
C27 C 0.4312(5) 0.3297(3) 0.2813(4)
H22 H 0.4489 0.3147 0.2934
C28 C 0.4464(5) 0.3529(2) 0.2628(3)
N2 N 0.4130(3) 0.3703(3) 0.2448(3)
C29 C 0.4208(4) 0.3934(2) 0.2240(3)
H23 H 0.3979 0.4052 0.2116
C30 C 0.4620(5) 0.3992(2) 0.2212(3)
H24 H 0.4673 0.4150 0.2069
C31 C 0.4954(3) 0.3818(3) 0.2392(4)
H25 H 0.5235 0.3858 0.2373
C32 C 0.4876(4) 0.3587(3) 0.2601(3)
H26 H 0.5104 0.3469 0.2724
C33 C 0.3566(4) 0.06402(19) 0.4876(3)
N3 N 0.3158(4) 0.0553(3) 0.4884(3)
C34 C 0.2991(3) 0.0307(3) 0.4699(4)
H27 H 0.2713 0.0248 0.4704
C35 C 0.3232(4) 0.0148(2) 0.4507(3)
H28 H 0.3118 -0.0021 0.4381
C36 C 0.3640(4) 0.0234(3) 0.4499(3)
H29 H 0.3804 0.0125 0.4368
C37 C 0.3807(3) 0.0481(3) 0.4684(3)
H30 H 0.4085 0.0540 0.4679
C38 C 0.3663(6) 0.0899(4) 0.5057(5)
H31 H 0.3911 0.1000 0.5040
C39 C 0.3508(3) 0.12657(19) 0.5456(3)
C40 C 0.3511(3) 0.1515(3) 0.5255(2)
H32 H 0.3413 0.1516 0.4985
C41 C 0.3657(3) 0.17618(19) 0.5448(3)
C42 C 0.3800(3) 0.17601(19) 0.5843(3)
C43 C 0.3797(3) 0.1511(3) 0.6044(2)
H33 H 0.3895 0.1510 0.6313
C44 C 0.3651(3) 0.12639(18) 0.5850(3)
H34 H 0.3649 0.1094 0.5988
C45 C 0.3626(5) 0.2039(3) 0.5231(5)
H35 H 0.3519 0.2003 0.4957
H36 H 0.3908 0.2126 0.5277
H37 H 0.3431 0.2166 0.5318
C46 C 0.3982(3) 0.20144(17) 0.6072(3)
C47 C 0.3838(3) 0.2107(2) 0.6382(3)
H38 H 0.3614 0.2010 0.6456
C48 C 0.4021(3) 0.2343(2) 0.6586(2)
H39 H 0.3923 0.2406 0.6798
C49 C 0.4349(3) 0.24851(16) 0.6479(3)
C50 C 0.4492(3) 0.2392(2) 0.6168(3)
H40 H 0.4716 0.2489 0.6095
C51 C 0.4309(4) 0.2157(2) 0.5965(2)
H41 H 0.4407 0.2093 0.5752
C52 C 0.4524(3) 0.27457(18) 0.6708(2)
C53 C 0.4289(2) 0.2985(2) 0.6740(3)
C54 C 0.4481(3) 0.32112(18) 0.6959(3)
H42 H 0.4320 0.3375 0.6980
C55 C 0.4909(3) 0.31980(17) 0.7147(2)
C56 C 0.5145(2) 0.2959(2) 0.7115(2)
H43 H 0.5438 0.2950 0.7244
C57 C 0.4953(3) 0.27324(17) 0.6896(3)
H44 H 0.5114 0.2569 0.6875
C58 C 0.3806(5) 0.3011(3) 0.6540(5)
H45 H 0.3713 0.2842 0.6387
H46 H 0.3760 0.3177 0.6375
H47 H 0.3642 0.3030 0.6733
C59 C 0.4968(5) 0.3464(3) 0.7640(5)
H48 H 0.4771 0.3331 0.7693
C60 C 0.5132(3) 0.37136(18) 0.7913(3)
N4 N 0.5412(3) 0.3872(2) 0.7761(2)
C61 C 0.5627(3) 0.4098(2) 0.7963(4)
H49 H 0.5818 0.4206 0.7859
C62 C 0.5564(4) 0.4166(2) 0.8319(3)
H50 H 0.5712 0.4321 0.8457
C63 C 0.5285(4) 0.4008(3) 0.8472(2)
H51 H 0.5241 0.4054 0.8715
C64 C 0.5069(3) 0.3782(2) 0.8269(4)
H52 H 0.4878 0.3674 0.8373
C65 C 0.3002(3) 0.0712(2) 0.6023(5)
N5 N 0.3095(4) 0.0607(3) 0.5694(3)
C66 C 0.3350(4) 0.0370(3) 0.5711(3)
H53 H 0.3414 0.0299 0.5486
C67 C 0.3513(3) 0.0237(2) 0.6059(5)
H54 H 0.3687 0.0075 0.6071
C68 C 0.3420(4) 0.0342(3) 0.6388(3)
H55 H 0.3531 0.0251 0.6625
C69 C 0.3165(4) 0.0579(3) 0.6370(3)
H56 H 0.3101 0.0650 0.6595
C70 C 0.2790(6) 0.1004(4) 0.5919(7)
H57 H 0.2745 0.1140 0.6097
C71 C 0.2400(4) 0.1277(2) 0.5489(3)
C72 C 0.2597(3) 0.1535(3) 0.5591(3)
H58 H 0.2892 0.1543 0.5711
C73 C 0.2363(5) 0.1783(2) 0.5515(4)
C74 C 0.1931(5) 0.1772(2) 0.5338(4)
C75 C 0.1734(3) 0.1514(3) 0.5237(3)
H59 H 0.1439 0.1507 0.5116
C76 C 0.1969(4) 0.1267(2) 0.5312(3)
H60 H 0.1834 0.1090 0.5243
C77 C 0.2558(8) 0.2107(5) 0.5664(7)
H61 H 0.2855 0.2090 0.5807
H62 H 0.2389 0.2189 0.5828
H63 H 0.2541 0.2229 0.5442
C78 C 0.1620(3) 0.2043(2) 0.5243(5)
C79 C 0.1618(3) 0.2214(3) 0.5554(3)
H64 H 0.1777 0.2162 0.5801
C80 C 0.1382(4) 0.2462(2) 0.5503(3)
H65 H 0.1380 0.2579 0.5715
C81 C 0.1149(3) 0.2538(2) 0.5142(4)
C82 C 0.1152(4) 0.2367(3) 0.4831(3)
H66 H 0.0993 0.2419 0.4584
C83 C 0.1388(4) 0.2119(3) 0.4881(4)
H67 H 0.1390 0.2002 0.4669
C84 C 0.0892(3) 0.2812(2) 0.5081(3)
C85 C 0.0990(3) 0.3039(3) 0.4875(3)
C86 C 0.0746(4) 0.3283(2) 0.4838(3)
H68 H 0.0813 0.3438 0.4697
C87 C 0.0404(4) 0.3300(2) 0.5005(3)
C88 C 0.0306(3) 0.3073(3) 0.5211(3)
H69 H 0.0072 0.3085 0.5326
C89 C 0.0550(4) 0.2829(2) 0.5249(3)
H70 H 0.0482 0.2674 0.5389
C90 C 0.1390(6) 0.3039(4) 0.4687(6)
H71 H 0.1536 0.2857 0.4732
H72 H 0.1588 0.3189 0.4801
H73 H 0.1291 0.3071 0.4412
C91 C -0.0104(6) 0.3615(4) 0.4652(6)
H74 H -0.0147 0.3495 0.4436
N6 N -0.0235(3) 0.4033(4) 0.4965(4)
C92 C -0.0409(5) 0.4302(4) 0.4944(5)
H75 H -0.0348 0.4421 0.5162
C93 C -0.0671(5) 0.4398(3) 0.4604(7)
H76 H -0.0789 0.4582 0.4590
C94 C -0.0759(4) 0.4225(5) 0.4285(4)
H77 H -0.0938 0.4290 0.4053
C95 C -0.0586(5) 0.3956(4) 0.4306(4)
C96 C -0.0324(5) 0.3860(2) 0.4646(6)
C97 C 0.3271(3) 0.4185(3) 0.2395(2)
N7 N 0.3277(3) 0.3938(2) 0.2191(4)
C98 C 0.3119(3) 0.3937(2) 0.1798(4)
H78 H 0.3123 0.3768 0.1658
C99 C 0.2954(3) 0.4182(3) 0.1609(2)
H79 H 0.2845 0.4181 0.1341
C100 C 0.2947(3) 0.4429(2) 0.1814(4)
H80 H 0.2834 0.4596 0.1686
C101 C 0.3106(4) 0.4430(2) 0.2207(4)
H81 H 0.3101 0.4599 0.2347
C102 C 0.3457(5) 0.4147(4) 0.2785(5)
H82 H 0.3471 0.4290 0.2971
C103 C 0.3757(4) 0.38623(17) 0.3292(2)
C104 C 0.3499(2) 0.38544(17) 0.3547(3)
H83 H 0.3199 0.3872 0.3458
C105 C 0.3680(4) 0.38207(18) 0.3934(3)
C106 C 0.4119(4) 0.37949(17) 0.4066(2)
C107 C 0.4377(2) 0.38028(17) 0.3810(3)
H84 H 0.4677 0.3785 0.3900
C108 C 0.4196(3) 0.38365(17) 0.3423(3)
H85 H 0.4372 0.3842 0.3249
C109 C 0.3331(5) 0.3762(3) 0.4191(5)
H86 H 0.3481 0.3736 0.4458
H87 H 0.3168 0.3591 0.4098
H88 H 0.3137 0.3922 0.4168
C110 C 0.4309(3) 0.3753(2) 0.4481(2)
C111 C 0.4268(3) 0.39640(16) 0.4736(3)
H89 H 0.4114 0.4130 0.4646
C112 C 0.4454(3) 0.39316(18) 0.5122(3)
H90 H 0.4426 0.4076 0.5296
C113 C 0.4681(3) 0.3688(2) 0.52538(19)
C114 C 0.4722(2) 0.34773(16) 0.4999(3)
H91 H 0.4877 0.3311 0.5089
C115 C 0.4536(3) 0.35097(18) 0.4613(3)
H92 H 0.4564 0.3365 0.4439
C116 C 0.4907(3) 0.3639(2) 0.5669(2)
C117 C 0.4854(2) 0.33979(18) 0.5870(3)
C118 C 0.5075(3) 0.33681(16) 0.6248(3)
H93 H 0.5039 0.3203 0.6385
C119 C 0.5348(3) 0.3580(2) 0.6426(2)
C120 C 0.5401(3) 0.38209(18) 0.6226(3)
H94 H 0.5588 0.3966 0.6347
C121 C 0.5181(3) 0.38507(16) 0.5847(3)
H95 H 0.5217 0.4016 0.5710
C122 C 0.4543(4) 0.3168(3) 0.5665(4)
H96 H 0.4545 0.3009 0.5838
H97 H 0.4632 0.3103 0.5439
H98 H 0.4255 0.3246 0.5587
C123 C 0.5894(4) 0.3352(3) 0.6869(4)
H99 H 0.5951 0.3249 0.6662
C124 C 0.6125(3) 0.3303(2) 0.7233(2)
N8 N 0.5978(2) 0.34658(15) 0.7493(3)
C125 C 0.6164(3) 0.34407(18) 0.7880(3)
H100 H 0.6063 0.3552 0.8058
C126 C 0.6497(3) 0.3253(2) 0.8007(2)
H101 H 0.6624 0.3236 0.8272
C127 C 0.6645(2) 0.30903(17) 0.7747(3)
H102 H 0.6873 0.2962 0.7834
C128 C 0.6459(3) 0.31153(18) 0.7360(3)
H103 H 0.6560 0.3004 0.7182
C129 C 0.3095(3) 0.3191(2) 0.2008(3)
N9 N 0.3461(4) 0.33504(17) 0.2037(2)
C130 C 0.3726(3) 0.3297(2) 0.1796(3)
H104 H 0.3976 0.3407 0.1816
C131 C 0.3625(4) 0.3085(3) 0.1525(3)
H105 H 0.3807 0.3049 0.1360
C132 C 0.3259(4) 0.29253(19) 0.1495(3)
H106 H 0.3190 0.2780 0.1310
C133 C 0.2994(3) 0.2978(2) 0.1737(3)
H107 H 0.2743 0.2869 0.1717
C134 C 0.2855(5) 0.3261(3) 0.2268(4)
H108 H 0.2597 0.3165 0.2267
C135 C 0.2751(3) 0.3503(2) 0.2796(3)
C136 C 0.2732(3) 0.33087(16) 0.3078(3)
H109 H 0.2870 0.3132 0.3083
C137 C 0.2512(3) 0.3373(2) 0.3352(3)
C138 C 0.2311(3) 0.3632(3) 0.3345(3)
C139 C 0.2329(3) 0.38269(17) 0.3062(3)
H110 H 0.2192 0.4004 0.3057
C140 C 0.2549(3) 0.3762(2) 0.2788(3)
H111 H 0.2562 0.3895 0.2595
C141 C 0.2528(6) 0.3150(4) 0.3606(5)
H112 H 0.2370 0.3201 0.3796
H113 H 0.2825 0.3110 0.3735
H114 H 0.2399 0.2983 0.3466
C142 C 0.2088(3) 0.3698(2) 0.3634(2)
C143 C 0.2191(3) 0.3940(2) 0.3852(3)
H115 H 0.2413 0.4060 0.3815
C144 C 0.1970(4) 0.40081(19) 0.4124(3)
H116 H 0.2041 0.4174 0.4273
C145 C 0.1646(3) 0.3833(3) 0.4179(3)
C146 C 0.1543(3) 0.3591(2) 0.3961(3)
H117 H 0.1321 0.3471 0.3998
C147 C 0.1764(3) 0.35232(17) 0.3689(3)
H118 H 0.1693 0.3358 0.3540
C148 C 0.1382(5) 0.3889(2) 0.4497(4)
C149 C 0.1562(3) 0.3878(2) 0.4887(5)
C150 C 0.1320(5) 0.3945(2) 0.5142(3)
H119 H 0.1443 0.3937 0.5409
C151 C 0.0897(4) 0.4025(2) 0.5009(4)
C152 C 0.0716(3) 0.4036(2) 0.4619(5)
H120 H 0.0427 0.4091 0.4528
C153 C 0.0959(5) 0.3969(2) 0.4363(3)
H121 H 0.0835 0.3977 0.4097
C154 C 0.2088(8) 0.3879(5) 0.5036(8)
H122 H 0.2169 0.3890 0.5315
H123 H 0.2203 0.4043 0.4929
H124 H 0.2203 0.3706 0.4953
C155 C 0.0744(6) 0.4346(5) 0.5423(6)
H125 H 0.0905 0.4490 0.5341
C156 C 0.0479(5) 0.4352(5) 0.5736(4)
N10 N 0.0210(6) 0.4129(3) 0.5765(4)
C157 C -0.0014(4) 0.4131(3) 0.6047(6)
H126 H -0.0197 0.3978 0.6067
C158 C 0.0031(5) 0.4355(5) 0.6301(4)
H127 H -0.0122 0.4356 0.6494
C159 C 0.0300(6) 0.4578(3) 0.6272(5)
H128 H 0.0330 0.4731 0.6445
C160 C 0.0524(4) 0.4576(3) 0.5990(6)
H129 H 0.0707 0.4728 0.5970
C161 C 0.5609(3) 0.4273(3) 0.7028(3)
N11 N 0.5832(4) 0.40339(18) 0.7183(3)
C162 C 0.6268(4) 0.4049(2) 0.7342(3)
H130 H 0.6420 0.3885 0.7447
C163 C 0.6480(3) 0.4304(3) 0.7346(3)
H131 H 0.6778 0.4314 0.7454
C164 C 0.6258(5) 0.4543(2) 0.7191(4)
H132 H 0.6403 0.4717 0.7194
C165 C 0.5822(5) 0.4528(2) 0.7032(3)
H133 H 0.5670 0.4692 0.6926
C166 C 0.5157(5) 0.4228(4) 0.6949(4)
H134 H 0.4954 0.4372 0.6863
C167 C 0.4592(2) 0.39542(19) 0.6879(4)
C168 C 0.4409(4) 0.38886(19) 0.6500(3)
H135 H 0.4581 0.3880 0.6322
C169 C 0.3975(4) 0.38349(19) 0.6382(2)
C170 C 0.3724(2) 0.3847(2) 0.6643(4)
C171 C 0.3906(4) 0.3912(2) 0.7022(3)
H136 H 0.3735 0.3921 0.7200
C172 C 0.4340(4) 0.39661(19) 0.7139(2)
H137 H 0.4465 0.4011 0.7398
C173 C 0.3780(6) 0.3738(4) 0.5926(5)
H138 H 0.3473 0.3704 0.5880
H139 H 0.3922 0.3566 0.5874
H140 H 0.3831 0.3889 0.5757
C174 C 0.3233(3) 0.3799(3) 0.6534(4)
C175 C 0.3035(4) 0.3589(3) 0.6695(3)
H141 H 0.3197 0.3477 0.6896
C176 C 0.2600(4) 0.3544(2) 0.6564(4)
H142 H 0.2465 0.3401 0.6674
C177 C 0.2363(3) 0.3709(3) 0.6271(4)
C178 C 0.2561(5) 0.3919(2) 0.6109(3)
H143 H 0.2399 0.4032 0.5909
C179 C 0.2996(5) 0.3964(2) 0.6241(4)
H144 H 0.3132 0.4108 0.6130
C180 C 0.1888(3) 0.3668(3) 0.6175(3)
C181 C 0.1704(4) 0.3433(3) 0.5970(3)
C182 C 0.1263(5) 0.3412(2) 0.5851(3)
H145 H 0.1137 0.3252 0.5710
C183 C 0.1008(3) 0.3625(3) 0.5937(4)
C184 C 0.1192(5) 0.3859(3) 0.6143(4)
H146 H 0.1017 0.4004 0.6202
C185 C 0.1632(5) 0.3880(2) 0.6262(3)
H147 H 0.1758 0.4040 0.6402
C186 C 0.2009(14) 0.3107(9) 0.6084(13)
H148 H 0.2309 0.3152 0.6192
H149 H 0.1982 0.2996 0.5851
H150 H 0.1898 0.2998 0.6269
C187 C 0.0372(5) 0.3437(4) 0.5943(5)
H151 H 0.0543 0.3309 0.6117
C188 C -0.0104(3) 0.3419(3) 0.5859(4)
N12 N -0.0257(4) 0.3615(2) 0.5572(4)
C189 C -0.0693(5) 0.3643(2) 0.5423(3)
H152 H -0.0797 0.3777 0.5227
C190 C -0.0975(3) 0.3477(3) 0.5559(4)
H153 H -0.1273 0.3497 0.5457
C191 C -0.0823(5) 0.3282(2) 0.5846(4)
H154 H -0.1016 0.3168 0.5939
C192 C -0.0387(5) 0.3253(2) 0.5996(3)
H155 H -0.0282 0.3119 0.6191
N25 N 0.2529(5) 0.0993(3) 0.4704(4)
N26 N 0.3888(4) 0.3312(2) 0.2797(3)
N27 N 0.3401(4) 0.1001(3) 0.5254(4)
N28 N 0.5101(3) 0.3447(2) 0.7361(4)
N29 N 0.2684(3) 0.1032(2) 0.5552(4)
N30 N 0.0170(4) 0.3556(2) 0.4969(4)
N31 N 0.3609(4) 0.3892(3) 0.2862(3)
N32 N 0.5588(3) 0.3546(2) 0.6809(3)
N33 N 0.2990(4) 0.3455(3) 0.2505(4)
N34 N 0.0672(4) 0.4067(3) 0.5302(4)
N35 N 0.5053(3) 0.3971(2) 0.7007(3)
N36 N 0.0535(4) 0.3614(3) 0.5790(3)
Fe1 Fe 0.28669(8) 0.08004(5) 0.51910(9)
Fe2 Fe 0.35608(7) 0.36090(5) 0.24811(7)
Fe3 Fe 0.54900(7) 0.37218(5) 0.72681(7)
Fe4 Fe 0.01817(8) 0.38336(6) 0.53925(8)
loop_
_geom_bond_atom_site_label_1
_geom_bond_atom_site_label_2
_geom_bond_site_symmetry_1
_geom_bond_site_symmetry_2
N1 C1 1_555 1_555
C1 H1 1_555 1_555
C2 C1 1_555 1_555
H2 C2 1_555 1_555
C3 C2 1_555 1_555
H3 C3 1_555 1_555
C4 C3 1_555 1_555
H4 C4 1_555 1_555
C5 N1 1_555 1_555
C6 C5 1_555 1_555
H5 C6 1_555 1_555
C7 C8 1_555 1_555
C8 H6 1_555 1_555
C9 C8 1_555 1_555
C10 C9 1_555 1_555
C11 C10 1_555 1_555
H7 C11 1_555 1_555
C12 C7 1_555 1_555
H8 C12 1_555 1_555
C13 C9 1_555 1_555
H9 C13 1_555 1_555
H10 C13 1_555 1_555
H11 C13 1_555 1_555
C14 C10 1_555 1_555
C15 C14 1_555 1_555
H12 C15 1_555 1_555
C16 C15 1_555 1_555
H13 C16 1_555 1_555
C17 C16 1_555 1_555
C18 C17 1_555 1_555
H14 C18 1_555 1_555
C19 C14 1_555 1_555
H15 C19 1_555 1_555
C20 C17 1_555 1_555
C21 C20 1_555 1_555
C22 C21 1_555 1_555
H16 C22 1_555 1_555
C23 C22 1_555 1_555
C24 C23 1_555 1_555
H17 C24 1_555 1_555
C25 C20 1_555 1_555
H18 C25 1_555 1_555
C26 C21 1_555 1_555
H19 C26 1_555 1_555
H20 C26 1_555 1_555
H21 C26 1_555 1_555
C27 H22 1_555 1_555
C28 C27 1_555 1_555
N2 C28 1_555 1_555
C29 N2 1_555 1_555
H23 C29 1_555 1_555
C30 C29 1_555 1_555
H24 C30 1_555 1_555
C31 C30 1_555 1_555
H25 C31 1_555 1_555
C32 C28 1_555 1_555
H26 C32 1_555 1_555
C33 N3 1_555 1_555
N3 C34 1_555 1_555
C34 H27 1_555 1_555
C35 C34 1_555 1_555
H28 C35 1_555 1_555
C36 C35 1_555 1_555
H29 C36 1_555 1_555
C37 C33 1_555 1_555
H30 C37 1_555 1_555
C38 C33 1_555 1_555
H31 C38 1_555 1_555
C39 C40 1_555 1_555
C40 H32 1_555 1_555
C41 C40 1_555 1_555
C42 C41 1_555 1_555
C43 C42 1_555 1_555
H33 C43 1_555 1_555
C44 C39 1_555 1_555
H34 C44 1_555 1_555
C45 C41 1_555 1_555
H35 C45 1_555 1_555
H36 C45 1_555 1_555
H37 C45 1_555 1_555
C46 C42 1_555 1_555
C47 C46 1_555 1_555
H38 C47 1_555 1_555
C48 C47 1_555 1_555
H39 C48 1_555 1_555
C49 C48 1_555 1_555
C50 C49 1_555 1_555
H40 C50 1_555 1_555
C51 C46 1_555 1_555
H41 C51 1_555 1_555
C52 C49 1_555 1_555
C53 C52 1_555 1_555
C54 C53 1_555 1_555
H42 C54 1_555 1_555
C55 C54 1_555 1_555
C56 C55 1_555 1_555
H43 C56 1_555 1_555
C57 C52 1_555 1_555
H44 C57 1_555 1_555
C58 C53 1_555 1_555
H45 C58 1_555 1_555
H46 C58 1_555 1_555
H47 C58 1_555 1_555
C59 H48 1_555 1_555
C60 C59 1_555 1_555
N4 C60 1_555 1_555
C61 N4 1_555 1_555
H49 C61 1_555 1_555
C62 C61 1_555 1_555
H50 C62 1_555 1_555
C63 C62 1_555 1_555
H51 C63 1_555 1_555
C64 C60 1_555 1_555
H52 C64 1_555 1_555
C65 N5 1_555 1_555
N5 C66 1_555 1_555
C66 H53 1_555 1_555
C67 C66 1_555 1_555
H54 C67 1_555 1_555
C68 C67 1_555 1_555
H55 C68 1_555 1_555
C69 C65 1_555 1_555
H56 C69 1_555 1_555
C70 C65 1_555 1_555
H57 C70 1_555 1_555
C71 C72 1_555 1_555
C72 H58 1_555 1_555
C73 C72 1_555 1_555
C74 C73 1_555 1_555
C75 C74 1_555 1_555
H59 C75 1_555 1_555
C76 C71 1_555 1_555
H60 C76 1_555 1_555
C77 C73 1_555 1_555
H61 C77 1_555 1_555
H62 C77 1_555 1_555
H63 C77 1_555 1_555
C78 C74 1_555 1_555
C79 C78 1_555 1_555
H64 C79 1_555 1_555
C80 C79 1_555 1_555
H65 C80 1_555 1_555
C81 C80 1_555 1_555
C82 C81 1_555 1_555
H66 C82 1_555 1_555
C83 C78 1_555 1_555
H67 C83 1_555 1_555
C84 C81 1_555 1_555
C85 C84 1_555 1_555
C86 C85 1_555 1_555
H68 C86 1_555 1_555
C87 C86 1_555 1_555
C88 C87 1_555 1_555
H69 C88 1_555 1_555
C89 C84 1_555 1_555
H70 C89 1_555 1_555
C90 C85 1_555 1_555
H71 C90 1_555 1_555
H72 C90 1_555 1_555
H73 C90 1_555 1_555
C91 H74 1_555 1_555
N6 C92 1_555 1_555
C92 H75 1_555 1_555
C93 C92 1_555 1_555
H76 C93 1_555 1_555
C94 C93 1_555 1_555
H77 C94 1_555 1_555
C95 C94 1_555 1_555
C96 C91 1_555 1_555
C97 N7 1_555 1_555
N7 C98 1_555 1_555
C98 H78 1_555 1_555
C99 C98 1_555 1_555
H79 C99 1_555 1_555
C100 C99 1_555 1_555
H80 C100 1_555 1_555
C101 C97 1_555 1_555
H81 C101 1_555 1_555
C102 C97 1_555 1_555
H82 C102 1_555 1_555
C103 C104 1_555 1_555
C104 H83 1_555 1_555
C105 C104 1_555 1_555
C106 C105 1_555 1_555
C107 C106 1_555 1_555
H84 C107 1_555 1_555
C108 C103 1_555 1_555
H85 C108 1_555 1_555
C109 C105 1_555 1_555
H86 C109 1_555 1_555
H87 C109 1_555 1_555
H88 C109 1_555 1_555
C110 C106 1_555 1_555
C111 C110 1_555 1_555
H89 C111 1_555 1_555
C112 C111 1_555 1_555
H90 C112 1_555 1_555
C113 C112 1_555 1_555
C114 C113 1_555 1_555
H91 C114 1_555 1_555
C115 C110 1_555 1_555
H92 C115 1_555 1_555
C116 C113 1_555 1_555
C117 C116 1_555 1_555
C118 C117 1_555 1_555
H93 C118 1_555 1_555
C119 C118 1_555 1_555
C120 C119 1_555 1_555
H94 C120 1_555 1_555
C121 C116 1_555 1_555
H95 C121 1_555 1_555
C122 C117 1_555 1_555
H96 C122 1_555 1_555
H97 C122 1_555 1_555
H98 C122 1_555 1_555
C123 H99 1_555 1_555
C124 C123 1_555 1_555
N8 C124 1_555 1_555
C125 N8 1_555 1_555
H100 C125 1_555 1_555
C126 C125 1_555 1_555
H101 C126 1_555 1_555
C127 C126 1_555 1_555
H102 C127 1_555 1_555
C128 C124 1_555 1_555
H103 C128 1_555 1_555
C129 N9 1_555 1_555
N9 C130 1_555 1_555
C130 H104 1_555 1_555
C131 C130 1_555 1_555
H105 C131 1_555 1_555
C132 C131 1_555 1_555
H106 C132 1_555 1_555
C133 C129 1_555 1_555
H107 C133 1_555 1_555
C134 C129 1_555 1_555
H108 C134 1_555 1_555
C135 C136 1_555 1_555
C136 H109 1_555 1_555
C137 C136 1_555 1_555
C138 C137 1_555 1_555
C139 C138 1_555 1_555
H110 C139 1_555 1_555
C140 C135 1_555 1_555
H111 C140 1_555 1_555
C141 C137 1_555 1_555
H112 C141 1_555 1_555
H113 C141 1_555 1_555
H114 C141 1_555 1_555
C142 C138 1_555 1_555
C143 C142 1_555 1_555
H115 C143 1_555 1_555
C144 C143 1_555 1_555
H116 C144 1_555 1_555
C145 C144 1_555 1_555
C146 C145 1_555 1_555
H117 C146 1_555 1_555
C147 C142 1_555 1_555
H118 C147 1_555 1_555
C148 C145 1_555 1_555
C149 C148 1_555 1_555
C150 C149 1_555 1_555
H119 C150 1_555 1_555
C151 C150 1_555 1_555
C152 C151 1_555 1_555
H120 C152 1_555 1_555
C153 C148 1_555 1_555
H121 C153 1_555 1_555
C154 C149 1_555 1_555
H122 C154 1_555 1_555
H123 C154 1_555 1_555
H124 C154 1_555 1_555
C155 H125 1_555 1_555
C156 C155 1_555 1_555
N10 C156 1_555 1_555
C157 N10 1_555 1_555
H126 C157 1_555 1_555
C158 C157 1_555 1_555
H127 C158 1_555 1_555
C159 C158 1_555 1_555
H128 C159 1_555 1_555
C160 C156 1_555 1_555
H129 C160 1_555 1_555
C161 N11 1_555 1_555
N11 C162 1_555 1_555
C162 H130 1_555 1_555
C163 C162 1_555 1_555
H131 C163 1_555 1_555
C164 C163 1_555 1_555
H132 C164 1_555 1_555
C165 C161 1_555 1_555
H133 C165 1_555 1_555
C166 C161 1_555 1_555
H134 C166 1_555 1_555
C167 C168 1_555 1_555
C168 H135 1_555 1_555
C169 C168 1_555 1_555
C170 C169 1_555 1_555
C171 C170 1_555 1_555
H136 C171 1_555 1_555
C172 C167 1_555 1_555
H137 C172 1_555 1_555
C173 C169 1_555 1_555
H138 C173 1_555 1_555
H139 C173 1_555 1_555
H140 C173 1_555 1_555
C174 C170 1_555 1_555
C175 C174 1_555 1_555
H141 C175 1_555 1_555
C176 C175 1_555 1_555
H142 C176 1_555 1_555
C177 C176 1_555 1_555
C178 C177 1_555 1_555
H143 C178 1_555 1_555
C179 C174 1_555 1_555
H144 C179 1_555 1_555
C180 C177 1_555 1_555
C181 C180 1_555 1_555
C182 C181 1_555 1_555
H145 C182 1_555 1_555
C183 C182 1_555 1_555
C184 C183 1_555 1_555
H146 C184 1_555 1_555
C185 C180 1_555 1_555
H147 C185 1_555 1_555
C186 C181 1_555 1_555
H148 C186 1_555 1_555
H149 C186 1_555 1_555
H150 C186 1_555 1_555
C187 H151 1_555 1_555
C188 C187 1_555 1_555
N12 C188 1_555 1_555
C189 N12 1_555 1_555
H152 C189 1_555 1_555
C190 C189 1_555 1_555
H153 C190 1_555 1_555
C191 C190 1_555 1_555
H154 C191 1_555 1_555
C192 C188 1_555 1_555
H155 C192 1_555 1_555
C193 N13 1_555 1_555
N13 C194 1_555 1_555
C194 H156 1_555 1_555
C195 C194 1_555 1_555
H157 C195 1_555 1_555
C196 C195 1_555 1_555
H158 C196 1_555 1_555
C197 C193 1_555 1_555
H159 C197 1_555 1_555
C198 C193 1_555 1_555
H160 C198 1_555 1_555
C199 C200 1_555 1_555
C200 H161 1_555 1_555
C201 C200 1_555 1_555
C202 C201 1_555 1_555
C203 C202 1_555 1_555
H162 C203 1_555 1_555
C204 C199 1_555 1_555
H163 C204 1_555 1_555
C205 C201 1_555 1_555
H164 C205 1_555 1_555
H165 C205 1_555 1_555
H166 C205 1_555 1_555
C206 C202 1_555 1_555
C207 C206 1_555 1_555
H167 C207 1_555 1_555
C208 C207 1_555 1_555
H168 C208 1_555 1_555
C209 C208 1_555 1_555
C210 C209 1_555 1_555
H169 C210 1_555 1_555
C211 C206 1_555 1_555
H170 C211 1_555 1_555
C212 C209 1_555 1_555
C213 C212 1_555 1_555
C214 C213 1_555 1_555
H171 C214 1_555 1_555
C215 C214 1_555 1_555
C216 C215 1_555 1_555
H172 C216 1_555 1_555
C217 C212 1_555 1_555
H173 C217 1_555 1_555
C218 C213 1_555 1_555
H174 C218 1_555 1_555
H175 C218 1_555 1_555
H176 C218 1_555 1_555
C219 H177 1_555 1_555
C220 C219 1_555 1_555
N14 C220 1_555 1_555
C221 N14 1_555 1_555
H178 C221 1_555 1_555
C222 C221 1_555 1_555
H179 C222 1_555 1_555
C223 C222 1_555 1_555
H180 C223 1_555 1_555
C224 C220 1_555 1_555
H181 C224 1_555 1_555
C225 N15 1_555 1_555
N15 C226 1_555 1_555
C226 H182 1_555 1_555
C227 C226 1_555 1_555
H183 C227 1_555 1_555
C228 C227 1_555 1_555
H184 C228 1_555 1_555
C229 C225 1_555 1_555
H185 C229 1_555 1_555
C230 C225 1_555 1_555
H186 C230 1_555 1_555
C231 C232 1_555 1_555
C232 H187 1_555 1_555
C233 C232 1_555 1_555
C234 C233 1_555 1_555
C235 C234 1_555 1_555
H188 C235 1_555 1_555
C236 C231 1_555 1_555
H189 C236 1_555 1_555
C237 C233 1_555 1_555
H190 C237 1_555 1_555
H191 C237 1_555 1_555
H192 C237 1_555 1_555
C238 C234 1_555 1_555
C239 C238 1_555 1_555
H193 C239 1_555 1_555
C240 C239 1_555 1_555
H194 C240 1_555 1_555
C241 C240 1_555 1_555
C242 C241 1_555 1_555
H195 C242 1_555 1_555
C243 C238 1_555 1_555
H196 C243 1_555 1_555
C244 C241 1_555 1_555
C245 C244 1_555 1_555
C246 C245 1_555 1_555
H197 C246 1_555 1_555
C247 C246 1_555 1_555
C248 C247 1_555 1_555
H198 C248 1_555 1_555
C249 C244 1_555 1_555
H199 C249 1_555 1_555
C250 C245 1_555 1_555
H200 C250 1_555 1_555
H201 C250 1_555 1_555
H202 C250 1_555 1_555
C251 H203 1_555 1_555
C252 C251 1_555 1_555
N16 C252 1_555 1_555
C253 N16 1_555 1_555
H204 C253 1_555 1_555
C254 C253 1_555 1_555
H205 C254 1_555 1_555
C255 C254 1_555 1_555
H206 C255 1_555 1_555
C256 C252 1_555 1_555
H207 C256 1_555 1_555
C257 N17 1_555 1_555
N17 C258 1_555 1_555
C258 H208 1_555 1_555
C259 C258 1_555 1_555
H209 C259 1_555 1_555
C260 C259 1_555 1_555
H210 C260 1_555 1_555
C261 C257 1_555 1_555
H211 C261 1_555 1_555
C262 C257 1_555 1_555
H212 C262 1_555 1_555
C263 C264 1_555 1_555
C264 H213 1_555 1_555
C265 C264 1_555 1_555
C266 C265 1_555 1_555
C267 C266 1_555 1_555
H214 C267 1_555 1_555
C268 C263 1_555 1_555
H215 C268 1_555 1_555
C269 C265 1_555 1_555
H216 C269 1_555 1_555
H217 C269 1_555 1_555
H218 C269 1_555 1_555
C270 C266 1_555 1_555
C271 C270 1_555 1_555
H219 C271 1_555 1_555
C272 C271 1_555 1_555
H220 C272 1_555 1_555
C273 C272 1_555 1_555
C274 C273 1_555 1_555
H221 C274 1_555 1_555
C275 C270 1_555 1_555
H222 C275 1_555 1_555
C276 C273 1_555 1_555
C277 C276 1_555 1_555
C278 C277 1_555 1_555
H223 C278 1_555 1_555
C279 C278 1_555 1_555
C280 C279 1_555 1_555
H224 C280 1_555 1_555
C281 C276 1_555 1_555
H225 C281 1_555 1_555
C282 C277 1_555 1_555
H226 C282 1_555 1_555
H227 C282 1_555 1_555
H228 C282 1_555 1_555
C283 H229 1_555 1_555
C284 C283 1_555 1_555
N18 C284 1_555 1_555
C285 N18 1_555 1_555
H230 C285 1_555 1_555
C286 C285 1_555 1_555
H231 C286 1_555 1_555
C287 C286 1_555 1_555
H232 C287 1_555 1_555
C288 C284 1_555 1_555
H233 C288 1_555 1_555
C289 N19 1_555 1_555
N19 C290 1_555 1_555
C290 H234 1_555 1_555
C291 C290 1_555 1_555
H235 C291 1_555 1_555
C292 C291 1_555 1_555
H236 C292 1_555 1_555
C293 C289 1_555 1_555
H237 C293 1_555 1_555
C294 C289 1_555 1_555
H238 C294 1_555 1_555
C295 C296 1_555 1_555
C296 H239 1_555 1_555
C297 C296 1_555 1_555
C298 C297 1_555 1_555
C299 C298 1_555 1_555
H240 C299 1_555 1_555
C300 C295 1_555 1_555
H241 C300 1_555 1_555
C301 C297 1_555 1_555
H242 C301 1_555 1_555
H243 C301 1_555 1_555
H244 C301 1_555 1_555
C302 C298 1_555 1_555
C303 C302 1_555 1_555
H245 C303 1_555 1_555
C304 C303 1_555 1_555
H246 C304 1_555 1_555
C305 C304 1_555 1_555
C306 C305 1_555 1_555
H247 C306 1_555 1_555
C307 C302 1_555 1_555
H248 C307 1_555 1_555
C308 C305 1_555 1_555
C309 C308 1_555 1_555
C310 C309 1_555 1_555
H249 C310 1_555 1_555
C311 C310 1_555 1_555
C312 C311 1_555 1_555
H250 C312 1_555 1_555
C313 C308 1_555 1_555
H251 C313 1_555 1_555
C314 C309 1_555 1_555
H252 C314 1_555 1_555
H253 C314 1_555 1_555
H254 C314 1_555 1_555
C315 H255 1_555 1_555
C316 C315 1_555 1_555
N20 C316 1_555 1_555
C317 N20 1_555 1_555
H256 C317 1_555 1_555
C318 C317 1_555 1_555
H257 C318 1_555 1_555
C319 C318 1_555 1_555
H258 C319 1_555 1_555
C320 C316 1_555 1_555
H259 C320 1_555 1_555
C321 N21 1_555 1_555
N21 C322 1_555 1_555
C322 H260 1_555 1_555
C323 C322 1_555 1_555
H261 C323 1_555 1_555
C324 C323 1_555 1_555
H262 C324 1_555 1_555
C325 C321 1_555 1_555
H263 C325 1_555 1_555
C326 C321 1_555 1_555
H264 C326 1_555 1_555
C327 C328 1_555 1_555
C328 H265 1_555 1_555
C329 C328 1_555 1_555
C330 C329 1_555 1_555
C331 C330 1_555 1_555
H266 C331 1_555 1_555
C332 C327 1_555 1_555
H267 C332 1_555 1_555
C333 C329 1_555 1_555
H268 C333 1_555 1_555
H269 C333 1_555 1_555
H270 C333 1_555 1_555
C334 C330 1_555 1_555
C335 C334 1_555 1_555
H271 C335 1_555 1_555
C336 C335 1_555 1_555
H272 C336 1_555 1_555
C337 C336 1_555 1_555
C338 C337 1_555 1_555
H273 C338 1_555 1_555
C339 C334 1_555 1_555
H274 C339 1_555 1_555
C340 C337 1_555 1_555
C341 C340 1_555 1_555
C342 C341 1_555 1_555
H275 C342 1_555 1_555
C343 C342 1_555 1_555
C344 C343 1_555 1_555
H276 C344 1_555 1_555
C345 C340 1_555 1_555
H277 C345 1_555 1_555
C346 C341 1_555 1_555
H278 C346 1_555 1_555
H279 C346 1_555 1_555
H280 C346 1_555 1_555
C347 H281 1_555 1_555
C348 C347 1_555 1_555
N22 C348 1_555 1_555
C349 N22 1_555 1_555
H282 C349 1_555 1_555
C350 C349 1_555 1_555
H283 C350 1_555 1_555
C351 C350 1_555 1_555
H284 C351 1_555 1_555
C352 C348 1_555 1_555
H285 C352 1_555 1_555
C353 N23 1_555 1_555
N23 C354 1_555 1_555
C354 H286 1_555 1_555
C355 C354 1_555 1_555
H287 C355 1_555 1_555
C356 C355 1_555 1_555
H288 C356 1_555 1_555
C357 C353 1_555 1_555
H289 C357 1_555 1_555
C358 C353 1_555 1_555
H290 C358 1_555 1_555
C359 C360 1_555 1_555
C360 H291 1_555 1_555
C361 C360 1_555 1_555
C362 C361 1_555 1_555
C363 C362 1_555 1_555
H292 C363 1_555 1_555
C364 C359 1_555 1_555
H293 C364 1_555 1_555
C365 C361 1_555 1_555
H294 C365 1_555 1_555
H295 C365 1_555 1_555
H296 C365 1_555 1_555
C366 C362 1_555 1_555
C367 C366 1_555 1_555
H297 C367 1_555 1_555
C368 C367 1_555 1_555
H298 C368 1_555 1_555
C369 C368 1_555 1_555
C370 C369 1_555 1_555
H299 C370 1_555 1_555
C371 C366 1_555 1_555
H300 C371 1_555 1_555
C372 C369 1_555 1_555
C373 C372 1_555 1_555
C374 C373 1_555 1_555
H301 C374 1_555 1_555
C375 C374 1_555 1_555
C376 C375 1_555 1_555
H302 C376 1_555 1_555
C377 C372 1_555 1_555
H303 C377 1_555 1_555
C378 C373 1_555 1_555
H304 C378 1_555 1_555
H305 C378 1_555 1_555
H306 C378 1_555 1_555
C379 H307 1_555 1_555
C380 C379 1_555 1_555
N24 C380 1_555 1_555
C381 N24 1_555 1_555
H308 C381 1_555 1_555
C382 C381 1_555 1_555
H309 C382 1_555 1_555
C383 C382 1_555 1_555
H310 C383 1_555 1_555
C384 C380 1_555 1_555
H311 C384 1_555 1_555
N25 C6 1_555 1_555
N26 C23 1_555 1_555
N27 C38 1_555 1_555
N28 C55 1_555 1_555
N29 C70 1_555 1_555
N30 C87 1_555 1_555
N31 C102 1_555 1_555
N32 C119 1_555 1_555
N33 C134 1_555 1_555
N34 C151 1_555 1_555
N35 C166 1_555 1_555
N36 C183 1_555 1_555
N37 C198 1_555 1_555
N38 C215 1_555 1_555
N39 C230 1_555 1_555
N40 C247 1_555 1_555
N41 C262 1_555 1_555
N42 C279 1_555 1_555
N43 C294 1_555 1_555
N44 C311 1_555 1_555
N45 C326 1_555 1_555
N46 C343 1_555 1_555
N47 C375 1_555 1_555
N48 C358 1_555 1_555
Fe1 N1 1_555 1_555
Fe2 N2 1_555 1_555
Fe3 N4 1_555 1_555
Fe4 N6 1_555 1_555
Fe5 N13 1_555 1_555
Fe6 N14 1_555 1_555
Fe7 N16 1_555 1_555
Fe8 N18 1_555 1_555
C4 C5 1_555 1_555
C7 N25 1_555 1_555
C11 C12 1_555 1_555
C18 C19 1_555 1_555
C24 C25 1_555 1_555
C27 N26 1_555 1_555
C31 C32 1_555 1_555
N3 Fe1 1_555 1_555
C36 C37 1_555 1_555
C39 N27 1_555 1_555
C43 C44 1_555 1_555
C50 C51 1_555 1_555
C56 C57 1_555 1_555
C59 N28 1_555 1_555
C63 C64 1_555 1_555
N5 Fe1 1_555 1_555
C68 C69 1_555 1_555
C71 N29 1_555 1_555
C75 C76 1_555 1_555
C82 C83 1_555 1_555
C88 C89 1_555 1_555
C91 N30 1_555 1_555
N6 C96 1_555 1_555
C95 C96 1_555 1_555
N7 Fe2 1_555 1_555
C100 C101 1_555 1_555
C103 N31 1_555 1_555
C107 C108 1_555 1_555
C114 C115 1_555 1_555
C120 C121 1_555 1_555
C123 N32 1_555 1_555
N8 Fe3 1_555 1_555
C127 C128 1_555 1_555
N9 Fe2 1_555 1_555
C132 C133 1_555 1_555
C135 N33 1_555 1_555
C139 C140 1_555 1_555
C146 C147 1_555 1_555
C152 C153 1_555 1_555
C155 N34 1_555 1_555
N10 Fe4 1_555 1_555
C159 C160 1_555 1_555
N11 Fe3 1_555 1_555
C164 C165 1_555 1_555
C167 N35 1_555 1_555
C171 C172 1_555 1_555
C178 C179 1_555 1_555
C184 C185 1_555 1_555
C187 N36 1_555 1_555
N12 Fe4 1_555 1_555
C191 C192 1_555 1_555
C196 C197 1_555 1_555
C199 N37 1_555 1_555
C203 C204 1_555 1_555
C210 C211 1_555 1_555
C216 C217 1_555 1_555
C219 N38 1_555 1_555
C223 C224 1_555 1_555
N15 Fe5 1_555 1_555
C228 C229 1_555 1_555
C231 N39 1_555 1_555
C235 C236 1_555 1_555
C242 C243 1_555 1_555
C248 C249 1_555 1_555
C251 N40 1_555 1_555
C255 C256 1_555 1_555
N17 Fe5 1_555 1_555
C260 C261 1_555 1_555
C263 N41 1_555 1_555
C267 C268 1_555 1_555
C274 C275 1_555 1_555
C280 C281 1_555 1_555
C283 N42 1_555 1_555
C287 C288 1_555 1_555
N19 Fe6 1_555 1_555
C292 C293 1_555 1_555
C295 N43 1_555 1_555
C299 C300 1_555 1_555
C306 C307 1_555 1_555
C312 C313 1_555 1_555
C315 N44 1_555 1_555
N20 Fe7 1_555 1_555
C319 C320 1_555 1_555
N21 Fe6 1_555 1_555
C324 C325 1_555 1_555
C327 N45 1_555 1_555
C331 C332 1_555 1_555
C338 C339 1_555 1_555
C344 C345 1_555 1_555
C347 N46 1_555 1_555
N22 Fe8 1_555 1_555
C351 C352 1_555 1_555
N23 Fe7 1_555 1_555
C356 C357 1_555 1_555
C359 N48 1_555 1_555
C363 C364 1_555 1_555
C370 C371 1_555 1_555
C376 C377 1_555 1_555
C379 N47 1_555 1_555
N24 Fe8 1_555 1_555
C383 C384 1_555 1_555
N25 Fe1 1_555 1_555
N26 Fe2 1_555 1_555
N27 Fe1 1_555 1_555
N28 Fe3 1_555 1_555
N29 Fe1 1_555 1_555
N30 Fe4 1_555 1_555
N31 Fe2 1_555 1_555
N32 Fe3 1_555 1_555
N33 Fe2 1_555 1_555
N34 Fe4 1_555 1_555
N35 Fe3 1_555 1_555
N36 Fe4 1_555 1_555
N37 Fe5 1_555 1_555
N38 Fe6 1_555 1_555
N39 Fe5 1_555 1_555
N40 Fe7 1_555 1_555
N41 Fe5 1_555 1_555
N42 Fe8 1_555 1_555
N43 Fe6 1_555 1_555
N44 Fe7 1_555 1_555
N45 Fe6 1_555 1_555
N46 Fe8 1_555 1_555
N47 Fe8 1_555 1_555
N48 Fe7 1_555 1_555

#END
