
#######################################################################
#
#                 Cambridge Crystallographic Data Centre
#                                CCDC 
#
#######################################################################
#
# If this CIF has been generated from an entry in the Cambridge 
# Structural Database, then it will include bibliographic, chemical, 
# crystal, experimental, refinement or atomic coordinate data resulting 
# from the CCDC's data processing and validation procedures.
#
#######################################################################

data_VACSIE
_chemical_formula_moiety         
'C276 H312 Ag12 N72 O48 12+,12(B1 F4 1-),97(H2 O1)'
_chemical_name_systematic        
'dodecakis(\m-1-(pyridin-3-ylcarbonyl)-L-prolylglycyl-N-pyridin-3-yl-L-prolinamide)-dodeca-silver dodecakis(tetrafluoroborate) hydrate'
_symmetry_cell_setting           rhombohedral
_symmetry_space_group_name_H-M   'R 3'
_symmetry_Int_Tables_number      146
_space_group_name_Hall           'R 3'
loop_
_symmetry_equiv_pos_site_id
_symmetry_equiv_pos_as_xyz
1 x,y,z
2 -y,x-y,z
3 -x+y,-x,z
4 2/3+x,1/3+y,1/3+z
5 2/3-y,1/3+x-y,1/3+z
6 2/3-x+y,1/3-x,1/3+z
7 1/3+x,2/3+y,2/3+z
8 1/3-y,2/3+x-y,2/3+z
9 1/3-x+y,2/3-x,2/3+z
_cell_length_a                   31.270(12)
_cell_length_b                   31.270(12)
_cell_length_c                   44.490(17)
_cell_angle_alpha                90
_cell_angle_beta                 90
_cell_angle_gamma                120
_cell_volume                     37674.6
_exptl_crystal_colour            colorless
_exptl_crystal_description       block
_cell_formula_units_Z            3
_exptl_crystal_recrystallization_method methanol/water
loop_
_atom_site_label
_atom_site_type_symbol
_atom_site_fract_x
_atom_site_fract_y
_atom_site_fract_z
Ag1 Ag 0.25958(3) 0.55500(3) 0.75440(2)
Ag2 Ag 0.17436(4) 0.63485(4) 0.51953(2)
Ag3 Ag 0.38633(3) 0.49253(4) 0.63195(2)
Ag4 Ag 0.20161(4) 0.43733(4) 0.59186(2)
N1 N 0.3047(4) 0.5017(5) 0.4886(2)
N2 N 0.2080(5) 0.3433(5) 0.4876(3)
N3 N 0.1458(7) 0.3083(6) 0.5379(4)
H1 H 0.1712 0.3383 0.5362
N4 N 0.0581(5) 0.3313(5) 0.5789(3)
N5 N 0.0812(4) 0.4557(4) 0.5758(3)
H2 H 0.0562 0.4493 0.5639
N6 N 0.1617(4) 0.5853(4) 0.5570(2)
O1 O 0.1485(4) 0.3599(4) 0.4753(3)
O2 O 0.1044(9) 0.2348(7) 0.5185(5)
O3 O 0.1172(6) 0.3752(4) 0.5437(3)
O4 O 0.1133(3) 0.4219(3) 0.6068(2)
C1 C 0.2310(5) 0.4269(6) 0.4727(3)
C2 C 0.2706(5) 0.4537(5) 0.4922(3)
H3 H 0.2736 0.4370 0.5092
C3 C 0.2245(6) 0.4513(6) 0.4487(3)
H4 H 0.1972 0.4347 0.4354
C4 C 0.2597(6) 0.5017(6) 0.4445(3)
H5 H 0.2567 0.5197 0.4283
C5 C 0.2992(5) 0.5246(6) 0.4647(3)
H6 H 0.3233 0.5582 0.4613
C6 C 0.1918(6) 0.3730(6) 0.4787(3)
C7 C 0.2581(7) 0.3512(6) 0.4834(4)
H7 H 0.2769 0.3612 0.5025
H8 H 0.2763 0.3770 0.4681
C8 C 0.2501(10) 0.3011(9) 0.4729(6)
H9 H 0.2776 0.2959 0.4789
H10 H 0.2453 0.2970 0.4508
C9 C 0.2003(9) 0.2655(7) 0.4908(5)
H11 H 0.1820 0.2329 0.4808
H12 H 0.2079 0.2605 0.5117
C10 C 0.1713(6) 0.2901(6) 0.4906(4)
H13 H 0.1491 0.2790 0.4726
C11 C 0.1414(8) 0.2775(8) 0.5178(6)
C12 C 0.1134(8) 0.2991(7) 0.5637(4)
H14 H 0.1316 0.3036 0.5827
H15 H 0.0850 0.2650 0.5631
C13 C 0.0946(7) 0.3388(6) 0.5614(4)
C14 C 0.0311(7) 0.2916(7) 0.6012(4)
H16 H 0.0530 0.2808 0.6103
H17 H 0.0024 0.2628 0.5918
C15 C 0.0137(11) 0.3175(10) 0.6256(8)
H18 H -0.0146 0.2933 0.6378
H19 H 0.0410 0.3404 0.6389
C16 C -0.0009(6) 0.3444(6) 0.6032(5)
H20 H -0.0033 0.3713 0.6133
H21 H -0.0332 0.3214 0.5941
C17 C 0.0407(6) 0.3660(5) 0.5786(4)
H22 H 0.0275 0.3679 0.5585
C18 C 0.0821(5) 0.4167(5) 0.5891(3)
C19 C 0.1251(5) 0.5374(5) 0.5559(3)
H23 H 0.1045 0.5258 0.5387
C20 C 0.1170(4) 0.5043(5) 0.5797(3)
C21 C 0.1450(5) 0.5219(5) 0.6062(3)
H24 H 0.1397 0.5008 0.6228
C22 C 0.1804(5) 0.5710(5) 0.6070(3)
H25 H 0.1990 0.5847 0.6248
C23 C 0.1895(5) 0.6014(5) 0.5815(3)
H26 H 0.2164 0.6344 0.5819
N7 N 0.1886(4) 0.3833(4) 0.6264(2)
N8 N 0.2510(4) 0.2881(4) 0.6239(2)
N9 N 0.3542(4) 0.3415(4) 0.6333(3)
H27 H 0.3378 0.3541 0.6245
N10 N 0.4397(4) 0.4321(4) 0.6871(2)
N11 N 0.4013(4) 0.5098(4) 0.7236(2)
H28 H 0.3926 0.4927 0.7405
N12 N 0.3272(4) 0.5689(4) 0.7318(2)
O5 O 0.2523(4) 0.2948(3) 0.6751(2)
O6 O 0.3565(5) 0.2725(4) 0.6405(4)
O7 O 0.3607(4) 0.4072(4) 0.6745(2)
O8 O 0.4426(3) 0.5221(3) 0.67935(18)
C24 C 0.1520(5) 0.3707(5) 0.6465(3)
H29 H 0.1331 0.3869 0.6458
C25 C 0.1411(5) 0.3346(6) 0.6681(3)
H30 H 0.1148 0.3261 0.6819
C26 C 0.1686(6) 0.3110(6) 0.6698(3)
H31 H 0.1616 0.2864 0.6846
C27 C 0.2075(5) 0.3245(4) 0.6487(3)
C28 C 0.2157(5) 0.3619(5) 0.6273(3)
H32 H 0.2418 0.3718 0.6132
C29 C 0.2376(5) 0.3012(5) 0.6503(3)
C30 C 0.2244(6) 0.2788(6) 0.5959(3)
H33 H 0.2217 0.3075 0.5890
H34 H 0.1913 0.2489 0.5966
C31 C 0.265(3) 0.271(3) 0.5758(11)
H35 H 0.2511 0.2557 0.5560
H36 H 0.2962 0.3022 0.5729
C32 C 0.2710(7) 0.2372(6) 0.5953(4)
H37 H 0.3002 0.2347 0.5894
H38 H 0.2414 0.2039 0.5950
C33 C 0.2786(5) 0.2614(5) 0.6266(3)
H39 H 0.2626 0.2350 0.6423
C34 C 0.3337(7) 0.2946(6) 0.6342(4)
C35 C 0.4010(5) 0.3747(5) 0.6451(3)
H40 H 0.4223 0.3964 0.6288
H41 H 0.4163 0.3558 0.6529
C36 C 0.3990(5) 0.4060(5) 0.6699(3)
C37 C 0.4877(6) 0.4351(6) 0.6827(4)
H42 H 0.4955 0.4352 0.6611
H43 H 0.4893 0.4079 0.6930
C38 C 0.5218(11) 0.4850(13) 0.6974(7)
H44 H 0.5276 0.5128 0.6841
H45 H 0.5539 0.4882 0.7031
C39 C 0.4916(7) 0.4824(7) 0.7251(4)
H46 H 0.4930 0.4605 0.7407
H47 H 0.5033 0.5156 0.7338
C40 C 0.4388(5) 0.4605(5) 0.7121(3)
H48 H 0.4142 0.4380 0.7273
C41 C 0.4269(5) 0.4992(4) 0.7033(3)
C42 C 0.3450(4) 0.5384(4) 0.7352(3)
H49 H 0.3284 0.5108 0.7482
C43 C 0.3877(4) 0.5458(4) 0.7199(2)
C44 C 0.4109(5) 0.5867(4) 0.7004(3)
H50 H 0.4401 0.5934 0.6900
C45 C 0.3911(5) 0.6169(4) 0.6965(3)
H51 H 0.4056 0.6441 0.6829
C46 C 0.3494(5) 0.6065(5) 0.7129(3)
H52 H 0.3358 0.6275 0.7104
N13 N 0.4491(4) 0.6439(3) 0.7740(2)
N14 N 0.3718(4) 0.5677(4) 0.8546(2)
N15 N 0.2686(4) 0.5125(4) 0.8441(2)
H53 H 0.2866 0.5416 0.8357
N16 N 0.1884(4) 0.4235(4) 0.7881(2)
N17 N 0.2356(4) 0.4287(4) 0.7128(2)
H54 H 0.2407 0.4037 0.7154
N18 N 0.3189(4) 0.4865(4) 0.6503(2)
O9 O 0.3649(3) 0.5002(3) 0.83200(18)
O10 O 0.2594(4) 0.4639(4) 0.8840(2)
O11 O 0.2690(3) 0.4807(3) 0.78785(18)
O12 O 0.1991(3) 0.4695(3) 0.73277(17)
C47 C 0.4181(4) 0.6161(4) 0.7962(3)
H55 H 0.3935 0.6234 0.8027
C48 C 0.4555(5) 0.5646(5) 0.7991(3)
H56 H 0.4576 0.5376 0.8071
C49 C 0.4203(4) 0.5775(4) 0.8101(3)
C50 C 0.4862(4) 0.5936(5) 0.7762(3)
H57 H 0.5100 0.5863 0.7682
C51 C 0.4833(5) 0.6315(4) 0.7649(3)
H58 H 0.5062 0.6510 0.7498
C52 C 0.3839(5) 0.5459(5) 0.8339(3)
C53 C 0.4006(5) 0.6206(5) 0.8645(3)
H59 H 0.3874 0.6403 0.8551
H60 H 0.4359 0.6353 0.8592
C54 C 0.3938(7) 0.6184(6) 0.8985(4)
H61 H 0.3967 0.6493 0.9064
H62 H 0.4181 0.6120 0.9088
C55 C 0.3398(6) 0.5738(5) 0.9022(3)
H63 H 0.3342 0.5599 0.9228
H64 H 0.3150 0.5837 0.8978
C56 C 0.3380(5) 0.5364(4) 0.8788(3)
H65 H 0.3521 0.5171 0.8881
C57 C 0.2864(5) 0.5011(4) 0.8689(3)
C58 C 0.2220(5) 0.4792(5) 0.8310(3)
H66 H 0.2024 0.4959 0.8288
H67 H 0.2037 0.4505 0.8445
C59 C 0.2285(5) 0.4616(4) 0.8005(3)
C60 C 0.1389(5) 0.3976(5) 0.8000(3)
H68 H 0.1197 0.4133 0.7935
H69 H 0.1391 0.3962 0.8222
C61 C 0.1176(6) 0.3449(5) 0.7858(3)
H70 H 0.1280 0.3245 0.7973
H71 H 0.0811 0.3275 0.7848
C62 C 0.1405(5) 0.3569(5) 0.7549(3)
H72 H 0.1221 0.3672 0.7414
H73 H 0.1408 0.3281 0.7460
C63 C 0.1938(5) 0.4001(4) 0.7603(3)
H74 H 0.2175 0.3879 0.7632
C64 C 0.2093(4) 0.4370(5) 0.7339(2)
C65 C 0.2969(4) 0.4595(4) 0.6737(2)
H75 H 0.3092 0.4401 0.6824
C66 C 0.2554(4) 0.4584(4) 0.6865(3)
C67 C 0.2361(5) 0.4855(5) 0.6736(3)
H76 H 0.2072 0.4843 0.6812
C68 C 0.2603(5) 0.5136(5) 0.6494(2)
H77 H 0.2485 0.5330 0.6400
C69 C 0.3023(5) 0.5146(5) 0.6382(3)
H78 H 0.3194 0.5356 0.6217
N19 N 0.0486(4) 0.5509(4) 0.6094(2)
N20 N -0.0278(3) 0.5646(3) 0.5329(2)
N21 N 0.0366(3) 0.6034(4) 0.4837(2)
H79 H 0.0477 0.6130 0.5021
N22 N 0.1080(4) 0.5585(4) 0.4436(2)
N23 N 0.1722(4) 0.5151(4) 0.4892(2)
H80 H 0.1504 0.4838 0.4859
N24 N 0.2236(4) 0.4936(4) 0.5578(2)
O13 O -0.0269(3) 0.4972(3) 0.51499(19)
O14 O -0.0288(3) 0.5781(4) 0.45215(18)
O15 O 0.0904(3) 0.5579(3) 0.49281(18)
O16 O 0.1973(3) 0.5927(4) 0.47452(19)
C70 C 0.0327(4) 0.5558(4) 0.5816(3)
H81 H 0.0492 0.5872 0.5722
C71 C -0.0067(5) 0.5166(5) 0.5666(3)
C72 C -0.0310(5) 0.4707(5) 0.5796(3)
H82 H -0.0576 0.4439 0.5694
C73 C -0.0156(5) 0.4638(5) 0.6087(3)
H83 H -0.0320 0.4325 0.6183
C74 C 0.0247(5) 0.5050(5) 0.6227(3)
H84 H 0.0355 0.5008 0.6419
C75 C -0.0225(4) 0.5236(4) 0.5363(3)
C76 C -0.0357(5) 0.5907(5) 0.5589(3)
H85 H -0.0044 0.6199 0.5653
H86 H -0.0510 0.5683 0.5762
C77 C -0.0712(5) 0.6056(5) 0.5444(3)
H87 H -0.1059 0.5784 0.5459
H88 H -0.0683 0.6353 0.5543
C78 C -0.0548(5) 0.6162(5) 0.5116(3)
H89 H -0.0240 0.6483 0.5093
H90 H -0.0808 0.6157 0.4986
C79 C -0.0464(5) 0.5723(5) 0.5044(3)
H91 H -0.0787 0.5424 0.4995
C80 C -0.0121(4) 0.5847(4) 0.4781(3)
C81 C 0.0708(5) 0.6078(5) 0.4603(3)
H92 H 0.0990 0.6421 0.4597
H93 H 0.0541 0.6003 0.4406
C82 C 0.0902(4) 0.5709(5) 0.4668(3)
C83 C 0.1124(5) 0.5744(6) 0.4115(3)
H94 H 0.1404 0.6083 0.4086
H95 H 0.0817 0.5729 0.4044
C84 C 0.1210(6) 0.5373(7) 0.3957(3)
H96 H 0.1393 0.5511 0.3767
H97 H 0.0893 0.5072 0.3911
C85 C 0.1514(6) 0.5259(6) 0.4173(3)
H98 H 0.1867 0.5515 0.4163
H99 H 0.1479 0.4932 0.4129
C86 C 0.1293(5) 0.5260(5) 0.4480(3)
H100 H 0.1030 0.4919 0.4537
C87 C 0.1694(4) 0.5479(4) 0.4720(3)
C88 C 0.1960(5) 0.4884(5) 0.5338(3)
H101 H 0.1668 0.4575 0.5309
C89 C 0.2074(4) 0.5255(5) 0.5127(2)
C90 C 0.2507(4) 0.5677(5) 0.5164(3)
H102 H 0.2610 0.5927 0.5015
C91 C 0.2795(5) 0.5758(5) 0.5403(3)
H103 H 0.3089 0.6065 0.5430
C92 C 0.2649(5) 0.5372(6) 0.5614(3)
H104 H 0.2849 0.5423 0.5786
Ag1A Ag 0.44500(3) 0.70458(4) 0.75440(2)
Ag2A Ag 0.36515(4) 0.53951(6) 0.51953(2)
Ag3A Ag 0.50747(4) 0.89380(5) 0.63195(2)
Ag4A Ag 0.56267(4) 0.76428(6) 0.59186(2)
N1A N 0.4983(5) 0.8030(6) 0.4886(2)
N2A N 0.6567(5) 0.8647(7) 0.4876(3)
N3A N 0.6917(6) 0.8375(9) 0.5379(4)
H1A H 0.6617 0.8329 0.5362
N4A N 0.6687(5) 0.7268(7) 0.5789(3)
N5A N 0.5443(4) 0.6255(6) 0.5758(3)
H2A H 0.5507 0.6069 0.5639
N6A N 0.4147(4) 0.5764(6) 0.5570(2)
O1A O 0.6401(4) 0.7886(6) 0.4753(3)
O2A O 0.7652(7) 0.8696(11) 0.5185(5)
O3A O 0.6248(4) 0.7420(7) 0.5437(3)
O4A O 0.5781(3) 0.6914(4) 0.6068(2)
C1A C 0.5731(6) 0.8041(8) 0.4727(3)
C2A C 0.5463(5) 0.8169(7) 0.4922(3)
H3A H 0.5630 0.8366 0.5092
C3A C 0.5487(6) 0.7732(8) 0.4487(3)
H4A H 0.5653 0.7625 0.4354
C4A C 0.4983(6) 0.7580(8) 0.4445(3)
H5A H 0.4803 0.7370 0.4283
C5A C 0.4754(6) 0.7746(8) 0.4647(3)
H6A H 0.4418 0.7651 0.4613
C6A C 0.6270(6) 0.8188(8) 0.4787(3)
C7A C 0.6488(6) 0.9069(9) 0.4834(4)
H7A H 0.6388 0.9157 0.5025
H8A H 0.6230 0.8993 0.4681
C8A C 0.6989(9) 0.9490(13) 0.4729(6)
H9A H 0.7041 0.9817 0.4789
H10A H 0.7030 0.9483 0.4508
C9A C 0.7345(7) 0.9348(11) 0.4908(5)
H11A H 0.7671 0.9491 0.4808
H12A H 0.7395 0.9474 0.5117
C10A C 0.7099(6) 0.8812(8) 0.4906(4)
H13A H 0.7210 0.8701 0.4726
C11A C 0.7225(8) 0.8639(11) 0.5178(6)
C12A C 0.7009(7) 0.8143(11) 0.5637(4)
H14A H 0.6964 0.8280 0.5827
H15A H 0.7350 0.8200 0.5631
C13A C 0.6612(6) 0.7558(9) 0.5614(4)
C14A C 0.7084(7) 0.7395(10) 0.6012(4)
H16A H 0.7192 0.7722 0.6103
H17A H 0.7372 0.7396 0.5918
C15A C 0.6825(10) 0.6962(15) 0.6256(8)
H18A H 0.7067 0.6921 0.6378
H19A H 0.6596 0.7006 0.6389
C16A C 0.6556(6) 0.6547(8) 0.6032(5)
H20A H 0.6287 0.6254 0.6133
H21A H 0.6786 0.6454 0.5941
C17A C 0.6340(5) 0.6747(8) 0.5786(4)
H22A H 0.6321 0.6596 0.5585
C18A C 0.5833(5) 0.6654(7) 0.5891(3)
C19A C 0.4626(5) 0.5877(7) 0.5559(3)
H23A H 0.4742 0.5787 0.5387
C20A C 0.4957(5) 0.6127(6) 0.5797(3)
C21A C 0.4781(5) 0.6231(7) 0.6062(3)
H24A H 0.4992 0.6389 0.6228
C22A C 0.4290(5) 0.6094(7) 0.6070(3)
H25A H 0.4153 0.6143 0.6248
C23A C 0.3986(5) 0.5881(7) 0.5815(3)
H26A H 0.3656 0.5820 0.5819
N7A N 0.6167(4) 0.8053(6) 0.6264(2)
N8A N 0.7119(4) 0.9629(6) 0.6239(2)
N9A N 0.6585(4) 1.0127(6) 0.6333(3)
H27A H 0.6459 0.9837 0.6245
N10A N 0.5679(4) 1.0076(6) 0.6871(2)
N11A N 0.4902(4) 0.8915(6) 0.7236(2)
H28A H 0.5073 0.8999 0.7405
N12A N 0.4311(4) 0.7583(6) 0.7318(2)
O5A O 0.7052(3) 0.9575(5) 0.6751(2)
O6A O 0.7275(4) 1.0840(6) 0.6405(4)
O7A O 0.5928(4) 0.9535(6) 0.6745(2)
O8A O 0.4779(3) 0.9205(4) 0.67935(18)
C24A C 0.6293(5) 0.7813(7) 0.6465(3)
H29A H 0.6131 0.7462 0.6458
C25A C 0.6654(6) 0.8065(8) 0.6681(3)
H30A H 0.6739 0.7887 0.6819
C26A C 0.6890(6) 0.8576(8) 0.6698(3)
H31A H 0.7136 0.8752 0.6846
C27A C 0.6755(4) 0.8830(6) 0.6487(3)
C28A C 0.6381(5) 0.8538(7) 0.6273(3)
H32A H 0.6282 0.8700 0.6132
C29A C 0.6988(5) 0.9364(7) 0.6503(3)
C30A C 0.7212(6) 0.9456(8) 0.5959(3)
H33A H 0.6925 0.9142 0.5890
H34A H 0.7511 0.9424 0.5966
C31A C 0.729(3) 0.994(4) 0.5758(11)
H35A H 0.7443 0.9954 0.5560
H36A H 0.6978 0.9940 0.5729
C32A C 0.7628(6) 1.0338(9) 0.5953(4)
H37A H 0.7653 1.0655 0.5894
H38A H 0.7961 1.0375 0.5950
C33A C 0.7386(5) 1.0172(7) 0.6266(3)
H39A H 0.7650 1.0276 0.6423
C34A C 0.7054(6) 1.0391(9) 0.6342(4)
C35A C 0.6253(5) 1.0263(7) 0.6451(3)
H40A H 0.6036 1.0259 0.6288
H41A H 0.6442 1.0605 0.6529
C36A C 0.5940(5) 0.9930(7) 0.6699(3)
C37A C 0.5649(6) 1.0526(8) 0.6827(4)
H42A H 0.5648 1.0603 0.6611
H43A H 0.5921 1.0814 0.6930
C38A C 0.5150(13) 1.0368(17) 0.6974(7)
H44A H 0.4872 1.0148 0.6841
H45A H 0.5118 1.0657 0.7031
C39A C 0.5176(7) 1.0092(10) 0.7251(4)
H46A H 0.5395 1.0325 0.7407
H47A H 0.4844 0.9877 0.7338
C40A C 0.5395(5) 0.9783(7) 0.7121(3)
H48A H 0.5620 0.9762 0.7273
C41A C 0.5008(4) 0.9277(6) 0.7033(3)
C42A C 0.4616(4) 0.8066(6) 0.7352(3)
H49A H 0.4892 0.8176 0.7482
C43A C 0.4542(4) 0.8419(6) 0.7199(2)
C44A C 0.4133(4) 0.8242(6) 0.7004(3)
H50A H 0.4066 0.8467 0.6900
C45A C 0.3831(4) 0.7742(6) 0.6965(3)
H51A H 0.3559 0.7615 0.6829
C46A C 0.3935(5) 0.7429(7) 0.7129(3)
H52A H 0.3725 0.7083 0.7104
N13A N 0.3561(3) 0.8052(5) 0.7740(2)
N14A N 0.4323(4) 0.8041(6) 0.8546(2)
N15A N 0.4875(4) 0.7561(6) 0.8441(2)
H53A H 0.4584 0.7450 0.8357
N16A N 0.5765(4) 0.7649(6) 0.7881(2)
N17A N 0.5713(4) 0.8069(6) 0.7128(2)
H54A H 0.5963 0.8370 0.7154
N18A N 0.5135(4) 0.8324(6) 0.6503(2)
O9A O 0.4998(3) 0.8647(4) 0.83200(18)
O10A O 0.5361(4) 0.7955(6) 0.8840(2)
O11A O 0.5193(3) 0.7883(4) 0.78785(18)
O12A O 0.5305(3) 0.7296(4) 0.73277(17)
C47A C 0.3839(4) 0.8020(6) 0.7962(3)
H55A H 0.3766 0.7701 0.8027
C48A C 0.4354(5) 0.8909(7) 0.7991(3)
H56A H 0.4624 0.9200 0.8071
C49A C 0.4225(4) 0.8428(6) 0.8101(3)
C50A C 0.4064(5) 0.8926(6) 0.7762(3)
H57A H 0.4137 0.9237 0.7682
C51A C 0.3685(4) 0.8518(6) 0.7649(3)
H58A H 0.3490 0.8552 0.7498
C52A C 0.4541(5) 0.8380(7) 0.8339(3)
C53A C 0.3794(5) 0.7800(7) 0.8645(3)
H59A H 0.3597 0.7471 0.8551
H60A H 0.3647 0.8006 0.8592
C54A C 0.3816(6) 0.7754(9) 0.8985(4)
H61A H 0.3507 0.7474 0.9064
H62A H 0.3880 0.8061 0.9088
C55A C 0.4262(5) 0.7660(8) 0.9022(3)
H63A H 0.4401 0.7743 0.9228
H64A H 0.4163 0.7313 0.8978
C56A C 0.4636(4) 0.8016(6) 0.8788(3)
H65A H 0.4829 0.8350 0.8881
C57A C 0.4989(4) 0.7853(6) 0.8689(3)
C58A C 0.5208(5) 0.7428(7) 0.8310(3)
H66A H 0.5041 0.7065 0.8288
H67A H 0.5495 0.7532 0.8445
C59A C 0.5384(4) 0.7669(6) 0.8005(3)
C60A C 0.6024(5) 0.7413(7) 0.8000(3)
H68A H 0.5867 0.7064 0.7935
H69A H 0.6038 0.7429 0.8222
C61A C 0.6551(5) 0.7727(8) 0.7858(3)
H70A H 0.6755 0.8035 0.7973
H71A H 0.6725 0.7536 0.7848
C62A C 0.6431(5) 0.7836(7) 0.7549(3)
H72A H 0.6328 0.7549 0.7414
H73A H 0.6719 0.8127 0.7460
C63A C 0.5999(4) 0.7937(6) 0.7603(3)
H74A H 0.6121 0.8296 0.7632
C64A C 0.5630(5) 0.7723(6) 0.7339(2)
C65A C 0.5405(4) 0.8374(6) 0.6737(2)
H75A H 0.5599 0.8691 0.6824
C66A C 0.5416(4) 0.7970(6) 0.6865(3)
C67A C 0.5145(5) 0.7506(7) 0.6736(3)
H76A H 0.5157 0.7229 0.6812
C68A C 0.4864(5) 0.7467(7) 0.6494(2)
H77A H 0.4670 0.7155 0.6400
C69A C 0.4854(5) 0.7877(7) 0.6382(3)
H78A H 0.4644 0.7838 0.6217
N19A N 0.4491(4) 0.4977(6) 0.6094(2)
N20A N 0.4354(3) 0.4076(4) 0.5329(2)
N21A N 0.3966(4) 0.4332(5) 0.4837(2)
H79A H 0.3870 0.4347 0.5021
N22A N 0.4415(4) 0.5495(6) 0.4436(2)
N23A N 0.4849(4) 0.6571(6) 0.4892(2)
H80A H 0.5162 0.6666 0.4859
N24A N 0.5064(4) 0.7300(6) 0.5578(2)
O13A O 0.5028(3) 0.4759(4) 0.51499(19)
O14A O 0.4219(4) 0.3931(5) 0.45215(18)
O15A O 0.4421(3) 0.5325(4) 0.49281(18)
O16A O 0.4073(4) 0.6046(5) 0.47452(19)
C70A C 0.4442(4) 0.4769(6) 0.5816(3)
H81A H 0.4128 0.4620 0.5722
C71A C 0.4834(5) 0.4767(7) 0.5666(3)
C72A C 0.5293(5) 0.4983(7) 0.5796(3)
H82A H 0.5561 0.4985 0.5694
C73A C 0.5362(5) 0.5206(7) 0.6087(3)
H83A H 0.5675 0.5355 0.6183
C74A C 0.4950(5) 0.5197(7) 0.6227(3)
H84A H 0.4992 0.5347 0.6419
C75A C 0.4764(4) 0.4539(6) 0.5363(3)
C76A C 0.4093(5) 0.3736(7) 0.5589(3)
H85A H 0.3801 0.3757 0.5653
H86A H 0.4317 0.3807 0.5762
C77A C 0.3944(5) 0.3232(7) 0.5444(3)
H87A H 0.4216 0.3157 0.5459
H88A H 0.3647 0.2964 0.5543
C78A C 0.3838(5) 0.3290(7) 0.5116(3)
H89A H 0.3517 0.3277 0.5093
H90A H 0.3843 0.3035 0.4986
C79A C 0.4277(5) 0.3813(7) 0.5044(3)
H91A H 0.4576 0.3789 0.4995
C80A C 0.4153(4) 0.4032(6) 0.4781(3)
C81A C 0.3922(5) 0.4630(7) 0.4603(3)
H92A H 0.3579 0.4569 0.4597
H93A H 0.3997 0.4538 0.4406
C82A C 0.4291(5) 0.5193(6) 0.4668(3)
C83A C 0.4256(6) 0.5380(8) 0.4115(3)
H94A H 0.3917 0.5321 0.4086
H95A H 0.4271 0.5088 0.4044
C84A C 0.4627(7) 0.5837(9) 0.3957(3)
H96A H 0.4489 0.5882 0.3767
H97A H 0.4928 0.5821 0.3911
C85A C 0.4741(6) 0.6255(8) 0.4173(3)
H98A H 0.4485 0.6352 0.4163
H99A H 0.5068 0.6547 0.4129
C86A C 0.4740(5) 0.6033(7) 0.4480(3)
H100A H 0.5081 0.6111 0.4537
C87A C 0.4521(4) 0.6215(6) 0.4720(3)
C88A C 0.5116(5) 0.7076(7) 0.5338(3)
H101A H 0.5425 0.7093 0.5309
C89A C 0.4745(5) 0.6819(6) 0.5127(2)
C90A C 0.4323(5) 0.6830(6) 0.5164(3)
H102A H 0.4073 0.6683 0.5015
C91A C 0.4242(5) 0.7037(7) 0.5403(3)
H103A H 0.3935 0.7024 0.5430
C92A C 0.4628(6) 0.7277(8) 0.5614(3)
H104A H 0.4577 0.7426 0.5786
Ag1B Ag 0.29542(4) 0.74042(3) 0.75440(2)
Ag2B Ag 0.46049(6) 0.82564(4) 0.51953(2)
Ag3B Ag 0.10620(5) 0.61367(3) 0.63195(2)
Ag4B Ag 0.23572(6) 0.79839(4) 0.59186(2)
N1B N 0.1970(6) 0.6953(4) 0.4886(2)
N2B N 0.1353(7) 0.7920(5) 0.4876(3)
N3B N 0.1625(9) 0.8542(7) 0.5379(4)
H1B H 0.1671 0.8288 0.5362
N4B N 0.2732(7) 0.9419(5) 0.5789(3)
N5B N 0.3745(6) 0.9188(4) 0.5758(3)
H2B H 0.3931 0.9438 0.5639
N6B N 0.4236(6) 0.8383(4) 0.5570(2)
O1B O 0.2114(6) 0.8515(4) 0.4753(3)
O2B O 0.1304(11) 0.8956(9) 0.5185(5)
O3B O 0.2580(7) 0.8828(6) 0.5437(3)
O4B O 0.3086(4) 0.8867(3) 0.6068(2)
C1B C 0.1959(8) 0.7690(5) 0.4727(3)
C2B C 0.1831(7) 0.7294(5) 0.4922(3)
H3B H 0.1634 0.7264 0.5092
C3B C 0.2268(8) 0.7755(6) 0.4487(3)
H4B H 0.2375 0.8028 0.4354
C4B C 0.2420(8) 0.7403(6) 0.4445(3)
H5B H 0.2630 0.7433 0.4283
C5B C 0.2254(8) 0.7008(5) 0.4647(3)
H6B H 0.2349 0.6767 0.4613
C6B C 0.1812(8) 0.8082(6) 0.4787(3)
C7B C 0.0931(9) 0.7419(7) 0.4834(4)
H7B H 0.0843 0.7231 0.5025
H8B H 0.1007 0.7237 0.4681
C8B C 0.0510(13) 0.7499(10) 0.4729(6)
H9B H 0.0183 0.7224 0.4789
H10B H 0.0517 0.7547 0.4508
C9B C 0.0652(11) 0.7997(9) 0.4908(5)
H11B H 0.0509 0.8180 0.4808
H12B H 0.0526 0.7921 0.5117
C10B C 0.1188(8) 0.8287(6) 0.4906(4)
H13B H 0.1299 0.8509 0.4726
C11B C 0.1361(11) 0.8586(8) 0.5178(6)
C12B C 0.1857(11) 0.8866(8) 0.5637(4)
H14B H 0.1720 0.8684 0.5827
H15B H 0.1800 0.9150 0.5631
C13B C 0.2442(9) 0.9054(7) 0.5614(4)
C14B C 0.2605(10) 0.9689(7) 0.6012(4)
H16B H 0.2278 0.9470 0.6103
H17B H 0.2604 0.9976 0.5918
C15B C 0.3038(15) 0.9863(11) 0.6256(8)
H18B H 0.3079 1.0146 0.6378
H19B H 0.2994 0.9590 0.6389
C16B C 0.3453(8) 1.0009(6) 0.6032(5)
H20B H 0.3746 1.0033 0.6133
H21B H 0.3546 1.0332 0.5941
C17B C 0.3253(8) 0.9593(6) 0.5786(4)
H22B H 0.3404 0.9725 0.5585
C18B C 0.3346(7) 0.9179(5) 0.5891(3)
C19B C 0.4123(7) 0.8749(5) 0.5559(3)
H23B H 0.4213 0.8955 0.5387
C20B C 0.3873(6) 0.8830(4) 0.5797(3)
C21B C 0.3769(7) 0.8550(5) 0.6062(3)
H24B H 0.3611 0.8603 0.6228
C22B C 0.3906(7) 0.8196(5) 0.6070(3)
H25B H 0.3857 0.8010 0.6248
C23B C 0.4119(7) 0.8105(5) 0.5815(3)
H26B H 0.4180 0.7836 0.5819
N7B N 0.1947(6) 0.8114(4) 0.6264(2)
N8B N 0.0371(6) 0.7490(4) 0.6239(2)
N9B N -0.0127(6) 0.6458(4) 0.6333(3)
H27B H 0.0163 0.6622 0.6245
N10B N -0.0076(6) 0.5603(4) 0.6871(2)
N11B N 0.1085(6) 0.5987(4) 0.7236(2)
H28B H 0.1001 0.6074 0.7405
N12B N 0.2417(6) 0.6728(4) 0.7318(2)
O5B O 0.0425(5) 0.7477(4) 0.6751(2)
O6B O -0.0840(6) 0.6435(5) 0.6405(4)
O7B O 0.0465(6) 0.6393(4) 0.6745(2)
O8B O 0.0795(4) 0.5574(3) 0.67935(18)
C24B C 0.2187(7) 0.8480(5) 0.6465(3)
H29B H 0.2538 0.8669 0.6458
C25B C 0.1935(8) 0.8589(5) 0.6681(3)
H30B H 0.2113 0.8852 0.6819
C26B C 0.1424(8) 0.8314(6) 0.6698(3)
H31B H 0.1248 0.8384 0.6846
C27B C 0.1170(6) 0.7925(5) 0.6487(3)
C28B C 0.1462(7) 0.7843(5) 0.6273(3)
H32B H 0.1300 0.7582 0.6132
C29B C 0.0636(7) 0.7624(5) 0.6503(3)
C30B C 0.0544(8) 0.7756(6) 0.5959(3)
H33B H 0.0858 0.7783 0.5890
H34B H 0.0576 0.8087 0.5966
C31B C 0.006(4) 0.735(3) 0.5758(11)
H35B H 0.0046 0.7489 0.5560
H36B H 0.0060 0.7038 0.5729
C32B C -0.0338(9) 0.7290(7) 0.5953(4)
H37B H -0.0655 0.6998 0.5894
H38B H -0.0375 0.7586 0.5950
C33B C -0.0172(7) 0.7214(5) 0.6266(3)
H39B H -0.0276 0.7374 0.6423
C34B C -0.0391(9) 0.6663(7) 0.6342(4)
C35B C -0.0263(7) 0.5990(5) 0.6451(3)
H40B H -0.0259 0.5777 0.6288
H41B H -0.0605 0.5837 0.6529
C36B C 0.0070(7) 0.6010(5) 0.6699(3)
C37B C -0.0526(8) 0.5123(6) 0.6827(4)
H42B H -0.0603 0.5045 0.6611
H43B H -0.0814 0.5107 0.6930
C38B C -0.0368(17) 0.4782(11) 0.6974(7)
H44B H -0.0148 0.4724 0.6841
H45B H -0.0657 0.4461 0.7031
C39B C -0.0092(10) 0.5084(7) 0.7251(4)
H46B H -0.0325 0.5070 0.7407
H47B H 0.0123 0.4967 0.7338
C40B C 0.0217(7) 0.5612(5) 0.7121(3)
H48B H 0.0238 0.5858 0.7273
C41B C 0.0723(6) 0.5731(5) 0.7033(3)
C42B C 0.1934(6) 0.6550(4) 0.7352(3)
H49B H 0.1824 0.6716 0.7482
C43B C 0.1581(6) 0.6123(4) 0.7199(2)
C44B C 0.1758(6) 0.5891(5) 0.7004(3)
H50B H 0.1533 0.5599 0.6900
C45B C 0.2258(6) 0.6089(5) 0.6965(3)
H51B H 0.2385 0.5944 0.6829
C46B C 0.2571(7) 0.6506(5) 0.7129(3)
H52B H 0.2917 0.6642 0.7104
N13B N 0.1948(5) 0.5509(4) 0.7740(2)
N14B N 0.1959(6) 0.6282(4) 0.8546(2)
N15B N 0.2439(6) 0.7314(4) 0.8441(2)
H53B H 0.2550 0.7134 0.8357
N16B N 0.2351(6) 0.8116(4) 0.7881(2)
N17B N 0.1931(6) 0.7644(4) 0.7128(2)
H54B H 0.1630 0.7593 0.7154
N18B N 0.1676(6) 0.6811(4) 0.6503(2)
O9B O 0.1353(4) 0.6351(3) 0.83200(18)
O10B O 0.2045(6) 0.7406(4) 0.8840(2)
O11B O 0.2117(4) 0.7310(3) 0.78785(18)
O12B O 0.2704(4) 0.8009(3) 0.73277(17)
C47B C 0.1980(6) 0.5819(4) 0.7962(3)
H55B H 0.2299 0.6065 0.8027
C48B C 0.1091(7) 0.5445(5) 0.7991(3)
H56B H 0.0800 0.5424 0.8071
C49B C 0.1572(6) 0.5797(4) 0.8101(3)
C50B C 0.1074(6) 0.5138(4) 0.7762(3)
H57B H 0.0763 0.4900 0.7682
C51B C 0.1482(6) 0.5167(5) 0.7649(3)
H58B H 0.1448 0.4938 0.7498
C52B C 0.1620(7) 0.6161(5) 0.8339(3)
C53B C 0.2200(7) 0.5994(5) 0.8645(3)
H59B H 0.2529 0.6126 0.8551
H60B H 0.1994 0.5641 0.8592
C54B C 0.2246(9) 0.6062(7) 0.8985(4)
H61B H 0.2526 0.6033 0.9064
H62B H 0.1939 0.5819 0.9088
C55B C 0.2340(8) 0.6602(6) 0.9022(3)
H63B H 0.2257 0.6658 0.9228
H64B H 0.2687 0.6850 0.8978
C56B C 0.1984(6) 0.6620(5) 0.8788(3)
H65B H 0.1650 0.6479 0.8881
C57B C 0.2147(6) 0.7136(5) 0.8689(3)
C58B C 0.2572(7) 0.7780(5) 0.8310(3)
H66B H 0.2935 0.7976 0.8288
H67B H 0.2468 0.7963 0.8445
C59B C 0.2331(6) 0.7715(5) 0.8005(3)
C60B C 0.2587(7) 0.8611(5) 0.8000(3)
H68B H 0.2936 0.8803 0.7935
H69B H 0.2571 0.8609 0.8222
C61B C 0.2273(8) 0.8824(6) 0.7858(3)
H70B H 0.1965 0.8720 0.7973
H71B H 0.2464 0.9189 0.7848
C62B C 0.2164(7) 0.8595(5) 0.7549(3)
H72B H 0.2451 0.8779 0.7414
H73B H 0.1873 0.8592 0.7460
C63B C 0.2063(6) 0.8062(5) 0.7603(3)
H74B H 0.1704 0.7825 0.7632
C64B C 0.2277(6) 0.7907(4) 0.7339(2)
C65B C 0.1626(6) 0.7031(4) 0.6737(2)
H75B H 0.1309 0.6908 0.6824
C66B C 0.2030(6) 0.7446(4) 0.6865(3)
C67B C 0.2494(7) 0.7639(5) 0.6736(3)
H76B H 0.2771 0.7928 0.6812
C68B C 0.2533(7) 0.7397(5) 0.6494(2)
H77B H 0.2845 0.7515 0.6400
C69B C 0.2123(7) 0.6977(5) 0.6382(3)
H78B H 0.2162 0.6806 0.6217
N19B N 0.5023(6) 0.9514(4) 0.6094(2)
N20B N 0.5924(4) 1.0278(3) 0.5329(2)
N21B N 0.5668(5) 0.9634(3) 0.4837(2)
H79B H 0.5653 0.9523 0.5021
N22B N 0.4505(6) 0.8920(4) 0.4436(2)
N23B N 0.3429(6) 0.8278(4) 0.4892(2)
H80B H 0.3334 0.8496 0.4859
N24B N 0.2700(6) 0.7764(4) 0.5578(2)
O13B O 0.5241(4) 1.0269(3) 0.51499(19)
O14B O 0.6069(5) 1.0288(3) 0.45215(18)
O15B O 0.4675(4) 0.9096(3) 0.49281(18)
O16B O 0.3954(5) 0.8027(3) 0.47452(19)
C70B C 0.5231(6) 0.9673(4) 0.5816(3)
H81B H 0.5380 0.9508 0.5722
C71B C 0.5233(7) 1.0067(5) 0.5666(3)
C72B C 0.5017(7) 1.0310(5) 0.5796(3)
H82B H 0.5015 1.0576 0.5694
C73B C 0.4794(7) 1.0156(5) 0.6087(3)
H83B H 0.4645 1.0320 0.6183
C74B C 0.4803(7) 0.9753(5) 0.6227(3)
H84B H 0.4653 0.9645 0.6419
C75B C 0.5461(6) 1.0225(4) 0.5363(3)
C76B C 0.6264(7) 1.0357(5) 0.5589(3)
H85B H 0.6243 1.0044 0.5653
H86B H 0.6193 1.0510 0.5762
C77B C 0.6768(7) 1.0712(5) 0.5444(3)
H87B H 0.6843 1.1059 0.5459
H88B H 0.7036 1.0683 0.5543
C78B C 0.6710(7) 1.0548(5) 0.5116(3)
H89B H 0.6723 1.0240 0.5093
H90B H 0.6965 1.0808 0.4986
C79B C 0.6187(7) 1.0464(5) 0.5044(3)
H91B H 0.6211 1.0787 0.4995
C80B C 0.5968(6) 1.0121(4) 0.4781(3)
C81B C 0.5370(7) 0.9292(5) 0.4603(3)
H92B H 0.5431 0.9010 0.4597
H93B H 0.5462 0.9459 0.4406
C82B C 0.4807(6) 0.9098(4) 0.4668(3)
C83B C 0.4620(8) 0.8876(5) 0.4115(3)
H94B H 0.4679 0.8596 0.4086
H95B H 0.4912 0.9183 0.4044
C84B C 0.4163(9) 0.8790(6) 0.3957(3)
H96B H 0.4118 0.8607 0.3767
H97B H 0.4179 0.9107 0.3911
C85B C 0.3745(8) 0.8486(6) 0.4173(3)
H98B H 0.3648 0.8133 0.4163
H99B H 0.3453 0.8521 0.4129
C86B C 0.3967(7) 0.8707(5) 0.4480(3)
H100B H 0.3889 0.8970 0.4537
C87B C 0.3785(6) 0.8306(4) 0.4720(3)
C88B C 0.2924(7) 0.8040(5) 0.5338(3)
H101B H 0.2907 0.8332 0.5309
C89B C 0.3181(6) 0.7926(4) 0.5127(2)
C90B C 0.3170(6) 0.7493(4) 0.5164(3)
H102B H 0.3317 0.7390 0.5015
C91B C 0.2963(7) 0.7205(5) 0.5403(3)
H103B H 0.2976 0.6911 0.5430
C92B C 0.2723(8) 0.7351(5) 0.5614(3)
H104B H 0.2574 0.7151 0.5786
B1 B 0.0804(6) 0.4370(6) 0.6858(4)
F1 F 0.0432(3) 0.4301(4) 0.6657(2)
F2 F 0.1243(3) 0.4729(3) 0.67578(18)
F3 F 0.0697(3) 0.4505(4) 0.7136(2)
F4 F 0.0812(4) 0.3934(3) 0.6892(2)
B2 B 0.6752(13) 0.5497(14) 0.5473(7)
F5 F 0.6917(8) 0.5520(8) 0.5180(4)
F6 F 0.6424(9) 0.5660(9) 0.5444(6)
F7 F 0.7134(11) 0.5805(12) 0.5666(7)
F8 F 0.6472(11) 0.5058(10) 0.5619(7)
B3 B 0.3080(6) 0.4229(6) 0.5662(3)
F9 F 0.3392(3) 0.4307(3) 0.54101(16)
F10 F 0.3139(3) 0.4672(3) 0.57525(18)
F11 F 0.3210(3) 0.4011(3) 0.58908(16)
F12 F 0.2590(3) 0.3910(3) 0.55771(16)
B4 B 0.3333 0.6667 0.8039(7)
F13 F 0.3333 0.6667 0.7711(2)
F14 F 0.3145(3) 0.6189(3) 0.81359(17)
F14A F 0.3811(3) 0.6956(4) 0.81359(17)
F14B F 0.3044(4) 0.6855(3) 0.81359(17)
B5 B 0.3333 0.6667 0.6234(5)
F15 F 0.3333 0.6667 0.6546(3)
F16 F 0.2961(3) 0.6742(4) 0.6124(2)
F16A F 0.3258(4) 0.6219(5) 0.6124(2)
F16B F 0.3781(5) 0.7039(3) 0.6124(2)
B6 B 0.3333 0.6667 0.4447(7)
F17 F 0.3333 0.6667 0.4768(4)
F18 F 0.3168(4) 0.6968(4) 0.4353(2)
F18A F 0.3032(4) 0.6200(6) 0.4353(2)
F18B F 0.3800(6) 0.6832(4) 0.4353(2)
O17 O 0.2799(4) 0.4525(4) 0.9425(2)
O18 O 0.5322(18) 0.3765(18) 0.8522(10)
O19 O 0.3296(12) 0.3183(12) 0.7308(8)
O20 O 0.1649(12) 0.1615(12) 0.6998(8)
O21 O -0.0119(4) 0.5675(4) 0.3915(2)
O22 O 0.0683(10) 0.3860(9) 0.4294(6)
O23 O 0.2166(14) 0.1332(14) 0.6619(9)
O24 O 0.2796(12) 0.7965(12) 0.3655(8)
O25 O 0.0208(10) 0.3744(10) 0.7584(6)
O26 O 0.5880(12) 0.4181(12) 0.6480(7)
O27 O 0.7131(12) 0.6349(13) 0.4839(7)
O28 O 0.4113(12) 0.6621(12) 0.9717(7)
O29 O 0.1470(10) 0.7989(10) 0.4078(6)
O30 O 0.3123(9) 0.1767(9) 0.6624(5)
O31 O 0.4589(8) 0.3957(8) 0.8504(5)
O32 O 0.3276(10) 0.7495(10) 0.3593(6)
O33 O 0.3333 0.6667 0.9462(7)
O34 O 0.2536(9) 0.2195(9) 0.7429(6)
O35 O 0.0896(7) 0.4172(7) 0.4895(4)
O36 O 0.0725(6) 0.0884(6) 0.7203(4)
O37 O 0.4444(6) 0.2847(6) 0.6121(4)
O38 O 0.5618(4) 0.5812(4) 0.5248(2)
O39 O -0.1197(3) 0.5735(3) 0.4445(2)
O40 O 0.0372(13) 0.4047(12) 0.3728(7)
O41 O 0.4928(19) 0.2526(19) 0.6481(11)
O42 O -0.0970(13) 0.6768(12) 0.4593(8)
O43 O -0.0053(15) 0.2139(15) 0.6671(9)
O44 O 0.1447(10) 0.1973(10) 0.6518(6)
O45 O 0.707(2) 0.758(2) 0.4963(13)
O46 O 0.1004(15) 0.3316(15) 0.4085(9)
O47 O -0.017(2) 0.200(2) 0.5368(14)
O48 O 0.5333(12) 0.5174(12) 0.8028(8)
O49 O -0.0593(18) 0.3813(18) 0.7441(12)
O50 O 0.8507(10) 0.6721(11) 0.5450(6)
C93? C -0.0193(16) 0.2924(15) 0.5980(13)
H105? H -0.0339 0.2821 0.5777
H106? H -0.0438 0.2715 0.6133
C94? C 0.2187(11) 0.2291(9) 0.5850(6)
H107? H 0.2142 0.2251 0.5629
H108? H 0.1910 0.2005 0.5952
C95? C 0.5124(15) 0.4488(17) 0.7167(8)
H109? H 0.4999 0.4195 0.7298
H110? H 0.5490 0.4667 0.7162
O51? O -0.0514(9) 0.6709(9) 0.4413(6)
O52? O 0.4787(12) 0.3913(12) 0.7891(7)
O53? O 0.0892(19) 0.2191(19) 0.6264(12)
O54? O 0.1351(16) 0.3877(16) 0.3942(10)
O55? O 0.5692(19) 0.4748(18) 0.7861(12)
O56? O -0.0440(18) 0.3692(18) 0.6927(11)
O57? O 0.8011(10) 0.5789(10) 0.5606(6)
loop_
_geom_bond_atom_site_label_1
_geom_bond_atom_site_label_2
_geom_bond_site_symmetry_1
_geom_bond_site_symmetry_2
Ag1 N12 1_555 1_555
Ag2 N6 1_555 1_555
Ag3 O8 1_555 1_555
Ag4 O4 1_555 1_555
N1 C2 1_555 1_555
N2 C6 1_555 1_555
N3 H1 1_555 1_555
N4 C13 1_555 1_555
N5 H2 1_555 1_555
N6 C19 1_555 1_555
O1 C6 1_555 1_555
O2 C11 1_555 1_555
O3 C13 1_555 1_555
O4 C18 1_555 1_555
C1 C2 1_555 1_555
C2 H3 1_555 1_555
C3 C1 1_555 1_555
H4 C3 1_555 1_555
C4 C3 1_555 1_555
H5 C4 1_555 1_555
C5 N1 1_555 1_555
H6 C5 1_555 1_555
C6 C1 1_555 1_555
C7 N2 1_555 1_555
H7 C7 1_555 1_555
H8 C7 1_555 1_555
C8 C7 1_555 1_555
H9 C8 1_555 1_555
H10 C8 1_555 1_555
C9 C8 1_555 1_555
H11 C9 1_555 1_555
H12 C9 1_555 1_555
C10 N2 1_555 1_555
H13 C10 1_555 1_555
C11 N3 1_555 1_555
C12 N3 1_555 1_555
H14 C12 1_555 1_555
H15 C12 1_555 1_555
C13 C12 1_555 1_555
C14 N4 1_555 1_555
H16 C14 1_555 1_555
H17 C14 1_555 1_555
C15 C14 1_555 1_555
H18 C15 1_555 1_555
H19 C15 1_555 1_555
C16 C15 1_555 1_555
H20 C16 1_555 1_555
H21 C16 1_555 1_555
C17 N4 1_555 1_555
H22 C17 1_555 1_555
C18 N5 1_555 1_555
C19 H23 1_555 1_555
C20 N5 1_555 1_555
C21 C20 1_555 1_555
H24 C21 1_555 1_555
C22 C21 1_555 1_555
H25 C22 1_555 1_555
C23 N6 1_555 1_555
H26 C23 1_555 1_555
N7 Ag4 1_555 1_555
N8 C29 1_555 1_555
N9 H27 1_555 1_555
N10 C36 1_555 1_555
N11 H28 1_555 1_555
N12 C42 1_555 1_555
O5 C29 1_555 1_555
O6 C34 1_555 1_555
O7 C36 1_555 1_555
O8 C41 1_555 1_555
C24 N7 1_555 1_555
H29 C24 1_555 1_555
C25 C24 1_555 1_555
H30 C25 1_555 1_555
C26 C25 1_555 1_555
H31 C26 1_555 1_555
C27 C26 1_555 1_555
C28 N7 1_555 1_555
H32 C28 1_555 1_555
C29 C27 1_555 1_555
C30 N8 1_555 1_555
H33 C30 1_555 1_555
H34 C30 1_555 1_555
C31 C30 1_555 1_555
H35 C31 1_555 1_555
H36 C31 1_555 1_555
C32 C31 1_555 1_555
H37 C32 1_555 1_555
H38 C32 1_555 1_555
C33 N8 1_555 1_555
H39 C33 1_555 1_555
C34 N9 1_555 1_555
C35 N9 1_555 1_555
H40 C35 1_555 1_555
H41 C35 1_555 1_555
C36 C35 1_555 1_555
C37 N10 1_555 1_555
H42 C37 1_555 1_555
H43 C37 1_555 1_555
C38 C37 1_555 1_555
H44 C38 1_555 1_555
H45 C38 1_555 1_555
C39 C38 1_555 1_555
H46 C39 1_555 1_555
H47 C39 1_555 1_555
C40 N10 1_555 1_555
H48 C40 1_555 1_555
C41 N11 1_555 1_555
C42 H49 1_555 1_555
C43 N11 1_555 1_555
C44 C43 1_555 1_555
H50 C44 1_555 1_555
C45 C44 1_555 1_555
H51 C45 1_555 1_555
C46 N12 1_555 1_555
H52 C46 1_555 1_555
N13 C47 1_555 1_555
N14 C52 1_555 1_555
N15 H53 1_555 1_555
N16 C59 1_555 1_555
N17 H54 1_555 1_555
N18 Ag3 1_555 1_555
O9 C52 1_555 1_555
O10 C57 1_555 1_555
O11 C59 1_555 1_555
O12 Ag1 1_555 1_555
C47 H55 1_555 1_555
C48 H56 1_555 1_555
C49 C47 1_555 1_555
C50 C48 1_555 1_555
H57 C50 1_555 1_555
C51 N13 1_555 1_555
H58 C51 1_555 1_555
C52 C49 1_555 1_555
C53 N14 1_555 1_555
H59 C53 1_555 1_555
H60 C53 1_555 1_555
C54 C53 1_555 1_555
H61 C54 1_555 1_555
H62 C54 1_555 1_555
C55 C54 1_555 1_555
H63 C55 1_555 1_555
H64 C55 1_555 1_555
C56 N14 1_555 1_555
H65 C56 1_555 1_555
C57 N15 1_555 1_555
C58 N15 1_555 1_555
H66 C58 1_555 1_555
H67 C58 1_555 1_555
C59 C58 1_555 1_555
C60 N16 1_555 1_555
H68 C60 1_555 1_555
H69 C60 1_555 1_555
C61 C60 1_555 1_555
H70 C61 1_555 1_555
H71 C61 1_555 1_555
C62 C61 1_555 1_555
H72 C62 1_555 1_555
H73 C62 1_555 1_555
C63 N16 1_555 1_555
H74 C63 1_555 1_555
C64 N17 1_555 1_555
C65 N18 1_555 1_555
H75 C65 1_555 1_555
C66 N17 1_555 1_555
C67 C66 1_555 1_555
H76 C67 1_555 1_555
C68 C67 1_555 1_555
H77 C68 1_555 1_555
C69 N18 1_555 1_555
H78 C69 1_555 1_555
N19 C70 1_555 1_555
N20 C75 1_555 1_555
N21 H79 1_555 1_555
N22 C82 1_555 1_555
N23 H80 1_555 1_555
N24 Ag4 1_555 1_555
O13 C75 1_555 1_555
O14 C80 1_555 1_555
O15 C82 1_555 1_555
O16 Ag2 1_555 1_555
C70 H81 1_555 1_555
C71 C70 1_555 1_555
C72 C71 1_555 1_555
H82 C72 1_555 1_555
C73 C72 1_555 1_555
H83 C73 1_555 1_555
C74 N19 1_555 1_555
H84 C74 1_555 1_555
C75 C71 1_555 1_555
C76 N20 1_555 1_555
H85 C76 1_555 1_555
H86 C76 1_555 1_555
C77 C76 1_555 1_555
H87 C77 1_555 1_555
H88 C77 1_555 1_555
C78 C77 1_555 1_555
H89 C78 1_555 1_555
H90 C78 1_555 1_555
C79 N20 1_555 1_555
H91 C79 1_555 1_555
C80 N21 1_555 1_555
C81 N21 1_555 1_555
H92 C81 1_555 1_555
H93 C81 1_555 1_555
C82 C81 1_555 1_555
C83 N22 1_555 1_555
H94 C83 1_555 1_555
H95 C83 1_555 1_555
C84 C83 1_555 1_555
H96 C84 1_555 1_555
H97 C84 1_555 1_555
C85 C84 1_555 1_555
H98 C85 1_555 1_555
H99 C85 1_555 1_555
C86 N22 1_555 1_555
H100 C86 1_555 1_555
C87 N23 1_555 1_555
C88 N24 1_555 1_555
H101 C88 1_555 1_555
C89 N23 1_555 1_555
C90 C89 1_555 1_555
H102 C90 1_555 1_555
C91 C90 1_555 1_555
H103 C91 1_555 1_555
C92 N24 1_555 1_555
H104 C92 1_555 1_555
B1 F1 1_555 1_555
F2 B1 1_555 1_555
F3 B1 1_555 1_555
F4 B1 1_555 1_555
B2 F5 1_555 1_555
F6 B2 1_555 1_555
F7 B2 1_555 1_555
F8 B2 1_555 1_555
B3 F9 1_555 1_555
F10 B3 1_555 1_555
F11 B3 1_555 1_555
F12 B3 1_555 1_555
B4 F13 1_555 1_555
F14 B4 1_555 1_555
B5 F15 1_555 1_555
F16 B5 1_555 1_555
B6 F17 1_555 1_555
F18 B6 1_555 1_555
Ag1A N13 1_555 1_555
Ag2A N1 1_555 1_555
Ag3A O8A 1_555 1_555
Ag4A O4A 1_555 1_555
N1A C2A 1_555 1_555
N2A C6A 1_555 1_555
N3A H1A 1_555 1_555
N4A C13A 1_555 1_555
N5A H2A 1_555 1_555
N6A Ag2A 1_555 1_555
O1A C6A 1_555 1_555
O2A C11A 1_555 1_555
O3A C13A 1_555 1_555
O4A C18A 1_555 1_555
C1A C2A 1_555 1_555
C2A H3A 1_555 1_555
C3A C1A 1_555 1_555
H4A C3A 1_555 1_555
C4A C3A 1_555 1_555
H5A C4A 1_555 1_555
C5A N1A 1_555 1_555
H6A C5A 1_555 1_555
C6A C1A 1_555 1_555
C7A N2A 1_555 1_555
H7A C7A 1_555 1_555
H8A C7A 1_555 1_555
C8A C7A 1_555 1_555
H9A C8A 1_555 1_555
H10A C8A 1_555 1_555
C9A C8A 1_555 1_555
H11A C9A 1_555 1_555
H12A C9A 1_555 1_555
C10A N2A 1_555 1_555
H13A C10A 1_555 1_555
C11A N3A 1_555 1_555
C12A N3A 1_555 1_555
H14A C12A 1_555 1_555
H15A C12A 1_555 1_555
C13A C12A 1_555 1_555
C14A N4A 1_555 1_555
H16A C14A 1_555 1_555
H17A C14A 1_555 1_555
C15A C14A 1_555 1_555
H18A C15A 1_555 1_555
H19A C15A 1_555 1_555
C16A C15A 1_555 1_555
H20A C16A 1_555 1_555
H21A C16A 1_555 1_555
C17A N4A 1_555 1_555
H22A C17A 1_555 1_555
C18A N5A 1_555 1_555
C19A N6A 1_555 1_555
H23A C19A 1_555 1_555
C20A N5A 1_555 1_555
C21A C20A 1_555 1_555
H24A C21A 1_555 1_555
C22A C21A 1_555 1_555
H25A C22A 1_555 1_555
C23A N6A 1_555 1_555
H26A C23A 1_555 1_555
N7A Ag4A 1_555 1_555
N8A C29A 1_555 1_555
N9A H27A 1_555 1_555
N10A C36A 1_555 1_555
N11A H28A 1_555 1_555
N12A Ag1A 1_555 1_555
O5A C29A 1_555 1_555
O6A C34A 1_555 1_555
O7A C36A 1_555 1_555
O8A C41A 1_555 1_555
C24A N7A 1_555 1_555
H29A C24A 1_555 1_555
C25A C24A 1_555 1_555
H30A C25A 1_555 1_555
C26A C25A 1_555 1_555
H31A C26A 1_555 1_555
C27A C26A 1_555 1_555
C28A N7A 1_555 1_555
H32A C28A 1_555 1_555
C29A C27A 1_555 1_555
C30A N8A 1_555 1_555
H33A C30A 1_555 1_555
H34A C30A 1_555 1_555
C31A C30A 1_555 1_555
H35A C31A 1_555 1_555
H36A C31A 1_555 1_555
C32A C31A 1_555 1_555
H37A C32A 1_555 1_555
H38A C32A 1_555 1_555
C33A N8A 1_555 1_555
H39A C33A 1_555 1_555
C34A N9A 1_555 1_555
C35A N9A 1_555 1_555
H40A C35A 1_555 1_555
H41A C35A 1_555 1_555
C36A C35A 1_555 1_555
C37A N10A 1_555 1_555
H42A C37A 1_555 1_555
H43A C37A 1_555 1_555
C38A C37A 1_555 1_555
H44A C38A 1_555 1_555
H45A C38A 1_555 1_555
C39A C38A 1_555 1_555
H46A C39A 1_555 1_555
H47A C39A 1_555 1_555
C40A N10A 1_555 1_555
H48A C40A 1_555 1_555
C41A N11A 1_555 1_555
C42A N12A 1_555 1_555
H49A C42A 1_555 1_555
C43A N11A 1_555 1_555
C44A C43A 1_555 1_555
H50A C44A 1_555 1_555
C45A C44A 1_555 1_555
H51A C45A 1_555 1_555
C46A N12A 1_555 1_555
H52A C46A 1_555 1_555
N13A C47A 1_555 1_555
N14A C52A 1_555 1_555
N15A H53A 1_555 1_555
N16A C59A 1_555 1_555
N17A H54A 1_555 1_555
N18A Ag3A 1_555 1_555
O9A C52A 1_555 1_555
O10A C57A 1_555 1_555
O11A C59A 1_555 1_555
O12A Ag1A 1_555 1_555
C47A H55A 1_555 1_555
C48A H56A 1_555 1_555
C49A C47A 1_555 1_555
C50A C48A 1_555 1_555
H57A C50A 1_555 1_555
C51A N13A 1_555 1_555
H58A C51A 1_555 1_555
C52A C49A 1_555 1_555
C53A N14A 1_555 1_555
H59A C53A 1_555 1_555
H60A C53A 1_555 1_555
C54A C53A 1_555 1_555
H61A C54A 1_555 1_555
H62A C54A 1_555 1_555
C55A C54A 1_555 1_555
H63A C55A 1_555 1_555
H64A C55A 1_555 1_555
C56A N14A 1_555 1_555
H65A C56A 1_555 1_555
C57A N15A 1_555 1_555
C58A N15A 1_555 1_555
H66A C58A 1_555 1_555
H67A C58A 1_555 1_555
C59A C58A 1_555 1_555
C60A N16A 1_555 1_555
H68A C60A 1_555 1_555
H69A C60A 1_555 1_555
C61A C60A 1_555 1_555
H70A C61A 1_555 1_555
H71A C61A 1_555 1_555
C62A C61A 1_555 1_555
H72A C62A 1_555 1_555
H73A C62A 1_555 1_555
C63A N16A 1_555 1_555
H74A C63A 1_555 1_555
C64A N17A 1_555 1_555
C65A N18A 1_555 1_555
H75A C65A 1_555 1_555
C66A N17A 1_555 1_555
C67A C66A 1_555 1_555
H76A C67A 1_555 1_555
C68A C67A 1_555 1_555
H77A C68A 1_555 1_555
C69A N18A 1_555 1_555
H78A C69A 1_555 1_555
N19A Ag3 1_555 1_555
N20A C75A 1_555 1_555
N21A H79A 1_555 1_555
N22A C82A 1_555 1_555
N23A H80A 1_555 1_555
N24A Ag4A 1_555 1_555
O13A C75A 1_555 1_555
O14A C80A 1_555 1_555
O15A C82A 1_555 1_555
O16A Ag2A 1_555 1_555
C70A N19A 1_555 1_555
H81A C70A 1_555 1_555
C71A C70A 1_555 1_555
C72A C71A 1_555 1_555
H82A C72A 1_555 1_555
C73A C72A 1_555 1_555
H83A C73A 1_555 1_555
C74A N19A 1_555 1_555
H84A C74A 1_555 1_555
C75A C71A 1_555 1_555
C76A N20A 1_555 1_555
H85A C76A 1_555 1_555
H86A C76A 1_555 1_555
C77A C76A 1_555 1_555
H87A C77A 1_555 1_555
H88A C77A 1_555 1_555
C78A C77A 1_555 1_555
H89A C78A 1_555 1_555
H90A C78A 1_555 1_555
C79A N20A 1_555 1_555
H91A C79A 1_555 1_555
C80A N21A 1_555 1_555
C81A N21A 1_555 1_555
H92A C81A 1_555 1_555
H93A C81A 1_555 1_555
C82A C81A 1_555 1_555
C83A N22A 1_555 1_555
H94A C83A 1_555 1_555
H95A C83A 1_555 1_555
C84A C83A 1_555 1_555
H96A C84A 1_555 1_555
H97A C84A 1_555 1_555
C85A C84A 1_555 1_555
H98A C85A 1_555 1_555
H99A C85A 1_555 1_555
C86A N22A 1_555 1_555
H100A C86A 1_555 1_555
C87A N23A 1_555 1_555
C88A N24A 1_555 1_555
H101A C88A 1_555 1_555
C89A N23A 1_555 1_555
C90A C89A 1_555 1_555
H102A C90A 1_555 1_555
C91A C90A 1_555 1_555
H103A C91A 1_555 1_555
C92A N24A 1_555 1_555
H104A C92A 1_555 1_555
Ag1B N13A 1_555 1_555
Ag2B N1A 1_555 1_555
Ag3B N19 1_555 1_555
Ag4B O4B 1_555 1_555
N1B Ag2 1_555 1_555
N2B C6B 1_555 1_555
N3B H1B 1_555 1_555
N4B C13B 1_555 1_555
N5B H2B 1_555 1_555
N6B Ag2B 1_555 1_555
O1B C6B 1_555 1_555
O2B C11B 1_555 1_555
O3B C13B 1_555 1_555
O4B C18B 1_555 1_555
C1B C2B 1_555 1_555
C2B N1B 1_555 1_555
H3B C2B 1_555 1_555
C3B C1B 1_555 1_555
H4B C3B 1_555 1_555
C4B C3B 1_555 1_555
H5B C4B 1_555 1_555
C5B N1B 1_555 1_555
H6B C5B 1_555 1_555
C6B C1B 1_555 1_555
C7B N2B 1_555 1_555
H7B C7B 1_555 1_555
H8B C7B 1_555 1_555
C8B C7B 1_555 1_555
H9B C8B 1_555 1_555
H10B C8B 1_555 1_555
C9B C8B 1_555 1_555
H11B C9B 1_555 1_555
H12B C9B 1_555 1_555
C10B N2B 1_555 1_555
H13B C10B 1_555 1_555
C11B N3B 1_555 1_555
C12B N3B 1_555 1_555
H14B C12B 1_555 1_555
H15B C12B 1_555 1_555
C13B C12B 1_555 1_555
C14B N4B 1_555 1_555
H16B C14B 1_555 1_555
H17B C14B 1_555 1_555
C15B C14B 1_555 1_555
H18B C15B 1_555 1_555
H19B C15B 1_555 1_555
C16B C15B 1_555 1_555
H20B C16B 1_555 1_555
H21B C16B 1_555 1_555
C17B N4B 1_555 1_555
H22B C17B 1_555 1_555
C18B N5B 1_555 1_555
C19B N6B 1_555 1_555
H23B C19B 1_555 1_555
C20B N5B 1_555 1_555
C21B C20B 1_555 1_555
H24B C21B 1_555 1_555
C22B C21B 1_555 1_555
H25B C22B 1_555 1_555
C23B N6B 1_555 1_555
H26B C23B 1_555 1_555
N7B Ag4B 1_555 1_555
N8B C29B 1_555 1_555
N9B H27B 1_555 1_555
N10B C36B 1_555 1_555
N11B H28B 1_555 1_555
N12B Ag1B 1_555 1_555
O5B C29B 1_555 1_555
O6B C34B 1_555 1_555
O7B C36B 1_555 1_555
O8B Ag3B 1_555 1_555
C24B N7B 1_555 1_555
H29B C24B 1_555 1_555
C25B C24B 1_555 1_555
H30B C25B 1_555 1_555
C26B C25B 1_555 1_555
H31B C26B 1_555 1_555
C27B C26B 1_555 1_555
C28B N7B 1_555 1_555
H32B C28B 1_555 1_555
C29B C27B 1_555 1_555
C30B N8B 1_555 1_555
H33B C30B 1_555 1_555
H34B C30B 1_555 1_555
C31B C30B 1_555 1_555
H35B C31B 1_555 1_555
H36B C31B 1_555 1_555
C32B C31B 1_555 1_555
H37B C32B 1_555 1_555
H38B C32B 1_555 1_555
C33B N8B 1_555 1_555
H39B C33B 1_555 1_555
C34B N9B 1_555 1_555
C35B N9B 1_555 1_555
H40B C35B 1_555 1_555
H41B C35B 1_555 1_555
C36B C35B 1_555 1_555
C37B N10B 1_555 1_555
H42B C37B 1_555 1_555
H43B C37B 1_555 1_555
C38B C37B 1_555 1_555
H44B C38B 1_555 1_555
H45B C38B 1_555 1_555
C39B C38B 1_555 1_555
H46B C39B 1_555 1_555
H47B C39B 1_555 1_555
C40B N10B 1_555 1_555
H48B C40B 1_555 1_555
C41B N11B 1_555 1_555
C42B N12B 1_555 1_555
H49B C42B 1_555 1_555
C43B N11B 1_555 1_555
C44B C43B 1_555 1_555
H50B C44B 1_555 1_555
C45B C44B 1_555 1_555
H51B C45B 1_555 1_555
C46B N12B 1_555 1_555
H52B C46B 1_555 1_555
N13B Ag1 1_555 1_555
N14B C52B 1_555 1_555
N15B H53B 1_555 1_555
N16B C59B 1_555 1_555
N17B H54B 1_555 1_555
N18B Ag3B 1_555 1_555
O9B C52B 1_555 1_555
O10B C57B 1_555 1_555
O11B C59B 1_555 1_555
O12B Ag1B 1_555 1_555
C47B N13B 1_555 1_555
H55B C47B 1_555 1_555
C48B H56B 1_555 1_555
C49B C47B 1_555 1_555
C50B C48B 1_555 1_555
H57B C50B 1_555 1_555
C51B N13B 1_555 1_555
H58B C51B 1_555 1_555
C52B C49B 1_555 1_555
C53B N14B 1_555 1_555
H59B C53B 1_555 1_555
H60B C53B 1_555 1_555
C54B C53B 1_555 1_555
H61B C54B 1_555 1_555
H62B C54B 1_555 1_555
C55B C54B 1_555 1_555
H63B C55B 1_555 1_555
H64B C55B 1_555 1_555
C56B N14B 1_555 1_555
H65B C56B 1_555 1_555
C57B N15B 1_555 1_555
C58B N15B 1_555 1_555
H66B C58B 1_555 1_555
H67B C58B 1_555 1_555
C59B C58B 1_555 1_555
C60B N16B 1_555 1_555
H68B C60B 1_555 1_555
H69B C60B 1_555 1_555
C61B C60B 1_555 1_555
H70B C61B 1_555 1_555
H71B C61B 1_555 1_555
C62B C61B 1_555 1_555
H72B C62B 1_555 1_555
H73B C62B 1_555 1_555
C63B N16B 1_555 1_555
H74B C63B 1_555 1_555
C64B N17B 1_555 1_555
C65B N18B 1_555 1_555
H75B C65B 1_555 1_555
C66B N17B 1_555 1_555
C67B C66B 1_555 1_555
H76B C67B 1_555 1_555
C68B C67B 1_555 1_555
H77B C68B 1_555 1_555
C69B N18B 1_555 1_555
H78B C69B 1_555 1_555
N19B Ag3A 1_555 1_555
N20B C75B 1_555 1_555
N21B H79B 1_555 1_555
N22B C82B 1_555 1_555
N23B H80B 1_555 1_555
N24B Ag4B 1_555 1_555
O13B C75B 1_555 1_555
O14B C80B 1_555 1_555
O15B C82B 1_555 1_555
O16B Ag2B 1_555 1_555
C70B N19B 1_555 1_555
H81B C70B 1_555 1_555
C71B C70B 1_555 1_555
C72B C71B 1_555 1_555
H82B C72B 1_555 1_555
C73B C72B 1_555 1_555
H83B C73B 1_555 1_555
C74B N19B 1_555 1_555
H84B C74B 1_555 1_555
C75B C71B 1_555 1_555
C76B N20B 1_555 1_555
H85B C76B 1_555 1_555
H86B C76B 1_555 1_555
C77B C76B 1_555 1_555
H87B C77B 1_555 1_555
H88B C77B 1_555 1_555
C78B C77B 1_555 1_555
H89B C78B 1_555 1_555
H90B C78B 1_555 1_555
C79B N20B 1_555 1_555
H91B C79B 1_555 1_555
C80B N21B 1_555 1_555
C81B N21B 1_555 1_555
H92B C81B 1_555 1_555
H93B C81B 1_555 1_555
C82B C81B 1_555 1_555
C83B N22B 1_555 1_555
H94B C83B 1_555 1_555
H95B C83B 1_555 1_555
C84B C83B 1_555 1_555
H96B C84B 1_555 1_555
H97B C84B 1_555 1_555
C85B C84B 1_555 1_555
H98B C85B 1_555 1_555
H99B C85B 1_555 1_555
C86B N22B 1_555 1_555
H100B C86B 1_555 1_555
C87B N23B 1_555 1_555
C88B N24B 1_555 1_555
H101B C88B 1_555 1_555
C89B N23B 1_555 1_555
C90B C89B 1_555 1_555
H102B C90B 1_555 1_555
C91B C90B 1_555 1_555
H103B C91B 1_555 1_555
C92B N24B 1_555 1_555
H104B C92B 1_555 1_555
F14A B4 1_555 1_555
F14B B4 1_555 1_555
F16A B5 1_555 1_555
F16B B5 1_555 1_555
F18A B6 1_555 1_555
F18B B6 1_555 1_555
C4 C5 1_555 1_555
C9 C10 1_555 1_555
C10 C11 1_555 1_555
C16 C17 1_555 1_555
C17 C18 1_555 1_555
C19 C20 1_555 1_555
C22 C23 1_555 1_555
C27 C28 1_555 1_555
C32 C33 1_555 1_555
C33 C34 1_555 1_555
C39 C40 1_555 1_555
C40 C41 1_555 1_555
C42 C43 1_555 1_555
C45 C46 1_555 1_555
O12 C64 1_555 1_555
C48 C49 1_555 1_555
C50 C51 1_555 1_555
C55 C56 1_555 1_555
C56 C57 1_555 1_555
C62 C63 1_555 1_555
C63 C64 1_555 1_555
C65 C66 1_555 1_555
C68 C69 1_555 1_555
O16 C87 1_555 1_555
C73 C74 1_555 1_555
C78 C79 1_555 1_555
C79 C80 1_555 1_555
C85 C86 1_555 1_555
C86 C87 1_555 1_555
C88 C89 1_555 1_555
C91 C92 1_555 1_555
C4A C5A 1_555 1_555
C9A C10A 1_555 1_555
C10A C11A 1_555 1_555
C16A C17A 1_555 1_555
C17A C18A 1_555 1_555
C19A C20A 1_555 1_555
C22A C23A 1_555 1_555
C27A C28A 1_555 1_555
C32A C33A 1_555 1_555
C33A C34A 1_555 1_555
C39A C40A 1_555 1_555
C40A C41A 1_555 1_555
C42A C43A 1_555 1_555
C45A C46A 1_555 1_555
O12A C64A 1_555 1_555
C48A C49A 1_555 1_555
C50A C51A 1_555 1_555
C55A C56A 1_555 1_555
C56A C57A 1_555 1_555
C62A C63A 1_555 1_555
C63A C64A 1_555 1_555
C65A C66A 1_555 1_555
C68A C69A 1_555 1_555
O16A C87A 1_555 1_555
C73A C74A 1_555 1_555
C78A C79A 1_555 1_555
C79A C80A 1_555 1_555
C85A C86A 1_555 1_555
C86A C87A 1_555 1_555
C88A C89A 1_555 1_555
C91A C92A 1_555 1_555
C4B C5B 1_555 1_555
C9B C10B 1_555 1_555
C10B C11B 1_555 1_555
C16B C17B 1_555 1_555
C17B C18B 1_555 1_555
C19B C20B 1_555 1_555
C22B C23B 1_555 1_555
O8B C41B 1_555 1_555
C27B C28B 1_555 1_555
C32B C33B 1_555 1_555
C33B C34B 1_555 1_555
C39B C40B 1_555 1_555
C40B C41B 1_555 1_555
C42B C43B 1_555 1_555
C45B C46B 1_555 1_555
O12B C64B 1_555 1_555
C48B C49B 1_555 1_555
C50B C51B 1_555 1_555
C55B C56B 1_555 1_555
C56B C57B 1_555 1_555
C62B C63B 1_555 1_555
C63B C64B 1_555 1_555
C65B C66B 1_555 1_555
C68B C69B 1_555 1_555
O16B C87B 1_555 1_555
C73B C74B 1_555 1_555
C78B C79B 1_555 1_555
C79B C80B 1_555 1_555
C85B C86B 1_555 1_555
C86B C87B 1_555 1_555
C88B C89B 1_555 1_555
C91B C92B 1_555 1_555

#END
