
#######################################################################
#
#                 Cambridge Crystallographic Data Centre
#                                CCDC 
#
#######################################################################
#
# If this CIF has been generated from an entry in the Cambridge 
# Structural Database, then it will include bibliographic, chemical, 
# crystal, experimental, refinement or atomic coordinate data resulting 
# from the CCDC's data processing and validation procedures.
#
#######################################################################

data_VACSOK
_chemical_formula_moiety         
'C264 H288 Ag12 N72 O48 12+,12(B1 F4 1-),49.5(H2 O1)'
_chemical_name_systematic        
'dodecakis(\m-N-((1-(pyridin-3-ylcarbonyl)azetidin-2-yl)carbonyl)glycyl-N-pyridin-3-yl-L-prolinamide)-dodeca-silver dodecakis(tetrafluoroborate) hydrate'
_symmetry_cell_setting           rhombohedral
_symmetry_space_group_name_H-M   'R 3'
_symmetry_Int_Tables_number      146
_space_group_name_Hall           'P 3*'
loop_
_symmetry_equiv_pos_site_id
_symmetry_equiv_pos_as_xyz
1 x,y,z
2 z,x,y
3 y,z,x
_cell_length_a                   23.2853(8)
_cell_length_b                   23.2853(8)
_cell_length_c                   23.2853(8)
_cell_angle_alpha                59.69
_cell_angle_beta                 59.69
_cell_angle_gamma                59.69
_cell_volume                     8864.65
_exptl_crystal_colour            colorless
_exptl_crystal_description       block
_cell_formula_units_Z            1
_exptl_crystal_recrystallization_method methanol/water
loop_
_atom_site_label
_atom_site_type_symbol
_atom_site_fract_x
_atom_site_fract_y
_atom_site_fract_z
Ag1 Ag 0.33703(4) 0.49065(4) 1.21867(4)
Ag2 Ag 0.18257(4) 0.50239(4) 0.99132(4)
Ag3 Ag 0.35751(5) 0.15224(4) 0.98186(5)
Ag4 Ag 0.54970(5) 0.23715(5) 0.97923(4)
C1 C 0.4711(7) 0.5152(6) 1.0887(6)
H1 H 0.4391 0.5385 1.0637
C2 C 0.5403(7) 0.5126(7) 1.0513(7)
H2 H 0.5559 0.5332 1.0013
C3 C 0.5871(6) 0.4787(7) 1.0887(7)
H3 H 0.6352 0.4761 1.0647
C4 C 0.5619(6) 0.4497(6) 1.1602(6)
C5 C 0.4920(6) 0.4532(6) 1.1953(6)
H4 H 0.4760 0.4318 1.2452
C6 C 0.6119(6) 0.4105(6) 1.2010(6)
C7 C 0.5328(6) 0.4764(6) 1.2936(7)
H5 H 0.4842 0.4757 1.3135
H6 H 0.5353 0.5241 1.2613
C8 C 0.5683(6) 0.4422(6) 1.3483(7)
H7 H 0.5416 0.4165 1.3958
H8 H 0.5813 0.4750 1.3510
C9 C 0.6317(6) 0.3929(6) 1.3055(6)
H9 H 0.6724 0.4109 1.2765
C10 C 0.6559(5) 0.3151(6) 1.3445(6)
C11 C 0.6440(7) 0.2028(6) 1.3774(6)
H10 H 0.6089 0.1847 1.4224
H11 H 0.6892 0.1834 1.3854
C12 C 0.6541(6) 0.1810(6) 1.3201(6)
N1 N 0.6950(6) 0.1145(6) 1.3222(6)
C13 C 0.7277(9) 0.0571(8) 1.3773(10)
H12 H 0.6928 0.0364 1.4201
H13 H 0.7489 0.0745 1.3905
C14 C 0.7843(11) 0.0041(9) 1.3387(13)
H14 H 0.8276 0.0169 1.3077
H15 H 0.7966 -0.0445 1.3724
C15 C 0.7469(13) 0.0114(11) 1.2958(15)
H16 H 0.7816 -0.0053 1.2552
H17 H 0.7145 -0.0164 1.3256
C16 C 0.7070(8) 0.0876(9) 1.2711(10)
H18 H 0.7369 0.1108 1.2236
C17 C 0.6381(6) 0.1016(6) 1.2667(7)
C18 C 0.5891(6) 0.1664(6) 1.1139(6)
H19 H 0.6308 0.1776 1.0809
C19 C 0.5825(6) 0.1329(6) 1.1846(6)
C20 C 0.5220(6) 0.1161(6) 1.2331(6)
H20 H 0.5169 0.0921 1.2818
C21 C 0.4694(6) 0.1347(6) 1.2094(6)
H21 H 0.4274 0.1237 1.2417
C22 C 0.4780(6) 0.1693(7) 1.1384(6)
H22 H 0.4406 0.1834 1.1231
N2 N 0.4468(5) 0.4856(5) 1.1608(5)
N3 N 0.5876(5) 0.4189(5) 1.2641(5)
N4 N 0.6198(5) 0.2781(5) 1.3534(5)
H23 H 0.5801 0.3016 1.3441
N5 N 0.6403(5) 0.1201(5) 1.2004(5)
H24 H 0.6797 0.1244 1.1653
N6 N 0.5371(5) 0.1840(5) 1.0901(5)
O1 O 0.6728(4) 0.3706(5) 1.1800(5)
O2 O 0.7048(4) 0.2873(4) 1.3668(5)
O3 O 0.6256(4) 0.2225(4) 1.2754(4)
O4 O 0.5878(5) 0.0931(5) 1.3202(4)
C23 C 0.2293(6) 0.6244(6) 0.9505(6)
H25 H 0.2747 0.5926 0.9338
C24 C 0.2237(6) 0.6884(6) 0.9443(6)
H26 H 0.2649 0.7000 0.9257
C25 C 0.1581(7) 0.7358(6) 0.9653(7)
H27 H 0.1533 0.7813 0.9595
C26 C 0.0994(6) 0.7171(6) 0.9948(7)
C27 C 0.1087(6) 0.6490(6) 1.0022(6)
H28 H 0.0686 0.6347 1.0239
C28 C 0.0275(6) 0.7644(6) 1.0215(7)
C29 C -0.0300(6) 0.7444(7) 0.9652(6)
H29 H -0.0203 0.6933 0.9799
H30 H -0.0021 0.7630 0.9151
C30 C -0.1082(7) 0.7878(9) 0.9841(7)
H31 H -0.1396 0.7590 1.0125
H32 H -0.1221 0.8263 0.9430
C31 C -0.0987(6) 0.8131(7) 1.0288(7)
H33 H -0.1012 0.8636 1.0053
C32 C -0.1460(6) 0.7971(7) 1.1068(7)
C33 C -0.1526(7) 0.7473(9) 1.2289(8)
H34 H -0.1779 0.7148 1.2465
H35 H -0.1876 0.7909 1.2401
C34 C -0.0982(7) 0.7132(7) 1.2633(8)
C35 C -0.1926(8) 0.7144(11) 1.3777(10)
H36 H -0.2132 0.6785 1.3935
H37 H -0.2222 0.7614 1.3547
C36 C -0.1841(11) 0.7141(13) 1.4404(13)
H38 H -0.1807 0.7594 1.4297
H39 H -0.2241 0.7052 1.4845
C37 C -0.1158(8) 0.6539(9) 1.4458(8)
H40 H -0.1228 0.6075 1.4697
H41 H -0.0950 0.6575 1.4715
C38 C -0.0693(7) 0.6649(8) 1.3673(8)
H42 H -0.0445 0.6981 1.3504
C39 C -0.0158(6) 0.5952(6) 1.3560(6)
C40 C 0.1764(6) 0.5300(6) 1.2988(6)
H43 H 0.1803 0.5747 1.2832
C41 C 0.1094(6) 0.5232(6) 1.3369(6)
C42 C 0.1039(6) 0.4573(6) 1.3621(6)
H44 H 0.0597 0.4499 1.3901
C43 C 0.1657(7) 0.4021(6) 1.3449(6)
H45 H 0.1638 0.3565 1.3608
C44 C 0.2284(6) 0.4137(6) 1.3054(6)
H46 H 0.2695 0.3761 1.2925
N7 N 0.1722(5) 0.6050(5) 0.9795(5)
N8 N -0.0250(6) 0.7639(5) 1.0144(6)
N9 N -0.1174(7) 0.7639(9) 1.1543(7)
H47 H -0.0710 0.7496 1.1396
N10 N -0.1193(6) 0.6967(7) 1.3311(6)
N11 N 0.0514(5) 0.5830(5) 1.3481(5)
H48 H 0.0586 0.6154 1.3502
N12 N 0.2344(5) 0.4775(5) 1.2836(5)
O5 O 0.0175(5) 0.8028(5) 1.0512(6)
O6 O -0.2097(6) 0.8223(10) 1.1198(7)
O7 O -0.0331(5) 0.6980(6) 1.2281(6)
O8 O -0.0327(4) 0.5532(4) 1.3550(5)
C45 C 0.0008(6) 0.3229(7) 1.0309(6)
H49 H 0.0063 0.2768 1.0650
C46 C -0.0006(7) 0.3350(7) 0.9653(6)
H50 H -0.0003 0.2989 0.9568
C47 C -0.0025(7) 0.4011(7) 0.9140(6)
H51 H -0.0012 0.4104 0.8687
C48 C -0.0064(6) 0.4543(6) 0.9297(6)
C49 C -0.0064(6) 0.4369(7) 0.9952(6)
H52 H -0.0072 0.4718 1.0057
C50 C -0.0038(6) 0.5240(6) 0.8746(6)
C51 C -0.1111(7) 0.5962(9) 0.9543(8)
H53 H -0.1051 0.5817 0.9994
H54 H -0.1456 0.5785 0.9612
C52 C -0.1237(8) 0.6754(9) 0.9107(10)
H55 H -0.1238 0.7022 0.9330
H56 H -0.1658 0.6993 0.8961
C53 C -0.0524(6) 0.6544(7) 0.8514(7)
H57 H -0.0611 0.6649 0.8087
C54 C 0.0028(6) 0.6835(7) 0.8312(7)
C55 C 0.1201(6) 0.6530(6) 0.8305(6)
H58 H 0.1180 0.6597 0.8703
H59 H 0.1205 0.6973 0.7897
C56 C 0.1866(6) 0.5931(6) 0.8112(6)
C57 C 0.2606(7) 0.6698(6) 0.7575(7)
H60 H 0.2505 0.7065 0.7138
H61 H 0.2307 0.6893 0.7966
C58 C 0.3377(6) 0.6440(7) 0.7474(7)
H62 H 0.3444 0.6292 0.7922
H63 H 0.3590 0.6812 0.7113
C59 C 0.3706(6) 0.5810(6) 0.7226(6)
H64 H 0.3818 0.5968 0.6711
H65 H 0.4143 0.5477 0.7343
C60 C 0.3135(5) 0.5471(6) 0.7634(5)
H66 H 0.3148 0.5257 0.7346
C61 C 0.3197(5) 0.4926(6) 0.8340(6)
C62 C 0.3578(5) 0.3049(5) 0.9113(5)
H67 H 0.3534 0.3014 0.8748
C63 C 0.3613(5) 0.3681(6) 0.9003(6)
C64 C 0.3698(5) 0.3727(6) 0.9527(6)
H68 H 0.3741 0.4139 0.9467
C65 C 0.3717(6) 0.3141(6) 1.0146(6)
H69 H 0.3778 0.3147 1.0516
C66 C 0.3648(6) 0.2558(6) 1.0213(6)
H70 H 0.3631 0.2178 1.0649
N13 N -0.0054(5) 0.3733(5) 1.0457(5)
N14 N -0.0428(5) 0.5819(5) 0.8949(5)
N15 N 0.0596(5) 0.6363(6) 0.8503(6)
H71 H 0.0600 0.5927 0.8763
N16 N 0.2488(5) 0.6049(5) 0.7746(5)
N17 N 0.3537(5) 0.4248(5) 0.8372(5)
H72 H 0.3720 0.4152 0.7982
N18 N 0.3602(5) 0.2493(5) 0.9704(5)
O9 O 0.0386(5) 0.5288(5) 0.8133(4)
O10 O -0.0058(6) 0.7468(5) 0.7987(7)
O11 O 0.1829(4) 0.5353(4) 0.8286(4)
O12 O 0.2986(4) 0.5121(4) 0.8840(4)
C67 C 0.5455(6) 0.3560(6) 0.8381(6)
H73 H 0.5441 0.3796 0.8624
C68 C 0.5411(6) 0.3934(6) 0.7715(6)
H74 H 0.5392 0.4413 0.7491
C69 C 0.5396(6) 0.3598(6) 0.7377(6)
H75 H 0.5339 0.3852 0.6926
C70 C 0.5462(6) 0.2892(6) 0.7698(6)
C71 C 0.5524(6) 0.2545(6) 0.8369(6)
H76 H 0.5574 0.2058 0.8594
C72 C 0.5423(6) 0.2549(6) 0.7331(6)
C73 C 0.6397(6) 0.1326(6) 0.7656(7)
H77 H 0.6288 0.1044 0.8165
H78 H 0.6759 0.1530 0.7492
C74 C 0.6554(6) 0.0941(7) 0.7190(7)
H79 H 0.6996 0.0948 0.6779
H80 H 0.6530 0.0457 0.7454
C75 C 0.5877(6) 0.1506(7) 0.7010(6)
H81 H 0.5999 0.1810 0.6501
C76 C 0.5293(6) 0.1248(7) 0.7216(6)
C77 C 0.4188(6) 0.1079(6) 0.8098(6)
H82 H 0.4186 0.0632 0.8503
H83 H 0.4166 0.1028 0.7713
C78 C 0.3534(6) 0.1697(6) 0.8323(6)
C79 C 0.2733(6) 0.1218(6) 0.8420(6)
H84 H 0.2647 0.0836 0.8880
H85 H 0.3114 0.1007 0.8051
C80 C 0.2067(8) 0.1687(8) 0.8232(7)
H86 H 0.1775 0.1408 0.8382
H87 H 0.2178 0.1944 0.7718
C81 C 0.1687(7) 0.2199(7) 0.8646(7)
H88 H 0.1355 0.2641 0.8429
H89 H 0.1423 0.1980 0.9143
C82 C 0.2288(6) 0.2341(6) 0.8600(6)
H90 H 0.2355 0.2783 0.8199
C83 C 0.2179(5) 0.2382(6) 0.9270(6)
C84 C 0.1798(5) 0.3855(5) 0.9687(6)
H91 H 0.1854 0.4177 0.9217
C85 C 0.1740(5) 0.3222(6) 0.9852(5)
C86 C 0.1608(6) 0.2759(6) 1.0553(6)
H92 H 0.1533 0.2338 1.0685
C87 C 0.1593(6) 0.2942(5) 1.1040(6)
H93 H 0.1516 0.2639 1.1518
C88 C 0.1692(6) 0.3577(6) 1.0826(6)
H94 H 0.1698 0.3688 1.1163
N19 N 0.5516(5) 0.2876(5) 0.8704(5)
N20 N 0.5762(5) 0.1847(5) 0.7450(5)
N21 N 0.4804(5) 0.1206(6) 0.7870(5)
H95 H 0.4882 0.1262 0.8168
N22 N 0.2903(5) 0.1725(5) 0.8454(5)
N23 N 0.1829(5) 0.3048(5) 0.9311(5)
H96 H 0.1649 0.3386 0.8978
N24 N 0.1778(5) 0.4030(4) 1.0166(5)
O13 O 0.5077(4) 0.2897(5) 0.6930(4)
O14 O 0.5299(5) 0.1061(7) 0.6808(5)
O15 O 0.3633(4) 0.2166(4) 0.8351(4)
O16 O 0.2354(4) 0.1872(4) 0.9751(4)
Ag1A Ag 0.21867(4) 0.33703(4) 1.49065(4)
Ag2A Ag -0.00868(4) 0.18257(4) 1.50239(4)
Ag3A Ag -0.01814(5) 0.35751(5) 1.15224(4)
Ag4A Ag -0.02077(4) 0.54970(5) 1.23715(5)
C1A C 0.0887(6) 0.4711(7) 1.5152(6)
H1A H 0.0637 0.4391 1.5385
C2A C 0.0513(7) 0.5403(7) 1.5126(7)
H2A H 0.0013 0.5559 1.5332
C3A C 0.0887(7) 0.5871(6) 1.4787(7)
H3A H 0.0647 0.6352 1.4761
C4A C 0.1602(6) 0.5619(6) 1.4497(6)
C5A C 0.1953(6) 0.4920(6) 1.4532(6)
H4A H 0.2452 0.4760 1.4318
C6A C 0.2010(6) 0.6119(6) 1.4105(6)
C7A C 0.2936(7) 0.5328(6) 1.4764(6)
H5A H 0.3135 0.4842 1.4757
H6A H 0.2613 0.5353 1.5241
C8A C 0.3483(7) 0.5683(6) 1.4422(6)
H7A H 0.3958 0.5416 1.4165
H8A H 0.3510 0.5813 1.4750
C9A C 0.3055(6) 0.6317(6) 1.3929(6)
H9A H 0.2765 0.6724 1.4109
C10A C 0.3445(6) 0.6559(5) 1.3151(6)
C11A C 0.3774(6) 0.6440(7) 1.2028(6)
H10A H 0.4224 0.6089 1.1847
H11A H 0.3854 0.6892 1.1834
C12A C 0.3201(6) 0.6541(6) 1.1810(6)
N1A N 0.3222(6) 0.6950(6) 1.1145(6)
C13A C 0.3773(10) 0.7277(9) 1.0571(8)
H12A H 0.4201 0.6928 1.0364
H13A H 0.3905 0.7489 1.0745
C14A C 0.3387(13) 0.7843(11) 1.0041(9)
H14A H 0.3077 0.8276 1.0169
H15A H 0.3724 0.7966 0.9555
C15A C 0.2958(15) 0.7469(13) 1.0114(11)
H16A H 0.2552 0.7816 0.9947
H17A H 0.3256 0.7145 0.9836
C16A C 0.2711(10) 0.7070(8) 1.0876(9)
H18A H 0.2236 0.7369 1.1108
C17A C 0.2667(7) 0.6381(6) 1.1016(6)
C18A C 0.1139(6) 0.5891(6) 1.1664(6)
H19A H 0.0809 0.6308 1.1776
C19A C 0.1846(6) 0.5825(6) 1.1329(6)
C20A C 0.2331(6) 0.5220(6) 1.1161(6)
H20A H 0.2818 0.5169 1.0921
C21A C 0.2094(6) 0.4694(6) 1.1347(6)
H21A H 0.2417 0.4274 1.1237
C22A C 0.1384(6) 0.4780(6) 1.1693(7)
H22A H 0.1231 0.4406 1.1834
N2A N 0.1608(5) 0.4468(5) 1.4856(5)
N3A N 0.2641(5) 0.5876(5) 1.4189(5)
N4A N 0.3534(5) 0.6198(5) 1.2781(5)
H23A H 0.3441 0.5801 1.3016
N5A N 0.2004(5) 0.6403(5) 1.1201(5)
H24A H 0.1653 0.6797 1.1244
N6A N 0.0901(5) 0.5371(5) 1.1840(5)
O1A O 0.1800(5) 0.6728(4) 1.3706(5)
O2A O 0.3668(5) 0.7048(4) 1.2873(4)
O3A O 0.2754(4) 0.6256(4) 1.2225(4)
O4A O 0.3202(4) 0.5878(5) 1.0931(5)
C23A C -0.0495(6) 0.2293(6) 1.6244(6)
H25A H -0.0662 0.2747 1.5926
C24A C -0.0557(6) 0.2237(6) 1.6884(6)
H26A H -0.0743 0.2649 1.7000
C25A C -0.0347(7) 0.1581(7) 1.7358(6)
H27A H -0.0405 0.1533 1.7813
C26A C -0.0052(7) 0.0994(6) 1.7171(6)
C27A C 0.0022(6) 0.1087(6) 1.6490(6)
H28A H 0.0239 0.0686 1.6347
C28A C 0.0215(7) 0.0275(6) 1.7644(6)
C29A C -0.0348(6) -0.0300(6) 1.7444(7)
H29A H -0.0201 -0.0203 1.6933
H30A H -0.0849 -0.0021 1.7630
C30A C -0.0159(7) -0.1082(7) 1.7878(9)
H31A H 0.0125 -0.1396 1.7590
H32A H -0.0570 -0.1221 1.8263
C31A C 0.0288(7) -0.0987(6) 1.8131(7)
H33A H 0.0053 -0.1012 1.8636
C32A C 0.1068(7) -0.1460(6) 1.7971(7)
C33A C 0.2289(8) -0.1526(7) 1.7473(9)
H34A H 0.2465 -0.1779 1.7148
H35A H 0.2401 -0.1876 1.7909
C34A C 0.2633(8) -0.0982(7) 1.7132(7)
C35A C 0.3777(10) -0.1926(8) 1.7144(11)
H36A H 0.3935 -0.2132 1.6785
H37A H 0.3547 -0.2222 1.7614
C36A C 0.4404(13) -0.1841(11) 1.7141(13)
H38A H 0.4297 -0.1807 1.7594
H39A H 0.4845 -0.2241 1.7052
C37A C 0.4458(8) -0.1158(8) 1.6539(9)
H40A H 0.4697 -0.1228 1.6075
H41A H 0.4715 -0.0950 1.6575
C38A C 0.3673(8) -0.0693(7) 1.6649(8)
H42A H 0.3504 -0.0445 1.6981
C39A C 0.3560(6) -0.0158(6) 1.5952(6)
C40A C 0.2988(6) 0.1764(6) 1.5300(6)
H43A H 0.2832 0.1803 1.5747
C41A C 0.3369(6) 0.1094(6) 1.5232(6)
C42A C 0.3621(6) 0.1039(6) 1.4573(6)
H44A H 0.3901 0.0597 1.4499
C43A C 0.3449(6) 0.1657(7) 1.4021(6)
H45A H 0.3608 0.1638 1.3565
C44A C 0.3054(6) 0.2284(6) 1.4137(6)
H46A H 0.2925 0.2695 1.3761
N7A N -0.0205(5) 0.1722(5) 1.6050(5)
N8A N 0.0144(6) -0.0250(6) 1.7639(5)
N9A N 0.1543(7) -0.1174(7) 1.7639(9)
H47A H 0.1396 -0.0710 1.7496
N10A N 0.3311(6) -0.1193(6) 1.6967(7)
N11A N 0.3481(5) 0.0514(5) 1.5830(5)
H48A H 0.3502 0.0586 1.6154
N12A N 0.2836(5) 0.2344(5) 1.4775(5)
O5A O 0.0512(6) 0.0175(5) 1.8028(5)
O6A O 0.1198(7) -0.2097(6) 1.8223(10)
O7A O 0.2281(6) -0.0331(5) 1.6980(6)
O8A O 0.3550(5) -0.0327(4) 1.5532(4)
C45A C 0.0309(6) 0.0008(6) 1.3229(7)
H49A H 0.0650 0.0063 1.2768
C46A C -0.0347(6) -0.0006(7) 1.3350(7)
H50A H -0.0432 -0.0003 1.2989
C47A C -0.0860(6) -0.0025(7) 1.4011(7)
H51A H -0.1313 -0.0012 1.4104
C48A C -0.0703(6) -0.0064(6) 1.4543(6)
C49A C -0.0048(6) -0.0064(6) 1.4369(7)
H52A H 0.0057 -0.0072 1.4718
C50A C -0.1254(6) -0.0038(6) 1.5240(6)
C51A C -0.0457(8) -0.1111(7) 1.5962(9)
H53A H -0.0006 -0.1051 1.5817
H54A H -0.0388 -0.1456 1.5785
C52A C -0.0893(10) -0.1237(8) 1.6754(9)
H55A H -0.0670 -0.1238 1.7022
H56A H -0.1039 -0.1658 1.6993
C53A C -0.1486(7) -0.0524(6) 1.6544(7)
H57A H -0.1913 -0.0611 1.6649
C54A C -0.1688(7) 0.0028(6) 1.6835(7)
C55A C -0.1695(6) 0.1201(6) 1.6530(6)
H58A H -0.1297 0.1180 1.6597
H59A H -0.2103 0.1205 1.6973
C56A C -0.1888(6) 0.1866(6) 1.5931(6)
C57A C -0.2425(7) 0.2606(7) 1.6698(6)
H60A H -0.2862 0.2505 1.7065
H61A H -0.2034 0.2307 1.6893
C58A C -0.2526(7) 0.3377(6) 1.6440(7)
H62A H -0.2078 0.3444 1.6292
H63A H -0.2887 0.3590 1.6812
C59A C -0.2774(6) 0.3706(6) 1.5810(6)
H64A H -0.3289 0.3818 1.5968
H65A H -0.2657 0.4143 1.5477
C60A C -0.2366(5) 0.3135(5) 1.5471(6)
H66A H -0.2654 0.3148 1.5257
C61A C -0.1660(6) 0.3197(5) 1.4926(6)
C62A C -0.0887(5) 0.3578(5) 1.3049(5)
H67A H -0.1252 0.3534 1.3014
C63A C -0.0997(6) 0.3613(5) 1.3681(6)
C64A C -0.0473(6) 0.3698(5) 1.3727(6)
H68A H -0.0533 0.3741 1.4139
C65A C 0.0146(6) 0.3717(6) 1.3141(6)
H69A H 0.0516 0.3778 1.3147
C66A C 0.0213(6) 0.3648(6) 1.2558(6)
H70A H 0.0649 0.3631 1.2178
N13A N 0.0457(5) -0.0054(5) 1.3733(5)
N14A N -0.1051(5) -0.0428(5) 1.5819(5)
N15A N -0.1497(6) 0.0596(5) 1.6363(6)
H71A H -0.1237 0.0600 1.5927
N16A N -0.2254(5) 0.2488(5) 1.6049(5)
N17A N -0.1628(5) 0.3537(5) 1.4248(5)
H72A H -0.2018 0.3720 1.4152
N18A N -0.0296(5) 0.3602(5) 1.2493(5)
O9A O -0.1867(4) 0.0386(5) 1.5288(5)
O10A O -0.2013(7) -0.0058(6) 1.7468(5)
O11A O -0.1714(4) 0.1829(4) 1.5353(4)
O12A O -0.1160(4) 0.2986(4) 1.5121(4)
C67A C -0.1619(6) 0.5455(6) 1.3560(6)
H73A H -0.1376 0.5441 1.3796
C68A C -0.2285(6) 0.5411(6) 1.3934(6)
H74A H -0.2509 0.5392 1.4413
C69A C -0.2623(6) 0.5396(6) 1.3598(6)
H75A H -0.3074 0.5339 1.3852
C70A C -0.2302(6) 0.5462(6) 1.2892(6)
C71A C -0.1631(6) 0.5524(6) 1.2545(6)
H76A H -0.1406 0.5574 1.2058
C72A C -0.2669(6) 0.5423(6) 1.2549(6)
C73A C -0.2344(7) 0.6397(6) 1.1326(6)
H77A H -0.1835 0.6288 1.1044
H78A H -0.2508 0.6759 1.1530
C74A C -0.2810(7) 0.6554(6) 1.0941(7)
H79A H -0.3221 0.6996 1.0948
H80A H -0.2546 0.6530 1.0457
C75A C -0.2990(6) 0.5877(6) 1.1506(7)
H81A H -0.3499 0.5999 1.1810
C76A C -0.2784(6) 0.5293(6) 1.1248(7)
C77A C -0.1902(6) 0.4188(6) 1.1079(6)
H82A H -0.1497 0.4186 1.0632
H83A H -0.2287 0.4166 1.1028
C78A C -0.1677(6) 0.3534(6) 1.1697(6)
C79A C -0.1580(6) 0.2733(6) 1.1218(6)
H84A H -0.1120 0.2647 1.0836
H85A H -0.1949 0.3114 1.1007
C80A C -0.1768(7) 0.2067(8) 1.1687(8)
H86A H -0.1618 0.1775 1.1408
H87A H -0.2282 0.2178 1.1944
C81A C -0.1354(7) 0.1687(7) 1.2199(7)
H88A H -0.1571 0.1355 1.2641
H89A H -0.0857 0.1423 1.1980
C82A C -0.1400(6) 0.2288(6) 1.2341(6)
H90A H -0.1801 0.2355 1.2783
C83A C -0.0730(6) 0.2179(5) 1.2382(6)
C84A C -0.0313(6) 0.1798(5) 1.3855(5)
H91A H -0.0783 0.1854 1.4177
C85A C -0.0148(5) 0.1740(5) 1.3222(6)
C86A C 0.0553(6) 0.1608(6) 1.2759(6)
H92A H 0.0685 0.1533 1.2338
C87A C 0.1040(6) 0.1593(6) 1.2942(5)
H93A H 0.1518 0.1516 1.2639
C88A C 0.0826(6) 0.1692(6) 1.3577(6)
H94A H 0.1163 0.1698 1.3688
N19A N -0.1296(5) 0.5516(5) 1.2876(5)
N20A N -0.2550(5) 0.5762(5) 1.1847(5)
N21A N -0.2130(5) 0.4804(5) 1.1206(6)
H95A H -0.1832 0.4882 1.1262
N22A N -0.1546(5) 0.2903(5) 1.1725(5)
N23A N -0.0689(5) 0.1829(5) 1.3048(5)
H96A H -0.1022 0.1649 1.3386
N24A N 0.0166(5) 0.1778(5) 1.4030(4)
O13A O -0.3070(4) 0.5077(4) 1.2897(5)
O14A O -0.3192(5) 0.5299(5) 1.1061(7)
O15A O -0.1649(4) 0.3633(4) 1.2166(4)
O16A O -0.0249(4) 0.2354(4) 1.1872(4)
Ag1B Ag 0.49065(4) 0.21867(4) 1.33703(4)
Ag2B Ag 0.50239(4) -0.00868(4) 1.18257(4)
Ag3B Ag 0.15224(4) -0.01814(5) 1.35751(5)
Ag4B Ag 0.23715(5) -0.02077(4) 1.54970(5)
C1B C 0.5152(6) 0.0887(6) 1.4711(7)
H1B H 0.5385 0.0637 1.4391
C2B C 0.5126(7) 0.0513(7) 1.5403(7)
H2B H 0.5332 0.0013 1.5559
C3B C 0.4787(7) 0.0887(7) 1.5871(6)
H3B H 0.4761 0.0647 1.6352
C4B C 0.4497(6) 0.1602(6) 1.5619(6)
C5B C 0.4532(6) 0.1953(6) 1.4920(6)
H4B H 0.4318 0.2452 1.4760
C6B C 0.4105(6) 0.2010(6) 1.6119(6)
C7B C 0.4764(6) 0.2936(7) 1.5328(6)
H5B H 0.4757 0.3135 1.4842
H6B H 0.5241 0.2613 1.5353
C8B C 0.4422(6) 0.3483(7) 1.5683(6)
H7B H 0.4165 0.3958 1.5416
H8B H 0.4750 0.3510 1.5813
C9B C 0.3929(6) 0.3055(6) 1.6317(6)
H9B H 0.4109 0.2765 1.6724
C10B C 0.3151(6) 0.3445(6) 1.6559(5)
C11B C 0.2028(6) 0.3774(6) 1.6440(7)
H10B H 0.1847 0.4224 1.6089
H11B H 0.1834 0.3854 1.6892
C12B C 0.1810(6) 0.3201(6) 1.6541(6)
N1B N 0.1145(6) 0.3222(6) 1.6950(6)
C13B C 0.0571(8) 0.3773(10) 1.7277(9)
H12B H 0.0364 0.4201 1.6928
H13B H 0.0745 0.3905 1.7489
C14B C 0.0041(9) 0.3387(13) 1.7843(11)
H14B H 0.0169 0.3077 1.8276
H15B H -0.0445 0.3724 1.7966
C15B C 0.0114(11) 0.2958(15) 1.7469(13)
H16B H -0.0053 0.2552 1.7816
H17B H -0.0164 0.3256 1.7145
C16B C 0.0876(9) 0.2711(10) 1.7070(8)
H18B H 0.1108 0.2236 1.7369
C17B C 0.1016(6) 0.2667(7) 1.6381(6)
C18B C 0.1664(6) 0.1139(6) 1.5891(6)
H19B H 0.1776 0.0809 1.6308
C19B C 0.1329(6) 0.1846(6) 1.5825(6)
C20B C 0.1161(6) 0.2331(6) 1.5220(6)
H20B H 0.0921 0.2818 1.5169
C21B C 0.1347(6) 0.2094(6) 1.4694(6)
H21B H 0.1237 0.2417 1.4274
C22B C 0.1693(7) 0.1384(6) 1.4780(6)
H22B H 0.1834 0.1231 1.4406
N2B N 0.4856(5) 0.1608(5) 1.4468(5)
N3B N 0.4189(5) 0.2641(5) 1.5876(5)
N4B N 0.2781(5) 0.3534(5) 1.6198(5)
H23B H 0.3016 0.3441 1.5801
N5B N 0.1201(5) 0.2004(5) 1.6403(5)
H24B H 0.1244 0.1653 1.6797
N6B N 0.1840(5) 0.0901(5) 1.5371(5)
O1B O 0.3706(5) 0.1800(5) 1.6728(4)
O2B O 0.2873(4) 0.3668(5) 1.7048(4)
O3B O 0.2225(4) 0.2754(4) 1.6256(4)
O4B O 0.0931(5) 0.3202(4) 1.5878(5)
C23B C 0.6244(6) -0.0495(6) 1.2293(6)
H25B H 0.5926 -0.0662 1.2747
C24B C 0.6884(6) -0.0557(6) 1.2237(6)
H26B H 0.7000 -0.0743 1.2649
C25B C 0.7358(6) -0.0347(7) 1.1581(7)
H27B H 0.7813 -0.0405 1.1533
C26B C 0.7171(6) -0.0052(7) 1.0994(6)
C27B C 0.6490(6) 0.0022(6) 1.1087(6)
H28B H 0.6347 0.0239 1.0686
C28B C 0.7644(6) 0.0215(7) 1.0275(6)
C29B C 0.7444(7) -0.0348(6) 0.9700(6)
H29B H 0.6933 -0.0201 0.9797
H30B H 0.7630 -0.0849 0.9979
C30B C 0.7878(9) -0.0159(7) 0.8918(7)
H31B H 0.7590 0.0125 0.8604
H32B H 0.8263 -0.0570 0.8779
C31B C 0.8131(7) 0.0288(7) 0.9013(6)
H33B H 0.8636 0.0053 0.8988
C32B C 0.7971(7) 0.1068(7) 0.8540(6)
C33B C 0.7473(9) 0.2289(8) 0.8474(7)
H34B H 0.7148 0.2465 0.8221
H35B H 0.7909 0.2401 0.8124
C34B C 0.7132(7) 0.2633(8) 0.9018(7)
C35B C 0.7144(11) 0.3777(10) 0.8074(8)
H36B H 0.6785 0.3935 0.7868
H37B H 0.7614 0.3547 0.7778
C36B C 0.7141(13) 0.4404(13) 0.8159(11)
H38B H 0.7594 0.4297 0.8193
H39B H 0.7052 0.4845 0.7759
C37B C 0.6539(9) 0.4458(8) 0.8842(8)
H40B H 0.6075 0.4697 0.8772
H41B H 0.6575 0.4715 0.9050
C38B C 0.6649(8) 0.3673(8) 0.9307(7)
H42B H 0.6981 0.3504 0.9555
C39B C 0.5952(6) 0.3560(6) 0.9842(6)
C40B C 0.5300(6) 0.2988(6) 1.1764(6)
H43B H 0.5747 0.2832 1.1803
C41B C 0.5232(6) 0.3369(6) 1.1094(6)
C42B C 0.4573(6) 0.3621(6) 1.1039(6)
H44B H 0.4499 0.3901 1.0597
C43B C 0.4021(6) 0.3449(6) 1.1657(7)
H45B H 0.3565 0.3608 1.1638
C44B C 0.4137(6) 0.3054(6) 1.2284(6)
H46B H 0.3761 0.2925 1.2695
N7B N 0.6050(5) -0.0205(5) 1.1722(5)
N8B N 0.7639(5) 0.0144(6) 0.9750(6)
N9B N 0.7639(9) 0.1543(7) 0.8826(7)
H47B H 0.7496 0.1396 0.9290
N10B N 0.6967(7) 0.3311(6) 0.8807(6)
N11B N 0.5830(5) 0.3481(5) 1.0514(5)
H48B H 0.6154 0.3502 1.0586
N12B N 0.4775(5) 0.2836(5) 1.2344(5)
O5B O 0.8028(5) 0.0512(6) 1.0175(5)
O6B O 0.8223(10) 0.1198(7) 0.7903(6)
O7B O 0.6980(6) 0.2281(6) 0.9669(5)
O8B O 0.5532(4) 0.3550(5) 0.9673(4)
C45B C 0.3229(7) 0.0309(6) 1.0008(6)
H49B H 0.2768 0.0650 1.0063
C46B C 0.3350(7) -0.0347(6) 0.9994(7)
H50B H 0.2989 -0.0432 0.9997
C47B C 0.4011(7) -0.0860(6) 0.9975(7)
H51B H 0.4104 -0.1313 0.9988
C48B C 0.4543(6) -0.0703(6) 0.9936(6)
C49B C 0.4369(7) -0.0048(6) 0.9936(6)
H52B H 0.4718 0.0057 0.9928
C50B C 0.5240(6) -0.1254(6) 0.9962(6)
C51B C 0.5962(9) -0.0457(8) 0.8889(7)
H53B H 0.5817 -0.0006 0.8949
H54B H 0.5785 -0.0388 0.8544
C52B C 0.6754(9) -0.0893(10) 0.8763(8)
H55B H 0.7022 -0.0670 0.8762
H56B H 0.6993 -0.1039 0.8342
C53B C 0.6544(7) -0.1486(7) 0.9476(6)
H57B H 0.6649 -0.1913 0.9389
C54B C 0.6835(7) -0.1688(7) 1.0028(6)
C55B C 0.6530(6) -0.1695(6) 1.1201(6)
H58B H 0.6597 -0.1297 1.1180
H59B H 0.6973 -0.2103 1.1205
C56B C 0.5931(6) -0.1888(6) 1.1866(6)
C57B C 0.6698(6) -0.2425(7) 1.2606(7)
H60B H 0.7065 -0.2862 1.2505
H61B H 0.6893 -0.2034 1.2307
C58B C 0.6440(7) -0.2526(7) 1.3377(6)
H62B H 0.6292 -0.2078 1.3444
H63B H 0.6812 -0.2887 1.3590
C59B C 0.5810(6) -0.2774(6) 1.3706(6)
H64B H 0.5968 -0.3289 1.3818
H65B H 0.5477 -0.2657 1.4143
C60B C 0.5471(6) -0.2366(5) 1.3135(5)
H66B H 0.5257 -0.2654 1.3148
C61B C 0.4926(6) -0.1660(6) 1.3197(5)
C62B C 0.3049(5) -0.0887(5) 1.3578(5)
H67B H 0.3014 -0.1252 1.3534
C63B C 0.3681(6) -0.0997(6) 1.3613(5)
C64B C 0.3727(6) -0.0473(6) 1.3698(5)
H68B H 0.4139 -0.0533 1.3741
C65B C 0.3141(6) 0.0146(6) 1.3717(6)
H69B H 0.3147 0.0516 1.3778
C66B C 0.2558(6) 0.0213(6) 1.3648(6)
H70B H 0.2178 0.0649 1.3631
N13B N 0.3733(5) 0.0457(5) 0.9946(5)
N14B N 0.5819(5) -0.1051(5) 0.9572(5)
N15B N 0.6363(6) -0.1497(6) 1.0596(5)
H71B H 0.5927 -0.1237 1.0600
N16B N 0.6049(5) -0.2254(5) 1.2488(5)
N17B N 0.4248(5) -0.1628(5) 1.3537(5)
H72B H 0.4152 -0.2018 1.3720
N18B N 0.2493(5) -0.0296(5) 1.3602(5)
O9B O 0.5288(5) -0.1867(4) 1.0386(5)
O10B O 0.7468(5) -0.2013(7) 0.9942(6)
O11B O 0.5353(4) -0.1714(4) 1.1829(4)
O12B O 0.5121(4) -0.1160(4) 1.2986(4)
C67B C 0.3560(6) -0.1619(6) 1.5455(6)
H73B H 0.3796 -0.1376 1.5441
C68B C 0.3934(6) -0.2285(6) 1.5411(6)
H74B H 0.4413 -0.2509 1.5392
C69B C 0.3598(6) -0.2623(6) 1.5396(6)
H75B H 0.3852 -0.3074 1.5339
C70B C 0.2892(6) -0.2302(6) 1.5462(6)
C71B C 0.2545(6) -0.1631(6) 1.5524(6)
H76B H 0.2058 -0.1406 1.5574
C72B C 0.2549(6) -0.2669(6) 1.5423(6)
C73B C 0.1326(6) -0.2344(7) 1.6397(6)
H77B H 0.1044 -0.1835 1.6288
H78B H 0.1530 -0.2508 1.6759
C74B C 0.0941(7) -0.2810(7) 1.6554(6)
H79B H 0.0948 -0.3221 1.6996
H80B H 0.0457 -0.2546 1.6530
C75B C 0.1506(7) -0.2990(6) 1.5877(6)
H81B H 0.1810 -0.3499 1.5999
C76B C 0.1248(7) -0.2784(6) 1.5293(6)
C77B C 0.1079(6) -0.1902(6) 1.4188(6)
H82B H 0.0632 -0.1497 1.4186
H83B H 0.1028 -0.2287 1.4166
C78B C 0.1697(6) -0.1677(6) 1.3534(6)
C79B C 0.1218(6) -0.1580(6) 1.2733(6)
H84B H 0.0836 -0.1120 1.2647
H85B H 0.1007 -0.1949 1.3114
C80B C 0.1687(8) -0.1768(7) 1.2067(8)
H86B H 0.1408 -0.1618 1.1775
H87B H 0.1944 -0.2282 1.2178
C81B C 0.2199(7) -0.1354(7) 1.1687(7)
H88B H 0.2641 -0.1571 1.1355
H89B H 0.1980 -0.0857 1.1423
C82B C 0.2341(6) -0.1400(6) 1.2288(6)
H90B H 0.2783 -0.1801 1.2355
C83B C 0.2382(6) -0.0730(6) 1.2179(5)
C84B C 0.3855(5) -0.0313(6) 1.1798(5)
H91B H 0.4177 -0.0783 1.1854
C85B C 0.3222(6) -0.0148(5) 1.1740(5)
C86B C 0.2759(6) 0.0553(6) 1.1608(6)
H92B H 0.2338 0.0685 1.1533
C87B C 0.2942(5) 0.1040(6) 1.1593(6)
H93B H 0.2639 0.1518 1.1516
C88B C 0.3577(6) 0.0826(6) 1.1692(6)
H94B H 0.3688 0.1163 1.1698
N19B N 0.2876(5) -0.1296(5) 1.5516(5)
N20B N 0.1847(5) -0.2550(5) 1.5762(5)
N21B N 0.1206(6) -0.2130(5) 1.4804(5)
H95B H 0.1262 -0.1832 1.4882
N22B N 0.1725(5) -0.1546(5) 1.2903(5)
N23B N 0.3048(5) -0.0689(5) 1.1829(5)
H96B H 0.3386 -0.1022 1.1649
N24B N 0.4030(4) 0.0166(5) 1.1778(5)
O13B O 0.2897(5) -0.3070(4) 1.5077(4)
O14B O 0.1061(7) -0.3192(5) 1.5299(5)
O15B O 0.2166(4) -0.1649(4) 1.3633(4)
O16B O 0.1872(4) -0.0249(4) 1.2354(4)
B1 B 0.3844(4) 0.3844(4) 0.3844(4)
F1 F 0.3517(4) 0.3676(4) 0.4575(4)
F2 F 0.3597(2) 0.3597(2) 0.3597(2)
F1A F 0.4575(4) 0.3517(4) 0.3676(4)
F1B F 0.3676(4) 0.4575(4) 0.3517(4)
B2 B 0.5313(9) 0.9227(8) 0.4270(7)
F3 F 0.5052(5) 0.8674(5) 0.4633(5)
F4 F 0.4919(5) 0.9782(4) 0.3849(4)
F5 F 0.6019(4) 0.9002(5) 0.3873(4)
F6 F 0.5252(5) 0.9465(5) 0.4759(4)
B3 B 0.2494(3) 0.2494(3) 0.2494(3)
F7 F 0.1890(4) 0.3000(4) 0.2354(5)
F8 F 0.2735(2) 0.2735(2) 0.2735(2)
F7A F 0.2354(5) 0.1890(4) 0.3000(4)
F7B F 0.3000(4) 0.2354(5) 0.1890(4)
B4 B -0.0148(7) 0.5426(7) 1.0840(6)
F9 F -0.0696(4) 0.5186(4) 1.1043(4)
F10 F -0.0451(4) 0.6025(4) 1.1027(4)
F11 F 0.0181(4) 0.5594(4) 1.0109(4)
F12 F 0.0331(4) 0.4903(4) 1.1178(4)
B5 B 0.1004(5) 0.1004(5) 0.1004(5)
F13 F 0.1568(5) 0.0554(5) 0.0641(6)
F14 F 0.1250(3) 0.1250(3) 0.1250(3)
F13A F 0.0641(6) 0.1568(5) 0.0554(5)
F13B F 0.0554(5) 0.0641(6) 0.1568(5)
O17 O 0.3382(6) 0.5173(6) 0.6173(6)
O18 O 0.7238(4) 0.3792(4) 0.3912(4)
O19 O 0.8042(4) 0.1525(4) 0.4056(4)
O20 O 0.0835(6) 0.7004(6) 0.3134(6)
O21 O 0.5023(9) 0.6759(9) 0.6432(9)
O22 O 0.5883(10) 0.7592(10) 0.5498(9)
O23 O -0.1377(18) 0.2636(17) 0.8614(18)
O24 O 0.6967(5) 0.1946(5) 0.5360(5)
O25 O 0.6329(11) 0.1139(12) 0.5452(11)
O26 O 0.567(2) 0.697(2) -0.005(3)
O27 O 0.656(2) 0.786(2) 0.599(2)
O28 O 0.741(3) 0.877(3) 0.492(3)
O29 O 0.7248(15) 0.8791(16) 0.3838(15)
O30 O 0.0813(9) 0.7459(9) 1.1795(10)
O31 O 0.088(2) 0.889(2) 1.071(2)
O32 O 0.122(2) 0.910(2) 0.915(2)
O33 O 0.9022(17) 0.6414(17) 0.5970(17)
O34 O 0.835(2) 0.865(2) 0.580(2)
O35 O 0.870(2) 0.789(2) 0.498(2)
O36 O -0.195(2) 0.364(2) 0.967(2)
O37 O 0.9513(6) 0.9513(6) 0.9513(6)
O38 O 0.5784(6) 0.5784(6) 0.5784(6)
O39 O 0.8368(7) 0.8368(7) 0.8368(7)
O40? O 0.6441(12) 0.0925(13) 0.5555(12)
O41? O 0.5814(16) 0.7029(16) -0.0455(18)
O42? O 0.0883(16) 0.7701(16) 1.1305(16)
B6? B 0.5167(5) 0.5167(5) 0.5167(5)
F15? F 0.481(2) 0.5700(17) 0.5364(18)
F16? F 0.5254(14) 0.4514(11) 0.5731(10)
F17? F 0.523(3) 0.507(3) 0.467(2)
loop_
_geom_bond_atom_site_label_1
_geom_bond_atom_site_label_2
_geom_bond_site_symmetry_1
_geom_bond_site_symmetry_2
Ag1 N2 1_555 1_555
Ag2 N7 1_555 1_555
Ag3 N18 1_555 1_555
Ag4 N6 1_555 1_555
C1 H1 1_555 1_555
C2 C1 1_555 1_555
H2 C2 1_555 1_555
C3 C2 1_555 1_555
H3 C3 1_555 1_555
C4 C3 1_555 1_555
C5 C4 1_555 1_555
H4 C5 1_555 1_555
C6 C4 1_555 1_555
C7 H5 1_555 1_555
H6 C7 1_555 1_555
C8 C7 1_555 1_555
H7 C8 1_555 1_555
H8 C8 1_555 1_555
C9 C8 1_555 1_555
H9 C9 1_555 1_555
C10 C9 1_555 1_555
C11 H10 1_555 1_555
H11 C11 1_555 1_555
C12 C11 1_555 1_555
N1 C12 1_555 1_555
C13 N1 1_555 1_555
H12 C13 1_555 1_555
H13 C13 1_555 1_555
C14 C13 1_555 1_555
H14 C14 1_555 1_555
H15 C14 1_555 1_555
C15 C14 1_555 1_555
H16 C15 1_555 1_555
H17 C15 1_555 1_555
C16 N1 1_555 1_555
H18 C16 1_555 1_555
C17 C16 1_555 1_555
C18 H19 1_555 1_555
C19 C18 1_555 1_555
C20 C19 1_555 1_555
H20 C20 1_555 1_555
C21 C20 1_555 1_555
H21 C21 1_555 1_555
C22 C21 1_555 1_555
H22 C22 1_555 1_555
N2 C1 1_555 1_555
N3 C6 1_555 1_555
N4 C10 1_555 1_555
H23 N4 1_555 1_555
N5 C17 1_555 1_555
H24 N5 1_555 1_555
N6 C18 1_555 1_555
O1 C6 1_555 1_555
O2 C10 1_555 1_555
O3 C12 1_555 1_555
O4 C17 1_555 1_555
C23 H25 1_555 1_555
C24 C23 1_555 1_555
H26 C24 1_555 1_555
C25 C24 1_555 1_555
H27 C25 1_555 1_555
C26 C25 1_555 1_555
C27 C26 1_555 1_555
H28 C27 1_555 1_555
C28 C26 1_555 1_555
C29 H29 1_555 1_555
H30 C29 1_555 1_555
C30 C29 1_555 1_555
H31 C30 1_555 1_555
H32 C30 1_555 1_555
C31 C30 1_555 1_555
H33 C31 1_555 1_555
C32 C31 1_555 1_555
C33 H34 1_555 1_555
H35 C33 1_555 1_555
C34 C33 1_555 1_555
C35 H36 1_555 1_555
H37 C35 1_555 1_555
C36 C35 1_555 1_555
H38 C36 1_555 1_555
H39 C36 1_555 1_555
C37 C36 1_555 1_555
H40 C37 1_555 1_555
H41 C37 1_555 1_555
C38 C37 1_555 1_555
H42 C38 1_555 1_555
C39 C38 1_555 1_555
C40 H43 1_555 1_555
C41 C40 1_555 1_555
C42 C41 1_555 1_555
H44 C42 1_555 1_555
C43 C42 1_555 1_555
H45 C43 1_555 1_555
C44 C43 1_555 1_555
H46 C44 1_555 1_555
N7 C23 1_555 1_555
N8 C28 1_555 1_555
N9 C32 1_555 1_555
H47 N9 1_555 1_555
N10 C34 1_555 1_555
N11 C39 1_555 1_555
H48 N11 1_555 1_555
N12 Ag1 1_555 1_555
O5 C28 1_555 1_555
O6 C32 1_555 1_555
O7 C34 1_555 1_555
O8 C39 1_555 1_555
C45 H49 1_555 1_555
C46 C45 1_555 1_555
H50 C46 1_555 1_555
C47 C46 1_555 1_555
H51 C47 1_555 1_555
C48 C47 1_555 1_555
C49 C48 1_555 1_555
H52 C49 1_555 1_555
C50 C48 1_555 1_555
C51 H53 1_555 1_555
H54 C51 1_555 1_555
C52 C51 1_555 1_555
H55 C52 1_555 1_555
H56 C52 1_555 1_555
C53 C52 1_555 1_555
H57 C53 1_555 1_555
C54 C53 1_555 1_555
C55 H58 1_555 1_555
H59 C55 1_555 1_555
C56 C55 1_555 1_555
C57 H60 1_555 1_555
H61 C57 1_555 1_555
C58 C57 1_555 1_555
H62 C58 1_555 1_555
H63 C58 1_555 1_555
C59 C58 1_555 1_555
H64 C59 1_555 1_555
H65 C59 1_555 1_555
C60 C59 1_555 1_555
H66 C60 1_555 1_555
C61 C60 1_555 1_555
C62 H67 1_555 1_555
C63 C62 1_555 1_555
C64 C63 1_555 1_555
H68 C64 1_555 1_555
C65 C64 1_555 1_555
H69 C65 1_555 1_555
C66 C65 1_555 1_555
H70 C66 1_555 1_555
N13 C45 1_555 1_555
N14 C50 1_555 1_555
N15 C54 1_555 1_555
H71 N15 1_555 1_555
N16 C56 1_555 1_555
N17 C61 1_555 1_555
H72 N17 1_555 1_555
N18 C62 1_555 1_555
O9 C50 1_555 1_555
O10 C54 1_555 1_555
O11 C56 1_555 1_555
O12 Ag2 1_555 1_555
C67 H73 1_555 1_555
C68 C67 1_555 1_555
H74 C68 1_555 1_555
C69 C68 1_555 1_555
H75 C69 1_555 1_555
C70 C69 1_555 1_555
C71 C70 1_555 1_555
H76 C71 1_555 1_555
C72 C70 1_555 1_555
C73 H77 1_555 1_555
H78 C73 1_555 1_555
C74 C73 1_555 1_555
H79 C74 1_555 1_555
H80 C74 1_555 1_555
C75 C74 1_555 1_555
H81 C75 1_555 1_555
C76 C75 1_555 1_555
C77 H82 1_555 1_555
H83 C77 1_555 1_555
C78 C77 1_555 1_555
C79 H84 1_555 1_555
H85 C79 1_555 1_555
C80 C79 1_555 1_555
H86 C80 1_555 1_555
H87 C80 1_555 1_555
C81 C80 1_555 1_555
H88 C81 1_555 1_555
H89 C81 1_555 1_555
C82 C81 1_555 1_555
H90 C82 1_555 1_555
C83 C82 1_555 1_555
C84 H91 1_555 1_555
C85 C84 1_555 1_555
C86 C85 1_555 1_555
H92 C86 1_555 1_555
C87 C86 1_555 1_555
H93 C87 1_555 1_555
C88 C87 1_555 1_555
H94 C88 1_555 1_555
N19 Ag4 1_555 1_555
N20 C72 1_555 1_555
N21 C76 1_555 1_555
H95 N21 1_555 1_555
N22 C78 1_555 1_555
N23 C83 1_555 1_555
H96 N23 1_555 1_555
N24 Ag2 1_555 1_555
O13 C72 1_555 1_555
O14 C76 1_555 1_555
O15 C78 1_555 1_555
O16 Ag3 1_555 1_555
B1 F1 1_555 1_555
F2 B1 1_555 1_555
B2 F3 1_555 1_555
F4 B2 1_555 1_555
F5 B2 1_555 1_555
F6 B2 1_555 1_555
B3 F7 1_555 1_555
F8 B3 1_555 1_555
B4 F9 1_555 1_555
F10 B4 1_555 1_555
F11 B4 1_555 1_555
F12 B4 1_555 1_555
B5 F13 1_555 1_555
F14 B5 1_555 1_555
Ag1A N2A 1_555 1_555
Ag2A N7A 1_555 1_555
Ag3A N13 1_555 1_555
Ag4A O8 1_555 1_555
C1A H1A 1_555 1_555
C2A C1A 1_555 1_555
H2A C2A 1_555 1_555
C3A C2A 1_555 1_555
H3A C3A 1_555 1_555
C4A C3A 1_555 1_555
C5A C4A 1_555 1_555
H4A C5A 1_555 1_555
C6A C4A 1_555 1_555
C7A H5A 1_555 1_555
H6A C7A 1_555 1_555
C8A C7A 1_555 1_555
H7A C8A 1_555 1_555
H8A C8A 1_555 1_555
C9A C8A 1_555 1_555
H9A C9A 1_555 1_555
C10A C9A 1_555 1_555
C11A H10A 1_555 1_555
H11A C11A 1_555 1_555
C12A C11A 1_555 1_555
N1A C12A 1_555 1_555
C13A N1A 1_555 1_555
H12A C13A 1_555 1_555
H13A C13A 1_555 1_555
C14A C13A 1_555 1_555
H14A C14A 1_555 1_555
H15A C14A 1_555 1_555
C15A C14A 1_555 1_555
H16A C15A 1_555 1_555
H17A C15A 1_555 1_555
C16A N1A 1_555 1_555
H18A C16A 1_555 1_555
C17A C16A 1_555 1_555
C18A H19A 1_555 1_555
C19A C18A 1_555 1_555
C20A C19A 1_555 1_555
H20A C20A 1_555 1_555
C21A C20A 1_555 1_555
H21A C21A 1_555 1_555
C22A C21A 1_555 1_555
H22A C22A 1_555 1_555
N2A C1A 1_555 1_555
N3A C6A 1_555 1_555
N4A C10A 1_555 1_555
H23A N4A 1_555 1_555
N5A C17A 1_555 1_555
H24A N5A 1_555 1_555
N6A Ag4A 1_555 1_555
O1A C6A 1_555 1_555
O2A C10A 1_555 1_555
O3A C12A 1_555 1_555
O4A C17A 1_555 1_555
C23A H25A 1_555 1_555
C24A C23A 1_555 1_555
H26A C24A 1_555 1_555
C25A C24A 1_555 1_555
H27A C25A 1_555 1_555
C26A C25A 1_555 1_555
C27A C26A 1_555 1_555
H28A C27A 1_555 1_555
C28A C26A 1_555 1_555
C29A H29A 1_555 1_555
H30A C29A 1_555 1_555
C30A C29A 1_555 1_555
H31A C30A 1_555 1_555
H32A C30A 1_555 1_555
C31A C30A 1_555 1_555
H33A C31A 1_555 1_555
C32A C31A 1_555 1_555
C33A H34A 1_555 1_555
H35A C33A 1_555 1_555
C34A C33A 1_555 1_555
C35A H36A 1_555 1_555
H37A C35A 1_555 1_555
C36A C35A 1_555 1_555
H38A C36A 1_555 1_555
H39A C36A 1_555 1_555
C37A C36A 1_555 1_555
H40A C37A 1_555 1_555
H41A C37A 1_555 1_555
C38A C37A 1_555 1_555
H42A C38A 1_555 1_555
C39A C38A 1_555 1_555
C40A H43A 1_555 1_555
C41A C40A 1_555 1_555
C42A C41A 1_555 1_555
H44A C42A 1_555 1_555
C43A C42A 1_555 1_555
H45A C43A 1_555 1_555
C44A C43A 1_555 1_555
H46A C44A 1_555 1_555
N7A C23A 1_555 1_555
N8A C28A 1_555 1_555
N9A C32A 1_555 1_555
H47A N9A 1_555 1_555
N10A C34A 1_555 1_555
N11A C39A 1_555 1_555
H48A N11A 1_555 1_555
N12A Ag1A 1_555 1_555
O5A C28A 1_555 1_555
O6A C32A 1_555 1_555
O7A C34A 1_555 1_555
O8A C39A 1_555 1_555
C45A H49A 1_555 1_555
C46A C45A 1_555 1_555
H50A C46A 1_555 1_555
C47A C46A 1_555 1_555
H51A C47A 1_555 1_555
C48A C47A 1_555 1_555
C49A C48A 1_555 1_555
H52A C49A 1_555 1_555
C50A C48A 1_555 1_555
C51A H53A 1_555 1_555
H54A C51A 1_555 1_555
C52A C51A 1_555 1_555
H55A C52A 1_555 1_555
H56A C52A 1_555 1_555
C53A C52A 1_555 1_555
H57A C53A 1_555 1_555
C54A C53A 1_555 1_555
C55A H58A 1_555 1_555
H59A C55A 1_555 1_555
C56A C55A 1_555 1_555
C57A H60A 1_555 1_555
H61A C57A 1_555 1_555
C58A C57A 1_555 1_555
H62A C58A 1_555 1_555
H63A C58A 1_555 1_555
C59A C58A 1_555 1_555
H64A C59A 1_555 1_555
H65A C59A 1_555 1_555
C60A C59A 1_555 1_555
H66A C60A 1_555 1_555
C61A C60A 1_555 1_555
C62A H67A 1_555 1_555
C63A C62A 1_555 1_555
C64A C63A 1_555 1_555
H68A C64A 1_555 1_555
C65A C64A 1_555 1_555
H69A C65A 1_555 1_555
C66A C65A 1_555 1_555
H70A C66A 1_555 1_555
N13A C45A 1_555 1_555
N14A C50A 1_555 1_555
N15A C54A 1_555 1_555
H71A N15A 1_555 1_555
N16A C56A 1_555 1_555
N17A C61A 1_555 1_555
H72A N17A 1_555 1_555
N18A Ag3A 1_555 1_555
O9A C50A 1_555 1_555
O10A C54A 1_555 1_555
O11A C56A 1_555 1_555
O12A Ag2A 1_555 1_555
C67A H73A 1_555 1_555
C68A C67A 1_555 1_555
H74A C68A 1_555 1_555
C69A C68A 1_555 1_555
H75A C69A 1_555 1_555
C70A C69A 1_555 1_555
C71A C70A 1_555 1_555
H76A C71A 1_555 1_555
C72A C70A 1_555 1_555
C73A H77A 1_555 1_555
H78A C73A 1_555 1_555
C74A C73A 1_555 1_555
H79A C74A 1_555 1_555
H80A C74A 1_555 1_555
C75A C74A 1_555 1_555
H81A C75A 1_555 1_555
C76A C75A 1_555 1_555
C77A H82A 1_555 1_555
H83A C77A 1_555 1_555
C78A C77A 1_555 1_555
C79A H84A 1_555 1_555
H85A C79A 1_555 1_555
C80A C79A 1_555 1_555
H86A C80A 1_555 1_555
H87A C80A 1_555 1_555
C81A C80A 1_555 1_555
H88A C81A 1_555 1_555
H89A C81A 1_555 1_555
C82A C81A 1_555 1_555
H90A C82A 1_555 1_555
C83A C82A 1_555 1_555
C84A H91A 1_555 1_555
C85A C84A 1_555 1_555
C86A C85A 1_555 1_555
H92A C86A 1_555 1_555
C87A C86A 1_555 1_555
H93A C87A 1_555 1_555
C88A C87A 1_555 1_555
H94A C88A 1_555 1_555
N19A Ag4A 1_555 1_555
N20A C72A 1_555 1_555
N21A C76A 1_555 1_555
H95A N21A 1_555 1_555
N22A C78A 1_555 1_555
N23A C83A 1_555 1_555
H96A N23A 1_555 1_555
N24A Ag2A 1_555 1_555
O13A C72A 1_555 1_555
O14A C76A 1_555 1_555
O15A C78A 1_555 1_555
O16A Ag3A 1_555 1_555
Ag1B N2B 1_555 1_555
Ag2B N7B 1_555 1_555
Ag3B N13A 1_555 1_555
Ag4B O8A 1_555 1_555
C1B H1B 1_555 1_555
C2B C1B 1_555 1_555
H2B C2B 1_555 1_555
C3B C2B 1_555 1_555
H3B C3B 1_555 1_555
C4B C3B 1_555 1_555
C5B C4B 1_555 1_555
H4B C5B 1_555 1_555
C6B C4B 1_555 1_555
C7B H5B 1_555 1_555
H6B C7B 1_555 1_555
C8B C7B 1_555 1_555
H7B C8B 1_555 1_555
H8B C8B 1_555 1_555
C9B C8B 1_555 1_555
H9B C9B 1_555 1_555
C10B C9B 1_555 1_555
C11B H10B 1_555 1_555
H11B C11B 1_555 1_555
C12B C11B 1_555 1_555
N1B C12B 1_555 1_555
C13B N1B 1_555 1_555
H12B C13B 1_555 1_555
H13B C13B 1_555 1_555
C14B C13B 1_555 1_555
H14B C14B 1_555 1_555
H15B C14B 1_555 1_555
C15B C14B 1_555 1_555
H16B C15B 1_555 1_555
H17B C15B 1_555 1_555
C16B N1B 1_555 1_555
H18B C16B 1_555 1_555
C17B C16B 1_555 1_555
C18B H19B 1_555 1_555
C19B C18B 1_555 1_555
C20B C19B 1_555 1_555
H20B C20B 1_555 1_555
C21B C20B 1_555 1_555
H21B C21B 1_555 1_555
C22B C21B 1_555 1_555
H22B C22B 1_555 1_555
N2B C1B 1_555 1_555
N3B C6B 1_555 1_555
N4B C10B 1_555 1_555
H23B N4B 1_555 1_555
N5B C17B 1_555 1_555
H24B N5B 1_555 1_555
N6B Ag4B 1_555 1_555
O1B C6B 1_555 1_555
O2B C10B 1_555 1_555
O3B C12B 1_555 1_555
O4B C17B 1_555 1_555
C23B H25B 1_555 1_555
C24B C23B 1_555 1_555
H26B C24B 1_555 1_555
C25B C24B 1_555 1_555
H27B C25B 1_555 1_555
C26B C25B 1_555 1_555
C27B C26B 1_555 1_555
H28B C27B 1_555 1_555
C28B C26B 1_555 1_555
C29B H29B 1_555 1_555
H30B C29B 1_555 1_555
C30B C29B 1_555 1_555
H31B C30B 1_555 1_555
H32B C30B 1_555 1_555
C31B C30B 1_555 1_555
H33B C31B 1_555 1_555
C32B C31B 1_555 1_555
C33B H34B 1_555 1_555
H35B C33B 1_555 1_555
C34B C33B 1_555 1_555
C35B H36B 1_555 1_555
H37B C35B 1_555 1_555
C36B C35B 1_555 1_555
H38B C36B 1_555 1_555
H39B C36B 1_555 1_555
C37B C36B 1_555 1_555
H40B C37B 1_555 1_555
H41B C37B 1_555 1_555
C38B C37B 1_555 1_555
H42B C38B 1_555 1_555
C39B C38B 1_555 1_555
C40B H43B 1_555 1_555
C41B C40B 1_555 1_555
C42B C41B 1_555 1_555
H44B C42B 1_555 1_555
C43B C42B 1_555 1_555
H45B C43B 1_555 1_555
C44B C43B 1_555 1_555
H46B C44B 1_555 1_555
N7B C23B 1_555 1_555
N8B C28B 1_555 1_555
N9B C32B 1_555 1_555
H47B N9B 1_555 1_555
N10B C34B 1_555 1_555
N11B C39B 1_555 1_555
H48B N11B 1_555 1_555
N12B Ag1B 1_555 1_555
O5B C28B 1_555 1_555
O6B C32B 1_555 1_555
O7B C34B 1_555 1_555
O8B Ag4 1_555 1_555
C45B H49B 1_555 1_555
C46B C45B 1_555 1_555
H50B C46B 1_555 1_555
C47B C46B 1_555 1_555
H51B C47B 1_555 1_555
C48B C47B 1_555 1_555
C49B C48B 1_555 1_555
H52B C49B 1_555 1_555
C50B C48B 1_555 1_555
C51B H53B 1_555 1_555
H54B C51B 1_555 1_555
C52B C51B 1_555 1_555
H55B C52B 1_555 1_555
H56B C52B 1_555 1_555
C53B C52B 1_555 1_555
H57B C53B 1_555 1_555
C54B C53B 1_555 1_555
C55B H58B 1_555 1_555
H59B C55B 1_555 1_555
C56B C55B 1_555 1_555
C57B H60B 1_555 1_555
H61B C57B 1_555 1_555
C58B C57B 1_555 1_555
H62B C58B 1_555 1_555
H63B C58B 1_555 1_555
C59B C58B 1_555 1_555
H64B C59B 1_555 1_555
H65B C59B 1_555 1_555
C60B C59B 1_555 1_555
H66B C60B 1_555 1_555
C61B C60B 1_555 1_555
C62B H67B 1_555 1_555
C63B C62B 1_555 1_555
C64B C63B 1_555 1_555
H68B C64B 1_555 1_555
C65B C64B 1_555 1_555
H69B C65B 1_555 1_555
C66B C65B 1_555 1_555
H70B C66B 1_555 1_555
N13B Ag3 1_555 1_555
N14B C50B 1_555 1_555
N15B C54B 1_555 1_555
H71B N15B 1_555 1_555
N16B C56B 1_555 1_555
N17B C61B 1_555 1_555
H72B N17B 1_555 1_555
N18B Ag3B 1_555 1_555
O9B C50B 1_555 1_555
O10B C54B 1_555 1_555
O11B C56B 1_555 1_555
O12B Ag2B 1_555 1_555
C67B H73B 1_555 1_555
C68B C67B 1_555 1_555
H74B C68B 1_555 1_555
C69B C68B 1_555 1_555
H75B C69B 1_555 1_555
C70B C69B 1_555 1_555
C71B C70B 1_555 1_555
H76B C71B 1_555 1_555
C72B C70B 1_555 1_555
C73B H77B 1_555 1_555
H78B C73B 1_555 1_555
C74B C73B 1_555 1_555
H79B C74B 1_555 1_555
H80B C74B 1_555 1_555
C75B C74B 1_555 1_555
H81B C75B 1_555 1_555
C76B C75B 1_555 1_555
C77B H82B 1_555 1_555
H83B C77B 1_555 1_555
C78B C77B 1_555 1_555
C79B H84B 1_555 1_555
H85B C79B 1_555 1_555
C80B C79B 1_555 1_555
H86B C80B 1_555 1_555
H87B C80B 1_555 1_555
C81B C80B 1_555 1_555
H88B C81B 1_555 1_555
H89B C81B 1_555 1_555
C82B C81B 1_555 1_555
H90B C82B 1_555 1_555
C83B C82B 1_555 1_555
C84B H91B 1_555 1_555
C85B C84B 1_555 1_555
C86B C85B 1_555 1_555
H92B C86B 1_555 1_555
C87B C86B 1_555 1_555
H93B C87B 1_555 1_555
C88B C87B 1_555 1_555
H94B C88B 1_555 1_555
N19B Ag4B 1_555 1_555
N20B C72B 1_555 1_555
N21B C76B 1_555 1_555
H95B N21B 1_555 1_555
N22B C78B 1_555 1_555
N23B C83B 1_555 1_555
H96B N23B 1_555 1_555
N24B Ag2B 1_555 1_555
O13B C72B 1_555 1_555
O14B C76B 1_555 1_555
O15B C78B 1_555 1_555
O16B Ag3B 1_555 1_555
F1A B1 1_555 1_555
F1B B1 1_555 1_555
F7A B3 1_555 1_555
F7B B3 1_555 1_555
F13A B5 1_555 1_555
F13B B5 1_555 1_555
C5 N2 1_555 1_555
C7 N3 1_555 1_555
C9 N3 1_555 1_555
C11 N4 1_555 1_555
C15 C16 1_555 1_555
C19 N5 1_555 1_555
C22 N6 1_555 1_555
C27 N7 1_555 1_555
C29 N8 1_555 1_555
C31 N8 1_555 1_555
C33 N9 1_555 1_555
C35 N10 1_555 1_555
C38 N10 1_555 1_555
C40 N12 1_555 1_555
C41 N11 1_555 1_555
C44 N12 1_555 1_555
C49 N13 1_555 1_555
C51 N14 1_555 1_555
C53 N14 1_555 1_555
C55 N15 1_555 1_555
C57 N16 1_555 1_555
C60 N16 1_555 1_555
C61 O12 1_555 1_555
C63 N17 1_555 1_555
C66 N18 1_555 1_555
C67 N19 1_555 1_555
C71 N19 1_555 1_555
C73 N20 1_555 1_555
C75 N20 1_555 1_555
C77 N21 1_555 1_555
C79 N22 1_555 1_555
C82 N22 1_555 1_555
C83 O16 1_555 1_555
C84 N24 1_555 1_555
C85 N23 1_555 1_555
C88 N24 1_555 1_555
C5A N2A 1_555 1_555
C7A N3A 1_555 1_555
C9A N3A 1_555 1_555
C11A N4A 1_555 1_555
C15A C16A 1_555 1_555
C18A N6A 1_555 1_555
C19A N5A 1_555 1_555
C22A N6A 1_555 1_555
C27A N7A 1_555 1_555
C29A N8A 1_555 1_555
C31A N8A 1_555 1_555
C33A N9A 1_555 1_555
C35A N10A 1_555 1_555
C38A N10A 1_555 1_555
C40A N12A 1_555 1_555
C41A N11A 1_555 1_555
C44A N12A 1_555 1_555
C49A N13A 1_555 1_555
C51A N14A 1_555 1_555
C53A N14A 1_555 1_555
C55A N15A 1_555 1_555
C57A N16A 1_555 1_555
C60A N16A 1_555 1_555
C61A O12A 1_555 1_555
C62A N18A 1_555 1_555
C63A N17A 1_555 1_555
C66A N18A 1_555 1_555
C67A N19A 1_555 1_555
C71A N19A 1_555 1_555
C73A N20A 1_555 1_555
C75A N20A 1_555 1_555
C77A N21A 1_555 1_555
C79A N22A 1_555 1_555
C82A N22A 1_555 1_555
C83A O16A 1_555 1_555
C84A N24A 1_555 1_555
C85A N23A 1_555 1_555
C88A N24A 1_555 1_555
C5B N2B 1_555 1_555
C7B N3B 1_555 1_555
C9B N3B 1_555 1_555
C11B N4B 1_555 1_555
C15B C16B 1_555 1_555
C18B N6B 1_555 1_555
C19B N5B 1_555 1_555
C22B N6B 1_555 1_555
C27B N7B 1_555 1_555
C29B N8B 1_555 1_555
C31B N8B 1_555 1_555
C33B N9B 1_555 1_555
C35B N10B 1_555 1_555
C38B N10B 1_555 1_555
C39B O8B 1_555 1_555
C40B N12B 1_555 1_555
C41B N11B 1_555 1_555
C44B N12B 1_555 1_555
C45B N13B 1_555 1_555
C49B N13B 1_555 1_555
C51B N14B 1_555 1_555
C53B N14B 1_555 1_555
C55B N15B 1_555 1_555
C57B N16B 1_555 1_555
C60B N16B 1_555 1_555
C61B O12B 1_555 1_555
C62B N18B 1_555 1_555
C63B N17B 1_555 1_555
C66B N18B 1_555 1_555
C67B N19B 1_555 1_555
C71B N19B 1_555 1_555
C73B N20B 1_555 1_555
C75B N20B 1_555 1_555
C77B N21B 1_555 1_555
C79B N22B 1_555 1_555
C82B N22B 1_555 1_555
C83B O16B 1_555 1_555
C84B N24B 1_555 1_555
C85B N23B 1_555 1_555
C88B N24B 1_555 1_555

#END
