# generated using pymatgen
data_Ag12B12H330C285N72O169F48
_symmetry_space_group_name_H-M   'P 1'
_cell_length_a   23.36378679
_cell_length_b   23.36378679
_cell_length_c   23.36378679
_cell_angle_alpha   84.01039639
_cell_angle_beta   84.01039639
_cell_angle_gamma   84.01039639
_symmetry_Int_Tables_number   1
_chemical_formula_structural   Ag12B12H330C285N72O169F48
_chemical_formula_sum   'Ag12 B12 H330 C285 N72 O169 F48'
_cell_volume   12558.20433526
_cell_formula_units_Z   1
loop_
 _symmetry_equiv_pos_site_id
 _symmetry_equiv_pos_as_xyz
  1  'x, y, z'
loop_
 _atom_site_type_symbol
 _atom_site_label
 _atom_site_symmetry_multiplicity
 _atom_site_fract_x
 _atom_site_fract_y
 _atom_site_fract_z
 _atom_site_occupancy
  Ag  Ag1  1  0.013980  0.049820  0.199400  1.0
  Ag  Ag2  1  0.199400  0.013980  0.049820  1.0
  Ag  Ag3  1  0.049820  0.199400  0.013980  1.0
  Ag  Ag4  1  0.693890  0.980020  0.884680  1.0
  Ag  Ag5  1  0.884680  0.693890  0.980020  1.0
  Ag  Ag6  1  0.980020  0.884680  0.693890  1.0
  Ag  Ag7  1  0.018280  0.738150  0.139420  1.0
  Ag  Ag8  1  0.139420  0.018280  0.738150  1.0
  Ag  Ag9  1  0.738150  0.139420  0.018280  1.0
  Ag  Ag10  1  0.793470  0.827580  0.154530  1.0
  Ag  Ag11  1  0.154530  0.793470  0.827580  1.0
  Ag  Ag12  1  0.827580  0.154530  0.793470  1.0
  B  B13  1  0.766200  0.042400  0.248800  1
  B  B14  1  0.248800  0.766200  0.042400  1
  B  B15  1  0.042400  0.248800  0.766200  1
  B  B16  1  0.222500  0.421800  0.997600  1
  B  B17  1  0.997600  0.222500  0.421800  1
  B  B18  1  0.421800  0.997600  0.222500  1
  B  B19  1  0.874200  0.681100  0.143300  1
  B  B20  1  0.143300  0.874200  0.681100  1
  B  B21  1  0.681100  0.143300  0.874200  1
  B  B22  1  0.137233  0.137233  0.137233  1
  B  B23  1  0.956733  0.956733  0.956733  1
  B  B24  1  0.778033  0.778033  0.778033  1
  C  C25  1  0.578700  0.909700  0.305600  1
  C  C26  1  0.305600  0.578700  0.909700  1
  C  C27  1  0.909700  0.305600  0.578700  1
  C  C28  1  0.803700  0.595400  0.355900  1
  C  C29  1  0.355900  0.803700  0.595400  1
  C  C30  1  0.595400  0.355900  0.803700  1
  C  C31  1  0.229100  0.653100  0.267900  1
  C  C32  1  0.267900  0.229100  0.653100  1
  C  C33  1  0.653100  0.267900  0.229100  1
  C  C34  1  0.703700  0.668600  0.045800  1.0
  C  C35  1  0.045800  0.703700  0.668600  1.0
  C  C36  1  0.668600  0.045800  0.703700  1.0
  C  C37  1  0.762800  0.675300  0.038500  1.0
  C  C38  1  0.038500  0.762800  0.675300  1.0
  C  C39  1  0.675300  0.038500  0.762800  1.0
  C  C40  1  0.673200  0.675500  0.997400  1.0
  C  C41  1  0.997400  0.673200  0.675500  1.0
  C  C42  1  0.675500  0.997400  0.673200  1.0
  C  C43  1  0.704200  0.686500  0.942800  1.0
  C  C44  1  0.942800  0.704200  0.686500  1.0
  C  C45  1  0.686500  0.942800  0.704200  1.0
  C  C46  1  0.763900  0.690100  0.940100  1.0
  C  C47  1  0.940100  0.763900  0.690100  1.0
  C  C48  1  0.690100  0.940100  0.763900  1.0
  C  C49  1  0.670500  0.659900  0.105700  1.0
  C  C50  1  0.105700  0.670500  0.659900  1.0
  C  C51  1  0.659900  0.105700  0.670500  1.0
  C  C52  1  0.741500  0.576500  0.132200  1.0
  C  C53  1  0.132200  0.741500  0.576500  1.0
  C  C54  1  0.576500  0.132200  0.741500  1.0
  C  C55  1  0.723000  0.523900  0.171800  1.0
  C  C56  1  0.171800  0.723000  0.523900  1.0
  C  C57  1  0.523900  0.171800  0.723000  1.0
  C  C58  1  0.691100  0.556000  0.225300  1.0
  C  C59  1  0.225300  0.691100  0.556000  1.0
  C  C60  1  0.556000  0.225300  0.691100  1.0
  C  C61  1  0.661900  0.609400  0.200500  1.0
  C  C62  1  0.200500  0.661900  0.609400  1.0
  C  C63  1  0.609400  0.200500  0.661900  1.0
  C  C64  1  0.659200  0.653900  0.240300  1.0
  C  C65  1  0.240300  0.659200  0.653900  1.0
  C  C66  1  0.653900  0.240300  0.659200  1.0
  C  C67  1  0.677100  0.749400  0.264600  1.0
  C  C68  1  0.264600  0.677100  0.749400  1.0
  C  C69  1  0.749400  0.264600  0.677100  1.0
  C  C70  1  0.656000  0.805600  0.222600  1.0
  C  C71  1  0.222600  0.656000  0.805600  1.0
  C  C72  1  0.805600  0.222600  0.656000  1.0
  C  C73  1  0.632300  0.861700  0.309600  1.0
  C  C74  1  0.309600  0.632300  0.861700  1.0
  C  C75  1  0.861700  0.309600  0.632300  1.0
  C  C76  1  0.639300  0.929400  0.308100  1.0
  C  C77  1  0.308100  0.639300  0.929400  1.0
  C  C78  1  0.929400  0.308100  0.639300  1.0
  C  C79  1  0.602300  0.948500  0.258800  1.0
  C  C80  1  0.258800  0.602300  0.948500  1.0
  C  C81  1  0.948500  0.258800  0.602300  1.0
  C  C82  1  0.619300  0.903900  0.212600  1.0
  C  C83  1  0.212600  0.619300  0.903900  1.0
  C  C84  1  0.903900  0.212600  0.619300  1.0
  C  C85  1  0.671200  0.923700  0.172400  1.0
  C  C86  1  0.172400  0.671200  0.923700  1.0
  C  C87  1  0.923700  0.172400  0.671200  1.0
  C  C88  1  0.681000  0.968200  0.018500  1.0
  C  C89  1  0.018500  0.681000  0.968200  1.0
  C  C90  1  0.968200  0.018500  0.681000  1.0
  C  C91  1  0.696700  0.967000  0.075400  1.0
  C  C92  1  0.075400  0.696700  0.967000  1.0
  C  C93  1  0.967000  0.075400  0.696700  1.0
  C  C94  1  0.751200  0.983100  0.084300  1.0
  C  C95  1  0.084300  0.751200  0.983100  1.0
  C  C96  1  0.983100  0.084300  0.751200  1.0
  C  C97  1  0.787400  0.997600  0.036000  1.0
  C  C98  1  0.036000  0.787400  0.997600  1.0
  C  C99  1  0.997600  0.036000  0.787400  1.0
  C  C100  1  0.771000  0.993400  0.980100  1.0
  C  C101  1  0.980100  0.771000  0.993400  1.0
  C  C102  1  0.993400  0.980100  0.771000  1.0
  C  C103  1  0.798500  0.865200  0.275800  1.0
  C  C104  1  0.275800  0.798500  0.865200  1.0
  C  C105  1  0.865200  0.275800  0.798500  1.0
  C  C106  1  0.809200  0.861600  0.333500  1.0
  C  C107  1  0.333500  0.809200  0.861600  1.0
  C  C108  1  0.861600  0.333500  0.809200  1.0
  C  C109  1  0.838400  0.812200  0.358800  1.0
  C  C110  1  0.358800  0.838400  0.812200  1.0
  C  C111  1  0.812200  0.358800  0.838400  1.0
  C  C112  1  0.856200  0.765700  0.324200  1.0
  C  C113  1  0.324200  0.856200  0.765700  1.0
  C  C114  1  0.765700  0.324200  0.856200  1.0
  C  C115  1  0.843000  0.773500  0.265400  1.0
  C  C116  1  0.265400  0.843000  0.773500  1.0
  C  C117  1  0.773500  0.265400  0.843000  1.0
  C  C118  1  0.887900  0.713900  0.349100  1.0
  C  C119  1  0.349100  0.887900  0.713900  1.0
  C  C120  1  0.713900  0.349100  0.887900  1.0
  C  C121  1  0.820300  0.650300  0.317100  1.0
  C  C122  1  0.317100  0.820300  0.650300  1.0
  C  C123  1  0.650300  0.317100  0.820300  1.0
  C  C124  1  0.840800  0.581800  0.304800  1.0
  C  C125  1  0.304800  0.840800  0.581800  1.0
  C  C126  1  0.581800  0.304800  0.840800  1.0
  C  C127  1  0.866300  0.561500  0.358100  1.0
  C  C128  1  0.358100  0.866300  0.561500  1.0
  C  C129  1  0.561500  0.358100  0.866300  1.0
  C  C130  1  0.905200  0.609400  0.365200  1.0
  C  C131  1  0.365200  0.905200  0.609400  1.0
  C  C132  1  0.609400  0.365200  0.905200  1.0
  C  C133  1  0.967900  0.595100  0.339600  1.0
  C  C134  1  0.339600  0.967900  0.595100  1.0
  C  C135  1  0.595100  0.339600  0.967900  1.0
  C  C136  1  0.046100  0.618800  0.270400  1.0
  C  C137  1  0.270400  0.046100  0.618800  1.0
  C  C138  1  0.618800  0.270400  0.046100  1.0
  C  C139  1  0.068900  0.676900  0.263900  1.0
  C  C140  1  0.263900  0.068900  0.676900  1.0
  C  C141  1  0.676900  0.263900  0.068900  1.0
  C  C142  1  0.170400  0.630100  0.247600  1.0
  C  C143  1  0.247600  0.170400  0.630100  1.0
  C  C144  1  0.630100  0.247600  0.170400  1.0
  C  C145  1  0.219200  0.660600  0.212400  1.0
  C  C146  1  0.212400  0.219200  0.660600  1.0
  C  C147  1  0.660600  0.212400  0.219200  1.0
  C  C148  1  0.216700  0.715900  0.242700  1.0
  C  C149  1  0.242700  0.216700  0.715900  1.0
  C  C150  1  0.715900  0.242700  0.216700  1.0
  C  C151  1  0.150900  0.733800  0.251600  1.0
  C  C152  1  0.251600  0.150900  0.733800  1.0
  C  C153  1  0.733800  0.251600  0.150900  1.0
  C  C154  1  0.130200  0.775600  0.204100  1.0
  C  C155  1  0.204100  0.130200  0.775600  1.0
  C  C156  1  0.775600  0.204100  0.130200  1.0
  C  C157  1  0.080200  0.928600  0.196800  1.0
  C  C158  1  0.196800  0.080200  0.928600  1.0
  C  C159  1  0.928600  0.196800  0.080200  1.0
  C  C160  1  0.107600  0.878000  0.174100  1.0
  C  C161  1  0.174100  0.107600  0.878000  1.0
  C  C162  1  0.878000  0.174100  0.107600  1.0
  C  C163  1  0.111300  0.876200  0.113700  1.0
  C  C164  1  0.113700  0.111300  0.876200  1.0
  C  C165  1  0.876200  0.113700  0.111300  1.0
  C  C166  1  0.087600  0.922300  0.079600  1.0
  C  C167  1  0.079600  0.087600  0.922300  1.0
  C  C168  1  0.922300  0.079600  0.087600  1.0
  C  C169  1  0.062300  0.970000  0.106400  1.0
  C  C170  1  0.106400  0.062300  0.970000  1.0
  C  C171  1  0.970000  0.106400  0.062300  1.0
  C  C172  1  0.214300  0.994200  0.180100  1.0
  C  C173  1  0.180100  0.214300  0.994200  1.0
  C  C174  1  0.994200  0.180100  0.214300  1.0
  C  C175  1  0.254600  0.908200  0.234500  1.0
  C  C176  1  0.234500  0.254600  0.908200  1.0
  C  C177  1  0.908200  0.234500  0.254600  1.0
  C  C178  1  0.230400  0.967300  0.232600  1.0
  C  C179  1  0.232600  0.230400  0.967300  1.0
  C  C180  1  0.967300  0.232600  0.230400  1.0
  C  C181  1  0.262400  0.883600  0.182600  1.0
  C  C182  1  0.182600  0.262400  0.883600  1.0
  C  C183  1  0.883600  0.182600  0.262400  1.0
  C  C184  1  0.248200  0.913100  0.133400  1.0
  C  C185  1  0.133400  0.248200  0.913100  1.0
  C  C186  1  0.913100  0.133400  0.248200  1.0
  C  C187  1  0.217800  0.995900  0.288000  1.0
  C  C188  1  0.288000  0.217800  0.995900  1.0
  C  C189  1  0.995900  0.288000  0.217800  1.0
  C  C190  1  0.265100  0.084500  0.243900  1.0
  C  C191  1  0.243900  0.265100  0.084500  1.0
  C  C192  1  0.084500  0.243900  0.265100  1.0
  C  C193  1  0.292300  0.123100  0.280100  1.0
  C  C194  1  0.280100  0.292300  0.123100  1.0
  C  C195  1  0.123100  0.280100  0.292300  1.0
  C  C196  1  0.242000  0.136200  0.328400  1.0
  C  C197  1  0.328400  0.242000  0.136200  1.0
  C  C198  1  0.136200  0.328400  0.242000  1.0
  C  C199  1  0.216800  0.077200  0.342400  1.0
  C  C200  1  0.342400  0.216800  0.077200  1.0
  C  C201  1  0.077200  0.342400  0.216800  1.0
  C  C202  1  0.155300  0.083600  0.367800  1.0
  C  C203  1  0.367800  0.155300  0.083600  1.0
  C  C204  1  0.083600  0.367800  0.155300  1.0
  C  C205  1  0.053000  0.088200  0.351800  1.0
  C  C206  1  0.351800  0.053000  0.088200  1.0
  C  C207  1  0.088200  0.351800  0.053000  1.0
  C  C208  1  0.029000  0.033600  0.338900  1.0
  C  C209  1  0.338900  0.029000  0.033600  1.0
  C  C210  1  0.033600  0.338900  0.029000  1.0
  C  C211  1  0.938900  0.058700  0.402400  1.0
  C  C212  1  0.402400  0.938900  0.058700  1.0
  C  C213  1  0.058700  0.402400  0.938900  1.0
  C  C214  1  0.903400  0.013100  0.440900  1.0
  C  C215  1  0.440900  0.903400  0.013100  1.0
  C  C216  1  0.013100  0.440900  0.903400  1.0
  C  C217  1  0.895400  0.971300  0.398000  1.0
  C  C218  1  0.398000  0.895400  0.971300  1.0
  C  C219  1  0.971300  0.398000  0.895400  1.0
  C  C220  1  0.954100  0.966600  0.360200  1.0
  C  C221  1  0.360200  0.954100  0.966600  1.0
  C  C222  1  0.966600  0.360200  0.954100  1.0
  C  C223  1  0.943200  0.961600  0.296900  1.0
  C  C224  1  0.296900  0.943200  0.961600  1.0
  C  C225  1  0.961600  0.296900  0.943200  1.0
  C  C226  1  0.970600  0.836300  0.214200  1.0
  C  C227  1  0.214200  0.970600  0.836300  1.0
  C  C228  1  0.836300  0.214200  0.970600  1.0
  C  C229  1  0.941900  0.889500  0.228100  1.0
  C  C230  1  0.228100  0.941900  0.889500  1.0
  C  C231  1  0.889500  0.228100  0.941900  1.0
  C  C232  1  0.909700  0.923000  0.188100  1.0
  C  C233  1  0.188100  0.909700  0.923000  1.0
  C  C234  1  0.923000  0.188100  0.909700  1.0
  C  C235  1  0.909700  0.902700  0.135800  1.0
  C  C236  1  0.135800  0.909700  0.902700  1.0
  C  C237  1  0.902700  0.135800  0.909700  1.0
  C  C238  1  0.940500  0.850500  0.123600  1.0
  C  C239  1  0.123600  0.940500  0.850500  1.0
  C  C240  1  0.850500  0.123600  0.940500  1.0
  C  C241  1  0.614300  0.104700  0.025800  1.0
  C  C242  1  0.025800  0.614300  0.104700  1.0
  C  C243  1  0.104700  0.025800  0.614300  1.0
  C  C244  1  0.559900  0.089900  0.050000  1.0
  C  C245  1  0.050000  0.559900  0.089900  1.0
  C  C246  1  0.089900  0.050000  0.559900  1.0
  C  C247  1  0.548600  0.081300  0.108900  1.0
  C  C248  1  0.108900  0.548600  0.081300  1.0
  C  C249  1  0.081300  0.108900  0.548600  1.0
  C  C250  1  0.593100  0.088100  0.144900  1.0
  C  C251  1  0.144900  0.593100  0.088100  1.0
  C  C252  1  0.088100  0.144900  0.593100  1.0
  C  C253  1  0.647400  0.103000  0.117700  1.0
  C  C254  1  0.117700  0.647400  0.103000  1.0
  C  C255  1  0.103000  0.117700  0.647400  1.0
  C  C256  1  0.513800  0.082400  0.012700  1.0
  C  C257  1  0.012700  0.513800  0.082400  1.0
  C  C258  1  0.082400  0.012700  0.513800  1.0
  C  C259  1  0.523200  0.185300  0.968200  1.0
  C  C260  1  0.968200  0.523200  0.185300  1.0
  C  C261  1  0.185300  0.968200  0.523200  1.0
  C  C262  1  0.473200  0.221200  0.938800  1.0
  C  C263  1  0.938800  0.473200  0.221200  1.0
  C  C264  1  0.221200  0.938800  0.473200  1.0
  C  C265  1  0.456800  0.182600  0.895400  1.0
  C  C266  1  0.895400  0.456800  0.182600  1.0
  C  C267  1  0.182600  0.895400  0.456800  1.0
  C  C268  1  0.458000  0.123100  0.932100  1.0
  C  C269  1  0.932100  0.458000  0.123100  1.0
  C  C270  1  0.123100  0.932100  0.458000  1.0
  C  C271  1  0.466000  0.074900  0.893400  1.0
  C  C272  1  0.893400  0.466000  0.074900  1.0
  C  C273  1  0.074900  0.893400  0.466000  1.0
  C  C274  1  0.531100  0.997300  0.852500  1.0
  C  C275  1  0.852500  0.531100  0.997300  1.0
  C  C276  1  0.997300  0.852500  0.531100  1.0
  C  C277  1  0.557000  0.947500  0.895900  1.0
  C  C278  1  0.895900  0.557000  0.947500  1.0
  C  C279  1  0.947500  0.895900  0.557000  1.0
  C  C280  1  0.523900  0.873500  0.837100  1.0
  C  C281  1  0.837100  0.523900  0.873500  1.0
  C  C282  1  0.873500  0.837100  0.523900  1.0
  C  C283  1  0.516700  0.812000  0.858400  1.0
  C  C284  1  0.858400  0.516700  0.812000  1.0
  C  C285  1  0.812000  0.858400  0.516700  1.0
  C  C286  1  0.568700  0.791800  0.891400  1.0
  C  C287  1  0.891400  0.568700  0.791800  1.0
  C  C288  1  0.791800  0.891400  0.568700  1.0
  C  C289  1  0.577300  0.844700  0.922000  1.0
  C  C290  1  0.922000  0.577300  0.844700  1.0
  C  C291  1  0.844700  0.922000  0.577300  1.0
  C  C292  1  0.641400  0.850500  0.924100  1.0
  C  C293  1  0.924100  0.641400  0.850500  1.0
  C  C294  1  0.850500  0.924100  0.641400  1.0
  C  C295  1  0.729800  0.826200  0.045400  1.0
  C  C296  1  0.045400  0.729800  0.826200  1.0
  C  C297  1  0.826200  0.045400  0.729800  1.0
  C  C298  1  0.720100  0.830800  0.987200  1.0
  C  C299  1  0.987200  0.720100  0.830800  1.0
  C  C300  1  0.830800  0.987200  0.720100  1.0
  C  C301  1  0.767100  0.833400  0.948700  1.0
  C  C302  1  0.948700  0.767100  0.833400  1.0
  C  C303  1  0.833400  0.948700  0.767100  1.0
  C  C304  1  0.819800  0.836600  0.964500  1.0
  C  C305  1  0.964500  0.819800  0.836600  1.0
  C  C306  1  0.836600  0.964500  0.819800  1.0
  C  C307  1  0.826300  0.833700  0.024200  1.0
  C  C308  1  0.024200  0.826300  0.833700  1.0
  C  C309  1  0.833700  0.024200  0.826300  1.0
  F  F310  1  0.708900  0.052600  0.235600  1
  F  F311  1  0.235600  0.708900  0.052600  1
  F  F312  1  0.052600  0.235600  0.708900  1
  F  F313  1  0.800080  0.024380  0.202880  1
  F  F314  1  0.202880  0.800080  0.024380  1
  F  F315  1  0.024380  0.202880  0.800080  1
  F  F316  1  0.783300  0.094400  0.263100  1
  F  F317  1  0.263100  0.783300  0.094400  1
  F  F318  1  0.094400  0.263100  0.783300  1
  F  F319  1  0.770400  0.001400  0.295800  1
  F  F320  1  0.295800  0.770400  0.001400  1
  F  F321  1  0.001400  0.295800  0.770400  1
  F  F322  1  0.209700  0.378300  0.966000  1
  F  F323  1  0.966000  0.209700  0.378300  1
  F  F324  1  0.378300  0.966000  0.209700  1
  F  F325  1  0.186800  0.468000  0.978400  1
  F  F326  1  0.978400  0.186800  0.468000  1
  F  F327  1  0.468000  0.978400  0.186800  1
  F  F328  1  0.280000  0.433700  0.986100  1
  F  F329  1  0.986100  0.280000  0.433700  1
  F  F330  1  0.433700  0.986100  0.280000  1
  F  F331  1  0.209100  0.420500  0.056100  1
  F  F332  1  0.056100  0.209100  0.420500  1
  F  F333  1  0.420500  0.056100  0.209100  1
  F  F334  1  0.880210  0.632510  0.110310  1
  F  F335  1  0.110310  0.880210  0.632510  1
  F  F336  1  0.632510  0.110310  0.880210  1
  F  F337  1  0.889150  0.728550  0.108050  1
  F  F338  1  0.108050  0.889150  0.728550  1
  F  F339  1  0.728550  0.108050  0.889150  1
  F  F340  1  0.910080  0.669180  0.187980  1
  F  F341  1  0.187980  0.910080  0.669180  1
  F  F342  1  0.669180  0.187980  0.910080  1
  F  F343  1  0.816710  0.689710  0.166710  1
  F  F344  1  0.166710  0.816710  0.689710  1
  F  F345  1  0.689710  0.166710  0.816710  1
  F  F346  1  0.104433  0.104433  0.104433  1
  F  F347  1  0.987933  0.987933  0.987933  1
  F  F348  1  0.810133  0.810133  0.810133  1
  F  F349  1  0.128090  0.117990  0.194690  1.0
  F  F350  1  0.194690  0.128090  0.117990  1.0
  F  F351  1  0.117990  0.194690  0.128090  1.0
  F  F352  1  0.908500  0.990500  0.938200  1.0
  F  F353  1  0.938200  0.908500  0.990500  1.0
  F  F354  1  0.990500  0.938200  0.908500  1.0
  F  F355  1  0.752100  0.815300  0.738500  1.0
  F  F356  1  0.738500  0.752100  0.815300  1.0
  F  F357  1  0.815300  0.738500  0.752100  1.0
  H  H358  1  0.543800  0.893700  0.295600  1
  H  H359  1  0.295600  0.543800  0.893700  1
  H  H360  1  0.893700  0.295600  0.543800  1
  H  H361  1  0.569500  0.928600  0.341800  1
  H  H362  1  0.341800  0.569500  0.928600  1
  H  H363  1  0.928600  0.341800  0.569500  1
  H  H364  1  0.777100  0.573800  0.337800  1
  H  H365  1  0.337800  0.777100  0.573800  1
  H  H366  1  0.573800  0.337800  0.777100  1
  H  H367  1  0.786200  0.604700  0.394700  1
  H  H368  1  0.394700  0.786200  0.604700  1
  H  H369  1  0.604700  0.394700  0.786200  1
  H  H370  1  0.229700  0.649400  0.310300  1
  H  H371  1  0.310300  0.229700  0.649400  1
  H  H372  1  0.649400  0.310300  0.229700  1
  H  H373  1  0.265200  0.633900  0.249500  1
  H  H374  1  0.249500  0.265200  0.633900  1
  H  H375  1  0.633900  0.249500  0.265200  1
  H  H376  1  0.707400  0.703300  0.197900  1.0
  H  H377  1  0.197900  0.707400  0.703300  1.0
  H  H378  1  0.703300  0.197900  0.707400  1.0
  H  H379  1  0.620100  0.957000  0.114600  1.0
  H  H380  1  0.114600  0.620100  0.957000  1.0
  H  H381  1  0.957000  0.114600  0.620100  1.0
  H  H382  1  0.782800  0.672600  0.072200  1.0
  H  H383  1  0.072200  0.782800  0.672600  1.0
  H  H384  1  0.672600  0.072200  0.782800  1.0
  H  H385  1  0.632600  0.672900  0.000700  1.0
  H  H386  1  0.000700  0.632600  0.672900  1.0
  H  H387  1  0.672900  0.000700  0.632600  1.0
  H  H388  1  0.685000  0.691300  0.908600  1.0
  H  H389  1  0.908600  0.685000  0.691300  1.0
  H  H390  1  0.691300  0.908600  0.685000  1.0
  H  H391  1  0.784600  0.696200  0.903100  1.0
  H  H392  1  0.903100  0.784600  0.696200  1.0
  H  H393  1  0.696200  0.903100  0.784600  1.0
  H  H394  1  0.779400  0.586800  0.141300  1.0
  H  H395  1  0.141300  0.779400  0.586800  1.0
  H  H396  1  0.586800  0.141300  0.779400  1.0
  H  H397  1  0.744400  0.568800  0.091100  1.0
  H  H398  1  0.091100  0.744400  0.568800  1.0
  H  H399  1  0.568800  0.091100  0.744400  1.0
  H  H400  1  0.756500  0.497200  0.183000  1.0
  H  H401  1  0.183000  0.756500  0.497200  1.0
  H  H402  1  0.497200  0.183000  0.756500  1.0
  H  H403  1  0.696100  0.502500  0.153800  1.0
  H  H404  1  0.153800  0.696100  0.502500  1.0
  H  H405  1  0.502500  0.153800  0.696100  1.0
  H  H406  1  0.662800  0.531700  0.247900  1.0
  H  H407  1  0.247900  0.662800  0.531700  1.0
  H  H408  1  0.531700  0.247900  0.662800  1.0
  H  H409  1  0.719600  0.564300  0.251200  1.0
  H  H410  1  0.251200  0.719600  0.564300  1.0
  H  H411  1  0.564300  0.251200  0.719600  1.0
  H  H412  1  0.621700  0.602500  0.193600  1.0
  H  H413  1  0.193600  0.621700  0.602500  1.0
  H  H414  1  0.602500  0.193600  0.621700  1.0
  H  H415  1  0.714300  0.754700  0.279100  1.0
  H  H416  1  0.279100  0.714300  0.754700  1.0
  H  H417  1  0.754700  0.279100  0.714300  1.0
  H  H418  1  0.648100  0.743100  0.298100  1.0
  H  H419  1  0.298100  0.648100  0.743100  1.0
  H  H420  1  0.743100  0.298100  0.648100  1.0
  H  H421  1  0.663300  0.838100  0.329500  1.0
  H  H422  1  0.329500  0.663300  0.838100  1.0
  H  H423  1  0.838100  0.329500  0.663300  1.0
  H  H424  1  0.594200  0.852200  0.329000  1.0
  H  H425  1  0.329000  0.594200  0.852200  1.0
  H  H426  1  0.852200  0.329000  0.594200  1.0
  H  H427  1  0.623200  0.945700  0.344500  1.0
  H  H428  1  0.344500  0.623200  0.945700  1.0
  H  H429  1  0.945700  0.344500  0.623200  1.0
  H  H430  1  0.679900  0.938300  0.298500  1.0
  H  H431  1  0.298500  0.679900  0.938300  1.0
  H  H432  1  0.938300  0.298500  0.679900  1.0
  H  H433  1  0.610000  0.987900  0.242000  1.0
  H  H434  1  0.242000  0.610000  0.987900  1.0
  H  H435  1  0.987900  0.242000  0.610000  1.0
  H  H436  1  0.560900  0.948700  0.272700  1.0
  H  H437  1  0.272700  0.560900  0.948700  1.0
  H  H438  1  0.948700  0.272700  0.560900  1.0
  H  H439  1  0.586000  0.898900  0.190600  1.0
  H  H440  1  0.190600  0.586000  0.898900  1.0
  H  H441  1  0.898900  0.190600  0.586000  1.0
  H  H442  1  0.643200  0.960000  0.012900  1.0
  H  H443  1  0.012900  0.643200  0.960000  1.0
  H  H444  1  0.960000  0.012900  0.643200  1.0
  H  H445  1  0.762500  0.983900  0.122000  1.0
  H  H446  1  0.122000  0.762500  0.983900  1.0
  H  H447  1  0.983900  0.122000  0.762500  1.0
  H  H448  1  0.823800  0.010500  0.040100  1.0
  H  H449  1  0.040100  0.823800  0.010500  1.0
  H  H450  1  0.010500  0.040100  0.823800  1.0
  H  H451  1  0.798300  0.999900  0.947500  1.0
  H  H452  1  0.947500  0.798300  0.999900  1.0
  H  H453  1  0.999900  0.947500  0.798300  1.0
  H  H454  1  0.962300  0.640800  0.270400  1.0
  H  H455  1  0.270400  0.962300  0.640800  1.0
  H  H456  1  0.640800  0.270400  0.962300  1.0
  H  H457  1  0.133100  0.840600  0.247800  1.0
  H  H458  1  0.247800  0.133100  0.840600  1.0
  H  H459  1  0.840600  0.247800  0.133100  1.0
  H  H460  1  0.778900  0.899600  0.258900  1.0
  H  H461  1  0.258900  0.778900  0.899600  1.0
  H  H462  1  0.899600  0.258900  0.778900  1.0
  H  H463  1  0.796700  0.893200  0.355800  1.0
  H  H464  1  0.355800  0.796700  0.893200  1.0
  H  H465  1  0.893200  0.355800  0.796700  1.0
  H  H466  1  0.846200  0.809400  0.398200  1.0
  H  H467  1  0.398200  0.846200  0.809400  1.0
  H  H468  1  0.809400  0.398200  0.846200  1.0
  H  H469  1  0.855000  0.743200  0.241400  1.0
  H  H470  1  0.241400  0.855000  0.743200  1.0
  H  H471  1  0.743200  0.241400  0.855000  1.0
  H  H472  1  0.810700  0.674800  0.281500  1.0
  H  H473  1  0.281500  0.810700  0.674800  1.0
  H  H474  1  0.674800  0.281500  0.810700  1.0
  H  H475  1  0.787900  0.654200  0.347700  1.0
  H  H476  1  0.347700  0.787900  0.654200  1.0
  H  H477  1  0.654200  0.347700  0.787900  1.0
  H  H478  1  0.807100  0.560600  0.300300  1.0
  H  H479  1  0.300300  0.807100  0.560600  1.0
  H  H480  1  0.560600  0.300300  0.807100  1.0
  H  H481  1  0.869100  0.578900  0.270700  1.0
  H  H482  1  0.270700  0.869100  0.578900  1.0
  H  H483  1  0.578900  0.270700  0.869100  1.0
  H  H484  1  0.889600  0.523900  0.354700  1.0
  H  H485  1  0.354700  0.889600  0.523900  1.0
  H  H486  1  0.523900  0.354700  0.889600  1.0
  H  H487  1  0.836400  0.557500  0.391100  1.0
  H  H488  1  0.391100  0.836400  0.557500  1.0
  H  H489  1  0.557500  0.391100  0.836400  1.0
  H  H490  1  0.904900  0.614700  0.407300  1.0
  H  H491  1  0.407300  0.904900  0.614700  1.0
  H  H492  1  0.614700  0.407300  0.904900  1.0
  H  H493  1  0.051100  0.602900  0.232400  1.0
  H  H494  1  0.232400  0.051100  0.602900  1.0
  H  H495  1  0.602900  0.232400  0.051100  1.0
  H  H496  1  0.069200  0.592400  0.297100  1.0
  H  H497  1  0.297100  0.069200  0.592400  1.0
  H  H498  1  0.592400  0.297100  0.069200  1.0
  H  H499  1  0.156600  0.600800  0.225900  1.0
  H  H500  1  0.225900  0.156600  0.600800  1.0
  H  H501  1  0.600800  0.225900  0.156600  1.0
  H  H502  1  0.182300  0.611600  0.285100  1.0
  H  H503  1  0.285100  0.182300  0.611600  1.0
  H  H504  1  0.611600  0.285100  0.182300  1.0
  H  H505  1  0.211700  0.669300  0.171300  1.0
  H  H506  1  0.171300  0.211700  0.669300  1.0
  H  H507  1  0.669300  0.171300  0.211700  1.0
  H  H508  1  0.257000  0.637400  0.214900  1.0
  H  H509  1  0.214900  0.257000  0.637400  1.0
  H  H510  1  0.637400  0.214900  0.257000  1.0
  H  H511  1  0.233700  0.708200  0.280200  1.0
  H  H512  1  0.280200  0.233700  0.708200  1.0
  H  H513  1  0.708200  0.280200  0.233700  1.0
  H  H514  1  0.237100  0.746100  0.218200  1.0
  H  H515  1  0.218200  0.237100  0.746100  1.0
  H  H516  1  0.746100  0.218200  0.237100  1.0
  H  H517  1  0.141500  0.751100  0.289300  1.0
  H  H518  1  0.289300  0.141500  0.751100  1.0
  H  H519  1  0.751100  0.289300  0.141500  1.0
  H  H520  1  0.076600  0.930600  0.237400  1.0
  H  H521  1  0.237400  0.076600  0.930600  1.0
  H  H522  1  0.930600  0.237400  0.076600  1.0
  H  H523  1  0.130100  0.843300  0.096600  1.0
  H  H524  1  0.096600  0.130100  0.843300  1.0
  H  H525  1  0.843300  0.096600  0.130100  1.0
  H  H526  1  0.088500  0.921400  0.038800  1.0
  H  H527  1  0.038800  0.088500  0.921400  1.0
  H  H528  1  0.921400  0.038800  0.088500  1.0
  H  H529  1  0.046200  0.002100  0.082900  1.0
  H  H530  1  0.082900  0.046200  0.002100  1.0
  H  H531  1  0.002100  0.082900  0.046200  1.0
  H  H532  1  0.122300  0.090700  0.294100  1.0
  H  H533  1  0.294100  0.122300  0.090700  1.0
  H  H534  1  0.090700  0.294100  0.122300  1.0
  H  H535  1  0.956100  0.878400  0.311700  1.0
  H  H536  1  0.311700  0.956100  0.878400  1.0
  H  H537  1  0.878400  0.311700  0.956100  1.0
  H  H538  1  0.196200  0.032600  0.179300  1.0
  H  H539  1  0.179300  0.196200  0.032600  1.0
  H  H540  1  0.032600  0.179300  0.196200  1.0
  H  H541  1  0.264700  0.887100  0.269500  1.0
  H  H542  1  0.269500  0.264700  0.887100  1.0
  H  H543  1  0.887100  0.269500  0.264700  1.0
  H  H544  1  0.278200  0.844500  0.181900  1.0
  H  H545  1  0.181900  0.278200  0.844500  1.0
  H  H546  1  0.844500  0.181900  0.278200  1.0
  H  H547  1  0.256000  0.894600  0.098800  1.0
  H  H548  1  0.098800  0.256000  0.894600  1.0
  H  H549  1  0.894600  0.098800  0.256000  1.0
  H  H550  1  0.242500  0.108000  0.214800  1.0
  H  H551  1  0.214800  0.242500  0.108000  1.0
  H  H552  1  0.108000  0.214800  0.242500  1.0
  H  H553  1  0.295100  0.058600  0.223900  1.0
  H  H554  1  0.223900  0.295100  0.058600  1.0
  H  H555  1  0.058600  0.223900  0.295100  1.0
  H  H556  1  0.303100  0.159000  0.257100  1.0
  H  H557  1  0.257100  0.303100  0.159000  1.0
  H  H558  1  0.159000  0.257100  0.303100  1.0
  H  H559  1  0.326900  0.102700  0.296800  1.0
  H  H560  1  0.296800  0.326900  0.102700  1.0
  H  H561  1  0.102700  0.296800  0.326900  1.0
  H  H562  1  0.257000  0.148500  0.362900  1.0
  H  H563  1  0.362900  0.257000  0.148500  1.0
  H  H564  1  0.148500  0.362900  0.257000  1.0
  H  H565  1  0.212800  0.166500  0.314100  1.0
  H  H566  1  0.314100  0.212800  0.166500  1.0
  H  H567  1  0.166500  0.314100  0.212800  1.0
  H  H568  1  0.240200  0.053100  0.371000  1.0
  H  H569  1  0.371000  0.240200  0.053100  1.0
  H  H570  1  0.053100  0.371000  0.240200  1.0
  H  H571  1  0.031200  0.122300  0.332900  1.0
  H  H572  1  0.332900  0.031200  0.122300  1.0
  H  H573  1  0.122300  0.332900  0.031200  1.0
  H  H574  1  0.048200  0.091300  0.394000  1.0
  H  H575  1  0.394000  0.048200  0.091300  1.0
  H  H576  1  0.091300  0.394000  0.048200  1.0
  H  H577  1  0.913200  0.087100  0.380200  1.0
  H  H578  1  0.380200  0.913200  0.087100  1.0
  H  H579  1  0.087100  0.380200  0.913200  1.0
  H  H580  1  0.961300  0.079300  0.426000  1.0
  H  H581  1  0.426000  0.961300  0.079300  1.0
  H  H582  1  0.079300  0.426000  0.961300  1.0
  H  H583  1  0.925300  0.993800  0.472800  1.0
  H  H584  1  0.472800  0.925300  0.993800  1.0
  H  H585  1  0.993800  0.472800  0.925300  1.0
  H  H586  1  0.865900  0.031200  0.457300  1.0
  H  H587  1  0.457300  0.865900  0.031200  1.0
  H  H588  1  0.031200  0.457300  0.865900  1.0
  H  H589  1  0.863500  0.986500  0.374200  1.0
  H  H590  1  0.374200  0.863500  0.986500  1.0
  H  H591  1  0.986500  0.374200  0.863500  1.0
  H  H592  1  0.886800  0.933300  0.417900  1.0
  H  H593  1  0.417900  0.886800  0.933300  1.0
  H  H594  1  0.933300  0.417900  0.886800  1.0
  H  H595  1  0.980700  0.933600  0.375300  1.0
  H  H596  1  0.375300  0.980700  0.933600  1.0
  H  H597  1  0.933600  0.375300  0.980700  1.0
  H  H598  1  0.991600  0.813300  0.242300  1.0
  H  H599  1  0.242300  0.991600  0.813300  1.0
  H  H600  1  0.813300  0.242300  0.991600  1.0
  H  H601  1  0.888400  0.958300  0.196900  1.0
  H  H602  1  0.196900  0.888400  0.958300  1.0
  H  H603  1  0.958300  0.196900  0.888400  1.0
  H  H604  1  0.888500  0.924500  0.107000  1.0
  H  H605  1  0.107000  0.888500  0.924500  1.0
  H  H606  1  0.924500  0.107000  0.888500  1.0
  H  H607  1  0.941100  0.837900  0.086100  1.0
  H  H608  1  0.086100  0.941100  0.837900  1.0
  H  H609  1  0.837900  0.086100  0.941100  1.0
  H  H610  1  0.549800  0.067400  0.889100  1.0
  H  H611  1  0.889100  0.549800  0.067400  1.0
  H  H612  1  0.067400  0.889100  0.549800  1.0
  H  H613  1  0.636300  0.819300  0.002100  1.0
  H  H614  1  0.002100  0.636300  0.819300  1.0
  H  H615  1  0.819300  0.002100  0.636300  1.0
  H  H616  1  0.621400  0.110200  0.985000  1.0
  H  H617  1  0.985000  0.621400  0.110200  1.0
  H  H618  1  0.110200  0.985000  0.621400  1.0
  H  H619  1  0.511800  0.070900  0.125500  1.0
  H  H620  1  0.125500  0.511800  0.070900  1.0
  H  H621  1  0.070900  0.125500  0.511800  1.0
  H  H622  1  0.586300  0.082800  0.185800  1.0
  H  H623  1  0.185800  0.586300  0.082800  1.0
  H  H624  1  0.082800  0.185800  0.586300  1.0
  H  H625  1  0.677400  0.107200  0.141100  1.0
  H  H626  1  0.141100  0.677400  0.107200  1.0
  H  H627  1  0.107200  0.141100  0.677400  1.0
  H  H628  1  0.560900  0.189600  0.945400  1.0
  H  H629  1  0.945400  0.560900  0.189600  1.0
  H  H630  1  0.189600  0.945400  0.560900  1.0
  H  H631  1  0.525200  0.195500  0.007900  1.0
  H  H632  1  0.007900  0.525200  0.195500  1.0
  H  H633  1  0.195500  0.007900  0.525200  1.0
  H  H634  1  0.440000  0.230200  0.967500  1.0
  H  H635  1  0.967500  0.440000  0.230200  1.0
  H  H636  1  0.230200  0.967500  0.440000  1.0
  H  H637  1  0.486000  0.257900  0.919000  1.0
  H  H638  1  0.919000  0.486000  0.257900  1.0
  H  H639  1  0.257900  0.919000  0.486000  1.0
  H  H640  1  0.485300  0.181600  0.861000  1.0
  H  H641  1  0.861000  0.485300  0.181600  1.0
  H  H642  1  0.181600  0.861000  0.485300  1.0
  H  H643  1  0.417800  0.195100  0.882900  1.0
  H  H644  1  0.882900  0.417800  0.195100  1.0
  H  H645  1  0.195100  0.882900  0.417800  1.0
  H  H646  1  0.420800  0.120600  0.957100  1.0
  H  H647  1  0.957100  0.420800  0.120600  1.0
  H  H648  1  0.120600  0.957100  0.420800  1.0
  H  H649  1  0.558700  0.002800  0.817600  1.0
  H  H650  1  0.817600  0.558700  0.002800  1.0
  H  H651  1  0.002800  0.817600  0.558700  1.0
  H  H652  1  0.494700  0.986800  0.840300  1.0
  H  H653  1  0.840300  0.494700  0.986800  1.0
  H  H654  1  0.986800  0.840300  0.494700  1.0
  H  H655  1  0.549000  0.876500  0.800300  1.0
  H  H656  1  0.800300  0.549000  0.876500  1.0
  H  H657  1  0.876500  0.800300  0.549000  1.0
  H  H658  1  0.486100  0.895600  0.831500  1.0
  H  H659  1  0.831500  0.486100  0.895600  1.0
  H  H660  1  0.895600  0.831500  0.486100  1.0
  H  H661  1  0.516000  0.788500  0.825600  1.0
  H  H662  1  0.825600  0.516000  0.788500  1.0
  H  H663  1  0.788500  0.825600  0.516000  1.0
  H  H664  1  0.480400  0.809000  0.883900  1.0
  H  H665  1  0.883900  0.480400  0.809000  1.0
  H  H666  1  0.809000  0.883900  0.480400  1.0
  H  H667  1  0.603000  0.781100  0.864800  1.0
  H  H668  1  0.864800  0.603000  0.781100  1.0
  H  H669  1  0.781100  0.864800  0.603000  1.0
  H  H670  1  0.560800  0.758200  0.919700  1.0
  H  H671  1  0.919700  0.560800  0.758200  1.0
  H  H672  1  0.758200  0.919700  0.560800  1.0
  H  H673  1  0.556700  0.842600  0.961800  1.0
  H  H674  1  0.961800  0.556700  0.842600  1.0
  H  H675  1  0.842600  0.961800  0.556700  1.0
  H  H676  1  0.697700  0.821600  0.073400  1.0
  H  H677  1  0.073400  0.697700  0.821600  1.0
  H  H678  1  0.821600  0.073400  0.697700  1.0
  H  H679  1  0.762500  0.833200  0.908800  1.0
  H  H680  1  0.908800  0.762500  0.833200  1.0
  H  H681  1  0.833200  0.908800  0.762500  1.0
  H  H682  1  0.851900  0.840600  0.936500  1.0
  H  H683  1  0.936500  0.851900  0.840600  1.0
  H  H684  1  0.840600  0.936500  0.851900  1.0
  H  H685  1  0.863500  0.836000  0.036300  1.0
  H  H686  1  0.036300  0.863500  0.836000  1.0
  H  H687  1  0.836000  0.036300  0.863500  1.0
  N  N688  1  0.793300  0.685600  0.986900  1.0
  N  N689  1  0.986900  0.793300  0.685600  1.0
  N  N690  1  0.685600  0.986900  0.793300  1.0
  N  N691  1  0.695600  0.622900  0.144300  1.0
  N  N692  1  0.144300  0.695600  0.622900  1.0
  N  N693  1  0.622900  0.144300  0.695600  1.0
  N  N694  1  0.683700  0.700400  0.229600  1.0
  N  N695  1  0.229600  0.683700  0.700400  1.0
  N  N696  1  0.700400  0.229600  0.683700  1.0
  N  N697  1  0.637000  0.852100  0.247600  1.0
  N  N698  1  0.247600  0.637000  0.852100  1.0
  N  N699  1  0.852100  0.247600  0.637000  1.0
  N  N700  1  0.657000  0.950300  0.120100  1.0
  N  N701  1  0.120100  0.657000  0.950300  1.0
  N  N702  1  0.950300  0.120100  0.657000  1.0
  N  N703  1  0.718700  0.980600  0.971700  1.0
  N  N704  1  0.971700  0.718700  0.980600  1.0
  N  N705  1  0.980600  0.971700  0.718700  1.0
  N  N706  1  0.815000  0.821100  0.243100  1.0
  N  N707  1  0.243100  0.815000  0.821100  1.0
  N  N708  1  0.821100  0.243100  0.815000  1.0
  N  N709  1  0.874900  0.661000  0.335800  1.0
  N  N710  1  0.335800  0.874900  0.661000  1.0
  N  N711  1  0.661000  0.335800  0.874900  1.0
  N  N712  1  0.987500  0.620600  0.291800  1.0
  N  N713  1  0.291800  0.987500  0.620600  1.0
  N  N714  1  0.620600  0.291800  0.987500  1.0
  N  N715  1  0.126800  0.679500  0.255000  1.0
  N  N716  1  0.255000  0.126800  0.679500  1.0
  N  N717  1  0.679500  0.255000  0.126800  1.0
  N  N718  1  0.124900  0.832100  0.213800  1.0
  N  N719  1  0.213800  0.124900  0.832100  1.0
  N  N720  1  0.832100  0.213800  0.124900  1.0
  N  N721  1  0.059000  0.973500  0.162900  1.0
  N  N722  1  0.162900  0.059000  0.973500  1.0
  N  N723  1  0.973500  0.162900  0.059000  1.0
  N  N724  1  0.223100  0.968800  0.130100  1.0
  N  N725  1  0.130100  0.223100  0.968800  1.0
  N  N726  1  0.968800  0.130100  0.223100  1.0
  N  N727  1  0.226400  0.050500  0.286900  1.0
  N  N728  1  0.286900  0.226400  0.050500  1.0
  N  N729  1  0.050500  0.286900  0.226400  1.0
  N  N730  1  0.112700  0.088000  0.331600  1.0
  N  N731  1  0.331600  0.112700  0.088000  1.0
  N  N732  1  0.088000  0.331600  0.112700  1.0
  N  N733  1  0.976500  0.023200  0.364600  1.0
  N  N734  1  0.364600  0.976500  0.023200  1.0
  N  N735  1  0.023200  0.364600  0.976500  1.0
  N  N736  1  0.948400  0.905900  0.284100  1.0
  N  N737  1  0.284100  0.948400  0.905900  1.0
  N  N738  1  0.905900  0.284100  0.948400  1.0
  N  N739  1  0.969200  0.817900  0.163800  1.0
  N  N740  1  0.163800  0.969200  0.817900  1.0
  N  N741  1  0.817900  0.163800  0.969200  1.0
  N  N742  1  0.658000  0.111700  0.058500  1.0
  N  N743  1  0.058500  0.658000  0.111700  1.0
  N  N744  1  0.111700  0.058500  0.658000  1.0
  N  N745  1  0.505100  0.125300  0.968300  1.0
  N  N746  1  0.968300  0.505100  0.125300  1.0
  N  N747  1  0.125300  0.968300  0.505100  1.0
  N  N748  1  0.520300  0.050500  0.880300  1.0
  N  N749  1  0.880300  0.520300  0.050500  1.0
  N  N750  1  0.050500  0.880300  0.520300  1.0
  N  N751  1  0.551600  0.894100  0.885100  1.0
  N  N752  1  0.885100  0.551600  0.894100  1.0
  N  N753  1  0.894100  0.885100  0.551600  1.0
  N  N754  1  0.661400  0.832100  0.974100  1.0
  N  N755  1  0.974100  0.661400  0.832100  1.0
  N  N756  1  0.832100  0.974100  0.661400  1.0
  N  N757  1  0.781400  0.827800  0.064200  1.0
  N  N758  1  0.064200  0.781400  0.827800  1.0
  N  N759  1  0.827800  0.064200  0.781400  1.0
  O  O760  1  0.222400  0.115100  0.490000  1
  O  O761  1  0.490000  0.222400  0.115100  1
  O  O762  1  0.115100  0.490000  0.222400  1
  O  O763  1  0.384400  0.696500  0.475700  1
  O  O764  1  0.475700  0.384400  0.696500  1
  O  O765  1  0.696500  0.475700  0.384400  1
  O  O766  1  0.060400  0.719500  0.412500  1
  O  O767  1  0.412500  0.060400  0.719500  1
  O  O768  1  0.719500  0.412500  0.060400  1
  O  O769  1  0.864700  0.696400  0.538300  1
  O  O770  1  0.538300  0.864700  0.696400  1
  O  O771  1  0.696400  0.538300  0.864700  1
  O  O772  1  0.379600  0.970900  0.824000  1
  O  O773  1  0.824000  0.379600  0.970900  1
  O  O774  1  0.970900  0.824000  0.379600  1
  O  O775  1  0.497700  0.747100  0.043400  1
  O  O776  1  0.043400  0.497700  0.747100  1
  O  O777  1  0.747100  0.043400  0.497700  1
  O  O778  1  0.878500  0.578500  0.528700  1
  O  O779  1  0.528700  0.878500  0.578500  1
  O  O780  1  0.578500  0.528700  0.878500  1
  O  O781  1  0.645100  0.882400  0.569000  1
  O  O782  1  0.569000  0.645100  0.882400  1
  O  O783  1  0.882400  0.569000  0.645100  1
  O  O784  1  0.779200  0.112000  0.384000  1
  O  O785  1  0.384000  0.779200  0.112000  1
  O  O786  1  0.112000  0.384000  0.779200  1
  O  O787  1  0.236000  0.478100  0.229900  1
  O  O788  1  0.229900  0.236000  0.478100  1
  O  O789  1  0.478100  0.229900  0.236000  1
  O  O790  1  0.197000  0.405700  0.849000  1
  O  O791  1  0.849000  0.197000  0.405700  1
  O  O792  1  0.405700  0.849000  0.197000  1
  O  O793  1  0.383000  0.222500  0.309600  1
  O  O794  1  0.309600  0.383000  0.222500  1
  O  O795  1  0.222500  0.309600  0.383000  1
  O  O796  1  0.554800  0.059700  0.608900  1
  O  O797  1  0.608900  0.554800  0.059700  1
  O  O798  1  0.059700  0.608900  0.554800  1
  O  O799  1  0.974700  0.526800  0.485700  1
  O  O800  1  0.485700  0.974700  0.526800  1
  O  O801  1  0.526800  0.485700  0.974700  1
  O  O802  1  0.309300  0.787200  0.454700  1
  O  O803  1  0.454700  0.309300  0.787200  1
  O  O804  1  0.787200  0.454700  0.309300  1
  O  O805  1  0.686900  0.781200  0.609800  1
  O  O806  1  0.609800  0.686900  0.781200  1
  O  O807  1  0.781200  0.609800  0.686900  1
  O  O808  1  0.279533  0.279533  0.279533  1
  O  O809  1  0.996500  0.708800  0.523400  1
  O  O810  1  0.523400  0.996500  0.708800  1
  O  O811  1  0.708800  0.523400  0.996500  1
  O  O812  1  0.579100  0.817100  0.072300  1
  O  O813  1  0.072300  0.579100  0.817100  1
  O  O814  1  0.817100  0.072300  0.579100  1
  O  O815  1  0.792800  0.736200  0.631900  1
  O  O816  1  0.631900  0.792800  0.736200  1
  O  O817  1  0.736200  0.631900  0.792800  1
  O  O818  1  0.056500  0.452400  0.327400  1
  O  O819  1  0.327400  0.056500  0.452400  1
  O  O820  1  0.452400  0.327400  0.056500  1
  O  O821  1  0.086600  0.544200  0.943600  1
  O  O822  1  0.943600  0.086600  0.544200  1
  O  O823  1  0.544200  0.943600  0.086600  1
  O  O824  1  0.324800  0.137700  0.871000  1
  O  O825  1  0.871000  0.324800  0.137700  1
  O  O826  1  0.137700  0.871000  0.324800  1
  O  O827  1  0.410000  0.740300  0.968100  1
  O  O828  1  0.968100  0.410000  0.740300  1
  O  O829  1  0.740300  0.968100  0.410000  1
  O  O830  1  0.140900  0.407900  0.395500  1
  O  O831  1  0.395500  0.140900  0.407900  1
  O  O832  1  0.407900  0.395500  0.140900  1
  O  O833  1  0.362300  0.233100  0.782500  1
  O  O834  1  0.782500  0.362300  0.233100  1
  O  O835  1  0.233100  0.782500  0.362300  1
  O  O836  1  0.661800  0.886300  0.453200  1
  O  O837  1  0.453200  0.661800  0.886300  1
  O  O838  1  0.886300  0.453200  0.661800  1
  O  O839  1  0.796500  0.704400  0.454500  1
  O  O840  1  0.454500  0.796500  0.704400  1
  O  O841  1  0.704400  0.454500  0.796500  1
  O  O842  1  0.203300  0.547300  0.738300  1
  O  O843  1  0.738300  0.203300  0.547300  1
  O  O844  1  0.547300  0.738300  0.203300  1
  O  O845  1  0.508900  0.639700  0.076900  1
  O  O846  1  0.076900  0.508900  0.639700  1
  O  O847  1  0.639700  0.076900  0.508900  1
  O  O848  1  0.519800  0.753800  0.336800  1
  O  O849  1  0.336800  0.519800  0.753800  1
  O  O850  1  0.753800  0.336800  0.519800  1
  O  O851  1  0.336100  0.786900  0.285400  1
  O  O852  1  0.285400  0.336100  0.786900  1
  O  O853  1  0.786900  0.285400  0.336100  1
  O  O854  1  0.684800  0.184700  0.362800  1
  O  O855  1  0.362800  0.684800  0.184700  1
  O  O856  1  0.184700  0.362800  0.684800  1
  O  O857  1  0.395700  0.366400  0.872900  1
  O  O858  1  0.872900  0.395700  0.366400  1
  O  O859  1  0.366400  0.872900  0.395700  1
  O  O860  1  0.389900  0.163600  0.770400  1
  O  O861  1  0.770400  0.389900  0.163600  1
  O  O862  1  0.163600  0.770400  0.389900  1
  O  O863  1  0.267800  0.701700  0.397800  1
  O  O864  1  0.397800  0.267800  0.701700  1
  O  O865  1  0.701700  0.397800  0.267800  1
  O  O866  1  0.715600  0.756300  0.407300  1
  O  O867  1  0.407300  0.715600  0.756300  1
  O  O868  1  0.756300  0.407300  0.715600  1
  O  O869  1  0.529300  0.646800  0.006500  1
  O  O870  1  0.006500  0.529300  0.646800  1
  O  O871  1  0.646800  0.006500  0.529300  1
  O  O872  1  0.355300  0.691700  0.311300  1
  O  O873  1  0.311300  0.355300  0.691700  1
  O  O874  1  0.691700  0.311300  0.355300  1
  O  O875  1  0.648700  0.105900  0.323500  1
  O  O876  1  0.323500  0.648700  0.105900  1
  O  O877  1  0.105900  0.323500  0.648700  1
  O  O878  1  0.361700  0.338400  0.981700  1
  O  O879  1  0.981700  0.361700  0.338400  1
  O  O880  1  0.338400  0.981700  0.361700  1
  O  O881  1  0.623800  0.686700  0.115400  1.0
  O  O882  1  0.115400  0.623800  0.686700  1.0
  O  O883  1  0.686700  0.115400  0.623800  1.0
  O  O884  1  0.622900  0.648900  0.283700  1.0
  O  O885  1  0.283700  0.622900  0.648900  1.0
  O  O886  1  0.648900  0.283700  0.622900  1.0
  O  O887  1  0.660900  0.801700  0.168500  1.0
  O  O888  1  0.168500  0.660900  0.801700  1.0
  O  O889  1  0.801700  0.168500  0.660900  1.0
  O  O890  1  0.720100  0.915400  0.184900  1.0
  O  O891  1  0.184900  0.720100  0.915400  1.0
  O  O892  1  0.915400  0.184900  0.720100  1.0
  O  O893  1  0.927400  0.717600  0.380300  1.0
  O  O894  1  0.380300  0.927400  0.717600  1.0
  O  O895  1  0.717600  0.380300  0.927400  1.0
  O  O896  1  0.997000  0.556500  0.368000  1.0
  O  O897  1  0.368000  0.997000  0.556500  1.0
  O  O898  1  0.556500  0.368000  0.997000  1.0
  O  O899  1  0.035200  0.721000  0.267300  1.0
  O  O900  1  0.267300  0.035200  0.721000  1.0
  O  O901  1  0.721000  0.267300  0.035200  1.0
  O  O902  1  0.121950  0.758850  0.157250  1.0
  O  O903  1  0.157250  0.121950  0.758850  1.0
  O  O904  1  0.758850  0.157250  0.121950  1.0
  O  O905  1  0.196900  0.967300  0.331800  1.0
  O  O906  1  0.331800  0.196900  0.967300  1.0
  O  O907  1  0.967300  0.331800  0.196900  1.0
  O  O908  1  0.143400  0.088500  0.420100  1.0
  O  O909  1  0.420100  0.143400  0.088500  1.0
  O  O910  1  0.088500  0.420100  0.143400  1.0
  O  O911  1  0.056850  0.999550  0.307150  1.0
  O  O912  1  0.307150  0.056850  0.999550  1.0
  O  O913  1  0.999550  0.307150  0.056850  1.0
  O  O914  1  0.931870  0.003170  0.263270  1.0
  O  O915  1  0.263270  0.931870  0.003170  1.0
  O  O916  1  0.003170  0.263270  0.931870  1.0
  O  O917  1  0.488090  0.039090  0.017790  1.0
  O  O918  1  0.017790  0.488090  0.039090  1.0
  O  O919  1  0.039090  0.017790  0.488090  1.0
  O  O920  1  0.423350  0.059050  0.874050  1.0
  O  O921  1  0.874050  0.423350  0.059050  1.0
  O  O922  1  0.059050  0.874050  0.423350  1.0
  O  O923  1  0.583210  0.960310  0.934910  1.0
  O  O924  1  0.934910  0.583210  0.960310  1.0
  O  O925  1  0.960310  0.934910  0.583210  1.0
  O  O926  1  0.671820  0.869920  0.881820  1.0
  O  O927  1  0.881820  0.671820  0.869920  1.0
  O  O928  1  0.869920  0.881820  0.671820  1.0
