
#######################################################################
#
#                 Cambridge Crystallographic Data Centre
#                                CCDC 
#
#######################################################################
#
# If this CIF has been generated from an entry in the Cambridge 
# Structural Database, then it will include bibliographic, chemical, 
# crystal, experimental, refinement or atomic coordinate data resulting 
# from the CCDC's data processing and validation procedures.
#
#######################################################################

data_VATXUL
_chemical_formula_moiety         'C44 H28 Ag2 N4 O8 2+,2(F6 P1 1-),C1 H1 Cl3'
_chemical_name_systematic        
'bis(\m~2~-2,3-bis(Picolinoyloxy)naphthalene)-di-silver(i) bis(hexafluorophosphate) chloroform solvate'
_symmetry_cell_setting           monoclinic
_symmetry_space_group_name_H-M   'C 2/c'
_symmetry_Int_Tables_number      15
_space_group_name_Hall           '-C 2yn'
loop_
_symmetry_equiv_pos_site_id
_symmetry_equiv_pos_as_xyz
1 x,y,z
2 -x,y,1/2-z
3 1/2+x,1/2+y,z
4 1/2-x,1/2+y,1/2-z
5 -x,-y,-z
6 x,-y,1/2+z
7 1/2-x,1/2-y,-z
8 1/2+x,1/2-y,1/2+z
_cell_length_a                   21.2072(3)
_cell_length_b                   13.8656(2)
_cell_length_c                   17.0651(3)
_cell_angle_alpha                90
_cell_angle_beta                 95.2690(10)
_cell_angle_gamma                90
_cell_volume                     4996.8
_exptl_crystal_colour            colorless
_exptl_crystal_description       block
_cell_formula_units_Z            4
loop_
_atom_site_label
_atom_site_type_symbol
_atom_site_fract_x
_atom_site_fract_y
_atom_site_fract_z
P1 P 0.2500 0.7500 0.0000
F1 F 0.2730(3) 0.6480(3) 0.0278(3)
F2 F 0.3015(2) 0.7907(3) 0.0627(2)
F3 F 0.2021(2) 0.7520(5) 0.0628(3)
F1F F 0.2270(3) 0.8520(3) -0.0278(3)
F2F F 0.1985(2) 0.7093(3) -0.0627(2)
F3F F 0.2979(2) 0.7480(5) -0.0628(3)
P2 P 0.0000 0.14315(12) 0.7500
F4 F 0.0000 0.2553(4) 0.7500
F5 F -0.0529(2) 0.1419(3) 0.8087(3)
F6 F 0.0514(2) 0.1413(4) 0.8225(3)
F7 F 0.0000 0.0301(4) 0.7500
F5A F 0.0529(2) 0.1419(3) 0.6913(3)
F6A F -0.0514(2) 0.1413(4) 0.6775(3)
Ag1 Ag 0.065084(17) 0.65840(3) 0.08144(2)
O1 O 0.12718(16) 0.5231(2) 0.01248(18)
O2 O 0.18865(16) 0.3974(2) 0.04907(18)
O3 O 0.05919(16) 0.3456(2) -0.0735(2)
O4 O 0.13813(14) 0.2446(2) -0.0370(2)
N1 N 0.10480(15) 0.5524(3) 0.1680(2)
N2 N 0.02473(18) 0.7779(3) 0.0097(3)
C1 C 0.0936(2) 0.5596(4) 0.2439(3)
H1 H 0.0690 0.6107 0.2589
C2 C 0.1166(3) 0.4958(4) 0.3002(3)
H2 H 0.1071 0.5026 0.3520
C3 C 0.1542(3) 0.4212(4) 0.2789(3)
H3 H 0.1713 0.3777 0.3165
C4 C 0.1662(3) 0.4117(4) 0.2017(3)
H4 H 0.1913 0.3615 0.1860
C5 C 0.1404(2) 0.4782(3) 0.1476(2)
C6 C 0.15037(19) 0.4725(3) 0.0627(3)
C7 C 0.2067(2) 0.3840(4) -0.0272(3)
C8 C 0.2494(2) 0.4428(4) -0.0568(3)
H5 H 0.2662 0.4944 -0.0269
C9 C 0.2687(2) 0.4268(4) -0.1322(3)
C10 C 0.3113(2) 0.4889(4) -0.1671(3)
H6 H 0.3283 0.5420 -0.1394
C11 C 0.3270(3) 0.4714(6) -0.2400(4)
H7 H 0.3557 0.5118 -0.2616
C12 C 0.3014(3) 0.3945(6) -0.2838(4)
H8 H 0.3124 0.3852 -0.3348
C13 C 0.2603(3) 0.3321(4) -0.2534(3)
H9 H 0.2444 0.2798 -0.2830
C14 C 0.2420(2) 0.3472(3) -0.1770(3)
C15 C 0.1988(2) 0.2870(3) -0.1430(3)
H10 H 0.1821 0.2337 -0.1707
C16 C 0.1811(2) 0.3056(3) -0.0706(3)
C17 C 0.0777(2) 0.2738(3) -0.0409(3)
C18 C -0.0381(2) 0.7942(4) 0.0002(3)
C19 C -0.0637(3) 0.8676(6) -0.0456(5)
H11 H -0.1073 0.8770 -0.0515
C20 C -0.0242(4) 0.9277(7) -0.0828(6)
H12 H -0.0407 0.9779 -0.1145
C21 C 0.0387(4) 0.9125(8) -0.0727(6)
H13 H 0.0661 0.9531 -0.0965
C22 C 0.0619(3) 0.8373(6) -0.0272(5)
H14 H 0.1054 0.8269 -0.0217
Ag1D Ag -0.065084(17) 0.34160(3) -0.08144(2)
O1D O -0.12718(16) 0.4769(2) -0.01248(18)
O2D O -0.18865(16) 0.6026(2) -0.04907(18)
O3D O -0.05919(16) 0.6544(2) 0.0735(2)
O4D O -0.13813(14) 0.7554(2) 0.0370(2)
N1D N -0.10480(15) 0.4476(3) -0.1680(2)
N2D N -0.02473(18) 0.2221(3) -0.0097(3)
C1D C -0.0936(2) 0.4404(4) -0.2439(3)
H1D H -0.0690 0.3893 -0.2589
C2D C -0.1166(3) 0.5042(4) -0.3002(3)
H2D H -0.1071 0.4974 -0.3520
C3D C -0.1542(3) 0.5788(4) -0.2789(3)
H3D H -0.1713 0.6223 -0.3165
C4D C -0.1662(3) 0.5883(4) -0.2017(3)
H4D H -0.1913 0.6385 -0.1860
C5D C -0.1404(2) 0.5218(3) -0.1476(2)
C6D C -0.15037(19) 0.5275(3) -0.0627(3)
C7D C -0.2067(2) 0.6160(4) 0.0272(3)
C8D C -0.2494(2) 0.5572(4) 0.0568(3)
H5D H -0.2662 0.5056 0.0269
C9D C -0.2687(2) 0.5732(4) 0.1322(3)
C10D C -0.3113(2) 0.5111(4) 0.1671(3)
H6D H -0.3283 0.4580 0.1394
C11D C -0.3270(3) 0.5286(6) 0.2400(4)
H7D H -0.3557 0.4882 0.2616
C12D C -0.3014(3) 0.6055(6) 0.2838(4)
H8D H -0.3124 0.6148 0.3348
C13D C -0.2603(3) 0.6679(4) 0.2534(3)
H9D H -0.2444 0.7202 0.2830
C14D C -0.2420(2) 0.6528(3) 0.1770(3)
C15D C -0.1988(2) 0.7130(3) 0.1430(3)
H10D H -0.1821 0.7663 0.1707
C16D C -0.1811(2) 0.6944(3) 0.0706(3)
C17D C -0.0777(2) 0.7262(3) 0.0409(3)
C18D C 0.0381(2) 0.2058(4) -0.0002(3)
C19D C 0.0637(3) 0.1324(6) 0.0456(5)
H11D H 0.1073 0.1230 0.0515
C20D C 0.0242(4) 0.0723(7) 0.0828(6)
H12D H 0.0407 0.0221 0.1145
C21D C -0.0387(4) 0.0875(8) 0.0727(6)
H13D H -0.0661 0.0469 0.0965
C22D C -0.0619(3) 0.1627(6) 0.0272(5)
H14D H -0.1054 0.1731 0.0217
loop_
_geom_bond_atom_site_label_1
_geom_bond_atom_site_label_2
_geom_bond_site_symmetry_1
_geom_bond_site_symmetry_2
Ag1 N1 1_555 1_555
P1 F1 1_555 1_555
P2 F4 1_555 1_555
F2 P1 1_555 1_555
F3 P1 1_555 1_555
F5 P2 1_555 1_555
F6 P2 1_555 1_555
F7 P2 1_555 1_555
O1 C6 1_555 1_555
O2 C6 1_555 1_555
O3 C17 1_555 1_555
O4 C16 1_555 1_555
N1 C1 1_555 1_555
N2 Ag1 1_555 1_555
C1 H1 1_555 1_555
C2 C1 1_555 1_555
H2 C2 1_555 1_555
C3 C2 1_555 1_555
H3 C3 1_555 1_555
C4 C3 1_555 1_555
H4 C4 1_555 1_555
C5 N1 1_555 1_555
C6 C5 1_555 1_555
C7 O2 1_555 1_555
C8 C7 1_555 1_555
H5 C8 1_555 1_555
C9 C8 1_555 1_555
C10 C9 1_555 1_555
H6 C10 1_555 1_555
C11 C10 1_555 1_555
H7 C11 1_555 1_555
C12 C11 1_555 1_555
H8 C12 1_555 1_555
C13 C12 1_555 1_555
H9 C13 1_555 1_555
C14 C9 1_555 1_555
C15 C14 1_555 1_555
H10 C15 1_555 1_555
C16 C7 1_555 1_555
C17 O4 1_555 1_555
C18 N2 1_555 1_555
C19 C18 1_555 1_555
H11 C19 1_555 1_555
C20 C19 1_555 1_555
H12 C20 1_555 1_555
C21 C20 1_555 1_555
H13 C21 1_555 1_555
C22 N2 1_555 1_555
H14 C22 1_555 1_555
Ag1D N1D 1_555 1_555
F1F P1 1_555 1_555
F2F P1 1_555 1_555
F3F P1 1_555 1_555
F5A P2 1_555 1_555
F6A P2 1_555 1_555
O1D C6D 1_555 1_555
O2D C6D 1_555 1_555
O3D C17D 1_555 1_555
O4D C16D 1_555 1_555
N1D C1D 1_555 1_555
N2D Ag1D 1_555 1_555
C1D H1D 1_555 1_555
C2D C1D 1_555 1_555
H2D C2D 1_555 1_555
C3D C2D 1_555 1_555
H3D C3D 1_555 1_555
C4D C3D 1_555 1_555
H4D C4D 1_555 1_555
C5D N1D 1_555 1_555
C6D C5D 1_555 1_555
C7D O2D 1_555 1_555
C8D C7D 1_555 1_555
H5D C8D 1_555 1_555
C9D C8D 1_555 1_555
C10D C9D 1_555 1_555
H6D C10D 1_555 1_555
C11D C10D 1_555 1_555
H7D C11D 1_555 1_555
C12D C11D 1_555 1_555
H8D C12D 1_555 1_555
C13D C12D 1_555 1_555
H9D C13D 1_555 1_555
C14D C9D 1_555 1_555
C15D C14D 1_555 1_555
H10D C15D 1_555 1_555
C16D C7D 1_555 1_555
C17D C18 1_555 1_555
C18D C17 1_555 1_555
C19D C18D 1_555 1_555
H11D C19D 1_555 1_555
C20D C19D 1_555 1_555
H12D C20D 1_555 1_555
C21D C20D 1_555 1_555
H13D C21D 1_555 1_555
C22D N2D 1_555 1_555
H14D C22D 1_555 1_555
C4 C5 1_555 1_555
C13 C14 1_555 1_555
C15 C16 1_555 1_555
C21 C22 1_555 1_555
O4D C17D 1_555 1_555
N2D C18D 1_555 1_555
C4D C5D 1_555 1_555
C13D C14D 1_555 1_555
C15D C16D 1_555 1_555
C21D C22D 1_555 1_555

#END
