
#######################################################################
#
#                 Cambridge Crystallographic Data Centre
#                                CCDC 
#
#######################################################################
#
# If this CIF has been generated from an entry in the Cambridge 
# Structural Database, then it will include bibliographic, chemical, 
# crystal, experimental, refinement or atomic coordinate data resulting 
# from the CCDC's data processing and validation procedures.
#
#######################################################################

data_VATYAS
_chemical_formula_moiety         'C44 H28 Ag2 N4 O8 2+,2(Cl1 O4 1-),2(H2 O1)'
_chemical_name_systematic        
'bis(\m~2~-2,3-bis(Picolinoyloxy)naphthalene)-di-silver(i) diperchlorate dihydrate'
_symmetry_cell_setting           monoclinic
_symmetry_space_group_name_H-M   'C 2/c'
_symmetry_Int_Tables_number      15
_space_group_name_Hall           '-C 2yn'
loop_
_symmetry_equiv_pos_site_id
_symmetry_equiv_pos_as_xyz
1 x,y,z
2 -x,y,1/2-z
3 1/2+x,1/2+y,z
4 1/2-x,1/2+y,1/2-z
5 -x,-y,-z
6 x,-y,1/2+z
7 1/2-x,1/2-y,-z
8 1/2+x,1/2-y,1/2+z
_cell_length_a                   20.680(4)
_cell_length_b                   13.544(3)
_cell_length_c                   16.556(4)
_cell_angle_alpha                90
_cell_angle_beta                 96.886(13)
_cell_angle_gamma                90
_cell_volume                     4603.72
_exptl_crystal_colour            colorless
_exptl_crystal_description       block
_cell_formula_units_Z            4
loop_
_atom_site_label
_atom_site_type_symbol
_atom_site_fract_x
_atom_site_fract_y
_atom_site_fract_z
Ag1 Ag -0.06835(2) 0.66407(3) -0.08978(2)
C1 C -0.0873(2) 0.5473(4) -0.2552(3)
H1 H -0.0646 0.6012 -0.2724
C2 C -0.1050(3) 0.4743(5) -0.3092(3)
H2 H -0.0941 0.4782 -0.3620
C3 C -0.1384(3) 0.3956(5) -0.2860(3)
H3 H -0.1510 0.3451 -0.3225
C4 C -0.1536(3) 0.3917(4) -0.2067(3)
H4 H -0.1768 0.3384 -0.1893
C5 C -0.1343(2) 0.4669(3) -0.1544(2)
C6 C -0.1481(2) 0.4680(3) -0.0686(3)
C7 C -0.2057(2) 0.3861(4) 0.0256(3)
C8 C -0.2470(2) 0.4515(4) 0.0541(3)
H5 H -0.2629 0.5045 0.0220
C9 C -0.2658(2) 0.4391(4) 0.1326(3)
C10 C -0.3073(3) 0.5074(4) 0.1657(4)
H6 H -0.3236 0.5615 0.1352
C11 C -0.3234(3) 0.4933(6) 0.2436(5)
H7 H -0.3505 0.5382 0.2654
C12 C -0.2993(3) 0.4122(6) 0.2899(5)
H8 H -0.3110 0.4037 0.3420
C13 C -0.2595(3) 0.3466(5) 0.2606(4)
H9 H -0.2435 0.2936 0.2927
C14 C -0.2418(2) 0.3579(4) 0.1801(3)
C15 C -0.1992(2) 0.2904(4) 0.1474(3)
H10 H -0.1838 0.2354 0.1773
C16 C -0.1812(2) 0.3060(4) 0.0732(3)
C17 C 0.0780(2) 0.7300(4) -0.0409(3)
C18 C 0.0384(3) 0.7970(5) 0.0028(4)
C19 C 0.0663(3) 0.8675(7) 0.0531(7)
H11 H 0.1112 0.8763 0.0594
C20 C 0.0269(4) 0.9269(8) 0.0954(7)
H12 H 0.0448 0.9772 0.1292
C21 C -0.0387(4) 0.9095(9) 0.0861(8)
H13 H -0.0663 0.9466 0.1145
C22 C -0.0619(4) 0.8380(8) 0.0354(8)
H14 H -0.1067 0.8278 0.0288
N1 N -0.10126(16) 0.5455(3) -0.1774(2)
N2 N -0.0261(2) 0.7800(4) -0.0066(3)
O1 O -0.12679(18) 0.5253(3) -0.0184(2)
O2 O -0.18800(17) 0.3934(3) -0.0536(2)
O3 O 0.05807(17) 0.6560(2) -0.0734(2)
O4 O 0.13946(15) 0.7605(2) -0.0393(2)
Ag1D Ag 0.06835(2) 0.33593(3) 0.08978(2)
C1D C 0.0873(2) 0.4527(4) 0.2552(3)
H1D H 0.0646 0.3988 0.2724
C2D C 0.1050(3) 0.5257(5) 0.3092(3)
H2D H 0.0941 0.5218 0.3620
C3D C 0.1384(3) 0.6044(5) 0.2860(3)
H3D H 0.1510 0.6549 0.3225
C4D C 0.1536(3) 0.6083(4) 0.2067(3)
H4D H 0.1768 0.6616 0.1893
C5D C 0.1343(2) 0.5331(3) 0.1544(2)
C6D C 0.1481(2) 0.5320(3) 0.0686(3)
C7D C 0.2057(2) 0.6139(4) -0.0256(3)
C8D C 0.2470(2) 0.5485(4) -0.0541(3)
H5D H 0.2629 0.4955 -0.0220
C9D C 0.2658(2) 0.5609(4) -0.1326(3)
C10D C 0.3073(3) 0.4926(4) -0.1657(4)
H6D H 0.3236 0.4385 -0.1352
C11D C 0.3234(3) 0.5067(6) -0.2436(5)
H7D H 0.3505 0.4618 -0.2654
C12D C 0.2993(3) 0.5878(6) -0.2899(5)
H8D H 0.3110 0.5963 -0.3420
C13D C 0.2595(3) 0.6534(5) -0.2606(4)
H9D H 0.2435 0.7064 -0.2927
C14D C 0.2418(2) 0.6421(4) -0.1801(3)
C15D C 0.1992(2) 0.7096(4) -0.1474(3)
H10D H 0.1838 0.7646 -0.1773
C16D C 0.1812(2) 0.6940(4) -0.0732(3)
C17D C -0.0780(2) 0.2700(4) 0.0409(3)
C18D C -0.0384(3) 0.2030(5) -0.0028(4)
C19D C -0.0663(3) 0.1325(7) -0.0531(7)
H11D H -0.1112 0.1237 -0.0594
C20D C -0.0269(4) 0.0731(8) -0.0954(7)
H12D H -0.0448 0.0228 -0.1292
C21D C 0.0387(4) 0.0905(9) -0.0861(8)
H13D H 0.0663 0.0534 -0.1145
C22D C 0.0619(4) 0.1620(8) -0.0354(8)
H14D H 0.1067 0.1722 -0.0288
N1D N 0.10126(16) 0.4545(3) 0.1774(2)
N2D N 0.0261(2) 0.2200(4) 0.0066(3)
O1D O 0.12679(18) 0.4747(3) 0.0184(2)
O2D O 0.18800(17) 0.6066(3) 0.0536(2)
O3D O -0.05807(17) 0.3440(2) 0.0734(2)
O4D O -0.13946(15) 0.2395(2) 0.0393(2)
Cl2 Cl 0.0000 0.15904(15) 0.2500
O5 O -0.0435(7) 0.2161(9) 0.2788(7)
O6 O 0.0307(5) 0.1058(7) 0.3097(6)
O5A O 0.0435(7) 0.2161(9) 0.2212(7)
O6A O -0.0307(5) 0.1058(7) 0.1903(6)
O11 O 0.5135(17) 0.224(3) 0.180(2)
H15 H 0.4961 0.1787 0.1521
H16 H 0.5396 0.2522 0.1547
Cl1? Cl 0.2500 0.2500 1.0000
O7? O 0.2209(6) 0.1620(9) 0.9596(9)
O8? O 0.2905(9) 0.2200(13) 1.0627(7)
O9? O 0.2921(7) 0.2789(13) 0.9366(7)
O10? O 0.2067(10) 0.3162(14) 1.002(2)
loop_
_geom_bond_atom_site_label_1
_geom_bond_atom_site_label_2
_geom_bond_site_symmetry_1
_geom_bond_site_symmetry_2
Ag1 N1 1_555 1_555
C1 H1 1_555 1_555
C2 C1 1_555 1_555
H2 C2 1_555 1_555
C3 C2 1_555 1_555
H3 C3 1_555 1_555
C4 C3 1_555 1_555
H4 C4 1_555 1_555
C5 C4 1_555 1_555
C6 C5 1_555 1_555
C7 C8 1_555 1_555
C8 H5 1_555 1_555
C9 C8 1_555 1_555
C10 C9 1_555 1_555
H6 C10 1_555 1_555
C11 C10 1_555 1_555
H7 C11 1_555 1_555
C12 C11 1_555 1_555
H8 C12 1_555 1_555
C13 C12 1_555 1_555
H9 C13 1_555 1_555
C14 C9 1_555 1_555
C15 C14 1_555 1_555
H10 C15 1_555 1_555
C16 C7 1_555 1_555
C17 C18 1_555 1_555
C18 C19 1_555 1_555
C19 H11 1_555 1_555
C20 C19 1_555 1_555
H12 C20 1_555 1_555
C21 C20 1_555 1_555
H13 C21 1_555 1_555
C22 C21 1_555 1_555
H14 C22 1_555 1_555
Cl2 O5 1_555 1_555
N1 C1 1_555 1_555
N2 Ag1 1_555 1_555
O1 C6 1_555 1_555
O2 C6 1_555 1_555
O3 C17 1_555 1_555
O4 C17 1_555 1_555
O6 Cl2 1_555 1_555
O11 H15 1_555 1_555
H16 O11 1_555 1_555
Ag1D N1D 1_555 1_555
C1D H1D 1_555 1_555
C2D C1D 1_555 1_555
H2D C2D 1_555 1_555
C3D C2D 1_555 1_555
H3D C3D 1_555 1_555
C4D C3D 1_555 1_555
H4D C4D 1_555 1_555
C5D C4D 1_555 1_555
C6D C5D 1_555 1_555
C7D C8D 1_555 1_555
C8D H5D 1_555 1_555
C9D C8D 1_555 1_555
C10D C9D 1_555 1_555
H6D C10D 1_555 1_555
C11D C10D 1_555 1_555
H7D C11D 1_555 1_555
C12D C11D 1_555 1_555
H8D C12D 1_555 1_555
C13D C12D 1_555 1_555
H9D C13D 1_555 1_555
C14D C9D 1_555 1_555
C15D C14D 1_555 1_555
H10D C15D 1_555 1_555
C16D O4 1_555 1_555
C17D C18D 1_555 1_555
C18D C19D 1_555 1_555
C19D H11D 1_555 1_555
C20D C19D 1_555 1_555
H12D C20D 1_555 1_555
C21D C20D 1_555 1_555
H13D C21D 1_555 1_555
C22D C21D 1_555 1_555
H14D C22D 1_555 1_555
N1D C1D 1_555 1_555
N2D Ag1D 1_555 1_555
O1D C6D 1_555 1_555
O2D C6D 1_555 1_555
O3D C17D 1_555 1_555
O4D C16 1_555 1_555
O5A Cl2 1_555 1_555
O6A Cl2 1_555 1_555
C5 N1 1_555 1_555
C7 O2 1_555 1_555
C13 C14 1_555 1_555
C15 C16 1_555 1_555
C18 N2 1_555 1_555
C22 N2 1_555 1_555
C5D N1D 1_555 1_555
C7D C16D 1_555 1_555
C7D O2D 1_555 1_555
C13D C14D 1_555 1_555
C15D C16D 1_555 1_555
C17D O4D 1_555 1_555
C18D N2D 1_555 1_555
C22D N2D 1_555 1_555

#END
