
#######################################################################
#
#                 Cambridge Crystallographic Data Centre
#                                CCDC 
#
#######################################################################
#
# If this CIF has been generated from an entry in the Cambridge 
# Structural Database, then it will include bibliographic, chemical, 
# crystal, experimental, refinement or atomic coordinate data resulting 
# from the CCDC's data processing and validation procedures.
#
#######################################################################

data_VATYEW
_chemical_formula_moiety         'C44 H28 Ag2 N4 O8 2+,2(B1 F4 1-)'
_chemical_name_systematic        
'bis(\m~2~-2,3-bis(Picolinoyloxy)naphthalene)-di-silver(i) bis(tetrafluoroborate)'
_symmetry_cell_setting           monoclinic
_symmetry_space_group_name_H-M   'C 2/c'
_symmetry_Int_Tables_number      15
_space_group_name_Hall           '-C 2yn'
loop_
_symmetry_equiv_pos_site_id
_symmetry_equiv_pos_as_xyz
1 x,y,z
2 -x,y,1/2-z
3 1/2+x,1/2+y,z
4 1/2-x,1/2+y,1/2-z
5 -x,-y,-z
6 x,-y,1/2+z
7 1/2-x,1/2-y,-z
8 1/2+x,1/2-y,1/2+z
_cell_length_a                   20.7205(14)
_cell_length_b                   13.5990(11)
_cell_length_c                   16.2268(12)
_cell_angle_alpha                90
_cell_angle_beta                 99.013(4)
_cell_angle_gamma                90
_cell_volume                     4515.9
_exptl_crystal_colour            colorless
_exptl_crystal_description       block
_cell_formula_units_Z            4
loop_
_atom_site_label
_atom_site_type_symbol
_atom_site_fract_x
_atom_site_fract_y
_atom_site_fract_z
Ag1 Ag 0.569476(12) 1.165745(18) 0.091582(15)
O1 O 0.62742(11) 1.02962(17) 0.02196(12)
O2 O 0.68518(10) 0.89274(15) 0.05813(11)
O3 O 0.55722(10) 0.84392(15) -0.06861(14)
O4 O 0.63883(9) 0.73626(14) -0.03616(13)
N1 N 0.60014(10) 1.04526(17) 0.18177(13)
N2 N 0.52672(11) 1.2830(2) 0.00586(16)
C1 C 0.58435(14) 1.0459(3) 0.25868(17)
H1 H 0.5634 1.1011 0.2757
C2 C 0.59758(17) 0.9696(3) 0.31337(18)
H2 H 0.5855 0.9728 0.3661
C3 C 0.62871(19) 0.8887(3) 0.2896(2)
H3 H 0.6384 0.8361 0.3260
C4 C 0.64577(17) 0.8860(3) 0.21029(19)
H4 H 0.6670 0.8316 0.1925
C5 C 0.63065(12) 0.9652(2) 0.15877(15)
C6 C 0.64636(13) 0.9687(2) 0.07231(16)
C7 C 0.70306(13) 0.8850(2) -0.02166(17)
C8 C 0.74264(14) 0.9516(2) -0.05053(18)
H5 H 0.7578 1.0057 -0.0181
C9 C 0.76081(13) 0.9387(2) -0.13024(19)
C10 C 0.80057(16) 1.0087(3) -0.1641(2)
H6 H 0.8151 1.0645 -0.1336
C11 C 0.81736(18) 0.9942(4) -0.2408(3)
H7 H 0.8440 1.0395 -0.2622
C12 C 0.7950(2) 0.9121(4) -0.2874(3)
H8 H 0.8066 0.9037 -0.3401
C13 C 0.75633(18) 0.8434(3) -0.2580(2)
H9 H 0.7417 0.7891 -0.2904
C14 C 0.73854(14) 0.8553(2) -0.17749(19)
C15 C 0.69748(14) 0.7873(2) -0.14494(19)
H10 H 0.6825 0.7318 -0.1755
C16 C 0.68015(13) 0.8036(2) -0.06904(18)
C17 C 0.57673(13) 0.7683(2) -0.03777(17)
C18 C 0.46225(14) 1.3003(2) -0.00634(19)
C19 C 0.43414(17) 1.3724(3) -0.0585(3)
H11 H 0.3893 1.3828 -0.0654
C20 C 0.4728(2) 1.4295(4) -0.1009(3)
H12 H 0.4545 1.4787 -0.1370
C21 C 0.5379(2) 1.4129(4) -0.0890(3)
H13 H 0.5651 1.4505 -0.1170
C22 C 0.56348(19) 1.3402(3) -0.0353(3)
H14 H 0.6084 1.3301 -0.0270
Ag1D Ag 0.430524(12) 0.834255(18) -0.091582(15)
O1D O 0.37258(11) 0.97038(17) -0.02196(12)
O2D O 0.31482(10) 1.10726(15) -0.05813(11)
O3D O 0.44278(10) 1.15608(15) 0.06861(14)
O4D O 0.36117(9) 1.26374(14) 0.03616(13)
N1D N 0.39986(10) 0.95474(17) -0.18177(13)
N2D N 0.47328(11) 0.7170(2) -0.00586(16)
C1D C 0.41565(14) 0.9541(3) -0.25868(17)
H1D H 0.4366 0.8989 -0.2757
C2D C 0.40242(17) 1.0304(3) -0.31337(18)
H2D H 0.4145 1.0272 -0.3661
C3D C 0.37129(19) 1.1113(3) -0.2896(2)
H3D H 0.3616 1.1639 -0.3260
C4D C 0.35423(17) 1.1140(3) -0.21029(19)
H4D H 0.3330 1.1684 -0.1925
C5D C 0.36935(12) 1.0348(2) -0.15877(15)
C6D C 0.35364(13) 1.0313(2) -0.07231(16)
C7D C 0.29694(13) 1.1150(2) 0.02166(17)
C8D C 0.25736(14) 1.0484(2) 0.05053(18)
H5D H 0.2422 0.9943 0.0181
C9D C 0.23919(13) 1.0613(2) 0.13024(19)
C10D C 0.19943(16) 0.9913(3) 0.1641(2)
H6D H 0.1849 0.9355 0.1336
C11D C 0.18264(18) 1.0058(4) 0.2408(3)
H7D H 0.1560 0.9605 0.2622
C12D C 0.2050(2) 1.0879(4) 0.2874(3)
H8D H 0.1934 1.0963 0.3401
C13D C 0.24367(18) 1.1566(3) 0.2580(2)
H9D H 0.2583 1.2109 0.2904
C14D C 0.26146(14) 1.1447(2) 0.17749(19)
C15D C 0.30252(14) 1.2127(2) 0.14494(19)
H10D H 0.3175 1.2682 0.1755
C16D C 0.31985(13) 1.1964(2) 0.06904(18)
C17D C 0.42327(13) 1.2317(2) 0.03777(17)
C18D C 0.53775(14) 0.6997(2) 0.00634(19)
C19D C 0.56586(17) 0.6276(3) 0.0585(3)
H11D H 0.6107 0.6172 0.0654
C20D C 0.5272(2) 0.5705(4) 0.1009(3)
H12D H 0.5455 0.5213 0.1370
C21D C 0.4621(2) 0.5871(4) 0.0890(3)
H13D H 0.4349 0.5495 0.1170
C22D C 0.43652(19) 0.6598(3) 0.0353(3)
H14D H 0.3916 0.6699 0.0270
F1 F 0.2795(3) 0.6650(4) 0.0322(5)
F6 F 0.2078(4) 0.7256(7) -0.0629(4)
B2 B 0.2500 0.7500 0.0000
F1F F 0.2205(3) 0.8350(4) -0.0322(5)
F6F F 0.2922(4) 0.7744(7) 0.0629(4)
F7 F 0.5560(4) 0.3258(6) 0.2029(5)
F8 F 0.5379(8) 0.3663(8) 0.3227(7)
B1 B 0.5000 0.3402(5) 0.2500
F7A F 0.4440(4) 0.3258(6) 0.2971(5)
F8A F 0.4621(8) 0.3663(8) 0.1773(7)
loop_
_geom_bond_atom_site_label_1
_geom_bond_atom_site_label_2
_geom_bond_site_symmetry_1
_geom_bond_site_symmetry_2
Ag1 N1 1_555 1_555
F1 B2 1_555 1_555
F6 B2 1_555 1_555
F7 B1 1_555 1_555
F8 B1 1_555 1_555
O1 C6 1_555 1_555
O2 C6 1_555 1_555
O3 C17 1_555 1_555
O4 C16 1_555 1_555
N1 C1 1_555 1_555
N2 Ag1 1_555 1_555
B1 F7A 1_555 1_555
B2 F1F 1_555 1_555
C1 H1 1_555 1_555
C2 C1 1_555 1_555
H2 C2 1_555 1_555
C3 C2 1_555 1_555
H3 C3 1_555 1_555
C4 C3 1_555 1_555
H4 C4 1_555 1_555
C5 N1 1_555 1_555
C6 C5 1_555 1_555
C7 O2 1_555 1_555
C8 C7 1_555 1_555
H5 C8 1_555 1_555
C9 C8 1_555 1_555
C10 C9 1_555 1_555
H6 C10 1_555 1_555
C11 C10 1_555 1_555
H7 C11 1_555 1_555
C12 C11 1_555 1_555
H8 C12 1_555 1_555
C13 C12 1_555 1_555
H9 C13 1_555 1_555
C14 C9 1_555 1_555
C15 C14 1_555 1_555
H10 C15 1_555 1_555
C16 C7 1_555 1_555
C17 O4 1_555 1_555
C18 N2 1_555 1_555
C19 C18 1_555 1_555
H11 C19 1_555 1_555
C20 C19 1_555 1_555
H12 C20 1_555 1_555
C21 C20 1_555 1_555
H13 C21 1_555 1_555
C22 N2 1_555 1_555
H14 C22 1_555 1_555
Ag1D N1D 1_555 1_555
F6F B2 1_555 1_555
F8A B1 1_555 1_555
O1D C6D 1_555 1_555
O2D C6D 1_555 1_555
O3D C17D 1_555 1_555
O4D C16D 1_555 1_555
N1D C1D 1_555 1_555
N2D Ag1D 1_555 1_555
C1D H1D 1_555 1_555
C2D C1D 1_555 1_555
H2D C2D 1_555 1_555
C3D C2D 1_555 1_555
H3D C3D 1_555 1_555
C4D C3D 1_555 1_555
H4D C4D 1_555 1_555
C5D N1D 1_555 1_555
C6D C5D 1_555 1_555
C7D O2D 1_555 1_555
C8D C7D 1_555 1_555
H5D C8D 1_555 1_555
C9D C8D 1_555 1_555
C10D C9D 1_555 1_555
H6D C10D 1_555 1_555
C11D C10D 1_555 1_555
H7D C11D 1_555 1_555
C12D C11D 1_555 1_555
H8D C12D 1_555 1_555
C13D C12D 1_555 1_555
H9D C13D 1_555 1_555
C14D C9D 1_555 1_555
C15D C14D 1_555 1_555
H10D C15D 1_555 1_555
C16D C7D 1_555 1_555
C17D C18 1_555 1_555
C18D C17 1_555 1_555
C19D C18D 1_555 1_555
H11D C19D 1_555 1_555
C20D C19D 1_555 1_555
H12D C20D 1_555 1_555
C21D C20D 1_555 1_555
H13D C21D 1_555 1_555
C22D N2D 1_555 1_555
H14D C22D 1_555 1_555
C4 C5 1_555 1_555
C13 C14 1_555 1_555
C15 C16 1_555 1_555
C21 C22 1_555 1_555
O4D C17D 1_555 1_555
N2D C18D 1_555 1_555
C4D C5D 1_555 1_555
C13D C14D 1_555 1_555
C15D C16D 1_555 1_555
C21D C22D 1_555 1_555

#END
