
#######################################################################
#
#                 Cambridge Crystallographic Data Centre
#                                CCDC 
#
#######################################################################
#
# If this CIF has been generated from an entry in the Cambridge 
# Structural Database, then it will include bibliographic, chemical, 
# crystal, experimental, refinement or atomic coordinate data resulting 
# from the CCDC's data processing and validation procedures.
#
#######################################################################

data_VELSAJ
_chemical_formula_moiety         
'C228 H144 Co6 N40 12+,0.25(C6 H14 O1),7(C1 F3 O3 S1 1-),7(C2 H3 N1),5(B1 F4 1-)'
_chemical_name_systematic        
'tetrakis(\m-N,N,N-tris(4-{[(1,10-phenanthrolin-2-yl)methylidene]amino}phenyl)amine)-hexa-cobalt pentakis(tetrafluoroborate) heptakis(trifluoromethanesulfonate) acetonitrile diisopropyl ether unknown solvate'
_symmetry_cell_setting           triclinic
_symmetry_space_group_name_H-M   'P -1'
_symmetry_Int_Tables_number      2
_space_group_name_Hall           '-P 1'
loop_
_symmetry_equiv_pos_site_id
_symmetry_equiv_pos_as_xyz
1 x,y,z
2 -x,-y,-z
_cell_length_a                   21.2508(3)
_cell_length_b                   21.6182(2)
_cell_length_c                   39.5929(4)
_cell_angle_alpha                93.2080(10)
_cell_angle_beta                 101.6240(10)
_cell_angle_gamma                118.5210(10)
_cell_volume                     15407.3
_exptl_crystal_colour            purple
_exptl_crystal_description       block
_cell_formula_units_Z            2
loop_
_atom_site_label
_atom_site_type_symbol
_atom_site_fract_x
_atom_site_fract_y
_atom_site_fract_z
B1 B 0.1377(6) 0.0529(5) 0.4545(3)
F1 F 0.0895(7) 0.0632(6) 0.4319(3)
F2 F 0.1134(5) -0.0176(4) 0.4504(3)
F3 F 0.2039(4) 0.0880(3) 0.4488(2)
F4 F 0.1402(6) 0.0764(6) 0.4866(3)
B2 B 0.1265(7) 0.4982(7) 0.0549(3)
F5 F 0.0549(6) 0.4508(6) 0.0470(3)
F6 F 0.1419(7) 0.5471(7) 0.0825(3)
F7 F 0.1438(8) 0.5327(8) 0.0285(3)
F8 F 0.1701(6) 0.4703(5) 0.0634(3)
B3 B 0.4509(5) 0.1588(5) 0.0872(2)
F9 F 0.4421(8) 0.2112(7) 0.0756(4)
F10 F 0.4445(6) 0.1709(6) 0.1197(3)
F11 F 0.5156(6) 0.1633(7) 0.0924(3)
F12 F 0.3962(6) 0.0955(5) 0.0714(3)
B4 B 0.3013(5) 0.2557(5) 0.0218(2)
F13 F 0.2362(4) 0.1985(4) 0.0049(2)
F14 F 0.3163(5) 0.2533(5) 0.05652(16)
F15 F 0.3559(5) 0.2600(5) 0.0080(2)
F16 F 0.3007(6) 0.3180(4) 0.0195(2)
B5 B 0.8923(5) -0.0734(4) 0.3271(3)
F21 F 0.9092(12) -0.0660(8) 0.3619(3)
F22 F 0.8870(8) -0.1353(5) 0.3141(4)
F23 F 0.8308(6) -0.0723(8) 0.3139(5)
F24 F 0.9487(6) -0.0171(4) 0.3189(3)
S1 S 0.85270(10) 0.56263(10) 0.36202(5)
O1 O 0.8591(3) 0.6243(3) 0.38087(12)
O2 O 0.9141(3) 0.5738(3) 0.34912(14)
O3 O 0.8234(3) 0.4997(3) 0.37722(13)
C229 C 0.7840(7) 0.5480(6) 0.3197(3)
F29 F 0.8120(6) 0.6033(4) 0.30398(17)
F30 F 0.7701(6) 0.4892(5) 0.29996(18)
F31 F 0.7216(5) 0.5385(7) 0.3265(3)
S2 S 0.31928(11) 0.26189(10) 0.36317(5)
C231 C 0.3335(6) 0.2051(5) 0.3310(2)
O4 O 0.3949(3) 0.3166(3) 0.37939(18)
O5 O 0.2827(5) 0.2155(4) 0.3848(2)
O6 O 0.2788(8) 0.2888(7) 0.3421(3)
F35 F 0.3755(4) 0.1816(4) 0.34845(17)
F36 F 0.2682(5) 0.1499(4) 0.3158(2)
F37 F 0.3618(5) 0.2404(4) 0.30748(19)
S3 S 0.6235(3) 0.02314(19) 0.36771(11)
C232 C 0.6509(10) 0.0939(9) 0.3371(4)
O10 O 0.5959(7) 0.0633(6) 0.3837(3)
O11 O 0.6949(9) 0.0372(15) 0.3892(7)
O12 O 0.5727(5) -0.0476(5) 0.3544(3)
F41 F 0.5911(6) 0.0777(7) 0.3102(3)
F42 F 0.6761(6) 0.1583(5) 0.3567(3)
F43 F 0.7036(7) 0.0944(8) 0.3264(4)
S6 S 0.2904(10) -0.3784(11) 0.4173(5)
O19 O 0.3167(17) -0.4267(14) 0.4102(8)
O20 O 0.2188(6) -0.4105(6) 0.4240(4)
O21 O 0.3098(18) -0.3184(11) 0.3973(7)
C235 C 0.3635(9) -0.3231(10) 0.4624(5)
F50 F 0.3490(8) -0.2776(6) 0.4749(3)
F51 F 0.4281(7) -0.2961(6) 0.4584(3)
F52 F 0.3557(10) -0.3654(11) 0.4861(4)
N41 N 0.3016(8) 0.4957(9) 0.3199(4)
C236 C 0.2516(15) 0.5872(11) 0.3154(6)
H145 H 0.2562 0.6036 0.2929
H146 H 0.2794 0.6284 0.3345
H147 H 0.1992 0.5620 0.3155
C237 C 0.2817(10) 0.5379(9) 0.3201(4)
N42 N 0.2060(6) 0.3675(7) 0.4697(4)
C238 C 0.1327(7) 0.2284(6) 0.4569(4)
H148 H 0.1480 0.2103 0.4773
H149 H 0.1427 0.2109 0.4364
H150 H 0.0795 0.2117 0.4523
C239 C 0.1739(7) 0.3058(8) 0.4639(4)
N43 N 0.1493(8) 0.2039(9) 0.5486(3)
C240 C 0.0562(14) 0.1559(17) 0.5863(7)
H151 H 0.0055 0.1279 0.5712
H152 H 0.0619 0.1983 0.5999
H153 H 0.0660 0.1266 0.6022
C241 C 0.1094(8) 0.1785(10) 0.5643(4)
N44 N 0.3338(8) -0.2214(6) 0.3207(4)
C242 C 0.2145(14) -0.2357(15) 0.2777(7)
H154 H 0.1792 -0.2858 0.2669
H155 H 0.2304 -0.2075 0.2594
H156 H 0.1906 -0.2170 0.2906
C243 C 0.2801(12) -0.2311(12) 0.3023(6)
N45 N -0.0924(10) 0.1375(10) 0.0400(5)
C244 C -0.1944(12) 0.1663(13) 0.0515(6)
H157 H -0.1761 0.2170 0.0503
H158 H -0.2004 0.1583 0.0751
H159 H -0.2424 0.1371 0.0343
C245 C -0.1405(12) 0.1460(13) 0.0440(7)
N46 N 0.6293(13) 0.4462(13) 0.0065(6)
C246 C 0.7519(13) 0.5582(11) 0.0012(6)
H160 H 0.7736 0.5479 -0.0164
H161 H 0.7865 0.5725 0.0244
H162 H 0.7421 0.5970 -0.0041
C247 C 0.6824(14) 0.4941(13) 0.0008(5)
N47 N 0.4228(13) 0.4905(14) 0.1107(7)
C248 C 0.2852(13) 0.3911(12) 0.1003(6)
H163 H 0.2545 0.3910 0.0781
H164 H 0.2696 0.4039 0.1199
H165 H 0.2795 0.3433 0.1006
C249 C 0.3605(13) 0.4415(13) 0.1034(6)
N48 N 0.6120(7) 0.8356(6) 0.4478(4)
C250 C 0.7303(10) 0.9045(9) 0.4268(5)
H166 H 0.7386 0.8713 0.4130
H167 H 0.7716 0.9297 0.4478
H168 H 0.7272 0.9393 0.4127
C251 C 0.6624(10) 0.8654(8) 0.4367(4)
N49 N 0.0877(13) 0.0811(12) 0.2826(5)
C252 C 0.1246(14) -0.0152(12) 0.2716(8)
H169 H 0.0967 -0.0482 0.2491
H170 H 0.1775 0.0104 0.2725
H171 H 0.1165 -0.0422 0.2908
C253 C 0.0999(13) 0.0346(12) 0.2747(6)
O22 O 0.5618(17) 0.2568(16) 0.2771(7)
C254 C 0.556(2) 0.2968(15) 0.3045(9)
H172 H 0.5052 0.2898 0.2994
C255 C 0.566(3) 0.251(2) 0.3330(11)
H173 H 0.5634 0.2707 0.3554
H174 H 0.5254 0.2014 0.3255
H175 H 0.6134 0.2533 0.3358
C256 C 0.6104(15) 0.3713(13) 0.3202(7)
H176 H 0.5938 0.3868 0.3387
H177 H 0.6587 0.3757 0.3302
H178 H 0.6147 0.4013 0.3022
C257 C 0.5116(18) 0.248(2) 0.2443(9)
H179 H 0.5194 0.2977 0.2454
C258 C 0.4293(19) 0.206(2) 0.2391(12)
H180 H 0.4044 0.2061 0.2154
H181 H 0.4145 0.1569 0.2423
H182 H 0.4152 0.2281 0.2563
C259 C 0.539(2) 0.242(2) 0.2125(9)
H183 H 0.5027 0.2364 0.1912
H184 H 0.5865 0.2856 0.2142
H185 H 0.5463 0.2006 0.2115
Co1 Co 0.30931(4) -0.05398(4) 0.39964(2)
Co2 Co 0.53131(8) -0.09739(6) 0.12812(3)
Co3 Co 0.13407(6) 0.14342(6) 0.11831(2)
Co4 Co 0.56118(5) 0.60014(4) 0.39890(2)
Co5 Co 0.73089(8) 0.50140(7) 0.12485(3)
Co6 Co 0.96428(4) 0.33552(4) 0.40632(2)
C1 C 1.0155(4) 0.2905(3) 0.47915(18)
H1 H 0.9913 0.2429 0.4667
C2 C 1.0534(4) 0.3046(4) 0.51418(18)
H2 H 1.0558 0.2673 0.5250
C3 C 1.0872(4) 0.3719(4) 0.53292(17)
H3 H 1.1121 0.3816 0.5570
C4 C 1.0848(3) 0.4258(3) 0.51661(15)
C5 C 1.1185(3) 0.4993(3) 0.53345(16)
H4 H 1.1433 0.5125 0.5577
C6 C 1.1156(3) 0.5497(3) 0.51566(16)
H5 H 1.1395 0.5977 0.5275
C7 C 1.0777(3) 0.5327(3) 0.47954(15)
C8 C 1.0708(3) 0.5807(3) 0.45881(16)
H6 H 1.0938 0.6299 0.4687
C9 C 1.0311(3) 0.5573(3) 0.42430(16)
H7 H 1.0259 0.5898 0.4104
C10 C 0.9984(3) 0.4849(3) 0.40983(14)
C11 C 1.0429(3) 0.4607(3) 0.46287(14)
C12 C 1.0466(3) 0.4075(3) 0.48112(14)
C13 C 0.9535(3) 0.4520(3) 0.37371(15)
H8 H 0.9437 0.4794 0.3577
C14 C 0.8794(3) 0.3495(3) 0.33063(15)
C15 C 0.8328(5) 0.3720(4) 0.31326(17)
H9 H 0.8338 0.4129 0.3241
C16 C 0.7854(5) 0.3371(4) 0.28094(19)
H10 H 0.7512 0.3513 0.2703
C17 C 0.7880(4) 0.2806(4) 0.26388(17)
C18 C 0.8336(5) 0.2574(4) 0.28133(19)
H11 H 0.8345 0.2179 0.2702
C19 C 0.8775(4) 0.2905(4) 0.31453(18)
H12 H 0.9070 0.2725 0.3265
C20 C 0.8072(7) 0.6571(6) 0.1029(3)
H13 H 0.8530 0.6660 0.1176
C21 C 0.8057(9) 0.7115(7) 0.0844(4)
H14 H 0.8501 0.7557 0.0868
C22 C 0.7415(9) 0.7000(7) 0.0635(3)
H15 H 0.7399 0.7353 0.0506
C23 C 0.6781(7) 0.6362(5) 0.0611(3)
C24 C 0.6049(8) 0.6193(6) 0.0410(3)
H16 H 0.6003 0.6538 0.0284
C25 C 0.5441(7) 0.5572(6) 0.0395(2)
H17 H 0.4971 0.5489 0.0266
C26 C 0.5491(6) 0.5027(5) 0.0572(2)
C27 C 0.4887(6) 0.4350(5) 0.0562(2)
H18 H 0.4406 0.4225 0.0428
C28 C 0.4985(6) 0.3862(5) 0.0746(2)
H19 H 0.4581 0.3401 0.0739
C29 C 0.5708(6) 0.4078(5) 0.0943(2)
C30 C 0.6186(6) 0.5186(4) 0.0770(2)
C31 C 0.6827(6) 0.5848(5) 0.0793(2)
C32 C 0.5910(6) 0.3648(5) 0.1162(2)
H20 H 0.5551 0.3172 0.1169
C33 C 0.6784(5) 0.3538(4) 0.1582(2)
C34 C 0.6268(7) 0.2903(6) 0.1652(3)
H21 H 0.5758 0.2710 0.1538
C35 C 0.6477(6) 0.2541(6) 0.1884(3)
H22 H 0.6114 0.2097 0.1925
C36 C 0.7214(5) 0.2824(4) 0.20571(18)
C37 C 0.7705(6) 0.3487(5) 0.2013(2)
H23 H 0.8204 0.3716 0.2150
C38 C 0.7493(6) 0.3833(5) 0.1775(3)
H24 H 0.7853 0.4290 0.1744
C39 C 0.3903(8) -0.1895(6) 0.0617(3)
H25 H 0.4064 -0.1469 0.0521
C40 C 0.3255(9) -0.2526(8) 0.0421(4)
H26 H 0.2949 -0.2521 0.0211
C41 C 0.3100(10) -0.3137(9) 0.0550(4)
H27 H 0.2709 -0.3577 0.0409
C42 C 0.3477(8) -0.3154(6) 0.0873(3)
C43 C 0.3322(9) -0.3764(8) 0.1036(4)
H28 H 0.2922 -0.4216 0.0912
C44 C 0.3720(9) -0.3734(6) 0.1362(4)
H29 H 0.3608 -0.4152 0.1462
C45 C 0.4322(7) -0.3031(5) 0.1549(3)
C46 C 0.4772(9) -0.2940(6) 0.1883(4)
H30 H 0.4697 -0.3342 0.1992
C47 C 0.5326(9) -0.2257(6) 0.2051(3)
H31 H 0.5636 -0.2177 0.2277
C48 C 0.5410(7) -0.1686(4) 0.1872(3)
C49 C 0.4489(6) -0.2441(4) 0.1391(3)
C50 C 0.4082(6) -0.2489(5) 0.1060(3)
C51 C 0.5929(7) -0.0932(5) 0.2027(3)
H32 H 0.6206 -0.0784 0.2265
C52 C 0.6385(5) 0.0268(4) 0.1957(2)
C53 C 0.6363(7) 0.0508(5) 0.2282(2)
H33 H 0.6109 0.0177 0.2421
C54 C 0.6720(7) 0.1248(4) 0.2405(2)
H34 H 0.6712 0.1421 0.2629
C55 C 0.7072(5) 0.1711(4) 0.2203(2)
C56 C 0.7090(6) 0.1444(5) 0.1873(2)
H35 H 0.7364 0.1770 0.1737
C57 C 0.6722(7) 0.0732(5) 0.1748(3)
H36 H 0.6700 0.0559 0.1518
N1 N 1.0115(3) 0.3399(2) 0.46238(12)
N2 N 1.0036(2) 0.4388(2) 0.42885(12)
N3 N 0.9280(3) 0.3847(2) 0.36463(11)
N4 N 0.7472(6) 0.5950(4) 0.1003(2)
N5 N 0.6286(4) 0.4711(4) 0.09488(15)
N6 N 0.6584(5) 0.3926(4) 0.13477(17)
N7 N 0.4287(5) -0.1878(5) 0.0925(2)
N8 N 0.5035(4) -0.1674(5) 0.15572(19)
N9 N 0.5985(5) -0.0479(3) 0.1816(2)
N10 N 0.7412(4) 0.2452(3) 0.22984(15)
C58 C 0.2599(4) -0.0313(4) 0.46915(19)
H37 H 0.2268 -0.0194 0.4551
C59 C 0.2608(5) -0.0335(4) 0.5045(2)
H38 H 0.2280 -0.0240 0.5139
C60 C 0.3078(4) -0.0491(4) 0.52531(19)
H39 H 0.3086 -0.0500 0.5493
C61 C 0.3557(4) -0.0641(3) 0.51134(17)
C62 C 0.4071(4) -0.0829(3) 0.53051(17)
H40 H 0.4108 -0.0846 0.5547
C63 C 0.4504(4) -0.0980(3) 0.51494(17)
H41 H 0.4841 -0.1100 0.5284
C64 C 0.4460(4) -0.0964(3) 0.47850(16)
C65 C 0.4885(4) -0.1106(3) 0.45993(18)
H42 H 0.5227 -0.1239 0.4715
C66 C 0.4810(4) -0.1055(3) 0.42516(19)
H43 H 0.5099 -0.1152 0.4126
C67 C 0.4306(3) -0.0859(3) 0.40819(15)
C68 C 0.3966(3) -0.0770(3) 0.45960(15)
C69 C 0.3499(3) -0.0620(3) 0.47576(15)
C70 C 0.4170(4) -0.0770(3) 0.37179(16)
H44 H 0.4436 -0.0845 0.3569
C71 C 0.3586(4) -0.0441(3) 0.32518(15)
C72 C 0.4127(4) -0.0238(4) 0.30745(18)
H45 H 0.4593 -0.0186 0.3186
C73 C 0.4007(5) -0.0110(5) 0.27408(19)
H46 H 0.4387 0.0022 0.2622
C74 C 0.3340(5) -0.0169(4) 0.25739(17)
C75 C 0.2801(5) -0.0339(5) 0.2753(2)
H47 H 0.2345 -0.0368 0.2644
C76 C 0.2927(5) -0.0470(4) 0.30935(18)
H48 H 0.2559 -0.0580 0.3218
C77 C 0.6389(8) -0.1630(8) 0.1210(4)
H49 H 0.6296 -0.1816 0.1417
C78 C 0.6819(9) -0.1812(9) 0.1033(4)
H50 H 0.7026 -0.2090 0.1126
C79 C 0.6922(9) -0.1574(9) 0.0726(4)
H51 H 0.7163 -0.1722 0.0590
C80 C 0.6679(7) -0.1121(6) 0.0614(3)
C81 C 0.6766(7) -0.0837(7) 0.0299(3)
H52 H 0.7016 -0.0962 0.0159
C82 C 0.6510(7) -0.0400(7) 0.0192(3)
H53 H 0.6594 -0.0212 -0.0016
C83 C 0.6104(6) -0.0217(6) 0.0395(3)
C84 C 0.5850(7) 0.0251(7) 0.0315(3)
H54 H 0.5952 0.0489 0.0122
C85 C 0.5439(7) 0.0375(7) 0.0521(3)
H55 H 0.5247 0.0685 0.0467
C86 C 0.5325(5) 0.0018(6) 0.0808(2)
C87 C 0.5992(5) -0.0529(5) 0.0685(2)
C88 C 0.6254(6) -0.0977(5) 0.0801(3)
C89 C 0.4905(6) 0.0093(6) 0.1046(2)
H56 H 0.4706 0.0403 0.1018
C90 C 0.4433(5) -0.0193(5) 0.1538(2)
C91 C 0.4406(6) 0.0411(6) 0.1608(2)
H57 H 0.4668 0.0809 0.1503
C92 C 0.4001(7) 0.0457(6) 0.1833(3)
H58 H 0.3974 0.0881 0.1873
C93 C 0.3641(5) -0.0096(5) 0.1999(2)
C94 C 0.3699(6) -0.0696(5) 0.1938(2)
H59 H 0.3462 -0.1087 0.2053
C95 C 0.4109(6) -0.0733(5) 0.1707(2)
H60 H 0.4155 -0.1146 0.1670
C96 C 0.1431(6) 0.2316(4) 0.0549(2)
H61 H 0.1716 0.2132 0.0472
C97 C 0.1219(7) 0.2735(5) 0.0341(2)
H62 H 0.1359 0.2831 0.0129
C98 C 0.0817(7) 0.2992(6) 0.0452(3)
H63 H 0.0657 0.3257 0.0310
C99 C 0.0630(7) 0.2878(6) 0.0768(3)
C100 C 0.0205(8) 0.3121(7) 0.0911(4)
H64 H 0.0049 0.3409 0.0787
C101 C 0.0010(9) 0.2963(7) 0.1217(4)
H65 H -0.0295 0.3117 0.1295
C102 C 0.0269(7) 0.2559(7) 0.1419(3)
C103 C 0.0130(8) 0.2381(8) 0.1744(3)
H66 H -0.0156 0.2533 0.1844
C104 C 0.0404(7) 0.1989(7) 0.1919(3)
H67 H 0.0315 0.1871 0.2139
C105 C 0.0820(6) 0.1771(5) 0.1762(2)
C106 C 0.0683(6) 0.2320(5) 0.1282(2)
C107 C 0.0851(6) 0.2453(5) 0.0958(2)
C108 C 0.1164(6) 0.1359(5) 0.1903(2)
H68 H 0.1162 0.1245 0.2131
C109 C 0.1887(5) 0.0843(4) 0.18545(18)
C110 C 0.2346(6) 0.1100(6) 0.21917(19)
H69 H 0.2369 0.1480 0.2335
C111 C 0.2774(6) 0.0797(5) 0.2319(2)
H70 H 0.3072 0.0960 0.2553
C112 C 0.2774(5) 0.0268(5) 0.21122(18)
C113 C 0.2294(5) -0.0001(5) 0.17705(19)
H71 H 0.2257 -0.0393 0.1629
C114 C 0.1886(5) 0.0307(5) 0.1647(2)
H72 H 0.1593 0.0149 0.1411
N11 N 0.3036(3) -0.0451(3) 0.45474(13)
N12 N 0.3898(3) -0.0723(2) 0.42513(12)
N13 N 0.3685(3) -0.0586(2) 0.36012(12)
N14 N 0.6112(5) -0.1219(4) 0.1102(2)
N15 N 0.5579(5) -0.0419(4) 0.0899(2)
N16 N 0.4817(4) -0.0282(4) 0.12956(18)
N17 N 0.1242(4) 0.2177(3) 0.08449(16)
N18 N 0.0947(4) 0.1931(4) 0.14548(16)
N19 N 0.1464(4) 0.1162(4) 0.17095(15)
N20 N 0.3219(4) -0.0042(4) 0.22261(15)
C115 C 0.6794(4) 0.7201(4) 0.46641(19)
H73 H 0.7115 0.7408 0.4517
C116 C 0.7021(5) 0.7529(4) 0.5015(2)
H74 H 0.7485 0.7956 0.5101
C117 C 0.6580(4) 0.7236(4) 0.52296(19)
H75 H 0.6743 0.7452 0.5469
C118 C 0.5891(4) 0.6623(3) 0.51035(15)
C119 C 0.5371(4) 0.6277(4) 0.53046(17)
H76 H 0.5501 0.6461 0.5547
C120 C 0.4702(4) 0.5699(4) 0.51597(15)
H77 H 0.4370 0.5487 0.5301
C121 C 0.4480(3) 0.5392(3) 0.47916(15)
C122 C 0.3797(4) 0.4796(3) 0.46196(16)
H78 H 0.3432 0.4566 0.4744
C123 C 0.3650(3) 0.4535(3) 0.42653(16)
H79 H 0.3189 0.4129 0.4145
C124 C 0.4206(3) 0.4893(3) 0.40924(14)
C125 C 0.5000(3) 0.5716(3) 0.45980(14)
C126 C 0.5702(3) 0.6329(3) 0.47450(15)
C127 C 0.4142(4) 0.4686(3) 0.37210(15)
H80 H 0.3703 0.4287 0.3576
C128 C 0.4693(4) 0.4846(3) 0.32527(15)
C129 C 0.4265(4) 0.4153(3) 0.30766(16)
H81 H 0.3942 0.3799 0.3186
C130 C 0.4293(5) 0.3957(4) 0.27447(17)
H82 H 0.3993 0.3474 0.2628
C131 C 0.4761(5) 0.4471(4) 0.25823(16)
C132 C 0.5184(5) 0.5173(4) 0.27581(19)
H83 H 0.5498 0.5534 0.2648
C133 C 0.5153(5) 0.5349(4) 0.30891(19)
H84 H 0.5458 0.5830 0.3208
C134 C -0.0466(5) 0.0466(5) 0.0982(3)
H85 H -0.0456 0.0775 0.1166
C135 C -0.1170(6) -0.0083(6) 0.0780(3)
H86 H -0.1614 -0.0132 0.0822
C136 C -0.1184(6) -0.0538(6) 0.0525(3)
H87 H -0.1646 -0.0921 0.0387
C137 C -0.0535(5) -0.0447(5) 0.0463(2)
C138 C -0.0497(6) -0.0901(5) 0.0194(2)
H88 H -0.0945 -0.1300 0.0055
C139 C 0.0147(6) -0.0778(5) 0.0134(2)
H89 H 0.0146 -0.1076 -0.0051
C140 C 0.0843(5) -0.0199(5) 0.03484(19)
C141 C 0.1537(5) -0.0018(5) 0.0305(2)
H90 H 0.1577 -0.0286 0.0121
C142 C 0.2170(5) 0.0543(5) 0.0525(2)
H91 H 0.2646 0.0651 0.0500
C143 C 0.2101(4) 0.0953(4) 0.07858(17)
C144 C 0.0808(4) 0.0236(4) 0.06132(17)
C145 C 0.0132(5) 0.0105(4) 0.06772(19)
C146 C 0.2718(4) 0.1565(4) 0.10354(17)
H92 H 0.3219 0.1717 0.1039
C147 C 0.3124(4) 0.2485(4) 0.15058(17)
C148 C 0.3849(5) 0.2680(6) 0.1563(3)
H93 H 0.3980 0.2403 0.1429
C149 C 0.4404(5) 0.3262(6) 0.1807(3)
H94 H 0.4904 0.3372 0.1843
C150 C 0.4231(5) 0.3688(4) 0.19999(18)
C151 C 0.3498(5) 0.3482(5) 0.1942(2)
H95 H 0.3360 0.3756 0.2074
C152 C 0.2952(5) 0.2893(4) 0.17014(19)
H96 H 0.2448 0.2768 0.1671
C153 C 0.7517(4) 0.41545(12) 0.06244(9)
H97 H 0.6992 0.3892 0.0539
C154 C 0.7973(2) 0.40473(7) 0.04353(5)
H98 H 0.7752 0.3712 0.0223
C155 C 0.8709(3) 0.44205(10) 0.05582(8)
H99 H 0.8999 0.4339 0.0427
C156 C 0.9075(7) 0.4917(4) 0.0864(2)
C157 C 0.9846(10) 0.5347(6) 0.1023(4)
H100 H 1.0171 0.5294 0.0906
C158 C 1.0162(10) 0.5826(6) 0.1326(4)
H101 H 1.0686 0.6097 0.1418
C159 C 0.9665(7) 0.5908(5) 0.1505(3)
C160 C 0.9917(9) 0.6383(6) 0.1820(3)
H102 H 1.0432 0.6674 0.1929
C161 C 0.9393(6) 0.6417(5) 0.1967(3)
H103 H 0.9543 0.6733 0.2181
C162 C 0.8632(4) 0.5973(4) 0.1794(2)
C163 C 0.8908(6) 0.5491(4) 0.1353(2)
C164 C 0.8586(7) 0.4997(5) 0.1039(3)
C165 C 0.8037(5) 0.5859(5) 0.1960(2)
H104 H 0.8134 0.6076 0.2194
C166 C 0.6765(5) 0.5265(4) 0.19187(19)
C167 C 0.6770(5) 0.5022(5) 0.2234(2)
H105 H 0.7208 0.5050 0.2371
C168 C 0.6126(5) 0.4735(5) 0.2348(2)
H106 H 0.6134 0.4589 0.2570
C169 C 0.5487(5) 0.4661(4) 0.21502(19)
C170 C 0.5501(5) 0.4944(5) 0.1840(2)
H107 H 0.5073 0.4941 0.1708
C171 C 0.6131(6) 0.5221(5) 0.1727(2)
H108 H 0.6129 0.5389 0.1510
N21 N 0.6146(3) 0.6610(3) 0.45299(13)
N22 N 0.4850(3) 0.5459(2) 0.42526(12)
N23 N 0.4698(3) 0.5064(2) 0.36005(12)
N24 N 0.0181(4) 0.0586(4) 0.09362(17)
N25 N 0.1441(4) 0.0800(3) 0.08244(14)
N26 N 0.2547(3) 0.1894(3) 0.12537(14)
N27 N 0.7839(7) 0.4629(4) 0.0923(2)
N28 N 0.8391(4) 0.5515(4) 0.1507(2)
N29 N 0.7382(4) 0.5453(4) 0.17692(16)
N30 N 0.4808(4) 0.4296(3) 0.22397(15)
C172 C 0.4625(4) 0.6749(4) 0.3804(2)
H109 H 0.4275 0.6399 0.3904
C173 C 0.4484(5) 0.7276(4) 0.3673(2)
H110 H 0.4041 0.7276 0.3684
C174 C 0.4976(5) 0.7774(5) 0.3534(3)
H111 H 0.4881 0.8131 0.3447
C175 C 0.5627(5) 0.7783(4) 0.3513(2)
C176 C 0.6183(5) 0.8283(5) 0.3365(3)
H112 H 0.6126 0.8658 0.3277
C177 C 0.6787(6) 0.8239(5) 0.3347(3)
H113 H 0.7132 0.8564 0.3235
C178 C 0.6914(4) 0.7704(4) 0.3496(2)
C179 C 0.7526(5) 0.7613(4) 0.3493(2)
H114 H 0.7899 0.7921 0.3389
C180 C 0.7581(4) 0.7078(3) 0.3643(2)
H115 H 0.7999 0.7021 0.3647
C181 C 0.7029(4) 0.6622(3) 0.37879(18)
C182 C 0.6376(4) 0.7214(3) 0.36410(18)
C183 C 0.5718(4) 0.7237(3) 0.36502(19)
C184 C 0.6974(4) 0.5996(3) 0.39372(17)
H116 H 0.7374 0.5902 0.3970
C185 C 0.6339(3) 0.4958(3) 0.41513(15)
C186 C 0.6908(3) 0.4989(3) 0.44077(15)
H117 H 0.7326 0.5439 0.4521
C187 C 0.6869(3) 0.4370(3) 0.44979(15)
H118 H 0.7258 0.4390 0.4675
C188 C 0.6253(3) 0.3708(3) 0.43282(14)
C189 C 0.5669(3) 0.3683(3) 0.40902(14)
H119 H 0.5239 0.3236 0.3983
C190 C 0.5711(3) 0.4310(3) 0.40075(15)
H120 H 0.5300 0.4295 0.3849
C191 C 1.1212(4) 0.4147(3) 0.38701(18)
H121 H 1.1242 0.4586 0.3949
C192 C 1.1798(4) 0.4171(4) 0.3750(2)
H122 H 1.2208 0.4616 0.3740
C193 C 1.1769(4) 0.3546(4) 0.3647(2)
H123 H 1.2162 0.3553 0.3565
C194 C 1.1169(4) 0.2898(3) 0.3660(2)
C195 C 1.1100(4) 0.2205(4) 0.3574(3)
H124 H 1.1486 0.2178 0.3501
C196 C 1.0499(4) 0.1598(4) 0.3595(3)
H125 H 1.0472 0.1153 0.3536
C197 C 0.9900(4) 0.1606(4) 0.3704(3)
C198 C 0.9258(4) 0.1012(3) 0.3733(3)
H126 H 0.9194 0.0548 0.3679
C199 C 0.8716(4) 0.1082(3) 0.3839(2)
H127 H 0.8270 0.0674 0.3850
C200 C 0.8842(3) 0.1781(3) 0.39294(18)
C201 C 0.9973(3) 0.2280(3) 0.37974(18)
C202 C 1.0602(3) 0.2922(3) 0.37792(18)
C203 C 0.8331(3) 0.1951(3) 0.40539(17)
H128 H 0.7888 0.1587 0.4096
C204 C 0.7999(3) 0.2783(3) 0.42165(15)
C205 C 0.7638(3) 0.2457(3) 0.44618(15)
H129 H 0.7759 0.2143 0.4581
C206 C 0.7098(3) 0.2588(3) 0.45352(15)
H130 H 0.6864 0.2382 0.4712
C207 C 0.6898(3) 0.3023(3) 0.43487(14)
C208 C 0.7290(3) 0.3376(3) 0.41170(14)
H131 H 0.7178 0.3698 0.4002
C209 C 0.7851(3) 0.3261(3) 0.40508(14)
H132 H 0.8127 0.3510 0.3894
C210 C 0.2278(4) -0.2273(3) 0.3851(2)
H133 H 0.2752 -0.2226 0.3938
C211 C 0.1659(5) -0.2956(4) 0.3749(3)
H134 H 0.1717 -0.3363 0.3771
C212 C 0.0977(5) -0.3045(4) 0.3620(3)
H135 H 0.0555 -0.3512 0.3548
C213 C 0.0901(4) -0.2436(4) 0.3594(2)
C214 C 0.0204(5) -0.2457(4) 0.3470(3)
H136 H -0.0240 -0.2907 0.3397
C215 C 0.0166(4) -0.1852(4) 0.3453(3)
H137 H -0.0300 -0.1883 0.3361
C216 C 0.0826(4) -0.1158(3) 0.3575(2)
C217 C 0.0848(4) -0.0494(4) 0.3575(3)
H138 H 0.0403 -0.0483 0.3492
C218 C 0.1512(4) 0.0136(4) 0.3696(2)
H139 H 0.1527 0.0583 0.3696
C219 C 0.2167(3) 0.0112(3) 0.38175(18)
C220 C 0.1500(3) -0.1136(3) 0.36932(19)
C221 C 0.1546(4) -0.1771(3) 0.3704(2)
C222 C 0.2907(3) 0.0722(3) 0.39514(17)
H140 H 0.2987 0.1195 0.3983
C223 C 0.4179(3) 0.1204(3) 0.41511(15)
C224 C 0.4735(3) 0.1221(3) 0.40130(14)
H141 H 0.4639 0.0814 0.3860
C225 C 0.5429(3) 0.1829(3) 0.40961(14)
H142 H 0.5801 0.1841 0.3994
C226 C 0.5587(3) 0.2421(3) 0.43279(14)
C227 C 0.5044(3) 0.2376(3) 0.44901(15)
H143 H 0.5158 0.2759 0.4666
C228 C 0.4343(3) 0.1782(3) 0.43970(15)
H144 H 0.3971 0.1766 0.4501
N31 N 0.5232(3) 0.6728(3) 0.37908(14)
N32 N 0.6442(3) 0.6693(2) 0.37852(13)
N33 N 0.6389(3) 0.5585(2) 0.40220(12)
N34 N 1.0625(3) 0.3550(2) 0.38799(13)
N35 N 0.9450(3) 0.2347(2) 0.39093(13)
N36 N 0.8504(2) 0.2610(2) 0.41044(12)
N37 N 0.2232(3) -0.1681(3) 0.38314(14)
N38 N 0.2152(3) -0.0510(2) 0.38060(14)
N39 N 0.3451(2) 0.0602(2) 0.40258(12)
N40 N 0.6272(2) 0.3068(2) 0.43973(12)
F17? F 0.274(3) 0.213(2) 0.0443(12)
F18? F 0.3653(17) 0.313(2) 0.0380(14)
F19? F 0.310(3) 0.219(2) -0.0035(7)
F20? F 0.251(2) 0.273(3) 0.0064(10)
F25? F 0.8423(12) -0.0917(12) 0.2965(4)
F26? F 0.9036(11) -0.1286(8) 0.3327(5)
F27? F 0.9552(9) -0.0130(9) 0.3309(7)
F28? F 0.8579(8) -0.0665(5) 0.3514(4)
C230? C 0.7522(15) 0.5109(16) 0.3293(8)
F32? F 0.754(3) 0.5631(18) 0.3136(10)
F33? F 0.7429(18) 0.4555(17) 0.3092(9)
F34? F 0.7017(14) 0.4871(18) 0.3466(9)
O7? O 0.298(3) 0.307(2) 0.3454(11)
O8? O 0.3780(17) 0.288(2) 0.3921(7)
O9? O 0.2528(15) 0.2001(16) 0.3698(10)
F38? F 0.312(3) 0.1372(14) 0.3338(13)
F39? F 0.305(3) 0.204(3) 0.2973(5)
F40? F 0.4056(16) 0.231(3) 0.3305(18)
C233? C 0.6359(12) 0.0897(12) 0.3333(6)
S4? S 0.6074(11) 0.0189(10) 0.3656(5)
O13? O 0.5690(15) -0.0424(11) 0.3381(5)
O14? O 0.6766(19) 0.032(3) 0.3864(12)
O15? O 0.5633(10) 0.0374(10) 0.3810(6)
F44? F 0.6025(11) 0.0395(10) 0.3039(5)
F45? F 0.5836(12) 0.1056(11) 0.3235(7)
F46? F 0.7042(11) 0.1283(14) 0.3368(7)
S5? S 0.2842(13) -0.3748(14) 0.4113(6)
O16? O 0.322(2) -0.411(2) 0.4027(11)
O17? O 0.2027(8) -0.4174(8) 0.3978(5)
O18? O 0.317(2) -0.3008(14) 0.4101(10)
C234? C 0.2892(12) -0.3889(10) 0.4602(6)
F47? F 0.3617(12) -0.3656(11) 0.4760(6)
F48? F 0.2547(9) -0.4554(8) 0.4628(4)
F49? F 0.2639(10) -0.3549(11) 0.4761(5)
loop_
_geom_bond_atom_site_label_1
_geom_bond_atom_site_label_2
_geom_bond_site_symmetry_1
_geom_bond_site_symmetry_2
Co1 N11 1_555 1_555
Co2 N7 1_555 1_555
Co3 N17 1_555 1_555
Co4 N21 1_555 1_555
Co5 N4 1_555 1_555
Co6 N1 1_555 1_555
C1 H1 1_555 1_555
C2 C1 1_555 1_555
H2 C2 1_555 1_555
C3 C2 1_555 1_555
H3 C3 1_555 1_555
C4 C3 1_555 1_555
C5 C4 1_555 1_555
H4 C5 1_555 1_555
C6 C5 1_555 1_555
H5 C6 1_555 1_555
C7 C6 1_555 1_555
C8 C7 1_555 1_555
H6 C8 1_555 1_555
C9 C8 1_555 1_555
H7 C9 1_555 1_555
C10 C9 1_555 1_555
C11 C7 1_555 1_555
C12 C4 1_555 1_555
C13 C10 1_555 1_555
H8 C13 1_555 1_555
C14 C15 1_555 1_555
C15 H9 1_555 1_555
C16 C15 1_555 1_555
H10 C16 1_555 1_555
C17 C16 1_555 1_555
C18 C17 1_555 1_555
H11 C18 1_555 1_555
C19 C14 1_555 1_555
H12 C19 1_555 1_555
C20 H13 1_555 1_555
C21 C20 1_555 1_555
H14 C21 1_555 1_555
C22 C21 1_555 1_555
H15 C22 1_555 1_555
C23 C22 1_555 1_555
C24 C23 1_555 1_555
H16 C24 1_555 1_555
C25 C24 1_555 1_555
H17 C25 1_555 1_555
C26 C25 1_555 1_555
C27 C26 1_555 1_555
H18 C27 1_555 1_555
C28 C27 1_555 1_555
H19 C28 1_555 1_555
C29 C28 1_555 1_555
C30 C26 1_555 1_555
C31 C23 1_555 1_555
C32 C29 1_555 1_555
H20 C32 1_555 1_555
C33 C34 1_555 1_555
C34 H21 1_555 1_555
C35 C34 1_555 1_555
H22 C35 1_555 1_555
C36 C35 1_555 1_555
C37 C36 1_555 1_555
H23 C37 1_555 1_555
C38 C33 1_555 1_555
H24 C38 1_555 1_555
C39 H25 1_555 1_555
C40 C39 1_555 1_555
H26 C40 1_555 1_555
C41 C40 1_555 1_555
H27 C41 1_555 1_555
C42 C41 1_555 1_555
C43 C42 1_555 1_555
H28 C43 1_555 1_555
C44 C43 1_555 1_555
H29 C44 1_555 1_555
C45 C44 1_555 1_555
C46 C45 1_555 1_555
H30 C46 1_555 1_555
C47 C46 1_555 1_555
H31 C47 1_555 1_555
C48 C47 1_555 1_555
C49 C45 1_555 1_555
C50 C42 1_555 1_555
C51 C48 1_555 1_555
H32 C51 1_555 1_555
C52 C53 1_555 1_555
C53 H33 1_555 1_555
C54 C53 1_555 1_555
H34 C54 1_555 1_555
C55 C54 1_555 1_555
C56 C55 1_555 1_555
H35 C56 1_555 1_555
C57 C52 1_555 1_555
H36 C57 1_555 1_555
N1 C1 1_555 1_555
N2 Co6 1_555 1_555
N3 Co6 1_555 1_555
N4 C20 1_555 1_555
N5 Co5 1_555 1_555
N6 Co5 1_555 1_555
N7 C39 1_555 1_555
N8 Co2 1_555 1_555
N9 Co2 1_555 1_555
N10 C17 1_555 1_555
C58 H37 1_555 1_555
C59 C58 1_555 1_555
H38 C59 1_555 1_555
C60 C59 1_555 1_555
H39 C60 1_555 1_555
C61 C60 1_555 1_555
C62 C61 1_555 1_555
H40 C62 1_555 1_555
C63 C62 1_555 1_555
H41 C63 1_555 1_555
C64 C63 1_555 1_555
C65 C64 1_555 1_555
H42 C65 1_555 1_555
C66 C65 1_555 1_555
H43 C66 1_555 1_555
C67 C66 1_555 1_555
C68 C64 1_555 1_555
C69 C61 1_555 1_555
C70 C67 1_555 1_555
H44 C70 1_555 1_555
C71 C72 1_555 1_555
C72 H45 1_555 1_555
C73 C72 1_555 1_555
H46 C73 1_555 1_555
C74 C73 1_555 1_555
C75 C74 1_555 1_555
H47 C75 1_555 1_555
C76 C71 1_555 1_555
H48 C76 1_555 1_555
C77 H49 1_555 1_555
C78 C77 1_555 1_555
H50 C78 1_555 1_555
C79 C78 1_555 1_555
H51 C79 1_555 1_555
C80 C79 1_555 1_555
C81 C80 1_555 1_555
H52 C81 1_555 1_555
C82 C81 1_555 1_555
H53 C82 1_555 1_555
C83 C82 1_555 1_555
C84 C83 1_555 1_555
H54 C84 1_555 1_555
C85 C84 1_555 1_555
H55 C85 1_555 1_555
C86 C85 1_555 1_555
C87 C83 1_555 1_555
C88 C80 1_555 1_555
C89 C86 1_555 1_555
H56 C89 1_555 1_555
C90 C91 1_555 1_555
C91 H57 1_555 1_555
C92 C91 1_555 1_555
H58 C92 1_555 1_555
C93 C92 1_555 1_555
C94 C93 1_555 1_555
H59 C94 1_555 1_555
C95 C90 1_555 1_555
H60 C95 1_555 1_555
C96 H61 1_555 1_555
C97 C96 1_555 1_555
H62 C97 1_555 1_555
C98 C97 1_555 1_555
H63 C98 1_555 1_555
C99 C98 1_555 1_555
C100 C99 1_555 1_555
H64 C100 1_555 1_555
C101 C100 1_555 1_555
H65 C101 1_555 1_555
C102 C101 1_555 1_555
C103 C102 1_555 1_555
H66 C103 1_555 1_555
C104 C103 1_555 1_555
H67 C104 1_555 1_555
C105 C104 1_555 1_555
C106 C102 1_555 1_555
C107 C99 1_555 1_555
C108 C105 1_555 1_555
H68 C108 1_555 1_555
C109 C110 1_555 1_555
C110 H69 1_555 1_555
C111 C110 1_555 1_555
H70 C111 1_555 1_555
C112 C111 1_555 1_555
C113 C112 1_555 1_555
H71 C113 1_555 1_555
C114 C109 1_555 1_555
H72 C114 1_555 1_555
N11 C58 1_555 1_555
N12 Co1 1_555 1_555
N13 Co1 1_555 1_555
N14 Co2 1_555 1_555
N15 Co2 1_555 1_555
N16 Co2 1_555 1_555
N17 C96 1_555 1_555
N18 Co3 1_555 1_555
N19 Co3 1_555 1_555
N20 C74 1_555 1_555
C115 H73 1_555 1_555
C116 C115 1_555 1_555
H74 C116 1_555 1_555
C117 C116 1_555 1_555
H75 C117 1_555 1_555
C118 C117 1_555 1_555
C119 C118 1_555 1_555
H76 C119 1_555 1_555
C120 C119 1_555 1_555
H77 C120 1_555 1_555
C121 C120 1_555 1_555
C122 C121 1_555 1_555
H78 C122 1_555 1_555
C123 C122 1_555 1_555
H79 C123 1_555 1_555
C124 C123 1_555 1_555
C125 C121 1_555 1_555
C126 C118 1_555 1_555
C127 C124 1_555 1_555
H80 C127 1_555 1_555
C128 C129 1_555 1_555
C129 H81 1_555 1_555
C130 C129 1_555 1_555
H82 C130 1_555 1_555
C131 C130 1_555 1_555
C132 C131 1_555 1_555
H83 C132 1_555 1_555
C133 C128 1_555 1_555
H84 C133 1_555 1_555
C134 H85 1_555 1_555
C135 C134 1_555 1_555
H86 C135 1_555 1_555
C136 C135 1_555 1_555
H87 C136 1_555 1_555
C137 C136 1_555 1_555
C138 C137 1_555 1_555
H88 C138 1_555 1_555
C139 C138 1_555 1_555
H89 C139 1_555 1_555
C140 C139 1_555 1_555
C141 C140 1_555 1_555
H90 C141 1_555 1_555
C142 C141 1_555 1_555
H91 C142 1_555 1_555
C143 C142 1_555 1_555
C144 C140 1_555 1_555
C145 C137 1_555 1_555
C146 C143 1_555 1_555
H92 C146 1_555 1_555
C147 C148 1_555 1_555
C148 H93 1_555 1_555
C149 C148 1_555 1_555
H94 C149 1_555 1_555
C150 C149 1_555 1_555
C151 C150 1_555 1_555
H95 C151 1_555 1_555
C152 C147 1_555 1_555
H96 C152 1_555 1_555
C153 H97 1_555 1_555
C154 C153 1_555 1_555
H98 C154 1_555 1_555
C155 C154 1_555 1_555
H99 C155 1_555 1_555
C156 C155 1_555 1_555
C157 C156 1_555 1_555
H100 C157 1_555 1_555
C158 C157 1_555 1_555
H101 C158 1_555 1_555
C159 C158 1_555 1_555
C160 C159 1_555 1_555
H102 C160 1_555 1_555
C161 C160 1_555 1_555
H103 C161 1_555 1_555
C162 C161 1_555 1_555
C163 C159 1_555 1_555
C164 C156 1_555 1_555
C165 C162 1_555 1_555
H104 C165 1_555 1_555
C166 C167 1_555 1_555
C167 H105 1_555 1_555
C168 C167 1_555 1_555
H106 C168 1_555 1_555
C169 C168 1_555 1_555
C170 C169 1_555 1_555
H107 C170 1_555 1_555
C171 C166 1_555 1_555
H108 C171 1_555 1_555
N21 C115 1_555 1_555
N22 Co4 1_555 1_555
N23 Co4 1_555 1_555
N24 Co3 1_555 1_555
N25 Co3 1_555 1_555
N26 Co3 1_555 1_555
N27 Co5 1_555 1_555
N28 Co5 1_555 1_555
N29 Co5 1_555 1_555
N30 C131 1_555 1_555
C172 H109 1_555 1_555
C173 C172 1_555 1_555
H110 C173 1_555 1_555
C174 C173 1_555 1_555
H111 C174 1_555 1_555
C175 C174 1_555 1_555
C176 C175 1_555 1_555
H112 C176 1_555 1_555
C177 C176 1_555 1_555
H113 C177 1_555 1_555
C178 C177 1_555 1_555
C179 C178 1_555 1_555
H114 C179 1_555 1_555
C180 C179 1_555 1_555
H115 C180 1_555 1_555
C181 C180 1_555 1_555
C182 C178 1_555 1_555
C183 C175 1_555 1_555
C184 C181 1_555 1_555
H116 C184 1_555 1_555
C185 C186 1_555 1_555
C186 H117 1_555 1_555
C187 C186 1_555 1_555
H118 C187 1_555 1_555
C188 C187 1_555 1_555
C189 C188 1_555 1_555
H119 C189 1_555 1_555
C190 C185 1_555 1_555
H120 C190 1_555 1_555
C191 H121 1_555 1_555
C192 C191 1_555 1_555
H122 C192 1_555 1_555
C193 C192 1_555 1_555
H123 C193 1_555 1_555
C194 C193 1_555 1_555
C195 C194 1_555 1_555
H124 C195 1_555 1_555
C196 C195 1_555 1_555
H125 C196 1_555 1_555
C197 C196 1_555 1_555
C198 C197 1_555 1_555
H126 C198 1_555 1_555
C199 C198 1_555 1_555
H127 C199 1_555 1_555
C200 C199 1_555 1_555
C201 C197 1_555 1_555
C202 C194 1_555 1_555
C203 C200 1_555 1_555
H128 C203 1_555 1_555
C204 C205 1_555 1_555
C205 H129 1_555 1_555
C206 C205 1_555 1_555
H130 C206 1_555 1_555
C207 C206 1_555 1_555
C208 C207 1_555 1_555
H131 C208 1_555 1_555
C209 C204 1_555 1_555
H132 C209 1_555 1_555
C210 H133 1_555 1_555
C211 C210 1_555 1_555
H134 C211 1_555 1_555
C212 C211 1_555 1_555
H135 C212 1_555 1_555
C213 C212 1_555 1_555
C214 C213 1_555 1_555
H136 C214 1_555 1_555
C215 C214 1_555 1_555
H137 C215 1_555 1_555
C216 C215 1_555 1_555
C217 C216 1_555 1_555
H138 C217 1_555 1_555
C218 C217 1_555 1_555
H139 C218 1_555 1_555
C219 C218 1_555 1_555
C220 C216 1_555 1_555
C221 C213 1_555 1_555
C222 C219 1_555 1_555
H140 C222 1_555 1_555
C223 C224 1_555 1_555
C224 H141 1_555 1_555
C225 C224 1_555 1_555
H142 C225 1_555 1_555
C226 C225 1_555 1_555
C227 C226 1_555 1_555
H143 C227 1_555 1_555
C228 C223 1_555 1_555
H144 C228 1_555 1_555
N31 Co4 1_555 1_555
N32 Co4 1_555 1_555
N33 Co4 1_555 1_555
N34 Co6 1_555 1_555
N35 Co6 1_555 1_555
N36 Co6 1_555 1_555
N37 Co1 1_555 1_555
N38 Co1 1_555 1_555
N39 Co1 1_555 1_555
N40 C188 1_555 1_555
B1 F1 1_555 1_555
F2 B1 1_555 1_555
F3 B1 1_555 1_555
F4 B1 1_555 1_555
B2 F5 1_555 1_555
F6 B2 1_555 1_555
F7 B2 1_555 1_555
F8 B2 1_555 1_555
B3 F9 1_555 1_555
F10 B3 1_555 1_555
F11 B3 1_555 1_555
F12 B3 1_555 1_555
B4 F13 1_555 1_555
F14 B4 1_555 1_555
F15 B4 1_555 1_555
F16 B4 1_555 1_555
B5 F21 1_555 1_555
F22 B5 1_555 1_555
F23 B5 1_555 1_555
F24 B5 1_555 1_555
S1 O1 1_555 1_555
O2 S1 1_555 1_555
O3 S1 1_555 1_555
C229 S1 1_555 1_555
F29 C229 1_555 1_555
F30 C229 1_555 1_555
F31 C229 1_555 1_555
S2 C231 1_555 1_555
C231 F35 1_555 1_555
O4 S2 1_555 1_555
O5 S2 1_555 1_555
O6 S2 1_555 1_555
F36 C231 1_555 1_555
F37 C231 1_555 1_555
S3 C232 1_555 1_555
C232 F41 1_555 1_555
O10 S3 1_555 1_555
O11 S3 1_555 1_555
O12 S3 1_555 1_555
F42 C232 1_555 1_555
F43 C232 1_555 1_555
S6 O19 1_555 1_555
O20 S6 1_555 1_555
O21 S6 1_555 1_555
C235 S6 1_555 1_555
F50 C235 1_555 1_555
F51 C235 1_555 1_555
F52 C235 1_555 1_555
N41 C237 1_555 1_555
C236 H145 1_555 1_555
H146 C236 1_555 1_555
H147 C236 1_555 1_555
C237 C236 1_555 1_555
N42 C239 1_555 1_555
C238 H148 1_555 1_555
H149 C238 1_555 1_555
H150 C238 1_555 1_555
C239 C238 1_555 1_555
N43 C241 1_555 1_555
C240 H151 1_555 1_555
H152 C240 1_555 1_555
H153 C240 1_555 1_555
C241 C240 1_555 1_555
N44 C243 1_555 1_555
C242 H154 1_555 1_555
H155 C242 1_555 1_555
H156 C242 1_555 1_555
C243 C242 1_555 1_555
N45 C245 1_555 1_555
C244 H157 1_555 1_555
H158 C244 1_555 1_555
H159 C244 1_555 1_555
C245 C244 1_555 1_555
N46 C247 1_555 1_555
C246 H160 1_555 1_555
H161 C246 1_555 1_555
H162 C246 1_555 1_555
C247 C246 1_555 1_555
N47 C249 1_555 1_555
C248 H163 1_555 1_555
H164 C248 1_555 1_555
H165 C248 1_555 1_555
C249 C248 1_555 1_555
N48 C251 1_555 1_555
C250 H166 1_555 1_555
H167 C250 1_555 1_555
H168 C250 1_555 1_555
C251 C250 1_555 1_555
N49 C253 1_555 1_555
C252 H169 1_555 1_555
H170 C252 1_555 1_555
H171 C252 1_555 1_555
C253 C252 1_555 1_555
O22 C254 1_555 1_555
C254 H172 1_555 1_555
C255 C254 1_555 1_555
H173 C255 1_555 1_555
H174 C255 1_555 1_555
H175 C255 1_555 1_555
C256 C254 1_555 1_555
H176 C256 1_555 1_555
H177 C256 1_555 1_555
H178 C256 1_555 1_555
C257 O22 1_555 1_555
H179 C257 1_555 1_555
C258 C257 1_555 1_555
H180 C258 1_555 1_555
H181 C258 1_555 1_555
H182 C258 1_555 1_555
C259 C257 1_555 1_555
H183 C259 1_555 1_555
H184 C259 1_555 1_555
H185 C259 1_555 1_555
C10 N2 1_555 1_555
C11 C12 1_555 1_555
C11 N2 1_555 1_555
C12 N1 1_555 1_555
C13 N3 1_555 1_555
C14 N3 1_555 1_555
C18 C19 1_555 1_555
C29 N5 1_555 1_555
C30 C31 1_555 1_555
C30 N5 1_555 1_555
C31 N4 1_555 1_555
C32 N6 1_555 1_555
C33 N6 1_555 1_555
C36 N10 1_555 1_555
C37 C38 1_555 1_555
C48 N8 1_555 1_555
C49 C50 1_555 1_555
C49 N8 1_555 1_555
C50 N7 1_555 1_555
C51 N9 1_555 1_555
C52 N9 1_555 1_555
C55 N10 1_555 1_555
C56 C57 1_555 1_555
C67 N12 1_555 1_555
C68 C69 1_555 1_555
C68 N12 1_555 1_555
C69 N11 1_555 1_555
C70 N13 1_555 1_555
C71 N13 1_555 1_555
C75 C76 1_555 1_555
C77 N14 1_555 1_555
C86 N15 1_555 1_555
C87 C88 1_555 1_555
C87 N15 1_555 1_555
C88 N14 1_555 1_555
C89 N16 1_555 1_555
C90 N16 1_555 1_555
C93 N20 1_555 1_555
C94 C95 1_555 1_555
C105 N18 1_555 1_555
C106 C107 1_555 1_555
C106 N18 1_555 1_555
C107 N17 1_555 1_555
C108 N19 1_555 1_555
C109 N19 1_555 1_555
C112 N20 1_555 1_555
C113 C114 1_555 1_555
C124 N22 1_555 1_555
C125 C126 1_555 1_555
C125 N22 1_555 1_555
C126 N21 1_555 1_555
C127 N23 1_555 1_555
C128 N23 1_555 1_555
C132 C133 1_555 1_555
C134 N24 1_555 1_555
C143 N25 1_555 1_555
C144 C145 1_555 1_555
C144 N25 1_555 1_555
C145 N24 1_555 1_555
C146 N26 1_555 1_555
C147 N26 1_555 1_555
C150 N30 1_555 1_555
C151 C152 1_555 1_555
C153 N27 1_555 1_555
C162 N28 1_555 1_555
C163 C164 1_555 1_555
C163 N28 1_555 1_555
C164 N27 1_555 1_555
C165 N29 1_555 1_555
C166 N29 1_555 1_555
C169 N30 1_555 1_555
C170 C171 1_555 1_555
C172 N31 1_555 1_555
C181 N32 1_555 1_555
C182 C183 1_555 1_555
C182 N32 1_555 1_555
C183 N31 1_555 1_555
C184 N33 1_555 1_555
C185 N33 1_555 1_555
C189 C190 1_555 1_555
C191 N34 1_555 1_555
C200 N35 1_555 1_555
C201 C202 1_555 1_555
C201 N35 1_555 1_555
C202 N34 1_555 1_555
C203 N36 1_555 1_555
C204 N36 1_555 1_555
C207 N40 1_555 1_555
C208 C209 1_555 1_555
C210 N37 1_555 1_555
C219 N38 1_555 1_555
C220 C221 1_555 1_555
C220 N38 1_555 1_555
C221 N37 1_555 1_555
C222 N39 1_555 1_555
C223 N39 1_555 1_555
C226 N40 1_555 1_555
C227 C228 1_555 1_555

#END
