
#######################################################################
#
#                 Cambridge Crystallographic Data Centre
#                                CCDC 
#
#######################################################################
#
# If this CIF has been generated from an entry in the Cambridge 
# Structural Database, then it will include bibliographic, chemical, 
# crystal, experimental, refinement or atomic coordinate data resulting 
# from the CCDC's data processing and validation procedures.
#
#######################################################################

data_VELSEN
_chemical_formula_moiety         
'2(C252 H180 Co6 N60 12+),11(C1 H12 B11 1-),2(C4 H10 O1),13(C1 F3 O3 S1 1-),5(C2 H3 N1)'
_chemical_name_systematic        
'bis(tetrakis(\m-N^2^,N^4^,N^6^-trimethyl-N^2^,N^4^,N^6^-tris(4-{[(1,10-phenanthrolin-2-yl)methylidene]amino}phenyl)-1,3,5-triazine-2,4,6-triamine)-hexa-cobalt) undecakis(1-carba-closo-dodecaborate(12)) tridecakis(trifluoromethanesulfonate) acetonitrile diethyl ether unknown solvate'
_symmetry_cell_setting           triclinic
_symmetry_space_group_name_H-M   'P -1'
_symmetry_Int_Tables_number      2
_space_group_name_Hall           '-P 1'
loop_
_symmetry_equiv_pos_site_id
_symmetry_equiv_pos_as_xyz
1 x,y,z
2 -x,-y,-z
_cell_length_a                   25.0303(4)
_cell_length_b                   26.7592(5)
_cell_length_c                   34.5514(7)
_cell_angle_alpha                68.1130(17)
_cell_angle_beta                 88.8092(17)
_cell_angle_gamma                66.5154(14)
_cell_volume                     19472.1
_exptl_crystal_colour            orange
_exptl_crystal_description       prism
_cell_formula_units_Z            1
loop_
_atom_site_label
_atom_site_type_symbol
_atom_site_fract_x
_atom_site_fract_y
_atom_site_fract_z
B1 B 0.3947(7) 0.7603(7) 0.0038(5)
H181 H 0.4135 0.7119 0.0250
B2 B 0.3448(8) 0.7901(7) -0.0412(5)
H182 H 0.3292 0.7616 -0.0503
B3 B 0.3240(8) 0.8079(7) 0.0015(6)
H183 H 0.2943 0.7909 0.0215
B4 B 0.3779(8) 0.8168(7) 0.0237(5)
H184 H 0.3844 0.8066 0.0583
B5 B 0.4364(7) 0.8034(7) -0.0067(5)
H185 H 0.4836 0.7833 0.0079
B6 B 0.4151(8) 0.7859(7) -0.0465(5)
H186 H 0.4472 0.7548 -0.0592
B7 B 0.2991(7) 0.8630(7) -0.0496(6)
H187 H 0.2519 0.8832 -0.0642
B8 B 0.3186(8) 0.8810(7) -0.0098(6)
H188 H 0.2864 0.9130 0.0022
B9 B 0.3917(8) 0.8741(7) -0.0155(6)
H189 H 0.4094 0.9018 -0.0072
B10 B 0.4111(8) 0.8554(7) -0.0553(6)
H190 H 0.4425 0.8710 -0.0744
B11 B 0.3543(9) 0.8507(8) -0.0800(5)
H191 H 0.3458 0.8630 -0.1147
B12 B 0.3386(8) 0.9053(7) -0.0601(6)
H192 H 0.3192 0.9536 -0.0816
B13 B 0.2328(7) 0.9605(7) 0.4288(5)
H193 H 0.2188 0.9297 0.4543
B14 B 0.1824(7) 1.0295(7) 0.3929(5)
H194 H 0.1341 1.0458 0.3946
B15 B 0.2318(6) 1.0245(7) 0.4300(5)
H195 H 0.2158 1.0373 0.4569
B16 B 0.2997(7) 0.9676(7) 0.4373(5)
H196 H 0.3295 0.9426 0.4684
B17 B 0.2923(8) 0.9356(7) 0.4016(6)
H197 H 0.3183 0.8872 0.4090
B18 B 0.2194(8) 0.9729(7) 0.3758(5)
H198 H 0.1959 0.9509 0.3657
B19 B 0.2178(7) 1.0766(7) 0.3781(5)
H199 H 0.1920 1.1253 0.3697
B20 B 0.2901(7) 1.0400(7) 0.4052(5)
H200 H 0.3134 1.0626 0.4148
B21 B 0.3252(7) 0.9814(8) 0.3879(6)
H201 H 0.3735 0.9639 0.3859
B22 B 0.2782(9) 0.9856(8) 0.3535(6)
H202 H 0.2948 0.9709 0.3275
B23 B 0.2102(8) 1.0463(8) 0.3439(5)
H203 H 0.1811 1.0730 0.3126
B24 B 0.2758(8) 1.0517(8) 0.3527(6)
H204 H 0.2898 1.0826 0.3273
B25 B 0.9352(12) 0.3831(10) 0.1613(11)
H205 H 0.9626 0.3344 0.1709
B26 B 0.8875(13) 0.4105(12) 0.1932(8)
H206 H 0.8834 0.3803 0.2246
B27 B 0.9498(11) 0.4239(13) 0.1841(9)
H207 H 0.9879 0.4017 0.2101
B28 B 0.9626(10) 0.4376(13) 0.1329(10)
H208 H 1.0080 0.4257 0.1242
B29 B 0.9038(13) 0.4324(14) 0.1083(9)
H209 H 0.9104 0.4161 0.0823
B30 B 0.8590(12) 0.4145(12) 0.1463(11)
H210 H 0.8351 0.3870 0.1461
B31 B 0.8830(13) 0.4805(13) 0.1835(9)
H211 H 0.8757 0.4970 0.2095
B32 B 0.9292(12) 0.4988(12) 0.1465(10)
H212 H 0.9521 0.5272 0.1467
B33 B 0.8996(13) 0.4995(13) 0.0997(8)
H213 H 0.9026 0.5289 0.0675
B34 B 0.8417(11) 0.4854(13) 0.1089(8)
H214 H 0.8047 0.5059 0.0824
B35 B 0.8264(10) 0.4763(12) 0.1603(10)
H215 H 0.7810 0.4904 0.1690
B36 B 0.8530(11) 0.5288(10) 0.1321(10)
H216 H 0.8256 0.5774 0.1227
B37 B 0.1846(12) 0.2071(11) 0.6534(6)
H217 H 0.1731 0.2364 0.6190
B38 B 0.1313(10) 0.1980(13) 0.6843(9)
H218 H 0.0835 0.2208 0.6705
B39 B 0.1808(12) 0.1398(12) 0.6737(8)
H219 H 0.1657 0.1238 0.6522
B40 B 0.2500(11) 0.1382(13) 0.6744(8)
H220 H 0.2816 0.1209 0.6542
B41 B 0.2430(12) 0.1997(12) 0.6865(8)
H221 H 0.2709 0.2245 0.6739
B42 B 0.1690(12) 0.2366(10) 0.6915(9)
H222 H 0.1466 0.2856 0.6829
B43 B 0.1626(11) 0.1273(12) 0.7243(8)
H223 H 0.1348 0.1027 0.7374
B44 B 0.2364(12) 0.0885(9) 0.7188(9)
H224 H 0.2586 0.0393 0.7280
B45 B 0.2724(10) 0.1316(13) 0.7248(8)
H225 H 0.3201 0.1109 0.7384
B46 B 0.2243(12) 0.1873(13) 0.7337(8)
H226 H 0.2398 0.2045 0.7541
B47 B 0.1553(11) 0.1859(13) 0.7363(8)
H227 H 0.1243 0.2008 0.7577
B48 B 0.2191(13) 0.1198(12) 0.7563(7)
H228 H 0.2301 0.0906 0.7908
B49 B 0.1375(9) -0.4860(9) 0.5874(7)
H229 H 0.1776 -0.5172 0.6118
B50 B 0.0667(11) -0.4682(11) 0.6005(7)
H230 H 0.0587 -0.4866 0.6338
B51 B 0.0950(11) -0.4152(10) 0.5830(7)
H231 H 0.1066 -0.3985 0.6054
B52 B 0.1357(9) -0.4221(10) 0.5432(8)
H232 H 0.1741 -0.4102 0.5384
B53 B 0.1324(9) -0.4823(9) 0.5351(7)
H233 H 0.1702 -0.5116 0.5244
B54 B 0.0915(11) -0.5115(9) 0.5710(8)
H234 H 0.1006 -0.5597 0.5846
B55 B 0.0236(10) -0.3972(10) 0.5649(7)
H235 H -0.0140 -0.3675 0.5754
B56 B 0.0643(11) -0.3664(8) 0.5289(7)
H236 H 0.0554 -0.3182 0.5147
B57 B 0.0887(8) -0.4138(9) 0.5014(6)
H237 H 0.0962 -0.3972 0.4678
B58 B 0.0635(10) -0.4642(10) 0.5188(8)
H238 H 0.0538 -0.4820 0.4965
B59 B 0.0185(10) -0.4547(11) 0.5570(9)
H239 H -0.0213 -0.4645 0.5608
B60 B 0.0175(9) -0.3929(11) 0.5146(7)
H240 H -0.0233 -0.3615 0.4910
B61 B 0.7777(14) 0.2562(14) 0.2018(8)
H241 H 0.7645 0.2584 0.2325
B62 B 0.7713(14) 0.2051(13) 0.1850(9)
H242 H 0.7529 0.1732 0.2040
B63 B 0.7662(14) 0.3218(11) 0.1554(10)
H243 H 0.7444 0.3678 0.1546
B64 B 0.8391(14) 0.2690(14) 0.1816(9)
H244 H 0.8670 0.2800 0.1992
B65 B 0.8409(13) 0.1978(12) 0.2000(8)
H245 H 0.8698 0.1605 0.2294
B66 B 0.7592(14) 0.2363(14) 0.1303(9)
H246 H 0.7318 0.2249 0.1128
B67 B 0.7556(14) 0.3091(12) 0.1110(8)
H247 H 0.7274 0.3460 0.0811
B68 B 0.8266(14) 0.2986(13) 0.1288(10)
H248 H 0.8468 0.3292 0.1107
B69 B 0.8671(12) 0.2277(14) 0.1546(10)
H249 H 0.9157 0.2099 0.1539
B70 B 0.8288(15) 0.1854(11) 0.1548(10)
H250 H 0.8496 0.1404 0.1538
B71 B 0.8184(15) 0.2489(14) 0.1104(8)
H251 H 0.8315 0.2461 0.0799
B72 B 0.7274(11) 0.2806(14) 0.1587(10)
H252 H 0.6791 0.2993 0.1606
C253 C 0.1669(8) -0.2458(8) 0.5331(5)
S1 S 0.2023(3) -0.2885(3) 0.59207(19)
F1 F 0.1198(5) -0.1995(5) 0.5314(3)
F2 F 0.2078(6) -0.2325(7) 0.5141(5)
F3 F 0.1526(6) -0.2792(7) 0.5210(5)
O1 O 0.1594(5) -0.3080(6) 0.6119(4)
O2 O 0.2123(5) -0.2425(5) 0.5987(3)
O3 O 0.2585(5) -0.3347(6) 0.5885(5)
C254 C 0.4590(13) 0.7542(12) 0.4952(9)
S2 S 0.4530(6) 0.6835(5) 0.5425(4)
F4 F 0.4182(15) 0.8023(13) 0.4970(12)
F5 F 0.5092(9) 0.7575(11) 0.4864(8)
F6 F 0.4406(17) 0.7544(17) 0.4592(10)
O4 O 0.4670(13) 0.6790(15) 0.5783(8)
O5 O 0.4856(15) 0.6394(13) 0.5272(12)
O6 O 0.3888(11) 0.7025(16) 0.5280(12)
C255 C 0.30676(14) 0.4465(3) 0.29227(16)
S3 S 0.38713(14) 0.4187(3) 0.27150(16)
F7 F 0.3063(3) 0.4746(5) 0.3167(3)
F8 F 0.2947(3) 0.4009(4) 0.3142(3)
F9 F 0.26371(16) 0.4831(5) 0.2602(2)
O7 O 0.3902(3) 0.4737(3) 0.2489(3)
O8 O 0.42561(17) 0.3816(5) 0.3103(2)
O9 O 0.3777(3) 0.3898(4) 0.2470(3)
C256 C 0.2039(12) 0.7166(11) 0.3286(8)
S4 S 0.1779(5) 0.6518(5) 0.3439(4)
F10 F 0.2388(9) 0.7085(11) 0.3605(7)
F11 F 0.1614(11) 0.7708(10) 0.3146(8)
F12 F 0.2317(8) 0.7183(9) 0.2976(6)
O10 O 0.1460(12) 0.6539(11) 0.3783(8)
O11 O 0.1310(10) 0.6733(10) 0.3076(7)
O12 O 0.2227(8) 0.6006(8) 0.3494(6)
S5 S 0.1320(5) 0.5475(6) 0.0971(4)
C257 C 0.0596(12) 0.5327(15) 0.0876(11)
F13 F 0.066(2) 0.520(2) 0.0536(15)
F14 F 0.0634(19) 0.4924(19) 0.1243(13)
F15 F 0.0129(12) 0.5825(15) 0.0779(12)
O13 O 0.1291(14) 0.5551(13) 0.1340(8)
O14 O 0.1777(10) 0.4985(11) 0.0983(9)
O15 O 0.1136(10) 0.6038(10) 0.0564(7)
N61 N -0.0112(9) 0.0746(8) 0.4417(8)
C258 C -0.0296(9) 0.1175(11) 0.4118(8)
C259 C -0.0591(9) 0.1761(10) 0.3767(6)
H253 H -0.0930 0.2016 0.3855
H254 H -0.0726 0.1713 0.3524
H255 H -0.0313 0.1944 0.3688
N62 N 0.5240(9) 0.2418(8) 0.2168(6)
C260 C 0.5564(12) 0.2383(13) 0.1932(9)
C261 C 0.5934(11) 0.2335(13) 0.1596(8)
H256 H 0.6237 0.1927 0.1687
H257 H 0.6122 0.2608 0.1542
H258 H 0.5687 0.2438 0.1338
N63 N 0.7277(14) 0.5420(16) 0.2411(10)
C262 C 0.7645(15) 0.5081(15) 0.2684(10)
C263 C 0.8131(17) 0.4683(19) 0.3024(13)
H259 H 0.8425 0.4388 0.2937
H260 H 0.7986 0.4481 0.3273
H261 H 0.8311 0.4910 0.3092
O16 O 0.7189(8) 0.4022(7) 0.0130(5)
C264 C 0.6408(10) 0.3691(10) 0.0187(9)
H262 H 0.6254 0.3429 0.0142
H263 H 0.6449 0.3614 0.0488
H264 H 0.6134 0.4106 0.0026
C265 C 0.7001(13) 0.3576(11) 0.0040(8)
H265 H 0.6969 0.3657 -0.0264
H266 H 0.7287 0.3160 0.0201
C266 C 0.7786(11) 0.3955(13) 0.0024(10)
H267 H 0.7805 0.4016 -0.0276
H268 H 0.8090 0.3557 0.0204
C267 C 0.7870(11) 0.4457(12) 0.0116(9)
H269 H 0.8257 0.4448 0.0054
H270 H 0.7561 0.4846 -0.0063
H271 H 0.7844 0.4390 0.0413
Co1 Co 0.07495(8) 0.09668(8) 0.56000(7)
Co2 Co 0.62907(8) 0.28236(8) 0.31300(6)
Co3 Co 0.67206(12) 0.76953(11) 0.06488(9)
Co4 Co 0.15497(10) 0.69835(10) 0.17667(9)
Co5 Co 0.33858(9) 0.44059(8) 0.47275(6)
Co6 Co 0.29223(11) 0.30472(10) 0.17632(7)
C1 C 0.0972(8) 0.0605(7) 0.6586(6)
H1 H 0.0827 0.1017 0.6527
C2 C 0.1114(10) 0.0198(10) 0.7013(6)
H2 H 0.1024 0.0340 0.7231
C3 C 0.1375(10) -0.0392(10) 0.7111(6)
H3 H 0.1505 -0.0665 0.7397
C4 C 0.1453(8) -0.0594(8) 0.6784(6)
C5 C 0.1676(8) -0.1200(8) 0.6836(6)
H4 H 0.1787 -0.1501 0.7113
C6 C 0.1733(7) -0.1355(7) 0.6511(6)
H5 H 0.1879 -0.1764 0.6561
C7 C 0.1574(6) -0.0910(7) 0.6074(6)
C8 C 0.1623(7) -0.1038(8) 0.5712(6)
H6 H 0.1781 -0.1437 0.5735
C9 C 0.1437(6) -0.0568(8) 0.5317(6)
H7 H 0.1457 -0.0635 0.5065
C10 C 0.1216(6) 0.0010(7) 0.5307(6)
C11 C 0.1342(6) -0.0317(7) 0.6026(6)
C12 C 0.1274(7) -0.0154(8) 0.6367(5)
C13 C 0.0997(6) 0.0542(7) 0.4908(5)
H8 H 0.1022 0.0517 0.4641
C14 C 0.0575(6) 0.1580(7) 0.4579(5)
C15 C 0.0880(7) 0.1626(7) 0.4243(5)
H9 H 0.1223 0.1295 0.4251
C16 C 0.0686(7) 0.2162(8) 0.3890(5)
H10 H 0.0880 0.2186 0.3649
C17 C 0.0219(7) 0.2648(7) 0.3890(5)
C18 C -0.0092(6) 0.2604(7) 0.4222(5)
H11 H -0.0428 0.2939 0.4218
C19 C 0.0090(7) 0.2065(7) 0.4562(5)
H12 H -0.0129 0.2032 0.4791
C20 C -0.0495(7) 0.3415(7) 0.3236(5)
H13 H -0.0642 0.3107 0.3315
H14 H -0.0800 0.3779 0.3244
H15 H -0.0393 0.3496 0.2950
C21 C 0.1468(9) 0.8139(9) 0.0984(7)
H16 H 0.1083 0.8209 0.0887
C22 C 0.1729(12) 0.8513(11) 0.0714(8)
H17 H 0.1534 0.8804 0.0441
C23 C 0.2260(12) 0.8426(10) 0.0867(7)
H18 H 0.2435 0.8673 0.0698
C24 C 0.2561(10) 0.8008(9) 0.1249(7)
C25 C 0.3131(9) 0.7845(9) 0.1429(7)
H19 H 0.3327 0.8079 0.1274
C26 C 0.3433(8) 0.7398(9) 0.1795(7)
H20 H 0.3813 0.7339 0.1895
C27 C 0.3163(8) 0.6996(8) 0.2042(6)
C28 C 0.3415(7) 0.6502(8) 0.2429(6)
H21 H 0.3796 0.6401 0.2557
C29 C 0.3114(8) 0.6159(8) 0.2628(5)
H22 H 0.3287 0.5823 0.2887
C30 C 0.2558(8) 0.6323(8) 0.2436(6)
C31 C 0.2590(8) 0.7143(7) 0.1876(6)
C32 C 0.2274(9) 0.7626(8) 0.1481(6)
C33 C 0.2204(8) 0.6010(7) 0.2593(6)
H23 H 0.2310 0.5698 0.2866
C34 C 0.1376(8) 0.5844(7) 0.2495(6)
C35 C 0.1296(7) 0.5614(8) 0.2896(6)
H24 H 0.1471 0.5679 0.3104
C36 C 0.0967(8) 0.5287(7) 0.3017(5)
H25 H 0.0938 0.5114 0.3307
C37 C 0.0688(7) 0.5211(7) 0.2731(6)
C38 C 0.0722(7) 0.5462(7) 0.2304(6)
H26 H 0.0519 0.5420 0.2097
C39 C 0.1070(8) 0.5781(8) 0.2193(5)
H27 H 0.1100 0.5961 0.1904
C40 C -0.0190(7) 0.5095(8) 0.2521(5)
H28 H -0.0258 0.5484 0.2303
H29 H -0.0107 0.4807 0.2392
H30 H -0.0541 0.5125 0.2659
C41 C 0.4643(9) 0.3896(9) 0.5215(6)
H31 H 0.4722 0.3535 0.5186
C42 C 0.5121(9) 0.3957(10) 0.5432(7)
H32 H 0.5514 0.3658 0.5510
C43 C 0.4966(9) 0.4449(10) 0.5510(6)
H33 H 0.5245 0.4475 0.5675
C44 C 0.4423(9) 0.4913(9) 0.5358(5)
C45 C 0.4213(10) 0.5477(10) 0.5394(6)
H34 H 0.4484 0.5552 0.5526
C46 C 0.3676(10) 0.5895(9) 0.5257(7)
H35 H 0.3571 0.6246 0.5307
C47 C 0.3243(9) 0.5838(8) 0.5033(6)
C48 C 0.2672(9) 0.6234(8) 0.4875(6)
H36 H 0.2528 0.6607 0.4899
C49 C 0.2299(8) 0.6098(8) 0.4681(6)
H37 H 0.1901 0.6376 0.4571
C50 C 0.2520(8) 0.5540(8) 0.4647(5)
C51 C 0.3442(8) 0.5278(8) 0.4988(5)
C52 C 0.4006(8) 0.4833(8) 0.5132(5)
C53 C 0.2183(7) 0.5331(8) 0.4461(5)
H38 H 0.1770 0.5545 0.4372
C54 C 0.2187(7) 0.4552(6) 0.4316(5)
C55 C 0.1793(7) 0.4396(7) 0.4559(5)
H39 H 0.1693 0.4511 0.4789
C56 C 0.1544(7) 0.4067(7) 0.4464(6)
H40 H 0.1251 0.3989 0.4623
C57 C 0.1690(7) 0.3849(7) 0.4160(5)
C58 C 0.2089(7) 0.4004(7) 0.3925(5)
H41 H 0.2210 0.3866 0.3707
C59 C 0.2319(6) 0.4356(7) 0.3997(5)
H42 H 0.2581 0.4467 0.3818
C60 C 0.1546(6) 0.2933(7) 0.4489(5)
H43 H 0.1866 0.2849 0.4696
H44 H 0.1181 0.3003 0.4613
H45 H 0.1646 0.2593 0.4411
C61 C 0.0338(7) 0.3536(7) 0.3511(5)
C62 C 0.0489(7) 0.4355(7) 0.3174(5)
C63 C 0.1047(7) 0.3660(7) 0.3785(5)
N1 N 0.1032(5) 0.0443(6) 0.6271(4)
N2 N 0.1168(5) 0.0123(5) 0.5645(5)
N3 N 0.0767(5) 0.1050(6) 0.4946(3)
N4 N 0.0030(6) 0.3212(6) 0.3533(4)
N5 N 0.1728(8) 0.7714(7) 0.1352(5)
N6 N 0.2297(6) 0.6801(6) 0.2068(5)
N7 N 0.1729(7) 0.6167(5) 0.2350(4)
N8 N 0.0322(6) 0.4893(6) 0.2840(4)
N9 N 0.4132(6) 0.4330(7) 0.5070(4)
N10 N 0.3071(7) 0.5163(5) 0.4794(4)
N11 N 0.2479(5) 0.4841(7) 0.4424(4)
N12 N 0.1466(6) 0.3461(6) 0.4113(4)
N13 N 0.0170(5) 0.4053(6) 0.3178(4)
N14 N 0.0932(6) 0.4182(6) 0.3469(5)
N15 N 0.0764(6) 0.3322(5) 0.3822(4)
C64 C 0.2613(10) 0.1929(9) 0.2014(7)
H46 H 0.2919 0.1769 0.1869
C65 C 0.2304(12) 0.1582(10) 0.2228(9)
H47 H 0.2394 0.1210 0.2214
C66 C 0.1892(11) 0.1780(10) 0.2448(7)
H48 H 0.1680 0.1555 0.2587
C67 C 0.1772(10) 0.2318(9) 0.2472(7)
C68 C 0.1358(11) 0.2566(11) 0.2711(8)
H49 H 0.1105 0.2385 0.2836
C69 C 0.1320(11) 0.3039(11) 0.2763(8)
H50 H 0.1106 0.3145 0.2971
C70 C 0.1605(11) 0.3409(10) 0.2502(8)
C71 C 0.1475(11) 0.3997(11) 0.2445(9)
H51 H 0.1115 0.4246 0.2500
C72 C 0.1922(11) 0.4190(10) 0.2298(8)
H52 H 0.1973 0.4483 0.2366
C73 C 0.2284(8) 0.3930(8) 0.2049(6)
C74 C 0.2004(8) 0.3170(8) 0.2265(6)
C75 C 0.2090(8) 0.2638(8) 0.2250(6)
C76 C 0.2677(7) 0.4182(7) 0.1806(5)
H53 H 0.2651 0.4563 0.1765
C77 C 0.3423(8) 0.4056(7) 0.1406(5)
C78 C 0.4003(8) 0.3671(7) 0.1459(5)
H54 H 0.4135 0.3271 0.1656
C79 C 0.4404(7) 0.3858(7) 0.1229(5)
H55 H 0.4813 0.3603 0.1292
C80 C 0.4202(8) 0.4408(8) 0.0914(5)
C81 C 0.3622(8) 0.4779(7) 0.0844(5)
H56 H 0.3483 0.5168 0.0628
C82 C 0.3233(7) 0.4601(7) 0.1081(5)
H57 H 0.2825 0.4861 0.1016
C83 C 0.5036(7) 0.4157(7) 0.0519(5)
H58 H 0.4878 0.3879 0.0512
H59 H 0.5096 0.4370 0.0234
H60 H 0.5413 0.3937 0.0708
C84 C 0.6748(12) 0.8979(10) 0.0247(8)
H61 H 0.6555 0.9038 -0.0010
C85 C 0.6883(15) 0.9456(11) 0.0262(9)
H62 H 0.6731 0.9842 0.0042
C86 C 0.7237(12) 0.9305(11) 0.0611(9)
H63 H 0.7405 0.9568 0.0609
C87 C 0.7373(11) 0.8811(11) 0.0964(8)
C88 C 0.7682(10) 0.8622(11) 0.1360(8)
H64 H 0.7795 0.8904 0.1394
C89 C 0.7844(13) 0.8120(12) 0.1695(8)
H65 H 0.8047 0.8056 0.1951
C90 C 0.7689(11) 0.7659(11) 0.1650(8)
C91 C 0.7845(15) 0.7078(13) 0.1959(8)
H66 H 0.8097 0.6938 0.2214
C92 C 0.7623(12) 0.6710(11) 0.1883(7)
H67 H 0.7699 0.6329 0.2094
C93 C 0.7297(9) 0.6909(10) 0.1500(7)
C94 C 0.7371(9) 0.7810(10) 0.1265(6)
C95 C 0.7185(9) 0.8373(9) 0.0922(7)
C96 C 0.7064(8) 0.6566(9) 0.1394(6)
H68 H 0.7139 0.6172 0.1580
C97 C 0.6512(9) 0.6493(8) 0.0900(5)
C98 C 0.5967(8) 0.6743(7) 0.0699(5)
H69 H 0.5719 0.7145 0.0649
C99 C 0.5759(7) 0.6421(8) 0.0564(5)
H70 H 0.5374 0.6610 0.0410
C100 C 0.6094(8) 0.5838(8) 0.0645(5)
C101 C 0.6666(8) 0.5573(7) 0.0844(5)
H71 H 0.6910 0.5170 0.0896
C102 C 0.6880(7) 0.5904(8) 0.0969(5)
H72 H 0.7276 0.5731 0.1101
C103 C 0.6269(7) 0.5082(7) 0.0339(5)
H73 H 0.6610 0.5173 0.0271
H74 H 0.6403 0.4671 0.0546
H75 H 0.6058 0.5131 0.0083
C104 C 0.0988(10) 0.7652(13) 0.2332(9)
H76 H 0.1364 0.7484 0.2496
C105 C 0.0446(13) 0.8077(16) 0.2433(10)
H77 H 0.0477 0.8222 0.2640
C106 C -0.0083(12) 0.8243(17) 0.2218(11)
H78 H -0.0428 0.8448 0.2315
C107 C -0.0151(11) 0.8133(15) 0.1871(10)
C108 C -0.0692(11) 0.8327(16) 0.1596(11)
H79 H -0.1048 0.8602 0.1637
C109 C -0.0715(11) 0.8141(17) 0.1293(11)
H80 H -0.1078 0.8303 0.1115
C110 C -0.0193(10) 0.7690(16) 0.1227(10)
C111 C -0.0145(12) 0.7510(14) 0.0901(9)
H81 H -0.0479 0.7676 0.0693
C112 C 0.0389(10) 0.7084(13) 0.0867(8)
H82 H 0.0406 0.6894 0.0681
C113 C 0.0900(9) 0.6951(10) 0.1124(7)
C114 C 0.0340(9) 0.7477(13) 0.1512(9)
C115 C 0.0375(10) 0.7683(13) 0.1815(9)
C116 C 0.1506(8) 0.6664(8) 0.1067(6)
H83 H 0.1603 0.6551 0.0836
C117 C 0.2488(8) 0.6393(8) 0.1282(6)
C118 C 0.2921(8) 0.5930(7) 0.1600(5)
H84 H 0.2821 0.5704 0.1851
C119 C 0.3508(7) 0.5796(6) 0.1550(5)
H85 H 0.3810 0.5458 0.1759
C120 C 0.3653(7) 0.6143(7) 0.1205(5)
C121 C 0.3216(8) 0.6596(8) 0.0890(5)
H86 H 0.3320 0.6815 0.0637
C122 C 0.2631(8) 0.6746(7) 0.0927(5)
H87 H 0.2333 0.7083 0.0714
C123 C 0.4426(7) 0.6462(7) 0.1251(4)
H88 H 0.4138 0.6663 0.1400
H89 H 0.4815 0.6241 0.1425
H90 H 0.4445 0.6757 0.0984
C124 C 0.4745(8) 0.5018(7) 0.0708(4)
C125 C 0.5364(7) 0.5447(7) 0.0640(5)
C126 C 0.4577(7) 0.5720(7) 0.0960(4)
N16 N 0.2494(8) 0.2460(6) 0.2006(5)
N17 N 0.2319(6) 0.3439(6) 0.2042(4)
N18 N 0.3050(6) 0.3843(5) 0.1659(4)
N19 N 0.4616(6) 0.4587(6) 0.0673(4)
N20 N 0.6880(9) 0.8480(7) 0.0568(6)
N21 N 0.7160(6) 0.7452(7) 0.1191(5)
N22 N 0.6745(6) 0.6819(6) 0.1033(5)
N23 N 0.5869(6) 0.5491(5) 0.0521(4)
N24 N 0.0915(8) 0.7527(8) 0.2011(6)
N25 N 0.0850(7) 0.7144(7) 0.1432(5)
N26 N 0.1899(7) 0.6573(6) 0.1344(4)
N27 N 0.4248(6) 0.6047(5) 0.1163(4)
N28 N 0.5234(6) 0.5057(5) 0.0557(3)
N29 N 0.5075(6) 0.5781(5) 0.0849(4)
N30 N 0.4391(5) 0.5346(6) 0.0896(4)
C127 C -0.0306(7) 0.0586(7) 0.5585(5)
H91 H -0.0051 0.0274 0.5510
C128 C -0.0869(8) 0.0619(8) 0.5661(5)
H92 H -0.0976 0.0321 0.5651
C129 C -0.1254(7) 0.1059(10) 0.5748(6)
H93 H -0.1638 0.1084 0.5792
C130 C -0.1089(8) 0.1488(8) 0.5773(6)
C131 C -0.1457(8) 0.1979(9) 0.5876(6)
H94 H -0.1854 0.2045 0.5908
C132 C -0.1256(7) 0.2339(8) 0.5928(6)
H95 H -0.1502 0.2642 0.6014
C133 C -0.0654(7) 0.2277(8) 0.5854(5)
C134 C -0.0407(8) 0.2654(7) 0.5893(6)
H96 H -0.0636 0.2978 0.5965
C135 C 0.0172(8) 0.2547(7) 0.5824(6)
H97 H 0.0349 0.2789 0.5852
C136 C 0.0481(7) 0.2063(7) 0.5712(5)
C137 C -0.0310(7) 0.1815(7) 0.5744(5)
C138 C -0.0507(7) 0.1413(8) 0.5711(5)
C139 C 0.1097(7) 0.1884(7) 0.5642(5)
H98 H 0.1310 0.2105 0.5653
C140 C 0.1947(7) 0.1192(6) 0.5520(5)
C141 C 0.2134(7) 0.1002(6) 0.5204(5)
H99 H 0.1857 0.1000 0.5021
C142 C 0.2717(8) 0.0814(6) 0.5145(5)
H100 H 0.2844 0.0675 0.4929
C143 C 0.3111(7) 0.0833(6) 0.5405(5)
C144 C 0.2942(7) 0.0985(6) 0.5743(5)
H101 H 0.3223 0.0957 0.5939
C145 C 0.2354(8) 0.1179(6) 0.5786(5)
H102 H 0.2228 0.1309 0.6007
C146 C 0.4178(7) 0.0285(7) 0.5722(5)
H103 H 0.3998 0.0126 0.5965
H104 H 0.4489 -0.0044 0.5676
H105 H 0.4348 0.0529 0.5777
C147 C 0.7437(8) 0.3037(7) 0.3042(5)
H106 H 0.7603 0.2732 0.3315
C148 C 0.7768(7) 0.3366(9) 0.2824(6)
H107 H 0.8152 0.3267 0.2947
C149 C 0.7522(8) 0.3819(8) 0.2442(7)
H108 H 0.7729 0.4048 0.2301
C150 C 0.6983(9) 0.3949(8) 0.2258(5)
C151 C 0.6648(9) 0.4408(7) 0.1876(6)
H109 H 0.6833 0.4649 0.1712
C152 C 0.6108(9) 0.4548(7) 0.1715(5)
H110 H 0.5927 0.4872 0.1451
C153 C 0.5784(8) 0.4189(7) 0.1952(5)
C154 C 0.5207(9) 0.4273(7) 0.1840(5)
H111 H 0.4984 0.4575 0.1578
C155 C 0.4962(7) 0.3915(8) 0.2112(5)
H112 H 0.4566 0.3985 0.2046
C156 C 0.5311(8) 0.3457(7) 0.2480(5)
C157 C 0.6106(7) 0.3718(7) 0.2323(5)
C158 C 0.6688(7) 0.3581(7) 0.2495(5)
C159 C 0.5142(7) 0.3061(7) 0.2798(6)
H113 H 0.4780 0.3040 0.2753
C160 C 0.5355(5) 0.2309(7) 0.3478(5)
C161 C 0.5268(6) 0.1875(7) 0.3428(5)
H114 H 0.5268 0.1855 0.3159
C162 C 0.5178(6) 0.1450(7) 0.3772(6)
H115 H 0.5113 0.1145 0.3733
C163 C 0.5180(6) 0.1459(7) 0.4158(6)
C164 C 0.5276(6) 0.1891(7) 0.4221(5)
H116 H 0.5292 0.1895 0.4494
C165 C 0.5353(6) 0.2333(7) 0.3872(6)
H117 H 0.5403 0.2648 0.3907
C166 C 0.5559(6) 0.0686(7) 0.4883(5)
H118 H 0.5937 0.0680 0.4797
H119 H 0.5450 0.0881 0.5081
H120 H 0.5596 0.0278 0.5020
C167 C 0.2076(11) 0.3854(11) 0.0909(7)
H121 H 0.1782 0.3995 0.1068
C168 C 0.1957(10) 0.4109(9) 0.0428(7)
H122 H 0.1577 0.4397 0.0279
C169 C 0.2407(10) 0.3914(10) 0.0220(7)
H123 H 0.2334 0.4082 -0.0080
C170 C 0.2950(9) 0.3499(9) 0.0410(6)
C171 C 0.3445(10) 0.3224(8) 0.0240(5)
H124 H 0.3394 0.3337 -0.0056
C172 C 0.3975(10) 0.2822(10) 0.0452(7)
H125 H 0.4292 0.2704 0.0302
C173 C 0.4072(9) 0.2569(8) 0.0902(6)
C174 C 0.4575(9) 0.2155(10) 0.1158(7)
H126 H 0.4912 0.1994 0.1036
C175 C 0.4621(8) 0.1951(8) 0.1597(7)
H127 H 0.4976 0.1651 0.1776
C176 C 0.4106(8) 0.2218(8) 0.1763(6)
C177 C 0.3568(9) 0.2820(9) 0.1094(6)
C178 C 0.3028(9) 0.3261(8) 0.0871(6)
C179 C 0.4076(8) 0.2094(7) 0.2195(5)
H128 H 0.4387 0.1776 0.2408
C180 C 0.3542(7) 0.2295(7) 0.2705(5)
C181 C 0.3631(8) 0.1728(8) 0.2955(6)
H129 H 0.3773 0.1420 0.2853
C182 C 0.3503(9) 0.1617(8) 0.3367(6)
H130 H 0.3582 0.1219 0.3546
C183 C 0.3277(6) 0.2031(6) 0.3528(5)
C184 C 0.3305(7) 0.2550(7) 0.3288(5)
H131 H 0.3243 0.2830 0.3409
C185 C 0.3417(9) 0.2694(8) 0.2877(5)
H132 H 0.3406 0.3075 0.2717
C186 C 0.2539(6) 0.2030(6) 0.3993(4)
H133 H 0.2289 0.2304 0.3720
H134 H 0.2487 0.1660 0.4091
H135 H 0.2426 0.2211 0.4199
C187 C 0.3846(7) 0.0930(7) 0.4960(5)
C188 C 0.4538(7) 0.1076(7) 0.4560(6)
C189 C 0.3573(7) 0.1535(6) 0.4280(5)
N31 N -0.0112(5) 0.0963(6) 0.5612(4)
N32 N 0.0244(6) 0.1723(5) 0.5675(4)
N33 N 0.1340(6) 0.1408(6) 0.5565(4)
N34 N 0.3725(6) 0.0652(5) 0.5344(5)
N35 N 0.6923(6) 0.3140(5) 0.2880(4)
N36 N 0.5870(6) 0.3360(5) 0.2584(4)
N37 N 0.5487(5) 0.2729(6) 0.3149(5)
N38 N 0.5100(6) 0.1015(5) 0.4508(4)
N39 N 0.2595(9) 0.3437(7) 0.1093(5)
N40 N 0.3608(7) 0.2630(6) 0.1514(5)
N41 N 0.3608(7) 0.2432(5) 0.2284(4)
N42 N 0.3150(5) 0.1902(5) 0.3946(4)
N43 N 0.4423(6) 0.0791(5) 0.4939(4)
N44 N 0.4138(6) 0.1437(5) 0.4221(4)
N45 N 0.3407(5) 0.1303(5) 0.4645(5)
C190 C 0.2856(8) 0.3986(7) 0.5579(6)
H136 H 0.2834 0.4328 0.5615
C191 C 0.2625(9) 0.3621(9) 0.5866(6)
H137 H 0.2459 0.3712 0.6094
C192 C 0.2643(9) 0.3138(9) 0.5815(6)
H138 H 0.2486 0.2889 0.6006
C193 C 0.2894(8) 0.3009(8) 0.5479(6)
C194 C 0.2933(8) 0.2530(8) 0.5374(6)
H139 H 0.2769 0.2272 0.5545
C195 C 0.3178(8) 0.2420(7) 0.5059(6)
H140 H 0.3186 0.2092 0.5007
C196 C 0.3439(6) 0.2800(7) 0.4785(5)
C197 C 0.3705(7) 0.2739(7) 0.4432(6)
H141 H 0.3747 0.2414 0.4363
C198 C 0.3905(6) 0.3153(8) 0.4185(5)
H142 H 0.4076 0.3127 0.3942
C199 C 0.3842(6) 0.3605(7) 0.4311(5)
C200 C 0.3397(6) 0.3278(7) 0.4876(5)
C201 C 0.3144(7) 0.3376(7) 0.5218(5)
C202 C 0.3995(6) 0.4094(8) 0.4053(4)
H143 H 0.4216 0.4076 0.3827
C203 C 0.3964(7) 0.5031(7) 0.3925(4)
C204 C 0.3565(7) 0.5594(8) 0.3868(5)
H144 H 0.3204 0.5651 0.3977
C205 C 0.3690(7) 0.6074(7) 0.3652(5)
H145 H 0.3409 0.6464 0.3605
C206 C 0.4220(7) 0.5992(7) 0.3503(4)
C207 C 0.4623(6) 0.5429(7) 0.3565(4)
H146 H 0.4990 0.5368 0.3464
C208 C 0.4488(6) 0.4951(6) 0.3778(4)
H147 H 0.4766 0.4562 0.3823
C209 C 0.4031(7) 0.7020(6) 0.3407(5)
H148 H 0.3865 0.6893 0.3667
H149 H 0.4313 0.7168 0.3454
H150 H 0.3713 0.7338 0.3180
C210 C 0.7979(10) 0.6905(10) 0.0476(7)
H151 H 0.8082 0.6682 0.0772
C211 C 0.8425(10) 0.6756(11) 0.0208(8)
H152 H 0.8816 0.6467 0.0327
C212 C 0.8263(11) 0.7043(12) -0.0211(8)
H153 H 0.8544 0.6941 -0.0390
C213 C 0.7720(10) 0.7467(10) -0.0388(7)
C214 C 0.7468(11) 0.7808(11) -0.0815(7)
H154 H 0.7731 0.7750 -0.1013
C215 C 0.6912(11) 0.8200(10) -0.0983(7)
H155 H 0.6795 0.8397 -0.1280
C216 C 0.6485(10) 0.8317(9) -0.0689(6)
C217 C 0.5878(10) 0.8703(9) -0.0803(7)
H156 H 0.5708 0.8907 -0.1092
C218 C 0.5528(9) 0.8783(8) -0.0490(7)
H157 H 0.5126 0.9062 -0.0564
C219 C 0.5781(9) 0.8444(9) -0.0072(6)
C220 C 0.6701(9) 0.7994(8) -0.0259(6)
C221 C 0.7301(9) 0.7593(8) -0.0091(7)
C222 C 0.5479(8) 0.8462(8) 0.0277(7)
H158 H 0.5066 0.8696 0.0236
C223 C 0.5488(9) 0.8099(8) 0.1015(6)
C224 C 0.4966(9) 0.8077(8) 0.1015(6)
H159 H 0.4760 0.8120 0.0769
C225 C 0.4738(9) 0.7989(10) 0.1389(7)
H160 H 0.4358 0.7988 0.1389
C226 C 0.5012(10) 0.7905(8) 0.1755(6)
C227 C 0.5528(9) 0.7973(10) 0.1761(6)
H161 H 0.5712 0.7961 0.2004
C228 C 0.5765(8) 0.8063(10) 0.1378(7)
H162 H 0.6127 0.8102 0.1367
C229 C 0.4464(10) 0.8263(8) 0.2277(7)
H163 H 0.4466 0.8630 0.2068
H164 H 0.4057 0.8323 0.2316
H165 H 0.4689 0.8158 0.2547
C230 C 0.6720(7) 0.1803(8) 0.2785(6)
H166 H 0.6616 0.2098 0.2506
C231 C 0.6927(8) 0.1164(10) 0.2859(7)
H167 H 0.6952 0.1041 0.2632
C232 C 0.7077(8) 0.0768(8) 0.3265(7)
H168 H 0.7210 0.0360 0.3319
C233 C 0.7047(6) 0.0923(8) 0.3601(6)
C234 C 0.7181(7) 0.0550(7) 0.4048(6)
H169 H 0.7286 0.0140 0.4124
C235 C 0.7172(8) 0.0723(8) 0.4363(6)
H170 H 0.7290 0.0438 0.4646
C236 C 0.6986(7) 0.1339(8) 0.4275(6)
C237 C 0.6937(8) 0.1579(9) 0.4569(6)
H171 H 0.7033 0.1331 0.4862
C238 C 0.6746(7) 0.2190(9) 0.4435(5)
H172 H 0.6738 0.2359 0.4634
C239 C 0.6565(7) 0.2557(8) 0.4000(6)
C240 C 0.6813(6) 0.1729(8) 0.3835(6)
C241 C 0.6840(6) 0.1545(7) 0.3506(6)
C242 C 0.6328(6) 0.3196(7) 0.3804(6)
H173 H 0.6342 0.3421 0.3958
C243 C 0.5906(7) 0.4059(7) 0.3192(5)
C244 C 0.6291(6) 0.4315(7) 0.3174(5)
H174 H 0.6669 0.4096 0.3342
C245 C 0.6106(7) 0.4910(8) 0.2899(5)
H175 H 0.6365 0.5093 0.2890
C246 C 0.5581(8) 0.5238(7) 0.2648(5)
C247 C 0.5205(6) 0.4976(7) 0.2678(4)
H176 H 0.4827 0.5197 0.2510
C248 C 0.5365(7) 0.4392(7) 0.2952(5)
H177 H 0.5093 0.4221 0.2972
C249 C 0.5772(7) 0.5907(6) 0.2009(5)
H178 H 0.5952 0.5538 0.1963
H179 H 0.5515 0.6228 0.1750
H180 H 0.6081 0.6008 0.2081
C250 C 0.4593(7) 0.6596(8) 0.2934(5)
C251 C 0.4778(8) 0.7235(7) 0.2372(6)
C252 C 0.5128(6) 0.6271(7) 0.2481(5)
N46 N 0.3100(5) 0.3875(6) 0.5260(4)
N47 N 0.3586(5) 0.3669(5) 0.4632(4)
N48 N 0.3812(5) 0.4549(6) 0.4153(3)
N49 N 0.4332(5) 0.6513(5) 0.3288(4)
N50 N 0.7453(8) 0.7322(8) 0.0333(6)
N51 N 0.6349(8) 0.8067(6) 0.0045(4)
N52 N 0.5778(6) 0.8150(6) 0.0653(6)
N53 N 0.4735(7) 0.7782(6) 0.2130(5)
N54 N 0.6681(5) 0.1954(5) 0.3105(5)
N55 N 0.6623(5) 0.2316(6) 0.3718(4)
N56 N 0.6099(5) 0.3451(6) 0.3411(4)
N57 N 0.5427(5) 0.5827(6) 0.2351(4)
N58 N 0.4537(6) 0.7158(6) 0.2727(5)
N59 N 0.5082(5) 0.6814(7) 0.2233(4)
N60 N 0.4871(5) 0.6149(5) 0.2820(4)
C268? C 0.3909(11) 0.7442(13) 0.4593(9)
S6? S 0.3188(8) 0.7542(9) 0.4319(7)
F16? F 0.4349(16) 0.731(2) 0.4366(14)
F17? F 0.4046(17) 0.6974(16) 0.4962(11)
F18? F 0.390(2) 0.7883(18) 0.4690(17)
O17? O 0.2747(14) 0.7758(18) 0.4538(11)
O18? O 0.317(2) 0.7996(18) 0.3893(10)
O19? O 0.3254(11) 0.7046(11) 0.4261(8)
C269? C 0.3594(17) 0.7642(19) 0.4379(12)
S7? S 0.2898(15) 0.7988(17) 0.3887(11)
F19? F 0.4082(18) 0.743(3) 0.4228(17)
F20? F 0.351(2) 0.7241(17) 0.4686(12)
F21? F 0.358(3) 0.805(2) 0.4504(19)
O20? O 0.245(2) 0.837(3) 0.403(2)
O21? O 0.313(3) 0.824(3) 0.3530(14)
O22? O 0.290(3) 0.742(2) 0.396(2)
C270? C 0.2917(3) 0.4435(4) 0.2838(3)
S8? S 0.3667(3) 0.4493(4) 0.3013(3)
F22? F 0.2472(3) 0.4690(7) 0.3013(4)
F23? F 0.3003(5) 0.3875(4) 0.2956(5)
F24? F 0.2757(5) 0.4699(6) 0.2425(3)
O23? O 0.3465(5) 0.4782(6) 0.3292(3)
O24? O 0.4067(4) 0.3885(4) 0.3200(4)
O25? O 0.3768(5) 0.4835(6) 0.2617(3)
loop_
_geom_bond_atom_site_label_1
_geom_bond_atom_site_label_2
_geom_bond_site_symmetry_1
_geom_bond_site_symmetry_2
Co1 N1 1_555 1_555
Co2 N35 1_555 1_555
Co3 N20 1_555 1_555
Co4 N5 1_555 1_555
Co5 N9 1_555 1_555
Co6 N16 1_555 1_555
C1 H1 1_555 1_555
C2 C1 1_555 1_555
H2 C2 1_555 1_555
C3 C2 1_555 1_555
H3 C3 1_555 1_555
C4 C3 1_555 1_555
C5 C4 1_555 1_555
H4 C5 1_555 1_555
C6 C5 1_555 1_555
H5 C6 1_555 1_555
C7 C6 1_555 1_555
C8 C7 1_555 1_555
H6 C8 1_555 1_555
C9 C8 1_555 1_555
H7 C9 1_555 1_555
C10 C9 1_555 1_555
C11 C7 1_555 1_555
C12 C4 1_555 1_555
C13 C10 1_555 1_555
H8 C13 1_555 1_555
C14 C15 1_555 1_555
C15 H9 1_555 1_555
C16 C15 1_555 1_555
H10 C16 1_555 1_555
C17 C16 1_555 1_555
C18 C17 1_555 1_555
H11 C18 1_555 1_555
C19 C14 1_555 1_555
H12 C19 1_555 1_555
C20 H13 1_555 1_555
H14 C20 1_555 1_555
H15 C20 1_555 1_555
C21 H16 1_555 1_555
C22 C21 1_555 1_555
H17 C22 1_555 1_555
C23 C22 1_555 1_555
H18 C23 1_555 1_555
C24 C23 1_555 1_555
C25 C24 1_555 1_555
H19 C25 1_555 1_555
C26 C25 1_555 1_555
H20 C26 1_555 1_555
C27 C26 1_555 1_555
C28 C27 1_555 1_555
H21 C28 1_555 1_555
C29 C28 1_555 1_555
H22 C29 1_555 1_555
C30 C29 1_555 1_555
C31 C27 1_555 1_555
C32 C24 1_555 1_555
C33 C30 1_555 1_555
H23 C33 1_555 1_555
C34 C35 1_555 1_555
C35 H24 1_555 1_555
C36 C35 1_555 1_555
H25 C36 1_555 1_555
C37 C36 1_555 1_555
C38 C37 1_555 1_555
H26 C38 1_555 1_555
C39 C34 1_555 1_555
H27 C39 1_555 1_555
C40 H28 1_555 1_555
H29 C40 1_555 1_555
H30 C40 1_555 1_555
C41 H31 1_555 1_555
C42 C41 1_555 1_555
H32 C42 1_555 1_555
C43 C42 1_555 1_555
H33 C43 1_555 1_555
C44 C43 1_555 1_555
C45 C44 1_555 1_555
H34 C45 1_555 1_555
C46 C45 1_555 1_555
H35 C46 1_555 1_555
C47 C46 1_555 1_555
C48 C47 1_555 1_555
H36 C48 1_555 1_555
C49 C48 1_555 1_555
H37 C49 1_555 1_555
C50 C49 1_555 1_555
C51 C47 1_555 1_555
C52 C44 1_555 1_555
C53 C50 1_555 1_555
H38 C53 1_555 1_555
C54 C55 1_555 1_555
C55 H39 1_555 1_555
C56 C55 1_555 1_555
H40 C56 1_555 1_555
C57 C56 1_555 1_555
C58 C57 1_555 1_555
H41 C58 1_555 1_555
C59 C54 1_555 1_555
H42 C59 1_555 1_555
C60 H43 1_555 1_555
H44 C60 1_555 1_555
H45 C60 1_555 1_555
C61 N4 1_555 1_555
C62 N8 1_555 1_555
C63 N12 1_555 1_555
N1 C1 1_555 1_555
N2 Co1 1_555 1_555
N3 Co1 1_555 1_555
N4 C17 1_555 1_555
N5 C21 1_555 1_555
N6 Co4 1_555 1_555
N7 Co4 1_555 1_555
N8 C37 1_555 1_555
N9 C41 1_555 1_555
N10 Co5 1_555 1_555
N11 Co5 1_555 1_555
N12 C57 1_555 1_555
N13 C61 1_555 1_555
N14 C62 1_555 1_555
N15 C61 1_555 1_555
C64 H46 1_555 1_555
C65 C64 1_555 1_555
H47 C65 1_555 1_555
C66 C65 1_555 1_555
H48 C66 1_555 1_555
C67 C66 1_555 1_555
C68 C67 1_555 1_555
H49 C68 1_555 1_555
C69 C68 1_555 1_555
H50 C69 1_555 1_555
C70 C69 1_555 1_555
C71 C70 1_555 1_555
H51 C71 1_555 1_555
C72 C71 1_555 1_555
H52 C72 1_555 1_555
C73 C72 1_555 1_555
C74 C70 1_555 1_555
C75 C67 1_555 1_555
C76 C73 1_555 1_555
H53 C76 1_555 1_555
C77 C78 1_555 1_555
C78 H54 1_555 1_555
C79 C78 1_555 1_555
H55 C79 1_555 1_555
C80 C79 1_555 1_555
C81 C80 1_555 1_555
H56 C81 1_555 1_555
C82 C77 1_555 1_555
H57 C82 1_555 1_555
C83 H58 1_555 1_555
H59 C83 1_555 1_555
H60 C83 1_555 1_555
C84 H61 1_555 1_555
C85 C84 1_555 1_555
H62 C85 1_555 1_555
C86 C85 1_555 1_555
H63 C86 1_555 1_555
C87 C86 1_555 1_555
C88 C87 1_555 1_555
H64 C88 1_555 1_555
C89 C88 1_555 1_555
H65 C89 1_555 1_555
C90 C89 1_555 1_555
C91 C90 1_555 1_555
H66 C91 1_555 1_555
C92 C91 1_555 1_555
H67 C92 1_555 1_555
C93 C92 1_555 1_555
C94 C90 1_555 1_555
C95 C87 1_555 1_555
C96 C93 1_555 1_555
H68 C96 1_555 1_555
C97 C98 1_555 1_555
C98 H69 1_555 1_555
C99 C98 1_555 1_555
H70 C99 1_555 1_555
C100 C99 1_555 1_555
C101 C100 1_555 1_555
H71 C101 1_555 1_555
C102 C97 1_555 1_555
H72 C102 1_555 1_555
C103 H73 1_555 1_555
H74 C103 1_555 1_555
H75 C103 1_555 1_555
C104 H76 1_555 1_555
C105 C104 1_555 1_555
H77 C105 1_555 1_555
C106 C105 1_555 1_555
H78 C106 1_555 1_555
C107 C106 1_555 1_555
C108 C107 1_555 1_555
H79 C108 1_555 1_555
C109 C108 1_555 1_555
H80 C109 1_555 1_555
C110 C109 1_555 1_555
C111 C110 1_555 1_555
H81 C111 1_555 1_555
C112 C111 1_555 1_555
H82 C112 1_555 1_555
C113 C112 1_555 1_555
C114 C110 1_555 1_555
C115 C107 1_555 1_555
C116 C113 1_555 1_555
H83 C116 1_555 1_555
C117 C118 1_555 1_555
C118 H84 1_555 1_555
C119 C118 1_555 1_555
H85 C119 1_555 1_555
C120 C119 1_555 1_555
C121 C120 1_555 1_555
H86 C121 1_555 1_555
C122 C117 1_555 1_555
H87 C122 1_555 1_555
C123 H88 1_555 1_555
H89 C123 1_555 1_555
H90 C123 1_555 1_555
C124 N19 1_555 1_555
C125 N23 1_555 1_555
C126 N27 1_555 1_555
N16 C64 1_555 1_555
N17 Co6 1_555 1_555
N18 Co6 1_555 1_555
N19 C80 1_555 1_555
N20 C84 1_555 1_555
N21 Co3 1_555 1_555
N22 Co3 1_555 1_555
N23 C100 1_555 1_555
N24 Co4 1_555 1_555
N25 Co4 1_555 1_555
N26 Co4 1_555 1_555
N27 C120 1_555 1_555
N28 C124 1_555 1_555
N29 C125 1_555 1_555
N30 C124 1_555 1_555
C127 H91 1_555 1_555
C128 C127 1_555 1_555
H92 C128 1_555 1_555
C129 C128 1_555 1_555
H93 C129 1_555 1_555
C130 C129 1_555 1_555
C131 C130 1_555 1_555
H94 C131 1_555 1_555
C132 C131 1_555 1_555
H95 C132 1_555 1_555
C133 C132 1_555 1_555
C134 C133 1_555 1_555
H96 C134 1_555 1_555
C135 C134 1_555 1_555
H97 C135 1_555 1_555
C136 C135 1_555 1_555
C137 C133 1_555 1_555
C138 C130 1_555 1_555
C139 C136 1_555 1_555
H98 C139 1_555 1_555
C140 C141 1_555 1_555
C141 H99 1_555 1_555
C142 C141 1_555 1_555
H100 C142 1_555 1_555
C143 C142 1_555 1_555
C144 C143 1_555 1_555
H101 C144 1_555 1_555
C145 C140 1_555 1_555
H102 C145 1_555 1_555
C146 H103 1_555 1_555
H104 C146 1_555 1_555
H105 C146 1_555 1_555
C147 H106 1_555 1_555
C148 C147 1_555 1_555
H107 C148 1_555 1_555
C149 C148 1_555 1_555
H108 C149 1_555 1_555
C150 C149 1_555 1_555
C151 C150 1_555 1_555
H109 C151 1_555 1_555
C152 C151 1_555 1_555
H110 C152 1_555 1_555
C153 C152 1_555 1_555
C154 C153 1_555 1_555
H111 C154 1_555 1_555
C155 C154 1_555 1_555
H112 C155 1_555 1_555
C156 C155 1_555 1_555
C157 C153 1_555 1_555
C158 C150 1_555 1_555
C159 C156 1_555 1_555
H113 C159 1_555 1_555
C160 C161 1_555 1_555
C161 H114 1_555 1_555
C162 C161 1_555 1_555
H115 C162 1_555 1_555
C163 C162 1_555 1_555
C164 C163 1_555 1_555
H116 C164 1_555 1_555
C165 C160 1_555 1_555
H117 C165 1_555 1_555
C166 H118 1_555 1_555
H119 C166 1_555 1_555
H120 C166 1_555 1_555
C167 H121 1_555 1_555
C168 C167 1_555 1_555
H122 C168 1_555 1_555
C169 C168 1_555 1_555
H123 C169 1_555 1_555
C170 C169 1_555 1_555
C171 C170 1_555 1_555
H124 C171 1_555 1_555
C172 C171 1_555 1_555
H125 C172 1_555 1_555
C173 C172 1_555 1_555
C174 C173 1_555 1_555
H126 C174 1_555 1_555
C175 C174 1_555 1_555
H127 C175 1_555 1_555
C176 C175 1_555 1_555
C177 C173 1_555 1_555
C178 C170 1_555 1_555
C179 C176 1_555 1_555
H128 C179 1_555 1_555
C180 C181 1_555 1_555
C181 H129 1_555 1_555
C182 C181 1_555 1_555
H130 C182 1_555 1_555
C183 C182 1_555 1_555
C184 C183 1_555 1_555
H131 C184 1_555 1_555
C185 C180 1_555 1_555
H132 C185 1_555 1_555
C186 H133 1_555 1_555
H134 C186 1_555 1_555
H135 C186 1_555 1_555
C187 N34 1_555 1_555
C188 N38 1_555 1_555
C189 N42 1_555 1_555
N31 Co1 1_555 1_555
N32 Co1 1_555 1_555
N33 Co1 1_555 1_555
N34 C143 1_555 1_555
N35 C147 1_555 1_555
N36 Co2 1_555 1_555
N37 Co2 1_555 1_555
N38 C163 1_555 1_555
N39 Co6 1_555 1_555
N40 Co6 1_555 1_555
N41 Co6 1_555 1_555
N42 C183 1_555 1_555
N43 C187 1_555 1_555
N44 C188 1_555 1_555
N45 C187 1_555 1_555
C190 H136 1_555 1_555
C191 C190 1_555 1_555
H137 C191 1_555 1_555
C192 C191 1_555 1_555
H138 C192 1_555 1_555
C193 C192 1_555 1_555
C194 C193 1_555 1_555
H139 C194 1_555 1_555
C195 C194 1_555 1_555
H140 C195 1_555 1_555
C196 C195 1_555 1_555
C197 C196 1_555 1_555
H141 C197 1_555 1_555
C198 C197 1_555 1_555
H142 C198 1_555 1_555
C199 C198 1_555 1_555
C200 C196 1_555 1_555
C201 C193 1_555 1_555
C202 C199 1_555 1_555
H143 C202 1_555 1_555
C203 C204 1_555 1_555
C204 H144 1_555 1_555
C205 C204 1_555 1_555
H145 C205 1_555 1_555
C206 C205 1_555 1_555
C207 C206 1_555 1_555
H146 C207 1_555 1_555
C208 C203 1_555 1_555
H147 C208 1_555 1_555
C209 H148 1_555 1_555
H149 C209 1_555 1_555
H150 C209 1_555 1_555
C210 H151 1_555 1_555
C211 C210 1_555 1_555
H152 C211 1_555 1_555
C212 C211 1_555 1_555
H153 C212 1_555 1_555
C213 C212 1_555 1_555
C214 C213 1_555 1_555
H154 C214 1_555 1_555
C215 C214 1_555 1_555
H155 C215 1_555 1_555
C216 C215 1_555 1_555
C217 C216 1_555 1_555
H156 C217 1_555 1_555
C218 C217 1_555 1_555
H157 C218 1_555 1_555
C219 C218 1_555 1_555
C220 C216 1_555 1_555
C221 C213 1_555 1_555
C222 C219 1_555 1_555
H158 C222 1_555 1_555
C223 C224 1_555 1_555
C224 H159 1_555 1_555
C225 C224 1_555 1_555
H160 C225 1_555 1_555
C226 C225 1_555 1_555
C227 C226 1_555 1_555
H161 C227 1_555 1_555
C228 C223 1_555 1_555
H162 C228 1_555 1_555
C229 H163 1_555 1_555
H164 C229 1_555 1_555
H165 C229 1_555 1_555
C230 H166 1_555 1_555
C231 C230 1_555 1_555
H167 C231 1_555 1_555
C232 C231 1_555 1_555
H168 C232 1_555 1_555
C233 C232 1_555 1_555
C234 C233 1_555 1_555
H169 C234 1_555 1_555
C235 C234 1_555 1_555
H170 C235 1_555 1_555
C236 C235 1_555 1_555
C237 C236 1_555 1_555
H171 C237 1_555 1_555
C238 C237 1_555 1_555
H172 C238 1_555 1_555
C239 C238 1_555 1_555
C240 C236 1_555 1_555
C241 C233 1_555 1_555
C242 C239 1_555 1_555
H173 C242 1_555 1_555
C243 C244 1_555 1_555
C244 H174 1_555 1_555
C245 C244 1_555 1_555
H175 C245 1_555 1_555
C246 C245 1_555 1_555
C247 C246 1_555 1_555
H176 C247 1_555 1_555
C248 C243 1_555 1_555
H177 C248 1_555 1_555
C249 H178 1_555 1_555
H179 C249 1_555 1_555
H180 C249 1_555 1_555
C250 N49 1_555 1_555
C251 N53 1_555 1_555
C252 N57 1_555 1_555
N46 Co5 1_555 1_555
N47 Co5 1_555 1_555
N48 Co5 1_555 1_555
N49 C206 1_555 1_555
N50 Co3 1_555 1_555
N51 Co3 1_555 1_555
N52 Co3 1_555 1_555
N53 C226 1_555 1_555
N54 Co2 1_555 1_555
N55 Co2 1_555 1_555
N56 Co2 1_555 1_555
N57 C246 1_555 1_555
N58 C250 1_555 1_555
N59 C251 1_555 1_555
N60 C250 1_555 1_555
B1 H181 1_555 1_555
B2 B1 1_555 1_555
H182 B2 1_555 1_555
B3 B1 1_555 1_555
H183 B3 1_555 1_555
B4 B1 1_555 1_555
H184 B4 1_555 1_555
B5 B1 1_555 1_555
H185 B5 1_555 1_555
B6 B1 1_555 1_555
H186 B6 1_555 1_555
B7 B2 1_555 1_555
H187 B7 1_555 1_555
B8 B3 1_555 1_555
H188 B8 1_555 1_555
B9 B4 1_555 1_555
H189 B9 1_555 1_555
B10 B5 1_555 1_555
H190 B10 1_555 1_555
B11 B2 1_555 1_555
H191 B11 1_555 1_555
B12 B7 1_555 1_555
H192 B12 1_555 1_555
B13 H193 1_555 1_555
B14 B13 1_555 1_555
H194 B14 1_555 1_555
B15 B13 1_555 1_555
H195 B15 1_555 1_555
B16 B13 1_555 1_555
H196 B16 1_555 1_555
B17 B13 1_555 1_555
H197 B17 1_555 1_555
B18 B13 1_555 1_555
H198 B18 1_555 1_555
B19 B14 1_555 1_555
H199 B19 1_555 1_555
B20 B15 1_555 1_555
H200 B20 1_555 1_555
B21 B16 1_555 1_555
H201 B21 1_555 1_555
B22 B17 1_555 1_555
H202 B22 1_555 1_555
B23 B14 1_555 1_555
H203 B23 1_555 1_555
B24 B19 1_555 1_555
H204 B24 1_555 1_555
B25 H205 1_555 1_555
B26 B25 1_555 1_555
H206 B26 1_555 1_555
B27 B25 1_555 1_555
H207 B27 1_555 1_555
B28 B25 1_555 1_555
H208 B28 1_555 1_555
B29 B25 1_555 1_555
H209 B29 1_555 1_555
B30 B25 1_555 1_555
H210 B30 1_555 1_555
B31 B26 1_555 1_555
H211 B31 1_555 1_555
B32 B27 1_555 1_555
H212 B32 1_555 1_555
B33 B28 1_555 1_555
H213 B33 1_555 1_555
B34 B29 1_555 1_555
H214 B34 1_555 1_555
B35 B26 1_555 1_555
H215 B35 1_555 1_555
B36 B31 1_555 1_555
H216 B36 1_555 1_555
B37 H217 1_555 1_555
B38 B37 1_555 1_555
H218 B38 1_555 1_555
B39 B37 1_555 1_555
H219 B39 1_555 1_555
B40 B37 1_555 1_555
H220 B40 1_555 1_555
B41 B37 1_555 1_555
H221 B41 1_555 1_555
B42 B37 1_555 1_555
H222 B42 1_555 1_555
B43 B38 1_555 1_555
H223 B43 1_555 1_555
B44 B39 1_555 1_555
H224 B44 1_555 1_555
B45 B40 1_555 1_555
H225 B45 1_555 1_555
B46 B41 1_555 1_555
H226 B46 1_555 1_555
B47 B38 1_555 1_555
H227 B47 1_555 1_555
B48 B43 1_555 1_555
H228 B48 1_555 1_555
B49 H229 1_555 1_555
B50 B49 1_555 1_555
H230 B50 1_555 1_555
B51 B49 1_555 1_555
H231 B51 1_555 1_555
B52 B49 1_555 1_555
H232 B52 1_555 1_555
B53 B49 1_555 1_555
H233 B53 1_555 1_555
B54 B49 1_555 1_555
H234 B54 1_555 1_555
B55 B50 1_555 1_555
H235 B55 1_555 1_555
B56 B51 1_555 1_555
H236 B56 1_555 1_555
B57 B52 1_555 1_555
H237 B57 1_555 1_555
B58 B53 1_555 1_555
H238 B58 1_555 1_555
B59 B50 1_555 1_555
H239 B59 1_555 1_555
B60 B55 1_555 1_555
H240 B60 1_555 1_555
B61 H241 1_555 1_555
B62 B61 1_555 1_555
H242 B62 1_555 1_555
B63 B61 1_555 1_555
H243 B63 1_555 1_555
B64 B61 1_555 1_555
H244 B64 1_555 1_555
B65 B61 1_555 1_555
H245 B65 1_555 1_555
B66 B62 1_555 1_555
H246 B66 1_555 1_555
B67 B63 1_555 1_555
H247 B67 1_555 1_555
B68 B63 1_555 1_555
H248 B68 1_555 1_555
B69 B64 1_555 1_555
H249 B69 1_555 1_555
B70 B62 1_555 1_555
H250 B70 1_555 1_555
B71 B66 1_555 1_555
H251 B71 1_555 1_555
B72 B61 1_555 1_555
H252 B72 1_555 1_555
C253 S1 1_555 1_555
S1 O1 1_555 1_555
F1 C253 1_555 1_555
F2 C253 1_555 1_555
F3 C253 1_555 1_555
O2 S1 1_555 1_555
O3 S1 1_555 1_555
C254 S2 1_555 1_555
S2 O4 1_555 1_555
F4 C254 1_555 1_555
F5 C254 1_555 1_555
F6 C254 1_555 1_555
O5 S2 1_555 1_555
O6 S2 1_555 1_555
C255 S3 1_555 1_555
S3 O7 1_555 1_555
F7 C255 1_555 1_555
F8 C255 1_555 1_555
F9 C255 1_555 1_555
O8 S3 1_555 1_555
O9 S3 1_555 1_555
C256 S4 1_555 1_555
S4 O10 1_555 1_555
F10 C256 1_555 1_555
F11 C256 1_555 1_555
F12 C256 1_555 1_555
O11 S4 1_555 1_555
O12 S4 1_555 1_555
S5 C257 1_555 1_555
C257 F13 1_555 1_555
F14 C257 1_555 1_555
F15 C257 1_555 1_555
O13 S5 1_555 1_555
O14 S5 1_555 1_555
O15 S5 1_555 1_555
N61 C258 1_555 1_555
C258 C259 1_555 1_555
C259 H253 1_555 1_555
H254 C259 1_555 1_555
H255 C259 1_555 1_555
N62 C260 1_555 1_555
C260 C261 1_555 1_555
C261 H256 1_555 1_555
H257 C261 1_555 1_555
H258 C261 1_555 1_555
N63 C262 1_555 1_555
C262 C263 1_555 1_555
C263 H259 1_555 1_555
H260 C263 1_555 1_555
H261 C263 1_555 1_555
O16 C265 1_555 1_555
C264 H262 1_555 1_555
H263 C264 1_555 1_555
H264 C264 1_555 1_555
C265 C264 1_555 1_555
H265 C265 1_555 1_555
H266 C265 1_555 1_555
C266 O16 1_555 1_555
H267 C266 1_555 1_555
H268 C266 1_555 1_555
C267 C266 1_555 1_555
H269 C267 1_555 1_555
H270 C267 1_555 1_555
H271 C267 1_555 1_555
C10 N2 1_555 1_555
C11 C12 1_555 1_555
C11 N2 1_555 1_555
C12 N1 1_555 1_555
C13 N3 1_555 1_555
C14 N3 1_555 1_555
C18 C19 1_555 1_555
C20 N4 1_555 1_555
C30 N6 1_555 1_555
C31 C32 1_555 1_555
C31 N6 1_555 1_555
C32 N5 1_555 1_555
C33 N7 1_555 1_555
C34 N7 1_555 1_555
C38 C39 1_555 1_555
C40 N8 1_555 1_555
C50 N10 1_555 1_555
C51 C52 1_555 1_555
C51 N10 1_555 1_555
C52 N9 1_555 1_555
C53 N11 1_555 1_555
C54 N11 1_555 1_555
C58 C59 1_555 1_555
C60 N12 1_555 1_555
C62 N13 1_555 1_555
C63 N14 1_555 1_555
C63 N15 1_555 1_555
C73 N17 1_555 1_555
C74 C75 1_555 1_555
C74 N17 1_555 1_555
C75 N16 1_555 1_555
C76 N18 1_555 1_555
C77 N18 1_555 1_555
C81 C82 1_555 1_555
C83 N19 1_555 1_555
C93 N21 1_555 1_555
C94 C95 1_555 1_555
C94 N21 1_555 1_555
C95 N20 1_555 1_555
C96 N22 1_555 1_555
C97 N22 1_555 1_555
C101 C102 1_555 1_555
C103 N23 1_555 1_555
C104 N24 1_555 1_555
C113 N25 1_555 1_555
C114 C115 1_555 1_555
C114 N25 1_555 1_555
C115 N24 1_555 1_555
C116 N26 1_555 1_555
C117 N26 1_555 1_555
C121 C122 1_555 1_555
C123 N27 1_555 1_555
C125 N28 1_555 1_555
C126 N29 1_555 1_555
C126 N30 1_555 1_555
C127 N31 1_555 1_555
C136 N32 1_555 1_555
C137 C138 1_555 1_555
C137 N32 1_555 1_555
C138 N31 1_555 1_555
C139 N33 1_555 1_555
C140 N33 1_555 1_555
C144 C145 1_555 1_555
C146 N34 1_555 1_555
C156 N36 1_555 1_555
C157 C158 1_555 1_555
C157 N36 1_555 1_555
C158 N35 1_555 1_555
C159 N37 1_555 1_555
C160 N37 1_555 1_555
C164 C165 1_555 1_555
C166 N38 1_555 1_555
C167 N39 1_555 1_555
C176 N40 1_555 1_555
C177 C178 1_555 1_555
C177 N40 1_555 1_555
C178 N39 1_555 1_555
C179 N41 1_555 1_555
C180 N41 1_555 1_555
C184 C185 1_555 1_555
C186 N42 1_555 1_555
C188 N43 1_555 1_555
C189 N44 1_555 1_555
C189 N45 1_555 1_555
C190 N46 1_555 1_555
C199 N47 1_555 1_555
C200 C201 1_555 1_555
C200 N47 1_555 1_555
C201 N46 1_555 1_555
C202 N48 1_555 1_555
C203 N48 1_555 1_555
C207 C208 1_555 1_555
C209 N49 1_555 1_555
C210 N50 1_555 1_555
C219 N51 1_555 1_555
C220 C221 1_555 1_555
C220 N51 1_555 1_555
C221 N50 1_555 1_555
C222 N52 1_555 1_555
C223 N52 1_555 1_555
C227 C228 1_555 1_555
C229 N53 1_555 1_555
C230 N54 1_555 1_555
C239 N55 1_555 1_555
C240 C241 1_555 1_555
C240 N55 1_555 1_555
C241 N54 1_555 1_555
C242 N56 1_555 1_555
C243 N56 1_555 1_555
C247 C248 1_555 1_555
C249 N57 1_555 1_555
C251 N58 1_555 1_555
C252 N59 1_555 1_555
C252 N60 1_555 1_555
B2 B3 1_555 1_555
B2 B6 1_555 1_555
B3 B4 1_555 1_555
B3 B7 1_555 1_555
B4 B5 1_555 1_555
B4 B8 1_555 1_555
B5 B6 1_555 1_555
B5 B9 1_555 1_555
B6 B10 1_555 1_555
B6 B11 1_555 1_555
B7 B8 1_555 1_555
B7 B11 1_555 1_555
B8 B9 1_555 1_555
B8 B12 1_555 1_555
B9 B10 1_555 1_555
B9 B12 1_555 1_555
B10 B11 1_555 1_555
B10 B12 1_555 1_555
B11 B12 1_555 1_555
B14 B15 1_555 1_555
B14 B18 1_555 1_555
B15 B16 1_555 1_555
B15 B19 1_555 1_555
B16 B17 1_555 1_555
B16 B20 1_555 1_555
B17 B18 1_555 1_555
B17 B21 1_555 1_555
B18 B22 1_555 1_555
B18 B23 1_555 1_555
B19 B20 1_555 1_555
B19 B23 1_555 1_555
B20 B21 1_555 1_555
B20 B24 1_555 1_555
B21 B22 1_555 1_555
B21 B24 1_555 1_555
B22 B23 1_555 1_555
B22 B24 1_555 1_555
B23 B24 1_555 1_555
B26 B27 1_555 1_555
B26 B30 1_555 1_555
B27 B28 1_555 1_555
B27 B31 1_555 1_555
B28 B29 1_555 1_555
B28 B32 1_555 1_555
B29 B30 1_555 1_555
B29 B33 1_555 1_555
B30 B34 1_555 1_555
B30 B35 1_555 1_555
B31 B32 1_555 1_555
B31 B35 1_555 1_555
B32 B33 1_555 1_555
B32 B36 1_555 1_555
B33 B34 1_555 1_555
B33 B36 1_555 1_555
B34 B35 1_555 1_555
B34 B36 1_555 1_555
B35 B36 1_555 1_555
B38 B39 1_555 1_555
B38 B42 1_555 1_555
B39 B40 1_555 1_555
B39 B43 1_555 1_555
B40 B41 1_555 1_555
B40 B44 1_555 1_555
B41 B42 1_555 1_555
B41 B45 1_555 1_555
B42 B46 1_555 1_555
B42 B47 1_555 1_555
B43 B44 1_555 1_555
B43 B47 1_555 1_555
B44 B45 1_555 1_555
B44 B48 1_555 1_555
B45 B46 1_555 1_555
B45 B48 1_555 1_555
B46 B47 1_555 1_555
B46 B48 1_555 1_555
B47 B48 1_555 1_555
B50 B51 1_555 1_555
B50 B54 1_555 1_555
B51 B52 1_555 1_555
B51 B55 1_555 1_555
B52 B53 1_555 1_555
B52 B56 1_555 1_555
B53 B54 1_555 1_555
B53 B57 1_555 1_555
B54 B58 1_555 1_555
B54 B59 1_555 1_555
B55 B56 1_555 1_555
B55 B59 1_555 1_555
B56 B57 1_555 1_555
B56 B60 1_555 1_555
B57 B58 1_555 1_555
B57 B60 1_555 1_555
B58 B59 1_555 1_555
B58 B60 1_555 1_555
B59 B60 1_555 1_555
B62 B65 1_555 1_555
B62 B72 1_555 1_555
B63 B64 1_555 1_555
B63 B72 1_555 1_555
B64 B65 1_555 1_555
B64 B68 1_555 1_555
B65 B69 1_555 1_555
B65 B70 1_555 1_555
B66 B67 1_555 1_555
B66 B70 1_555 1_555
B66 B72 1_555 1_555
B67 B68 1_555 1_555
B67 B71 1_555 1_555
B67 B72 1_555 1_555
B68 B69 1_555 1_555
B68 B71 1_555 1_555
B69 B70 1_555 1_555
B69 B71 1_555 1_555
B70 B71 1_555 1_555

#END
