# generated using pymatgen
data_Co6B72H271C270S8N63O25F24
_symmetry_space_group_name_H-M   'P 1'
_cell_length_a   25.03030000
_cell_length_b   26.75920000
_cell_length_c   34.55140000
_cell_angle_alpha   68.11300000
_cell_angle_beta   88.80920000
_cell_angle_gamma   66.51540000
_symmetry_Int_Tables_number   1
_chemical_formula_structural   Co6B72H271C270S8N63O25F24
_chemical_formula_sum   'Co12 B144 H542 C540 S16 N126 O50 F48'
_cell_volume   19472.14958784
_cell_formula_units_Z   2
loop_
 _symmetry_equiv_pos_site_id
 _symmetry_equiv_pos_as_xyz
  1  'x, y, z'
loop_
 _atom_site_type_symbol
 _atom_site_label
 _atom_site_symmetry_multiplicity
 _atom_site_fract_x
 _atom_site_fract_y
 _atom_site_fract_z
 _atom_site_occupancy
  Co  Co1  1  0.074950  0.096680  0.560000  1
  Co  Co2  1  0.925050  0.903320  0.440000  1
  Co  Co3  1  0.629070  0.282360  0.313000  1
  Co  Co4  1  0.370930  0.717640  0.687000  1
  Co  Co5  1  0.672060  0.769530  0.064880  1
  Co  Co6  1  0.327940  0.230470  0.935120  1
  Co  Co7  1  0.154970  0.698350  0.176670  1
  Co  Co8  1  0.845030  0.301650  0.823330  1
  Co  Co9  1  0.338580  0.440590  0.472750  1
  Co  Co10  1  0.661420  0.559410  0.527250  1
  Co  Co11  1  0.292230  0.304720  0.176320  1
  Co  Co12  1  0.707770  0.695280  0.823680  1
  B  B13  1  0.394700  0.760300  0.003800  1
  B  B14  1  0.605300  0.239700  0.996200  1
  B  B15  1  0.344800  0.790100  0.958800  1
  B  B16  1  0.655200  0.209900  0.041200  1
  B  B17  1  0.324000  0.807900  0.001500  1
  B  B18  1  0.676000  0.192100  0.998500  1
  B  B19  1  0.377900  0.816800  0.023700  1
  B  B20  1  0.622100  0.183200  0.976300  1
  B  B21  1  0.436400  0.803400  0.993300  1
  B  B22  1  0.563600  0.196600  0.006700  1
  B  B23  1  0.415100  0.785900  0.953500  1
  B  B24  1  0.584900  0.214100  0.046500  1
  B  B25  1  0.299100  0.863000  0.950400  1
  B  B26  1  0.700900  0.137000  0.049600  1
  B  B27  1  0.318600  0.881000  0.990200  1
  B  B28  1  0.681400  0.119000  0.009800  1
  B  B29  1  0.391700  0.874100  0.984500  1
  B  B30  1  0.608300  0.125900  0.015500  1
  B  B31  1  0.411100  0.855400  0.944700  1
  B  B32  1  0.588900  0.144600  0.055300  1
  B  B33  1  0.354300  0.850700  0.920000  1
  B  B34  1  0.645700  0.149300  0.080000  1
  B  B35  1  0.338600  0.905300  0.939900  1
  B  B36  1  0.661400  0.094700  0.060100  1
  B  B37  1  0.232800  0.960500  0.428800  1
  B  B38  1  0.767200  0.039500  0.571200  1
  B  B39  1  0.182400  0.029500  0.392900  1
  B  B40  1  0.817600  0.970500  0.607100  1
  B  B41  1  0.231800  0.024500  0.430000  1
  B  B42  1  0.768200  0.975500  0.570000  1
  B  B43  1  0.299700  0.967600  0.437300  1
  B  B44  1  0.700300  0.032400  0.562700  1
  B  B45  1  0.292300  0.935600  0.401600  1
  B  B46  1  0.707700  0.064400  0.598400  1
  B  B47  1  0.219400  0.972900  0.375800  1
  B  B48  1  0.780600  0.027100  0.624200  1
  B  B49  1  0.217800  0.076600  0.378100  1
  B  B50  1  0.782200  0.923400  0.621900  1
  B  B51  1  0.290100  0.040000  0.405200  1
  B  B52  1  0.709900  0.960000  0.594800  1
  B  B53  1  0.325200  0.981400  0.387900  1
  B  B54  1  0.674800  0.018600  0.612100  1
  B  B55  1  0.278200  0.985600  0.353500  1
  B  B56  1  0.721800  0.014400  0.646500  1
  B  B57  1  0.210200  0.046300  0.343900  1
  B  B58  1  0.789800  0.953700  0.656100  1
  B  B59  1  0.275800  0.051700  0.352700  1
  B  B60  1  0.724200  0.948300  0.647300  1
  B  B61  1  0.935200  0.383100  0.161300  1
  B  B62  1  0.064800  0.616900  0.838700  1
  B  B63  1  0.887500  0.410500  0.193200  1
  B  B64  1  0.112500  0.589500  0.806800  1
  B  B65  1  0.949800  0.423900  0.184100  1
  B  B66  1  0.050200  0.576100  0.815900  1
  B  B67  1  0.962600  0.437600  0.132900  1
  B  B68  1  0.037400  0.562400  0.867100  1
  B  B69  1  0.903800  0.432400  0.108300  1
  B  B70  1  0.096200  0.567600  0.891700  1
  B  B71  1  0.859000  0.414500  0.146300  1
  B  B72  1  0.141000  0.585500  0.853700  1
  B  B73  1  0.883000  0.480500  0.183500  1
  B  B74  1  0.117000  0.519500  0.816500  1
  B  B75  1  0.929200  0.498800  0.146500  1
  B  B76  1  0.070800  0.501200  0.853500  1
  B  B77  1  0.899600  0.499500  0.099700  1
  B  B78  1  0.100400  0.500500  0.900300  1
  B  B79  1  0.841700  0.485400  0.108900  1
  B  B80  1  0.158300  0.514600  0.891100  1
  B  B81  1  0.826400  0.476300  0.160300  1
  B  B82  1  0.173600  0.523700  0.839700  1
  B  B83  1  0.853000  0.528800  0.132100  1
  B  B84  1  0.147000  0.471200  0.867900  1
  B  B85  1  0.184600  0.207100  0.653400  1
  B  B86  1  0.815400  0.792900  0.346600  1
  B  B87  1  0.131300  0.198000  0.684300  1
  B  B88  1  0.868700  0.802000  0.315700  1
  B  B89  1  0.180800  0.139800  0.673700  1
  B  B90  1  0.819200  0.860200  0.326300  1
  B  B91  1  0.250000  0.138200  0.674400  1
  B  B92  1  0.750000  0.861800  0.325600  1
  B  B93  1  0.243000  0.199700  0.686500  1
  B  B94  1  0.757000  0.800300  0.313500  1
  B  B95  1  0.169000  0.236600  0.691500  1
  B  B96  1  0.831000  0.763400  0.308500  1
  B  B97  1  0.162600  0.127300  0.724300  1
  B  B98  1  0.837400  0.872700  0.275700  1
  B  B99  1  0.236400  0.088500  0.718800  1
  B  B100  1  0.763600  0.911500  0.281200  1
  B  B101  1  0.272400  0.131600  0.724800  1
  B  B102  1  0.727600  0.868400  0.275200  1
  B  B103  1  0.224300  0.187300  0.733700  1
  B  B104  1  0.775700  0.812700  0.266300  1
  B  B105  1  0.155300  0.185900  0.736300  1
  B  B106  1  0.844700  0.814100  0.263700  1
  B  B107  1  0.219100  0.119800  0.756300  1
  B  B108  1  0.780900  0.880200  0.243700  1
  B  B109  1  0.137500  0.514000  0.587400  1
  B  B110  1  0.862500  0.486000  0.412600  1
  B  B111  1  0.066700  0.531800  0.600500  1
  B  B112  1  0.933300  0.468200  0.399500  1
  B  B113  1  0.095000  0.584800  0.583000  1
  B  B114  1  0.905000  0.415200  0.417000  1
  B  B115  1  0.135700  0.577900  0.543200  1
  B  B116  1  0.864300  0.422100  0.456800  1
  B  B117  1  0.132400  0.517700  0.535100  1
  B  B118  1  0.867600  0.482300  0.464900  1
  B  B119  1  0.091500  0.488500  0.571000  1
  B  B120  1  0.908500  0.511500  0.429000  1
  B  B121  1  0.023600  0.602800  0.564900  1
  B  B122  1  0.976400  0.397200  0.435100  1
  B  B123  1  0.064300  0.633600  0.528900  1
  B  B124  1  0.935700  0.366400  0.471100  1
  B  B125  1  0.088700  0.586200  0.501400  1
  B  B126  1  0.911300  0.413800  0.498600  1
  B  B127  1  0.063500  0.535800  0.518800  1
  B  B128  1  0.936500  0.464200  0.481200  1
  B  B129  1  0.018500  0.545300  0.557000  1
  B  B130  1  0.981500  0.454700  0.443000  1
  B  B131  1  0.017500  0.607100  0.514600  1
  B  B132  1  0.982500  0.392900  0.485400  1
  B  B133  1  0.777700  0.256200  0.201800  1
  B  B134  1  0.222300  0.743800  0.798200  1
  B  B135  1  0.771300  0.205100  0.185000  1
  B  B136  1  0.228700  0.794900  0.815000  1
  B  B137  1  0.766200  0.321800  0.155400  1
  B  B138  1  0.233800  0.678200  0.844600  1
  B  B139  1  0.839100  0.269000  0.181600  1
  B  B140  1  0.160900  0.731000  0.818400  1
  B  B141  1  0.840900  0.197800  0.200000  1
  B  B142  1  0.159100  0.802200  0.800000  1
  B  B143  1  0.759200  0.236300  0.130300  1
  B  B144  1  0.240800  0.763700  0.869700  1
  B  B145  1  0.755600  0.309100  0.111000  1
  B  B146  1  0.244400  0.690900  0.889000  1
  B  B147  1  0.826600  0.298600  0.128800  1
  B  B148  1  0.173400  0.701400  0.871200  1
  B  B149  1  0.867100  0.227700  0.154600  1
  B  B150  1  0.132900  0.772300  0.845400  1
  B  B151  1  0.828800  0.185400  0.154800  1
  B  B152  1  0.171200  0.814600  0.845200  1
  B  B153  1  0.818400  0.248900  0.110400  1
  B  B154  1  0.181600  0.751100  0.889600  1
  B  B155  1  0.727400  0.280600  0.158700  1
  B  B156  1  0.272600  0.719400  0.841300  1
  H  H157  1  0.413500  0.711900  0.025000  1
  H  H158  1  0.586500  0.288100  0.975000  1
  H  H159  1  0.329200  0.761600  0.949700  1
  H  H160  1  0.670800  0.238400  0.050300  1
  H  H161  1  0.294300  0.790900  0.021500  1
  H  H162  1  0.705700  0.209100  0.978500  1
  H  H163  1  0.384400  0.806600  0.058300  1
  H  H164  1  0.615600  0.193400  0.941700  1
  H  H165  1  0.483600  0.783300  0.007900  1
  H  H166  1  0.516400  0.216700  0.992100  1
  H  H167  1  0.447200  0.754800  0.940800  1
  H  H168  1  0.552800  0.245200  0.059200  1
  H  H169  1  0.251900  0.883200  0.935800  1
  H  H170  1  0.748100  0.116800  0.064200  1
  H  H171  1  0.286400  0.913000  0.002200  1
  H  H172  1  0.713600  0.087000  0.997800  1
  H  H173  1  0.409400  0.901800  0.992800  1
  H  H174  1  0.590600  0.098200  0.007200  1
  H  H175  1  0.442500  0.871000  0.925600  1
  H  H176  1  0.557500  0.129000  0.074400  1
  H  H177  1  0.345800  0.863000  0.885300  1
  H  H178  1  0.654200  0.137000  0.114700  1
  H  H179  1  0.319200  0.953600  0.918400  1
  H  H180  1  0.680800  0.046400  0.081600  1
  H  H181  1  0.218800  0.929700  0.454300  1
  H  H182  1  0.781200  0.070300  0.545700  1
  H  H183  1  0.134100  0.045800  0.394600  1
  H  H184  1  0.865900  0.954200  0.605400  1
  H  H185  1  0.215800  0.037300  0.456900  1
  H  H186  1  0.784200  0.962700  0.543100  1
  H  H187  1  0.329500  0.942600  0.468400  1
  H  H188  1  0.670500  0.057400  0.531600  1
  H  H189  1  0.318300  0.887200  0.409000  1
  H  H190  1  0.681700  0.112800  0.591000  1
  H  H191  1  0.195900  0.950900  0.365700  1
  H  H192  1  0.804100  0.049100  0.634300  1
  H  H193  1  0.192000  0.125300  0.369700  1
  H  H194  1  0.808000  0.874700  0.630300  1
  H  H195  1  0.313400  0.062600  0.414800  1
  H  H196  1  0.686600  0.937400  0.585200  1
  H  H197  1  0.373500  0.963900  0.385900  1
  H  H198  1  0.626500  0.036100  0.614100  1
  H  H199  1  0.294800  0.970900  0.327500  1
  H  H200  1  0.705200  0.029100  0.672500  1
  H  H201  1  0.181100  0.073000  0.312600  1
  H  H202  1  0.818900  0.927000  0.687400  1
  H  H203  1  0.289800  0.082600  0.327300  1
  H  H204  1  0.710200  0.917400  0.672700  1
  H  H205  1  0.962600  0.334400  0.170900  1
  H  H206  1  0.037400  0.665600  0.829100  1
  H  H207  1  0.883400  0.380300  0.224600  1
  H  H208  1  0.116600  0.619700  0.775400  1
  H  H209  1  0.987900  0.401700  0.210100  1
  H  H210  1  0.012100  0.598300  0.789900  1
  H  H211  1  0.008000  0.425700  0.124200  1
  H  H212  1  0.992000  0.574300  0.875800  1
  H  H213  1  0.910400  0.416100  0.082300  1
  H  H214  1  0.089600  0.583900  0.917700  1
  H  H215  1  0.835100  0.387000  0.146100  1
  H  H216  1  0.164900  0.613000  0.853900  1
  H  H217  1  0.875700  0.497000  0.209500  1
  H  H218  1  0.124300  0.503000  0.790500  1
  H  H219  1  0.952100  0.527200  0.146700  1
  H  H220  1  0.047900  0.472800  0.853300  1
  H  H221  1  0.902600  0.528900  0.067500  1
  H  H222  1  0.097400  0.471100  0.932500  1
  H  H223  1  0.804700  0.505900  0.082400  1
  H  H224  1  0.195300  0.494100  0.917600  1
  H  H225  1  0.781000  0.490400  0.169000  1
  H  H226  1  0.219000  0.509600  0.831000  1
  H  H227  1  0.825600  0.577400  0.122700  1
  H  H228  1  0.174400  0.422600  0.877300  1
  H  H229  1  0.173100  0.236400  0.619000  1
  H  H230  1  0.826900  0.763600  0.381000  1
  H  H231  1  0.083500  0.220800  0.670500  1
  H  H232  1  0.916500  0.779200  0.329500  1
  H  H233  1  0.165700  0.123800  0.652200  1
  H  H234  1  0.834300  0.876200  0.347800  1
  H  H235  1  0.281600  0.120900  0.654200  1
  H  H236  1  0.718400  0.879100  0.345800  1
  H  H237  1  0.270900  0.224500  0.673900  1
  H  H238  1  0.729100  0.775500  0.326100  1
  H  H239  1  0.146600  0.285600  0.682900  1
  H  H240  1  0.853400  0.714400  0.317100  1
  H  H241  1  0.134800  0.102700  0.737400  1
  H  H242  1  0.865200  0.897300  0.262600  1
  H  H243  1  0.258600  0.039300  0.728000  1
  H  H244  1  0.741400  0.960700  0.272000  1
  H  H245  1  0.320100  0.110900  0.738400  1
  H  H246  1  0.679900  0.889100  0.261600  1
  H  H247  1  0.239800  0.204500  0.754100  1
  H  H248  1  0.760200  0.795500  0.245900  1
  H  H249  1  0.124300  0.200800  0.757700  1
  H  H250  1  0.875700  0.799200  0.242300  1
  H  H251  1  0.230100  0.090600  0.790800  1
  H  H252  1  0.769900  0.909400  0.209200  1
  H  H253  1  0.177600  0.482800  0.611800  1
  H  H254  1  0.822400  0.517200  0.388200  1
  H  H255  1  0.058700  0.513400  0.633800  1
  H  H256  1  0.941300  0.486600  0.366200  1
  H  H257  1  0.106600  0.601500  0.605400  1
  H  H258  1  0.893400  0.398500  0.394600  1
  H  H259  1  0.174100  0.589800  0.538400  1
  H  H260  1  0.825900  0.410200  0.461600  1
  H  H261  1  0.170200  0.488400  0.524400  1
  H  H262  1  0.829800  0.511600  0.475600  1
  H  H263  1  0.100600  0.440300  0.584600  1
  H  H264  1  0.899400  0.559700  0.415400  1
  H  H265  1  0.986000  0.632500  0.575400  1
  H  H266  1  0.014000  0.367500  0.424600  1
  H  H267  1  0.055400  0.681800  0.514700  1
  H  H268  1  0.944600  0.318200  0.485300  1
  H  H269  1  0.096200  0.602800  0.467800  1
  H  H270  1  0.903800  0.397200  0.532200  1
  H  H271  1  0.053800  0.518000  0.496500  1
  H  H272  1  0.946200  0.482000  0.503500  1
  H  H273  1  0.978700  0.535500  0.560800  1
  H  H274  1  0.021300  0.464500  0.439200  1
  H  H275  1  0.976700  0.638500  0.491000  1
  H  H276  1  0.023300  0.361500  0.509000  1
  H  H277  1  0.764500  0.258400  0.232500  1
  H  H278  1  0.235500  0.741600  0.767500  1
  H  H279  1  0.752900  0.173200  0.204000  1
  H  H280  1  0.247100  0.826800  0.796000  1
  H  H281  1  0.744400  0.367800  0.154600  1
  H  H282  1  0.255600  0.632200  0.845400  1
  H  H283  1  0.867000  0.280000  0.199200  1
  H  H284  1  0.133000  0.720000  0.800800  1
  H  H285  1  0.869800  0.160500  0.229400  1
  H  H286  1  0.130200  0.839500  0.770600  1
  H  H287  1  0.731800  0.224900  0.112800  1
  H  H288  1  0.268200  0.775100  0.887200  1
  H  H289  1  0.727400  0.346000  0.081100  1
  H  H290  1  0.272600  0.654000  0.918900  1
  H  H291  1  0.846800  0.329200  0.110700  1
  H  H292  1  0.153200  0.670800  0.889300  1
  H  H293  1  0.915700  0.209900  0.153900  1
  H  H294  1  0.084300  0.790100  0.846100  1
  H  H295  1  0.849600  0.140400  0.153800  1
  H  H296  1  0.150400  0.859600  0.846200  1
  H  H297  1  0.831500  0.246100  0.079900  1
  H  H298  1  0.168500  0.753900  0.920100  1
  H  H299  1  0.679100  0.299300  0.160600  1
  H  H300  1  0.320900  0.700700  0.839400  1
  H  H301  1  0.907000  0.201600  0.385500  1
  H  H302  1  0.093000  0.798400  0.614500  1
  H  H303  1  0.927400  0.171300  0.352400  1
  H  H304  1  0.072600  0.828700  0.647600  1
  H  H305  1  0.968700  0.194400  0.368800  1
  H  H306  1  0.031300  0.805600  0.631200  1
  H  H307  1  0.623700  0.192700  0.168700  1
  H  H308  1  0.376300  0.807300  0.831300  1
  H  H309  1  0.612200  0.260800  0.154200  1
  H  H310  1  0.387800  0.739200  0.845800  1
  H  H311  1  0.568700  0.243800  0.133800  1
  H  H312  1  0.431300  0.756200  0.866200  1
  H  H313  1  0.842500  0.438800  0.293700  1
  H  H314  1  0.157500  0.561200  0.706300  1
  H  H315  1  0.798600  0.448100  0.327300  1
  H  H316  1  0.201400  0.551900  0.672700  1
  H  H317  1  0.831100  0.491000  0.309200  1
  H  H318  1  0.168900  0.509000  0.690800  1
  H  H319  1  0.625400  0.342900  0.014200  1
  H  H320  1  0.374600  0.657100  0.985800  1
  H  H321  1  0.644900  0.361400  0.048800  1
  H  H322  1  0.355100  0.638600  0.951200  1
  H  H323  1  0.613400  0.410600  0.002600  1
  H  H324  1  0.386600  0.589400  0.997400  1
  H  H325  1  0.696900  0.365700  0.973600  1
  H  H326  1  0.303100  0.634300  0.026400  1
  H  H327  1  0.728700  0.316000  0.020100  1
  H  H328  1  0.271300  0.684000  0.979900  1
  H  H329  1  0.780500  0.401600  0.972400  1
  H  H330  1  0.219500  0.598400  0.027600  1
  H  H331  1  0.809000  0.355700  0.020400  1
  H  H332  1  0.191000  0.644300  0.979600  1
  H  H333  1  0.825700  0.444800  0.005400  1
  H  H334  1  0.174300  0.555200  0.994600  1
  H  H335  1  0.756100  0.484600  0.993700  1
  H  H336  1  0.243900  0.515400  0.006300  1
  H  H337  1  0.784400  0.439000  0.041300  1
  H  H338  1  0.215600  0.561000  0.958700  1
  H  H339  1  0.082700  0.101700  0.652700  1
  H  H340  1  0.917300  0.898300  0.347300  1
  H  H341  1  0.102400  0.034000  0.723100  1
  H  H342  1  0.897600  0.966000  0.276900  1
  H  H343  1  0.150500  0.933500  0.739700  1
  H  H344  1  0.849500  0.066500  0.260300  1
  H  H345  1  0.178700  0.849900  0.711300  1
  H  H346  1  0.821300  0.150100  0.288700  1
  H  H347  1  0.187900  0.823600  0.656100  1
  H  H348  1  0.812100  0.176400  0.343900  1
  H  H349  1  0.178100  0.856300  0.573500  1
  H  H350  1  0.821900  0.143700  0.426500  1
  H  H351  1  0.145700  0.936500  0.506500  1
  H  H352  1  0.854300  0.063500  0.493500  1
  H  H353  1  0.102200  0.051700  0.464100  1
  H  H354  1  0.897800  0.948300  0.535900  1
  H  H355  1  0.122300  0.129500  0.425100  1
  H  H356  1  0.877700  0.870500  0.574900  1
  H  H357  1  0.088000  0.218600  0.364900  1
  H  H358  1  0.912000  0.781400  0.635100  1
  H  H359  1  0.957200  0.293900  0.421800  1
  H  H360  1  0.042800  0.706100  0.578200  1
  H  H361  1  0.987100  0.203200  0.479100  1
  H  H362  1  0.012900  0.796800  0.520900  1
  H  H363  1  0.935800  0.310700  0.331500  1
  H  H364  1  0.064200  0.689300  0.668500  1
  H  H365  1  0.920000  0.377900  0.324400  1
  H  H366  1  0.080000  0.622100  0.675600  1
  H  H367  1  0.960700  0.349600  0.295000  1
  H  H368  1  0.039300  0.650400  0.705000  1
  H  H369  1  0.108300  0.820900  0.088700  1
  H  H370  1  0.891700  0.179100  0.911300  1
  H  H371  1  0.153400  0.880400  0.044100  1
  H  H372  1  0.846600  0.119600  0.955900  1
  H  H373  1  0.243500  0.867300  0.069800  1
  H  H374  1  0.756500  0.132700  0.930200  1
  H  H375  1  0.332700  0.807900  0.127400  1
  H  H376  1  0.667300  0.192100  0.872600  1
  H  H377  1  0.381300  0.733900  0.189500  1
  H  H378  1  0.618700  0.266100  0.810500  1
  H  H379  1  0.379600  0.640100  0.255700  1
  H  H380  1  0.620400  0.359900  0.744300  1
  H  H381  1  0.328700  0.582300  0.288700  1
  H  H382  1  0.671300  0.417700  0.711300  1
  H  H383  1  0.231000  0.569800  0.286600  1
  H  H384  1  0.769000  0.430200  0.713400  1
  H  H385  1  0.147100  0.567900  0.310400  1
  H  H386  1  0.852900  0.432100  0.689600  1
  H  H387  1  0.093800  0.511400  0.330700  1
  H  H388  1  0.906200  0.488600  0.669300  1
  H  H389  1  0.051900  0.542000  0.209700  1
  H  H390  1  0.948100  0.458000  0.790300  1
  H  H391  1  0.110000  0.596100  0.190400  1
  H  H392  1  0.890000  0.403900  0.809600  1
  H  H393  1  0.974200  0.548400  0.230300  1
  H  H394  1  0.025800  0.451600  0.769700  1
  H  H395  1  0.989300  0.480700  0.239200  1
  H  H396  1  0.010700  0.519300  0.760800  1
  H  H397  1  0.945900  0.512500  0.265900  1
  H  H398  1  0.054100  0.487500  0.734100  1
  H  H399  1  0.472200  0.353500  0.518600  1
  H  H400  1  0.527800  0.646500  0.481400  1
  H  H401  1  0.551400  0.365800  0.551000  1
  H  H402  1  0.448600  0.634200  0.449000  1
  H  H403  1  0.524500  0.447500  0.567500  1
  H  H404  1  0.475500  0.552500  0.432500  1
  H  H405  1  0.448400  0.555200  0.552600  1
  H  H406  1  0.551600  0.444800  0.447400  1
  H  H407  1  0.357100  0.624600  0.530700  1
  H  H408  1  0.642900  0.375400  0.469300  1
  H  H409  1  0.252800  0.660700  0.489900  1
  H  H410  1  0.747200  0.339300  0.510100  1
  H  H411  1  0.190100  0.637600  0.457100  1
  H  H412  1  0.809900  0.362400  0.542900  1
  H  H413  1  0.177000  0.554500  0.437200  1
  H  H414  1  0.823000  0.445500  0.562800  1
  H  H415  1  0.169300  0.451100  0.478900  1
  H  H416  1  0.830700  0.548900  0.521100  1
  H  H417  1  0.125100  0.398900  0.462300  1
  H  H418  1  0.874900  0.601100  0.537700  1
  H  H419  1  0.221000  0.386600  0.370700  1
  H  H420  1  0.779000  0.613400  0.629300  1
  H  H421  1  0.258100  0.446700  0.381800  1
  H  H422  1  0.741900  0.553300  0.618200  1
  H  H423  1  0.186600  0.284900  0.469600  1
  H  H424  1  0.813400  0.715100  0.530400  1
  H  H425  1  0.118100  0.300300  0.461300  1
  H  H426  1  0.881900  0.699700  0.538700  1
  H  H427  1  0.164600  0.259300  0.441100  1
  H  H428  1  0.835400  0.740700  0.558900  1
  H  H429  1  0.291900  0.176900  0.186900  1
  H  H430  1  0.708100  0.823100  0.813100  1
  H  H431  1  0.239400  0.121000  0.221400  1
  H  H432  1  0.760600  0.879000  0.778600  1
  H  H433  1  0.168000  0.155500  0.258700  1
  H  H434  1  0.832000  0.844500  0.741300  1
  H  H435  1  0.110500  0.238500  0.283600  1
  H  H436  1  0.889500  0.761500  0.716400  1
  H  H437  1  0.110600  0.314500  0.297100  1
  H  H438  1  0.889400  0.685500  0.702900  1
  H  H439  1  0.111500  0.424600  0.250000  1
  H  H440  1  0.888500  0.575400  0.750000  1
  H  H441  1  0.197300  0.448300  0.236600  1
  H  H442  1  0.802700  0.551700  0.763400  1
  H  H443  1  0.265100  0.456300  0.176500  1
  H  H444  1  0.734900  0.543700  0.823500  1
  H  H445  1  0.413500  0.327100  0.165600  1
  H  H446  1  0.586500  0.672900  0.834400  1
  H  H447  1  0.481300  0.360300  0.129200  1
  H  H448  1  0.518700  0.639700  0.870800  1
  H  H449  1  0.348300  0.516800  0.062800  1
  H  H450  1  0.651700  0.483200  0.937200  1
  H  H451  1  0.282500  0.486100  0.101600  1
  H  H452  1  0.717500  0.513900  0.898400  1
  H  H453  1  0.487800  0.387900  0.051200  1
  H  H454  1  0.512200  0.612100  0.948800  1
  H  H455  1  0.509600  0.437000  0.023400  1
  H  H456  1  0.490400  0.563000  0.976600  1
  H  H457  1  0.541300  0.393700  0.070800  1
  H  H458  1  0.458700  0.606300  0.929200  1
  H  H459  1  0.655500  0.903800  0.999000  1
  H  H460  1  0.344500  0.096200  0.001000  1
  H  H461  1  0.673100  0.984200  0.004200  1
  H  H462  1  0.326900  0.015800  0.995800  1
  H  H463  1  0.740500  0.956800  0.060900  1
  H  H464  1  0.259500  0.043200  0.939100  1
  H  H465  1  0.779500  0.890400  0.139400  1
  H  H466  1  0.220500  0.109600  0.860600  1
  H  H467  1  0.804700  0.805600  0.195100  1
  H  H468  1  0.195300  0.194400  0.804900  1
  H  H469  1  0.809700  0.693800  0.221400  1
  H  H470  1  0.190300  0.306200  0.778600  1
  H  H471  1  0.769900  0.632900  0.209400  1
  H  H472  1  0.230100  0.367100  0.790600  1
  H  H473  1  0.713900  0.617200  0.158000  1
  H  H474  1  0.286100  0.382800  0.842000  1
  H  H475  1  0.571900  0.714500  0.064900  1
  H  H476  1  0.428100  0.285500  0.935100  1
  H  H477  1  0.537400  0.661000  0.041000  1
  H  H478  1  0.462600  0.339000  0.959000  1
  H  H479  1  0.691000  0.517000  0.089600  1
  H  H480  1  0.309000  0.483000  0.910400  1
  H  H481  1  0.727600  0.573100  0.110100  1
  H  H482  1  0.272400  0.426900  0.889900  1
  H  H483  1  0.661000  0.517300  0.027100  1
  H  H484  1  0.339000  0.482700  0.972900  1
  H  H485  1  0.640300  0.467100  0.054600  1
  H  H486  1  0.359700  0.532900  0.945400  1
  H  H487  1  0.605800  0.513100  0.008300  1
  H  H488  1  0.394200  0.486900  0.991700  1
  H  H489  1  0.136400  0.748400  0.249600  1
  H  H490  1  0.863600  0.251600  0.750400  1
  H  H491  1  0.047700  0.822200  0.264000  1
  H  H492  1  0.952300  0.177800  0.736000  1
  H  H493  1  0.957200  0.844800  0.231500  1
  H  H494  1  0.042800  0.155200  0.768500  1
  H  H495  1  0.895200  0.860200  0.163700  1
  H  H496  1  0.104800  0.139800  0.836300  1
  H  H497  1  0.892200  0.830300  0.111500  1
  H  H498  1  0.107800  0.169700  0.888500  1
  H  H499  1  0.952100  0.767600  0.069300  1
  H  H500  1  0.047900  0.232400  0.930700  1
  H  H501  1  0.040600  0.689400  0.068100  1
  H  H502  1  0.959400  0.310600  0.931900  1
  H  H503  1  0.160300  0.655100  0.083600  1
  H  H504  1  0.839700  0.344900  0.916400  1
  H  H505  1  0.282100  0.570400  0.185100  1
  H  H506  1  0.717900  0.429600  0.814900  1
  H  H507  1  0.381000  0.545800  0.175900  1
  H  H508  1  0.619000  0.454200  0.824100  1
  H  H509  1  0.332000  0.681500  0.063700  1
  H  H510  1  0.668000  0.318500  0.936300  1
  H  H511  1  0.233300  0.708300  0.071400  1
  H  H512  1  0.766700  0.291700  0.928600  1
  H  H513  1  0.413800  0.666300  0.140000  1
  H  H514  1  0.586200  0.333700  0.860000  1
  H  H515  1  0.481500  0.624100  0.142500  1
  H  H516  1  0.518500  0.375900  0.857500  1
  H  H517  1  0.444500  0.675700  0.098400  1
  H  H518  1  0.555500  0.324300  0.901600  1
  H  H519  1  0.994900  0.027400  0.551000  1
  H  H520  1  0.005100  0.972600  0.449000  1
  H  H521  1  0.902400  0.032100  0.565100  1
  H  H522  1  0.097600  0.967900  0.434900  1
  H  H523  1  0.836200  0.108400  0.579200  1
  H  H524  1  0.163800  0.891600  0.420800  1
  H  H525  1  0.814600  0.204500  0.590800  1
  H  H526  1  0.185400  0.795500  0.409200  1
  H  H527  1  0.849800  0.264200  0.601400  1
  H  H528  1  0.150200  0.735800  0.398600  1
  H  H529  1  0.936400  0.297800  0.596500  1
  H  H530  1  0.063600  0.702200  0.403500  1
  H  H531  1  0.034900  0.278900  0.585200  1
  H  H532  1  0.965100  0.721100  0.414800  1
  H  H533  1  0.131000  0.210500  0.565300  1
  H  H534  1  0.869000  0.789500  0.434700  1
  H  H535  1  0.185700  0.100000  0.502100  1
  H  H536  1  0.814300  0.900000  0.497900  1
  H  H537  1  0.284400  0.067500  0.492900  1
  H  H538  1  0.715600  0.932500  0.507100  1
  H  H539  1  0.322300  0.095700  0.593900  1
  H  H540  1  0.677700  0.904300  0.406100  1
  H  H541  1  0.222800  0.130900  0.600700  1
  H  H542  1  0.777200  0.869100  0.399300  1
  H  H543  1  0.399800  0.012600  0.596500  1
  H  H544  1  0.600200  0.987400  0.403500  1
  H  H545  1  0.448900  0.995600  0.567600  1
  H  H546  1  0.551100  0.004400  0.432400  1
  H  H547  1  0.434800  0.052900  0.577700  1
  H  H548  1  0.565200  0.947100  0.422300  1
  H  H549  1  0.760300  0.273200  0.331500  1
  H  H550  1  0.239700  0.726800  0.668500  1
  H  H551  1  0.815200  0.326700  0.294700  1
  H  H552  1  0.184800  0.673300  0.705300  1
  H  H553  1  0.772900  0.404800  0.230100  1
  H  H554  1  0.227100  0.595200  0.769900  1
  H  H555  1  0.683300  0.464900  0.171200  1
  H  H556  1  0.316700  0.535100  0.828800  1
  H  H557  1  0.592700  0.487200  0.145100  1
  H  H558  1  0.407300  0.512800  0.854900  1
  H  H559  1  0.498400  0.457500  0.157800  1
  H  H560  1  0.501600  0.542500  0.842200  1
  H  H561  1  0.456600  0.398500  0.204600  1
  H  H562  1  0.543400  0.601500  0.795400  1
  H  H563  1  0.478000  0.304000  0.275300  1
  H  H564  1  0.522000  0.696000  0.724700  1
  H  H565  1  0.526800  0.185500  0.315900  1
  H  H566  1  0.473200  0.814500  0.684100  1
  H  H567  1  0.511300  0.114500  0.373300  1
  H  H568  1  0.488700  0.885500  0.626700  1
  H  H569  1  0.529200  0.189500  0.449400  1
  H  H570  1  0.470800  0.810500  0.550600  1
  H  H571  1  0.540300  0.264800  0.390700  1
  H  H572  1  0.459700  0.735200  0.609300  1
  H  H573  1  0.593700  0.068000  0.479700  1
  H  H574  1  0.406300  0.932000  0.520300  1
  H  H575  1  0.545000  0.088100  0.508100  1
  H  H576  1  0.455000  0.911900  0.491900  1
  H  H577  1  0.559600  0.027800  0.502000  1
  H  H578  1  0.440400  0.972200  0.498000  1
  H  H579  1  0.178200  0.399500  0.106800  1
  H  H580  1  0.821800  0.600500  0.893200  1
  H  H581  1  0.157700  0.439700  0.027900  1
  H  H582  1  0.842300  0.560300  0.972100  1
  H  H583  1  0.233400  0.408200  0.992000  1
  H  H584  1  0.766600  0.591800  0.008000  1
  H  H585  1  0.339400  0.333700  0.994400  1
  H  H586  1  0.660600  0.666300  0.005600  1
  H  H587  1  0.429200  0.270400  0.030200  1
  H  H588  1  0.570800  0.729600  0.969800  1
  H  H589  1  0.491200  0.199400  0.103600  1
  H  H590  1  0.508800  0.800600  0.896400  1
  H  H591  1  0.497600  0.165100  0.177600  1
  H  H592  1  0.502400  0.834900  0.822400  1
  H  H593  1  0.438700  0.177600  0.240800  1
  H  H594  1  0.561300  0.822400  0.759200  1
  H  H595  1  0.377300  0.142000  0.285300  1
  H  H596  1  0.622700  0.858000  0.714700  1
  H  H597  1  0.358200  0.121900  0.354600  1
  H  H598  1  0.641800  0.878100  0.645400  1
  H  H599  1  0.324300  0.283000  0.340900  1
  H  H600  1  0.675700  0.717000  0.659100  1
  H  H601  1  0.340600  0.307500  0.271700  1
  H  H602  1  0.659400  0.692500  0.728300  1
  H  H603  1  0.228900  0.230400  0.372000  1
  H  H604  1  0.771100  0.769600  0.628000  1
  H  H605  1  0.248700  0.166000  0.409100  1
  H  H606  1  0.751300  0.834000  0.590900  1
  H  H607  1  0.242600  0.221100  0.419900  1
  H  H608  1  0.757400  0.778900  0.580100  1
  H  H609  1  0.283400  0.432800  0.561500  1
  H  H610  1  0.716600  0.567200  0.438500  1
  H  H611  1  0.245900  0.371200  0.609400  1
  H  H612  1  0.754100  0.628800  0.390600  1
  H  H613  1  0.248600  0.288900  0.600600  1
  H  H614  1  0.751400  0.711100  0.399400  1
  H  H615  1  0.276900  0.227200  0.554500  1
  H  H616  1  0.723100  0.772800  0.445500  1
  H  H617  1  0.318600  0.209200  0.500700  1
  H  H618  1  0.681400  0.790800  0.499300  1
  H  H619  1  0.374700  0.241400  0.436300  1
  H  H620  1  0.625300  0.758600  0.563700  1
  H  H621  1  0.407600  0.312700  0.394200  1
  H  H622  1  0.592400  0.687300  0.605800  1
  H  H623  1  0.421600  0.407600  0.382700  1
  H  H624  1  0.578400  0.592400  0.617300  1
  H  H625  1  0.320400  0.565100  0.397700  1
  H  H626  1  0.679600  0.434900  0.602300  1
  H  H627  1  0.340900  0.646400  0.360500  1
  H  H628  1  0.659100  0.353600  0.639500  1
  H  H629  1  0.499000  0.536800  0.346400  1
  H  H630  1  0.501000  0.463200  0.653600  1
  H  H631  1  0.476600  0.456200  0.382300  1
  H  H632  1  0.523400  0.543800  0.617700  1
  H  H633  1  0.386500  0.689300  0.366700  1
  H  H634  1  0.613500  0.310700  0.633300  1
  H  H635  1  0.431300  0.716800  0.345400  1
  H  H636  1  0.568700  0.283200  0.654600  1
  H  H637  1  0.371300  0.733800  0.318000  1
  H  H638  1  0.628700  0.266200  0.682000  1
  H  H639  1  0.808200  0.668200  0.077200  1
  H  H640  1  0.191800  0.331800  0.922800  1
  H  H641  1  0.881600  0.646700  0.032700  1
  H  H642  1  0.118400  0.353300  0.967300  1
  H  H643  1  0.854400  0.694100  0.961000  1
  H  H644  1  0.145600  0.305900  0.039000  1
  H  H645  1  0.773100  0.775000  0.898700  1
  H  H646  1  0.226900  0.225000  0.101300  1
  H  H647  1  0.679500  0.839700  0.872000  1
  H  H648  1  0.320500  0.160300  0.128000  1
  H  H649  1  0.570800  0.890700  0.890800  1
  H  H650  1  0.429200  0.109300  0.109200  1
  H  H651  1  0.512600  0.906200  0.943600  1
  H  H652  1  0.487400  0.093800  0.056400  1
  H  H653  1  0.506600  0.869600  0.023600  1
  H  H654  1  0.493400  0.130400  0.976400  1
  H  H655  1  0.476000  0.812000  0.076900  1
  H  H656  1  0.524000  0.188000  0.923100  1
  H  H657  1  0.435800  0.798800  0.138900  1
  H  H658  1  0.564200  0.201200  0.861100  1
  H  H659  1  0.571200  0.796100  0.200400  1
  H  H660  1  0.428800  0.203900  0.799600  1
  H  H661  1  0.612700  0.810200  0.136700  1
  H  H662  1  0.387300  0.189800  0.863300  1
  H  H663  1  0.446600  0.863000  0.206800  1
  H  H664  1  0.553400  0.137000  0.793200  1
  H  H665  1  0.405700  0.832300  0.231600  1
  H  H666  1  0.594300  0.167700  0.768400  1
  H  H667  1  0.468900  0.815800  0.254700  1
  H  H668  1  0.531100  0.184200  0.745300  1
  H  H669  1  0.661600  0.209800  0.250600  1
  H  H670  1  0.338400  0.790200  0.749400  1
  H  H671  1  0.695200  0.104100  0.263200  1
  H  H672  1  0.304800  0.895900  0.736800  1
  H  H673  1  0.721000  0.036000  0.331900  1
  H  H674  1  0.279000  0.964000  0.668100  1
  H  H675  1  0.728600  0.014000  0.412400  1
  H  H676  1  0.271400  0.986000  0.587600  1
  H  H677  1  0.729000  0.043800  0.464600  1
  H  H678  1  0.271000  0.956200  0.535400  1
  H  H679  1  0.703300  0.133100  0.486200  1
  H  H680  1  0.296700  0.866900  0.513800  1
  H  H681  1  0.673800  0.235900  0.463400  1
  H  H682  1  0.326200  0.764100  0.536600  1
  H  H683  1  0.634200  0.342100  0.395800  1
  H  H684  1  0.365800  0.657900  0.604200  1
  H  H685  1  0.666900  0.409600  0.334200  1
  H  H686  1  0.333100  0.590400  0.665800  1
  H  H687  1  0.636500  0.509300  0.289000  1
  H  H688  1  0.363500  0.490700  0.711000  1
  H  H689  1  0.482700  0.519700  0.251000  1
  H  H690  1  0.517300  0.480300  0.749000  1
  H  H691  1  0.509300  0.422100  0.297200  1
  H  H692  1  0.490700  0.577900  0.702800  1
  H  H693  1  0.595200  0.553800  0.196300  1
  H  H694  1  0.404800  0.446200  0.803700  1
  H  H695  1  0.551500  0.622800  0.175000  1
  H  H696  1  0.448500  0.377200  0.825000  1
  H  H697  1  0.608100  0.600800  0.208100  1
  H  H698  1  0.391900  0.399200  0.791900  1
  C  C699  1  0.166900  0.754200  0.533100  1
  C  C700  1  0.833100  0.245800  0.466900  1
  C  C701  1  0.459000  0.754200  0.495200  1
  C  C702  1  0.541000  0.245800  0.504800  1
  C  C703  1  0.306760  0.446500  0.292270  1
  C  C704  1  0.693240  0.553500  0.707730  1
  C  C705  1  0.203900  0.716600  0.328600  1
  C  C706  1  0.796100  0.283400  0.671400  1
  C  C707  1  0.059600  0.532700  0.087600  1
  C  C708  1  0.940400  0.467300  0.912400  1
  C  C709  1  0.970400  0.117500  0.411800  1
  C  C710  1  0.029600  0.882500  0.588200  1
  C  C711  1  0.940900  0.176100  0.376700  1
  C  C712  1  0.059100  0.823900  0.623300  1
  C  C713  1  0.556400  0.238300  0.193200  1
  C  C714  1  0.443600  0.761700  0.806800  1
  C  C715  1  0.593400  0.233500  0.159600  1
  C  C716  1  0.406600  0.766500  0.840400  1
  C  C717  1  0.764500  0.508100  0.268400  1
  C  C718  1  0.235500  0.491900  0.731600  1
  C  C719  1  0.813100  0.468300  0.302400  1
  C  C720  1  0.186900  0.531700  0.697600  1
  C  C721  1  0.640800  0.369100  0.018700  1
  C  C722  1  0.359200  0.630900  0.981300  1
  C  C723  1  0.700100  0.357600  0.004000  1
  C  C724  1  0.299900  0.642400  0.996000  1
  C  C725  1  0.778600  0.395500  0.002400  1
  C  C726  1  0.221400  0.604500  0.997600  1
  C  C727  1  0.787000  0.445700  0.011600  1
  C  C728  1  0.213000  0.554300  0.988400  1
  C  C729  1  0.097200  0.060500  0.658600  1
  C  C730  1  0.902800  0.939500  0.341400  1
  C  C731  1  0.111400  0.019800  0.701300  1
  C  C732  1  0.888600  0.980200  0.298700  1
  C  C733  1  0.137500  0.960800  0.711100  1
  C  C734  1  0.862500  0.039200  0.288900  1
  C  C735  1  0.145300  0.940600  0.678400  1
  C  C736  1  0.854700  0.059400  0.321600  1
  C  C737  1  0.167600  0.880000  0.683600  1
  C  C738  1  0.832400  0.120000  0.316400  1
  C  C739  1  0.173300  0.864500  0.651100  1
  C  C740  1  0.826700  0.135500  0.348900  1
  C  C741  1  0.157400  0.909000  0.607400  1
  C  C742  1  0.842600  0.091000  0.392600  1
  C  C743  1  0.162300  0.896200  0.571200  1
  C  C744  1  0.837700  0.103800  0.428800  1
  C  C745  1  0.143700  0.943200  0.531700  1
  C  C746  1  0.856300  0.056800  0.468300  1
  C  C747  1  0.121600  0.001000  0.530700  1
  C  C748  1  0.878400  0.999000  0.469300  1
  C  C749  1  0.134200  0.968300  0.602600  1
  C  C750  1  0.865800  0.031700  0.397400  1
  C  C751  1  0.127400  0.984600  0.636700  1
  C  C752  1  0.872600  0.015400  0.363300  1
  C  C753  1  0.099700  0.054200  0.490800  1
  C  C754  1  0.900300  0.945800  0.509200  1
  C  C755  1  0.057500  0.158000  0.457900  1
  C  C756  1  0.942500  0.842000  0.542100  1
  C  C757  1  0.088000  0.162600  0.424300  1
  C  C758  1  0.912000  0.837400  0.575700  1
  C  C759  1  0.068600  0.216200  0.389000  1
  C  C760  1  0.931400  0.783800  0.611000  1
  C  C761  1  0.021900  0.264800  0.389000  1
  C  C762  1  0.978100  0.735200  0.611000  1
  C  C763  1  0.990800  0.260400  0.422200  1
  C  C764  1  0.009200  0.739600  0.577800  1
  C  C765  1  0.009000  0.206500  0.456200  1
  C  C766  1  0.991000  0.793500  0.543800  1
  C  C767  1  0.950500  0.341500  0.323600  1
  C  C768  1  0.049500  0.658500  0.676400  1
  C  C769  1  0.146800  0.813900  0.098400  1
  C  C770  1  0.853200  0.186100  0.901600  1
  C  C771  1  0.172900  0.851300  0.071400  1
  C  C772  1  0.827100  0.148700  0.928600  1
  C  C773  1  0.226000  0.842600  0.086700  1
  C  C774  1  0.774000  0.157400  0.913300  1
  C  C775  1  0.256100  0.800800  0.124900  1
  C  C776  1  0.743900  0.199200  0.875100  1
  C  C777  1  0.313100  0.784500  0.142900  1
  C  C778  1  0.686900  0.215500  0.857100  1
  C  C779  1  0.343300  0.739800  0.179500  1
  C  C780  1  0.656700  0.260200  0.820500  1
  C  C781  1  0.316300  0.699600  0.204200  1
  C  C782  1  0.683700  0.300400  0.795800  1
  C  C783  1  0.341500  0.650200  0.242900  1
  C  C784  1  0.658500  0.349800  0.757100  1
  C  C785  1  0.311400  0.615900  0.262800  1
  C  C786  1  0.688600  0.384100  0.737200  1
  C  C787  1  0.255800  0.632300  0.243600  1
  C  C788  1  0.744200  0.367700  0.756400  1
  C  C789  1  0.259000  0.714300  0.187600  1
  C  C790  1  0.741000  0.285700  0.812400  1
  C  C791  1  0.227400  0.762600  0.148100  1
  C  C792  1  0.772600  0.237400  0.851900  1
  C  C793  1  0.220400  0.601000  0.259300  1
  C  C794  1  0.779600  0.399000  0.740700  1
  C  C795  1  0.137600  0.584400  0.249500  1
  C  C796  1  0.862400  0.415600  0.750500  1
  C  C797  1  0.129600  0.561400  0.289600  1
  C  C798  1  0.870400  0.438600  0.710400  1
  C  C799  1  0.096700  0.528700  0.301700  1
  C  C800  1  0.903300  0.471300  0.698300  1
  C  C801  1  0.068800  0.521100  0.273100  1
  C  C802  1  0.931200  0.478900  0.726900  1
  C  C803  1  0.072200  0.546200  0.230400  1
  C  C804  1  0.927800  0.453800  0.769600  1
  C  C805  1  0.107000  0.578100  0.219300  1
  C  C806  1  0.893000  0.421900  0.780700  1
  C  C807  1  0.981000  0.509500  0.252100  1
  C  C808  1  0.019000  0.490500  0.747900  1
  C  C809  1  0.464300  0.389600  0.521500  1
  C  C810  1  0.535700  0.610400  0.478500  1
  C  C811  1  0.512100  0.395700  0.543200  1
  C  C812  1  0.487900  0.604300  0.456800  1
  C  C813  1  0.496600  0.444900  0.551000  1
  C  C814  1  0.503400  0.555100  0.449000  1
  C  C815  1  0.442300  0.491300  0.535800  1
  C  C816  1  0.557700  0.508700  0.464200  1
  C  C817  1  0.421300  0.547700  0.539400  1
  C  C818  1  0.578700  0.452300  0.460600  1
  C  C819  1  0.367600  0.589500  0.525700  1
  C  C820  1  0.632400  0.410500  0.474300  1
  C  C821  1  0.324300  0.583800  0.503300  1
  C  C822  1  0.675700  0.416200  0.496700  1
  C  C823  1  0.267200  0.623400  0.487500  1
  C  C824  1  0.732800  0.376600  0.512500  1
  C  C825  1  0.229900  0.609800  0.468100  1
  C  C826  1  0.770100  0.390200  0.531900  1
  C  C827  1  0.252000  0.554000  0.464700  1
  C  C828  1  0.748000  0.446000  0.535300  1
  C  C829  1  0.344200  0.527800  0.498800  1
  C  C830  1  0.655800  0.472200  0.501200  1
  C  C831  1  0.400600  0.483300  0.513200  1
  C  C832  1  0.599400  0.516700  0.486800  1
  C  C833  1  0.218300  0.533100  0.446100  1
  C  C834  1  0.781700  0.466900  0.553900  1
  C  C835  1  0.218700  0.455200  0.431600  1
  C  C836  1  0.781300  0.544800  0.568400  1
  C  C837  1  0.179300  0.439600  0.455900  1
  C  C838  1  0.820700  0.560400  0.544100  1
  C  C839  1  0.154400  0.406700  0.446400  1
  C  C840  1  0.845600  0.593300  0.553600  1
  C  C841  1  0.169000  0.384900  0.416000  1
  C  C842  1  0.831000  0.615100  0.584000  1
  C  C843  1  0.208900  0.400400  0.392500  1
  C  C844  1  0.791100  0.599600  0.607500  1
  C  C845  1  0.231900  0.435600  0.399700  1
  C  C846  1  0.768100  0.564400  0.600300  1
  C  C847  1  0.154600  0.293300  0.448900  1
  C  C848  1  0.845400  0.706700  0.551100  1
  C  C849  1  0.033800  0.353600  0.351100  1
  C  C850  1  0.966200  0.646400  0.648900  1
  C  C851  1  0.048900  0.435500  0.317400  1
  C  C852  1  0.951100  0.564500  0.682600  1
  C  C853  1  0.104700  0.366000  0.378500  1
  C  C854  1  0.895300  0.634000  0.621500  1
  C  C855  1  0.261300  0.192900  0.201400  1
  C  C856  1  0.738700  0.807100  0.798600  1
  C  C857  1  0.230400  0.158200  0.222800  1
  C  C858  1  0.769600  0.841800  0.777200  1
  C  C859  1  0.189200  0.178000  0.244800  1
  C  C860  1  0.810800  0.822000  0.755200  1
  C  C861  1  0.177200  0.231800  0.247200  1
  C  C862  1  0.822800  0.768200  0.752800  1
  C  C863  1  0.135800  0.256600  0.271100  1
  C  C864  1  0.864200  0.743400  0.728900  1
  C  C865  1  0.132000  0.303900  0.276300  1
  C  C866  1  0.868000  0.696100  0.723700  1
  C  C867  1  0.160500  0.340900  0.250200  1
  C  C868  1  0.839500  0.659100  0.749800  1
  C  C869  1  0.147500  0.399700  0.244500  1
  C  C870  1  0.852500  0.600300  0.755500  1
  C  C871  1  0.192200  0.419000  0.229800  1
  C  C872  1  0.807800  0.581000  0.770200  1
  C  C873  1  0.228400  0.393000  0.204900  1
  C  C874  1  0.771600  0.607000  0.795100  1
  C  C875  1  0.200400  0.317000  0.226500  1
  C  C876  1  0.799600  0.683000  0.773500  1
  C  C877  1  0.209000  0.263800  0.225000  1
  C  C878  1  0.791000  0.736200  0.775000  1
  C  C879  1  0.267700  0.418200  0.180600  1
  C  C880  1  0.732300  0.581800  0.819400  1
  C  C881  1  0.342300  0.405600  0.140600  1
  C  C882  1  0.657700  0.594400  0.859400  1
  C  C883  1  0.400300  0.367100  0.145900  1
  C  C884  1  0.599700  0.632900  0.854100  1
  C  C885  1  0.440400  0.385800  0.122900  1
  C  C886  1  0.559600  0.614200  0.877100  1
  C  C887  1  0.420200  0.440800  0.091400  1
  C  C888  1  0.579800  0.559200  0.908600  1
  C  C889  1  0.362200  0.477900  0.084400  1
  C  C890  1  0.637800  0.522100  0.915600  1
  C  C891  1  0.323300  0.460100  0.108100  1
  C  C892  1  0.676700  0.539900  0.891900  1
  C  C893  1  0.503600  0.415700  0.051900  1
  C  C894  1  0.496400  0.584300  0.948100  1
  C  C895  1  0.674800  0.897900  0.024700  1
  C  C896  1  0.325200  0.102100  0.975300  1
  C  C897  1  0.688300  0.945600  0.026200  1
  C  C898  1  0.311700  0.054400  0.973800  1
  C  C899  1  0.723700  0.930500  0.061100  1
  C  C900  1  0.276300  0.069500  0.938900  1
  C  C901  1  0.737300  0.881100  0.096400  1
  C  C902  1  0.262700  0.118900  0.903600  1
  C  C903  1  0.768200  0.862200  0.136000  1
  C  C904  1  0.231800  0.137800  0.864000  1
  C  C905  1  0.784400  0.812000  0.169500  1
  C  C906  1  0.215600  0.188000  0.830500  1
  C  C907  1  0.768900  0.765900  0.165000  1
  C  C908  1  0.231100  0.234100  0.835000  1
  C  C909  1  0.784500  0.707800  0.195900  1
  C  C910  1  0.215500  0.292200  0.804100  1
  C  C911  1  0.762300  0.671000  0.188300  1
  C  C912  1  0.237700  0.329000  0.811700  1
  C  C913  1  0.729700  0.690900  0.150000  1
  C  C914  1  0.270300  0.309100  0.850000  1
  C  C915  1  0.737100  0.781000  0.126500  1
  C  C916  1  0.262900  0.219000  0.873500  1
  C  C917  1  0.718500  0.837300  0.092200  1
  C  C918  1  0.281500  0.162700  0.907800  1
  C  C919  1  0.706400  0.656600  0.139400  1
  C  C920  1  0.293600  0.343400  0.860600  1
  C  C921  1  0.651200  0.649300  0.090000  1
  C  C922  1  0.348800  0.350700  0.910000  1
  C  C923  1  0.596700  0.674300  0.069900  1
  C  C924  1  0.403300  0.325700  0.930100  1
  C  C925  1  0.575900  0.642100  0.056400  1
  C  C926  1  0.424100  0.357900  0.943600  1
  C  C927  1  0.609400  0.583800  0.064500  1
  C  C928  1  0.390600  0.416200  0.935500  1
  C  C929  1  0.666667  0.557300  0.084400  1
  C  C930  1  0.333333  0.442700  0.915600  1
  C  C931  1  0.688000  0.590400  0.096900  1
  C  C932  1  0.312000  0.409600  0.903100  1
  C  C933  1  0.626900  0.508200  0.033900  1
  C  C934  1  0.373100  0.491800  0.966100  1
  C  C935  1  0.098800  0.765200  0.233200  1
  C  C936  1  0.901200  0.234800  0.766800  1
  C  C937  1  0.044600  0.807700  0.243300  1
  C  C938  1  0.955400  0.192300  0.756700  1
  C  C939  1  0.991700  0.824300  0.221800  1
  C  C940  1  0.008300  0.175700  0.778200  1
  C  C941  1  0.984900  0.813300  0.187100  1
  C  C942  1  0.015100  0.186700  0.812900  1
  C  C943  1  0.930800  0.832700  0.159600  1
  C  C944  1  0.069200  0.167300  0.840400  1
  C  C945  1  0.928500  0.814100  0.129300  1
  C  C946  1  0.071500  0.185900  0.870700  1
  C  C947  1  0.980700  0.769000  0.122700  1
  C  C948  1  0.019300  0.231000  0.877300  1
  C  C949  1  0.985500  0.751000  0.090100  1
  C  C950  1  0.014500  0.249000  0.909900  1
  C  C951  1  0.038900  0.708400  0.086700  1
  C  C952  1  0.961100  0.291600  0.913300  1
  C  C953  1  0.090000  0.695100  0.112400  1
  C  C954  1  0.910000  0.304900  0.887600  1
  C  C955  1  0.034000  0.747700  0.151200  1
  C  C956  1  0.966000  0.252300  0.848800  1
  C  C957  1  0.037500  0.768300  0.181500  1
  C  C958  1  0.962500  0.231700  0.818500  1
  C  C959  1  0.150600  0.666400  0.106700  1
  C  C960  1  0.849400  0.333600  0.893300  1
  C  C961  1  0.248800  0.639300  0.128200  1
  C  C962  1  0.751200  0.360700  0.871800  1
  C  C963  1  0.292100  0.593000  0.160000  1
  C  C964  1  0.707900  0.407000  0.840000  1
  C  C965  1  0.350800  0.579600  0.155000  1
  C  C966  1  0.649200  0.420400  0.845000  1
  C  C967  1  0.365300  0.614300  0.120500  1
  C  C968  1  0.634700  0.385700  0.879500  1
  C  C969  1  0.321600  0.659600  0.089000  1
  C  C970  1  0.678400  0.340400  0.911000  1
  C  C971  1  0.263100  0.674600  0.092700  1
  C  C972  1  0.736900  0.325400  0.907300  1
  C  C973  1  0.442600  0.646200  0.125100  1
  C  C974  1  0.557400  0.353800  0.874900  1
  C  C975  1  0.474500  0.501800  0.070800  1
  C  C976  1  0.525500  0.498200  0.929200  1
  C  C977  1  0.536400  0.544700  0.064000  1
  C  C978  1  0.463600  0.455300  0.936000  1
  C  C979  1  0.457700  0.572000  0.096000  1
  C  C980  1  0.542300  0.428000  0.904000  1
  C  C981  1  0.969400  0.058600  0.558500  1
  C  C982  1  0.030600  0.941400  0.441500  1
  C  C983  1  0.913100  0.061900  0.566100  1
  C  C984  1  0.086900  0.938100  0.433900  1
  C  C985  1  0.874600  0.105900  0.574800  1
  C  C986  1  0.125400  0.894100  0.425200  1
  C  C987  1  0.891100  0.148800  0.577300  1
  C  C988  1  0.108900  0.851200  0.422700  1
  C  C989  1  0.854300  0.197900  0.587600  1
  C  C990  1  0.145700  0.802100  0.412400  1
  C  C991  1  0.874400  0.233900  0.592800  1
  C  C992  1  0.125600  0.766100  0.407200  1
  C  C993  1  0.934600  0.227700  0.585400  1
  C  C994  1  0.065400  0.772300  0.414600  1
  C  C995  1  0.959300  0.265400  0.589300  1
  C  C996  1  0.040700  0.734600  0.410700  1
  C  C997  1  0.017200  0.254700  0.582400  1
  C  C998  1  0.982800  0.745300  0.417600  1
  C  C999  1  0.048100  0.206300  0.571200  1
  C  C1000  1  0.951900  0.793700  0.428800  1
  C  C1001  1  0.969000  0.181500  0.574400  1
  C  C1002  1  0.031000  0.818500  0.425600  1
  C  C1003  1  0.949300  0.141300  0.571100  1
  C  C1004  1  0.050700  0.858700  0.428900  1
  C  C1005  1  0.109700  0.188400  0.564200  1
  C  C1006  1  0.890300  0.811600  0.435800  1
  C  C1007  1  0.194700  0.119200  0.552000  1
  C  C1008  1  0.805300  0.880800  0.448000  1
  C  C1009  1  0.213400  0.100200  0.520400  1
  C  C1010  1  0.786600  0.899800  0.479600  1
  C  C1011  1  0.271700  0.081400  0.514500  1
  C  C1012  1  0.728300  0.918600  0.485500  1
  C  C1013  1  0.311100  0.083300  0.540500  1
  C  C1014  1  0.688900  0.916700  0.459500  1
  C  C1015  1  0.294200  0.098500  0.574300  1
  C  C1016  1  0.705800  0.901500  0.425700  1
  C  C1017  1  0.235400  0.117900  0.578600  1
  C  C1018  1  0.764600  0.882100  0.421400  1
  C  C1019  1  0.417800  0.028500  0.572200  1
  C  C1020  1  0.582200  0.971500  0.427800  1
  C  C1021  1  0.743700  0.303700  0.304200  1
  C  C1022  1  0.256300  0.696300  0.695800  1
  C  C1023  1  0.776800  0.336600  0.282400  1
  C  C1024  1  0.223200  0.663400  0.717600  1
  C  C1025  1  0.752200  0.381900  0.244200  1
  C  C1026  1  0.247800  0.618100  0.755800  1
  C  C1027  1  0.698300  0.394900  0.225800  1
  C  C1028  1  0.301700  0.605100  0.774200  1
  C  C1029  1  0.664800  0.440800  0.187600  1
  C  C1030  1  0.335200  0.559200  0.812400  1
  C  C1031  1  0.610800  0.454800  0.171500  1
  C  C1032  1  0.389200  0.545200  0.828500  1
  C  C1033  1  0.578400  0.418900  0.195200  1
  C  C1034  1  0.421600  0.581100  0.804800  1
  C  C1035  1  0.520700  0.427300  0.184000  1
  C  C1036  1  0.479300  0.572700  0.816000  1
  C  C1037  1  0.496200  0.391500  0.211200  1
  C  C1038  1  0.503800  0.608500  0.788800  1
  C  C1039  1  0.531100  0.345700  0.248000  1
  C  C1040  1  0.468900  0.654300  0.752000  1
  C  C1041  1  0.610600  0.371800  0.232300  1
  C  C1042  1  0.389400  0.628200  0.767700  1
  C  C1043  1  0.668800  0.358100  0.249500  1
  C  C1044  1  0.331200  0.641900  0.750500  1
  C  C1045  1  0.514200  0.306100  0.279800  1
  C  C1046  1  0.485800  0.693900  0.720200  1
  C  C1047  1  0.535500  0.230900  0.347800  1
  C  C1048  1  0.464500  0.769100  0.652200  1
  C  C1049  1  0.526800  0.187500  0.342800  1
  C  C1050  1  0.473200  0.812500  0.657200  1
  C  C1051  1  0.517800  0.145000  0.377200  1
  C  C1052  1  0.482200  0.855000  0.622800  1
  C  C1053  1  0.518000  0.145900  0.415800  1
  C  C1054  1  0.482000  0.854100  0.584200  1
  C  C1055  1  0.527600  0.189100  0.422100  1
  C  C1056  1  0.472400  0.810900  0.577900  1
  C  C1057  1  0.535300  0.233300  0.387200  1
  C  C1058  1  0.464700  0.766700  0.612800  1
  C  C1059  1  0.555900  0.068600  0.488300  1
  C  C1060  1  0.444100  0.931400  0.511700  1
  C  C1061  1  0.207600  0.385400  0.090900  1
  C  C1062  1  0.792400  0.614600  0.909100  1
  C  C1063  1  0.195700  0.410900  0.042800  1
  C  C1064  1  0.804300  0.589100  0.957200  1
  C  C1065  1  0.240700  0.391400  0.022000  1
  C  C1066  1  0.759300  0.608600  0.978000  1
  C  C1067  1  0.295000  0.349900  0.041000  1
  C  C1068  1  0.705000  0.650100  0.959000  1
  C  C1069  1  0.344500  0.322400  0.024000  1
  C  C1070  1  0.655500  0.677600  0.976000  1
  C  C1071  1  0.397500  0.282200  0.045200  1
  C  C1072  1  0.602500  0.717800  0.954800  1
  C  C1073  1  0.407200  0.256900  0.090200  1
  C  C1074  1  0.592800  0.743100  0.909800  1
  C  C1075  1  0.457500  0.215500  0.115800  1
  C  C1076  1  0.542500  0.784500  0.884200  1
  C  C1077  1  0.462100  0.195100  0.159700  1
  C  C1078  1  0.537900  0.804900  0.840300  1
  C  C1079  1  0.410600  0.221800  0.176300  1
  C  C1080  1  0.589400  0.778200  0.823700  1
  C  C1081  1  0.356800  0.282000  0.109400  1
  C  C1082  1  0.643200  0.718000  0.890600  1
  C  C1083  1  0.302800  0.326100  0.087100  1
  C  C1084  1  0.697200  0.673900  0.912900  1
  C  C1085  1  0.407600  0.209400  0.219500  1
  C  C1086  1  0.592400  0.790600  0.780500  1
  C  C1087  1  0.354200  0.229500  0.270500  1
  C  C1088  1  0.645800  0.770500  0.729500  1
  C  C1089  1  0.363100  0.172800  0.295500  1
  C  C1090  1  0.636900  0.827200  0.704500  1
  C  C1091  1  0.350300  0.161700  0.336700  1
  C  C1092  1  0.649700  0.838300  0.663300  1
  C  C1093  1  0.327700  0.203100  0.352800  1
  C  C1094  1  0.672300  0.796900  0.647200  1
  C  C1095  1  0.330500  0.255000  0.328800  1
  C  C1096  1  0.669500  0.745000  0.671200  1
  C  C1097  1  0.341700  0.269400  0.287700  1
  C  C1098  1  0.658300  0.730600  0.712300  1
  C  C1099  1  0.253900  0.203000  0.399300  1
  C  C1100  1  0.746100  0.797000  0.600700  1
  C  C1101  1  0.384600  0.093000  0.496000  1
  C  C1102  1  0.615400  0.907000  0.504000  1
  C  C1103  1  0.453800  0.107600  0.456000  1
  C  C1104  1  0.546200  0.892400  0.544000  1
  C  C1105  1  0.357300  0.153500  0.428000  1
  C  C1106  1  0.642700  0.846500  0.572000  1
  C  C1107  1  0.285600  0.398600  0.557900  1
  C  C1108  1  0.714400  0.601400  0.442100  1
  C  C1109  1  0.262500  0.362100  0.586600  1
  C  C1110  1  0.737500  0.637900  0.413400  1
  C  C1111  1  0.264300  0.313800  0.581500  1
  C  C1112  1  0.735700  0.686200  0.418500  1
  C  C1113  1  0.289400  0.300900  0.547900  1
  C  C1114  1  0.710600  0.699100  0.452100  1
  C  C1115  1  0.293300  0.253000  0.537400  1
  C  C1116  1  0.706700  0.747000  0.462600  1
  C  C1117  1  0.317800  0.242000  0.505900  1
  C  C1118  1  0.682200  0.758000  0.494100  1
  C  C1119  1  0.343900  0.280000  0.478500  1
  C  C1120  1  0.656100  0.720000  0.521500  1
  C  C1121  1  0.370500  0.273900  0.443200  1
  C  C1122  1  0.629500  0.726100  0.556800  1
  C  C1123  1  0.390500  0.315300  0.418500  1
  C  C1124  1  0.609500  0.684700  0.581500  1
  C  C1125  1  0.384200  0.360500  0.431100  1
  C  C1126  1  0.615800  0.639500  0.568900  1
  C  C1127  1  0.339700  0.327800  0.487600  1
  C  C1128  1  0.660300  0.672200  0.512400  1
  C  C1129  1  0.314400  0.337600  0.521800  1
  C  C1130  1  0.685600  0.662400  0.478200  1
  C  C1131  1  0.399500  0.409400  0.405300  1
  C  C1132  1  0.600500  0.590600  0.594700  1
  C  C1133  1  0.396400  0.503100  0.392500  1
  C  C1134  1  0.603600  0.496900  0.607500  1
  C  C1135  1  0.356500  0.559400  0.386800  1
  C  C1136  1  0.643500  0.440600  0.613200  1
  C  C1137  1  0.369000  0.607400  0.365200  1
  C  C1138  1  0.631000  0.392600  0.634800  1
  C  C1139  1  0.422000  0.599200  0.350300  1
  C  C1140  1  0.578000  0.400800  0.649700  1
  C  C1141  1  0.462300  0.542900  0.356500  1
  C  C1142  1  0.537700  0.457100  0.643500  1
  C  C1143  1  0.448800  0.495100  0.377800  1
  C  C1144  1  0.551200  0.504900  0.622200  1
  C  C1145  1  0.403100  0.702000  0.340700  1
  C  C1146  1  0.596900  0.298000  0.659300  1
  C  C1147  1  0.797900  0.690500  0.047600  1
  C  C1148  1  0.202100  0.309500  0.952400  1
  C  C1149  1  0.842500  0.675600  0.020800  1
  C  C1150  1  0.157500  0.324400  0.979200  1
  C  C1151  1  0.826300  0.704300  0.978900  1
  C  C1152  1  0.173700  0.295700  0.021100  1
  C  C1153  1  0.772000  0.746700  0.961200  1
  C  C1154  1  0.228000  0.253300  0.038800  1
  C  C1155  1  0.746800  0.780800  0.918500  1
  C  C1156  1  0.253200  0.219200  0.081500  1
  C  C1157  1  0.691200  0.820000  0.901700  1
  C  C1158  1  0.308800  0.180000  0.098300  1
  C  C1159  1  0.648500  0.831700  0.931100  1
  C  C1160  1  0.351500  0.168300  0.068900  1
  C  C1161  1  0.587800  0.870300  0.919700  1
  C  C1162  1  0.412200  0.129700  0.080300  1
  C  C1163  1  0.552800  0.878300  0.951000  1
  C  C1164  1  0.447200  0.121700  0.049000  1
  C  C1165  1  0.578100  0.844400  0.992800  1
  C  C1166  1  0.421900  0.155600  0.007200  1
  C  C1167  1  0.670100  0.799400  0.974100  1
  C  C1168  1  0.329900  0.200600  0.025900  1
  C  C1169  1  0.730100  0.759300  0.990900  1
  C  C1170  1  0.269900  0.240700  0.009100  1
  C  C1171  1  0.547900  0.846200  0.027700  1
  C  C1172  1  0.452100  0.153800  0.972300  1
  C  C1173  1  0.548800  0.809900  0.101500  1
  C  C1174  1  0.451200  0.190100  0.898500  1
  C  C1175  1  0.496600  0.807700  0.101500  1
  C  C1176  1  0.503400  0.192300  0.898500  1
  C  C1177  1  0.473800  0.798900  0.138900  1
  C  C1178  1  0.526200  0.201100  0.861100  1
  C  C1179  1  0.501200  0.790500  0.175500  1
  C  C1180  1  0.498800  0.209500  0.824500  1
  C  C1181  1  0.552800  0.797300  0.176100  1
  C  C1182  1  0.447200  0.202700  0.823900  1
  C  C1183  1  0.576500  0.806300  0.137800  1
  C  C1184  1  0.423500  0.193700  0.862200  1
  C  C1185  1  0.446400  0.826300  0.227700  1
  C  C1186  1  0.553600  0.173700  0.772300  1
  C  C1187  1  0.672000  0.180300  0.278500  1
  C  C1188  1  0.328000  0.819700  0.721500  1
  C  C1189  1  0.692700  0.116400  0.285900  1
  C  C1190  1  0.307300  0.883600  0.714100  1
  C  C1191  1  0.707700  0.076800  0.326500  1
  C  C1192  1  0.292300  0.923200  0.673500  1
  C  C1193  1  0.704700  0.092300  0.360100  1
  C  C1194  1  0.295300  0.907700  0.639900  1
  C  C1195  1  0.718100  0.055000  0.404800  1
  C  C1196  1  0.281900  0.945000  0.595200  1
  C  C1197  1  0.717200  0.072300  0.436300  1
  C  C1198  1  0.282800  0.927700  0.563700  1
  C  C1199  1  0.698600  0.133900  0.427500  1
  C  C1200  1  0.301400  0.866100  0.572500  1
  C  C1201  1  0.693700  0.157900  0.456900  1
  C  C1202  1  0.306300  0.842100  0.543100  1
  C  C1203  1  0.674600  0.219000  0.443500  1
  C  C1204  1  0.325400  0.781000  0.556500  1
  C  C1205  1  0.656500  0.255700  0.400000  1
  C  C1206  1  0.343500  0.744300  0.600000  1
  C  C1207  1  0.681300  0.172900  0.383500  1
  C  C1208  1  0.318700  0.827100  0.616500  1
  C  C1209  1  0.684000  0.154500  0.350600  1
  C  C1210  1  0.316000  0.845500  0.649400  1
  C  C1211  1  0.632800  0.319600  0.380400  1
  C  C1212  1  0.367200  0.680400  0.619600  1
  C  C1213  1  0.590600  0.405900  0.319200  1
  C  C1214  1  0.409400  0.594100  0.680800  1
  C  C1215  1  0.629100  0.431500  0.317400  1
  C  C1216  1  0.370900  0.568500  0.682600  1
  C  C1217  1  0.610600  0.491000  0.289900  1
  C  C1218  1  0.389400  0.509000  0.710100  1
  C  C1219  1  0.558100  0.523800  0.264800  1
  C  C1220  1  0.441900  0.476200  0.735200  1
  C  C1221  1  0.520500  0.497600  0.267800  1
  C  C1222  1  0.479500  0.502400  0.732200  1
  C  C1223  1  0.536500  0.439200  0.295200  1
  C  C1224  1  0.463500  0.560800  0.704800  1
  C  C1225  1  0.577200  0.590700  0.200900  1
  C  C1226  1  0.422800  0.409300  0.799100  1
  C  C1227  1  0.459300  0.659600  0.293400  1
  C  C1228  1  0.540700  0.340400  0.706600  1
  C  C1229  1  0.477800  0.723500  0.237200  1
  C  C1230  1  0.522200  0.276500  0.762800  1
  C  C1231  1  0.512800  0.627100  0.248100  1
  C  C1232  1  0.487200  0.372900  0.751900  1
  C  C1233  1  0.390900  0.744200  0.459300  1
  C  C1234  1  0.609100  0.255800  0.540700  1
  C  C1235  1  0.359400  0.764200  0.437900  1
  C  C1236  1  0.640600  0.235800  0.562100  1
  C  C1237  1  0.291700  0.443500  0.283800  1
  C  C1238  1  0.708300  0.556500  0.716200  1
  S  S1239  1  0.202300  0.711500  0.592070  1
  S  S1240  1  0.797700  0.288500  0.407930  1
  S  S1241  1  0.453000  0.683500  0.542500  1
  S  S1242  1  0.547000  0.316500  0.457500  1
  S  S1243  1  0.387130  0.418700  0.271500  1
  S  S1244  1  0.612870  0.581300  0.728500  1
  S  S1245  1  0.177900  0.651800  0.343900  1
  S  S1246  1  0.822100  0.348200  0.656100  1
  S  S1247  1  0.132000  0.547500  0.097100  1
  S  S1248  1  0.868000  0.452500  0.902900  1
  S  S1249  1  0.318800  0.754200  0.431900  1
  S  S1250  1  0.681200  0.245800  0.568100  1
  S  S1251  1  0.289800  0.798800  0.388700  1
  S  S1252  1  0.710200  0.201200  0.611300  1
  S  S1253  1  0.366700  0.449300  0.301300  1
  S  S1254  1  0.633300  0.550700  0.698700  1
  N  N1255  1  0.988800  0.074600  0.441700  1
  N  N1256  1  0.011200  0.925400  0.558300  1
  N  N1257  1  0.524000  0.241800  0.216800  1
  N  N1258  1  0.476000  0.758200  0.783200  1
  N  N1259  1  0.727700  0.542000  0.241100  1
  N  N1260  1  0.272300  0.458000  0.758900  1
  N  N1261  1  0.103200  0.044300  0.627100  1
  N  N1262  1  0.896800  0.955700  0.372900  1
  N  N1263  1  0.116800  0.012300  0.564500  1
  N  N1264  1  0.883200  0.987700  0.435500  1
  N  N1265  1  0.076700  0.105000  0.494600  1
  N  N1266  1  0.923300  0.895000  0.505400  1
  N  N1267  1  0.003000  0.321200  0.353300  1
  N  N1268  1  0.997000  0.678800  0.646700  1
  N  N1269  1  0.172800  0.771400  0.135200  1
  N  N1270  1  0.827200  0.228600  0.864800  1
  N  N1271  1  0.229700  0.680100  0.206800  1
  N  N1272  1  0.770300  0.319900  0.793200  1
  N  N1273  1  0.172900  0.616700  0.235000  1
  N  N1274  1  0.827100  0.383300  0.765000  1
  N  N1275  1  0.032200  0.489300  0.284000  1
  N  N1276  1  0.967800  0.510700  0.716000  1
  N  N1277  1  0.413200  0.433000  0.507000  1
  N  N1278  1  0.586800  0.567000  0.493000  1
  N  N1279  1  0.307100  0.516300  0.479400  1
  N  N1280  1  0.692900  0.483700  0.520600  1
  N  N1281  1  0.247900  0.484100  0.442400  1
  N  N1282  1  0.752100  0.515900  0.557600  1
  N  N1283  1  0.146600  0.346100  0.411300  1
  N  N1284  1  0.853400  0.653900  0.588700  1
  N  N1285  1  0.017000  0.405300  0.317800  1
  N  N1286  1  0.983000  0.594700  0.682200  1
  N  N1287  1  0.093200  0.418200  0.346900  1
  N  N1288  1  0.906800  0.581800  0.653100  1
  N  N1289  1  0.076400  0.332200  0.382200  1
  N  N1290  1  0.923600  0.667800  0.617800  1
  N  N1291  1  0.249400  0.246000  0.200600  1
  N  N1292  1  0.750600  0.754000  0.799400  1
  N  N1293  1  0.231900  0.343900  0.204200  1
  N  N1294  1  0.768100  0.656100  0.795800  1
  N  N1295  1  0.305000  0.384300  0.165900  1
  N  N1296  1  0.695000  0.615700  0.834100  1
  N  N1297  1  0.461600  0.458700  0.067300  1
  N  N1298  1  0.538400  0.541300  0.932700  1
  N  N1299  1  0.688000  0.848000  0.056800  1
  N  N1300  1  0.312000  0.152000  0.943200  1
  N  N1301  1  0.716000  0.745200  0.119100  1
  N  N1302  1  0.284000  0.254800  0.880900  1
  N  N1303  1  0.674500  0.681900  0.103300  1
  N  N1304  1  0.325500  0.318100  0.896700  1
  N  N1305  1  0.586900  0.549100  0.052100  1
  N  N1306  1  0.413100  0.450900  0.947900  1
  N  N1307  1  0.091500  0.752700  0.201100  1
  N  N1308  1  0.908500  0.247300  0.798900  1
  N  N1309  1  0.085000  0.714400  0.143200  1
  N  N1310  1  0.915000  0.285600  0.856800  1
  N  N1311  1  0.189900  0.657300  0.134400  1
  N  N1312  1  0.810100  0.342700  0.865600  1
  N  N1313  1  0.424800  0.604700  0.116300  1
  N  N1314  1  0.575200  0.395300  0.883700  1
  N  N1315  1  0.523400  0.505700  0.055700  1
  N  N1316  1  0.476600  0.494300  0.944300  1
  N  N1317  1  0.507500  0.578100  0.084900  1
  N  N1318  1  0.492500  0.421900  0.915100  1
  N  N1319  1  0.439100  0.534600  0.089600  1
  N  N1320  1  0.560900  0.465400  0.910400  1
  N  N1321  1  0.988800  0.096300  0.561200  1
  N  N1322  1  0.011200  0.903700  0.438800  1
  N  N1323  1  0.024400  0.172300  0.567500  1
  N  N1324  1  0.975600  0.827700  0.432500  1
  N  N1325  1  0.134000  0.140800  0.556500  1
  N  N1326  1  0.866000  0.859200  0.443500  1
  N  N1327  1  0.372500  0.065200  0.534400  1
  N  N1328  1  0.627500  0.934800  0.465600  1
  N  N1329  1  0.692300  0.314000  0.288000  1
  N  N1330  1  0.307700  0.686000  0.712000  1
  N  N1331  1  0.587000  0.336000  0.258400  1
  N  N1332  1  0.413000  0.664000  0.741600  1
  N  N1333  1  0.548700  0.272900  0.314900  1
  N  N1334  1  0.451300  0.727100  0.685100  1
  N  N1335  1  0.510000  0.101500  0.450800  1
  N  N1336  1  0.490000  0.898500  0.549200  1
  N  N1337  1  0.259500  0.343700  0.109300  1
  N  N1338  1  0.740500  0.656300  0.890700  1
  N  N1339  1  0.360800  0.263000  0.151400  1
  N  N1340  1  0.639200  0.737000  0.848600  1
  N  N1341  1  0.360800  0.243200  0.228400  1
  N  N1342  1  0.639200  0.756800  0.771600  1
  N  N1343  1  0.315000  0.190200  0.394600  1
  N  N1344  1  0.685000  0.809800  0.605400  1
  N  N1345  1  0.442300  0.079100  0.493900  1
  N  N1346  1  0.557700  0.920900  0.506100  1
  N  N1347  1  0.413800  0.143700  0.422100  1
  N  N1348  1  0.586200  0.856300  0.577900  1
  N  N1349  1  0.340700  0.130300  0.464500  1
  N  N1350  1  0.659300  0.869700  0.535500  1
  N  N1351  1  0.310000  0.387500  0.526000  1
  N  N1352  1  0.690000  0.612500  0.474000  1
  N  N1353  1  0.358600  0.366900  0.463200  1
  N  N1354  1  0.641400  0.633100  0.536800  1
  N  N1355  1  0.381200  0.454900  0.415300  1
  N  N1356  1  0.618800  0.545100  0.584700  1
  N  N1357  1  0.433200  0.651300  0.328800  1
  N  N1358  1  0.566800  0.348700  0.671200  1
  N  N1359  1  0.745300  0.732200  0.033300  1
  N  N1360  1  0.254700  0.267800  0.966700  1
  N  N1361  1  0.634900  0.806700  0.004500  1
  N  N1362  1  0.365100  0.193300  0.995500  1
  N  N1363  1  0.577800  0.815000  0.065300  1
  N  N1364  1  0.422200  0.185000  0.934700  1
  N  N1365  1  0.473500  0.778200  0.213000  1
  N  N1366  1  0.526500  0.221800  0.787000  1
  N  N1367  1  0.668100  0.195400  0.310500  1
  N  N1368  1  0.331900  0.804600  0.689500  1
  N  N1369  1  0.662300  0.231600  0.371800  1
  N  N1370  1  0.337700  0.768400  0.628200  1
  N  N1371  1  0.609900  0.345100  0.341100  1
  N  N1372  1  0.390100  0.654900  0.658900  1
  N  N1373  1  0.542700  0.582700  0.235100  1
  N  N1374  1  0.457300  0.417300  0.764900  1
  N  N1375  1  0.453700  0.715800  0.272700  1
  N  N1376  1  0.546300  0.284200  0.727300  1
  N  N1377  1  0.508200  0.681400  0.223300  1
  N  N1378  1  0.491800  0.318600  0.776700  1
  N  N1379  1  0.487100  0.614900  0.282000  1
  N  N1380  1  0.512900  0.385100  0.718000  1
  O  O1381  1  0.159400  0.692000  0.611900  1
  O  O1382  1  0.840600  0.308000  0.388100  1
  O  O1383  1  0.212300  0.757500  0.598700  1
  O  O1384  1  0.787700  0.242500  0.401300  1
  O  O1385  1  0.258500  0.665300  0.588500  1
  O  O1386  1  0.741500  0.334700  0.411500  1
  O  O1387  1  0.467000  0.679000  0.578300  1
  O  O1388  1  0.533000  0.321000  0.421700  1
  O  O1389  1  0.485600  0.639400  0.527200  1
  O  O1390  1  0.514400  0.360600  0.472800  1
  O  O1391  1  0.388800  0.702500  0.528000  1
  O  O1392  1  0.611200  0.297500  0.472000  1
  O  O1393  1  0.390200  0.473700  0.248900  1
  O  O1394  1  0.609800  0.526300  0.751100  1
  O  O1395  1  0.425610  0.381600  0.310300  1
  O  O1396  1  0.574390  0.618400  0.689700  1
  O  O1397  1  0.377700  0.389800  0.247000  1
  O  O1398  1  0.622300  0.610200  0.753000  1
  O  O1399  1  0.146000  0.653900  0.378300  1
  O  O1400  1  0.854000  0.346100  0.621700  1
  O  O1401  1  0.131000  0.673300  0.307600  1
  O  O1402  1  0.869000  0.326700  0.692400  1
  O  O1403  1  0.222700  0.600600  0.349400  1
  O  O1404  1  0.777300  0.399400  0.650600  1
  O  O1405  1  0.129100  0.555100  0.134000  1
  O  O1406  1  0.870900  0.444900  0.866000  1
  O  O1407  1  0.177700  0.498500  0.098300  1
  O  O1408  1  0.822300  0.501500  0.901700  1
  O  O1409  1  0.113600  0.603800  0.056400  1
  O  O1410  1  0.886400  0.396200  0.943600  1
  O  O1411  1  0.718900  0.402200  0.013000  1
  O  O1412  1  0.281100  0.597800  0.987000  1
  O  O1413  1  0.274700  0.775800  0.453800  1
  O  O1414  1  0.725300  0.224200  0.546200  1
  O  O1415  1  0.317000  0.799600  0.389300  1
  O  O1416  1  0.683000  0.200400  0.610700  1
  O  O1417  1  0.325400  0.704600  0.426100  1
  O  O1418  1  0.674600  0.295400  0.573900  1
  O  O1419  1  0.245000  0.837000  0.403000  1
  O  O1420  1  0.755000  0.163000  0.597000  1
  O  O1421  1  0.313000  0.824000  0.353000  1
  O  O1422  1  0.687000  0.176000  0.647000  1
  O  O1423  1  0.290000  0.742000  0.396000  1
  O  O1424  1  0.710000  0.258000  0.604000  1
  O  O1425  1  0.346500  0.478200  0.329200  1
  O  O1426  1  0.653500  0.521800  0.670800  1
  O  O1427  1  0.406700  0.388500  0.320000  1
  O  O1428  1  0.593300  0.611500  0.680000  1
  O  O1429  1  0.376800  0.483500  0.261700  1
  O  O1430  1  0.623200  0.516500  0.738300  1
  F  F1431  1  0.119800  0.800500  0.531400  1
  F  F1432  1  0.880200  0.199500  0.468600  1
  F  F1433  1  0.207800  0.767500  0.514100  1
  F  F1434  1  0.792200  0.232500  0.485900  1
  F  F1435  1  0.152600  0.720800  0.521000  1
  F  F1436  1  0.847400  0.279200  0.479000  1
  F  F1437  1  0.418200  0.802300  0.497000  1
  F  F1438  1  0.581800  0.197700  0.503000  1
  F  F1439  1  0.509200  0.757500  0.486400  1
  F  F1440  1  0.490800  0.242500  0.513600  1
  F  F1441  1  0.440600  0.754400  0.459200  1
  F  F1442  1  0.559400  0.245600  0.540800  1
  F  F1443  1  0.306300  0.474600  0.316700  1
  F  F1444  1  0.693700  0.525400  0.683300  1
  F  F1445  1  0.294700  0.400900  0.314200  1
  F  F1446  1  0.705300  0.599100  0.685800  1
  F  F1447  1  0.263710  0.483100  0.260200  1
  F  F1448  1  0.736290  0.516900  0.739800  1
  F  F1449  1  0.238800  0.708500  0.360500  1
  F  F1450  1  0.761200  0.291500  0.639500  1
  F  F1451  1  0.161400  0.770800  0.314600  1
  F  F1452  1  0.838600  0.229200  0.685400  1
  F  F1453  1  0.231700  0.718300  0.297600  1
  F  F1454  1  0.768300  0.281700  0.702400  1
  F  F1455  1  0.066000  0.520000  0.053600  1
  F  F1456  1  0.934000  0.480000  0.946400  1
  F  F1457  1  0.063400  0.492400  0.124300  1
  F  F1458  1  0.936600  0.507600  0.875700  1
  F  F1459  1  0.012900  0.582500  0.077900  1
  F  F1460  1  0.987100  0.417500  0.922100  1
  F  F1461  1  0.434900  0.731000  0.436600  1
  F  F1462  1  0.565100  0.269000  0.563400  1
  F  F1463  1  0.404600  0.697400  0.496200  1
  F  F1464  1  0.595400  0.302600  0.503800  1
  F  F1465  1  0.390000  0.788300  0.469000  1
  F  F1466  1  0.610000  0.211700  0.531000  1
  F  F1467  1  0.408200  0.743000  0.422800  1
  F  F1468  1  0.591800  0.257000  0.577200  1
  F  F1469  1  0.351000  0.724100  0.468600  1
  F  F1470  1  0.649000  0.275900  0.531400  1
  F  F1471  1  0.358000  0.805000  0.450400  1
  F  F1472  1  0.642000  0.195000  0.549600  1
  F  F1473  1  0.247200  0.469000  0.301300  1
  F  F1474  1  0.752800  0.531000  0.698700  1
  F  F1475  1  0.300300  0.387500  0.295600  1
  F  F1476  1  0.699700  0.612500  0.704400  1
  F  F1477  1  0.275700  0.469900  0.242500  1
  F  F1478  1  0.724300  0.530100  0.757500  1
