# generated using pymatgen
data_Co6B5H185C259S6N49(O11F26)2
_symmetry_space_group_name_H-M   'P 1'
_cell_length_a   21.25080000
_cell_length_b   21.61820000
_cell_length_c   39.59290000
_cell_angle_alpha   93.20800000
_cell_angle_beta   101.62400000
_cell_angle_gamma   118.52100000
_symmetry_Int_Tables_number   1
_chemical_formula_structural   Co6B5H185C259S6N49(O11F26)2
_chemical_formula_sum   'Co12 B10 H370 C518 S12 N98 O44 F104'
_cell_volume   15407.34144734
_cell_formula_units_Z   2
loop_
 _symmetry_equiv_pos_site_id
 _symmetry_equiv_pos_as_xyz
  1  'x, y, z'
loop_
 _atom_site_type_symbol
 _atom_site_label
 _atom_site_symmetry_multiplicity
 _atom_site_fract_x
 _atom_site_fract_y
 _atom_site_fract_z
 _atom_site_occupancy
  Co  Co1  1  0.309310  0.946020  0.399640  1
  Co  Co2  1  0.690690  0.053980  0.600360  1
  Co  Co3  1  0.531310  0.902610  0.128120  1
  Co  Co4  1  0.468690  0.097390  0.871880  1
  Co  Co5  1  0.134070  0.143420  0.118310  1
  Co  Co6  1  0.865930  0.856580  0.881690  1
  Co  Co7  1  0.561180  0.600140  0.398900  1
  Co  Co8  1  0.438820  0.399860  0.601100  1
  Co  Co9  1  0.730890  0.501400  0.124850  1
  Co  Co10  1  0.269110  0.498600  0.875150  1
  Co  Co11  1  0.964280  0.335520  0.406320  1
  Co  Co12  1  0.035720  0.664480  0.593680  1
  B  B13  1  0.137700  0.052900  0.454500  1
  B  B14  1  0.862300  0.947100  0.545500  1
  B  B15  1  0.126500  0.498200  0.054900  1
  B  B16  1  0.873500  0.501800  0.945100  1
  B  B17  1  0.450900  0.158800  0.087200  1
  B  B18  1  0.549100  0.841200  0.912800  1
  B  B19  1  0.301300  0.255700  0.021800  1
  B  B20  1  0.698700  0.744300  0.978200  1
  B  B21  1  0.892300  0.926600  0.327100  1
  B  B22  1  0.107700  0.073400  0.672900  1
  H  H23  1  0.256200  0.603600  0.292900  1
  H  H24  1  0.743800  0.396400  0.707100  1
  H  H25  1  0.279400  0.628400  0.334500  1
  H  H26  1  0.720600  0.371600  0.665500  1
  H  H27  1  0.199200  0.562000  0.315500  1
  H  H28  1  0.800800  0.438000  0.684500  1
  H  H29  1  0.148000  0.210300  0.477300  1
  H  H30  1  0.852000  0.789700  0.522700  1
  H  H31  1  0.142700  0.210900  0.436400  1
  H  H32  1  0.857300  0.789100  0.563600  1
  H  H33  1  0.079500  0.211700  0.452300  1
  H  H34  1  0.920500  0.788300  0.547700  1
  H  H35  1  0.005500  0.127900  0.571200  1
  H  H36  1  0.994500  0.872100  0.428800  1
  H  H37  1  0.061900  0.198300  0.599900  1
  H  H38  1  0.938100  0.801700  0.400100  1
  H  H39  1  0.066000  0.126600  0.602200  1
  H  H40  1  0.934000  0.873400  0.397800  1
  H  H41  1  0.179200  0.714200  0.266900  1
  H  H42  1  0.820800  0.285800  0.733100  1
  H  H43  1  0.230400  0.792500  0.259400  1
  H  H44  1  0.769600  0.207500  0.740600  1
  H  H45  1  0.190600  0.783000  0.290600  1
  H  H46  1  0.809400  0.217000  0.709400  1
  H  H47  1  0.823900  0.217000  0.050300  1
  H  H48  1  0.176100  0.783000  0.949700  1
  H  H49  1  0.799600  0.158300  0.075100  1
  H  H50  1  0.200400  0.841700  0.924900  1
  H  H51  1  0.757600  0.137100  0.034300  1
  H  H52  1  0.242400  0.862900  0.965700  1
  H  H53  1  0.773600  0.547900  0.983600  1
  H  H54  1  0.226400  0.452100  0.016400  1
  H  H55  1  0.786500  0.572500  0.024400  1
  H  H56  1  0.213500  0.427500  0.975600  1
  H  H57  1  0.742100  0.597000  0.995900  1
  H  H58  1  0.257900  0.403000  0.004100  1
  H  H59  1  0.254500  0.391000  0.078100  1
  H  H60  1  0.745500  0.609000  0.921900  1
  H  H61  1  0.269600  0.403900  0.119900  1
  H  H62  1  0.730400  0.596100  0.880100  1
  H  H63  1  0.279500  0.343300  0.100600  1
  H  H64  1  0.720500  0.656700  0.899400  1
  H  H65  1  0.738600  0.871300  0.413000  1
  H  H66  1  0.261400  0.128700  0.587000  1
  H  H67  1  0.771600  0.929700  0.447800  1
  H  H68  1  0.228400  0.070300  0.552200  1
  H  H69  1  0.727200  0.939300  0.412700  1
  H  H70  1  0.272800  0.060700  0.587300  1
  H  H71  1  0.096700  0.951800  0.249100  1
  H  H72  1  0.903300  0.048200  0.750900  1
  H  H73  1  0.177500  0.010400  0.272500  1
  H  H74  1  0.822500  0.989600  0.727500  1
  H  H75  1  0.116500  0.957800  0.290800  1
  H  H76  1  0.883500  0.042200  0.709200  1
  H  H77  1  0.505200  0.289800  0.299400  1
  H  H78  1  0.494800  0.710200  0.700600  1
  H  H79  1  0.563400  0.270700  0.355400  1
  H  H80  1  0.436600  0.729300  0.644600  1
  H  H81  1  0.525400  0.201400  0.325500  1
  H  H82  1  0.474600  0.798600  0.674500  1
  H  H83  1  0.613400  0.253300  0.335800  1
  H  H84  1  0.386600  0.746700  0.664200  1
  H  H85  1  0.593800  0.386800  0.338700  1
  H  H86  1  0.406200  0.613200  0.661300  1
  H  H87  1  0.658700  0.375700  0.330200  1
  H  H88  1  0.341300  0.624300  0.669800  1
  H  H89  1  0.614700  0.401300  0.302200  1
  H  H90  1  0.385300  0.598700  0.697800  1
  H  H91  1  0.519400  0.297700  0.245400  1
  H  H92  1  0.480600  0.702300  0.754600  1
  H  H93  1  0.404400  0.206100  0.215400  1
  H  H94  1  0.595600  0.793900  0.784600  1
  H  H95  1  0.414500  0.156900  0.242300  1
  H  H96  1  0.585500  0.843100  0.757700  1
  H  H97  1  0.415200  0.228100  0.256300  1
  H  H98  1  0.584800  0.771900  0.743700  1
  H  H99  1  0.502700  0.236400  0.191200  1
  H  H100  1  0.497300  0.763600  0.808800  1
  H  H101  1  0.586500  0.285600  0.214200  1
  H  H102  1  0.413500  0.714400  0.785800  1
  H  H103  1  0.546300  0.200600  0.211500  1
  H  H104  1  0.453700  0.799400  0.788500  1
  H  H105  1  0.991300  0.242900  0.466700  1
  H  H106  1  0.008700  0.757100  0.533300  1
  H  H107  1  0.055800  0.267300  0.525000  1
  H  H108  1  0.944200  0.732700  0.475000  1
  H  H109  1  0.112100  0.381600  0.557000  1
  H  H110  1  0.887900  0.618400  0.443000  1
  H  H111  1  0.143300  0.512500  0.557700  1
  H  H112  1  0.856700  0.487500  0.442300  1
  H  H113  1  0.139500  0.597700  0.527500  1
  H  H114  1  0.860500  0.402300  0.472500  1
  H  H115  1  0.093800  0.629900  0.468700  1
  H  H116  1  0.906200  0.370100  0.531300  1
  H  H117  1  0.025900  0.589800  0.410400  1
  H  H118  1  0.974100  0.410200  0.589600  1
  H  H119  1  0.943700  0.479400  0.357700  1
  H  H120  1  0.056300  0.520600  0.642300  1
  H  H121  1  0.833800  0.412900  0.324100  1
  H  H122  1  0.166200  0.587100  0.675900  1
  H  H123  1  0.751200  0.351300  0.270300  1
  H  H124  1  0.248800  0.648700  0.729700  1
  H  H125  1  0.834500  0.217900  0.270200  1
  H  H126  1  0.165500  0.782100  0.729800  1
  H  H127  1  0.907000  0.272500  0.326500  1
  H  H128  1  0.093000  0.727500  0.673500  1
  H  H129  1  0.853000  0.666000  0.117600  1
  H  H130  1  0.147000  0.334000  0.882400  1
  H  H131  1  0.850100  0.755700  0.086800  1
  H  H132  1  0.149900  0.244300  0.913200  1
  H  H133  1  0.739900  0.735300  0.050600  1
  H  H134  1  0.260100  0.264700  0.949400  1
  H  H135  1  0.600300  0.653800  0.028400  1
  H  H136  1  0.399700  0.346200  0.971600  1
  H  H137  1  0.497100  0.548900  0.026600  1
  H  H138  1  0.502900  0.451100  0.973400  1
  H  H139  1  0.440600  0.422500  0.042800  1
  H  H140  1  0.559400  0.577500  0.957200  1
  H  H141  1  0.458100  0.340100  0.073900  1
  H  H142  1  0.541900  0.659900  0.926100  1
  H  H143  1  0.555100  0.317200  0.116900  1
  H  H144  1  0.444900  0.682800  0.883100  1
  H  H145  1  0.575800  0.271000  0.153800  1
  H  H146  1  0.424200  0.729000  0.846200  1
  H  H147  1  0.611400  0.209700  0.192500  1
  H  H148  1  0.388600  0.790300  0.807500  1
  H  H149  1  0.820400  0.371600  0.215000  1
  H  H150  1  0.179600  0.628400  0.785000  1
  H  H151  1  0.785300  0.429000  0.174400  1
  H  H152  1  0.214700  0.571000  0.825600  1
  H  H153  1  0.406400  0.853100  0.052100  1
  H  H154  1  0.593600  0.146900  0.947900  1
  H  H155  1  0.294900  0.747900  0.021100  1
  H  H156  1  0.705100  0.252100  0.978900  1
  H  H157  1  0.270900  0.642300  0.040900  1
  H  H158  1  0.729100  0.357700  0.959100  1
  H  H159  1  0.292200  0.578400  0.091200  1
  H  H160  1  0.707800  0.421600  0.908800  1
  H  H161  1  0.360800  0.584800  0.146200  1
  H  H162  1  0.639200  0.415200  0.853800  1
  H  H163  1  0.469700  0.665800  0.199200  1
  H  H164  1  0.530300  0.334200  0.800800  1
  H  H165  1  0.563600  0.782300  0.227700  1
  H  H166  1  0.436400  0.217700  0.772300  1
  H  H167  1  0.620600  0.921600  0.226500  1
  H  H168  1  0.379400  0.078400  0.773500  1
  H  H169  1  0.610900  0.017700  0.242100  1
  H  H170  1  0.389100  0.982300  0.757900  1
  H  H171  1  0.671200  0.142100  0.262900  1
  H  H172  1  0.328800  0.857900  0.737100  1
  H  H173  1  0.736400  0.177000  0.173700  1
  H  H174  1  0.263600  0.823000  0.826300  1
  H  H175  1  0.670000  0.055900  0.151800  1
  H  H176  1  0.330000  0.944100  0.848200  1
  H  H177  1  0.226800  0.980600  0.455100  1
  H  H178  1  0.773200  0.019400  0.544900  1
  H  H179  1  0.228000  0.976000  0.513900  1
  H  H180  1  0.772000  0.024000  0.486100  1
  H  H181  1  0.308600  0.950000  0.549300  1
  H  H182  1  0.691400  0.050000  0.450700  1
  H  H183  1  0.410800  0.915400  0.554700  1
  H  H184  1  0.589200  0.084600  0.445300  1
  H  H185  1  0.484100  0.890000  0.528400  1
  H  H186  1  0.515900  0.110000  0.471600  1
  H  H187  1  0.522700  0.876100  0.471500  1
  H  H188  1  0.477300  0.123900  0.528500  1
  H  H189  1  0.509900  0.884800  0.412600  1
  H  H190  1  0.490100  0.115200  0.587400  1
  H  H191  1  0.443600  0.915500  0.356900  1
  H  H192  1  0.556400  0.084500  0.643100  1
  H  H193  1  0.459300  0.981400  0.318600  1
  H  H194  1  0.540700  0.018600  0.681400  1
  H  H195  1  0.438700  0.002200  0.262200  1
  H  H196  1  0.561300  0.997800  0.737800  1
  H  H197  1  0.234500  0.963200  0.264400  1
  H  H198  1  0.765500  0.036800  0.735600  1
  H  H199  1  0.255900  0.942000  0.321800  1
  H  H200  1  0.744100  0.058000  0.678200  1
  H  H201  1  0.629600  0.818400  0.141700  1
  H  H202  1  0.370400  0.181600  0.858300  1
  H  H203  1  0.702600  0.791000  0.112600  1
  H  H204  1  0.297400  0.209000  0.887400  1
  H  H205  1  0.716300  0.827800  0.059000  1
  H  H206  1  0.283700  0.172200  0.941000  1
  H  H207  1  0.701600  0.903800  0.015900  1
  H  H208  1  0.298400  0.096200  0.984100  1
  H  H209  1  0.659400  0.978800  0.998400  1
  H  H210  1  0.340600  0.021200  0.001600  1
  H  H211  1  0.595200  0.048900  0.012200  1
  H  H212  1  0.404800  0.951100  0.987800  1
  H  H213  1  0.524700  0.068500  0.046700  1
  H  H214  1  0.475300  0.931500  0.953300  1
  H  H215  1  0.470600  0.040300  0.101800  1
  H  H216  1  0.529400  0.959700  0.898200  1
  H  H217  1  0.466800  0.080900  0.150300  1
  H  H218  1  0.533200  0.919100  0.849700  1
  H  H219  1  0.397400  0.088100  0.187300  1
  H  H220  1  0.602600  0.911900  0.812700  1
  H  H221  1  0.346200  0.891300  0.205300  1
  H  H222  1  0.653800  0.108700  0.794700  1
  H  H223  1  0.415500  0.885400  0.167000  1
  H  H224  1  0.584500  0.114600  0.833000  1
  H  H225  1  0.171600  0.213200  0.047200  1
  H  H226  1  0.828400  0.786800  0.952800  1
  H  H227  1  0.135900  0.283100  0.012900  1
  H  H228  1  0.864100  0.716900  0.987100  1
  H  H229  1  0.065700  0.325700  0.031000  1
  H  H230  1  0.934300  0.674300  0.969000  1
  H  H231  1  0.004900  0.340900  0.078700  1
  H  H232  1  0.995100  0.659100  0.921300  1
  H  H233  1  0.970500  0.311700  0.129500  1
  H  H234  1  0.029500  0.688300  0.870500  1
  H  H235  1  0.984400  0.253300  0.184400  1
  H  H236  1  0.015600  0.746700  0.815600  1
  H  H237  1  0.031500  0.187100  0.213900  1
  H  H238  1  0.968500  0.812900  0.786100  1
  H  H239  1  0.116200  0.124500  0.213100  1
  H  H240  1  0.883800  0.875500  0.786900  1
  H  H241  1  0.236900  0.148000  0.233500  1
  H  H242  1  0.763100  0.852000  0.766500  1
  H  H243  1  0.307200  0.096000  0.255300  1
  H  H244  1  0.692800  0.904000  0.744700  1
  H  H245  1  0.225700  0.960700  0.162900  1
  H  H246  1  0.774300  0.039300  0.837100  1
  H  H247  1  0.159300  0.014900  0.141100  1
  H  H248  1  0.840700  0.985100  0.858900  1
  H  H249  1  0.711500  0.740800  0.451700  1
  H  H250  1  0.288500  0.259200  0.548300  1
  H  H251  1  0.748500  0.795600  0.510100  1
  H  H252  1  0.251500  0.204400  0.489900  1
  H  H253  1  0.674300  0.745200  0.546900  1
  H  H254  1  0.325700  0.254800  0.453100  1
  H  H255  1  0.550100  0.646100  0.554700  1
  H  H256  1  0.449900  0.353900  0.445300  1
  H  H257  1  0.437000  0.548700  0.530100  1
  H  H258  1  0.563000  0.451300  0.469900  1
  H  H259  1  0.343200  0.456600  0.474400  1
  H  H260  1  0.656800  0.543400  0.525600  1
  H  H261  1  0.318900  0.412900  0.414500  1
  H  H262  1  0.681100  0.587100  0.585500  1
  H  H263  1  0.370300  0.428700  0.357600  1
  H  H264  1  0.629700  0.571300  0.642400  1
  H  H265  1  0.394200  0.379900  0.318600  1
  H  H266  1  0.605800  0.620100  0.681400  1
  H  H267  1  0.399300  0.347400  0.262800  1
  H  H268  1  0.600700  0.652600  0.737200  1
  H  H269  1  0.549800  0.553400  0.264800  1
  H  H270  1  0.450200  0.446600  0.735200  1
  H  H271  1  0.545800  0.583000  0.320800  1
  H  H272  1  0.454200  0.417000  0.679200  1
  H  H273  1  0.954400  0.077500  0.116600  1
  H  H274  1  0.045600  0.922500  0.883400  1
  H  H275  1  0.838600  0.986800  0.082200  1
  H  H276  1  0.161400  0.013200  0.917800  1
  H  H277  1  0.835400  0.907900  0.038700  1
  H  H278  1  0.164600  0.092100  0.961300  1
  H  H279  1  0.905500  0.870000  0.005500  1
  H  H280  1  0.094500  0.130000  0.994500  1
  H  H281  1  0.014600  0.892400  0.994900  1
  H  H282  1  0.985400  0.107600  0.005100  1
  H  H283  1  0.157700  0.971400  0.012100  1
  H  H284  1  0.842300  0.028600  0.987900  1
  H  H285  1  0.264600  0.065100  0.050000  1
  H  H286  1  0.735400  0.934900  0.950000  1
  H  H287  1  0.321900  0.171700  0.103900  1
  H  H288  1  0.678100  0.828300  0.896100  1
  H  H289  1  0.398000  0.240300  0.142900  1
  H  H290  1  0.602000  0.759700  0.857100  1
  H  H291  1  0.490400  0.337200  0.184300  1
  H  H292  1  0.509600  0.662800  0.815700  1
  H  H293  1  0.336000  0.375600  0.207400  1
  H  H294  1  0.664000  0.624400  0.792600  1
  H  H295  1  0.244800  0.276800  0.167100  1
  H  H296  1  0.755200  0.723200  0.832900  1
  H  H297  1  0.699200  0.389200  0.053900  1
  H  H298  1  0.300800  0.610800  0.946100  1
  H  H299  1  0.775200  0.371200  0.022300  1
  H  H300  1  0.224800  0.628800  0.977700  1
  H  H301  1  0.899900  0.433900  0.042700  1
  H  H302  1  0.100100  0.566100  0.957300  1
  H  H303  1  0.017100  0.529400  0.090600  1
  H  H304  1  0.982900  0.470600  0.909400  1
  H  H305  1  0.068600  0.609700  0.141800  1
  H  H306  1  0.931400  0.390300  0.858200  1
  H  H307  1  0.043200  0.667400  0.192900  1
  H  H308  1  0.956800  0.332600  0.807100  1
  H  H309  1  0.954300  0.673300  0.218100  1
  H  H310  1  0.045700  0.326700  0.781900  1
  H  H311  1  0.813400  0.607600  0.219400  1
  H  H312  1  0.186600  0.392400  0.780600  1
  H  H313  1  0.720800  0.505000  0.237100  1
  H  H314  1  0.279200  0.495000  0.762900  1
  H  H315  1  0.613400  0.458900  0.257000  1
  H  H316  1  0.386600  0.541100  0.743000  1
  H  H317  1  0.507300  0.494100  0.170800  1
  H  H318  1  0.492700  0.505900  0.829200  1
  H  H319  1  0.612900  0.538900  0.151000  1
  H  H320  1  0.387100  0.461100  0.849000  1
  H  H321  1  0.427500  0.639900  0.390400  1
  H  H322  1  0.572500  0.360100  0.609600  1
  H  H323  1  0.404100  0.727600  0.368400  1
  H  H324  1  0.595900  0.272400  0.631600  1
  H  H325  1  0.488100  0.813100  0.344700  1
  H  H326  1  0.511900  0.186900  0.655300  1
  H  H327  1  0.612600  0.865800  0.327700  1
  H  H328  1  0.387400  0.134200  0.672300  1
  H  H329  1  0.713200  0.856400  0.323500  1
  H  H330  1  0.286800  0.143600  0.676500  1
  H  H331  1  0.789900  0.792100  0.338900  1
  H  H332  1  0.210100  0.207900  0.661100  1
  H  H333  1  0.799900  0.702100  0.364700  1
  H  H334  1  0.200100  0.297900  0.635300  1
  H  H335  1  0.737400  0.590200  0.397000  1
  H  H336  1  0.262600  0.409800  0.603000  1
  H  H337  1  0.732600  0.543900  0.452100  1
  H  H338  1  0.267400  0.456100  0.547900  1
  H  H339  1  0.725800  0.439000  0.467500  1
  H  H340  1  0.274200  0.561000  0.532500  1
  H  H341  1  0.523900  0.323600  0.398300  1
  H  H342  1  0.476100  0.676400  0.601700  1
  H  H343  1  0.530000  0.429500  0.384900  1
  H  H344  1  0.470000  0.570500  0.615100  1
  H  H345  1  0.124200  0.458600  0.394900  1
  H  H346  1  0.875800  0.541400  0.605100  1
  H  H347  1  0.220800  0.461600  0.374000  1
  H  H348  1  0.779200  0.538400  0.626000  1
  H  H349  1  0.216200  0.355300  0.356500  1
  H  H350  1  0.783800  0.644700  0.643500  1
  H  H351  1  0.148600  0.217800  0.350100  1
  H  H352  1  0.851400  0.782200  0.649900  1
  H  H353  1  0.047200  0.115300  0.353600  1
  H  H354  1  0.952800  0.884700  0.646400  1
  H  H355  1  0.919400  0.054800  0.367900  1
  H  H356  1  0.080600  0.945200  0.632100  1
  H  H357  1  0.827000  0.067400  0.385000  1
  H  H358  1  0.173000  0.932600  0.615000  1
  H  H359  1  0.788800  0.158700  0.409600  1
  H  H360  1  0.211200  0.841300  0.590400  1
  H  H361  1  0.775900  0.214300  0.458100  1
  H  H362  1  0.224100  0.785700  0.541900  1
  H  H363  1  0.686400  0.238200  0.471200  1
  H  H364  1  0.313600  0.761800  0.528800  1
  H  H365  1  0.717800  0.369800  0.400200  1
  H  H366  1  0.282200  0.630200  0.599800  1
  H  H367  1  0.812700  0.351000  0.389400  1
  H  H368  1  0.187300  0.649000  0.610600  1
  H  H369  1  0.275200  0.777400  0.393800  1
  H  H370  1  0.724800  0.222600  0.606200  1
  H  H371  1  0.171700  0.663700  0.377100  1
  H  H372  1  0.828300  0.336300  0.622900  1
  H  H373  1  0.055500  0.648800  0.354800  1
  H  H374  1  0.944500  0.351200  0.645200  1
  H  H375  1  0.976000  0.709300  0.339700  1
  H  H376  1  0.024000  0.290700  0.660300  1
  H  H377  1  0.970000  0.811700  0.336100  1
  H  H378  1  0.030000  0.188300  0.663900  1
  H  H379  1  0.040300  0.951700  0.349200  1
  H  H380  1  0.959700  0.048300  0.650800  1
  H  H381  1  0.152700  0.058300  0.369600  1
  H  H382  1  0.847300  0.941700  0.630400  1
  H  H383  1  0.298700  0.119500  0.398300  1
  H  H384  1  0.701300  0.880500  0.601700  1
  H  H385  1  0.463900  0.081400  0.386000  1
  H  H386  1  0.536100  0.918600  0.614000  1
  H  H387  1  0.580100  0.184100  0.399400  1
  H  H388  1  0.419900  0.815900  0.600600  1
  H  H389  1  0.515800  0.275900  0.466600  1
  H  H390  1  0.484200  0.724100  0.533400  1
  H  H391  1  0.397100  0.176600  0.450100  1
  H  H392  1  0.602900  0.823400  0.549900  1
  C  C393  1  0.784000  0.548000  0.319700  1
  C  C394  1  0.216000  0.452000  0.680300  1
  C  C395  1  0.333500  0.205100  0.331000  1
  C  C396  1  0.666500  0.794900  0.669000  1
  C  C397  1  0.650900  0.093900  0.337100  1
  C  C398  1  0.349100  0.906100  0.662900  1
  C  C399  1  0.363500  0.676900  0.462400  1
  C  C400  1  0.636500  0.323100  0.537600  1
  C  C401  1  0.251600  0.587200  0.315400  1
  C  C402  1  0.748400  0.412800  0.684600  1
  C  C403  1  0.281700  0.537900  0.320100  1
  C  C404  1  0.718300  0.462100  0.679900  1
  C  C405  1  0.132700  0.228400  0.456900  1
  C  C406  1  0.867300  0.771600  0.543100  1
  C  C407  1  0.173900  0.305800  0.463900  1
  C  C408  1  0.826100  0.694200  0.536100  1
  C  C409  1  0.056200  0.155900  0.586300  1
  C  C410  1  0.943800  0.844100  0.413700  1
  C  C411  1  0.109400  0.178500  0.564300  1
  C  C412  1  0.890600  0.821500  0.435700  1
  C  C413  1  0.214500  0.764300  0.277700  1
  C  C414  1  0.785500  0.235700  0.722300  1
  C  C415  1  0.280100  0.768900  0.302300  1
  C  C416  1  0.719900  0.231100  0.697700  1
  C  C417  1  0.805600  0.166300  0.051500  1
  C  C418  1  0.194400  0.833700  0.948500  1
  C  C419  1  0.859500  0.146000  0.044000  1
  C  C420  1  0.140500  0.854000  0.956000  1
  C  C421  1  0.751900  0.558200  0.001200  1
  C  C422  1  0.248100  0.441800  0.998800  1
  C  C423  1  0.682400  0.494100  0.000800  1
  C  C424  1  0.317600  0.505900  0.999200  1
  C  C425  1  0.285200  0.391100  0.100300  1
  C  C426  1  0.714800  0.608900  0.899700  1
  C  C427  1  0.360500  0.441500  0.103400  1
  C  C428  1  0.639500  0.558500  0.896600  1
  C  C429  1  0.730300  0.904500  0.426800  1
  C  C430  1  0.269700  0.095500  0.573200  1
  C  C431  1  0.662400  0.865400  0.436700  1
  C  C432  1  0.337600  0.134600  0.563300  1
  C  C433  1  0.124600  0.984800  0.271600  1
  C  C434  1  0.875400  0.015200  0.728400  1
  C  C435  1  0.099900  0.034600  0.274700  1
  C  C436  1  0.900100  0.965400  0.725300  1
  C  C437  1  0.556000  0.296800  0.304500  1
  C  C438  1  0.444000  0.703200  0.695500  1
  C  C439  1  0.566000  0.251000  0.333000  1
  C  C440  1  0.434000  0.749000  0.667000  1
  C  C441  1  0.610400  0.371300  0.320200  1
  C  C442  1  0.389600  0.628700  0.679800  1
  C  C443  1  0.511600  0.248000  0.244300  1
  C  C444  1  0.488400  0.752000  0.755700  1
  C  C445  1  0.429300  0.206000  0.239100  1
  C  C446  1  0.570700  0.794000  0.760900  1
  C  C447  1  0.539000  0.242000  0.212500  1
  C  C448  1  0.461000  0.758000  0.787500  1
  C  C449  1  0.015500  0.290500  0.479150  1
  C  C450  1  0.984500  0.709500  0.520850  1
  C  C451  1  0.053400  0.304600  0.514180  1
  C  C452  1  0.946600  0.695400  0.485820  1
  C  C453  1  0.087200  0.371900  0.532920  1
  C  C454  1  0.912800  0.628100  0.467080  1
  C  C455  1  0.084800  0.425800  0.516610  1
  C  C456  1  0.915200  0.574200  0.483390  1
  C  C457  1  0.118500  0.499300  0.533450  1
  C  C458  1  0.881500  0.500700  0.466550  1
  C  C459  1  0.115600  0.549700  0.515660  1
  C  C460  1  0.884400  0.450300  0.484340  1
  C  C461  1  0.077700  0.532700  0.479540  1
  C  C462  1  0.922300  0.467300  0.520460  1
  C  C463  1  0.070800  0.580700  0.458810  1
  C  C464  1  0.929200  0.419300  0.541190  1
  C  C465  1  0.031100  0.557300  0.424300  1
  C  C466  1  0.968900  0.442700  0.575700  1
  C  C467  1  0.998400  0.484900  0.409830  1
  C  C468  1  0.001600  0.515100  0.590170  1
  C  C469  1  0.042900  0.460700  0.462870  1
  C  C470  1  0.957100  0.539300  0.537130  1
  C  C471  1  0.046600  0.407500  0.481120  1
  C  C472  1  0.953400  0.592500  0.518880  1
  C  C473  1  0.953500  0.452000  0.373710  1
  C  C474  1  0.046500  0.548000  0.626290  1
  C  C475  1  0.879400  0.349500  0.330630  1
  C  C476  1  0.120600  0.650500  0.669370  1
  C  C477  1  0.832800  0.372000  0.313260  1
  C  C478  1  0.167200  0.628000  0.686740  1
  C  C479  1  0.785400  0.337100  0.280940  1
  C  C480  1  0.214600  0.662900  0.719060  1
  C  C481  1  0.788000  0.280600  0.263880  1
  C  C482  1  0.212000  0.719400  0.736120  1
  C  C483  1  0.833600  0.257400  0.281330  1
  C  C484  1  0.166400  0.742600  0.718670  1
  C  C485  1  0.877500  0.290500  0.314530  1
  C  C486  1  0.122500  0.709500  0.685470  1
  C  C487  1  0.807200  0.657100  0.102900  1
  C  C488  1  0.192800  0.342900  0.897100  1
  C  C489  1  0.805700  0.711500  0.084400  1
  C  C490  1  0.194300  0.288500  0.915600  1
  C  C491  1  0.741500  0.700000  0.063500  1
  C  C492  1  0.258500  0.300000  0.936500  1
  C  C493  1  0.678100  0.636200  0.061100  1
  C  C494  1  0.321900  0.363800  0.938900  1
  C  C495  1  0.604900  0.619300  0.041000  1
  C  C496  1  0.395100  0.380700  0.959000  1
  C  C497  1  0.544100  0.557200  0.039500  1
  C  C498  1  0.455900  0.442800  0.960500  1
  C  C499  1  0.549100  0.502700  0.057200  1
  C  C500  1  0.450900  0.497300  0.942800  1
  C  C501  1  0.488700  0.435000  0.056200  1
  C  C502  1  0.511300  0.565000  0.943800  1
  C  C503  1  0.498500  0.386200  0.074600  1
  C  C504  1  0.501500  0.613800  0.925400  1
  C  C505  1  0.570800  0.407800  0.094300  1
  C  C506  1  0.429200  0.592200  0.905700  1
  C  C507  1  0.618600  0.518600  0.077000  1
  C  C508  1  0.381400  0.481400  0.923000  1
  C  C509  1  0.682700  0.584800  0.079300  1
  C  C510  1  0.317300  0.415200  0.920700  1
  C  C511  1  0.591000  0.364800  0.116200  1
  C  C512  1  0.409000  0.635200  0.883800  1
  C  C513  1  0.678400  0.353800  0.158200  1
  C  C514  1  0.321600  0.646200  0.841800  1
  C  C515  1  0.626800  0.290300  0.165200  1
  C  C516  1  0.373200  0.709700  0.834800  1
  C  C517  1  0.647700  0.254100  0.188400  1
  C  C518  1  0.352300  0.745900  0.811600  1
  C  C519  1  0.721400  0.282400  0.205710  1
  C  C520  1  0.278600  0.717600  0.794290  1
  C  C521  1  0.770500  0.348700  0.201300  1
  C  C522  1  0.229500  0.651300  0.798700  1
  C  C523  1  0.749300  0.383300  0.177500  1
  C  C524  1  0.250700  0.616700  0.822500  1
  C  C525  1  0.390300  0.810500  0.061700  1
  C  C526  1  0.609700  0.189500  0.938300  1
  C  C527  1  0.325500  0.747400  0.042100  1
  C  C528  1  0.674500  0.252600  0.957900  1
  C  C529  1  0.310000  0.686300  0.055000  1
  C  C530  1  0.690000  0.313700  0.945000  1
  C  C531  1  0.347700  0.684600  0.087300  1
  C  C532  1  0.652300  0.315400  0.912700  1
  C  C533  1  0.332200  0.623600  0.103600  1
  C  C534  1  0.667800  0.376400  0.896400  1
  C  C535  1  0.372000  0.626600  0.136200  1
  C  C536  1  0.628000  0.373400  0.863800  1
  C  C537  1  0.432200  0.696900  0.154900  1
  C  C538  1  0.567800  0.303100  0.845100  1
  C  C539  1  0.477200  0.706000  0.188300  1
  C  C540  1  0.522800  0.294000  0.811700  1
  C  C541  1  0.532600  0.774300  0.205100  1
  C  C542  1  0.467400  0.225700  0.794900  1
  C  C543  1  0.541000  0.831400  0.187200  1
  C  C544  1  0.459000  0.168600  0.812800  1
  C  C545  1  0.448900  0.755900  0.139100  1
  C  C546  1  0.551100  0.244100  0.860900  1
  C  C547  1  0.408200  0.751100  0.106000  1
  C  C548  1  0.591800  0.248900  0.894000  1
  C  C549  1  0.592900  0.906800  0.202700  1
  C  C550  1  0.407100  0.093200  0.797300  1
  C  C551  1  0.638500  0.026800  0.195700  1
  C  C552  1  0.361500  0.973200  0.804300  1
  C  C553  1  0.636300  0.050800  0.228200  1
  C  C554  1  0.363700  0.949200  0.771800  1
  C  C555  1  0.672000  0.124800  0.240500  1
  C  C556  1  0.328000  0.875200  0.759500  1
  C  C557  1  0.707200  0.171100  0.220300  1
  C  C558  1  0.292800  0.828900  0.779700  1
  C  C559  1  0.709000  0.144400  0.187300  1
  C  C560  1  0.291000  0.855600  0.812700  1
  C  C561  1  0.672200  0.073200  0.174800  1
  C  C562  1  0.327800  0.926800  0.825200  1
  C  C563  1  0.259900  0.968700  0.469150  1
  C  C564  1  0.740100  0.031300  0.530850  1
  C  C565  1  0.260800  0.966500  0.504500  1
  C  C566  1  0.739200  0.033500  0.495500  1
  C  C567  1  0.307800  0.950900  0.525310  1
  C  C568  1  0.692200  0.049100  0.474690  1
  C  C569  1  0.355700  0.935900  0.511340  1
  C  C570  1  0.644300  0.064100  0.488660  1
  C  C571  1  0.407100  0.917100  0.530510  1
  C  C572  1  0.592900  0.082900  0.469490  1
  C  C573  1  0.450400  0.902000  0.514940  1
  C  C574  1  0.549600  0.098000  0.485060  1
  C  C575  1  0.446000  0.903600  0.478500  1
  C  C576  1  0.554000  0.096400  0.521500  1
  C  C577  1  0.488500  0.889400  0.459930  1
  C  C578  1  0.511500  0.110600  0.540070  1
  C  C579  1  0.481000  0.894500  0.425160  1
  C  C580  1  0.519000  0.105500  0.574840  1
  C  C581  1  0.430600  0.914100  0.408190  1
  C  C582  1  0.569400  0.085900  0.591810  1
  C  C583  1  0.396600  0.923000  0.459600  1
  C  C584  1  0.603400  0.077000  0.540400  1
  C  C585  1  0.349900  0.938000  0.475760  1
  C  C586  1  0.650100  0.062000  0.524240  1
  C  C587  1  0.417000  0.923000  0.371790  1
  C  C588  1  0.583000  0.077000  0.628210  1
  C  C589  1  0.358600  0.955900  0.325180  1
  C  C590  1  0.641400  0.044100  0.674820  1
  C  C591  1  0.412700  0.976200  0.307450  1
  C  C592  1  0.587300  0.023800  0.692550  1
  C  C593  1  0.400700  0.989000  0.274080  1
  C  C594  1  0.599300  0.011000  0.725920  1
  C  C595  1  0.334000  0.983100  0.257390  1
  C  C596  1  0.666000  0.016900  0.742610  1
  C  C597  1  0.280100  0.966100  0.275300  1
  C  C598  1  0.719900  0.033900  0.724700  1
  C  C599  1  0.292700  0.953000  0.309350  1
  C  C600  1  0.707300  0.047000  0.690650  1
  C  C601  1  0.638900  0.837000  0.121000  1
  C  C602  1  0.361100  0.163000  0.879000  1
  C  C603  1  0.681900  0.818800  0.103300  1
  C  C604  1  0.318100  0.181200  0.896700  1
  C  C605  1  0.692200  0.842600  0.072600  1
  C  C606  1  0.307800  0.157400  0.927400  1
  C  C607  1  0.667900  0.887900  0.061400  1
  C  C608  1  0.332100  0.112100  0.938600  1
  C  C609  1  0.676600  0.916300  0.029900  1
  C  C610  1  0.323400  0.083700  0.970100  1
  C  C611  1  0.651000  0.960000  0.019200  1
  C  C612  1  0.349000  0.040000  0.980800  1
  C  C613  1  0.610400  0.978300  0.039500  1
  C  C614  1  0.389600  0.021700  0.960500  1
  C  C615  1  0.585000  0.025100  0.031500  1
  C  C616  1  0.415000  0.974900  0.968500  1
  C  C617  1  0.543900  0.037500  0.052100  1
  C  C618  1  0.456100  0.962500  0.947900  1
  C  C619  1  0.532500  0.001800  0.080800  1
  C  C620  1  0.467500  0.998200  0.919200  1
  C  C621  1  0.599200  0.947100  0.068500  1
  C  C622  1  0.400800  0.052900  0.931500  1
  C  C623  1  0.625400  0.902300  0.080100  1
  C  C624  1  0.374600  0.097700  0.919900  1
  C  C625  1  0.490500  0.009300  0.104600  1
  C  C626  1  0.509500  0.990700  0.895400  1
  C  C627  1  0.443300  0.980700  0.153800  1
  C  C628  1  0.556700  0.019300  0.846200  1
  C  C629  1  0.440600  0.041100  0.160800  1
  C  C630  1  0.559400  0.958900  0.839200  1
  C  C631  1  0.400100  0.045700  0.183300  1
  C  C632  1  0.599900  0.954300  0.816700  1
  C  C633  1  0.364100  0.990400  0.199900  1
  C  C634  1  0.635900  0.009600  0.800100  1
  C  C635  1  0.369900  0.930400  0.193800  1
  C  C636  1  0.630100  0.069600  0.806200  1
  C  C637  1  0.410900  0.926700  0.170700  1
  C  C638  1  0.589100  0.073300  0.829300  1
  C  C639  1  0.143100  0.231600  0.054900  1
  C  C640  1  0.856900  0.768400  0.945100  1
  C  C641  1  0.121900  0.273500  0.034100  1
  C  C642  1  0.878100  0.726500  0.965900  1
  C  C643  1  0.081700  0.299200  0.045200  1
  C  C644  1  0.918300  0.700800  0.954800  1
  C  C645  1  0.063000  0.287800  0.076800  1
  C  C646  1  0.937000  0.712200  0.923200  1
  C  C647  1  0.020500  0.312100  0.091100  1
  C  C648  1  0.979500  0.687900  0.908900  1
  C  C649  1  0.001000  0.296300  0.121700  1
  C  C650  1  0.999000  0.703700  0.878300  1
  C  C651  1  0.026900  0.255900  0.141900  1
  C  C652  1  0.973100  0.744100  0.858100  1
  C  C653  1  0.013000  0.238100  0.174400  1
  C  C654  1  0.987000  0.761900  0.825600  1
  C  C655  1  0.040400  0.198900  0.191900  1
  C  C656  1  0.959600  0.801100  0.808100  1
  C  C657  1  0.082000  0.177100  0.176200  1
  C  C658  1  0.918000  0.822900  0.823800  1
  C  C659  1  0.068300  0.232000  0.128200  1
  C  C660  1  0.931700  0.768000  0.871800  1
  C  C661  1  0.085100  0.245300  0.095800  1
  C  C662  1  0.914900  0.754700  0.904200  1
  C  C663  1  0.116400  0.135900  0.190300  1
  C  C664  1  0.883600  0.864100  0.809700  1
  C  C665  1  0.188700  0.084300  0.185450  1
  C  C666  1  0.811300  0.915700  0.814550  1
  C  C667  1  0.234600  0.110000  0.219170  1
  C  C668  1  0.765400  0.890000  0.780830  1
  C  C669  1  0.277400  0.079700  0.231900  1
  C  C670  1  0.722600  0.920300  0.768100  1
  C  C671  1  0.277400  0.026800  0.211220  1
  C  C672  1  0.722600  0.973200  0.788780  1
  C  C673  1  0.229400  0.999900  0.177050  1
  C  C674  1  0.770600  0.000100  0.822950  1
  C  C675  1  0.188600  0.030700  0.164700  1
  C  C676  1  0.811400  0.969300  0.835300  1
  C  C677  1  0.679400  0.720100  0.466410  1
  C  C678  1  0.320600  0.279900  0.533590  1
  C  C679  1  0.702100  0.752900  0.501500  1
  C  C680  1  0.297900  0.247100  0.498500  1
  C  C681  1  0.658000  0.723600  0.522960  1
  C  C682  1  0.342000  0.276400  0.477040  1
  C  C683  1  0.589100  0.662300  0.510350  1
  C  C684  1  0.410900  0.337700  0.489650  1
  C  C685  1  0.537100  0.627700  0.530460  1
  C  C686  1  0.462900  0.372300  0.469540  1
  C  C687  1  0.470200  0.569900  0.515970  1
  C  C688  1  0.529800  0.430100  0.484030  1
  C  C689  1  0.448000  0.539200  0.479160  1
  C  C690  1  0.552000  0.460800  0.520840  1
  C  C691  1  0.379700  0.479600  0.461960  1
  C  C692  1  0.620300  0.520400  0.538040  1
  C  C693  1  0.365000  0.453500  0.426530  1
  C  C694  1  0.635000  0.546500  0.573470  1
  C  C695  1  0.420600  0.489300  0.409240  1
  C  C696  1  0.579400  0.510700  0.590760  1
  C  C697  1  0.500000  0.571600  0.459800  1
  C  C698  1  0.500000  0.428400  0.540200  1
  C  C699  1  0.570200  0.632900  0.474500  1
  C  C700  1  0.429800  0.367100  0.525500  1
  C  C701  1  0.414200  0.468600  0.372100  1
  C  C702  1  0.585800  0.531400  0.627900  1
  C  C703  1  0.469300  0.484600  0.325270  1
  C  C704  1  0.530700  0.515400  0.674730  1
  C  C705  1  0.426500  0.415300  0.307660  1
  C  C706  1  0.573500  0.584700  0.692340  1
  C  C707  1  0.429300  0.395700  0.274470  1
  C  C708  1  0.570700  0.604300  0.725530  1
  C  C709  1  0.476100  0.447100  0.258230  1
  C  C710  1  0.523900  0.552900  0.741770  1
  C  C711  1  0.518400  0.517300  0.275810  1
  C  C712  1  0.481600  0.482700  0.724190  1
  C  C713  1  0.515300  0.534900  0.308910  1
  C  C714  1  0.484700  0.465100  0.691090  1
  C  C715  1  0.953400  0.046600  0.098200  1
  C  C716  1  0.046600  0.953400  0.901800  1
  C  C717  1  0.883000  0.991700  0.078000  1
  C  C718  1  0.117000  0.008300  0.922000  1
  C  C719  1  0.881600  0.946200  0.052500  1
  C  C720  1  0.118400  0.053800  0.947500  1
  C  C721  1  0.946500  0.955300  0.046300  1
  C  C722  1  0.053500  0.044700  0.953700  1
  C  C723  1  0.950300  0.909900  0.019400  1
  C  C724  1  0.049700  0.090100  0.980600  1
  C  C725  1  0.014700  0.922200  0.013400  1
  C  C726  1  0.985300  0.077800  0.986600  1
  C  C727  1  0.084300  0.980100  0.034840  1
  C  C728  1  0.915700  0.019900  0.965160  1
  C  C729  1  0.153700  0.998200  0.030500  1
  C  C730  1  0.846300  0.001800  0.969500  1
  C  C731  1  0.217000  0.054300  0.052500  1
  C  C732  1  0.783000  0.945700  0.947500  1
  C  C733  1  0.210100  0.095300  0.078580  1
  C  C734  1  0.789900  0.904700  0.921420  1
  C  C735  1  0.080800  0.023600  0.061320  1
  C  C736  1  0.919200  0.976400  0.938680  1
  C  C737  1  0.013200  0.010500  0.067720  1
  C  C738  1  0.986800  0.989500  0.932280  1
  C  C739  1  0.271800  0.156500  0.103540  1
  C  C740  1  0.728200  0.843500  0.896460  1
  C  C741  1  0.312400  0.248500  0.150580  1
  C  C742  1  0.687600  0.751500  0.849420  1
  C  C743  1  0.384900  0.268000  0.156300  1
  C  C744  1  0.615100  0.732000  0.843700  1
  C  C745  1  0.440400  0.326200  0.180700  1
  C  C746  1  0.559600  0.673800  0.819300  1
  C  C747  1  0.423100  0.368800  0.199990  1
  C  C748  1  0.576900  0.631200  0.800010  1
  C  C749  1  0.349800  0.348200  0.194200  1
  C  C750  1  0.650200  0.651800  0.805800  1
  C  C751  1  0.295200  0.289300  0.170140  1
  C  C752  1  0.704800  0.710700  0.829860  1
  C  C753  1  0.751700  0.415450  0.062440  1
  C  C754  1  0.248300  0.584550  0.937560  1
  C  C755  1  0.797300  0.404730  0.043530  1
  C  C756  1  0.202700  0.595270  0.956470  1
  C  C757  1  0.870900  0.442050  0.055820  1
  C  C758  1  0.129100  0.557950  0.944180  1
  C  C759  1  0.907500  0.491700  0.086400  1
  C  C760  1  0.092500  0.508300  0.913600  1
  C  C761  1  0.984600  0.534700  0.102300  1
  C  C762  1  0.015400  0.465300  0.897700  1
  C  C763  1  0.016200  0.582600  0.132600  1
  C  C764  1  0.983800  0.417400  0.867400  1
  C  C765  1  0.966500  0.590800  0.150500  1
  C  C766  1  0.033500  0.409200  0.849500  1
  C  C767  1  0.991700  0.638300  0.182000  1
  C  C768  1  0.008300  0.361700  0.818000  1
  C  C769  1  0.939300  0.641700  0.196700  1
  C  C770  1  0.060700  0.358300  0.803300  1
  C  C771  1  0.863200  0.597300  0.179400  1
  C  C772  1  0.136800  0.402700  0.820600  1
  C  C773  1  0.890800  0.549100  0.135300  1
  C  C774  1  0.109200  0.450900  0.864700  1
  C  C775  1  0.858600  0.499700  0.103900  1
  C  C776  1  0.141400  0.500300  0.896100  1
  C  C777  1  0.803700  0.585900  0.196000  1
  C  C778  1  0.196300  0.414100  0.804000  1
  C  C779  1  0.676500  0.526500  0.191870  1
  C  C780  1  0.323500  0.473500  0.808130  1
  C  C781  1  0.677000  0.502200  0.223400  1
  C  C782  1  0.323000  0.497800  0.776600  1
  C  C783  1  0.612600  0.473500  0.234800  1
  C  C784  1  0.387400  0.526500  0.765200  1
  C  C785  1  0.548700  0.466100  0.215020  1
  C  C786  1  0.451300  0.533900  0.784980  1
  C  C787  1  0.550100  0.494400  0.184000  1
  C  C788  1  0.449900  0.505600  0.816000  1
  C  C789  1  0.613100  0.522100  0.172700  1
  C  C790  1  0.386900  0.477900  0.827300  1
  C  C791  1  0.462500  0.674900  0.380400  1
  C  C792  1  0.537500  0.325100  0.619600  1
  C  C793  1  0.448400  0.727600  0.367300  1
  C  C794  1  0.551600  0.272400  0.632700  1
  C  C795  1  0.497600  0.777400  0.353400  1
  C  C796  1  0.502400  0.222600  0.646600  1
  C  C797  1  0.562700  0.778300  0.351300  1
  C  C798  1  0.437300  0.221700  0.648700  1
  C  C799  1  0.618300  0.828300  0.336500  1
  C  C800  1  0.381700  0.171700  0.663500  1
  C  C801  1  0.678700  0.823900  0.334700  1
  C  C802  1  0.321300  0.176100  0.665300  1
  C  C803  1  0.691400  0.770400  0.349600  1
  C  C804  1  0.308600  0.229600  0.650400  1
  C  C805  1  0.752600  0.761300  0.349300  1
  C  C806  1  0.247400  0.238700  0.650700  1
  C  C807  1  0.758100  0.707800  0.364300  1
  C  C808  1  0.241900  0.292200  0.635700  1
  C  C809  1  0.702900  0.662200  0.378790  1
  C  C810  1  0.297100  0.337800  0.621210  1
  C  C811  1  0.637600  0.721400  0.364100  1
  C  C812  1  0.362400  0.278600  0.635900  1
  C  C813  1  0.571800  0.723700  0.365020  1
  C  C814  1  0.428200  0.276300  0.634980  1
  C  C815  1  0.697400  0.599600  0.393720  1
  C  C816  1  0.302600  0.400400  0.606280  1
  C  C817  1  0.633900  0.495800  0.415130  1
  C  C818  1  0.366100  0.504200  0.584870  1
  C  C819  1  0.690800  0.498900  0.440770  1
  C  C820  1  0.309200  0.501100  0.559230  1
  C  C821  1  0.686900  0.437000  0.449790  1
  C  C822  1  0.313100  0.563000  0.550210  1
  C  C823  1  0.625300  0.370800  0.432820  1
  C  C824  1  0.374700  0.629200  0.567180  1
  C  C825  1  0.566900  0.368300  0.409020  1
  C  C826  1  0.433100  0.631700  0.590980  1
  C  C827  1  0.571100  0.431000  0.400750  1
  C  C828  1  0.428900  0.569000  0.599250  1
  C  C829  1  0.121200  0.414700  0.387010  1
  C  C830  1  0.878800  0.585300  0.612990  1
  C  C831  1  0.179800  0.417100  0.375000  1
  C  C832  1  0.820200  0.582900  0.625000  1
  C  C833  1  0.176900  0.354600  0.364700  1
  C  C834  1  0.823100  0.645400  0.635300  1
  C  C835  1  0.116900  0.289800  0.366000  1
  C  C836  1  0.883100  0.710200  0.634000  1
  C  C837  1  0.110000  0.220500  0.357400  1
  C  C838  1  0.890000  0.779500  0.642600  1
  C  C839  1  0.049900  0.159800  0.359500  1
  C  C840  1  0.950100  0.840200  0.640500  1
  C  C841  1  0.990000  0.160600  0.370400  1
  C  C842  1  0.010000  0.839400  0.629600  1
  C  C843  1  0.925800  0.101200  0.373300  1
  C  C844  1  0.074200  0.898800  0.626700  1
  C  C845  1  0.871600  0.108200  0.383900  1
  C  C846  1  0.128400  0.891800  0.616100  1
  C  C847  1  0.884200  0.178100  0.392940  1
  C  C848  1  0.115800  0.821900  0.607060  1
  C  C849  1  0.997300  0.228000  0.379740  1
  C  C850  1  0.002700  0.772000  0.620260  1
  C  C851  1  0.060200  0.292200  0.377920  1
  C  C852  1  0.939800  0.707800  0.622080  1
  C  C853  1  0.833100  0.195100  0.405390  1
  C  C854  1  0.166900  0.804900  0.594610  1
  C  C855  1  0.799900  0.278300  0.421650  1
  C  C856  1  0.200100  0.721700  0.578350  1
  C  C857  1  0.763800  0.245700  0.446180  1
  C  C858  1  0.236200  0.754300  0.553820  1
  C  C859  1  0.709800  0.258800  0.453520  1
  C  C860  1  0.290200  0.741200  0.546480  1
  C  C861  1  0.689800  0.302300  0.434870  1
  C  C862  1  0.310200  0.697700  0.565130  1
  C  C863  1  0.729000  0.337600  0.411700  1
  C  C864  1  0.271000  0.662400  0.588300  1
  C  C865  1  0.785100  0.326100  0.405080  1
  C  C866  1  0.214900  0.673900  0.594920  1
  C  C867  1  0.227800  0.772700  0.385100  1
  C  C868  1  0.772200  0.227300  0.614900  1
  C  C869  1  0.165900  0.704400  0.374900  1
  C  C870  1  0.834100  0.295600  0.625100  1
  C  C871  1  0.097700  0.695500  0.362000  1
  C  C872  1  0.902300  0.304500  0.638000  1
  C  C873  1  0.090100  0.756400  0.359400  1
  C  C874  1  0.909900  0.243600  0.640600  1
  C  C875  1  0.020400  0.754300  0.347000  1
  C  C876  1  0.979600  0.245700  0.653000  1
  C  C877  1  0.016600  0.814800  0.345300  1
  C  C878  1  0.983400  0.185200  0.654700  1
  C  C879  1  0.082600  0.884200  0.357500  1
  C  C880  1  0.917400  0.115800  0.642500  1
  C  C881  1  0.084800  0.950600  0.357500  1
  C  C882  1  0.915200  0.049400  0.642500  1
  C  C883  1  0.151200  0.013600  0.369600  1
  C  C884  1  0.848800  0.986400  0.630400  1
  C  C885  1  0.216700  0.011200  0.381750  1
  C  C886  1  0.783300  0.988800  0.618250  1
  C  C887  1  0.150000  0.886400  0.369320  1
  C  C888  1  0.850000  0.113600  0.630680  1
  C  C889  1  0.154600  0.822900  0.370400  1
  C  C890  1  0.845400  0.177100  0.629600  1
  C  C891  1  0.290700  0.072200  0.395140  1
  C  C892  1  0.709300  0.927800  0.604860  1
  C  C893  1  0.417900  0.120400  0.415110  1
  C  C894  1  0.582100  0.879600  0.584890  1
  C  C895  1  0.473500  0.122100  0.401300  1
  C  C896  1  0.526500  0.877900  0.598700  1
  C  C897  1  0.542900  0.182900  0.409610  1
  C  C898  1  0.457100  0.817100  0.590390  1
  C  C899  1  0.558700  0.242100  0.432790  1
  C  C900  1  0.441300  0.757900  0.567210  1
  C  C901  1  0.504400  0.237600  0.449010  1
  C  C902  1  0.495600  0.762400  0.550990  1
  C  C903  1  0.434300  0.178200  0.439700  1
  C  C904  1  0.565700  0.821800  0.560300  1
  C  C905  1  0.752200  0.510900  0.329300  1
  C  C906  1  0.247800  0.489100  0.670700  1
  C  C907  1  0.635900  0.089700  0.333333  1
  C  C908  1  0.364100  0.910300  0.666667  1
  C  C909  1  0.289200  0.611100  0.460200  1
  C  C910  1  0.710800  0.388900  0.539800  1
  S  S911  1  0.852700  0.562630  0.362020  1
  S  S912  1  0.147300  0.437370  0.637980  1
  S  S913  1  0.319280  0.261890  0.363170  1
  S  S914  1  0.680720  0.738110  0.636830  1
  S  S915  1  0.623500  0.023140  0.367710  1
  S  S916  1  0.376500  0.976860  0.632290  1
  S  S917  1  0.290400  0.621600  0.417300  1
  S  S918  1  0.709600  0.378400  0.582700  1
  S  S919  1  0.607400  0.018900  0.365600  1
  S  S920  1  0.392600  0.981100  0.634400  1
  S  S921  1  0.284200  0.625200  0.411300  1
  S  S922  1  0.715800  0.374800  0.588700  1
  N  N923  1  0.301600  0.495700  0.319900  1
  N  N924  1  0.698400  0.504300  0.680100  1
  N  N925  1  0.206000  0.367500  0.469700  1
  N  N926  1  0.794000  0.632500  0.530300  1
  N  N927  1  0.149300  0.203900  0.548600  1
  N  N928  1  0.850700  0.796100  0.451400  1
  N  N929  1  0.333800  0.778600  0.320700  1
  N  N930  1  0.666200  0.221400  0.679300  1
  N  N931  1  0.907600  0.137500  0.040000  1
  N  N932  1  0.092400  0.862500  0.960000  1
  N  N933  1  0.629300  0.446200  0.006500  1
  N  N934  1  0.370700  0.553800  0.993500  1
  N  N935  1  0.422800  0.490500  0.110700  1
  N  N936  1  0.577200  0.509500  0.889300  1
  N  N937  1  0.612000  0.835600  0.447800  1
  N  N938  1  0.388000  0.164400  0.552200  1
  N  N939  1  0.087700  0.081100  0.282600  1
  N  N940  1  0.912300  0.918900  0.717400  1
  N  N941  1  0.011500  0.339900  0.462380  1
  N  N942  1  0.988500  0.660100  0.537620  1
  N  N943  1  0.003600  0.438800  0.428850  1
  N  N944  1  0.996400  0.561200  0.571150  1
  N  N945  1  0.928000  0.384700  0.364630  1
  N  N946  1  0.072000  0.615300  0.635370  1
  N  N947  1  0.747200  0.595000  0.100300  1
  N  N948  1  0.252800  0.405000  0.899700  1
  N  N949  1  0.628600  0.471100  0.094880  1
  N  N950  1  0.371400  0.528900  0.905120  1
  N  N951  1  0.658400  0.392600  0.134770  1
  N  N952  1  0.341600  0.607400  0.865230  1
  N  N953  1  0.428700  0.812200  0.092500  1
  N  N954  1  0.571300  0.187800  0.907500  1
  N  N955  1  0.503500  0.832600  0.155720  1
  N  N956  1  0.496500  0.167400  0.844280  1
  N  N957  1  0.598500  0.952100  0.181600  1
  N  N958  1  0.401500  0.047900  0.818400  1
  N  N959  1  0.741200  0.245200  0.229840  1
  N  N960  1  0.258800  0.754800  0.770160  1
  N  N961  1  0.303600  0.954900  0.454740  1
  N  N962  1  0.696400  0.045100  0.545260  1
  N  N963  1  0.389800  0.927700  0.425130  1
  N  N964  1  0.610200  0.072300  0.574870  1
  N  N965  1  0.368500  0.941400  0.360120  1
  N  N966  1  0.631500  0.058600  0.639880  1
  N  N967  1  0.611200  0.878100  0.110200  1
  N  N968  1  0.388800  0.121900  0.889800  1
  N  N969  1  0.557900  0.958100  0.089900  1
  N  N970  1  0.442100  0.041900  0.910100  1
  N  N971  1  0.481700  0.971800  0.129560  1
  N  N972  1  0.518300  0.028200  0.870440  1
  N  N973  1  0.124200  0.217700  0.084490  1
  N  N974  1  0.875800  0.782300  0.915510  1
  N  N975  1  0.094700  0.193100  0.145480  1
  N  N976  1  0.905300  0.806900  0.854520  1
  N  N977  1  0.146400  0.116200  0.170950  1
  N  N978  1  0.853600  0.883800  0.829050  1
  N  N979  1  0.321900  0.995800  0.222610  1
  N  N980  1  0.678100  0.004200  0.777390  1
  N  N981  1  0.614600  0.661000  0.452990  1
  N  N982  1  0.385400  0.339000  0.547010  1
  N  N983  1  0.485000  0.545900  0.425260  1
  N  N984  1  0.515000  0.454100  0.574740  1
  N  N985  1  0.469800  0.506400  0.360050  1
  N  N986  1  0.530200  0.493600  0.639950  1
  N  N987  1  0.018100  0.058600  0.093620  1
  N  N988  1  0.981900  0.941400  0.906380  1
  N  N989  1  0.144100  0.080000  0.082440  1
  N  N990  1  0.855900  0.920000  0.917560  1
  N  N991  1  0.254700  0.189400  0.125370  1
  N  N992  1  0.745300  0.810600  0.874630  1
  N  N993  1  0.783900  0.462900  0.092300  1
  N  N994  1  0.216100  0.537100  0.907700  1
  N  N995  1  0.839100  0.551500  0.150700  1
  N  N996  1  0.160900  0.448500  0.849300  1
  N  N997  1  0.738200  0.545300  0.176920  1
  N  N998  1  0.261800  0.454700  0.823080  1
  N  N999  1  0.480800  0.429600  0.223970  1
  N  N1000  1  0.519200  0.570400  0.776030  1
  N  N1001  1  0.523200  0.672800  0.379080  1
  N  N1002  1  0.476800  0.327200  0.620920  1
  N  N1003  1  0.644200  0.669300  0.378520  1
  N  N1004  1  0.355800  0.330700  0.621480  1
  N  N1005  1  0.638900  0.558500  0.402200  1
  N  N1006  1  0.361100  0.441500  0.597800  1
  N  N1007  1  0.062500  0.355000  0.387990  1
  N  N1008  1  0.937500  0.645000  0.612010  1
  N  N1009  1  0.945000  0.234700  0.390930  1
  N  N1010  1  0.055000  0.765300  0.609070  1
  N  N1011  1  0.850400  0.261000  0.410440  1
  N  N1012  1  0.149600  0.739000  0.589560  1
  N  N1013  1  0.223200  0.831900  0.383140  1
  N  N1014  1  0.776800  0.168100  0.616860  1
  N  N1015  1  0.215200  0.949000  0.380600  1
  N  N1016  1  0.784800  0.051000  0.619400  1
  N  N1017  1  0.345100  0.060200  0.402580  1
  N  N1018  1  0.654900  0.939800  0.597420  1
  N  N1019  1  0.627200  0.306800  0.439730  1
  N  N1020  1  0.372800  0.693200  0.560270  1
  O  O1021  1  0.859100  0.624300  0.380870  1
  O  O1022  1  0.140900  0.375700  0.619130  1
  O  O1023  1  0.914100  0.573800  0.349120  1
  O  O1024  1  0.085900  0.426200  0.650880  1
  O  O1025  1  0.823400  0.499700  0.377220  1
  O  O1026  1  0.176600  0.500300  0.622780  1
  O  O1027  1  0.394900  0.316600  0.379390  1
  O  O1028  1  0.605100  0.683400  0.620610  1
  O  O1029  1  0.282700  0.215500  0.384800  1
  O  O1030  1  0.717300  0.784500  0.615200  1
  O  O1031  1  0.278800  0.288800  0.342100  1
  O  O1032  1  0.721200  0.711200  0.657900  1
  O  O1033  1  0.595900  0.063300  0.383700  1
  O  O1034  1  0.404100  0.936700  0.616300  1
  O  O1035  1  0.694900  0.037200  0.389200  1
  O  O1036  1  0.305100  0.962800  0.610800  1
  O  O1037  1  0.572700  0.952400  0.354400  1
  O  O1038  1  0.427300  0.047600  0.645600  1
  O  O1039  1  0.316700  0.573300  0.410200  1
  O  O1040  1  0.683300  0.426700  0.589800  1
  O  O1041  1  0.218800  0.589500  0.424000  1
  O  O1042  1  0.781200  0.410500  0.576000  1
  O  O1043  1  0.309800  0.681600  0.397300  1
  O  O1044  1  0.690200  0.318400  0.602700  1
  O  O1045  1  0.561800  0.256800  0.277100  1
  O  O1046  1  0.438200  0.743200  0.722900  1
  O  O1047  1  0.298000  0.307000  0.345400  1
  O  O1048  1  0.702000  0.693000  0.654600  1
  O  O1049  1  0.378000  0.288000  0.392100  1
  O  O1050  1  0.622000  0.712000  0.607900  1
  O  O1051  1  0.252800  0.200100  0.369800  1
  O  O1052  1  0.747200  0.799900  0.630200  1
  O  O1053  1  0.569000  0.957600  0.338100  1
  O  O1054  1  0.431000  0.042400  0.661900  1
  O  O1055  1  0.676600  0.032000  0.386400  1
  O  O1056  1  0.323400  0.968000  0.613600  1
  O  O1057  1  0.563300  0.037400  0.381000  1
  O  O1058  1  0.436700  0.962600  0.619000  1
  O  O1059  1  0.322000  0.589000  0.402700  1
  O  O1060  1  0.678000  0.411000  0.597300  1
  O  O1061  1  0.202700  0.582600  0.397800  1
  O  O1062  1  0.797300  0.417400  0.602200  1
  O  O1063  1  0.317000  0.699200  0.410100  1
  O  O1064  1  0.683000  0.300800  0.589900  1
  F  F1065  1  0.089500  0.063200  0.431900  1
  F  F1066  1  0.910500  0.936800  0.568100  1
  F  F1067  1  0.113400  0.982400  0.450400  1
  F  F1068  1  0.886600  0.017600  0.549600  1
  F  F1069  1  0.203900  0.088000  0.448800  1
  F  F1070  1  0.796100  0.912000  0.551200  1
  F  F1071  1  0.140200  0.076400  0.486600  1
  F  F1072  1  0.859800  0.923600  0.513400  1
  F  F1073  1  0.054900  0.450800  0.047000  1
  F  F1074  1  0.945100  0.549200  0.953000  1
  F  F1075  1  0.141900  0.547100  0.082500  1
  F  F1076  1  0.858100  0.452900  0.917500  1
  F  F1077  1  0.143800  0.532700  0.028500  1
  F  F1078  1  0.856200  0.467300  0.971500  1
  F  F1079  1  0.170100  0.470300  0.063400  1
  F  F1080  1  0.829900  0.529700  0.936600  1
  F  F1081  1  0.442100  0.211200  0.075600  1
  F  F1082  1  0.557900  0.788800  0.924400  1
  F  F1083  1  0.444500  0.170900  0.119700  1
  F  F1084  1  0.555500  0.829100  0.880300  1
  F  F1085  1  0.515600  0.163300  0.092400  1
  F  F1086  1  0.484400  0.836700  0.907600  1
  F  F1087  1  0.396200  0.095500  0.071400  1
  F  F1088  1  0.603800  0.904500  0.928600  1
  F  F1089  1  0.236200  0.198500  0.004900  1
  F  F1090  1  0.763800  0.801500  0.995100  1
  F  F1091  1  0.316300  0.253300  0.056520  1
  F  F1092  1  0.683700  0.746700  0.943480  1
  F  F1093  1  0.355900  0.260000  0.008000  1
  F  F1094  1  0.644100  0.740000  0.992000  1
  F  F1095  1  0.300700  0.318000  0.019500  1
  F  F1096  1  0.699300  0.682000  0.980500  1
  F  F1097  1  0.909200  0.934000  0.361900  1
  F  F1098  1  0.090800  0.066000  0.638100  1
  F  F1099  1  0.887000  0.864700  0.314100  1
  F  F1100  1  0.113000  0.135300  0.685900  1
  F  F1101  1  0.830800  0.927700  0.313900  1
  F  F1102  1  0.169200  0.072300  0.686100  1
  F  F1103  1  0.948700  0.982900  0.318900  1
  F  F1104  1  0.051300  0.017100  0.681100  1
  F  F1105  1  0.812000  0.603300  0.303980  1
  F  F1106  1  0.188000  0.396700  0.696020  1
  F  F1107  1  0.770100  0.489200  0.299960  1
  F  F1108  1  0.229900  0.510800  0.700040  1
  F  F1109  1  0.721600  0.538500  0.326500  1
  F  F1110  1  0.278400  0.461500  0.673500  1
  F  F1111  1  0.375500  0.181600  0.348450  1
  F  F1112  1  0.624500  0.818400  0.651550  1
  F  F1113  1  0.268200  0.149900  0.315800  1
  F  F1114  1  0.731800  0.850100  0.684200  1
  F  F1115  1  0.361800  0.240400  0.307480  1
  F  F1116  1  0.638200  0.759600  0.692520  1
  F  F1117  1  0.591100  0.077700  0.310200  1
  F  F1118  1  0.408900  0.922300  0.689800  1
  F  F1119  1  0.676100  0.158300  0.356700  1
  F  F1120  1  0.323900  0.841700  0.643300  1
  F  F1121  1  0.703600  0.094400  0.326400  1
  F  F1122  1  0.296400  0.905600  0.673600  1
  F  F1123  1  0.349000  0.722400  0.474900  1
  F  F1124  1  0.651000  0.277600  0.525100  1
  F  F1125  1  0.428100  0.703900  0.458400  1
  F  F1126  1  0.571900  0.296100  0.541600  1
  F  F1127  1  0.355700  0.634600  0.486100  1
  F  F1128  1  0.644300  0.365400  0.513900  1
  F  F1129  1  0.274000  0.213000  0.044300  1
  F  F1130  1  0.726000  0.787000  0.955700  1
  F  F1131  1  0.365300  0.313000  0.038000  1
  F  F1132  1  0.634700  0.687000  0.962000  1
  F  F1133  1  0.310000  0.219000  0.996500  1
  F  F1134  1  0.690000  0.781000  0.003500  1
  F  F1135  1  0.251000  0.273000  0.006400  1
  F  F1136  1  0.749000  0.727000  0.993600  1
  F  F1137  1  0.842300  0.908300  0.296500  1
  F  F1138  1  0.157700  0.091700  0.703500  1
  F  F1139  1  0.903600  0.871400  0.332700  1
  F  F1140  1  0.096400  0.128600  0.667300  1
  F  F1141  1  0.955200  0.987000  0.330900  1
  F  F1142  1  0.044800  0.013000  0.669100  1
  F  F1143  1  0.857900  0.933500  0.351400  1
  F  F1144  1  0.142100  0.066500  0.648600  1
  F  F1145  1  0.754000  0.563100  0.313600  1
  F  F1146  1  0.246000  0.436900  0.686400  1
  F  F1147  1  0.742900  0.455500  0.309200  1
  F  F1148  1  0.257100  0.544500  0.690800  1
  F  F1149  1  0.701700  0.487100  0.346600  1
  F  F1150  1  0.298300  0.512900  0.653400  1
  F  F1151  1  0.312000  0.137200  0.333800  1
  F  F1152  1  0.688000  0.862800  0.666200  1
  F  F1153  1  0.305000  0.204000  0.297300  1
  F  F1154  1  0.695000  0.796000  0.702700  1
  F  F1155  1  0.405600  0.231000  0.330500  1
  F  F1156  1  0.594400  0.769000  0.669500  1
  F  F1157  1  0.602500  0.039500  0.303900  1
  F  F1158  1  0.397500  0.960500  0.696100  1
  F  F1159  1  0.583600  0.105600  0.323500  1
  F  F1160  1  0.416400  0.894400  0.676500  1
  F  F1161  1  0.704200  0.128300  0.336800  1
  F  F1162  1  0.295800  0.871700  0.663200  1
  F  F1163  1  0.361700  0.634400  0.476000  1
  F  F1164  1  0.638300  0.365600  0.524000  1
  F  F1165  1  0.254700  0.544600  0.462800  1
  F  F1166  1  0.745300  0.455400  0.537200  1
  F  F1167  1  0.263900  0.645100  0.476100  1
  F  F1168  1  0.736100  0.354900  0.523900  1
