# generated using pymatgen
data_Ag4H600Pd24Au24.0C456N209.28O211.14
_symmetry_space_group_name_H-M   'P 1'
_cell_length_a   20.53300000
_cell_length_b   20.53300000
_cell_length_c   54.54700000
_cell_angle_alpha   90.00000000
_cell_angle_beta   90.00000000
_cell_angle_gamma   120.00000000
_symmetry_Int_Tables_number   1
_chemical_formula_structural   Ag4H600Pd24Au24.0C456N209.28O211.14
_chemical_formula_sum   'Ag4 H600 Pd24 Au24.0 C456 N209.28 O211.14'
_cell_volume   19916.19253505
_cell_formula_units_Z   1
loop_
 _symmetry_equiv_pos_site_id
 _symmetry_equiv_pos_as_xyz
  1  'x, y, z'
loop_
 _atom_site_type_symbol
 _atom_site_label
 _atom_site_symmetry_multiplicity
 _atom_site_fract_x
 _atom_site_fract_y
 _atom_site_fract_z
 _atom_site_occupancy
  Ag  Ag1  1  0.000000  0.000000  0.749990  1.0
  Ag  Ag2  1  0.000000  0.000000  0.250010  1.0
  Ag  Ag3  1  0.000000  0.000000  0.000000  1.0
  Ag  Ag4  1  0.000000  0.000000  0.500000  1.0
  H  H5  1  0.722600  0.727000  0.905600  1.0
  H  H6  1  0.004400  0.277400  0.905600  1.0
  H  H7  1  0.273000  0.995600  0.905600  1.0
  H  H8  1  0.995600  0.273000  0.094400  1.0
  H  H9  1  0.727000  0.722600  0.094400  1.0
  H  H10  1  0.277400  0.004400  0.094400  1.0
  H  H11  1  0.805700  0.856400  0.906500  1.0
  H  H12  1  0.050700  0.194300  0.906500  1.0
  H  H13  1  0.143600  0.949300  0.906500  1.0
  H  H14  1  0.949300  0.143600  0.093500  1.0
  H  H15  1  0.856400  0.805700  0.093500  1.0
  H  H16  1  0.194300  0.050700  0.093500  1.0
  H  H17  1  0.976800  0.812800  0.905100  1.0
  H  H18  1  0.836000  0.023200  0.905100  1.0
  H  H19  1  0.187200  0.164000  0.905100  1.0
  H  H20  1  0.164000  0.187200  0.094900  1.0
  H  H21  1  0.812800  0.976800  0.094900  1.0
  H  H22  1  0.023200  0.836000  0.094900  1.0
  H  H23  1  0.892800  0.686500  0.909600  1.0
  H  H24  1  0.793700  0.107200  0.909600  1.0
  H  H25  1  0.313500  0.206300  0.909600  1.0
  H  H26  1  0.206300  0.313500  0.090400  1.0
  H  H27  1  0.686500  0.892800  0.090400  1.0
  H  H28  1  0.107200  0.793700  0.090400  1.0
  H  H29  1  0.569600  0.639800  0.968200  1.0
  H  H30  1  0.070200  0.430400  0.968200  1.0
  H  H31  1  0.360200  0.929800  0.968200  1.0
  H  H32  1  0.929800  0.360200  0.031800  1.0
  H  H33  1  0.639800  0.569600  0.031800  1.0
  H  H34  1  0.430400  0.070200  0.031800  1.0
  H  H35  1  0.726900  0.608600  0.998700  1.0
  H  H36  1  0.881700  0.273100  0.998700  1.0
  H  H37  1  0.391400  0.118300  0.998700  1.0
  H  H38  1  0.118300  0.391400  0.001300  1.0
  H  H39  1  0.608600  0.726900  0.001300  1.0
  H  H40  1  0.273100  0.881700  0.001300  1.0
  H  H41  1  0.603900  0.588800  0.907100  1.0
  H  H42  1  0.984900  0.396100  0.907100  1.0
  H  H43  1  0.411200  0.015100  0.907100  1.0
  H  H44  1  0.015100  0.411200  0.092900  1.0
  H  H45  1  0.588800  0.603900  0.092900  1.0
  H  H46  1  0.396100  0.984900  0.092900  1.0
  H  H47  1  0.586300  0.651200  0.917500  1.0
  H  H48  1  0.064900  0.413700  0.917500  1.0
  H  H49  1  0.348800  0.935100  0.917500  1.0
  H  H50  1  0.935100  0.348800  0.082500  1.0
  H  H51  1  0.651200  0.586300  0.082500  1.0
  H  H52  1  0.413700  0.064900  0.082500  1.0
  H  H53  1  0.529400  0.564100  0.922800  1.0
  H  H54  1  0.034700  0.470600  0.922800  1.0
  H  H55  1  0.435900  0.965300  0.922800  1.0
  H  H56  1  0.965300  0.435900  0.077200  1.0
  H  H57  1  0.564100  0.529400  0.077200  1.0
  H  H58  1  0.470600  0.034700  0.077200  1.0
  H  H59  1  0.805400  0.583400  0.979000  1.0
  H  H60  1  0.778000  0.194600  0.979000  1.0
  H  H61  1  0.416600  0.222000  0.979000  1.0
  H  H62  1  0.222000  0.416600  0.021000  1.0
  H  H63  1  0.583400  0.805400  0.021000  1.0
  H  H64  1  0.194600  0.778000  0.021000  1.0
  H  H65  1  0.825300  0.627700  0.953500  1.0
  H  H66  1  0.802400  0.174700  0.953500  1.0
  H  H67  1  0.372300  0.197600  0.953500  1.0
  H  H68  1  0.197600  0.372300  0.046500  1.0
  H  H69  1  0.627700  0.825300  0.046500  1.0
  H  H70  1  0.174700  0.802400  0.046500  1.0
  H  H71  1  0.773000  0.538300  0.953900  1.0
  H  H72  1  0.765300  0.227000  0.953900  1.0
  H  H73  1  0.461700  0.234700  0.953900  1.0
  H  H74  1  0.234700  0.461700  0.046100  1.0
  H  H75  1  0.538300  0.773000  0.046100  1.0
  H  H76  1  0.227000  0.765300  0.046100  1.0
  H  H77  1  0.742600  0.599300  0.864400  1.0
  H  H78  1  0.856700  0.257400  0.864400  1.0
  H  H79  1  0.400700  0.143300  0.864400  1.0
  H  H80  1  0.143300  0.400700  0.135600  1.0
  H  H81  1  0.599300  0.742600  0.135600  1.0
  H  H82  1  0.257400  0.856700  0.135600  1.0
  H  H83  1  0.800300  0.584100  0.875000  1.0
  H  H84  1  0.783800  0.199700  0.875000  1.0
  H  H85  1  0.415900  0.216200  0.875000  1.0
  H  H86  1  0.216200  0.415900  0.125000  1.0
  H  H87  1  0.584100  0.800300  0.125000  1.0
  H  H88  1  0.199700  0.783800  0.125000  1.0
  H  H89  1  0.744600  0.473400  0.864100  1.0
  H  H90  1  0.728800  0.255400  0.864100  1.0
  H  H91  1  0.526600  0.271200  0.864100  1.0
  H  H92  1  0.271200  0.526600  0.135900  1.0
  H  H93  1  0.473400  0.744600  0.135900  1.0
  H  H94  1  0.255400  0.728800  0.135900  1.0
  H  H95  1  0.689300  0.493600  0.849300  1.0
  H  H96  1  0.804300  0.310700  0.849300  1.0
  H  H97  1  0.506400  0.195700  0.849300  1.0
  H  H98  1  0.195700  0.506400  0.150700  1.0
  H  H99  1  0.493600  0.689300  0.150700  1.0
  H  H100  1  0.310700  0.804300  0.150700  1.0
  H  H101  1  0.601000  0.439600  0.875700  1.0
  H  H102  1  0.838600  0.399000  0.875700  1.0
  H  H103  1  0.560400  0.161400  0.875700  1.0
  H  H104  1  0.161400  0.560400  0.124300  1.0
  H  H105  1  0.439600  0.601000  0.124300  1.0
  H  H106  1  0.399000  0.838600  0.124300  1.0
  H  H107  1  0.644700  0.398200  0.884300  1.0
  H  H108  1  0.753500  0.355300  0.884300  1.0
  H  H109  1  0.601800  0.246500  0.884300  1.0
  H  H110  1  0.246500  0.601800  0.115700  1.0
  H  H111  1  0.398200  0.644700  0.115700  1.0
  H  H112  1  0.355300  0.753500  0.115700  1.0
  H  H113  1  0.660800  0.444700  0.918700  1.0
  H  H114  1  0.783900  0.339200  0.918700  1.0
  H  H115  1  0.555300  0.216100  0.918700  1.0
  H  H116  1  0.216100  0.555300  0.081300  1.0
  H  H117  1  0.444700  0.660800  0.081300  1.0
  H  H118  1  0.339200  0.783900  0.081300  1.0
  H  H119  1  0.599000  0.460200  0.912200  1.0
  H  H120  1  0.861200  0.401000  0.912200  1.0
  H  H121  1  0.539800  0.138800  0.912200  1.0
  H  H122  1  0.138800  0.539800  0.087800  1.0
  H  H123  1  0.460200  0.599000  0.087800  1.0
  H  H124  1  0.401000  0.861200  0.087800  1.0
  H  H125  1  0.150600  0.318600  0.844600  1.0
  H  H126  1  0.168000  0.849400  0.844600  1.0
  H  H127  1  0.681400  0.832000  0.844600  1.0
  H  H128  1  0.832000  0.681400  0.155400  1.0
  H  H129  1  0.318600  0.150600  0.155400  1.0
  H  H130  1  0.849400  0.168000  0.155400  1.0
  H  H131  1  0.051200  0.196500  0.848000  1.0
  H  H132  1  0.145300  0.948800  0.848000  1.0
  H  H133  1  0.803500  0.854700  0.848000  1.0
  H  H134  1  0.854700  0.803500  0.152000  1.0
  H  H135  1  0.196500  0.051200  0.152000  1.0
  H  H136  1  0.948800  0.145300  0.152000  1.0
  H  H137  1  0.202400  0.128500  0.845400  1.0
  H  H138  1  0.926100  0.797600  0.845400  1.0
  H  H139  1  0.871500  0.073900  0.845400  1.0
  H  H140  1  0.073900  0.871500  0.154600  1.0
  H  H141  1  0.128500  0.202400  0.154600  1.0
  H  H142  1  0.797600  0.926100  0.154600  1.0
  H  H143  1  0.301900  0.250500  0.841200  1.0
  H  H144  1  0.948600  0.698100  0.841200  1.0
  H  H145  1  0.749500  0.051400  0.841200  1.0
  H  H146  1  0.051400  0.749500  0.158800  1.0
  H  H147  1  0.250500  0.301900  0.158800  1.0
  H  H148  1  0.698100  0.948600  0.158800  1.0
  H  H149  1  0.297500  0.382800  0.752100  1.0
  H  H150  1  0.085300  0.702500  0.752100  1.0
  H  H151  1  0.617200  0.914700  0.752100  1.0
  H  H152  1  0.914700  0.617200  0.247900  1.0
  H  H153  1  0.382800  0.297500  0.247900  1.0
  H  H154  1  0.702500  0.085300  0.247900  1.0
  H  H155  1  0.167900  0.460300  0.782100  1.0
  H  H156  1  0.292400  0.832100  0.782100  1.0
  H  H157  1  0.539700  0.707600  0.782100  1.0
  H  H158  1  0.707600  0.539700  0.217900  1.0
  H  H159  1  0.460300  0.167900  0.217900  1.0
  H  H160  1  0.832100  0.292400  0.217900  1.0
  H  H161  1  0.173800  0.482400  0.825700  1.0
  H  H162  1  0.308600  0.826200  0.825700  1.0
  H  H163  1  0.517600  0.691400  0.825700  1.0
  H  H164  1  0.691400  0.517600  0.174300  1.0
  H  H165  1  0.482400  0.173800  0.174300  1.0
  H  H166  1  0.826200  0.308600  0.174300  1.0
  H  H167  1  0.258400  0.512300  0.834700  1.0
  H  H168  1  0.253900  0.741600  0.834700  1.0
  H  H169  1  0.487700  0.746100  0.834700  1.0
  H  H170  1  0.746100  0.487700  0.165300  1.0
  H  H171  1  0.512300  0.258400  0.165300  1.0
  H  H172  1  0.741600  0.253900  0.165300  1.0
  H  H173  1  0.193300  0.429700  0.842100  1.0
  H  H174  1  0.236400  0.806700  0.842100  1.0
  H  H175  1  0.570300  0.763600  0.842100  1.0
  H  H176  1  0.763600  0.570300  0.157900  1.0
  H  H177  1  0.429700  0.193300  0.157900  1.0
  H  H178  1  0.806700  0.236400  0.157900  1.0
  H  H179  1  0.375400  0.377100  0.810700  1.0
  H  H180  1  0.001700  0.624600  0.810700  1.0
  H  H181  1  0.622900  0.998300  0.810700  1.0
  H  H182  1  0.998300  0.622900  0.189300  1.0
  H  H183  1  0.377100  0.375400  0.189300  1.0
  H  H184  1  0.624600  0.001700  0.189300  1.0
  H  H185  1  0.405900  0.405100  0.783500  1.0
  H  H186  1  0.999200  0.594100  0.783500  1.0
  H  H187  1  0.594900  0.000800  0.783500  1.0
  H  H188  1  0.000800  0.594900  0.216500  1.0
  H  H189  1  0.405100  0.405900  0.216500  1.0
  H  H190  1  0.594100  0.999200  0.216500  1.0
  H  H191  1  0.340300  0.320200  0.788100  1.0
  H  H192  1  0.979900  0.659700  0.788100  1.0
  H  H193  1  0.679800  0.020100  0.788100  1.0
  H  H194  1  0.020100  0.679800  0.211900  1.0
  H  H195  1  0.320200  0.340300  0.211900  1.0
  H  H196  1  0.659700  0.979900  0.211900  1.0
  H  H197  1  0.315200  0.383400  0.886800  1.0
  H  H198  1  0.068200  0.684800  0.886800  1.0
  H  H199  1  0.616600  0.931800  0.886800  1.0
  H  H200  1  0.931800  0.616600  0.113200  1.0
  H  H201  1  0.383400  0.315200  0.113200  1.0
  H  H202  1  0.684800  0.068200  0.113200  1.0
  H  H203  1  0.373800  0.370800  0.875400  1.0
  H  H204  1  0.997000  0.626200  0.875400  1.0
  H  H205  1  0.629200  0.003000  0.875400  1.0
  H  H206  1  0.003000  0.629200  0.124600  1.0
  H  H207  1  0.370800  0.373800  0.124600  1.0
  H  H208  1  0.626200  0.997000  0.124600  1.0
  H  H209  1  0.446900  0.510300  0.834700  1.0
  H  H210  1  0.063400  0.553100  0.834700  1.0
  H  H211  1  0.489700  0.936600  0.834700  1.0
  H  H212  1  0.936600  0.489700  0.165300  1.0
  H  H213  1  0.510300  0.446900  0.165300  1.0
  H  H214  1  0.553100  0.063400  0.165300  1.0
  H  H215  1  0.395900  0.542400  0.832200  1.0
  H  H216  1  0.146500  0.604100  0.832200  1.0
  H  H217  1  0.457600  0.853500  0.832200  1.0
  H  H218  1  0.853500  0.457600  0.167800  1.0
  H  H219  1  0.542400  0.395900  0.167800  1.0
  H  H220  1  0.604100  0.146500  0.167800  1.0
  H  H221  1  0.460700  0.477000  0.885900  1.0
  H  H222  1  0.016300  0.539300  0.885900  1.0
  H  H223  1  0.523000  0.983700  0.885900  1.0
  H  H224  1  0.983700  0.523000  0.114100  1.0
  H  H225  1  0.477000  0.460700  0.114100  1.0
  H  H226  1  0.539300  0.016300  0.114100  1.0
  H  H227  1  0.398400  0.486700  0.900600  1.0
  H  H228  1  0.088300  0.601600  0.900600  1.0
  H  H229  1  0.513300  0.911700  0.900600  1.0
  H  H230  1  0.911700  0.513300  0.099400  1.0
  H  H231  1  0.486700  0.398400  0.099400  1.0
  H  H232  1  0.601600  0.088300  0.099400  1.0
  H  H233  1  0.385200  0.553000  0.871000  1.0
  H  H234  1  0.167800  0.614800  0.871000  1.0
  H  H235  1  0.447000  0.832200  0.871000  1.0
  H  H236  1  0.832200  0.447000  0.129000  1.0
  H  H237  1  0.553000  0.385200  0.129000  1.0
  H  H238  1  0.614800  0.167800  0.129000  1.0
  H  H239  1  0.472000  0.578700  0.867500  1.0
  H  H240  1  0.106700  0.528000  0.867500  1.0
  H  H241  1  0.421300  0.893300  0.867500  1.0
  H  H242  1  0.893300  0.421300  0.132500  1.0
  H  H243  1  0.578700  0.472000  0.132500  1.0
  H  H244  1  0.528000  0.106700  0.132500  1.0
  H  H245  1  0.951400  0.249100  0.658600  1.0
  H  H246  1  0.297700  0.048600  0.658600  1.0
  H  H247  1  0.750900  0.702300  0.658600  1.0
  H  H248  1  0.702300  0.750900  0.341400  1.0
  H  H249  1  0.249100  0.951400  0.341400  1.0
  H  H250  1  0.048600  0.297700  0.341400  1.0
  H  H251  1  0.922000  0.127200  0.652400  1.0
  H  H252  1  0.205200  0.078000  0.652400  1.0
  H  H253  1  0.872800  0.794800  0.652400  1.0
  H  H254  1  0.794800  0.872800  0.347600  1.0
  H  H255  1  0.127200  0.922000  0.347600  1.0
  H  H256  1  0.078000  0.205200  0.347600  1.0
  H  H257  1  0.144200  0.195400  0.652400  1.0
  H  H258  1  0.051200  0.855800  0.652400  1.0
  H  H259  1  0.804600  0.948800  0.652400  1.0
  H  H260  1  0.948800  0.804600  0.347600  1.0
  H  H261  1  0.195400  0.144200  0.347600  1.0
  H  H262  1  0.855800  0.051200  0.347600  1.0
  H  H263  1  0.173200  0.321000  0.654400  1.0
  H  H264  1  0.147800  0.826800  0.654400  1.0
  H  H265  1  0.679000  0.852200  0.654400  1.0
  H  H266  1  0.852200  0.679000  0.345600  1.0
  H  H267  1  0.321000  0.173200  0.345600  1.0
  H  H268  1  0.826800  0.147800  0.345600  1.0
  H  H269  1  0.086000  0.379300  0.746600  1.0
  H  H270  1  0.293300  0.914000  0.746600  1.0
  H  H271  1  0.620700  0.706700  0.746600  1.0
  H  H272  1  0.706700  0.620700  0.253400  1.0
  H  H273  1  0.379300  0.086000  0.253400  1.0
  H  H274  1  0.914000  0.293300  0.253400  1.0
  H  H275  1  0.292900  0.463700  0.719200  1.0
  H  H276  1  0.170800  0.707100  0.719200  1.0
  H  H277  1  0.536300  0.829200  0.719200  1.0
  H  H278  1  0.829200  0.536300  0.280800  1.0
  H  H279  1  0.463700  0.292900  0.280800  1.0
  H  H280  1  0.707100  0.170800  0.280800  1.0
  H  H281  1  0.999600  0.373800  0.692100  1.0
  H  H282  1  0.374200  0.000400  0.692100  1.0
  H  H283  1  0.626200  0.625800  0.692100  1.0
  H  H284  1  0.625800  0.626200  0.307900  1.0
  H  H285  1  0.373800  0.999600  0.307900  1.0
  H  H286  1  0.000400  0.374200  0.307900  1.0
  H  H287  1  0.999800  0.403900  0.719200  1.0
  H  H288  1  0.404100  0.000200  0.719200  1.0
  H  H289  1  0.596100  0.595900  0.719200  1.0
  H  H290  1  0.595900  0.596100  0.280800  1.0
  H  H291  1  0.403900  0.999800  0.280800  1.0
  H  H292  1  0.000200  0.404100  0.280800  1.0
  H  H293  1  0.985000  0.320400  0.715300  1.0
  H  H294  1  0.335400  0.015000  0.715300  1.0
  H  H295  1  0.679600  0.664600  0.715300  1.0
  H  H296  1  0.664600  0.679600  0.284700  1.0
  H  H297  1  0.320400  0.985000  0.284700  1.0
  H  H298  1  0.015000  0.335400  0.284700  1.0
  H  H299  1  0.307800  0.476700  0.675500  1.0
  H  H300  1  0.168900  0.692200  0.675500  1.0
  H  H301  1  0.523300  0.831100  0.675500  1.0
  H  H302  1  0.831100  0.523300  0.324500  1.0
  H  H303  1  0.476700  0.307800  0.324500  1.0
  H  H304  1  0.692200  0.168900  0.324500  1.0
  H  H305  1  0.255300  0.507100  0.664900  1.0
  H  H306  1  0.251800  0.744700  0.664900  1.0
  H  H307  1  0.492900  0.748200  0.664900  1.0
  H  H308  1  0.748200  0.492900  0.335100  1.0
  H  H309  1  0.507100  0.255300  0.335100  1.0
  H  H310  1  0.744700  0.251800  0.335100  1.0
  H  H311  1  0.236400  0.423100  0.659000  1.0
  H  H312  1  0.186700  0.763600  0.659000  1.0
  H  H313  1  0.576900  0.813300  0.659000  1.0
  H  H314  1  0.813300  0.576900  0.341000  1.0
  H  H315  1  0.423100  0.236400  0.341000  1.0
  H  H316  1  0.763600  0.186700  0.341000  1.0
  H  H317  1  0.057400  0.378100  0.611700  1.0
  H  H318  1  0.320700  0.942600  0.611700  1.0
  H  H319  1  0.621900  0.679300  0.611700  1.0
  H  H320  1  0.679300  0.621900  0.388300  1.0
  H  H321  1  0.378100  0.057400  0.388300  1.0
  H  H322  1  0.942600  0.320700  0.388300  1.0
  H  H323  1  0.989000  0.370000  0.624300  1.0
  H  H324  1  0.381000  0.011000  0.624300  1.0
  H  H325  1  0.630000  0.619000  0.624300  1.0
  H  H326  1  0.619000  0.630000  0.375700  1.0
  H  H327  1  0.370000  0.989000  0.375700  1.0
  H  H328  1  0.011000  0.381000  0.375700  1.0
  H  H329  1  0.085100  0.523900  0.668700  1.0
  H  H330  1  0.438800  0.914900  0.668700  1.0
  H  H331  1  0.476100  0.561200  0.668700  1.0
  H  H332  1  0.561200  0.476100  0.331300  1.0
  H  H333  1  0.523900  0.085100  0.331300  1.0
  H  H334  1  0.914900  0.438800  0.331300  1.0
  H  H335  1  0.161400  0.549700  0.658100  1.0
  H  H336  1  0.388300  0.838600  0.658100  1.0
  H  H337  1  0.450300  0.611700  0.658100  1.0
  H  H338  1  0.611700  0.450300  0.341900  1.0
  H  H339  1  0.549700  0.161400  0.341900  1.0
  H  H340  1  0.838600  0.388300  0.341900  1.0
  H  H341  1  0.103800  0.497600  0.603800  1.0
  H  H342  1  0.393800  0.896200  0.603800  1.0
  H  H343  1  0.502400  0.606200  0.603800  1.0
  H  H344  1  0.606200  0.502400  0.396200  1.0
  H  H345  1  0.497600  0.103800  0.396200  1.0
  H  H346  1  0.896200  0.393800  0.396200  1.0
  H  H347  1  0.019800  0.480200  0.608900  1.0
  H  H348  1  0.460400  0.980200  0.608900  1.0
  H  H349  1  0.519800  0.539600  0.608900  1.0
  H  H350  1  0.539600  0.519800  0.391100  1.0
  H  H351  1  0.480200  0.019800  0.391100  1.0
  H  H352  1  0.980200  0.460400  0.391100  1.0
  H  H353  1  0.044000  0.530800  0.638200  1.0
  H  H354  1  0.486800  0.956000  0.638200  1.0
  H  H355  1  0.469200  0.513200  0.638200  1.0
  H  H356  1  0.513200  0.469200  0.361800  1.0
  H  H357  1  0.530800  0.044000  0.361800  1.0
  H  H358  1  0.956000  0.486800  0.361800  1.0
  H  H359  1  0.126800  0.569700  0.627900  1.0
  H  H360  1  0.442900  0.873200  0.627900  1.0
  H  H361  1  0.430300  0.557100  0.627900  1.0
  H  H362  1  0.557100  0.430300  0.372100  1.0
  H  H363  1  0.569700  0.126800  0.372100  1.0
  H  H364  1  0.873200  0.442900  0.372100  1.0
  H  H365  1  0.792600  0.688900  0.592100  1.0
  H  H366  1  0.896300  0.207400  0.592100  1.0
  H  H367  1  0.311100  0.103700  0.592100  1.0
  H  H368  1  0.103700  0.311100  0.407900  1.0
  H  H369  1  0.688900  0.792600  0.407900  1.0
  H  H370  1  0.207400  0.896300  0.407900  1.0
  H  H371  1  0.837600  0.814400  0.594200  1.0
  H  H372  1  0.976800  0.162400  0.594200  1.0
  H  H373  1  0.185600  0.023200  0.594200  1.0
  H  H374  1  0.023200  0.185600  0.405800  1.0
  H  H375  1  0.814400  0.837600  0.405800  1.0
  H  H376  1  0.162400  0.976800  0.405800  1.0
  H  H377  1  0.050700  0.856900  0.595700  1.0
  H  H378  1  0.806200  0.949300  0.595700  1.0
  H  H379  1  0.143100  0.193800  0.595700  1.0
  H  H380  1  0.193800  0.143100  0.404300  1.0
  H  H381  1  0.856900  0.050700  0.404300  1.0
  H  H382  1  0.949300  0.806200  0.404300  1.0
  H  H383  1  0.001700  0.722500  0.595100  1.0
  H  H384  1  0.720800  0.998300  0.595100  1.0
  H  H385  1  0.277500  0.279200  0.595100  1.0
  H  H386  1  0.279200  0.277500  0.404900  1.0
  H  H387  1  0.722500  0.001700  0.404900  1.0
  H  H388  1  0.998300  0.720800  0.404900  1.0
  H  H389  1  0.068700  0.641400  0.534300  1.0
  H  H390  1  0.572700  0.931300  0.534300  1.0
  H  H391  1  0.358600  0.427300  0.534300  1.0
  H  H392  1  0.427300  0.358600  0.465700  1.0
  H  H393  1  0.641400  0.068700  0.465700  1.0
  H  H394  1  0.931300  0.572700  0.465700  1.0
  H  H395  1  0.877000  0.604800  0.500600  1.0
  H  H396  1  0.727800  0.123000  0.500600  1.0
  H  H397  1  0.395200  0.272200  0.500600  1.0
  H  H398  1  0.272200  0.395200  0.499400  1.0
  H  H399  1  0.604800  0.877000  0.499400  1.0
  H  H400  1  0.123000  0.727800  0.499400  1.0
  H  H401  1  0.073300  0.615300  0.573000  1.0
  H  H402  1  0.542000  0.926700  0.573000  1.0
  H  H403  1  0.384700  0.458000  0.573000  1.0
  H  H404  1  0.458000  0.384700  0.427000  1.0
  H  H405  1  0.615300  0.073300  0.427000  1.0
  H  H406  1  0.926700  0.542000  0.427000  1.0
  H  H407  1  0.995400  0.551600  0.584400  1.0
  H  H408  1  0.556200  0.004600  0.584400  1.0
  H  H409  1  0.448400  0.443800  0.584400  1.0
  H  H410  1  0.443800  0.448400  0.415600  1.0
  H  H411  1  0.551600  0.995400  0.415600  1.0
  H  H412  1  0.004600  0.556200  0.415600  1.0
  H  H413  1  0.025000  0.638300  0.590300  1.0
  H  H414  1  0.613300  0.975000  0.590300  1.0
  H  H415  1  0.361700  0.386700  0.590300  1.0
  H  H416  1  0.386700  0.361700  0.409700  1.0
  H  H417  1  0.638300  0.025000  0.409700  1.0
  H  H418  1  0.975000  0.613300  0.409700  1.0
  H  H419  1  0.772300  0.579000  0.525500  1.0
  H  H420  1  0.806700  0.227700  0.525500  1.0
  H  H421  1  0.421000  0.193300  0.525500  1.0
  H  H422  1  0.193300  0.421000  0.474500  1.0
  H  H423  1  0.579000  0.772300  0.474500  1.0
  H  H424  1  0.227700  0.806700  0.474500  1.0
  H  H425  1  0.798000  0.617100  0.551900  1.0
  H  H426  1  0.819100  0.202000  0.551900  1.0
  H  H427  1  0.382900  0.180900  0.551900  1.0
  H  H428  1  0.180900  0.382900  0.448100  1.0
  H  H429  1  0.617100  0.798000  0.448100  1.0
  H  H430  1  0.202000  0.819100  0.448100  1.0
  H  H431  1  0.765500  0.528600  0.548800  1.0
  H  H432  1  0.763100  0.234500  0.548800  1.0
  H  H433  1  0.471400  0.236900  0.548800  1.0
  H  H434  1  0.236900  0.471400  0.451200  1.0
  H  H435  1  0.528600  0.765500  0.451200  1.0
  H  H436  1  0.234500  0.763100  0.451200  1.0
  H  H437  1  0.853300  0.602900  0.635500  1.0
  H  H438  1  0.749600  0.146700  0.635500  1.0
  H  H439  1  0.397100  0.250400  0.635500  1.0
  H  H440  1  0.250400  0.397100  0.364500  1.0
  H  H441  1  0.602900  0.853300  0.364500  1.0
  H  H442  1  0.146700  0.749600  0.364500  1.0
  H  H443  1  0.780000  0.583200  0.624400  1.0
  H  H444  1  0.803200  0.220000  0.624400  1.0
  H  H445  1  0.416800  0.196800  0.624400  1.0
  H  H446  1  0.196800  0.416800  0.375600  1.0
  H  H447  1  0.583200  0.780000  0.375600  1.0
  H  H448  1  0.220000  0.803200  0.375600  1.0
  H  H449  1  0.779800  0.444200  0.583900  1.0
  H  H450  1  0.664400  0.220200  0.583900  1.0
  H  H451  1  0.555800  0.335600  0.583900  1.0
  H  H452  1  0.335600  0.555800  0.416100  1.0
  H  H453  1  0.444200  0.779800  0.416100  1.0
  H  H454  1  0.220200  0.664400  0.416100  1.0
  H  H455  1  0.858700  0.459500  0.587400  1.0
  H  H456  1  0.600800  0.141300  0.587400  1.0
  H  H457  1  0.540500  0.399200  0.587400  1.0
  H  H458  1  0.399200  0.540500  0.412600  1.0
  H  H459  1  0.459500  0.858700  0.412600  1.0
  H  H460  1  0.141300  0.600800  0.412600  1.0
  H  H461  1  0.799100  0.493900  0.653900  1.0
  H  H462  1  0.694800  0.200900  0.653900  1.0
  H  H463  1  0.506100  0.305200  0.653900  1.0
  H  H464  1  0.305200  0.506100  0.346100  1.0
  H  H465  1  0.493900  0.799100  0.346100  1.0
  H  H466  1  0.200900  0.694800  0.346100  1.0
  H  H467  1  0.725300  0.466200  0.637000  1.0
  H  H468  1  0.740900  0.274700  0.637000  1.0
  H  H469  1  0.533800  0.259100  0.637000  1.0
  H  H470  1  0.259100  0.533800  0.363000  1.0
  H  H471  1  0.466200  0.725300  0.363000  1.0
  H  H472  1  0.274700  0.740900  0.363000  1.0
  H  H473  1  0.772400  0.400900  0.622000  1.0
  H  H474  1  0.628500  0.227600  0.622000  1.0
  H  H475  1  0.599100  0.371500  0.622000  1.0
  H  H476  1  0.371500  0.599100  0.378000  1.0
  H  H477  1  0.400900  0.772400  0.378000  1.0
  H  H478  1  0.227600  0.628500  0.378000  1.0
  H  H479  1  0.856200  0.464100  0.627600  1.0
  H  H480  1  0.607900  0.143800  0.627600  1.0
  H  H481  1  0.535900  0.392100  0.627600  1.0
  H  H482  1  0.392100  0.535900  0.372400  1.0
  H  H483  1  0.464100  0.856200  0.372400  1.0
  H  H484  1  0.143800  0.607900  0.372400  1.0
  H  H485  1  0.211000  0.247200  0.779000  0.35
  H  H486  1  0.036200  0.789000  0.779000  0.35
  H  H487  1  0.752800  0.963800  0.779000  0.35
  H  H488  1  0.963800  0.752800  0.221000  0.35
  H  H489  1  0.247200  0.211000  0.221000  0.35
  H  H490  1  0.789000  0.036200  0.221000  0.35
  H  H491  1  0.316800  0.216700  0.778900  0.35
  H  H492  1  0.899900  0.683200  0.778900  0.35
  H  H493  1  0.783300  0.100100  0.778900  0.35
  H  H494  1  0.100100  0.783300  0.221100  0.35
  H  H495  1  0.216700  0.316800  0.221100  0.35
  H  H496  1  0.683200  0.899900  0.221100  0.35
  H  H497  1  0.323100  0.113200  0.782900  0.35
  H  H498  1  0.790100  0.676900  0.782900  0.35
  H  H499  1  0.886800  0.209900  0.782900  0.35
  H  H500  1  0.209900  0.886800  0.217100  0.35
  H  H501  1  0.113200  0.323100  0.217100  0.35
  H  H502  1  0.676900  0.790100  0.217100  0.35
  H  H503  1  0.255700  0.039600  0.770500  0.35
  H  H504  1  0.783900  0.744300  0.770500  0.35
  H  H505  1  0.960400  0.216100  0.770500  0.35
  H  H506  1  0.216100  0.960400  0.229500  0.35
  H  H507  1  0.039600  0.255700  0.229500  0.35
  H  H508  1  0.744300  0.783900  0.229500  0.35
  H  H509  1  0.257900  0.050400  0.799600  0.35
  H  H510  1  0.792500  0.742100  0.799600  0.35
  H  H511  1  0.949600  0.207500  0.799600  0.35
  H  H512  1  0.207500  0.949600  0.200400  0.35
  H  H513  1  0.050400  0.257900  0.200400  0.35
  H  H514  1  0.742100  0.792500  0.200400  0.35
  H  H515  1  0.786800  0.682800  0.721200  0.35
  H  H516  1  0.896000  0.213200  0.721200  0.35
  H  H517  1  0.317200  0.104000  0.721200  0.35
  H  H518  1  0.104000  0.317200  0.278800  0.35
  H  H519  1  0.682800  0.786800  0.278800  0.35
  H  H520  1  0.213200  0.896000  0.278800  0.35
  H  H521  1  0.751100  0.783500  0.717300  0.35
  H  H522  1  0.032400  0.248900  0.717300  0.35
  H  H523  1  0.216500  0.967600  0.717300  0.35
  H  H524  1  0.967600  0.216500  0.282700  0.35
  H  H525  1  0.783500  0.751100  0.282700  0.35
  H  H526  1  0.248900  0.032400  0.282700  0.35
  H  H527  1  0.935800  0.697500  0.718200  0.35
  H  H528  1  0.761700  0.064200  0.718200  0.35
  H  H529  1  0.302500  0.238300  0.718200  0.35
  H  H530  1  0.238300  0.302500  0.281800  0.35
  H  H531  1  0.697500  0.935800  0.281800  0.35
  H  H532  1  0.064200  0.761700  0.281800  0.35
  H  H533  1  0.990800  0.775400  0.731500  0.35
  H  H534  1  0.784600  0.009200  0.731500  0.35
  H  H535  1  0.224600  0.215400  0.731500  0.35
  H  H536  1  0.215400  0.224600  0.268500  0.35
  H  H537  1  0.775400  0.990800  0.268500  0.35
  H  H538  1  0.009200  0.784600  0.268500  0.35
  H  H539  1  0.985200  0.771800  0.702200  0.35
  H  H540  1  0.786600  0.014800  0.702200  0.35
  H  H541  1  0.228200  0.213400  0.702200  0.35
  H  H542  1  0.213400  0.228200  0.297800  0.35
  H  H543  1  0.771800  0.985200  0.297800  0.35
  H  H544  1  0.014800  0.786600  0.297800  0.35
  H  H545  1  0.777600  0.089100  0.977100  0.35
  H  H546  1  0.311500  0.222400  0.977100  0.35
  H  H547  1  0.910900  0.688500  0.977100  0.35
  H  H548  1  0.688500  0.910900  0.022900  0.35
  H  H549  1  0.089100  0.777600  0.022900  0.35
  H  H550  1  0.222400  0.311500  0.022900  0.35
  H  H551  1  0.914900  0.175700  0.971000  0.35
  H  H552  1  0.260800  0.085100  0.971000  0.35
  H  H553  1  0.824300  0.739200  0.971000  0.35
  H  H554  1  0.739200  0.824300  0.029000  0.35
  H  H555  1  0.175700  0.914900  0.029000  0.35
  H  H556  1  0.085100  0.260800  0.029000  0.35
  H  H557  1  0.687600  0.947100  0.973200  0.35
  H  H558  1  0.259500  0.312400  0.973200  0.35
  H  H559  1  0.052900  0.740500  0.973200  0.35
  H  H560  1  0.740500  0.052900  0.026800  0.35
  H  H561  1  0.947100  0.687600  0.026800  0.35
  H  H562  1  0.312400  0.259500  0.026800  0.35
  H  H563  1  0.723100  0.896600  0.981400  0.35
  H  H564  1  0.173500  0.276900  0.981400  0.35
  H  H565  1  0.103400  0.826500  0.981400  0.35
  H  H566  1  0.826500  0.103400  0.018600  0.35
  H  H567  1  0.896600  0.723100  0.018600  0.35
  H  H568  1  0.276900  0.173500  0.018600  0.35
  H  H569  1  0.723000  0.917000  0.953100  0.35
  H  H570  1  0.194000  0.277000  0.953100  0.35
  H  H571  1  0.083000  0.806000  0.953100  0.35
  H  H572  1  0.806000  0.083000  0.046900  0.35
  H  H573  1  0.917000  0.723000  0.046900  0.35
  H  H574  1  0.277000  0.194000  0.046900  0.35
  H  H575  1  0.310900  0.083400  0.527600  0.35
  H  H576  1  0.772500  0.689100  0.527600  0.35
  H  H577  1  0.916600  0.227500  0.527600  0.35
  H  H578  1  0.227500  0.916600  0.472400  0.35
  H  H579  1  0.083400  0.310900  0.472400  0.35
  H  H580  1  0.689100  0.772500  0.472400  0.35
  H  H581  1  0.265200  0.175000  0.530800  0.35
  H  H582  1  0.909800  0.734800  0.530800  0.35
  H  H583  1  0.825000  0.090200  0.530800  0.35
  H  H584  1  0.090200  0.825000  0.469200  0.35
  H  H585  1  0.175000  0.265200  0.469200  0.35
  H  H586  1  0.734800  0.909800  0.469200  0.35
  H  H587  1  0.282900  0.953300  0.531400  0.35
  H  H588  1  0.670400  0.717100  0.531400  0.35
  H  H589  1  0.046700  0.329600  0.531400  0.35
  H  H590  1  0.329600  0.046700  0.468600  0.35
  H  H591  1  0.953300  0.282900  0.468600  0.35
  H  H592  1  0.717100  0.670400  0.468600  0.35
  H  H593  1  0.206500  0.899300  0.517000  0.35
  H  H594  1  0.692800  0.793500  0.517000  0.35
  H  H595  1  0.100700  0.307200  0.517000  0.35
  H  H596  1  0.307200  0.100700  0.483000  0.35
  H  H597  1  0.899300  0.206500  0.483000  0.35
  H  H598  1  0.793500  0.692800  0.483000  0.35
  H  H599  1  0.207500  0.901100  0.546400  0.35
  H  H600  1  0.693600  0.792500  0.546400  0.35
  H  H601  1  0.098900  0.306400  0.546400  0.35
  H  H602  1  0.306400  0.098900  0.453600  0.35
  H  H603  1  0.901100  0.207500  0.453600  0.35
  H  H604  1  0.792500  0.693600  0.453600  0.35
  H  H605  1  0.261600  0.963600  0.782600  0.65
  H  H606  1  0.702000  0.738400  0.782600  0.65
  H  H607  1  0.036400  0.298000  0.782600  0.65
  H  H608  1  0.298000  0.036400  0.217400  0.65
  H  H609  1  0.963600  0.261600  0.217400  0.65
  H  H610  1  0.738400  0.702000  0.217400  0.65
  H  H611  1  0.127900  0.860600  0.787500  0.65
  H  H612  1  0.732700  0.872100  0.787500  0.65
  H  H613  1  0.139400  0.267300  0.787500  0.65
  H  H614  1  0.267300  0.139400  0.212500  0.65
  H  H615  1  0.860600  0.127900  0.212500  0.65
  H  H616  1  0.872100  0.732700  0.212500  0.65
  H  H617  1  0.338300  0.150900  0.780500  0.65
  H  H618  1  0.812600  0.661700  0.780500  0.65
  H  H619  1  0.849100  0.187400  0.780500  0.65
  H  H620  1  0.187400  0.849100  0.219500  0.65
  H  H621  1  0.150900  0.338300  0.219500  0.65
  H  H622  1  0.661700  0.812600  0.219500  0.65
  H  H623  1  0.279800  0.166900  0.794900  0.65
  H  H624  1  0.887100  0.720200  0.794900  0.65
  H  H625  1  0.833100  0.112900  0.794900  0.65
  H  H626  1  0.112900  0.833100  0.205100  0.65
  H  H627  1  0.166900  0.279800  0.205100  0.65
  H  H628  1  0.720200  0.887100  0.205100  0.65
  H  H629  1  0.273200  0.155300  0.765800  0.65
  H  H630  1  0.882100  0.726800  0.765800  0.65
  H  H631  1  0.844700  0.117900  0.765800  0.65
  H  H632  1  0.117900  0.844700  0.234200  0.65
  H  H633  1  0.155300  0.273200  0.234200  0.65
  H  H634  1  0.726800  0.882100  0.234200  0.65
  H  H635  1  0.028300  0.733800  0.718100  0.65
  H  H636  1  0.705500  0.971700  0.718100  0.65
  H  H637  1  0.266200  0.294500  0.718100  0.65
  H  H638  1  0.294500  0.266200  0.281900  0.65
  H  H639  1  0.733800  0.028300  0.281900  0.65
  H  H640  1  0.971700  0.705500  0.281900  0.65
  H  H641  1  0.133100  0.863000  0.713700  0.65
  H  H642  1  0.729900  0.866900  0.713700  0.65
  H  H643  1  0.137000  0.270100  0.713700  0.65
  H  H644  1  0.270100  0.137000  0.286300  0.65
  H  H645  1  0.863000  0.133100  0.286300  0.65
  H  H646  1  0.866900  0.729900  0.286300  0.65
  H  H647  1  0.844100  0.728100  0.717800  0.65
  H  H648  1  0.884000  0.155900  0.717800  0.65
  H  H649  1  0.271900  0.116000  0.717800  0.65
  H  H650  1  0.116000  0.271900  0.282200  0.65
  H  H651  1  0.728100  0.844100  0.282200  0.65
  H  H652  1  0.155900  0.884000  0.282200  0.65
  H  H653  1  0.877800  0.683100  0.731900  0.65
  H  H654  1  0.805300  0.122200  0.731900  0.65
  H  H655  1  0.316900  0.194700  0.731900  0.65
  H  H656  1  0.194700  0.316900  0.268100  0.65
  H  H657  1  0.683100  0.877800  0.268100  0.65
  H  H658  1  0.122200  0.805300  0.268100  0.65
  H  H659  1  0.876200  0.683500  0.702600  0.65
  H  H660  1  0.807300  0.123800  0.702600  0.65
  H  H661  1  0.316500  0.192700  0.702600  0.65
  H  H662  1  0.192700  0.316500  0.297400  0.65
  H  H663  1  0.683500  0.876200  0.297400  0.65
  H  H664  1  0.123800  0.807300  0.297400  0.65
  H  H665  1  0.762000  0.772700  0.961700  0.65
  H  H666  1  0.010700  0.238000  0.961700  0.65
  H  H667  1  0.227300  0.989300  0.961700  0.65
  H  H668  1  0.989300  0.227300  0.038300  0.65
  H  H669  1  0.772700  0.762000  0.038300  0.65
  H  H670  1  0.238000  0.010700  0.038300  0.65
  H  H671  1  0.677700  0.826500  0.965000  0.65
  H  H672  1  0.148800  0.322300  0.965000  0.65
  H  H673  1  0.173500  0.851200  0.965000  0.65
  H  H674  1  0.851200  0.173500  0.035000  0.65
  H  H675  1  0.826500  0.677700  0.035000  0.65
  H  H676  1  0.322300  0.148800  0.035000  0.65
  H  H677  1  0.791100  0.036200  0.963900  0.65
  H  H678  1  0.245100  0.208900  0.963900  0.65
  H  H679  1  0.963800  0.754900  0.963900  0.65
  H  H680  1  0.754900  0.963800  0.036100  0.65
  H  H681  1  0.036200  0.791100  0.036100  0.65
  H  H682  1  0.208900  0.245100  0.036100  0.65
  H  H683  1  0.719200  0.979600  0.979800  0.65
  H  H684  1  0.260400  0.280800  0.979800  0.65
  H  H685  1  0.020400  0.739600  0.979800  0.65
  H  H686  1  0.739600  0.020400  0.020200  0.65
  H  H687  1  0.979600  0.719200  0.020200  0.65
  H  H688  1  0.280800  0.260400  0.020200  0.65
  H  H689  1  0.715200  0.976500  0.950500  0.65
  H  H690  1  0.261300  0.284800  0.950500  0.65
  H  H691  1  0.023500  0.738700  0.950500  0.65
  H  H692  1  0.738700  0.023500  0.049500  0.65
  H  H693  1  0.976500  0.715200  0.049500  0.65
  H  H694  1  0.284800  0.261300  0.049500  0.65
  H  H695  1  0.004900  0.767600  0.535000  0.65
  H  H696  1  0.762700  0.995100  0.535000  0.65
  H  H697  1  0.232400  0.237300  0.535000  0.65
  H  H698  1  0.237300  0.232400  0.465000  0.65
  H  H699  1  0.767600  0.004900  0.465000  0.65
  H  H700  1  0.995100  0.762700  0.465000  0.65
  H  H701  1  0.135500  0.812300  0.534000  0.65
  H  H702  1  0.676800  0.864500  0.534000  0.65
  H  H703  1  0.187700  0.323200  0.534000  0.65
  H  H704  1  0.323200  0.187700  0.466000  0.65
  H  H705  1  0.812300  0.135500  0.466000  0.65
  H  H706  1  0.864500  0.676800  0.466000  0.65
  H  H707  1  0.236000  0.019100  0.534300  0.65
  H  H708  1  0.783100  0.764000  0.534300  0.65
  H  H709  1  0.980900  0.216900  0.534300  0.65
  H  H710  1  0.216900  0.980900  0.465700  0.65
  H  H711  1  0.019100  0.236000  0.465700  0.65
  H  H712  1  0.764000  0.783100  0.465700  0.65
  H  H713  1  0.242500  0.958100  0.517800  0.65
  H  H714  1  0.715600  0.757500  0.517800  0.65
  H  H715  1  0.041900  0.284400  0.517800  0.65
  H  H716  1  0.284400  0.041900  0.482200  0.65
  H  H717  1  0.958100  0.242500  0.482200  0.65
  H  H718  1  0.757500  0.715600  0.482200  0.65
  H  H719  1  0.250800  0.957400  0.547000  0.65
  H  H720  1  0.706600  0.749200  0.547000  0.65
  H  H721  1  0.042600  0.293400  0.547000  0.65
  H  H722  1  0.293400  0.042600  0.453000  0.65
  H  H723  1  0.957400  0.250800  0.453000  0.65
  H  H724  1  0.749200  0.706600  0.453000  0.65
  Pd  Pd725  1  0.315610  0.406040  0.842720  1.0
  Pd  Pd726  1  0.090430  0.684390  0.842720  1.0
  Pd  Pd727  1  0.593960  0.909570  0.842720  1.0
  Pd  Pd728  1  0.909570  0.593960  0.157280  1.0
  Pd  Pd729  1  0.406040  0.315610  0.157280  1.0
  Pd  Pd730  1  0.684390  0.090430  0.157280  1.0
  Pd  Pd731  1  0.090510  0.406140  0.657260  1.0
  Pd  Pd732  1  0.315630  0.909490  0.657260  1.0
  Pd  Pd733  1  0.593860  0.684370  0.657260  1.0
  Pd  Pd734  1  0.684370  0.593860  0.342740  1.0
  Pd  Pd735  1  0.406140  0.090510  0.342740  1.0
  Pd  Pd736  1  0.909490  0.315630  0.342740  1.0
  Pd  Pd737  1  0.721170  0.582460  0.908430  1.0
  Pd  Pd738  1  0.861290  0.278830  0.908430  1.0
  Pd  Pd739  1  0.417540  0.138710  0.908430  1.0
  Pd  Pd740  1  0.138710  0.417540  0.091570  1.0
  Pd  Pd741  1  0.582460  0.721170  0.091570  1.0
  Pd  Pd742  1  0.278830  0.861290  0.091570  1.0
  Pd  Pd743  1  0.861500  0.582480  0.591520  1.0
  Pd  Pd744  1  0.720980  0.138500  0.591520  1.0
  Pd  Pd745  1  0.417520  0.279020  0.591520  1.0
  Pd  Pd746  1  0.279020  0.417520  0.408480  1.0
  Pd  Pd747  1  0.582480  0.861500  0.408480  1.0
  Pd  Pd748  1  0.138500  0.720980  0.408480  1.0
  Au  Au749  1  0.033570  0.110890  0.782730  0.35
  Au  Au750  1  0.077320  0.966430  0.782730  0.35
  Au  Au751  1  0.889110  0.922680  0.782730  0.35
  Au  Au752  1  0.922680  0.889110  0.217270  0.35
  Au  Au753  1  0.110890  0.033570  0.217270  0.35
  Au  Au754  1  0.966430  0.077320  0.217270  0.35
  Au  Au755  1  0.033280  0.922910  0.717500  0.35
  Au  Au756  1  0.889630  0.966720  0.717500  0.35
  Au  Au757  1  0.077090  0.110370  0.717500  0.35
  Au  Au758  1  0.110370  0.077090  0.282500  0.35
  Au  Au759  1  0.922910  0.033280  0.282500  0.35
  Au  Au760  1  0.966720  0.889630  0.282500  0.35
  Au  Au761  1  0.889240  0.920270  0.967080  0.35
  Au  Au762  1  0.031030  0.110760  0.967080  0.35
  Au  Au763  1  0.079730  0.968970  0.967080  0.35
  Au  Au764  1  0.968970  0.079730  0.032920  0.35
  Au  Au765  1  0.920270  0.889240  0.032920  0.35
  Au  Au766  1  0.110760  0.031030  0.032920  0.35
  Au  Au767  1  0.031010  0.920560  0.532970  0.35
  Au  Au768  1  0.889550  0.968990  0.532970  0.35
  Au  Au769  1  0.079440  0.110450  0.532970  0.35
  Au  Au770  1  0.110450  0.079440  0.467030  0.35
  Au  Au771  1  0.920560  0.031010  0.467030  0.35
  Au  Au772  1  0.968990  0.889550  0.467030  0.35
  Au  Au773  1  0.104070  0.092050  0.785920  0.65
  Au  Au774  1  0.987980  0.895930  0.785920  0.65
  Au  Au775  1  0.907950  0.012020  0.785920  0.65
  Au  Au776  1  0.012020  0.907950  0.214080  0.65
  Au  Au777  1  0.092050  0.104070  0.214080  0.65
  Au  Au778  1  0.895930  0.987980  0.214080  0.65
  Au  Au779  1  0.908130  0.895820  0.714180  0.65
  Au  Au780  1  0.987690  0.091870  0.714180  0.65
  Au  Au781  1  0.104180  0.012310  0.714180  0.65
  Au  Au782  1  0.012310  0.104180  0.285820  0.65
  Au  Au783  1  0.895820  0.908130  0.285820  0.65
  Au  Au784  1  0.091870  0.987690  0.285820  0.65
  Au  Au785  1  0.950060  0.886530  0.965210  0.65
  Au  Au786  1  0.936470  0.049940  0.965210  0.65
  Au  Au787  1  0.113470  0.063530  0.965210  0.65
  Au  Au788  1  0.063530  0.113470  0.034790  0.65
  Au  Au789  1  0.886530  0.950060  0.034790  0.65
  Au  Au790  1  0.049940  0.936470  0.034790  0.65
  Au  Au791  1  0.936300  0.886490  0.534810  0.65
  Au  Au792  1  0.950190  0.063700  0.534810  0.65
  Au  Au793  1  0.113510  0.049810  0.534810  0.65
  Au  Au794  1  0.049810  0.113510  0.465190  0.65
  Au  Au795  1  0.886490  0.936300  0.465190  0.65
  Au  Au796  1  0.063700  0.950190  0.465190  0.65
  C  C797  1  0.774900  0.744100  0.906600  1.0
  C  C798  1  0.969200  0.225100  0.906600  1.0
  C  C799  1  0.255900  0.030800  0.906600  1.0
  C  C800  1  0.030800  0.255900  0.093400  1.0
  C  C801  1  0.744100  0.774900  0.093400  1.0
  C  C802  1  0.225100  0.969200  0.093400  1.0
  C  C803  1  0.823200  0.821400  0.906600  1.0
  C  C804  1  0.998200  0.176800  0.906600  1.0
  C  C805  1  0.178600  0.001800  0.906600  1.0
  C  C806  1  0.001800  0.178600  0.093400  1.0
  C  C807  1  0.821400  0.823200  0.093400  1.0
  C  C808  1  0.176800  0.998200  0.093400  1.0
  C  C809  1  0.898900  0.843600  0.906600  1.0
  C  C810  1  0.944700  0.101100  0.906600  1.0
  C  C811  1  0.156400  0.055300  0.906600  1.0
  C  C812  1  0.055300  0.156400  0.093400  1.0
  C  C813  1  0.843600  0.898900  0.093400  1.0
  C  C814  1  0.101100  0.944700  0.093400  1.0
  C  C815  1  0.924500  0.795300  0.906400  1.0
  C  C816  1  0.870800  0.075500  0.906400  1.0
  C  C817  1  0.204700  0.129200  0.906400  1.0
  C  C818  1  0.129200  0.204700  0.093600  1.0
  C  C819  1  0.795300  0.924500  0.093600  1.0
  C  C820  1  0.075500  0.870800  0.093600  1.0
  C  C821  1  0.874300  0.720500  0.908200  1.0
  C  C822  1  0.846200  0.125700  0.908200  1.0
  C  C823  1  0.279500  0.153800  0.908200  1.0
  C  C824  1  0.153800  0.279500  0.091800  1.0
  C  C825  1  0.720500  0.874300  0.091800  1.0
  C  C826  1  0.125700  0.846200  0.091800  1.0
  C  C827  1  0.952400  0.930200  0.905500  1.0
  C  C828  1  0.977800  0.047600  0.905500  1.0
  C  C829  1  0.069800  0.022200  0.905500  1.0
  C  C830  1  0.022200  0.069800  0.094500  1.0
  C  C831  1  0.930200  0.952400  0.094500  1.0
  C  C832  1  0.047600  0.977800  0.094500  1.0
  C  C833  1  0.625700  0.607900  0.944400  1.0
  C  C834  1  0.982200  0.374300  0.944400  1.0
  C  C835  1  0.392100  0.017800  0.944400  1.0
  C  C836  1  0.017800  0.392100  0.055600  1.0
  C  C837  1  0.607900  0.625700  0.055600  1.0
  C  C838  1  0.374300  0.982200  0.055600  1.0
  C  C839  1  0.607700  0.626500  0.966900  1.0
  C  C840  1  0.018800  0.392300  0.966900  1.0
  C  C841  1  0.373500  0.981200  0.966900  1.0
  C  C842  1  0.981200  0.373500  0.033100  1.0
  C  C843  1  0.626500  0.607700  0.033100  1.0
  C  C844  1  0.392300  0.018800  0.033100  1.0
  C  C845  1  0.645900  0.625200  0.987300  1.0
  C  C846  1  0.979300  0.354100  0.987300  1.0
  C  C847  1  0.374800  0.020700  0.987300  1.0
  C  C848  1  0.020700  0.374800  0.012700  1.0
  C  C849  1  0.625200  0.645900  0.012700  1.0
  C  C850  1  0.354100  0.979300  0.012700  1.0
  C  C851  1  0.700600  0.608500  0.984400  1.0
  C  C852  1  0.907900  0.299400  0.984400  1.0
  C  C853  1  0.391500  0.092100  0.984400  1.0
  C  C854  1  0.092100  0.391500  0.015600  1.0
  C  C855  1  0.608500  0.700600  0.015600  1.0
  C  C856  1  0.299400  0.907900  0.015600  1.0
  C  C857  1  0.720000  0.593000  0.965100  1.0
  C  C858  1  0.873000  0.280000  0.965100  1.0
  C  C859  1  0.407000  0.127000  0.965100  1.0
  C  C860  1  0.127000  0.407000  0.034900  1.0
  C  C861  1  0.593000  0.720000  0.034900  1.0
  C  C862  1  0.280000  0.873000  0.034900  1.0
  C  C863  1  0.582400  0.602500  0.920800  1.0
  C  C864  1  0.020100  0.417600  0.920800  1.0
  C  C865  1  0.397500  0.979900  0.920800  1.0
  C  C866  1  0.979900  0.397500  0.079200  1.0
  C  C867  1  0.602500  0.582400  0.079200  1.0
  C  C868  1  0.417600  0.020100  0.079200  1.0
  C  C869  1  0.786300  0.584900  0.962700  1.0
  C  C870  1  0.798600  0.213700  0.962700  1.0
  C  C871  1  0.415100  0.201400  0.962700  1.0
  C  C872  1  0.201400  0.415100  0.037300  1.0
  C  C873  1  0.584900  0.786300  0.037300  1.0
  C  C874  1  0.213700  0.798600  0.037300  1.0
  C  C875  1  0.710000  0.494000  0.865700  1.0
  C  C876  1  0.784000  0.290000  0.865700  1.0
  C  C877  1  0.506000  0.216000  0.865700  1.0
  C  C878  1  0.216000  0.506000  0.134300  1.0
  C  C879  1  0.494000  0.710000  0.134300  1.0
  C  C880  1  0.290000  0.784000  0.134300  1.0
  C  C881  1  0.648000  0.448000  0.883500  1.0
  C  C882  1  0.800000  0.352000  0.883500  1.0
  C  C883  1  0.552000  0.200000  0.883500  1.0
  C  C884  1  0.200000  0.552000  0.116500  1.0
  C  C885  1  0.448000  0.648000  0.116500  1.0
  C  C886  1  0.352000  0.800000  0.116500  1.0
  C  C887  1  0.161600  0.278900  0.845200  1.0
  C  C888  1  0.117300  0.838400  0.845200  1.0
  C  C889  1  0.721100  0.882700  0.845200  1.0
  C  C890  1  0.882700  0.721100  0.154800  1.0
  C  C891  1  0.278900  0.161600  0.154800  1.0
  C  C892  1  0.838400  0.117300  0.154800  1.0
  C  C893  1  0.101500  0.206500  0.846600  1.0
  C  C894  1  0.105000  0.898500  0.846600  1.0
  C  C895  1  0.793500  0.895000  0.846600  1.0
  C  C896  1  0.895000  0.793500  0.153400  1.0
  C  C897  1  0.206500  0.101500  0.153400  1.0
  C  C898  1  0.898500  0.105000  0.153400  1.0
  C  C899  1  0.118400  0.149700  0.845800  1.0
  C  C900  1  0.031300  0.881600  0.845800  1.0
  C  C901  1  0.850300  0.968700  0.845800  1.0
  C  C902  1  0.968700  0.850300  0.154200  1.0
  C  C903  1  0.149700  0.118400  0.154200  1.0
  C  C904  1  0.881600  0.031300  0.154200  1.0
  C  C905  1  0.191700  0.168500  0.844800  1.0
  C  C906  1  0.976800  0.808300  0.844800  1.0
  C  C907  1  0.831500  0.023200  0.844800  1.0
  C  C908  1  0.023200  0.831500  0.155200  1.0
  C  C909  1  0.168500  0.191700  0.155200  1.0
  C  C910  1  0.808300  0.976800  0.155200  1.0
  C  C911  1  0.251600  0.239900  0.843200  1.0
  C  C912  1  0.988300  0.748400  0.843200  1.0
  C  C913  1  0.760100  0.011700  0.843200  1.0
  C  C914  1  0.011700  0.760100  0.156800  1.0
  C  C915  1  0.239900  0.251600  0.156800  1.0
  C  C916  1  0.748400  0.988300  0.156800  1.0
  C  C917  1  0.056100  0.068000  0.845900  1.0
  C  C918  1  0.011900  0.943900  0.845900  1.0
  C  C919  1  0.932000  0.988100  0.845900  1.0
  C  C920  1  0.988100  0.932000  0.154100  1.0
  C  C921  1  0.068000  0.056100  0.154100  1.0
  C  C922  1  0.943900  0.011900  0.154100  1.0
  C  C923  1  0.303900  0.396000  0.789900  1.0
  C  C924  1  0.092100  0.696100  0.789900  1.0
  C  C925  1  0.604000  0.907900  0.789900  1.0
  C  C926  1  0.907900  0.604000  0.210100  1.0
  C  C927  1  0.396000  0.303900  0.210100  1.0
  C  C928  1  0.696100  0.092100  0.210100  1.0
  C  C929  1  0.278600  0.396600  0.765800  1.0
  C  C930  1  0.118000  0.721400  0.765800  1.0
  C  C931  1  0.603400  0.882000  0.765800  1.0
  C  C932  1  0.882000  0.603400  0.234200  1.0
  C  C933  1  0.396600  0.278600  0.234200  1.0
  C  C934  1  0.721400  0.118000  0.234200  1.0
  C  C935  1  0.224800  0.418600  0.763100  1.0
  C  C936  1  0.193800  0.775200  0.763100  1.0
  C  C937  1  0.581400  0.806200  0.763100  1.0
  C  C938  1  0.806200  0.581400  0.236900  1.0
  C  C939  1  0.418600  0.224800  0.236900  1.0
  C  C940  1  0.775200  0.193800  0.236900  1.0
  C  C941  1  0.201600  0.441500  0.783900  1.0
  C  C942  1  0.239900  0.798400  0.783900  1.0
  C  C943  1  0.558500  0.760100  0.783900  1.0
  C  C944  1  0.760100  0.558500  0.216100  1.0
  C  C945  1  0.441500  0.201600  0.216100  1.0
  C  C946  1  0.798400  0.239900  0.216100  1.0
  C  C947  1  0.226800  0.437100  0.806600  1.0
  C  C948  1  0.210300  0.773200  0.806600  1.0
  C  C949  1  0.562900  0.789700  0.806600  1.0
  C  C950  1  0.789700  0.562900  0.193400  1.0
  C  C951  1  0.437100  0.226800  0.193400  1.0
  C  C952  1  0.773200  0.210300  0.193400  1.0
  C  C953  1  0.211800  0.468000  0.829200  1.0
  C  C954  1  0.256200  0.788200  0.829200  1.0
  C  C955  1  0.532000  0.743800  0.829200  1.0
  C  C956  1  0.743800  0.532000  0.170800  1.0
  C  C957  1  0.468000  0.211800  0.170800  1.0
  C  C958  1  0.788200  0.256200  0.170800  1.0
  C  C959  1  0.361300  0.372600  0.793300  1.0
  C  C960  1  0.011300  0.638700  0.793300  1.0
  C  C961  1  0.627400  0.988700  0.793300  1.0
  C  C962  1  0.988700  0.627400  0.206700  1.0
  C  C963  1  0.372600  0.361300  0.206700  1.0
  C  C964  1  0.638700  0.011300  0.206700  1.0
  C  C965  1  0.412200  0.476200  0.884300  1.0
  C  C966  1  0.064000  0.587800  0.884300  1.0
  C  C967  1  0.523800  0.936000  0.884300  1.0
  C  C968  1  0.936000  0.523800  0.115700  1.0
  C  C969  1  0.476200  0.412200  0.115700  1.0
  C  C970  1  0.587800  0.064000  0.115700  1.0
  C  C971  1  0.420000  0.535000  0.866300  1.0
  C  C972  1  0.115000  0.580000  0.866300  1.0
  C  C973  1  0.465000  0.885000  0.866300  1.0
  C  C974  1  0.885000  0.465000  0.133700  1.0
  C  C975  1  0.535000  0.420000  0.133700  1.0
  C  C976  1  0.580000  0.115000  0.133700  1.0
  C  C977  1  0.990100  0.237200  0.656200  1.0
  C  C978  1  0.247100  0.009900  0.656200  1.0
  C  C979  1  0.762800  0.752900  0.656200  1.0
  C  C980  1  0.752900  0.762800  0.343800  1.0
  C  C981  1  0.237200  0.990100  0.343800  1.0
  C  C982  1  0.009900  0.247100  0.343800  1.0
  C  C983  1  0.972800  0.166100  0.654100  1.0
  C  C984  1  0.193300  0.027200  0.654100  1.0
  C  C985  1  0.833900  0.806700  0.654100  1.0
  C  C986  1  0.806700  0.833900  0.345900  1.0
  C  C987  1  0.166100  0.972800  0.345900  1.0
  C  C988  1  0.027200  0.193300  0.345900  1.0
  C  C989  1  0.030000  0.149800  0.654600  1.0
  C  C990  1  0.119800  0.970000  0.654600  1.0
  C  C991  1  0.850200  0.880200  0.654600  1.0
  C  C992  1  0.880200  0.850200  0.345400  1.0
  C  C993  1  0.149800  0.030000  0.345400  1.0
  C  C994  1  0.970000  0.119800  0.345400  1.0
  C  C995  1  0.105100  0.207300  0.653600  1.0
  C  C996  1  0.102200  0.894900  0.653600  1.0
  C  C997  1  0.792700  0.897800  0.653600  1.0
  C  C998  1  0.897800  0.792700  0.346400  1.0
  C  C999  1  0.207300  0.105100  0.346400  1.0
  C  C1000  1  0.894900  0.102200  0.346400  1.0
  C  C1001  1  0.122300  0.281500  0.654200  1.0
  C  C1002  1  0.159200  0.877700  0.654200  1.0
  C  C1003  1  0.718500  0.840800  0.654200  1.0
  C  C1004  1  0.840800  0.718500  0.345800  1.0
  C  C1005  1  0.281500  0.122300  0.345800  1.0
  C  C1006  1  0.877700  0.159200  0.345800  1.0
  C  C1007  1  0.013900  0.070900  0.655200  1.0
  C  C1008  1  0.057000  0.986100  0.655200  1.0
  C  C1009  1  0.929100  0.943000  0.655200  1.0
  C  C1010  1  0.943000  0.929100  0.344800  1.0
  C  C1011  1  0.070900  0.013900  0.344800  1.0
  C  C1012  1  0.986100  0.057000  0.344800  1.0
  C  C1013  1  0.092100  0.399700  0.711100  1.0
  C  C1014  1  0.307600  0.907900  0.711100  1.0
  C  C1015  1  0.600300  0.692400  0.711100  1.0
  C  C1016  1  0.692400  0.600300  0.288900  1.0
  C  C1017  1  0.399700  0.092100  0.288900  1.0
  C  C1018  1  0.907900  0.307600  0.288900  1.0
  C  C1019  1  0.118900  0.396600  0.732900  1.0
  C  C1020  1  0.277700  0.881100  0.732900  1.0
  C  C1021  1  0.603400  0.722300  0.732900  1.0
  C  C1022  1  0.722300  0.603400  0.267100  1.0
  C  C1023  1  0.396600  0.118900  0.267100  1.0
  C  C1024  1  0.881100  0.277700  0.267100  1.0
  C  C1025  1  0.192600  0.417600  0.736000  1.0
  C  C1026  1  0.225000  0.807400  0.736000  1.0
  C  C1027  1  0.582400  0.775000  0.736000  1.0
  C  C1028  1  0.775000  0.582400  0.264000  1.0
  C  C1029  1  0.417600  0.192600  0.264000  1.0
  C  C1030  1  0.807400  0.225000  0.264000  1.0
  C  C1031  1  0.240300  0.442600  0.716800  1.0
  C  C1032  1  0.202300  0.759700  0.716800  1.0
  C  C1033  1  0.557400  0.797700  0.716800  1.0
  C  C1034  1  0.797700  0.557400  0.283200  1.0
  C  C1035  1  0.442600  0.240300  0.283200  1.0
  C  C1036  1  0.759700  0.202300  0.283200  1.0
  C  C1037  1  0.210300  0.436800  0.692900  1.0
  C  C1038  1  0.226500  0.789700  0.692900  1.0
  C  C1039  1  0.563200  0.773500  0.692900  1.0
  C  C1040  1  0.773500  0.563200  0.307100  1.0
  C  C1041  1  0.436800  0.210300  0.307100  1.0
  C  C1042  1  0.789700  0.226500  0.307100  1.0
  C  C1043  1  0.012800  0.372200  0.709300  1.0
  C  C1044  1  0.359400  0.987200  0.709300  1.0
  C  C1045  1  0.627800  0.640600  0.709300  1.0
  C  C1046  1  0.640600  0.627800  0.290700  1.0
  C  C1047  1  0.372200  0.012800  0.290700  1.0
  C  C1048  1  0.987200  0.359400  0.290700  1.0
  C  C1049  1  0.256000  0.463000  0.671400  1.0
  C  C1050  1  0.207000  0.744000  0.671400  1.0
  C  C1051  1  0.537000  0.793000  0.671400  1.0
  C  C1052  1  0.793000  0.537000  0.328600  1.0
  C  C1053  1  0.463000  0.256000  0.328600  1.0
  C  C1054  1  0.744000  0.207000  0.328600  1.0
  C  C1055  1  0.063000  0.478800  0.616200  1.0
  C  C1056  1  0.415800  0.937000  0.616200  1.0
  C  C1057  1  0.521200  0.584200  0.616200  1.0
  C  C1058  1  0.584200  0.521200  0.383800  1.0
  C  C1059  1  0.478800  0.063000  0.383800  1.0
  C  C1060  1  0.937000  0.415800  0.383800  1.0
  C  C1061  1  0.086000  0.522000  0.634400  1.0
  C  C1062  1  0.436000  0.914000  0.634400  1.0
  C  C1063  1  0.478000  0.564000  0.634400  1.0
  C  C1064  1  0.564000  0.478000  0.365600  1.0
  C  C1065  1  0.522000  0.086000  0.365600  1.0
  C  C1066  1  0.914000  0.436000  0.365600  1.0
  C  C1067  1  0.845400  0.722200  0.592600  1.0
  C  C1068  1  0.876800  0.154600  0.592600  1.0
  C  C1069  1  0.277800  0.123200  0.592600  1.0
  C  C1070  1  0.123200  0.277800  0.407400  1.0
  C  C1071  1  0.722200  0.845400  0.407400  1.0
  C  C1072  1  0.154600  0.876800  0.407400  1.0
  C  C1073  1  0.871400  0.795500  0.593600  1.0
  C  C1074  1  0.924100  0.128600  0.593600  1.0
  C  C1075  1  0.204500  0.075900  0.593600  1.0
  C  C1076  1  0.075900  0.204500  0.406400  1.0
  C  C1077  1  0.795500  0.871400  0.406400  1.0
  C  C1078  1  0.128600  0.924100  0.406400  1.0
  C  C1079  1  0.946200  0.843000  0.593800  1.0
  C  C1080  1  0.896800  0.053800  0.593800  1.0
  C  C1081  1  0.157000  0.103200  0.593800  1.0
  C  C1082  1  0.103200  0.157000  0.406200  1.0
  C  C1083  1  0.843000  0.946200  0.406200  1.0
  C  C1084  1  0.053800  0.896800  0.406200  1.0
  C  C1085  1  0.998300  0.822000  0.594700  1.0
  C  C1086  1  0.823700  0.001700  0.594700  1.0
  C  C1087  1  0.178000  0.176300  0.594700  1.0
  C  C1088  1  0.176300  0.178000  0.405300  1.0
  C  C1089  1  0.822000  0.998300  0.405300  1.0
  C  C1090  1  0.001700  0.823700  0.405300  1.0
  C  C1091  1  0.967700  0.741100  0.594100  1.0
  C  C1092  1  0.773400  0.032300  0.594100  1.0
  C  C1093  1  0.258900  0.226600  0.594100  1.0
  C  C1094  1  0.226600  0.258900  0.405900  1.0
  C  C1095  1  0.741100  0.967700  0.405900  1.0
  C  C1096  1  0.032300  0.773400  0.405900  1.0
  C  C1097  1  0.976400  0.930400  0.594300  1.0
  C  C1098  1  0.954000  0.023600  0.594300  1.0
  C  C1099  1  0.069600  0.046000  0.594300  1.0
  C  C1100  1  0.046000  0.069600  0.405700  1.0
  C  C1101  1  0.930400  0.976400  0.405700  1.0
  C  C1102  1  0.023600  0.954000  0.405700  1.0
  C  C1103  1  0.981300  0.607600  0.555700  1.0
  C  C1104  1  0.626300  0.018700  0.555700  1.0
  C  C1105  1  0.392400  0.373700  0.555700  1.0
  C  C1106  1  0.373700  0.392400  0.444300  1.0
  C  C1107  1  0.607600  0.981300  0.444300  1.0
  C  C1108  1  0.018700  0.626300  0.444300  1.0
  C  C1109  1  0.016800  0.626400  0.534700  1.0
  C  C1110  1  0.609600  0.983200  0.534700  1.0
  C  C1111  1  0.373600  0.390400  0.534700  1.0
  C  C1112  1  0.390400  0.373600  0.465300  1.0
  C  C1113  1  0.626400  0.016800  0.465300  1.0
  C  C1114  1  0.983200  0.609600  0.465300  1.0
  C  C1115  1  0.979200  0.624900  0.511900  1.0
  C  C1116  1  0.645700  0.020800  0.511900  1.0
  C  C1117  1  0.375100  0.354300  0.511900  1.0
  C  C1118  1  0.354300  0.375100  0.488100  1.0
  C  C1119  1  0.624900  0.979200  0.488100  1.0
  C  C1120  1  0.020800  0.645700  0.488100  1.0
  C  C1121  1  0.905000  0.606700  0.514700  1.0
  C  C1122  1  0.701700  0.095000  0.514700  1.0
  C  C1123  1  0.393300  0.298300  0.514700  1.0
  C  C1124  1  0.298300  0.393300  0.485300  1.0
  C  C1125  1  0.606700  0.905000  0.485300  1.0
  C  C1126  1  0.095000  0.701700  0.485300  1.0
  C  C1127  1  0.871700  0.591800  0.536500  1.0
  C  C1128  1  0.720100  0.128300  0.536500  1.0
  C  C1129  1  0.408200  0.279900  0.536500  1.0
  C  C1130  1  0.279900  0.408200  0.463500  1.0
  C  C1131  1  0.591800  0.871700  0.463500  1.0
  C  C1132  1  0.128300  0.720100  0.463500  1.0
  C  C1133  1  0.022300  0.602800  0.577800  1.0
  C  C1134  1  0.580500  0.977700  0.577800  1.0
  C  C1135  1  0.397200  0.419500  0.577800  1.0
  C  C1136  1  0.419500  0.397200  0.422200  1.0
  C  C1137  1  0.602800  0.022300  0.422200  1.0
  C  C1138  1  0.977700  0.580500  0.422200  1.0
  C  C1139  1  0.795600  0.578000  0.541000  1.0
  C  C1140  1  0.782400  0.204400  0.541000  1.0
  C  C1141  1  0.422000  0.217600  0.541000  1.0
  C  C1142  1  0.217600  0.422000  0.459000  1.0
  C  C1143  1  0.578000  0.795600  0.459000  1.0
  C  C1144  1  0.204400  0.782400  0.459000  1.0
  C  C1145  1  0.781000  0.492000  0.637000  1.0
  C  C1146  1  0.711000  0.219000  0.637000  1.0
  C  C1147  1  0.508000  0.289000  0.637000  1.0
  C  C1148  1  0.289000  0.508000  0.363000  1.0
  C  C1149  1  0.492000  0.781000  0.363000  1.0
  C  C1150  1  0.219000  0.711000  0.363000  1.0
  C  C1151  1  0.808000  0.455000  0.620500  1.0
  C  C1152  1  0.647000  0.192000  0.620500  1.0
  C  C1153  1  0.545000  0.353000  0.620500  1.0
  C  C1154  1  0.353000  0.545000  0.379500  1.0
  C  C1155  1  0.455000  0.808000  0.379500  1.0
  C  C1156  1  0.192000  0.647000  0.379500  1.0
  C  C1157  1  0.205000  0.198000  0.780100  0.35
  C  C1158  1  0.993000  0.795000  0.780100  0.35
  C  C1159  1  0.802000  0.007000  0.780100  0.35
  C  C1160  1  0.007000  0.802000  0.219900  0.35
  C  C1161  1  0.198000  0.205000  0.219900  0.35
  C  C1162  1  0.795000  0.993000  0.219900  0.35
  C  C1163  1  0.264600  0.181600  0.780000  0.35
  C  C1164  1  0.917000  0.735400  0.780000  0.35
  C  C1165  1  0.818400  0.083000  0.780000  0.35
  C  C1166  1  0.083000  0.818400  0.220000  0.35
  C  C1167  1  0.181600  0.264600  0.220000  0.35
  C  C1168  1  0.735400  0.917000  0.220000  0.35
  C  C1169  1  0.158100  0.076300  0.781800  0.35
  C  C1170  1  0.918200  0.841900  0.781800  0.35
  C  C1171  1  0.923700  0.081800  0.781800  0.35
  C  C1172  1  0.081800  0.923700  0.218200  0.35
  C  C1173  1  0.076300  0.158100  0.218200  0.35
  C  C1174  1  0.841900  0.918200  0.218200  0.35
  C  C1175  1  0.269000  0.076000  0.783800  0.35
  C  C1176  1  0.807000  0.731000  0.783800  0.35
  C  C1177  1  0.924000  0.193000  0.783800  0.35
  C  C1178  1  0.193000  0.924000  0.216200  0.35
  C  C1179  1  0.076000  0.269000  0.216200  0.35
  C  C1180  1  0.731000  0.807000  0.216200  0.35
  C  C1181  1  0.923600  0.844500  0.717400  0.35
  C  C1182  1  0.920900  0.076400  0.717400  0.35
  C  C1183  1  0.155500  0.079100  0.717400  0.35
  C  C1184  1  0.079100  0.155500  0.282600  0.35
  C  C1185  1  0.844500  0.923600  0.282600  0.35
  C  C1186  1  0.076400  0.920900  0.282600  0.35
  C  C1187  1  0.820700  0.735700  0.719600  0.35
  C  C1188  1  0.915000  0.179300  0.719600  0.35
  C  C1189  1  0.264300  0.085000  0.719600  0.35
  C  C1190  1  0.085000  0.264300  0.280400  0.35
  C  C1191  1  0.735700  0.820700  0.280400  0.35
  C  C1192  1  0.179300  0.915000  0.280400  0.35
  C  C1193  1  0.800900  0.791900  0.717800  0.35
  C  C1194  1  0.991000  0.199100  0.717800  0.35
  C  C1195  1  0.208100  0.009000  0.717800  0.35
  C  C1196  1  0.009000  0.208100  0.282200  0.35
  C  C1197  1  0.791900  0.800900  0.282200  0.35
  C  C1198  1  0.199100  0.991000  0.282200  0.35
  C  C1199  1  0.957000  0.752000  0.717500  0.35
  C  C1200  1  0.795000  0.043000  0.717500  0.35
  C  C1201  1  0.248000  0.205000  0.717500  0.35
  C  C1202  1  0.205000  0.248000  0.282500  0.35
  C  C1203  1  0.752000  0.957000  0.282500  0.35
  C  C1204  1  0.043000  0.795000  0.282500  0.35
  C  C1205  1  0.869000  0.006300  0.970600  0.35
  C  C1206  1  0.137300  0.131000  0.970600  0.35
  C  C1207  1  0.993700  0.862700  0.970600  0.35
  C  C1208  1  0.862700  0.993700  0.029400  0.35
  C  C1209  1  0.006300  0.869000  0.029400  0.35
  C  C1210  1  0.131000  0.137300  0.029400  0.35
  C  C1211  1  0.814200  0.074300  0.974700  0.35
  C  C1212  1  0.260100  0.185800  0.974700  0.35
  C  C1213  1  0.925700  0.739900  0.974700  0.35
  C  C1214  1  0.739900  0.925700  0.025300  0.35
  C  C1215  1  0.074300  0.814200  0.025300  0.35
  C  C1216  1  0.185800  0.260100  0.025300  0.35
  C  C1217  1  0.890500  0.122500  0.972200  0.35
  C  C1218  1  0.232000  0.109500  0.972200  0.35
  C  C1219  1  0.877500  0.768000  0.972200  0.35
  C  C1220  1  0.768000  0.877500  0.027800  0.35
  C  C1221  1  0.122500  0.890500  0.027800  0.35
  C  C1222  1  0.109500  0.232000  0.027800  0.35
  C  C1223  1  0.727600  0.935600  0.970000  0.35
  C  C1224  1  0.208000  0.272400  0.970000  0.35
  C  C1225  1  0.064400  0.792000  0.970000  0.35
  C  C1226  1  0.792000  0.064400  0.030000  0.35
  C  C1227  1  0.935600  0.727600  0.030000  0.35
  C  C1228  1  0.272400  0.208000  0.030000  0.35
  C  C1229  1  0.136700  0.006700  0.531400  0.35
  C  C1230  1  0.870000  0.863300  0.531400  0.35
  C  C1231  1  0.993300  0.130000  0.531400  0.35
  C  C1232  1  0.130000  0.993300  0.468600  0.35
  C  C1233  1  0.006700  0.136700  0.468600  0.35
  C  C1234  1  0.863300  0.870000  0.468600  0.35
  C  C1235  1  0.259700  0.070100  0.529300  0.35
  C  C1236  1  0.810400  0.740300  0.529300  0.35
  C  C1237  1  0.929900  0.189600  0.529300  0.35
  C  C1238  1  0.189600  0.929900  0.470700  0.35
  C  C1239  1  0.070100  0.259700  0.470700  0.35
  C  C1240  1  0.740300  0.810400  0.470700  0.35
  C  C1241  1  0.235000  0.121800  0.530100  0.35
  C  C1242  1  0.886800  0.765000  0.530100  0.35
  C  C1243  1  0.878200  0.113200  0.530100  0.35
  C  C1244  1  0.113200  0.878200  0.469900  0.35
  C  C1245  1  0.121800  0.235000  0.469900  0.35
  C  C1246  1  0.765000  0.886800  0.469900  0.35
  C  C1247  1  0.228000  0.931000  0.531500  0.35
  C  C1248  1  0.703000  0.772000  0.531500  0.35
  C  C1249  1  0.069000  0.297000  0.531500  0.35
  C  C1250  1  0.297000  0.069000  0.468500  0.35
  C  C1251  1  0.931000  0.228000  0.468500  0.35
  C  C1252  1  0.772000  0.703000  0.468500  0.35
  C  C1253  1  0.146400  0.020700  0.786400  0.65
  C  C1254  1  0.874300  0.853600  0.786400  0.65
  C  C1255  1  0.979300  0.125700  0.786400  0.65
  C  C1256  1  0.125700  0.979300  0.213600  0.65
  C  C1257  1  0.020700  0.146400  0.213600  0.65
  C  C1258  1  0.853600  0.874300  0.213600  0.65
  C  C1259  1  0.219500  0.970500  0.784500  0.65
  C  C1260  1  0.751000  0.780500  0.784500  0.65
  C  C1261  1  0.029500  0.249000  0.784500  0.65
  C  C1262  1  0.249000  0.029500  0.215500  0.65
  C  C1263  1  0.970500  0.219500  0.215500  0.65
  C  C1264  1  0.780500  0.751000  0.215500  0.65
  C  C1265  1  0.144700  0.912800  0.786600  0.65
  C  C1266  1  0.768100  0.855300  0.786600  0.65
  C  C1267  1  0.087200  0.231900  0.786600  0.65
  C  C1268  1  0.231900  0.087200  0.213400  0.65
  C  C1269  1  0.912800  0.144700  0.213400  0.65
  C  C1270  1  0.855300  0.768100  0.213400  0.65
  C  C1271  1  0.286000  0.140000  0.781200  0.65
  C  C1272  1  0.854000  0.714000  0.781200  0.65
  C  C1273  1  0.860000  0.146000  0.781200  0.65
  C  C1274  1  0.146000  0.860000  0.218800  0.65
  C  C1275  1  0.140000  0.286000  0.218800  0.65
  C  C1276  1  0.714000  0.854000  0.218800  0.65
  C  C1277  1  0.976600  0.852500  0.715280  0.65
  C  C1278  1  0.875900  0.023400  0.715280  0.65
  C  C1279  1  0.147500  0.124100  0.715280  0.65
  C  C1280  1  0.124100  0.147500  0.284720  0.65
  C  C1281  1  0.852500  0.976600  0.284720  0.65
  C  C1282  1  0.023400  0.875900  0.284720  0.65
  C  C1283  1  0.024200  0.777800  0.716900  0.65
  C  C1284  1  0.753600  0.975800  0.716900  0.65
  C  C1285  1  0.222200  0.246400  0.716900  0.65
  C  C1286  1  0.246400  0.222200  0.283100  0.65
  C  C1287  1  0.777800  0.024200  0.283100  0.65
  C  C1288  1  0.975800  0.753600  0.283100  0.65
  C  C1289  1  0.081400  0.848600  0.714700  0.65
  C  C1290  1  0.767200  0.918600  0.714700  0.65
  C  C1291  1  0.151400  0.232800  0.714700  0.65
  C  C1292  1  0.232800  0.151400  0.285300  0.65
  C  C1293  1  0.848600  0.081400  0.285300  0.65
  C  C1294  1  0.918600  0.767200  0.285300  0.65
  C  C1295  1  0.882700  0.713700  0.717400  0.65
  C  C1296  1  0.831000  0.117300  0.717400  0.65
  C  C1297  1  0.286300  0.169000  0.717400  0.65
  C  C1298  1  0.169000  0.286300  0.282600  0.65
  C  C1299  1  0.713700  0.882700  0.282600  0.65
  C  C1300  1  0.117300  0.831000  0.282600  0.65
  C  C1301  1  0.777500  0.824500  0.963200  0.65
  C  C1302  1  0.047000  0.222500  0.963200  0.65
  C  C1303  1  0.175500  0.953000  0.963200  0.65
  C  C1304  1  0.953000  0.175500  0.036800  0.65
  C  C1305  1  0.824500  0.777500  0.036800  0.65
  C  C1306  1  0.222500  0.047000  0.036800  0.65
  C  C1307  1  0.731000  0.854600  0.964400  0.65
  C  C1308  1  0.123600  0.269000  0.964400  0.65
  C  C1309  1  0.145400  0.876400  0.964400  0.65
  C  C1310  1  0.876400  0.145400  0.035600  0.65
  C  C1311  1  0.854600  0.731000  0.035600  0.65
  C  C1312  1  0.269000  0.123600  0.035600  0.65
  C  C1313  1  0.846100  0.947500  0.965600  0.65
  C  C1314  1  0.101400  0.153900  0.965600  0.65
  C  C1315  1  0.052500  0.898600  0.965600  0.65
  C  C1316  1  0.898600  0.052500  0.034400  0.65
  C  C1317  1  0.947500  0.846100  0.034400  0.65
  C  C1318  1  0.153900  0.101400  0.034400  0.65
  C  C1319  1  0.747600  0.985200  0.964700  0.65
  C  C1320  1  0.237600  0.252400  0.964700  0.65
  C  C1321  1  0.014800  0.762400  0.964700  0.65
  C  C1322  1  0.762400  0.014800  0.035300  0.65
  C  C1323  1  0.985200  0.747600  0.035300  0.65
  C  C1324  1  0.252400  0.237600  0.035300  0.65
  C  C1325  1  0.043000  0.819000  0.534800  0.65
  C  C1326  1  0.776000  0.957000  0.534800  0.65
  C  C1327  1  0.181000  0.224000  0.534800  0.65
  C  C1328  1  0.224000  0.181000  0.465200  0.65
  C  C1329  1  0.819000  0.043000  0.465200  0.65
  C  C1330  1  0.957000  0.776000  0.465200  0.65
  C  C1331  1  0.113000  0.842900  0.534600  0.65
  C  C1332  1  0.729900  0.887000  0.534600  0.65
  C  C1333  1  0.157100  0.270100  0.534600  0.65
  C  C1334  1  0.270100  0.157100  0.465400  0.65
  C  C1335  1  0.842900  0.113000  0.465400  0.65
  C  C1336  1  0.887000  0.729900  0.465400  0.65
  C  C1337  1  0.101600  0.943300  0.534500  0.65
  C  C1338  1  0.841700  0.898400  0.534500  0.65
  C  C1339  1  0.056700  0.158300  0.534500  0.65
  C  C1340  1  0.158300  0.056700  0.465500  0.65
  C  C1341  1  0.943300  0.101600  0.465500  0.65
  C  C1342  1  0.898400  0.841700  0.465500  0.65
  C  C1343  1  0.225000  0.966900  0.533500  0.65
  C  C1344  1  0.741900  0.775000  0.533500  0.65
  C  C1345  1  0.033100  0.258100  0.533500  0.65
  C  C1346  1  0.258100  0.033100  0.466500  0.65
  C  C1347  1  0.966900  0.225000  0.466500  0.65
  C  C1348  1  0.775000  0.741900  0.466500  0.65
  N  N1349  1  0.139600  0.133200  0.781900  0.35
  N  N1350  1  0.993600  0.860400  0.781900  0.35
  N  N1351  1  0.866800  0.006400  0.781900  0.35
  N  N1352  1  0.006400  0.866800  0.218100  0.35
  N  N1353  1  0.133200  0.139600  0.218100  0.35
  N  N1354  1  0.860400  0.993600  0.218100  0.35
  N  N1355  1  0.234000  0.107100  0.781800  0.35
  N  N1356  1  0.873100  0.766000  0.781800  0.35
  N  N1357  1  0.892900  0.126900  0.781800  0.35
  N  N1358  1  0.126900  0.892900  0.218200  0.35
  N  N1359  1  0.107100  0.234000  0.218200  0.35
  N  N1360  1  0.766000  0.873100  0.218200  0.35
  N  N1361  1  0.897000  0.769800  0.718600  0.35
  N  N1362  1  0.872800  0.103000  0.718600  0.35
  N  N1363  1  0.230200  0.127200  0.718600  0.35
  N  N1364  1  0.127200  0.230200  0.281400  0.35
  N  N1365  1  0.769800  0.897000  0.281400  0.35
  N  N1366  1  0.103000  0.872800  0.281400  0.35
  N  N1367  1  0.865400  0.859800  0.717100  0.35
  N  N1368  1  0.994400  0.134600  0.717100  0.35
  N  N1369  1  0.140200  0.005600  0.717100  0.35
  N  N1370  1  0.005600  0.140200  0.282900  0.35
  N  N1371  1  0.859800  0.865400  0.282900  0.35
  N  N1372  1  0.134600  0.994400  0.282900  0.35
  N  N1373  1  0.799900  0.002400  0.973100  0.35
  N  N1374  1  0.202500  0.200100  0.973100  0.35
  N  N1375  1  0.997600  0.797500  0.973100  0.35
  N  N1376  1  0.797500  0.997600  0.026900  0.35
  N  N1377  1  0.002400  0.799900  0.026900  0.35
  N  N1378  1  0.200100  0.202500  0.026900  0.35
  N  N1379  1  0.925000  0.080000  0.971800  0.35
  N  N1380  1  0.155000  0.075000  0.971800  0.35
  N  N1381  1  0.920000  0.845000  0.971800  0.35
  N  N1382  1  0.845000  0.920000  0.028200  0.35
  N  N1383  1  0.080000  0.925000  0.028200  0.35
  N  N1384  1  0.075000  0.155000  0.028200  0.35
  N  N1385  1  0.206000  0.002700  0.531100  0.35
  N  N1386  1  0.796700  0.794000  0.531100  0.35
  N  N1387  1  0.997300  0.203300  0.531100  0.35
  N  N1388  1  0.203300  0.997300  0.468900  0.35
  N  N1389  1  0.002700  0.206000  0.468900  0.35
  N  N1390  1  0.794000  0.796700  0.468900  0.35
  N  N1391  1  0.156200  0.079400  0.529600  0.35
  N  N1392  1  0.923200  0.843800  0.529600  0.35
  N  N1393  1  0.920600  0.076800  0.529600  0.35
  N  N1394  1  0.076800  0.920600  0.470400  0.35
  N  N1395  1  0.079400  0.156200  0.470400  0.35
  N  N1396  1  0.843800  0.923200  0.470400  0.35
  N  N1397  1  0.795200  0.691300  0.907900  1.0
  N  N1398  1  0.896100  0.204800  0.907900  1.0
  N  N1399  1  0.308700  0.103900  0.907900  1.0
  N  N1400  1  0.103900  0.308700  0.092100  1.0
  N  N1401  1  0.691300  0.795200  0.092100  1.0
  N  N1402  1  0.204800  0.896100  0.092100  1.0
  N  N1403  1  0.926000  0.971000  0.905800  1.0
  N  N1404  1  0.045000  0.074000  0.905800  1.0
  N  N1405  1  0.029000  0.955000  0.905800  1.0
  N  N1406  1  0.955000  0.029000  0.094200  1.0
  N  N1407  1  0.971000  0.926000  0.094200  1.0
  N  N1408  1  0.074000  0.045000  0.094200  1.0
  N  N1409  1  0.685800  0.595600  0.941100  1.0
  N  N1410  1  0.909800  0.314200  0.941100  1.0
  N  N1411  1  0.404400  0.090200  0.941100  1.0
  N  N1412  1  0.090200  0.404400  0.058900  1.0
  N  N1413  1  0.595600  0.685800  0.058900  1.0
  N  N1414  1  0.314200  0.909800  0.058900  1.0
  N  N1415  1  0.749800  0.568400  0.875000  1.0
  N  N1416  1  0.818600  0.250200  0.875000  1.0
  N  N1417  1  0.431600  0.181400  0.875000  1.0
  N  N1418  1  0.181400  0.431600  0.125000  1.0
  N  N1419  1  0.568400  0.749800  0.125000  1.0
  N  N1420  1  0.250200  0.818600  0.125000  1.0
  N  N1421  1  0.646400  0.469800  0.908000  1.0
  N  N1422  1  0.823400  0.353600  0.908000  1.0
  N  N1423  1  0.530200  0.176600  0.908000  1.0
  N  N1424  1  0.176600  0.530200  0.092000  1.0
  N  N1425  1  0.469800  0.646400  0.092000  1.0
  N  N1426  1  0.353600  0.823400  0.092000  1.0
  N  N1427  1  0.231400  0.297000  0.844800  1.0
  N  N1428  1  0.065600  0.768600  0.844800  1.0
  N  N1429  1  0.703000  0.934400  0.844800  1.0
  N  N1430  1  0.934400  0.703000  0.155200  1.0
  N  N1431  1  0.297000  0.231400  0.155200  1.0
  N  N1432  1  0.768600  0.065600  0.155200  1.0
  N  N1433  1  0.988000  0.059100  0.845700  1.0
  N  N1434  1  0.071100  0.012000  0.845700  1.0
  N  N1435  1  0.940900  0.928900  0.845700  1.0
  N  N1436  1  0.928900  0.940900  0.154300  1.0
  N  N1437  1  0.059100  0.988000  0.154300  1.0
  N  N1438  1  0.012000  0.071100  0.154300  1.0
  N  N1439  1  0.278500  0.414900  0.809000  1.0
  N  N1440  1  0.136400  0.721500  0.809000  1.0
  N  N1441  1  0.585100  0.863600  0.809000  1.0
  N  N1442  1  0.863600  0.585100  0.191000  1.0
  N  N1443  1  0.414900  0.278500  0.191000  1.0
  N  N1444  1  0.721500  0.136400  0.191000  1.0
  N  N1445  1  0.354400  0.402600  0.875800  1.0
  N  N1446  1  0.048200  0.645600  0.875800  1.0
  N  N1447  1  0.597400  0.951800  0.875800  1.0
  N  N1448  1  0.951800  0.597400  0.124200  1.0
  N  N1449  1  0.402600  0.354400  0.124200  1.0
  N  N1450  1  0.645600  0.048200  0.124200  1.0
  N  N1451  1  0.406200  0.511200  0.841400  1.0
  N  N1452  1  0.105000  0.593800  0.841400  1.0
  N  N1453  1  0.488800  0.895000  0.841400  1.0
  N  N1454  1  0.895000  0.488800  0.158600  1.0
  N  N1455  1  0.511200  0.406200  0.158600  1.0
  N  N1456  1  0.593800  0.105000  0.158600  1.0
  N  N1457  1  0.067700  0.296800  0.654600  1.0
  N  N1458  1  0.229100  0.932300  0.654600  1.0
  N  N1459  1  0.703200  0.770900  0.654600  1.0
  N  N1460  1  0.770900  0.703200  0.345400  1.0
  N  N1461  1  0.296800  0.067700  0.345400  1.0
  N  N1462  1  0.932300  0.229100  0.345400  1.0
  N  N1463  1  0.071600  0.058700  0.654400  1.0
  N  N1464  1  0.987100  0.928400  0.654400  1.0
  N  N1465  1  0.941300  0.012900  0.654400  1.0
  N  N1466  1  0.012900  0.941300  0.345600  1.0
  N  N1467  1  0.058700  0.071600  0.345600  1.0
  N  N1468  1  0.928400  0.987100  0.345600  1.0
  N  N1469  1  0.135800  0.416900  0.691500  1.0
  N  N1470  1  0.281100  0.864200  0.691500  1.0
  N  N1471  1  0.583100  0.718900  0.691500  1.0
  N  N1472  1  0.718900  0.583100  0.308500  1.0
  N  N1473  1  0.416900  0.135800  0.308500  1.0
  N  N1474  1  0.864200  0.281100  0.308500  1.0
  N  N1475  1  0.040500  0.399000  0.623200  1.0
  N  N1476  1  0.358500  0.959500  0.623200  1.0
  N  N1477  1  0.601000  0.641500  0.623200  1.0
  N  N1478  1  0.641500  0.601000  0.376800  1.0
  N  N1479  1  0.399000  0.040500  0.376800  1.0
  N  N1480  1  0.959500  0.358500  0.376800  1.0
  N  N1481  1  0.110900  0.515800  0.656400  1.0
  N  N1482  1  0.404900  0.889100  0.656400  1.0
  N  N1483  1  0.484200  0.595100  0.656400  1.0
  N  N1484  1  0.595100  0.484200  0.343600  1.0
  N  N1485  1  0.515800  0.110900  0.343600  1.0
  N  N1486  1  0.889100  0.404900  0.343600  1.0
  N  N1487  1  0.894500  0.691600  0.592200  1.0
  N  N1488  1  0.797100  0.105500  0.592200  1.0
  N  N1489  1  0.308400  0.202900  0.592200  1.0
  N  N1490  1  0.202900  0.308400  0.407800  1.0
  N  N1491  1  0.691600  0.894500  0.407800  1.0
  N  N1492  1  0.105500  0.797100  0.407800  1.0
  N  N1493  1  0.046600  0.971600  0.594400  1.0
  N  N1494  1  0.925000  0.953400  0.594400  1.0
  N  N1495  1  0.028400  0.075000  0.594400  1.0
  N  N1496  1  0.075000  0.028400  0.405600  1.0
  N  N1497  1  0.971600  0.046600  0.405600  1.0
  N  N1498  1  0.953400  0.925000  0.405600  1.0
  N  N1499  1  0.907100  0.592300  0.558900  1.0
  N  N1500  1  0.685200  0.092900  0.558900  1.0
  N  N1501  1  0.407700  0.314800  0.558900  1.0
  N  N1502  1  0.314800  0.407700  0.441100  1.0
  N  N1503  1  0.592300  0.907100  0.441100  1.0
  N  N1504  1  0.092900  0.685200  0.441100  1.0
  N  N1505  1  0.816300  0.569500  0.625200  1.0
  N  N1506  1  0.753200  0.183700  0.625200  1.0
  N  N1507  1  0.430500  0.246800  0.625200  1.0
  N  N1508  1  0.246800  0.430500  0.374800  1.0
  N  N1509  1  0.569500  0.816300  0.374800  1.0
  N  N1510  1  0.183700  0.753200  0.374800  1.0
  N  N1511  1  0.823100  0.470800  0.592900  1.0
  N  N1512  1  0.647700  0.176900  0.592900  1.0
  N  N1513  1  0.529200  0.352300  0.592900  1.0
  N  N1514  1  0.352300  0.529200  0.407100  1.0
  N  N1515  1  0.470800  0.823100  0.407100  1.0
  N  N1516  1  0.176900  0.647700  0.407100  1.0
  N  N1517  1  0.644300  0.093800  0.922900  1.0
  N  N1518  1  0.449500  0.355700  0.922900  1.0
  N  N1519  1  0.906200  0.550500  0.922900  1.0
  N  N1520  1  0.550500  0.906200  0.077100  1.0
  N  N1521  1  0.093800  0.644300  0.077100  1.0
  N  N1522  1  0.355700  0.449500  0.077100  1.0
  N  N1523  1  0.651000  0.844000  0.908600  1.0
  N  N1524  1  0.193000  0.349000  0.908600  1.0
  N  N1525  1  0.156000  0.807000  0.908600  1.0
  N  N1526  1  0.807000  0.156000  0.091400  1.0
  N  N1527  1  0.844000  0.651000  0.091400  1.0
  N  N1528  1  0.349000  0.193000  0.091400  1.0
  N  N1529  1  0.650600  0.812200  0.595200  1.0
  N  N1530  1  0.161600  0.349400  0.595200  1.0
  N  N1531  1  0.187800  0.838400  0.595200  1.0
  N  N1532  1  0.838400  0.187800  0.404800  1.0
  N  N1533  1  0.812200  0.650600  0.404800  1.0
  N  N1534  1  0.349400  0.161600  0.404800  1.0
  N  N1535  1  0.696900  0.020100  0.653500  1.0
  N  N1536  1  0.323200  0.303100  0.653500  1.0
  N  N1537  1  0.979900  0.676800  0.653500  1.0
  N  N1538  1  0.676800  0.979900  0.346500  1.0
  N  N1539  1  0.020100  0.696900  0.346500  1.0
  N  N1540  1  0.303100  0.323200  0.346500  1.0
  N  N1541  1  0.665300  0.119300  0.836800  1.0
  N  N1542  1  0.454000  0.334700  0.836800  1.0
  N  N1543  1  0.880700  0.546000  0.836800  1.0
  N  N1544  1  0.546000  0.880700  0.163200  1.0
  N  N1545  1  0.119300  0.665300  0.163200  1.0
  N  N1546  1  0.334700  0.454000  0.163200  1.0
  N  N1547  1  0.432000  0.851000  0.765500  0.37
  N  N1548  1  0.419000  0.568000  0.765500  0.37
  N  N1549  1  0.149000  0.581000  0.765500  0.37
  N  N1550  1  0.581000  0.149000  0.234500  0.37
  N  N1551  1  0.851000  0.432000  0.234500  0.37
  N  N1552  1  0.568000  0.419000  0.234500  0.37
  N  N1553  1  0.907300  0.361300  0.577200  0.63
  N  N1554  1  0.454000  0.092700  0.577200  0.63
  N  N1555  1  0.638700  0.546000  0.577200  0.63
  N  N1556  1  0.546000  0.638700  0.422800  0.63
  N  N1557  1  0.361300  0.907300  0.422800  0.63
  N  N1558  1  0.092700  0.454000  0.422800  0.63
  N  N1559  1  0.222100  0.035800  0.785600  0.65
  N  N1560  1  0.813700  0.777900  0.785600  0.65
  N  N1561  1  0.964200  0.186300  0.785600  0.65
  N  N1562  1  0.186300  0.964200  0.214400  0.65
  N  N1563  1  0.035800  0.222100  0.214400  0.65
  N  N1564  1  0.777900  0.813700  0.214400  0.65
  N  N1565  1  0.100400  0.944400  0.787200  0.65
  N  N1566  1  0.844000  0.899600  0.787200  0.65
  N  N1567  1  0.055600  0.156000  0.787200  0.65
  N  N1568  1  0.156000  0.055600  0.212800  0.65
  N  N1569  1  0.944400  0.100400  0.212800  0.65
  N  N1570  1  0.899600  0.844000  0.212800  0.65
  N  N1571  1  0.957300  0.780700  0.717100  0.65
  N  N1572  1  0.823400  0.042700  0.717100  0.65
  N  N1573  1  0.219300  0.176600  0.717100  0.65
  N  N1574  1  0.176600  0.219300  0.282900  0.65
  N  N1575  1  0.780700  0.957300  0.282900  0.65
  N  N1576  1  0.042700  0.823400  0.282900  0.65
  N  N1577  1  0.053100  0.898100  0.714200  0.65
  N  N1578  1  0.845000  0.946900  0.714200  0.65
  N  N1579  1  0.101900  0.155000  0.714200  0.65
  N  N1580  1  0.155000  0.101900  0.285800  0.65
  N  N1581  1  0.898100  0.053100  0.285800  0.65
  N  N1582  1  0.946900  0.845000  0.285800  0.65
  N  N1583  1  0.850600  0.882800  0.964600  0.65
  N  N1584  1  0.032200  0.149400  0.964600  0.65
  N  N1585  1  0.117200  0.967800  0.964600  0.65
  N  N1586  1  0.967800  0.117200  0.035400  0.65
  N  N1587  1  0.882800  0.850600  0.035400  0.65
  N  N1588  1  0.149400  0.032200  0.035400  0.65
  N  N1589  1  0.773300  0.930900  0.964700  0.65
  N  N1590  1  0.157600  0.226700  0.964700  0.65
  N  N1591  1  0.069100  0.842400  0.964700  0.65
  N  N1592  1  0.842400  0.069100  0.035300  0.65
  N  N1593  1  0.930900  0.773300  0.035300  0.65
  N  N1594  1  0.226700  0.157600  0.035300  0.65
  N  N1595  1  0.030000  0.881300  0.534700  0.65
  N  N1596  1  0.851300  0.970000  0.534700  0.65
  N  N1597  1  0.118700  0.148700  0.534700  0.65
  N  N1598  1  0.148700  0.118700  0.465300  0.65
  N  N1599  1  0.881300  0.030000  0.465300  0.65
  N  N1600  1  0.970000  0.851300  0.465300  0.65
  N  N1601  1  0.154600  0.922900  0.535400  0.65
  N  N1602  1  0.768300  0.845400  0.535400  0.65
  N  N1603  1  0.077100  0.231700  0.535400  0.65
  N  N1604  1  0.231700  0.077100  0.464600  0.65
  N  N1605  1  0.922900  0.154600  0.464600  0.65
  N  N1606  1  0.845400  0.768300  0.464600  0.65
  N  N1607  1  0.982800  0.302900  0.847000  0.88
  N  N1608  1  0.320100  0.017200  0.847000  0.88
  N  N1609  1  0.697100  0.679900  0.847000  0.88
  N  N1610  1  0.679900  0.697100  0.153000  0.88
  N  N1611  1  0.302900  0.982800  0.153000  0.88
  N  N1612  1  0.017200  0.320100  0.153000  0.88
  O  O1613  1  0.567000  0.058000  0.986000  0.17
  O  O1614  1  0.491000  0.433000  0.986000  0.17
  O  O1615  1  0.942000  0.509000  0.986000  0.17
  O  O1616  1  0.509000  0.942000  0.014000  0.17
  O  O1617  1  0.058000  0.567000  0.014000  0.17
  O  O1618  1  0.433000  0.491000  0.014000  0.17
  O  O1619  1  0.864000  0.337000  0.762400  0.17
  O  O1620  1  0.473000  0.136000  0.762400  0.17
  O  O1621  1  0.663000  0.527000  0.762400  0.17
  O  O1622  1  0.527000  0.663000  0.237600  0.17
  O  O1623  1  0.337000  0.864000  0.237600  0.17
  O  O1624  1  0.136000  0.473000  0.237600  0.17
  O  O1625  1  0.333333  0.666667  0.834000  0.43
  O  O1626  1  0.666667  0.333333  0.166000  0.43
  O  O1627  1  0.916000  0.419700  0.567500  0.63
  O  O1628  1  0.503700  0.084000  0.567500  0.63
  O  O1629  1  0.580300  0.496300  0.567500  0.63
  O  O1630  1  0.496300  0.580300  0.432500  0.63
  O  O1631  1  0.419700  0.916000  0.432500  0.63
  O  O1632  1  0.084000  0.503700  0.432500  0.63
  O  O1633  1  0.850000  0.323400  0.589900  0.63
  O  O1634  1  0.473400  0.150000  0.589900  0.63
  O  O1635  1  0.676600  0.526600  0.589900  0.63
  O  O1636  1  0.526600  0.676600  0.410100  0.63
  O  O1637  1  0.323400  0.850000  0.410100  0.63
  O  O1638  1  0.150000  0.473400  0.410100  0.63
  O  O1639  1  0.948200  0.336000  0.572100  0.63
  O  O1640  1  0.387800  0.051800  0.572100  0.63
  O  O1641  1  0.664000  0.612200  0.572100  0.63
  O  O1642  1  0.612200  0.664000  0.427900  0.63
  O  O1643  1  0.336000  0.948200  0.427900  0.63
  O  O1644  1  0.051800  0.387800  0.427900  0.63
  O  O1645  1  0.898000  0.354000  0.591900  0.68
  O  O1646  1  0.456000  0.102000  0.591900  0.68
  O  O1647  1  0.646000  0.544000  0.591900  0.68
  O  O1648  1  0.544000  0.646000  0.408100  0.68
  O  O1649  1  0.354000  0.898000  0.408100  0.68
  O  O1650  1  0.102000  0.456000  0.408100  0.68
  O  O1651  1  0.662700  0.044900  0.927500  1.0
  O  O1652  1  0.382200  0.337300  0.927500  1.0
  O  O1653  1  0.955100  0.617800  0.927500  1.0
  O  O1654  1  0.617800  0.955100  0.072500  1.0
  O  O1655  1  0.044900  0.662700  0.072500  1.0
  O  O1656  1  0.337300  0.382200  0.072500  1.0
  O  O1657  1  0.663500  0.128500  0.903300  1.0
  O  O1658  1  0.465000  0.336500  0.903300  1.0
  O  O1659  1  0.871500  0.535000  0.903300  1.0
  O  O1660  1  0.535000  0.871500  0.096700  1.0
  O  O1661  1  0.128500  0.663500  0.096700  1.0
  O  O1662  1  0.336500  0.465000  0.096700  1.0
  O  O1663  1  0.581300  0.079100  0.931700  1.0
  O  O1664  1  0.497800  0.418700  0.931700  1.0
  O  O1665  1  0.920900  0.502200  0.931700  1.0
  O  O1666  1  0.502200  0.920900  0.068300  1.0
  O  O1667  1  0.079100  0.581300  0.068300  1.0
  O  O1668  1  0.418700  0.497800  0.068300  1.0
  O  O1669  1  0.592500  0.817500  0.895900  1.0
  O  O1670  1  0.225000  0.407500  0.895900  1.0
  O  O1671  1  0.182500  0.775000  0.895900  1.0
  O  O1672  1  0.775000  0.182500  0.104100  1.0
  O  O1673  1  0.817500  0.592500  0.104100  1.0
  O  O1674  1  0.407500  0.225000  0.104100  1.0
  O  O1675  1  0.703600  0.907000  0.904400  1.0
  O  O1676  1  0.203400  0.296400  0.904400  1.0
  O  O1677  1  0.093000  0.796600  0.904400  1.0
  O  O1678  1  0.796600  0.093000  0.095600  1.0
  O  O1679  1  0.907000  0.703600  0.095600  1.0
  O  O1680  1  0.296400  0.203400  0.095600  1.0
  O  O1681  1  0.664000  0.796000  0.918500  1.0
  O  O1682  1  0.132000  0.336000  0.918500  1.0
  O  O1683  1  0.204000  0.868000  0.918500  1.0
  O  O1684  1  0.868000  0.204000  0.081500  1.0
  O  O1685  1  0.796000  0.664000  0.081500  1.0
  O  O1686  1  0.336000  0.132000  0.081500  1.0
  O  O1687  1  0.703400  0.798600  0.596500  1.0
  O  O1688  1  0.095200  0.296600  0.596500  1.0
  O  O1689  1  0.201400  0.904800  0.596500  1.0
  O  O1690  1  0.904800  0.201400  0.403500  1.0
  O  O1691  1  0.798600  0.703400  0.403500  1.0
  O  O1692  1  0.296600  0.095200  0.403500  1.0
  O  O1693  1  0.586400  0.763500  0.600900  1.0
  O  O1694  1  0.177100  0.413600  0.600900  1.0
  O  O1695  1  0.236500  0.822900  0.600900  1.0
  O  O1696  1  0.822900  0.236500  0.399100  1.0
  O  O1697  1  0.763500  0.586400  0.399100  1.0
  O  O1698  1  0.413600  0.177100  0.399100  1.0
  O  O1699  1  0.654600  0.857900  0.578900  1.0
  O  O1700  1  0.203300  0.345400  0.578900  1.0
  O  O1701  1  0.142100  0.796700  0.578900  1.0
  O  O1702  1  0.796700  0.142100  0.421100  1.0
  O  O1703  1  0.857900  0.654600  0.421100  1.0
  O  O1704  1  0.345400  0.203300  0.421100  1.0
  O  O1705  1  0.678000  0.962100  0.665500  1.0
  O  O1706  1  0.284100  0.322000  0.665500  1.0
  O  O1707  1  0.037900  0.715900  0.665500  1.0
  O  O1708  1  0.715900  0.037900  0.334500  1.0
  O  O1709  1  0.962100  0.678000  0.334500  1.0
  O  O1710  1  0.322000  0.284100  0.334500  1.0
  O  O1711  1  0.653400  0.043900  0.652300  1.0
  O  O1712  1  0.390500  0.346600  0.652300  1.0
  O  O1713  1  0.956100  0.609500  0.652300  1.0
  O  O1714  1  0.609500  0.956100  0.347700  1.0
  O  O1715  1  0.043900  0.653400  0.347700  1.0
  O  O1716  1  0.346600  0.390500  0.347700  1.0
  O  O1717  1  0.765500  0.062300  0.650200  1.0
  O  O1718  1  0.296800  0.234500  0.650200  1.0
  O  O1719  1  0.937700  0.703200  0.650200  1.0
  O  O1720  1  0.703200  0.937700  0.349800  1.0
  O  O1721  1  0.062300  0.765500  0.349800  1.0
  O  O1722  1  0.234500  0.296800  0.349800  1.0
  O  O1723  1  0.606300  0.118300  0.830200  1.0
  O  O1724  1  0.512000  0.393700  0.830200  1.0
  O  O1725  1  0.881700  0.488000  0.830200  1.0
  O  O1726  1  0.488000  0.881700  0.169800  1.0
  O  O1727  1  0.118300  0.606300  0.169800  1.0
  O  O1728  1  0.393700  0.512000  0.169800  1.0
  O  O1729  1  0.722900  0.159900  0.824000  1.0
  O  O1730  1  0.437000  0.277100  0.824000  1.0
  O  O1731  1  0.840100  0.563000  0.824000  1.0
  O  O1732  1  0.563000  0.840100  0.176000  1.0
  O  O1733  1  0.159900  0.722900  0.176000  1.0
  O  O1734  1  0.277100  0.437000  0.176000  1.0
  O  O1735  1  0.674000  0.113000  0.859200  1.0
  O  O1736  1  0.439000  0.326000  0.859200  1.0
  O  O1737  1  0.887000  0.561000  0.859200  1.0
  O  O1738  1  0.561000  0.887000  0.140800  1.0
  O  O1739  1  0.113000  0.674000  0.140800  1.0
  O  O1740  1  0.326000  0.439000  0.140800  1.0
  O  O1741  1  0.539000  0.555000  0.828500  0.12
  O  O1742  1  0.016000  0.461000  0.828500  0.12
  O  O1743  1  0.445000  0.984000  0.828500  0.12
  O  O1744  1  0.984000  0.445000  0.171500  0.12
  O  O1745  1  0.555000  0.539000  0.171500  0.12
  O  O1746  1  0.461000  0.016000  0.171500  0.12
  O  O1747  1  0.491000  0.702000  0.975000  0.12
  O  O1748  1  0.211000  0.509000  0.975000  0.12
  O  O1749  1  0.298000  0.789000  0.975000  0.12
  O  O1750  1  0.789000  0.298000  0.025000  0.12
  O  O1751  1  0.702000  0.491000  0.025000  0.12
  O  O1752  1  0.509000  0.211000  0.025000  0.12
  O  O1753  1  0.418000  0.596000  0.942300  0.21
  O  O1754  1  0.178000  0.582000  0.942300  0.21
  O  O1755  1  0.404000  0.822000  0.942300  0.21
  O  O1756  1  0.822000  0.404000  0.057700  0.21
  O  O1757  1  0.596000  0.418000  0.057700  0.21
  O  O1758  1  0.582000  0.178000  0.057700  0.21
  O  O1759  1  0.479000  0.739000  0.888100  0.22
  O  O1760  1  0.260000  0.521000  0.888100  0.22
  O  O1761  1  0.261000  0.740000  0.888100  0.22
  O  O1762  1  0.740000  0.261000  0.111900  0.22
  O  O1763  1  0.739000  0.479000  0.111900  0.22
  O  O1764  1  0.521000  0.260000  0.111900  0.22
  O  O1765  1  0.995000  0.405000  0.771200  0.22
  O  O1766  1  0.410000  0.005000  0.771200  0.22
  O  O1767  1  0.595000  0.590000  0.771200  0.22
  O  O1768  1  0.590000  0.595000  0.228800  0.22
  O  O1769  1  0.405000  0.995000  0.228800  0.22
  O  O1770  1  0.005000  0.410000  0.228800  0.22
  O  O1771  1  0.835000  0.260000  0.679800  0.32
  O  O1772  1  0.425000  0.165000  0.679800  0.32
  O  O1773  1  0.740000  0.575000  0.679800  0.32
  O  O1774  1  0.575000  0.740000  0.320200  0.32
  O  O1775  1  0.260000  0.835000  0.320200  0.32
  O  O1776  1  0.165000  0.425000  0.320200  0.32
  O  O1777  1  0.894000  0.330000  0.643800  0.32
  O  O1778  1  0.436000  0.106000  0.643800  0.32
  O  O1779  1  0.670000  0.564000  0.643800  0.32
  O  O1780  1  0.564000  0.670000  0.356200  0.32
  O  O1781  1  0.330000  0.894000  0.356200  0.32
  O  O1782  1  0.106000  0.436000  0.356200  0.32
  O  O1783  1  0.891000  0.408000  0.663200  0.32
  O  O1784  1  0.517000  0.109000  0.663200  0.32
  O  O1785  1  0.592000  0.483000  0.663200  0.32
  O  O1786  1  0.483000  0.592000  0.336800  0.32
  O  O1787  1  0.408000  0.891000  0.336800  0.32
  O  O1788  1  0.109000  0.517000  0.336800  0.32
  O  O1789  1  0.545000  0.537000  0.818300  0.32
  O  O1790  1  0.992000  0.455000  0.818300  0.32
  O  O1791  1  0.463000  0.008000  0.818300  0.32
  O  O1792  1  0.008000  0.463000  0.181700  0.32
  O  O1793  1  0.537000  0.545000  0.181700  0.32
  O  O1794  1  0.455000  0.992000  0.181700  0.32
  O  O1795  1  0.928000  0.430000  0.510000  0.32
  O  O1796  1  0.502000  0.072000  0.510000  0.32
  O  O1797  1  0.570000  0.498000  0.510000  0.32
  O  O1798  1  0.498000  0.570000  0.490000  0.32
  O  O1799  1  0.430000  0.928000  0.490000  0.32
  O  O1800  1  0.072000  0.502000  0.490000  0.32
  O  O1801  1  0.810000  0.258000  0.723800  0.33
  O  O1802  1  0.448000  0.190000  0.723800  0.33
  O  O1803  1  0.742000  0.552000  0.723800  0.33
  O  O1804  1  0.552000  0.742000  0.276200  0.33
  O  O1805  1  0.258000  0.810000  0.276200  0.33
  O  O1806  1  0.190000  0.448000  0.276200  0.33
  O  O1807  1  0.389000  0.651000  0.631900  0.33
  O  O1808  1  0.262000  0.611000  0.631900  0.33
  O  O1809  1  0.349000  0.738000  0.631900  0.33
  O  O1810  1  0.738000  0.349000  0.368100  0.33
  O  O1811  1  0.651000  0.389000  0.368100  0.33
  O  O1812  1  0.611000  0.262000  0.368100  0.33
  O  O1813  1  0.567000  0.680000  0.511400  0.33
  O  O1814  1  0.113000  0.433000  0.511400  0.33
  O  O1815  1  0.320000  0.887000  0.511400  0.33
  O  O1816  1  0.887000  0.320000  0.488600  0.33
  O  O1817  1  0.680000  0.567000  0.488600  0.33
  O  O1818  1  0.433000  0.113000  0.488600  0.33
  O  O1819  1  0.537000  0.917000  0.949900  0.33
  O  O1820  1  0.380000  0.463000  0.949900  0.33
  O  O1821  1  0.083000  0.620000  0.949900  0.33
  O  O1822  1  0.620000  0.083000  0.050100  0.33
  O  O1823  1  0.917000  0.537000  0.050100  0.33
  O  O1824  1  0.463000  0.380000  0.050100  0.33
  O  O1825  1  0.687000  0.135000  0.747800  0.33
  O  O1826  1  0.448000  0.313000  0.747800  0.33
  O  O1827  1  0.865000  0.552000  0.747800  0.33
  O  O1828  1  0.552000  0.865000  0.252200  0.33
  O  O1829  1  0.135000  0.687000  0.252200  0.33
  O  O1830  1  0.313000  0.448000  0.252200  0.33
  O  O1831  1  0.536000  0.611000  0.542900  0.33
  O  O1832  1  0.075000  0.464000  0.542900  0.33
  O  O1833  1  0.389000  0.925000  0.542900  0.33
  O  O1834  1  0.925000  0.389000  0.457100  0.33
  O  O1835  1  0.611000  0.536000  0.457100  0.33
  O  O1836  1  0.464000  0.075000  0.457100  0.33
  O  O1837  1  0.886700  0.332500  0.658800  0.37
  O  O1838  1  0.445800  0.113300  0.658800  0.37
  O  O1839  1  0.667500  0.554200  0.658800  0.37
  O  O1840  1  0.554200  0.667500  0.341200  0.37
  O  O1841  1  0.332500  0.886700  0.341200  0.37
  O  O1842  1  0.113300  0.445800  0.341200  0.37
  O  O1843  1  0.398000  0.793000  0.753100  0.37
  O  O1844  1  0.395000  0.602000  0.753100  0.37
  O  O1845  1  0.207000  0.605000  0.753100  0.37
  O  O1846  1  0.605000  0.207000  0.246900  0.37
  O  O1847  1  0.793000  0.398000  0.246900  0.37
  O  O1848  1  0.602000  0.395000  0.246900  0.37
  O  O1849  1  0.457000  0.912000  0.753900  0.37
  O  O1850  1  0.455000  0.543000  0.753900  0.37
  O  O1851  1  0.088000  0.545000  0.753900  0.37
  O  O1852  1  0.545000  0.088000  0.246100  0.37
  O  O1853  1  0.912000  0.457000  0.246100  0.37
  O  O1854  1  0.543000  0.455000  0.246100  0.37
  O  O1855  1  0.420000  0.848000  0.788100  0.37
  O  O1856  1  0.428000  0.580000  0.788100  0.37
  O  O1857  1  0.152000  0.572000  0.788100  0.37
  O  O1858  1  0.572000  0.152000  0.211900  0.37
  O  O1859  1  0.848000  0.420000  0.211900  0.37
  O  O1860  1  0.580000  0.428000  0.211900  0.37
  O  O1861  1  0.582000  0.156000  0.523100  0.37
  O  O1862  1  0.574000  0.418000  0.523100  0.37
  O  O1863  1  0.844000  0.426000  0.523100  0.37
  O  O1864  1  0.426000  0.844000  0.476900  0.37
  O  O1865  1  0.156000  0.582000  0.476900  0.37
  O  O1866  1  0.418000  0.574000  0.476900  0.37
  O  O1867  1  0.552000  0.772000  0.969200  0.44
  O  O1868  1  0.220000  0.448000  0.969200  0.44
  O  O1869  1  0.228000  0.780000  0.969200  0.44
  O  O1870  1  0.780000  0.228000  0.030800  0.44
  O  O1871  1  0.772000  0.552000  0.030800  0.44
  O  O1872  1  0.448000  0.220000  0.030800  0.44
  O  O1873  1  0.558000  0.773000  0.533600  0.44
  O  O1874  1  0.215000  0.442000  0.533600  0.44
  O  O1875  1  0.227000  0.785000  0.533600  0.44
  O  O1876  1  0.785000  0.227000  0.466400  0.44
  O  O1877  1  0.773000  0.558000  0.466400  0.44
  O  O1878  1  0.442000  0.215000  0.466400  0.44
  O  O1879  1  0.411000  0.807000  0.562500  0.44
  O  O1880  1  0.396000  0.589000  0.562500  0.44
  O  O1881  1  0.193000  0.604000  0.562500  0.44
  O  O1882  1  0.604000  0.193000  0.437500  0.44
  O  O1883  1  0.807000  0.411000  0.437500  0.44
  O  O1884  1  0.589000  0.396000  0.437500  0.44
  O  O1885  1  0.666667  0.333333  0.937200  0.5
  O  O1886  1  0.333333  0.666667  0.062800  0.5
  O  O1887  1  0.468000  0.779000  0.600000  0.5
  O  O1888  1  0.311000  0.532000  0.600000  0.5
  O  O1889  1  0.221000  0.689000  0.600000  0.5
  O  O1890  1  0.689000  0.221000  0.400000  0.5
  O  O1891  1  0.779000  0.468000  0.400000  0.5
  O  O1892  1  0.532000  0.311000  0.400000  0.5
  O  O1893  1  0.333333  0.666667  0.665300  0.5
  O  O1894  1  0.666667  0.333333  0.334700  0.5
  O  O1895  1  0.597500  0.996500  0.723000  0.5
  O  O1896  1  0.399000  0.402500  0.723000  0.5
  O  O1897  1  0.003500  0.601000  0.723000  0.5
  O  O1898  1  0.601000  0.003500  0.277000  0.5
  O  O1899  1  0.996500  0.597500  0.277000  0.5
  O  O1900  1  0.402500  0.399000  0.277000  0.5
  O  O1901  1  0.544000  0.006000  0.677300  0.5
  O  O1902  1  0.462000  0.456000  0.677300  0.5
  O  O1903  1  0.994000  0.538000  0.677300  0.5
  O  O1904  1  0.538000  0.994000  0.322700  0.5
  O  O1905  1  0.006000  0.544000  0.322700  0.5
  O  O1906  1  0.456000  0.462000  0.322700  0.5
  O  O1907  1  0.419100  0.583800  0.711800  0.5
  O  O1908  1  0.164700  0.580900  0.711800  0.5
  O  O1909  1  0.416200  0.835300  0.711800  0.5
  O  O1910  1  0.835300  0.416200  0.288200  0.5
  O  O1911  1  0.583800  0.419100  0.288200  0.5
  O  O1912  1  0.580900  0.164700  0.288200  0.5
  O  O1913  1  0.839000  0.422000  0.971600  0.5
  O  O1914  1  0.583000  0.161000  0.971600  0.5
  O  O1915  1  0.578000  0.417000  0.971600  0.5
  O  O1916  1  0.417000  0.578000  0.028400  0.5
  O  O1917  1  0.422000  0.839000  0.028400  0.5
  O  O1918  1  0.161000  0.583000  0.028400  0.5
  O  O1919  1  0.563000  0.877000  0.989800  0.5
  O  O1920  1  0.314000  0.437000  0.989800  0.5
  O  O1921  1  0.123000  0.686000  0.989800  0.5
  O  O1922  1  0.686000  0.123000  0.010200  0.5
  O  O1923  1  0.877000  0.563000  0.010200  0.5
  O  O1924  1  0.437000  0.314000  0.010200  0.5
  O  O1925  1  0.671000  0.369000  0.563100  0.5
  O  O1926  1  0.698000  0.329000  0.563100  0.5
  O  O1927  1  0.631000  0.302000  0.563100  0.5
  O  O1928  1  0.302000  0.631000  0.436900  0.5
  O  O1929  1  0.369000  0.671000  0.436900  0.5
  O  O1930  1  0.329000  0.698000  0.436900  0.5
  O  O1931  1  0.333333  0.666667  0.790500  0.5
  O  O1932  1  0.666667  0.333333  0.209500  0.5
  O  O1933  1  0.333333  0.666667  0.709000  0.5
  O  O1934  1  0.666667  0.333333  0.291000  0.5
  O  O1935  1  0.489000  0.781000  0.523900  0.56
  O  O1936  1  0.292000  0.511000  0.523900  0.56
  O  O1937  1  0.219000  0.708000  0.523900  0.56
  O  O1938  1  0.708000  0.219000  0.476100  0.56
  O  O1939  1  0.781000  0.489000  0.476100  0.56
  O  O1940  1  0.511000  0.292000  0.476100  0.56
  O  O1941  1  0.004000  0.401000  0.785600  0.57
  O  O1942  1  0.397000  0.996000  0.785600  0.57
  O  O1943  1  0.599000  0.603000  0.785600  0.57
  O  O1944  1  0.603000  0.599000  0.214400  0.57
  O  O1945  1  0.401000  0.004000  0.214400  0.57
  O  O1946  1  0.996000  0.397000  0.214400  0.57
  O  O1947  1  0.953000  0.342200  0.846200  0.88
  O  O1948  1  0.389200  0.047000  0.846200  0.88
  O  O1949  1  0.657800  0.610800  0.846200  0.88
  O  O1950  1  0.610800  0.657800  0.153800  0.88
  O  O1951  1  0.342200  0.953000  0.153800  0.88
  O  O1952  1  0.047000  0.389200  0.153800  0.88
  O  O1953  1  0.037000  0.321200  0.833000  0.88
  O  O1954  1  0.284200  0.963000  0.833000  0.88
  O  O1955  1  0.678800  0.715800  0.833000  0.88
  O  O1956  1  0.715800  0.678800  0.167000  0.88
  O  O1957  1  0.321200  0.037000  0.167000  0.88
  O  O1958  1  0.963000  0.284200  0.167000  0.88
  O  O1959  1  0.938700  0.233000  0.849200  0.88
  O  O1960  1  0.294300  0.061300  0.849200  0.88
  O  O1961  1  0.767000  0.705700  0.849200  0.88
  O  O1962  1  0.705700  0.767000  0.150800  0.88
  O  O1963  1  0.233000  0.938700  0.150800  0.88
  O  O1964  1  0.061300  0.294300  0.150800  0.88
  O  O1965  1  0.466000  0.687000  0.899700  0.78
  O  O1966  1  0.221000  0.534000  0.899700  0.78
  O  O1967  1  0.313000  0.779000  0.899700  0.78
  O  O1968  1  0.779000  0.313000  0.100300  0.78
  O  O1969  1  0.687000  0.466000  0.100300  0.78
  O  O1970  1  0.534000  0.221000  0.100300  0.78
  O  O1971  1  0.380000  0.739000  0.857800  0.78
  O  O1972  1  0.359000  0.620000  0.857800  0.78
  O  O1973  1  0.261000  0.641000  0.857800  0.78
  O  O1974  1  0.641000  0.261000  0.142200  0.78
  O  O1975  1  0.739000  0.380000  0.142200  0.78
  O  O1976  1  0.620000  0.359000  0.142200  0.78
