
#######################################################################
#
#                 Cambridge Crystallographic Data Centre
#                                CCDC 
#
#######################################################################
#
# If this CIF has been generated from an entry in the Cambridge 
# Structural Database, then it will include bibliographic, chemical, 
# crystal, experimental, refinement or atomic coordinate data resulting 
# from the CCDC's data processing and validation procedures.
#
#######################################################################

data_VEZREZ
_chemical_formula_moiety         
'C360 H312 Co8 N72 O24 16+,8(C1 H4 O1),16(B1 F4 1-),8(H2 O1)'
_chemical_name_systematic        
'dodecakis(\m~2~-(Naphthalene-1,5-diylbis(methylene-1H-pyrazole-1,3-diylpyridine-2,4-diyl))dimethanol)-octa-cobalt hexadecakis(tetrafluoroborate) methanol solvate octahydrate'
_symmetry_cell_setting           monoclinic
_symmetry_space_group_name_H-M   'C 2/c'
_symmetry_Int_Tables_number      15
_space_group_name_Hall           '-C 2yn'
loop_
_symmetry_equiv_pos_site_id
_symmetry_equiv_pos_as_xyz
1 x,y,z
2 -x,y,1/2-z
3 1/2+x,1/2+y,z
4 1/2-x,1/2+y,1/2-z
5 -x,-y,-z
6 x,-y,1/2+z
7 1/2-x,1/2-y,-z
8 1/2+x,1/2-y,1/2+z
_cell_length_a                   27.658(10)
_cell_length_b                   39.485(13)
_cell_length_c                   42.581(15)
_cell_angle_alpha                90
_cell_angle_beta                 106.741(5)
_cell_angle_gamma                90
_cell_volume                     44530.8
_exptl_crystal_colour            'light orange'
_exptl_crystal_description       Block
_cell_formula_units_Z            4
loop_
_atom_site_label
_atom_site_type_symbol
_atom_site_fract_x
_atom_site_fract_y
_atom_site_fract_z
Co1 Co 0.90522(6) 0.04038(3) 0.12672(4)
Co2 Co 0.62515(6) 0.03495(4) -0.12685(4)
Co3 Co 1.09193(5) 0.25938(3) 0.04262(3)
Co4 Co 0.67865(7) 0.24391(4) 0.21444(5)
N1 N 0.9484(2) 0.08179(11) 0.15356(15)
C1 C 0.92717(19) 0.11349(14) 0.14445(14)
C2 C 0.9522(2) 0.14248(11) 0.15917(16)
H1 H 0.9376 0.1642 0.1529
C3 C 0.9984(2) 0.13978(14) 0.18302(15)
C4 C 1.0197(2) 0.10808(18) 0.19213(14)
H2 H 1.0514 0.1062 0.2084
C5 C 0.9947(2) 0.07909(13) 0.17741(16)
H3 H 1.0093 0.0574 0.1836
C6 C 1.0249(4) 0.1716(3) 0.2002(3)
H4 H 1.0201 0.1901 0.1839
H5 H 1.0087 0.1786 0.2171
O1 O 1.0743(4) 0.1675(3) 0.2144(3)
H6 H 1.0867 0.1857 0.2234
N2 N 0.8075(2) 0.09179(15) 0.08852(16)
N3 N 0.8559(2) 0.08378(11) 0.10991(17)
C7 C 0.8802(2) 0.11459(16) 0.12266(17)
C8 C 0.8468(3) 0.14165(11) 0.10914(19)
H7 H 0.8534 0.1651 0.1134
C9 C 0.8019(2) 0.12755(16) 0.08804(18)
H8 H 0.7732 0.1399 0.0758
C10 C 0.7734(4) 0.0677(3) 0.0688(3)
H9 H 0.7386 0.0763 0.0647
H10 H 0.7760 0.0463 0.0813
N4 N 0.5729(3) -0.00388(18) -0.1523(2)
C11 C 0.5906(3) -0.0369(2) -0.1460(2)
C12 C 0.5602(4) -0.06391(16) -0.1607(3)
H11 H 0.5723 -0.0865 -0.1564
C13 C 0.5123(4) -0.0580(2) -0.1817(3)
C14 C 0.4946(3) -0.0250(3) -0.1880(2)
H12 H 0.4618 -0.0209 -0.2024
C15 C 0.5249(4) 0.00208(19) -0.1733(2)
H13 H 0.5129 0.0246 -0.1776
C16 C 0.4793(7) -0.0887(4) -0.1967(5)
H14 H 0.4873 -0.0963 -0.2168
H15 H 0.4858 -0.1077 -0.1809
O2 O 0.4291(7) -0.0788(6) -0.2042(6)
H16 H 0.4105 -0.0951 -0.2130
N5 N 0.7108(3) -0.02302(18) -0.08862(19)
N6 N 0.6632(3) -0.01234(13) -0.10937(19)
C17 C 0.6357(3) -0.0416(2) -0.1236(2)
C18 C 0.6663(4) -0.07042(13) -0.1116(2)
H17 H 0.6573 -0.0933 -0.1170
C19 C 0.7126(3) -0.05891(18) -0.0900(2)
H18 H 0.7401 -0.0728 -0.0785
C20 C 0.7440(5) -0.0020(3) -0.0679(3)
H19 H 0.7467 0.0190 -0.0799
H20 H 0.7776 -0.0130 -0.0617
C21 C 0.7821(2) 0.05994(13) 0.03639(12)
C22 C 0.8237(2) 0.07433(13) 0.02938(16)
H21 H 0.8448 0.0896 0.0445
C23 C 0.83433(18) 0.06638(14) 0.00027(17)
H22 H 0.8627 0.0762 -0.0045
C24 C 0.8034(2) 0.04406(14) -0.02185(14)
H23 H 0.8106 0.0386 -0.0417
C25 C 0.76179(17) 0.02968(10) -0.01484(11)
C26 C 0.75115(16) 0.03762(10) 0.01427(11)
C27 C 0.70956(19) 0.02324(14) 0.02128(14)
H24 H 0.7023 0.0287 0.0412
C28 C 0.67861(19) 0.00091(14) -0.00083(17)
H25 H 0.6502 -0.0089 0.0040
C29 C 0.6892(2) -0.00703(14) -0.02995(16)
H26 H 0.6681 -0.0223 -0.0451
C30 C 0.7308(2) 0.00735(14) -0.03696(12)
N7 N 0.8598(2) 0.00354(13) 0.09432(15)
C31 C 0.8738(2) -0.00298(15) 0.06604(17)
C32 C 0.8465(3) -0.02611(16) 0.04312(15)
H27 H 0.8560 -0.0306 0.0238
C33 C 0.8052(3) -0.04271(14) 0.04848(17)
C34 C 0.7913(2) -0.03619(16) 0.0768(2)
H28 H 0.7631 -0.0475 0.0804
C35 C 0.8186(3) -0.01307(16) 0.09968(15)
H29 H 0.8091 -0.0086 0.1190
C36 C 0.7766(4) -0.0669(3) 0.0227(3)
H30 H 0.7533 -0.0540 0.0048
H31 H 0.8007 -0.0790 0.0135
O3 O 0.7493(4) -0.0903(2) 0.0345(2)
H32 H 0.7691 -0.1019 0.0493
N8 N 0.9821(2) 0.05041(14) 0.07842(16)
N9 N 0.9383(2) 0.03850(15) 0.08593(14)
C37 C 0.9145(2) 0.01421(16) 0.06184(18)
C38 C 0.9436(3) 0.01112(17) 0.03943(16)
H33 H 0.9364 -0.0034 0.0208
C39 C 0.9854(2) 0.03349(17) 0.04967(17)
H34 H 1.0110 0.0366 0.0391
C40 C 1.0107(4) 0.0788(2) 0.0943(3)
H35 H 1.0447 0.0778 0.0912
H36 H 1.0147 0.0773 0.1181
N10 N 1.1346(2) 0.30412(14) 0.06258(16)
C41 C 1.1257(2) 0.31685(16) 0.09083(18)
C42 C 1.1557(3) 0.34277(18) 0.10823(18)
H37 H 1.1496 0.3515 0.1275
C43 C 1.1946(3) 0.35597(18) 0.0974(2)
C44 C 1.2036(2) 0.3432(2) 0.0691(2)
H38 H 1.2302 0.3523 0.0617
C45 C 1.1735(3) 0.31732(18) 0.05173(18)
H39 H 1.1796 0.3086 0.0324
C46 C 1.2228(7) 0.3856(4) 0.1191(5)
H40 H 1.2014 0.4062 0.1147
H41 H 1.2291 0.3797 0.1426
O4 O 1.2669(7) 0.3921(5) 0.1131(5)
H42 H 1.2868 0.3758 0.1198
N11 N 1.0217(2) 0.26500(12) 0.09442(13)
N12 N 1.0598(2) 0.27572(14) 0.08030(12)
C47 C 1.0869(2) 0.30263(14) 0.09970(16)
C48 C 1.0656(3) 0.30853(14) 0.12580(14)
H43 H 1.0764 0.3251 0.1425
C49 C 1.0253(2) 0.28528(15) 0.12254(13)
H44 H 1.0044 0.2836 0.1367
C50 C 0.9916(4) 0.2375(2) 0.0832(2)
H45 H 0.9842 0.2367 0.0590
H46 H 0.9592 0.2409 0.0882
C51 C 0.98733(19) 0.11217(8) 0.08201(12)
C52 C 0.94230(19) 0.11319(11) 0.05685(12)
H47 H 0.9263 0.0927 0.0477
C53 C 0.92075(16) 0.14418(14) 0.04504(11)
H48 H 0.8900 0.1449 0.0278
C54 C 0.94423(16) 0.17414(11) 0.05840(11)
H49 H 0.9295 0.1953 0.0503
C55 C 0.98926(14) 0.17312(8) 0.08356(9)
C56 C 1.01081(14) 0.14213(8) 0.09537(9)
C57 C 1.05584(16) 0.14111(10) 0.12053(11)
H50 H 1.0706 0.1199 0.1286
C58 C 1.07932(16) 0.17107(13) 0.13389(10)
H51 H 1.1101 0.1704 0.1511
C59 C 1.05777(18) 0.20206(10) 0.12209(11)
H52 H 1.0738 0.2225 0.1312
C60 C 1.01274(18) 0.20308(8) 0.09692(11)
N13 N 0.9590(3) 0.00104(13) 0.15149(16)
C61 C 0.9494(3) -0.01261(16) 0.17918(18)
C62 C 0.9793(3) -0.03884(17) 0.19615(16)
H53 H 0.9727 -0.0482 0.2151
C63 C 1.0187(3) -0.05141(17) 0.18543(19)
C64 C 1.0283(3) -0.03776(19) 0.1577(2)
H54 H 1.0553 -0.0464 0.1504
C65 C 0.9985(3) -0.01153(16) 0.14077(16)
H55 H 1.0051 -0.0022 0.1218
C66 C 1.0462(6) -0.0816(3) 0.2051(3)
H56 H 1.0257 -0.1021 0.1973
H57 H 1.0785 -0.0846 0.1998
O5 O 1.0564(7) -0.0802(4) 0.2379(3)
H58 H 1.0294 -0.0781 0.2430
N14 N 0.8408(3) 0.03440(18) 0.1822(2)
N15 N 0.8805(3) 0.02587(17) 0.16871(16)
C67 C 0.9106(3) 0.0006(2) 0.1889(2)
C68 C 0.8894(4) -0.0065(2) 0.21484(19)
H59 H 0.9019 -0.0225 0.2320
C69 C 0.8462(4) 0.0144(2) 0.2107(2)
H60 H 0.8248 0.0149 0.2246
C70 C 0.8047(5) 0.0600(3) 0.1687(3)
H61 H 0.7730 0.0549 0.1741
H62 H 0.7973 0.0600 0.1446
N16 N 0.6330(3) 0.28325(18) 0.18620(18)
C71 C 0.6449(3) 0.29221(17) 0.1577(2)
C72 C 0.6171(3) 0.31714(18) 0.13728(17)
H63 H 0.6252 0.3233 0.1178
C73 C 0.5774(3) 0.33310(18) 0.1453(2)
C74 C 0.5655(3) 0.3241(2) 0.1737(2)
H64 H 0.5384 0.3350 0.1792
C75 C 0.5933(3) 0.2992(2) 0.19420(19)
H65 H 0.5851 0.2931 0.2136
C76 C 0.5484(5) 0.3593(3) 0.1210(3)
H66 H 0.5714 0.3776 0.1185
H67 H 0.5336 0.3486 0.0993
O6 O 0.5098(5) 0.3726(3) 0.1328(3)
H68 H 0.4930 0.3869 0.1193
N17 N 0.7589(2) 0.24511(16) 0.16756(17)
N18 N 0.7158(3) 0.25510(16) 0.17705(15)
C77 C 0.6869(2) 0.27752(18) 0.15276(19)
C78 C 0.7121(3) 0.28138(19) 0.12827(16)
H69 H 0.7011 0.2950 0.1091
C79 C 0.7566(3) 0.26135(19) 0.13742(17)
H70 H 0.7806 0.2592 0.1255
C80 C 0.7927(4) 0.2188(3) 0.1831(3)
H71 H 0.7961 0.2195 0.2069
H72 H 0.8264 0.2239 0.1804
C81 C 0.8238(2) 0.09556(11) 0.18214(15)
C82 C 0.8707(2) 0.09985(15) 0.20505(15)
H73 H 0.8917 0.0808 0.2128
C83 C 0.88682(18) 0.13204(17) 0.21666(12)
H74 H 0.9188 0.1350 0.2323
C84 C 0.85609(19) 0.15994(14) 0.20535(12)
H75 H 0.8671 0.1819 0.2133
C85 C 0.80923(17) 0.15566(10) 0.18244(11)
C86 C 0.79309(18) 0.12347(10) 0.17083(11)
C87 C 0.74622(19) 0.11918(15) 0.14792(14)
H76 H 0.7352 0.0972 0.1400
C88 C 0.71550(18) 0.14708(18) 0.13661(14)
H77 H 0.6835 0.1441 0.1210
C89 C 0.7316(2) 0.17927(16) 0.14822(15)
H78 H 0.7106 0.1983 0.1405
C90 C 0.7785(2) 0.18356(11) 0.17113(15)
N19 N 0.5922(3) 0.03735(17) -0.08712(15)
C91 C 0.6135(2) 0.06114(16) -0.06305(17)
C92 C 0.5934(3) 0.06599(16) -0.03697(15)
H79 H 0.6080 0.0822 -0.0205
C93 C 0.5521(3) 0.0471(2) -0.03495(17)
C94 C 0.5308(3) 0.0233(2) -0.0590(2)
H80 H 0.5025 0.0103 -0.0576
C95 C 0.5508(3) 0.01841(17) -0.08510(17)
H81 H 0.5362 0.0022 -0.1015
C96 C 0.5323(5) 0.0535(3) -0.0056(3)
H82 H 0.5597 0.0494 0.0148
H83 H 0.5220 0.0775 -0.0057
O7 O 0.4914(4) 0.0330(3) -0.0059(2)
H84 H 0.5000 0.0126 -0.0055
N20 N 0.7193(2) 0.08909(15) -0.08848(15)
N21 N 0.6734(2) 0.07089(14) -0.09331(13)
C97 C 0.6544(2) 0.07786(17) -0.06639(17)
C98 C 0.6884(3) 0.10036(18) -0.04492(14)
H85 H 0.6850 0.1092 -0.0249
C99 C 0.7286(2) 0.10730(17) -0.05858(17)
H86 H 0.7567 0.1216 -0.0493
C100 C 0.7429(4) 0.0936(2) -0.1135(3)
H87 H 0.7400 0.0721 -0.1259
H88 H 0.7793 0.0977 -0.1029
N22 N 0.8617(4) 0.2577(3) -0.2529(2)
C101 C 0.8426(4) 0.2371(3) -0.2801(3)
C102 C 0.8667(5) 0.2356(3) -0.3045(3)
H89 H 0.8537 0.2215 -0.3231
C103 C 0.9100(5) 0.2547(3) -0.3018(3)
C104 C 0.9290(4) 0.2753(3) -0.2745(3)
H90 H 0.9586 0.2884 -0.2726
C105 C 0.9049(4) 0.2768(3) -0.2501(2)
H91 H 0.9180 0.2909 -0.2315
C106 C 0.9373(8) 0.2489(6) -0.3282(5)
H92 H 0.9193 0.2608 -0.3487
H93 H 0.9383 0.2244 -0.3330
O8 O 0.9858(8) 0.2616(7) -0.3160(6)
H94 H 0.9844 0.2821 -0.3111
N23 N 0.7408(4) 0.1986(2) -0.2596(2)
N24 N 0.7837(4) 0.2201(2) -0.25286(19)
C107 C 0.8044(4) 0.2179(3) -0.2797(2)
C108 C 0.7742(5) 0.1951(3) -0.3030(2)
H95 H 0.7795 0.1889 -0.3233
C109 C 0.7349(4) 0.1831(2) -0.2906(2)
H96 H 0.7093 0.1675 -0.3011
C110 C 0.7165(7) 0.1918(3) -0.2359(4)
H97 H 0.7151 0.2130 -0.2237
H98 H 0.6814 0.1848 -0.2470
C111 C 0.7230(2) 0.12214(13) -0.13792(13)
C112 C 0.6808(2) 0.13950(15) -0.13497(15)
H99 H 0.6667 0.1340 -0.1177
C113 C 0.6592(2) 0.16487(15) -0.15724(17)
H100 H 0.6304 0.1767 -0.1552
C114 C 0.6799(2) 0.17287(13) -0.18246(15)
H101 H 0.6651 0.1902 -0.1977
C115 C 0.72208(18) 0.15551(10) -0.18541(11)
C116 C 0.74364(17) 0.13015(9) -0.16314(11)
C117 C 0.7858(2) 0.11279(13) -0.16609(16)
H102 H 0.8006 0.0955 -0.1509
C118 C 0.8065(2) 0.12079(15) -0.19131(18)
H103 H 0.8353 0.1089 -0.1933
C119 C 0.7849(3) 0.14615(16) -0.21358(17)
H104 H 0.7990 0.1516 -0.2308
C120 C 0.7427(3) 0.16351(14) -0.21063(14)
N25 N 0.6615(3) 0.03866(16) -0.16495(15)
C121 C 0.6408(3) 0.06274(17) -0.18883(18)
C122 C 0.6622(3) 0.06848(19) -0.21414(16)
H105 H 0.6480 0.0849 -0.2305
C123 C 0.7044(3) 0.0501(2) -0.21556(18)
C124 C 0.7252(3) 0.0261(2) -0.1917(2)
H106 H 0.7540 0.0135 -0.1927
C125 C 0.7038(3) 0.02032(16) -0.16637(17)
H107 H 0.7180 0.0039 -0.1500
C126 C 0.7258(6) 0.0574(4) -0.2442(3)
H108 H 0.6990 0.0543 -0.2651
H109 H 0.7376 0.0811 -0.2430
O9 O 0.7662(5) 0.0354(3) -0.2431(3)
H110 H 0.7557 0.0153 -0.2454
N26 N 0.5350(3) 0.09051(19) -0.16301(17)
N27 N 0.5810(3) 0.07252(16) -0.15830(15)
C127 C 0.5993(3) 0.0790(2) -0.18565(19)
C128 C 0.5646(4) 0.1011(2) -0.20727(16)
H111 H 0.5674 0.1096 -0.2275
C129 C 0.5249(3) 0.1082(2) -0.19327(19)
H112 H 0.4965 0.1222 -0.2025
C130 C 0.5112(5) 0.0934(3) -0.1387(3)
H113 H 0.5147 0.0715 -0.1270
H114 H 0.4748 0.0969 -0.1495
N28 N 0.3698(2) 0.24823(15) -0.00497(13)
C131 C 0.3896(2) 0.23015(14) 0.02389(15)
C132 C 0.3678(2) 0.23296(17) 0.04937(13)
H115 H 0.3813 0.2206 0.0691
C133 C 0.3261(3) 0.25385(18) 0.04599(15)
C134 C 0.3064(2) 0.27194(17) 0.01713(18)
H116 H 0.2779 0.2862 0.0148
C135 C 0.3282(2) 0.26913(16) -0.00835(14)
H117 H 0.3147 0.2815 -0.0281
C136 C 0.2990(5) 0.2544(3) 0.0725(3)
H118 H 0.2735 0.2360 0.0679
H119 H 0.2807 0.2762 0.0711
O10 O 0.3289(6) 0.2506(4) 0.1029(3)
H120 H 0.3441 0.2320 0.1045
N29 N 0.49569(19) 0.19115(13) 0.00653(13)
N30 N 0.45237(19) 0.21233(13) -0.00138(11)
C137 C 0.4305(2) 0.21073(15) 0.02492(15)
C138 C 0.4603(3) 0.18855(16) 0.04909(12)
H121 H 0.4543 0.1828 0.0693
C139 C 0.5006(2) 0.17645(15) 0.03772(14)
H122 H 0.5263 0.1612 0.0490
C140 C 0.5241(3) 0.1852(2) -0.0149(2)
H123 H 0.5592 0.1803 -0.0018
H124 H 0.5248 0.2062 -0.0274
C141 C 0.5282(2) 0.12071(14) -0.11333(11)
C142 C 0.5680(2) 0.14079(16) -0.11605(13)
H125 H 0.5823 0.1372 -0.1336
C143 C 0.58708(19) 0.16607(15) -0.09310(14)
H126 H 0.6143 0.1798 -0.0950
C144 C 0.56624(17) 0.17126(12) -0.06742(13)
H127 H 0.5793 0.1885 -0.0517
C145 C 0.52637(14) 0.15118(9) -0.06471(9)
C146 C 0.50733(15) 0.12590(10) -0.08766(9)
C147 C 0.46746(18) 0.10582(12) -0.08494(13)
H128 H 0.4544 0.0885 -0.1006
C148 C 0.44662(18) 0.11101(13) -0.05927(15)
H129 H 0.4194 0.0973 -0.0574
C149 C 0.46565(19) 0.13629(13) -0.03632(13)
H130 H 0.4514 0.1398 -0.0188
C150 C 0.50553(19) 0.15637(12) -0.03903(10)
N31 N 1.1471(3) 0.22792(17) 0.07846(17)
C151 C 1.1380(3) 0.19333(19) 0.07455(18)
C152 C 1.1701(3) 0.17051(16) 0.0953(2)
H131 H 1.1639 0.1469 0.0927
C153 C 1.2113(3) 0.1823(2) 0.1200(2)
C154 C 1.2204(3) 0.2169(3) 0.12396(19)
H132 H 1.2486 0.2249 0.1408
C155 C 1.1883(3) 0.23968(17) 0.1032(2)
H133 H 1.1945 0.2633 0.1058
C156 C 1.2463(7) 0.1585(4) 0.1469(4)
H134 H 1.2266 0.1488 0.1609
H135 H 1.2587 0.1395 0.1361
O11 O 1.2864(8) 0.1765(6) 0.1660(5)
H136 H 1.3048 0.1636 0.1802
N32 N 1.0193(2) 0.19380(16) 0.01111(15)
N33 N 1.0613(3) 0.21004(11) 0.03320(16)
C157 C 1.0947(2) 0.18455(17) 0.05049(16)
C158 C 1.0733(3) 0.15255(12) 0.03909(19)
H137 H 1.0877 0.1311 0.0464
C159 C 1.0267(3) 0.15827(14) 0.01475(18)
H138 H 1.0044 0.1413 0.0030
C160 C 0.9791(4) 0.2119(2) -0.0103(2)
H139 H 0.9747 0.2336 0.0002
H140 H 0.9476 0.1987 -0.0138
N34 N 0.7736(3) 0.29671(14) -0.23801(16)
C161 C 0.7910(2) 0.32855(18) -0.22599(14)
C162 C 0.7633(3) 0.35728(13) -0.23885(16)
H141 H 0.7752 0.3790 -0.2306
C163 C 0.7182(3) 0.35416(15) -0.26372(16)
C164 C 0.7008(2) 0.32232(19) -0.27574(14)
H142 H 0.6700 0.3202 -0.2927
C165 C 0.7285(3) 0.29359(14) -0.26289(16)
H143 H 0.7167 0.2718 -0.2711
C166 C 0.6873(4) 0.3846(3) -0.2765(3)
H144 H 0.7093 0.4022 -0.2817
H145 H 0.6735 0.3936 -0.2591
O12 O 0.6480(4) 0.3782(2) -0.3040(2)
H146 H 0.6285 0.3638 -0.2996
N35 N 0.9089(3) 0.3082(2) -0.1671(2)
N36 N 0.8617(3) 0.29974(17) -0.1897(2)
C167 C 0.8365(3) 0.3304(2) -0.2022(2)
C168 C 0.8681(4) 0.35775(17) -0.1873(3)
H147 H 0.8606 0.3811 -0.1911
C169 C 0.9128(3) 0.3441(2) -0.1656(2)
H148 H 0.9405 0.3567 -0.1524
C170 C 0.9421(5) 0.2843(4) -0.1478(3)
H149 H 0.9411 0.2635 -0.1611
H150 H 0.9768 0.2934 -0.1424
C171 C 0.9872(4) 0.2193(2) -0.0434(3)
C172 C 1.0272(4) 0.2050(2) -0.0526(2)
H151 H 1.0492 0.1896 -0.0381
C173 C 1.0354(4) 0.2126(3) -0.0821(3)
H152 H 1.0630 0.2025 -0.0876
C174 C 1.0042(4) 0.2347(3) -0.1039(3)
H153 H 1.0099 0.2391 -0.1245
C175 C 0.9636(4) 0.2507(3) -0.0957(3)
C176 C 0.9538(4) 0.2419(3) -0.0648(3)
C177 C 0.9142(4) 0.2578(3) -0.0567(3)
H154 H 0.9075 0.2521 -0.0366
C178 C 0.8842(5) 0.2819(3) -0.0771(3)
H155 H 0.8580 0.2931 -0.0708
C179 C 0.8934(5) 0.2897(3) -0.1080(3)
H156 H 0.8726 0.3057 -0.1224
C180 C 0.9307(5) 0.2748(3) -0.1165(3)
Co1F Co 0.59478(6) 0.45962(3) -0.12672(4)
Co2F Co 0.87485(6) 0.46505(4) 0.12685(4)
Co3F Co 0.40807(5) 0.24062(3) -0.04262(3)
Co4F Co 0.82135(7) 0.25609(4) -0.21444(5)
N1F N 0.5516(2) 0.41821(11) -0.15356(15)
C1F C 0.57283(19) 0.38651(14) -0.14445(14)
C2F C 0.5478(2) 0.35752(11) -0.15917(16)
H1F H 0.5624 0.3358 -0.1529
C3F C 0.5016(2) 0.36022(14) -0.18302(15)
C4F C 0.4803(2) 0.39192(18) -0.19213(14)
H2F H 0.4486 0.3938 -0.2084
C5F C 0.5053(2) 0.42091(13) -0.17741(16)
H3F H 0.4907 0.4426 -0.1836
C6F C 0.4751(4) 0.3284(3) -0.2002(3)
H4F H 0.4799 0.3099 -0.1839
H5F H 0.4913 0.3214 -0.2171
O1F O 0.4257(4) 0.3325(3) -0.2144(3)
H6F H 0.4133 0.3143 -0.2234
N2F N 0.6925(2) 0.40821(15) -0.08852(16)
N3F N 0.6441(2) 0.41622(11) -0.10991(17)
C7F C 0.6198(2) 0.38541(16) -0.12266(17)
C8F C 0.6532(3) 0.35835(11) -0.10914(19)
H7F H 0.6466 0.3349 -0.1134
C9F C 0.6981(2) 0.37245(16) -0.08804(18)
H8F H 0.7268 0.3601 -0.0758
C10F C 0.7266(4) 0.4323(3) -0.0688(3)
H9F H 0.7614 0.4237 -0.0647
H10F H 0.7240 0.4537 -0.0813
N4F N 0.9271(3) 0.50388(18) 0.1523(2)
C11F C 0.9094(3) 0.5369(2) 0.1460(2)
C12F C 0.9398(4) 0.56391(16) 0.1607(3)
H11F H 0.9277 0.5865 0.1564
C13F C 0.9877(4) 0.5580(2) 0.1817(3)
C14F C 1.0054(3) 0.5250(3) 0.1880(2)
H12F H 1.0382 0.5209 0.2024
C15F C 0.9751(4) 0.49792(19) 0.1733(2)
H13F H 0.9871 0.4754 0.1776
C16F C 1.0207(7) 0.5887(4) 0.1967(5)
H14F H 1.0127 0.5963 0.2168
H15F H 1.0142 0.6077 0.1809
O2F O 1.0709(7) 0.5788(6) 0.2042(6)
H16F H 1.0895 0.5951 0.2130
N5F N 0.7892(3) 0.52302(18) 0.08862(19)
N6F N 0.8368(3) 0.51234(13) 0.10937(19)
C17F C 0.8643(3) 0.5416(2) 0.1236(2)
C18F C 0.8337(4) 0.57042(13) 0.1116(2)
H17F H 0.8427 0.5933 0.1170
C19F C 0.7874(3) 0.55891(18) 0.0900(2)
H18F H 0.7599 0.5728 0.0785
C20F C 0.7560(5) 0.5020(3) 0.0679(3)
H19F H 0.7533 0.4810 0.0799
H20F H 0.7224 0.5130 0.0617
C21F C 0.7179(2) 0.44006(13) -0.03639(12)
C22F C 0.6763(2) 0.42567(13) -0.02938(16)
H21F H 0.6552 0.4104 -0.0445
C23F C 0.66567(18) 0.43362(14) -0.00027(17)
H22F H 0.6373 0.4238 0.0045
C24F C 0.6966(2) 0.45594(14) 0.02185(14)
H23F H 0.6894 0.4614 0.0417
C25F C 0.73821(17) 0.47032(10) 0.01484(11)
C26F C 0.74885(16) 0.46238(10) -0.01427(11)
C27F C 0.79044(19) 0.47676(14) -0.02128(14)
H24F H 0.7977 0.4713 -0.0412
C28F C 0.82139(19) 0.49909(14) 0.00083(17)
H25F H 0.8498 0.5089 -0.0040
C29F C 0.8108(2) 0.50703(14) 0.02995(16)
H26F H 0.8319 0.5223 0.0451
C30F C 0.7692(2) 0.49265(14) 0.03696(12)
N7F N 0.6402(2) 0.49646(13) -0.09432(15)
C31F C 0.6262(2) 0.50298(15) -0.06604(17)
C32F C 0.6535(3) 0.52611(16) -0.04312(15)
H27F H 0.6440 0.5306 -0.0238
C33F C 0.6948(3) 0.54271(14) -0.04848(17)
C34F C 0.7087(2) 0.53619(16) -0.0768(2)
H28F H 0.7369 0.5475 -0.0804
C35F C 0.6814(3) 0.51307(16) -0.09968(15)
H29F H 0.6909 0.5086 -0.1190
C36F C 0.7234(4) 0.5669(3) -0.0227(3)
H30F H 0.7467 0.5540 -0.0048
H31F H 0.6993 0.5790 -0.0135
O3F O 0.7507(4) 0.5903(2) -0.0345(2)
H32F H 0.7309 0.6019 -0.0493
N8F N 0.5179(2) 0.44959(14) -0.07842(16)
N9F N 0.5617(2) 0.46150(15) -0.08593(14)
C37F C 0.5855(2) 0.48579(16) -0.06184(18)
C38F C 0.5564(3) 0.48888(17) -0.03943(16)
H33F H 0.5636 0.5034 -0.0208
C39F C 0.5146(2) 0.46651(17) -0.04967(17)
H34F H 0.4890 0.4634 -0.0391
C40F C 0.4893(4) 0.4212(2) -0.0943(3)
H35F H 0.4553 0.4222 -0.0912
H36F H 0.4853 0.4227 -0.1181
N10F N 0.3654(2) 0.19588(14) -0.06258(16)
C41F C 0.3743(2) 0.18315(16) -0.09083(18)
C42F C 0.3443(3) 0.15723(18) -0.10823(18)
H37F H 0.3504 0.1485 -0.1275
C43F C 0.3054(3) 0.14403(18) -0.0974(2)
C44F C 0.2964(2) 0.1568(2) -0.0691(2)
H38F H 0.2698 0.1477 -0.0617
C45F C 0.3265(3) 0.18268(18) -0.05173(18)
H39F H 0.3204 0.1914 -0.0324
C46F C 0.2772(7) 0.1144(4) -0.1191(5)
H40F H 0.2986 0.0938 -0.1147
H41F H 0.2709 0.1203 -0.1426
O4F O 0.2331(7) 0.1079(5) -0.1131(5)
H42F H 0.2132 0.1242 -0.1198
N11F N 0.4783(2) 0.23500(12) -0.09442(13)
N12F N 0.4402(2) 0.22428(14) -0.08030(12)
C47F C 0.4131(2) 0.19737(14) -0.09970(16)
C48F C 0.4344(3) 0.19147(14) -0.12580(14)
H43F H 0.4236 0.1749 -0.1425
C49F C 0.4747(2) 0.21472(15) -0.12254(13)
H44F H 0.4956 0.2164 -0.1367
C50F C 0.5084(4) 0.2625(2) -0.0832(2)
H45F H 0.5158 0.2633 -0.0590
H46F H 0.5408 0.2591 -0.0882
C51F C 0.51267(19) 0.38783(8) -0.08201(12)
C52F C 0.55770(19) 0.38681(11) -0.05685(12)
H47F H 0.5737 0.4073 -0.0477
C53F C 0.57925(16) 0.35582(14) -0.04504(11)
H48F H 0.6100 0.3551 -0.0278
C54F C 0.55577(16) 0.32586(11) -0.05840(11)
H49F H 0.5705 0.3047 -0.0503
C55F C 0.51074(14) 0.32688(8) -0.08356(9)
C56F C 0.48919(14) 0.35787(8) -0.09537(9)
C57F C 0.44416(16) 0.35889(10) -0.12053(11)
H50F H 0.4294 0.3801 -0.1286
C58F C 0.42068(16) 0.32893(13) -0.13389(10)
H51F H 0.3899 0.3296 -0.1511
C59F C 0.44223(18) 0.29794(10) -0.12209(11)
H52F H 0.4262 0.2775 -0.1312
C60F C 0.48726(18) 0.29692(8) -0.09692(11)
N13F N 0.5410(3) 0.49896(13) -0.15149(16)
C61F C 0.5506(3) 0.51261(16) -0.17918(18)
C62F C 0.5207(3) 0.53884(17) -0.19615(16)
H53F H 0.5273 0.5482 -0.2151
C63F C 0.4813(3) 0.55141(17) -0.18543(19)
C64F C 0.4717(3) 0.53776(19) -0.1577(2)
H54F H 0.4447 0.5464 -0.1504
C65F C 0.5015(3) 0.51153(16) -0.14077(16)
H55F H 0.4949 0.5022 -0.1218
C66F C 0.4538(6) 0.5816(3) -0.2051(3)
H56F H 0.4743 0.6021 -0.1973
H57F H 0.4215 0.5846 -0.1998
O5F O 0.4436(7) 0.5802(4) -0.2379(3)
H58F H 0.4706 0.5781 -0.2430
N14F N 0.6592(3) 0.46560(18) -0.1822(2)
N15F N 0.6195(3) 0.47413(17) -0.16871(16)
C67F C 0.5894(3) 0.4994(2) -0.1889(2)
C68F C 0.6106(4) 0.5065(2) -0.21484(19)
H59F H 0.5981 0.5225 -0.2320
C69F C 0.6538(4) 0.4856(2) -0.2107(2)
H60F H 0.6752 0.4851 -0.2246
C70F C 0.6953(5) 0.4400(3) -0.1687(3)
H61F H 0.7270 0.4451 -0.1741
H62F H 0.7027 0.4400 -0.1446
N16F N 0.8670(3) 0.21675(18) -0.18620(18)
C71F C 0.8551(3) 0.20779(17) -0.1577(2)
C72F C 0.8829(3) 0.18286(18) -0.13728(17)
H63F H 0.8748 0.1767 -0.1178
C73F C 0.9226(3) 0.16690(18) -0.1453(2)
C74F C 0.9345(3) 0.1759(2) -0.1737(2)
H64F H 0.9616 0.1650 -0.1792
C75F C 0.9067(3) 0.2008(2) -0.19420(19)
H65F H 0.9149 0.2069 -0.2136
C76F C 0.9516(5) 0.1407(3) -0.1210(3)
H66F H 0.9286 0.1224 -0.1185
H67F H 0.9664 0.1514 -0.0993
O6F O 0.9902(5) 0.1274(3) -0.1328(3)
H68F H 1.0070 0.1131 -0.1193
N17F N 0.7411(2) 0.25489(16) -0.16756(17)
N18F N 0.7842(3) 0.24490(16) -0.17705(15)
C77F C 0.8131(2) 0.22248(18) -0.15276(19)
C78F C 0.7879(3) 0.21862(19) -0.12827(16)
H69F H 0.7989 0.2050 -0.1091
C79F C 0.7434(3) 0.23865(19) -0.13742(17)
H70F H 0.7194 0.2408 -0.1255
C80F C 0.7073(4) 0.2812(3) -0.1831(3)
H71F H 0.7039 0.2805 -0.2069
H72F H 0.6736 0.2761 -0.1804
C81F C 0.6762(2) 0.40444(11) -0.18214(15)
C82F C 0.6293(2) 0.40015(15) -0.20505(15)
H73F H 0.6083 0.4192 -0.2128
C83F C 0.61318(18) 0.36796(17) -0.21666(12)
H74F H 0.5812 0.3650 -0.2323
C84F C 0.64391(19) 0.34006(14) -0.20535(12)
H75F H 0.6329 0.3181 -0.2133
C85F C 0.69077(17) 0.34434(10) -0.18244(11)
C86F C 0.70691(18) 0.37653(10) -0.17083(11)
C87F C 0.75378(19) 0.38082(15) -0.14792(14)
H76F H 0.7648 0.4028 -0.1400
C88F C 0.78450(18) 0.35292(18) -0.13661(14)
H77F H 0.8165 0.3559 -0.1210
C89F C 0.7684(2) 0.32073(16) -0.14822(15)
H78F H 0.7894 0.3017 -0.1405
C90F C 0.7215(2) 0.31644(11) -0.17113(15)
N19F N 0.9078(3) 0.46265(17) 0.08712(15)
C91F C 0.8865(2) 0.43886(16) 0.06305(17)
C92F C 0.9066(3) 0.43401(16) 0.03697(15)
H79F H 0.8920 0.4178 0.0205
C93F C 0.9479(3) 0.4529(2) 0.03495(17)
C94F C 0.9692(3) 0.4767(2) 0.0590(2)
H80F H 0.9975 0.4897 0.0576
C95F C 0.9492(3) 0.48159(17) 0.08510(17)
H81F H 0.9638 0.4978 0.1015
C96F C 0.9677(5) 0.4465(3) 0.0056(3)
H82F H 0.9403 0.4506 -0.0148
H83F H 0.9780 0.4225 0.0057
O7F O 1.0086(4) 0.4670(3) 0.0059(2)
H84F H 1.0000 0.4874 0.0055
N20F N 0.7807(2) 0.41091(15) 0.08848(15)
N21F N 0.8266(2) 0.42911(14) 0.09331(13)
C97F C 0.8456(2) 0.42214(17) 0.06639(17)
C98F C 0.8116(3) 0.39964(18) 0.04492(14)
H85F H 0.8150 0.3908 0.0249
C99F C 0.7714(2) 0.39270(17) 0.05858(17)
H86F H 0.7433 0.3784 0.0493
C100F C 0.7571(4) 0.4064(2) 0.1135(3)
H87F H 0.7600 0.4279 0.1259
H88F H 0.7207 0.4023 0.1029
N22F N 0.6383(4) 0.2423(3) 0.2529(2)
C101F C 0.6574(4) 0.2629(3) 0.2801(3)
C102F C 0.6333(5) 0.2644(3) 0.3045(3)
H89F H 0.6463 0.2785 0.3231
C103F C 0.5900(5) 0.2453(3) 0.3018(3)
C104F C 0.5710(4) 0.2247(3) 0.2745(3)
H90F H 0.5414 0.2116 0.2726
C105F C 0.5951(4) 0.2232(3) 0.2501(2)
H91F H 0.5820 0.2091 0.2315
C106F C 0.5627(8) 0.2511(6) 0.3282(5)
H92F H 0.5807 0.2392 0.3487
H93F H 0.5617 0.2756 0.3330
O8F O 0.5142(8) 0.2384(7) 0.3160(6)
H94F H 0.5156 0.2179 0.3111
N23F N 0.7592(4) 0.3014(2) 0.2596(2)
N24F N 0.7163(4) 0.2799(2) 0.25286(19)
C107F C 0.6956(4) 0.2821(3) 0.2797(2)
C108F C 0.7258(5) 0.3049(3) 0.3030(2)
H95F H 0.7205 0.3111 0.3233
C109F C 0.7651(4) 0.3169(2) 0.2906(2)
H96F H 0.7907 0.3325 0.3011
C110F C 0.7835(7) 0.3082(3) 0.2359(4)
H97F H 0.7849 0.2870 0.2237
H98F H 0.8186 0.3152 0.2470
C111F C 0.7770(2) 0.37786(13) 0.13792(13)
C112F C 0.8192(2) 0.36050(15) 0.13497(15)
H99F H 0.8333 0.3660 0.1177
C113F C 0.8408(2) 0.33513(15) 0.15724(17)
H100F H 0.8696 0.3233 0.1552
C114F C 0.8201(2) 0.32713(13) 0.18246(15)
H101F H 0.8349 0.3098 0.1977
C115F C 0.77792(18) 0.34449(10) 0.18541(11)
C116F C 0.75636(17) 0.36985(9) 0.16314(11)
C117F C 0.7142(2) 0.38721(13) 0.16609(16)
H102F H 0.6994 0.4045 0.1509
C118F C 0.6935(2) 0.37921(15) 0.19131(18)
H103F H 0.6647 0.3911 0.1933
C119F C 0.7151(3) 0.35385(16) 0.21358(17)
H104F H 0.7010 0.3484 0.2308
C120F C 0.7573(3) 0.33649(14) 0.21063(14)
N25F N 0.8385(3) 0.46134(16) 0.16495(15)
C121F C 0.8592(3) 0.43726(17) 0.18883(18)
C122F C 0.8378(3) 0.43152(19) 0.21414(16)
H105F H 0.8520 0.4151 0.2305
C123F C 0.7956(3) 0.4499(2) 0.21556(18)
C124F C 0.7748(3) 0.4739(2) 0.1917(2)
H106F H 0.7460 0.4865 0.1927
C125F C 0.7962(3) 0.47968(16) 0.16637(17)
H107F H 0.7820 0.4961 0.1500
C126F C 0.7742(6) 0.4426(4) 0.2442(3)
H108F H 0.8010 0.4457 0.2651
H109F H 0.7624 0.4189 0.2430
O9F O 0.7338(5) 0.4646(3) 0.2431(3)
H110F H 0.7443 0.4847 0.2454
N26F N 0.9650(3) 0.40949(19) 0.16301(17)
N27F N 0.9190(3) 0.42748(16) 0.15830(15)
C127F C 0.9007(3) 0.4210(2) 0.18565(19)
C128F C 0.9354(4) 0.3989(2) 0.20727(16)
H111F H 0.9326 0.3904 0.2275
C129F C 0.9751(3) 0.3918(2) 0.19327(19)
H112F H 1.0035 0.3778 0.2025
C130F C 0.9888(5) 0.4066(3) 0.1387(3)
H113F H 0.9853 0.4285 0.1270
H114F H 1.0252 0.4031 0.1495
N28F N 1.1302(2) 0.25177(15) 0.00497(13)
C131F C 1.1104(2) 0.26985(14) -0.02389(15)
C132F C 1.1322(2) 0.26704(17) -0.04937(13)
H115F H 1.1187 0.2794 -0.0691
C133F C 1.1739(3) 0.24615(18) -0.04599(15)
C134F C 1.1936(2) 0.22806(17) -0.01713(18)
H116F H 1.2221 0.2138 -0.0148
C135F C 1.1718(2) 0.23087(16) 0.00835(14)
H117F H 1.1853 0.2185 0.0281
C136F C 1.2010(5) 0.2456(3) -0.0725(3)
H118F H 1.2265 0.2640 -0.0679
H119F H 1.2193 0.2238 -0.0711
O10F O 1.1711(6) 0.2494(4) -0.1029(3)
H120F H 1.1559 0.2680 -0.1045
N29F N 1.00431(19) 0.30885(13) -0.00653(13)
N30F N 1.04763(19) 0.28767(13) 0.00138(11)
C137F C 1.0695(2) 0.28927(15) -0.02492(15)
C138F C 1.0397(3) 0.31145(16) -0.04909(12)
H121F H 1.0457 0.3172 -0.0693
C139F C 0.9994(2) 0.32355(15) -0.03772(14)
H122F H 0.9737 0.3388 -0.0490
C140F C 0.9759(3) 0.3148(2) 0.0149(2)
H123F H 0.9408 0.3197 0.0018
H124F H 0.9752 0.2938 0.0274
C141F C 0.9718(2) 0.37929(14) 0.11333(11)
C142F C 0.9320(2) 0.35921(16) 0.11605(13)
H125F H 0.9177 0.3628 0.1336
C143F C 0.91292(19) 0.33393(15) 0.09310(14)
H126F H 0.8857 0.3202 0.0950
C144F C 0.93376(17) 0.32874(12) 0.06742(13)
H127F H 0.9207 0.3115 0.0517
C145F C 0.97363(14) 0.34882(9) 0.06471(9)
C146F C 0.99267(15) 0.37410(10) 0.08766(9)
C147F C 1.03254(18) 0.39418(12) 0.08494(13)
H128F H 1.0456 0.4115 0.1006
C148F C 1.05338(18) 0.38899(13) 0.05927(15)
H129F H 1.0806 0.4027 0.0574
C149F C 1.03435(19) 0.36371(13) 0.03632(13)
H130F H 1.0486 0.3602 0.0188
C150F C 0.99447(19) 0.34363(12) 0.03903(10)
N31F N 0.3529(3) 0.27208(17) -0.07846(17)
C151F C 0.3620(3) 0.30667(19) -0.07455(18)
C152F C 0.3299(3) 0.32949(16) -0.0953(2)
H131F H 0.3361 0.3531 -0.0927
C153F C 0.2887(3) 0.3177(2) -0.1200(2)
C154F C 0.2796(3) 0.2831(3) -0.12396(19)
H132F H 0.2514 0.2751 -0.1408
C155F C 0.3117(3) 0.26032(17) -0.1032(2)
H133F H 0.3055 0.2367 -0.1058
C156F C 0.2537(7) 0.3415(4) -0.1469(4)
H134F H 0.2734 0.3512 -0.1609
H135F H 0.2413 0.3605 -0.1361
O11F O 0.2136(8) 0.3235(6) -0.1660(5)
H136F H 0.1952 0.3364 -0.1802
N32F N 0.4807(2) 0.30620(16) -0.01111(15)
N33F N 0.4387(3) 0.28996(11) -0.03320(16)
C157F C 0.4053(2) 0.31545(17) -0.05049(16)
C158F C 0.4267(3) 0.34745(12) -0.03909(19)
H137F H 0.4123 0.3689 -0.0464
C159F C 0.4733(3) 0.34173(14) -0.01475(18)
H138F H 0.4956 0.3587 -0.0030
C160F C 0.5209(4) 0.2881(2) 0.0103(2)
H139F H 0.5253 0.2664 -0.0002
H140F H 0.5524 0.3013 0.0138
N34F N 0.7264(3) 0.20329(14) 0.23801(16)
C161F C 0.7090(2) 0.17145(18) 0.22599(14)
C162F C 0.7367(3) 0.14272(13) 0.23885(16)
H141F H 0.7248 0.1210 0.2306
C163F C 0.7818(3) 0.14584(15) 0.26372(16)
C164F C 0.7992(2) 0.17768(19) 0.27574(14)
H142F H 0.8300 0.1798 0.2927
C165F C 0.7715(3) 0.20641(14) 0.26289(16)
H143F H 0.7833 0.2282 0.2711
C166F C 0.8127(4) 0.1154(3) 0.2765(3)
H144F H 0.7907 0.0978 0.2817
H145F H 0.8265 0.1064 0.2591
O12F O 0.8520(4) 0.1218(2) 0.3040(2)
H146F H 0.8715 0.1362 0.2996
N35F N 0.5911(3) 0.1918(2) 0.1671(2)
N36F N 0.6383(3) 0.20026(17) 0.1897(2)
C167F C 0.6635(3) 0.1696(2) 0.2022(2)
C168F C 0.6319(4) 0.14225(17) 0.1873(3)
H147F H 0.6394 0.1189 0.1911
C169F C 0.5872(3) 0.1559(2) 0.1656(2)
H148F H 0.5595 0.1433 0.1524
C170F C 0.5579(5) 0.2157(4) 0.1478(3)
H149F H 0.5589 0.2365 0.1611
H150F H 0.5232 0.2066 0.1424
C171F C 0.5128(4) 0.2807(2) 0.0434(3)
C172F C 0.4728(4) 0.2950(2) 0.0526(2)
H151F H 0.4508 0.3104 0.0381
C173F C 0.4646(4) 0.2874(3) 0.0821(3)
H152F H 0.4370 0.2975 0.0876
C174F C 0.4958(4) 0.2653(3) 0.1039(3)
H153F H 0.4901 0.2609 0.1245
C175F C 0.5364(4) 0.2493(3) 0.0957(3)
C176F C 0.5462(4) 0.2581(3) 0.0648(3)
C177F C 0.5858(4) 0.2422(3) 0.0567(3)
H154F H 0.5925 0.2479 0.0366
C178F C 0.6158(5) 0.2181(3) 0.0771(3)
H155F H 0.6420 0.2069 0.0708
C179F C 0.6066(5) 0.2103(3) 0.1080(3)
H156F H 0.6274 0.1943 0.1224
C180F C 0.5693(5) 0.2252(3) 0.1165(3)
B1 B 0.9100(5) 0.2441(3) 0.1498(3)
F1 F 0.9563(5) 0.2321(4) 0.1554(4)
F2 F 0.8737(5) 0.2177(3) 0.1377(4)
F3 F 0.9005(6) 0.2669(3) 0.1225(3)
F4 F 0.8963(6) 0.2599(4) 0.1740(3)
B2 B 0.6393(7) 0.1249(5) 0.0445(5)
F5 F 0.6134(5) 0.1314(4) 0.0133(3)
F6 F 0.6827(5) 0.1433(3) 0.0543(3)
F7 F 0.6500(5) 0.0906(3) 0.0484(3)
F8 F 0.6087(5) 0.1331(3) 0.0638(3)
B3 B 0.6268(7) 0.3587(5) 0.0525(5)
F9 F 0.6617(4) 0.3598(3) 0.0347(3)
F10 F 0.6213(5) 0.3252(3) 0.0598(3)
F11 F 0.6423(5) 0.3779(3) 0.0801(3)
F12 F 0.5811(4) 0.3693(3) 0.0332(3)
B4 B 0.4403(8) 0.1587(5) 0.1367(5)
F13 F 0.4690(6) 0.1647(4) 0.1692(3)
F14 F 0.3943(5) 0.1472(4) 0.1376(4)
F15 F 0.4352(6) 0.1893(3) 0.1198(3)
F16 F 0.4661(6) 0.1362(4) 0.1229(4)
B5 B 0.1204(7) 0.3751(5) 0.2028(5)
F17 F 0.1676(5) 0.3789(3) 0.2195(3)
F18 F 0.1019(6) 0.3442(3) 0.2071(3)
F19 F 0.1125(5) 0.3797(3) 0.1716(3)
F20 F 0.0921(5) 0.3985(3) 0.2141(3)
B6 B 0.6986(9) 0.0445(6) 0.2227(6)
F21 F 0.7471(7) 0.0385(6) 0.2400(5)
F22 F 0.6729(9) 0.0156(5) 0.2210(6)
F23 F 0.6966(9) 0.0571(6) 0.1934(5)
F24 F 0.6784(9) 0.0677(5) 0.2388(5)
B7 B 0.1217(8) 0.0577(5) 0.0430(5)
F25 F 0.1618(6) 0.0694(4) 0.0353(4)
F26 F 0.0801(6) 0.0590(5) 0.0178(4)
F27 F 0.1311(7) 0.0244(4) 0.0506(4)
F28 F 0.1142(7) 0.0748(4) 0.0677(4)
C181 C 0.1044(8) 0.0570(5) 0.1737(5)
H157 H 0.0819 0.0753 0.1763
H158 H 0.0890 0.0451 0.1530
H159 H 0.1368 0.0667 0.1732
O13 O 0.1126(8) 0.0330(5) 0.2015(5)
H160 H 0.0846 0.0275 0.2040
C182 C 0.1037(8) 0.2563(5) 0.2066(4)
H161 H 0.0865 0.2770 0.2103
H162 H 0.0815 0.2436 0.1883
H163 H 0.1348 0.2623 0.2014
O14 O 0.1159(5) 0.2354(3) 0.2363(3)
H164 H 0.0926 0.2369 0.2452
C183 C 0.2336(15) 0.1428(8) 0.0412(10)
H165 H 0.2566 0.1253 0.0375
H166 H 0.2045 0.1448 0.0216
H167 H 0.2220 0.1366 0.0601
O15 O 0.2590(9) 0.1739(6) 0.0473(6)
H168 H 0.2660 0.1803 0.0303
C184 C 0.3529(13) 0.1285(7) 0.0207(8)
H169 H 0.3509 0.1219 0.0425
H170 H 0.3244 0.1434 0.0102
H171 H 0.3846 0.1406 0.0229
O16 O 0.3510(11) 0.0990(7) 0.0011(7)
H172 H 0.3795 0.0957 -0.0017
C185 C 0.3383(19) 0.1070(13) 0.1988(12)
H173 H 0.3300 0.1169 0.1768
H174 H 0.3072 0.1035 0.2050
H175 H 0.3554 0.0852 0.1989
O17 O 0.3708(14) 0.1293(9) 0.2216(9)
H176 H 0.3998 0.1288 0.2190
C186 C 0.4583(14) 0.0673(10) 0.0578(7)
H177 H 0.4809 0.0860 0.0566
H178 H 0.4783 0.0471 0.0662
H179 H 0.4383 0.0735 0.0726
O18 O 0.4247(6) 0.0604(4) 0.0254(4)
H180 H 0.4315 0.0736 0.0117
O19 O 0.8804(4) 0.2521(2) 0.0187(2)
O20 O 0.3210(9) 0.3221(5) 0.1302(5)
O21 O 0.4301(10) 0.3306(6) 0.1515(6)
O22 O 0.4770(11) 0.4216(7) 0.0827(7)
O23 O 0.8534(10) 0.0367(6) 0.7964(6)
O24 O 0.4192(10) 0.0264(6) 0.8599(6)
loop_
_geom_bond_atom_site_label_1
_geom_bond_atom_site_label_2
_geom_bond_site_symmetry_1
_geom_bond_site_symmetry_2
Co1 N1 1_555 1_555
Co2 N4 1_555 1_555
Co3 N10 1_555 1_555
Co4 N16 1_555 1_555
N1 C1 1_555 1_555
C1 C2 1_555 1_555
C2 H1 1_555 1_555
C3 C2 1_555 1_555
C4 C3 1_555 1_555
H2 C4 1_555 1_555
C5 N1 1_555 1_555
H3 C5 1_555 1_555
C6 C3 1_555 1_555
H4 C6 1_555 1_555
H5 C6 1_555 1_555
O1 C6 1_555 1_555
H6 O1 1_555 1_555
N2 N3 1_555 1_555
N3 Co1 1_555 1_555
C7 C1 1_555 1_555
C8 C7 1_555 1_555
H7 C8 1_555 1_555
C9 N2 1_555 1_555
H8 C9 1_555 1_555
C10 N2 1_555 1_555
H9 C10 1_555 1_555
H10 C10 1_555 1_555
N4 C11 1_555 1_555
C11 C12 1_555 1_555
C12 H11 1_555 1_555
C13 C12 1_555 1_555
C14 C13 1_555 1_555
H12 C14 1_555 1_555
C15 N4 1_555 1_555
H13 C15 1_555 1_555
C16 C13 1_555 1_555
H14 C16 1_555 1_555
H15 C16 1_555 1_555
O2 C16 1_555 1_555
H16 O2 1_555 1_555
N5 N6 1_555 1_555
N6 Co2 1_555 1_555
C17 C11 1_555 1_555
C18 C17 1_555 1_555
H17 C18 1_555 1_555
C19 N5 1_555 1_555
H18 C19 1_555 1_555
C20 N5 1_555 1_555
H19 C20 1_555 1_555
H20 C20 1_555 1_555
C21 C10 1_555 1_555
C22 C21 1_555 1_555
H21 C22 1_555 1_555
C23 C22 1_555 1_555
H22 C23 1_555 1_555
C24 C23 1_555 1_555
H23 C24 1_555 1_555
C25 C24 1_555 1_555
C26 C21 1_555 1_555
C27 C26 1_555 1_555
H24 C27 1_555 1_555
C28 C27 1_555 1_555
H25 C28 1_555 1_555
C29 C28 1_555 1_555
H26 C29 1_555 1_555
C30 C20 1_555 1_555
N7 Co1 1_555 1_555
C31 N7 1_555 1_555
C32 C31 1_555 1_555
H27 C32 1_555 1_555
C33 C32 1_555 1_555
C34 C33 1_555 1_555
H28 C34 1_555 1_555
C35 N7 1_555 1_555
H29 C35 1_555 1_555
C36 C33 1_555 1_555
H30 C36 1_555 1_555
H31 C36 1_555 1_555
O3 C36 1_555 1_555
H32 O3 1_555 1_555
N8 N9 1_555 1_555
N9 Co1 1_555 1_555
C37 C31 1_555 1_555
C38 C37 1_555 1_555
H33 C38 1_555 1_555
C39 N8 1_555 1_555
H34 C39 1_555 1_555
C40 N8 1_555 1_555
H35 C40 1_555 1_555
H36 C40 1_555 1_555
N10 C41 1_555 1_555
C41 C42 1_555 1_555
C42 H37 1_555 1_555
C43 C42 1_555 1_555
C44 C43 1_555 1_555
H38 C44 1_555 1_555
C45 N10 1_555 1_555
H39 C45 1_555 1_555
C46 C43 1_555 1_555
H40 C46 1_555 1_555
H41 C46 1_555 1_555
O4 C46 1_555 1_555
H42 O4 1_555 1_555
N11 N12 1_555 1_555
N12 Co3 1_555 1_555
C47 C41 1_555 1_555
C48 C47 1_555 1_555
H43 C48 1_555 1_555
C49 N11 1_555 1_555
H44 C49 1_555 1_555
C50 N11 1_555 1_555
H45 C50 1_555 1_555
H46 C50 1_555 1_555
C51 C40 1_555 1_555
C52 C51 1_555 1_555
H47 C52 1_555 1_555
C53 C52 1_555 1_555
H48 C53 1_555 1_555
C54 C53 1_555 1_555
H49 C54 1_555 1_555
C55 C54 1_555 1_555
C56 C51 1_555 1_555
C57 C56 1_555 1_555
H50 C57 1_555 1_555
C58 C57 1_555 1_555
H51 C58 1_555 1_555
C59 C58 1_555 1_555
H52 C59 1_555 1_555
C60 C50 1_555 1_555
N13 Co1 1_555 1_555
C61 N13 1_555 1_555
C62 C61 1_555 1_555
H53 C62 1_555 1_555
C63 C62 1_555 1_555
C64 C63 1_555 1_555
H54 C64 1_555 1_555
C65 N13 1_555 1_555
H55 C65 1_555 1_555
C66 C63 1_555 1_555
H56 C66 1_555 1_555
H57 C66 1_555 1_555
O5 C66 1_555 1_555
H58 O5 1_555 1_555
N14 N15 1_555 1_555
N15 Co1 1_555 1_555
C67 C61 1_555 1_555
C68 C67 1_555 1_555
H59 C68 1_555 1_555
C69 N14 1_555 1_555
H60 C69 1_555 1_555
C70 N14 1_555 1_555
H61 C70 1_555 1_555
H62 C70 1_555 1_555
N16 C71 1_555 1_555
C71 C72 1_555 1_555
C72 H63 1_555 1_555
C73 C72 1_555 1_555
C74 C73 1_555 1_555
H64 C74 1_555 1_555
C75 N16 1_555 1_555
H65 C75 1_555 1_555
C76 C73 1_555 1_555
H66 C76 1_555 1_555
H67 C76 1_555 1_555
O6 C76 1_555 1_555
H68 O6 1_555 1_555
N17 N18 1_555 1_555
N18 Co4 1_555 1_555
C77 C71 1_555 1_555
C78 C77 1_555 1_555
H69 C78 1_555 1_555
C79 N17 1_555 1_555
H70 C79 1_555 1_555
C80 N17 1_555 1_555
H71 C80 1_555 1_555
H72 C80 1_555 1_555
C81 C70 1_555 1_555
C82 C81 1_555 1_555
H73 C82 1_555 1_555
C83 C82 1_555 1_555
H74 C83 1_555 1_555
C84 C83 1_555 1_555
H75 C84 1_555 1_555
C85 C84 1_555 1_555
C86 C81 1_555 1_555
C87 C86 1_555 1_555
H76 C87 1_555 1_555
C88 C87 1_555 1_555
H77 C88 1_555 1_555
C89 C88 1_555 1_555
H78 C89 1_555 1_555
C90 C80 1_555 1_555
N19 Co2 1_555 1_555
C91 N19 1_555 1_555
C92 C91 1_555 1_555
H79 C92 1_555 1_555
C93 C92 1_555 1_555
C94 C93 1_555 1_555
H80 C94 1_555 1_555
C95 N19 1_555 1_555
H81 C95 1_555 1_555
C96 C93 1_555 1_555
H82 C96 1_555 1_555
H83 C96 1_555 1_555
O7 C96 1_555 1_555
H84 O7 1_555 1_555
N20 N21 1_555 1_555
N21 Co2 1_555 1_555
C97 C91 1_555 1_555
C98 C97 1_555 1_555
H85 C98 1_555 1_555
C99 N20 1_555 1_555
H86 C99 1_555 1_555
C100 N20 1_555 1_555
H87 C100 1_555 1_555
H88 C100 1_555 1_555
N22 C101 1_555 1_555
C101 C102 1_555 1_555
C102 H89 1_555 1_555
C103 C102 1_555 1_555
C104 C103 1_555 1_555
H90 C104 1_555 1_555
C105 N22 1_555 1_555
H91 C105 1_555 1_555
C106 C103 1_555 1_555
H92 C106 1_555 1_555
H93 C106 1_555 1_555
O8 C106 1_555 1_555
H94 O8 1_555 1_555
N23 N24 1_555 1_555
N24 C107 1_555 1_555
C107 C101 1_555 1_555
C108 C107 1_555 1_555
H95 C108 1_555 1_555
C109 N23 1_555 1_555
H96 C109 1_555 1_555
C110 N23 1_555 1_555
H97 C110 1_555 1_555
H98 C110 1_555 1_555
C111 C100 1_555 1_555
C112 C111 1_555 1_555
H99 C112 1_555 1_555
C113 C112 1_555 1_555
H100 C113 1_555 1_555
C114 C113 1_555 1_555
H101 C114 1_555 1_555
C115 C114 1_555 1_555
C116 C111 1_555 1_555
C117 C116 1_555 1_555
H102 C117 1_555 1_555
C118 C117 1_555 1_555
H103 C118 1_555 1_555
C119 C118 1_555 1_555
H104 C119 1_555 1_555
C120 C110 1_555 1_555
N25 Co2 1_555 1_555
C121 N25 1_555 1_555
C122 C121 1_555 1_555
H105 C122 1_555 1_555
C123 C122 1_555 1_555
C124 C123 1_555 1_555
H106 C124 1_555 1_555
C125 N25 1_555 1_555
H107 C125 1_555 1_555
C126 C123 1_555 1_555
H108 C126 1_555 1_555
H109 C126 1_555 1_555
O9 C126 1_555 1_555
H110 O9 1_555 1_555
N26 N27 1_555 1_555
N27 Co2 1_555 1_555
C127 C121 1_555 1_555
C128 C127 1_555 1_555
H111 C128 1_555 1_555
C129 N26 1_555 1_555
H112 C129 1_555 1_555
C130 N26 1_555 1_555
H113 C130 1_555 1_555
H114 C130 1_555 1_555
N28 C131 1_555 1_555
C131 C132 1_555 1_555
C132 H115 1_555 1_555
C133 C132 1_555 1_555
C134 C133 1_555 1_555
H116 C134 1_555 1_555
C135 N28 1_555 1_555
H117 C135 1_555 1_555
C136 C133 1_555 1_555
H118 C136 1_555 1_555
H119 C136 1_555 1_555
O10 C136 1_555 1_555
H120 O10 1_555 1_555
N29 N30 1_555 1_555
N30 C137 1_555 1_555
C137 C131 1_555 1_555
C138 C137 1_555 1_555
H121 C138 1_555 1_555
C139 N29 1_555 1_555
H122 C139 1_555 1_555
C140 N29 1_555 1_555
H123 C140 1_555 1_555
H124 C140 1_555 1_555
C141 C130 1_555 1_555
C142 C141 1_555 1_555
H125 C142 1_555 1_555
C143 C142 1_555 1_555
H126 C143 1_555 1_555
C144 C143 1_555 1_555
H127 C144 1_555 1_555
C145 C144 1_555 1_555
C146 C141 1_555 1_555
C147 C146 1_555 1_555
H128 C147 1_555 1_555
C148 C147 1_555 1_555
H129 C148 1_555 1_555
C149 C148 1_555 1_555
H130 C149 1_555 1_555
C150 C140 1_555 1_555
N31 Co3 1_555 1_555
C151 N31 1_555 1_555
C152 C151 1_555 1_555
H131 C152 1_555 1_555
C153 C152 1_555 1_555
C154 C153 1_555 1_555
H132 C154 1_555 1_555
C155 N31 1_555 1_555
H133 C155 1_555 1_555
C156 C153 1_555 1_555
H134 C156 1_555 1_555
H135 C156 1_555 1_555
O11 C156 1_555 1_555
H136 O11 1_555 1_555
N32 N33 1_555 1_555
N33 Co3 1_555 1_555
C157 C151 1_555 1_555
C158 C157 1_555 1_555
H137 C158 1_555 1_555
C159 N32 1_555 1_555
H138 C159 1_555 1_555
C160 N32 1_555 1_555
H139 C160 1_555 1_555
H140 C160 1_555 1_555
N34 C161 1_555 1_555
C161 C162 1_555 1_555
C162 H141 1_555 1_555
C163 C162 1_555 1_555
C164 C163 1_555 1_555
H142 C164 1_555 1_555
C165 N34 1_555 1_555
H143 C165 1_555 1_555
C166 C163 1_555 1_555
H144 C166 1_555 1_555
H145 C166 1_555 1_555
O12 C166 1_555 1_555
H146 O12 1_555 1_555
N35 N36 1_555 1_555
N36 C167 1_555 1_555
C167 C161 1_555 1_555
C168 C167 1_555 1_555
H147 C168 1_555 1_555
C169 N35 1_555 1_555
H148 C169 1_555 1_555
C170 N35 1_555 1_555
H149 C170 1_555 1_555
H150 C170 1_555 1_555
C171 C160 1_555 1_555
C172 C171 1_555 1_555
H151 C172 1_555 1_555
C173 C172 1_555 1_555
H152 C173 1_555 1_555
C174 C173 1_555 1_555
H153 C174 1_555 1_555
C175 C174 1_555 1_555
C176 C171 1_555 1_555
C177 C176 1_555 1_555
H154 C177 1_555 1_555
C178 C177 1_555 1_555
H155 C178 1_555 1_555
C179 C178 1_555 1_555
H156 C179 1_555 1_555
C180 C170 1_555 1_555
B1 F1 1_555 1_555
F2 B1 1_555 1_555
F3 B1 1_555 1_555
F4 B1 1_555 1_555
B2 F5 1_555 1_555
F6 B2 1_555 1_555
F7 B2 1_555 1_555
F8 B2 1_555 1_555
B3 F9 1_555 1_555
F10 B3 1_555 1_555
F11 B3 1_555 1_555
F12 B3 1_555 1_555
B4 F13 1_555 1_555
F14 B4 1_555 1_555
F15 B4 1_555 1_555
F16 B4 1_555 1_555
B5 F17 1_555 1_555
F18 B5 1_555 1_555
F19 B5 1_555 1_555
F20 B5 1_555 1_555
B6 F21 1_555 1_555
F22 B6 1_555 1_555
F23 B6 1_555 1_555
F24 B6 1_555 1_555
B7 F25 1_555 1_555
F26 B7 1_555 1_555
F27 B7 1_555 1_555
F28 B7 1_555 1_555
C181 H157 1_555 1_555
H158 C181 1_555 1_555
H159 C181 1_555 1_555
O13 C181 1_555 1_555
H160 O13 1_555 1_555
C182 H161 1_555 1_555
H162 C182 1_555 1_555
H163 C182 1_555 1_555
O14 C182 1_555 1_555
H164 O14 1_555 1_555
C183 H165 1_555 1_555
H166 C183 1_555 1_555
H167 C183 1_555 1_555
O15 C183 1_555 1_555
H168 O15 1_555 1_555
C184 H169 1_555 1_555
H170 C184 1_555 1_555
H171 C184 1_555 1_555
O16 C184 1_555 1_555
H172 O16 1_555 1_555
C185 H173 1_555 1_555
H174 C185 1_555 1_555
H175 C185 1_555 1_555
O17 C185 1_555 1_555
H176 O17 1_555 1_555
C186 H177 1_555 1_555
H178 C186 1_555 1_555
H179 C186 1_555 1_555
O18 C186 1_555 1_555
H180 O18 1_555 1_555
Co1F N1F 1_555 1_555
Co2F N4F 1_555 1_555
Co3F N28 1_555 1_555
Co4F N22 1_555 1_555
N1F C1F 1_555 1_555
C1F C2F 1_555 1_555
C2F H1F 1_555 1_555
C3F C2F 1_555 1_555
C4F C3F 1_555 1_555
H2F C4F 1_555 1_555
C5F N1F 1_555 1_555
H3F C5F 1_555 1_555
C6F C3F 1_555 1_555
H4F C6F 1_555 1_555
H5F C6F 1_555 1_555
O1F C6F 1_555 1_555
H6F O1F 1_555 1_555
N2F N3F 1_555 1_555
N3F Co1F 1_555 1_555
C7F C1F 1_555 1_555
C8F C7F 1_555 1_555
H7F C8F 1_555 1_555
C9F N2F 1_555 1_555
H8F C9F 1_555 1_555
C10F N2F 1_555 1_555
H9F C10F 1_555 1_555
H10F C10F 1_555 1_555
N4F C11F 1_555 1_555
C11F C12F 1_555 1_555
C12F H11F 1_555 1_555
C13F C12F 1_555 1_555
C14F C13F 1_555 1_555
H12F C14F 1_555 1_555
C15F N4F 1_555 1_555
H13F C15F 1_555 1_555
C16F C13F 1_555 1_555
H14F C16F 1_555 1_555
H15F C16F 1_555 1_555
O2F C16F 1_555 1_555
H16F O2F 1_555 1_555
N5F N6F 1_555 1_555
N6F Co2F 1_555 1_555
C17F C11F 1_555 1_555
C18F C17F 1_555 1_555
H17F C18F 1_555 1_555
C19F N5F 1_555 1_555
H18F C19F 1_555 1_555
C20F N5F 1_555 1_555
H19F C20F 1_555 1_555
H20F C20F 1_555 1_555
C21F C10F 1_555 1_555
C22F C21F 1_555 1_555
H21F C22F 1_555 1_555
C23F C22F 1_555 1_555
H22F C23F 1_555 1_555
C24F C23F 1_555 1_555
H23F C24F 1_555 1_555
C25F C24F 1_555 1_555
C26F C21F 1_555 1_555
C27F C26F 1_555 1_555
H24F C27F 1_555 1_555
C28F C27F 1_555 1_555
H25F C28F 1_555 1_555
C29F C28F 1_555 1_555
H26F C29F 1_555 1_555
C30F C20F 1_555 1_555
N7F Co1F 1_555 1_555
C31F N7F 1_555 1_555
C32F C31F 1_555 1_555
H27F C32F 1_555 1_555
C33F C32F 1_555 1_555
C34F C33F 1_555 1_555
H28F C34F 1_555 1_555
C35F N7F 1_555 1_555
H29F C35F 1_555 1_555
C36F C33F 1_555 1_555
H30F C36F 1_555 1_555
H31F C36F 1_555 1_555
O3F C36F 1_555 1_555
H32F O3F 1_555 1_555
N8F N9F 1_555 1_555
N9F Co1F 1_555 1_555
C37F C31F 1_555 1_555
C38F C37F 1_555 1_555
H33F C38F 1_555 1_555
C39F N8F 1_555 1_555
H34F C39F 1_555 1_555
C40F N8F 1_555 1_555
H35F C40F 1_555 1_555
H36F C40F 1_555 1_555
N10F Co3F 1_555 1_555
C41F N10F 1_555 1_555
C42F C41F 1_555 1_555
H37F C42F 1_555 1_555
C43F C42F 1_555 1_555
C44F C43F 1_555 1_555
H38F C44F 1_555 1_555
C45F N10F 1_555 1_555
H39F C45F 1_555 1_555
C46F C43F 1_555 1_555
H40F C46F 1_555 1_555
H41F C46F 1_555 1_555
O4F C46F 1_555 1_555
H42F O4F 1_555 1_555
N11F N12F 1_555 1_555
N12F Co3F 1_555 1_555
C47F C41F 1_555 1_555
C48F C47F 1_555 1_555
H43F C48F 1_555 1_555
C49F N11F 1_555 1_555
H44F C49F 1_555 1_555
C50F N11F 1_555 1_555
H45F C50F 1_555 1_555
H46F C50F 1_555 1_555
C51F C40F 1_555 1_555
C52F C51F 1_555 1_555
H47F C52F 1_555 1_555
C53F C52F 1_555 1_555
H48F C53F 1_555 1_555
C54F C53F 1_555 1_555
H49F C54F 1_555 1_555
C55F C54F 1_555 1_555
C56F C51F 1_555 1_555
C57F C56F 1_555 1_555
H50F C57F 1_555 1_555
C58F C57F 1_555 1_555
H51F C58F 1_555 1_555
C59F C58F 1_555 1_555
H52F C59F 1_555 1_555
C60F C50F 1_555 1_555
N13F Co1F 1_555 1_555
C61F N13F 1_555 1_555
C62F C61F 1_555 1_555
H53F C62F 1_555 1_555
C63F C62F 1_555 1_555
C64F C63F 1_555 1_555
H54F C64F 1_555 1_555
C65F N13F 1_555 1_555
H55F C65F 1_555 1_555
C66F C63F 1_555 1_555
H56F C66F 1_555 1_555
H57F C66F 1_555 1_555
O5F C66F 1_555 1_555
H58F O5F 1_555 1_555
N14F N15F 1_555 1_555
N15F Co1F 1_555 1_555
C67F C61F 1_555 1_555
C68F C67F 1_555 1_555
H59F C68F 1_555 1_555
C69F N14F 1_555 1_555
H60F C69F 1_555 1_555
C70F N14F 1_555 1_555
H61F C70F 1_555 1_555
H62F C70F 1_555 1_555
N16F Co4F 1_555 1_555
C71F N16F 1_555 1_555
C72F C71F 1_555 1_555
H63F C72F 1_555 1_555
C73F C72F 1_555 1_555
C74F C73F 1_555 1_555
H64F C74F 1_555 1_555
C75F N16F 1_555 1_555
H65F C75F 1_555 1_555
C76F C73F 1_555 1_555
H66F C76F 1_555 1_555
H67F C76F 1_555 1_555
O6F C76F 1_555 1_555
H68F O6F 1_555 1_555
N17F N18F 1_555 1_555
N18F Co4F 1_555 1_555
C77F C71F 1_555 1_555
C78F C77F 1_555 1_555
H69F C78F 1_555 1_555
C79F N17F 1_555 1_555
H70F C79F 1_555 1_555
C80F N17F 1_555 1_555
H71F C80F 1_555 1_555
H72F C80F 1_555 1_555
C81F C70F 1_555 1_555
C82F C81F 1_555 1_555
H73F C82F 1_555 1_555
C83F C82F 1_555 1_555
H74F C83F 1_555 1_555
C84F C83F 1_555 1_555
H75F C84F 1_555 1_555
C85F C84F 1_555 1_555
C86F C81F 1_555 1_555
C87F C86F 1_555 1_555
H76F C87F 1_555 1_555
C88F C87F 1_555 1_555
H77F C88F 1_555 1_555
C89F C88F 1_555 1_555
H78F C89F 1_555 1_555
C90F C80F 1_555 1_555
N19F Co2F 1_555 1_555
C91F N19F 1_555 1_555
C92F C91F 1_555 1_555
H79F C92F 1_555 1_555
C93F C92F 1_555 1_555
C94F C93F 1_555 1_555
H80F C94F 1_555 1_555
C95F N19F 1_555 1_555
H81F C95F 1_555 1_555
C96F C93F 1_555 1_555
H82F C96F 1_555 1_555
H83F C96F 1_555 1_555
O7F C96F 1_555 1_555
H84F O7F 1_555 1_555
N20F N21F 1_555 1_555
N21F Co2F 1_555 1_555
C97F C91F 1_555 1_555
C98F C97F 1_555 1_555
H85F C98F 1_555 1_555
C99F N20F 1_555 1_555
H86F C99F 1_555 1_555
C100F N20F 1_555 1_555
H87F C100F 1_555 1_555
H88F C100F 1_555 1_555
N22F Co4 1_555 1_555
C101F N22F 1_555 1_555
C102F C101F 1_555 1_555
H89F C102F 1_555 1_555
C103F C102F 1_555 1_555
C104F C103F 1_555 1_555
H90F C104F 1_555 1_555
C105F N22F 1_555 1_555
H91F C105F 1_555 1_555
C106F C103F 1_555 1_555
H92F C106F 1_555 1_555
H93F C106F 1_555 1_555
O8F C106F 1_555 1_555
H94F O8F 1_555 1_555
N23F N24F 1_555 1_555
N24F Co4 1_555 1_555
C107F C101F 1_555 1_555
C108F C107F 1_555 1_555
H95F C108F 1_555 1_555
C109F N23F 1_555 1_555
H96F C109F 1_555 1_555
C110F N23F 1_555 1_555
H97F C110F 1_555 1_555
H98F C110F 1_555 1_555
C111F C100F 1_555 1_555
C112F C111F 1_555 1_555
H99F C112F 1_555 1_555
C113F C112F 1_555 1_555
H100F C113F 1_555 1_555
C114F C113F 1_555 1_555
H101F C114F 1_555 1_555
C115F C114F 1_555 1_555
C116F C111F 1_555 1_555
C117F C116F 1_555 1_555
H102F C117F 1_555 1_555
C118F C117F 1_555 1_555
H103F C118F 1_555 1_555
C119F C118F 1_555 1_555
H104F C119F 1_555 1_555
C120F C110F 1_555 1_555
N25F Co2F 1_555 1_555
C121F N25F 1_555 1_555
C122F C121F 1_555 1_555
H105F C122F 1_555 1_555
C123F C122F 1_555 1_555
C124F C123F 1_555 1_555
H106F C124F 1_555 1_555
C125F N25F 1_555 1_555
H107F C125F 1_555 1_555
C126F C123F 1_555 1_555
H108F C126F 1_555 1_555
H109F C126F 1_555 1_555
O9F C126F 1_555 1_555
H110F O9F 1_555 1_555
N26F N27F 1_555 1_555
N27F Co2F 1_555 1_555
C127F C121F 1_555 1_555
C128F C127F 1_555 1_555
H111F C128F 1_555 1_555
C129F N26F 1_555 1_555
H112F C129F 1_555 1_555
C130F N26F 1_555 1_555
H113F C130F 1_555 1_555
H114F C130F 1_555 1_555
N28F Co3 1_555 1_555
C131F N28F 1_555 1_555
C132F C131F 1_555 1_555
H115F C132F 1_555 1_555
C133F C132F 1_555 1_555
C134F C133F 1_555 1_555
H116F C134F 1_555 1_555
C135F N28F 1_555 1_555
H117F C135F 1_555 1_555
C136F C133F 1_555 1_555
H118F C136F 1_555 1_555
H119F C136F 1_555 1_555
O10F C136F 1_555 1_555
H120F O10F 1_555 1_555
N29F N30F 1_555 1_555
N30F Co3 1_555 1_555
C137F C131F 1_555 1_555
C138F C137F 1_555 1_555
H121F C138F 1_555 1_555
C139F N29F 1_555 1_555
H122F C139F 1_555 1_555
C140F N29F 1_555 1_555
H123F C140F 1_555 1_555
H124F C140F 1_555 1_555
C141F C130F 1_555 1_555
C142F C141F 1_555 1_555
H125F C142F 1_555 1_555
C143F C142F 1_555 1_555
H126F C143F 1_555 1_555
C144F C143F 1_555 1_555
H127F C144F 1_555 1_555
C145F C144F 1_555 1_555
C146F C141F 1_555 1_555
C147F C146F 1_555 1_555
H128F C147F 1_555 1_555
C148F C147F 1_555 1_555
H129F C148F 1_555 1_555
C149F C148F 1_555 1_555
H130F C149F 1_555 1_555
C150F C140F 1_555 1_555
N31F Co3F 1_555 1_555
C151F N31F 1_555 1_555
C152F C151F 1_555 1_555
H131F C152F 1_555 1_555
C153F C152F 1_555 1_555
C154F C153F 1_555 1_555
H132F C154F 1_555 1_555
C155F N31F 1_555 1_555
H133F C155F 1_555 1_555
C156F C153F 1_555 1_555
H134F C156F 1_555 1_555
H135F C156F 1_555 1_555
O11F C156F 1_555 1_555
H136F O11F 1_555 1_555
N32F N33F 1_555 1_555
N33F Co3F 1_555 1_555
C157F C151F 1_555 1_555
C158F C157F 1_555 1_555
H137F C158F 1_555 1_555
C159F N32F 1_555 1_555
H138F C159F 1_555 1_555
C160F N32F 1_555 1_555
H139F C160F 1_555 1_555
H140F C160F 1_555 1_555
N34F Co4 1_555 1_555
C161F N34F 1_555 1_555
C162F C161F 1_555 1_555
H141F C162F 1_555 1_555
C163F C162F 1_555 1_555
C164F C163F 1_555 1_555
H142F C164F 1_555 1_555
C165F N34F 1_555 1_555
H143F C165F 1_555 1_555
C166F C163F 1_555 1_555
H144F C166F 1_555 1_555
H145F C166F 1_555 1_555
O12F C166F 1_555 1_555
H146F O12F 1_555 1_555
N35F N36F 1_555 1_555
N36F Co4 1_555 1_555
C167F C161F 1_555 1_555
C168F C167F 1_555 1_555
H147F C168F 1_555 1_555
C169F N35F 1_555 1_555
H148F C169F 1_555 1_555
C170F N35F 1_555 1_555
H149F C170F 1_555 1_555
H150F C170F 1_555 1_555
C171F C160F 1_555 1_555
C172F C171F 1_555 1_555
H151F C172F 1_555 1_555
C173F C172F 1_555 1_555
H152F C173F 1_555 1_555
C174F C173F 1_555 1_555
H153F C174F 1_555 1_555
C175F C174F 1_555 1_555
C176F C171F 1_555 1_555
C177F C176F 1_555 1_555
H154F C177F 1_555 1_555
C178F C177F 1_555 1_555
H155F C178F 1_555 1_555
C179F C178F 1_555 1_555
H156F C179F 1_555 1_555
C180F C170F 1_555 1_555
C4 C5 1_555 1_555
N3 C7 1_555 1_555
C8 C9 1_555 1_555
C14 C15 1_555 1_555
N6 C17 1_555 1_555
C18 C19 1_555 1_555
C25 C26 1_555 1_555
C25 C30 1_555 1_555
C29 C30 1_555 1_555
C34 C35 1_555 1_555
N9 C37 1_555 1_555
C38 C39 1_555 1_555
C44 C45 1_555 1_555
N12 C47 1_555 1_555
C48 C49 1_555 1_555
C55 C56 1_555 1_555
C55 C60 1_555 1_555
C59 C60 1_555 1_555
C64 C65 1_555 1_555
N15 C67 1_555 1_555
C68 C69 1_555 1_555
C74 C75 1_555 1_555
N18 C77 1_555 1_555
C78 C79 1_555 1_555
C85 C86 1_555 1_555
C85 C90 1_555 1_555
C89 C90 1_555 1_555
C94 C95 1_555 1_555
N21 C97 1_555 1_555
C98 C99 1_555 1_555
C104 C105 1_555 1_555
N24 Co4F 1_555 1_555
C108 C109 1_555 1_555
C115 C116 1_555 1_555
C115 C120 1_555 1_555
C119 C120 1_555 1_555
C124 C125 1_555 1_555
N27 C127 1_555 1_555
C128 C129 1_555 1_555
C134 C135 1_555 1_555
N30 Co3F 1_555 1_555
C138 C139 1_555 1_555
C145 C146 1_555 1_555
C145 C150 1_555 1_555
C149 C150 1_555 1_555
C154 C155 1_555 1_555
N33 C157 1_555 1_555
C158 C159 1_555 1_555
N34 Co4F 1_555 1_555
C164 C165 1_555 1_555
N36 Co4F 1_555 1_555
C168 C169 1_555 1_555
C175 C176 1_555 1_555
C175 C180 1_555 1_555
C179 C180 1_555 1_555
C4F C5F 1_555 1_555
N3F C7F 1_555 1_555
C8F C9F 1_555 1_555
C14F C15F 1_555 1_555
N6F C17F 1_555 1_555
C18F C19F 1_555 1_555
C25F C26F 1_555 1_555
C25F C30F 1_555 1_555
C29F C30F 1_555 1_555
C34F C35F 1_555 1_555
N9F C37F 1_555 1_555
C38F C39F 1_555 1_555
C44F C45F 1_555 1_555
N12F C47F 1_555 1_555
C48F C49F 1_555 1_555
C55F C56F 1_555 1_555
C55F C60F 1_555 1_555
C59F C60F 1_555 1_555
C64F C65F 1_555 1_555
N15F C67F 1_555 1_555
C68F C69F 1_555 1_555
C74F C75F 1_555 1_555
N18F C77F 1_555 1_555
C78F C79F 1_555 1_555
C85F C86F 1_555 1_555
C85F C90F 1_555 1_555
C89F C90F 1_555 1_555
C94F C95F 1_555 1_555
N21F C97F 1_555 1_555
C98F C99F 1_555 1_555
C104F C105F 1_555 1_555
N24F C107F 1_555 1_555
C108F C109F 1_555 1_555
C115F C116F 1_555 1_555
C115F C120F 1_555 1_555
C119F C120F 1_555 1_555
C124F C125F 1_555 1_555
N27F C127F 1_555 1_555
C128F C129F 1_555 1_555
C134F C135F 1_555 1_555
N30F C137F 1_555 1_555
C138F C139F 1_555 1_555
C145F C146F 1_555 1_555
C145F C150F 1_555 1_555
C149F C150F 1_555 1_555
C154F C155F 1_555 1_555
N33F C157F 1_555 1_555
C158F C159F 1_555 1_555
C164F C165F 1_555 1_555
N36F C167F 1_555 1_555
C168F C169F 1_555 1_555
C175F C176F 1_555 1_555
C175F C180F 1_555 1_555
C179F C180F 1_555 1_555

#END
