# generated using pymatgen
data_Co4B7H198C186N36(O15F16)2
_symmetry_space_group_name_H-M   'P 1'
_cell_length_a   27.65800000
_cell_length_b   39.48500000
_cell_length_c   42.58100000
_cell_angle_alpha   90.00000000
_cell_angle_beta   106.74100000
_cell_angle_gamma   90.00000000
_symmetry_Int_Tables_number   1
_chemical_formula_structural   Co4B7H198C186N36(O15F16)2
_chemical_formula_sum   'Co32 B56 H1584 C1488 N288 O240 F256'
_cell_volume   44530.79467926
_cell_formula_units_Z   8
loop_
 _symmetry_equiv_pos_site_id
 _symmetry_equiv_pos_as_xyz
  1  'x, y, z'
loop_
 _atom_site_type_symbol
 _atom_site_label
 _atom_site_symmetry_multiplicity
 _atom_site_fract_x
 _atom_site_fract_y
 _atom_site_fract_z
 _atom_site_occupancy
  Co  Co1  1  0.905220  0.040380  0.126720  1.0
  Co  Co2  1  0.094780  0.040380  0.373280  1.0
  Co  Co3  1  0.405220  0.540380  0.126720  1.0
  Co  Co4  1  0.594780  0.540380  0.373280  1.0
  Co  Co5  1  0.094780  0.959620  0.873280  1.0
  Co  Co6  1  0.905220  0.959620  0.626720  1.0
  Co  Co7  1  0.594780  0.459620  0.873280  1.0
  Co  Co8  1  0.405220  0.459620  0.626720  1.0
  Co  Co9  1  0.625150  0.034950  0.873150  1.0
  Co  Co10  1  0.374850  0.034950  0.626850  1.0
  Co  Co11  1  0.125150  0.534950  0.873150  1.0
  Co  Co12  1  0.874850  0.534950  0.626850  1.0
  Co  Co13  1  0.374850  0.965050  0.126850  1.0
  Co  Co14  1  0.625150  0.965050  0.373150  1.0
  Co  Co15  1  0.874850  0.465050  0.126850  1.0
  Co  Co16  1  0.125150  0.465050  0.373150  1.0
  Co  Co17  1  0.091930  0.259380  0.042620  1.0
  Co  Co18  1  0.908070  0.259380  0.457380  1.0
  Co  Co19  1  0.591930  0.759380  0.042620  1.0
  Co  Co20  1  0.408070  0.759380  0.457380  1.0
  Co  Co21  1  0.908070  0.740620  0.957380  1.0
  Co  Co22  1  0.091930  0.740620  0.542620  1.0
  Co  Co23  1  0.408070  0.240620  0.957380  1.0
  Co  Co24  1  0.591930  0.240620  0.542620  1.0
  Co  Co25  1  0.678650  0.243910  0.214440  1.0
  Co  Co26  1  0.321350  0.243910  0.285560  1.0
  Co  Co27  1  0.178650  0.743910  0.214440  1.0
  Co  Co28  1  0.821350  0.743910  0.285560  1.0
  Co  Co29  1  0.321350  0.756090  0.785560  1.0
  Co  Co30  1  0.678650  0.756090  0.714440  1.0
  Co  Co31  1  0.821350  0.256090  0.785560  1.0
  Co  Co32  1  0.178650  0.256090  0.714440  1.0
  B  B33  1  0.910000  0.244100  0.149800  1
  B  B34  1  0.090000  0.244100  0.350200  1
  B  B35  1  0.410000  0.744100  0.149800  1
  B  B36  1  0.590000  0.744100  0.350200  1
  B  B37  1  0.090000  0.755900  0.850200  1
  B  B38  1  0.910000  0.755900  0.649800  1
  B  B39  1  0.590000  0.255900  0.850200  1
  B  B40  1  0.410000  0.255900  0.649800  1
  B  B41  1  0.639300  0.124900  0.044500  1
  B  B42  1  0.360700  0.124900  0.455500  1
  B  B43  1  0.139300  0.624900  0.044500  1
  B  B44  1  0.860700  0.624900  0.455500  1
  B  B45  1  0.360700  0.875100  0.955500  1
  B  B46  1  0.639300  0.875100  0.544500  1
  B  B47  1  0.860700  0.375100  0.955500  1
  B  B48  1  0.139300  0.375100  0.544500  1
  B  B49  1  0.626800  0.358700  0.052500  1
  B  B50  1  0.373200  0.358700  0.447500  1
  B  B51  1  0.126800  0.858700  0.052500  1
  B  B52  1  0.873200  0.858700  0.447500  1
  B  B53  1  0.373200  0.641300  0.947500  1
  B  B54  1  0.626800  0.641300  0.552500  1
  B  B55  1  0.873200  0.141300  0.947500  1
  B  B56  1  0.126800  0.141300  0.552500  1
  B  B57  1  0.440300  0.158700  0.136700  1
  B  B58  1  0.559700  0.158700  0.363300  1
  B  B59  1  0.940300  0.658700  0.136700  1
  B  B60  1  0.059700  0.658700  0.363300  1
  B  B61  1  0.559700  0.841300  0.863300  1
  B  B62  1  0.440300  0.841300  0.636700  1
  B  B63  1  0.059700  0.341300  0.863300  1
  B  B64  1  0.940300  0.341300  0.636700  1
  B  B65  1  0.120400  0.375100  0.202800  1
  B  B66  1  0.879600  0.375100  0.297200  1
  B  B67  1  0.620400  0.875100  0.202800  1
  B  B68  1  0.379600  0.875100  0.297200  1
  B  B69  1  0.879600  0.624900  0.797200  1
  B  B70  1  0.120400  0.624900  0.702800  1
  B  B71  1  0.379600  0.124900  0.797200  1
  B  B72  1  0.620400  0.124900  0.702800  1
  B  B73  1  0.698600  0.044500  0.222700  1
  B  B74  1  0.301400  0.044500  0.277300  1
  B  B75  1  0.198600  0.544500  0.222700  1
  B  B76  1  0.801400  0.544500  0.277300  1
  B  B77  1  0.301400  0.955500  0.777300  1
  B  B78  1  0.698600  0.955500  0.722700  1
  B  B79  1  0.801400  0.455500  0.777300  1
  B  B80  1  0.198600  0.455500  0.722700  1
  B  B81  1  0.121700  0.057700  0.043000  1
  B  B82  1  0.878300  0.057700  0.457000  1
  B  B83  1  0.621700  0.557700  0.043000  1
  B  B84  1  0.378300  0.557700  0.457000  1
  B  B85  1  0.878300  0.942300  0.957000  1
  B  B86  1  0.121700  0.942300  0.543000  1
  B  B87  1  0.378300  0.442300  0.957000  1
  B  B88  1  0.621700  0.442300  0.543000  1
  H  H89  1  0.081900  0.075300  0.176300  1
  H  H90  1  0.918100  0.075300  0.323700  1
  H  H91  1  0.581900  0.575300  0.176300  1
  H  H92  1  0.418100  0.575300  0.323700  1
  H  H93  1  0.918100  0.924700  0.823700  1
  H  H94  1  0.081900  0.924700  0.676300  1
  H  H95  1  0.418100  0.424700  0.823700  1
  H  H96  1  0.581900  0.424700  0.676300  1
  H  H97  1  0.089000  0.045100  0.153000  1
  H  H98  1  0.911000  0.045100  0.347000  1
  H  H99  1  0.589000  0.545100  0.153000  1
  H  H100  1  0.411000  0.545100  0.347000  1
  H  H101  1  0.911000  0.954900  0.847000  1
  H  H102  1  0.089000  0.954900  0.653000  1
  H  H103  1  0.411000  0.454900  0.847000  1
  H  H104  1  0.589000  0.454900  0.653000  1
  H  H105  1  0.136800  0.066700  0.173200  1
  H  H106  1  0.863200  0.066700  0.326800  1
  H  H107  1  0.636800  0.566700  0.173200  1
  H  H108  1  0.363200  0.566700  0.326800  1
  H  H109  1  0.863200  0.933300  0.826800  1
  H  H110  1  0.136800  0.933300  0.673200  1
  H  H111  1  0.363200  0.433300  0.826800  1
  H  H112  1  0.636800  0.433300  0.673200  1
  H  H113  1  0.084600  0.027500  0.204000  1
  H  H114  1  0.915400  0.027500  0.296000  1
  H  H115  1  0.584600  0.527500  0.204000  1
  H  H116  1  0.415400  0.527500  0.296000  1
  H  H117  1  0.915400  0.972500  0.796000  1
  H  H118  1  0.084600  0.972500  0.704000  1
  H  H119  1  0.415400  0.472500  0.796000  1
  H  H120  1  0.584600  0.472500  0.704000  1
  H  H121  1  0.086500  0.277000  0.210300  1
  H  H122  1  0.913500  0.277000  0.289700  1
  H  H123  1  0.586500  0.777000  0.210300  1
  H  H124  1  0.413500  0.777000  0.289700  1
  H  H125  1  0.913500  0.723000  0.789700  1
  H  H126  1  0.086500  0.723000  0.710300  1
  H  H127  1  0.413500  0.223000  0.789700  1
  H  H128  1  0.586500  0.223000  0.710300  1
  H  H129  1  0.081500  0.243600  0.188300  1
  H  H130  1  0.918500  0.243600  0.311700  1
  H  H131  1  0.581500  0.743600  0.188300  1
  H  H132  1  0.418500  0.743600  0.311700  1
  H  H133  1  0.918500  0.756400  0.811700  1
  H  H134  1  0.081500  0.756400  0.688300  1
  H  H135  1  0.418500  0.256400  0.811700  1
  H  H136  1  0.581500  0.256400  0.688300  1
  H  H137  1  0.134800  0.262300  0.201400  1
  H  H138  1  0.865200  0.262300  0.298600  1
  H  H139  1  0.634800  0.762300  0.201400  1
  H  H140  1  0.365200  0.762300  0.298600  1
  H  H141  1  0.865200  0.737700  0.798600  1
  H  H142  1  0.134800  0.737700  0.701400  1
  H  H143  1  0.365200  0.237700  0.798600  1
  H  H144  1  0.634800  0.237700  0.701400  1
  H  H145  1  0.092600  0.236900  0.245200  1
  H  H146  1  0.907400  0.236900  0.254800  1
  H  H147  1  0.592600  0.736900  0.245200  1
  H  H148  1  0.407400  0.736900  0.254800  1
  H  H149  1  0.907400  0.763100  0.754800  1
  H  H150  1  0.092600  0.763100  0.745200  1
  H  H151  1  0.407400  0.263100  0.754800  1
  H  H152  1  0.592600  0.263100  0.745200  1
  H  H153  1  0.256600  0.125300  0.037500  1
  H  H154  1  0.743400  0.125300  0.462500  1
  H  H155  1  0.756600  0.625300  0.037500  1
  H  H156  1  0.243400  0.625300  0.462500  1
  H  H157  1  0.743400  0.874700  0.962500  1
  H  H158  1  0.256600  0.874700  0.537500  1
  H  H159  1  0.243400  0.374700  0.962500  1
  H  H160  1  0.756600  0.374700  0.537500  1
  H  H161  1  0.204500  0.144800  0.021600  1
  H  H162  1  0.795500  0.144800  0.478400  1
  H  H163  1  0.704500  0.644800  0.021600  1
  H  H164  1  0.295500  0.644800  0.478400  1
  H  H165  1  0.795500  0.855200  0.978400  1
  H  H166  1  0.204500  0.855200  0.521600  1
  H  H167  1  0.295500  0.355200  0.978400  1
  H  H168  1  0.704500  0.355200  0.521600  1
  H  H169  1  0.222000  0.136600  0.060100  1
  H  H170  1  0.778000  0.136600  0.439900  1
  H  H171  1  0.722000  0.636600  0.060100  1
  H  H172  1  0.278000  0.636600  0.439900  1
  H  H173  1  0.778000  0.863400  0.939900  1
  H  H174  1  0.222000  0.863400  0.560100  1
  H  H175  1  0.278000  0.363400  0.939900  1
  H  H176  1  0.722000  0.363400  0.560100  1
  H  H177  1  0.266000  0.180300  0.030300  1
  H  H178  1  0.734000  0.180300  0.469700  1
  H  H179  1  0.766000  0.680300  0.030300  1
  H  H180  1  0.234000  0.680300  0.469700  1
  H  H181  1  0.734000  0.819700  0.969700  1
  H  H182  1  0.266000  0.819700  0.530300  1
  H  H183  1  0.234000  0.319700  0.969700  1
  H  H184  1  0.766000  0.319700  0.530300  1
  H  H185  1  0.350900  0.121900  0.042500  1
  H  H186  1  0.649100  0.121900  0.457500  1
  H  H187  1  0.850900  0.621900  0.042500  1
  H  H188  1  0.149100  0.621900  0.457500  1
  H  H189  1  0.649100  0.878100  0.957500  1
  H  H190  1  0.350900  0.878100  0.542500  1
  H  H191  1  0.149100  0.378100  0.957500  1
  H  H192  1  0.850900  0.378100  0.542500  1
  H  H193  1  0.324400  0.143400  0.010200  1
  H  H194  1  0.675600  0.143400  0.489800  1
  H  H195  1  0.824400  0.643400  0.010200  1
  H  H196  1  0.175600  0.643400  0.489800  1
  H  H197  1  0.675600  0.856600  0.989800  1
  H  H198  1  0.324400  0.856600  0.510200  1
  H  H199  1  0.175600  0.356600  0.989800  1
  H  H200  1  0.824400  0.356600  0.510200  1
  H  H201  1  0.384600  0.140600  0.022900  1
  H  H202  1  0.615400  0.140600  0.477100  1
  H  H203  1  0.884600  0.640600  0.022900  1
  H  H204  1  0.115400  0.640600  0.477100  1
  H  H205  1  0.615400  0.859400  0.977100  1
  H  H206  1  0.384600  0.859400  0.522900  1
  H  H207  1  0.115400  0.359400  0.977100  1
  H  H208  1  0.884600  0.359400  0.522900  1
  H  H209  1  0.379500  0.095700  0.998300  1
  H  H210  1  0.620500  0.095700  0.501700  1
  H  H211  1  0.879500  0.595700  0.998300  1
  H  H212  1  0.120500  0.595700  0.501700  1
  H  H213  1  0.620500  0.904300  0.001700  1
  H  H214  1  0.379500  0.904300  0.498300  1
  H  H215  1  0.120500  0.404300  0.001700  1
  H  H216  1  0.879500  0.404300  0.498300  1
  H  H217  1  0.330000  0.116900  0.176800  1
  H  H218  1  0.670000  0.116900  0.323200  1
  H  H219  1  0.830000  0.616900  0.176800  1
  H  H220  1  0.170000  0.616900  0.323200  1
  H  H221  1  0.670000  0.883100  0.823200  1
  H  H222  1  0.330000  0.883100  0.676800  1
  H  H223  1  0.170000  0.383100  0.823200  1
  H  H224  1  0.830000  0.383100  0.676800  1
  H  H225  1  0.307200  0.103500  0.205000  1
  H  H226  1  0.692800  0.103500  0.295000  1
  H  H227  1  0.807200  0.603500  0.205000  1
  H  H228  1  0.192800  0.603500  0.295000  1
  H  H229  1  0.692800  0.896500  0.795000  1
  H  H230  1  0.307200  0.896500  0.705000  1
  H  H231  1  0.192800  0.396500  0.795000  1
  H  H232  1  0.807200  0.396500  0.705000  1
  H  H233  1  0.355400  0.085200  0.198900  1
  H  H234  1  0.644600  0.085200  0.301100  1
  H  H235  1  0.855400  0.585200  0.198900  1
  H  H236  1  0.144600  0.585200  0.301100  1
  H  H237  1  0.644600  0.914800  0.801100  1
  H  H238  1  0.355400  0.914800  0.698900  1
  H  H239  1  0.144600  0.414800  0.801100  1
  H  H240  1  0.855400  0.414800  0.698900  1
  H  H241  1  0.399800  0.128800  0.219000  1
  H  H242  1  0.600200  0.128800  0.281000  1
  H  H243  1  0.899800  0.628800  0.219000  1
  H  H244  1  0.100200  0.628800  0.281000  1
  H  H245  1  0.600200  0.871200  0.781000  1
  H  H246  1  0.399800  0.871200  0.719000  1
  H  H247  1  0.100200  0.371200  0.781000  1
  H  H248  1  0.899800  0.371200  0.719000  1
  H  H249  1  0.480900  0.086000  0.056600  1
  H  H250  1  0.519100  0.086000  0.443400  1
  H  H251  1  0.980900  0.586000  0.056600  1
  H  H252  1  0.019100  0.586000  0.443400  1
  H  H253  1  0.519100  0.914000  0.943400  1
  H  H254  1  0.480900  0.914000  0.556600  1
  H  H255  1  0.019100  0.414000  0.943400  1
  H  H256  1  0.980900  0.414000  0.556600  1
  H  H257  1  0.478300  0.047100  0.066200  1
  H  H258  1  0.521700  0.047100  0.433800  1
  H  H259  1  0.978300  0.547100  0.066200  1
  H  H260  1  0.021700  0.547100  0.433800  1
  H  H261  1  0.521700  0.952900  0.933800  1
  H  H262  1  0.478300  0.952900  0.566200  1
  H  H263  1  0.021700  0.452900  0.933800  1
  H  H264  1  0.978300  0.452900  0.566200  1
  H  H265  1  0.438300  0.073500  0.072600  1
  H  H266  1  0.561700  0.073500  0.427400  1
  H  H267  1  0.938300  0.573500  0.072600  1
  H  H268  1  0.061700  0.573500  0.427400  1
  H  H269  1  0.561700  0.926500  0.927400  1
  H  H270  1  0.438300  0.926500  0.572600  1
  H  H271  1  0.061700  0.426500  0.927400  1
  H  H272  1  0.938300  0.426500  0.572600  1
  H  H273  1  0.431500  0.073600  0.011700  1
  H  H274  1  0.568500  0.073600  0.488300  1
  H  H275  1  0.931500  0.573600  0.011700  1
  H  H276  1  0.068500  0.573600  0.488300  1
  H  H277  1  0.568500  0.926400  0.988300  1
  H  H278  1  0.431500  0.926400  0.511700  1
  H  H279  1  0.068500  0.426400  0.988300  1
  H  H280  1  0.931500  0.426400  0.511700  1
  H  H281  1  0.061900  0.169300  0.204500  1
  H  H282  1  0.938100  0.169300  0.295500  1
  H  H283  1  0.561900  0.669300  0.204500  1
  H  H284  1  0.438100  0.669300  0.295500  1
  H  H285  1  0.938100  0.830700  0.795500  1
  H  H286  1  0.061900  0.830700  0.704500  1
  H  H287  1  0.438100  0.330700  0.795500  1
  H  H288  1  0.561900  0.330700  0.704500  1
  H  H289  1  0.013700  0.191600  0.186000  1
  H  H290  1  0.986300  0.191600  0.314000  1
  H  H291  1  0.513700  0.691600  0.186000  1
  H  H292  1  0.486300  0.691600  0.314000  1
  H  H293  1  0.986300  0.808400  0.814000  1
  H  H294  1  0.013700  0.808400  0.686000  1
  H  H295  1  0.486300  0.308400  0.814000  1
  H  H296  1  0.513700  0.308400  0.686000  1
  H  H297  1  0.027700  0.193400  0.239400  1
  H  H298  1  0.972300  0.193400  0.260600  1
  H  H299  1  0.527700  0.693400  0.239400  1
  H  H300  1  0.472300  0.693400  0.260600  1
  H  H301  1  0.972300  0.806600  0.760600  1
  H  H302  1  0.027700  0.806600  0.739400  1
  H  H303  1  0.472300  0.306600  0.760600  1
  H  H304  1  0.527700  0.306600  0.739400  1
  H  H305  1  0.500900  0.891200  0.804300  1
  H  H306  1  0.499100  0.891200  0.695700  1
  H  H307  1  0.000900  0.391200  0.804300  1
  H  H308  1  0.999100  0.391200  0.695700  1
  H  H309  1  0.499100  0.108800  0.195700  1
  H  H310  1  0.500900  0.108800  0.304300  1
  H  H311  1  0.999100  0.608800  0.195700  1
  H  H312  1  0.000900  0.608800  0.304300  1
  H  H313  1  0.455300  0.906500  0.816000  1
  H  H314  1  0.544700  0.906500  0.684000  1
  H  H315  1  0.955300  0.406500  0.816000  1
  H  H316  1  0.044700  0.406500  0.684000  1
  H  H317  1  0.544700  0.093500  0.184000  1
  H  H318  1  0.455300  0.093500  0.316000  1
  H  H319  1  0.044700  0.593500  0.184000  1
  H  H320  1  0.955300  0.593500  0.316000  1
  H  H321  1  0.436200  0.900800  0.763000  1
  H  H322  1  0.563800  0.900800  0.737000  1
  H  H323  1  0.936200  0.400800  0.763000  1
  H  H324  1  0.063800  0.400800  0.737000  1
  H  H325  1  0.563800  0.099200  0.237000  1
  H  H326  1  0.436200  0.099200  0.263000  1
  H  H327  1  0.063800  0.599200  0.237000  1
  H  H328  1  0.936200  0.599200  0.263000  1
  H  H329  1  0.065100  0.926400  0.227200  1
  H  H330  1  0.934900  0.926400  0.272800  1
  H  H331  1  0.565100  0.426400  0.227200  1
  H  H332  1  0.434900  0.426400  0.272800  1
  H  H333  1  0.934900  0.073600  0.772800  1
  H  H334  1  0.065100  0.073600  0.727200  1
  H  H335  1  0.434900  0.573600  0.772800  1
  H  H336  1  0.565100  0.573600  0.727200  1
  H  H337  1  0.020700  0.901900  0.207700  1
  H  H338  1  0.979300  0.901900  0.292300  1
  H  H339  1  0.520700  0.401900  0.207700  1
  H  H340  1  0.479300  0.401900  0.292300  1
  H  H341  1  0.979300  0.098100  0.792300  1
  H  H342  1  0.020700  0.098100  0.707700  1
  H  H343  1  0.479300  0.598100  0.792300  1
  H  H344  1  0.520700  0.598100  0.707700  1
  H  H345  1  0.101500  0.915700  0.191400  1
  H  H346  1  0.898500  0.915700  0.308600  1
  H  H347  1  0.601500  0.415700  0.191400  1
  H  H348  1  0.398500  0.415700  0.308600  1
  H  H349  1  0.898500  0.084300  0.808600  1
  H  H350  1  0.101500  0.084300  0.691400  1
  H  H351  1  0.398500  0.584300  0.808600  1
  H  H352  1  0.601500  0.584300  0.691400  1
  H  H353  1  0.969800  0.237400  0.681900  1
  H  H354  1  0.030200  0.237400  0.818100  1
  H  H355  1  0.469800  0.737400  0.681900  1
  H  H356  1  0.530200  0.737400  0.818100  1
  H  H357  1  0.030200  0.762600  0.318100  1
  H  H358  1  0.969800  0.762600  0.181900  1
  H  H359  1  0.530200  0.262600  0.318100  1
  H  H360  1  0.469800  0.262600  0.181900  1
  H  H361  1  0.944800  0.271100  0.663500  1
  H  H362  1  0.055200  0.271100  0.836500  1
  H  H363  1  0.444800  0.771100  0.663500  1
  H  H364  1  0.555200  0.771100  0.836500  1
  H  H365  1  0.055200  0.728900  0.336500  1
  H  H366  1  0.944800  0.728900  0.163500  1
  H  H367  1  0.555200  0.228900  0.336500  1
  H  H368  1  0.444800  0.228900  0.163500  1
  H  H369  1  0.881100  0.239000  0.637400  1
  H  H370  1  0.118900  0.239000  0.862600  1
  H  H371  1  0.381100  0.739000  0.637400  1
  H  H372  1  0.618900  0.739000  0.862600  1
  H  H373  1  0.118900  0.761000  0.362600  1
  H  H374  1  0.881100  0.761000  0.137400  1
  H  H375  1  0.618900  0.261000  0.362600  1
  H  H376  1  0.381100  0.261000  0.137400  1
  H  H377  1  0.324700  0.253700  0.094200  1
  H  H378  1  0.675300  0.253700  0.405800  1
  H  H379  1  0.824700  0.753700  0.094200  1
  H  H380  1  0.175300  0.753700  0.405800  1
  H  H381  1  0.675300  0.746300  0.905800  1
  H  H382  1  0.324700  0.746300  0.594200  1
  H  H383  1  0.175300  0.246300  0.905800  1
  H  H384  1  0.824700  0.246300  0.594200  1
  H  H385  1  0.278400  0.233500  0.070400  1
  H  H386  1  0.721600  0.233500  0.429600  1
  H  H387  1  0.778400  0.733500  0.070400  1
  H  H388  1  0.221600  0.733500  0.429600  1
  H  H389  1  0.721600  0.766500  0.929600  1
  H  H390  1  0.278400  0.766500  0.570400  1
  H  H391  1  0.221600  0.266500  0.929600  1
  H  H392  1  0.778400  0.266500  0.570400  1
  H  H393  1  0.286200  0.298900  0.074300  1
  H  H394  1  0.713800  0.298900  0.425700  1
  H  H395  1  0.786200  0.798900  0.074300  1
  H  H396  1  0.213800  0.798900  0.425700  1
  H  H397  1  0.713800  0.701100  0.925700  1
  H  H398  1  0.286200  0.701100  0.574300  1
  H  H399  1  0.213800  0.201100  0.925700  1
  H  H400  1  0.786200  0.201100  0.574300  1
  H  H401  1  0.274800  0.171700  0.160900  1
  H  H402  1  0.725200  0.171700  0.339100  1
  H  H403  1  0.774800  0.671700  0.160900  1
  H  H404  1  0.225200  0.671700  0.339100  1
  H  H405  1  0.725200  0.828300  0.839100  1
  H  H406  1  0.274800  0.828300  0.660900  1
  H  H407  1  0.225200  0.328300  0.839100  1
  H  H408  1  0.774800  0.328300  0.660900  1
  H  H409  1  0.226700  0.149100  0.161100  1
  H  H410  1  0.773300  0.149100  0.338900  1
  H  H411  1  0.726700  0.649100  0.161100  1
  H  H412  1  0.273300  0.649100  0.338900  1
  H  H413  1  0.773300  0.850900  0.838900  1
  H  H414  1  0.226700  0.850900  0.661100  1
  H  H415  1  0.273300  0.350900  0.838900  1
  H  H416  1  0.726700  0.350900  0.661100  1
  H  H417  1  0.239900  0.121800  0.120400  1
  H  H418  1  0.760100  0.121800  0.379600  1
  H  H419  1  0.739900  0.621800  0.120400  1
  H  H420  1  0.260100  0.621800  0.379600  1
  H  H421  1  0.760100  0.878200  0.879600  1
  H  H422  1  0.239900  0.878200  0.620400  1
  H  H423  1  0.260100  0.378200  0.879600  1
  H  H424  1  0.739900  0.378200  0.620400  1
  H  H425  1  0.937600  0.164200  0.152900  1.0
  H  H426  1  0.062400  0.164200  0.347100  1.0
  H  H427  1  0.437600  0.664200  0.152900  1.0
  H  H428  1  0.562400  0.664200  0.347100  1.0
  H  H429  1  0.062400  0.835800  0.847100  1.0
  H  H430  1  0.937600  0.835800  0.652900  1.0
  H  H431  1  0.562400  0.335800  0.847100  1.0
  H  H432  1  0.437600  0.335800  0.652900  1.0
  H  H433  1  0.051400  0.106200  0.208400  1.0
  H  H434  1  0.948600  0.106200  0.291600  1.0
  H  H435  1  0.551400  0.606200  0.208400  1.0
  H  H436  1  0.448600  0.606200  0.291600  1.0
  H  H437  1  0.948600  0.893800  0.791600  1.0
  H  H438  1  0.051400  0.893800  0.708400  1.0
  H  H439  1  0.448600  0.393800  0.791600  1.0
  H  H440  1  0.551400  0.393800  0.708400  1.0
  H  H441  1  0.009300  0.057400  0.183600  1.0
  H  H442  1  0.990700  0.057400  0.316400  1.0
  H  H443  1  0.509300  0.557400  0.183600  1.0
  H  H444  1  0.490700  0.557400  0.316400  1.0
  H  H445  1  0.990700  0.942600  0.816400  1.0
  H  H446  1  0.009300  0.942600  0.683600  1.0
  H  H447  1  0.490700  0.442600  0.816400  1.0
  H  H448  1  0.509300  0.442600  0.683600  1.0
  H  H449  1  0.020100  0.190100  0.183900  1.0
  H  H450  1  0.979900  0.190100  0.316100  1.0
  H  H451  1  0.520100  0.690100  0.183900  1.0
  H  H452  1  0.479900  0.690100  0.316100  1.0
  H  H453  1  0.979900  0.809900  0.816100  1.0
  H  H454  1  0.020100  0.809900  0.683900  1.0
  H  H455  1  0.479900  0.309900  0.816100  1.0
  H  H456  1  0.520100  0.309900  0.683900  1.0
  H  H457  1  0.008700  0.178600  0.217100  1.0
  H  H458  1  0.991300  0.178600  0.282900  1.0
  H  H459  1  0.508700  0.678600  0.217100  1.0
  H  H460  1  0.491300  0.678600  0.282900  1.0
  H  H461  1  0.991300  0.821400  0.782900  1.0
  H  H462  1  0.008700  0.821400  0.717100  1.0
  H  H463  1  0.491300  0.321400  0.782900  1.0
  H  H464  1  0.508700  0.321400  0.717100  1.0
  H  H465  1  0.086700  0.185700  0.223400  1.0
  H  H466  1  0.913300  0.185700  0.276600  1.0
  H  H467  1  0.586700  0.685700  0.223400  1.0
  H  H468  1  0.413300  0.685700  0.276600  1.0
  H  H469  1  0.913300  0.814300  0.776600  1.0
  H  H470  1  0.086700  0.814300  0.723400  1.0
  H  H471  1  0.413300  0.314300  0.776600  1.0
  H  H472  1  0.586700  0.314300  0.723400  1.0
  H  H473  1  0.853400  0.165100  0.113400  1.0
  H  H474  1  0.146600  0.165100  0.386600  1.0
  H  H475  1  0.353400  0.665100  0.113400  1.0
  H  H476  1  0.646600  0.665100  0.386600  1.0
  H  H477  1  0.146600  0.834900  0.886600  1.0
  H  H478  1  0.853400  0.834900  0.613400  1.0
  H  H479  1  0.646600  0.334900  0.886600  1.0
  H  H480  1  0.353400  0.334900  0.613400  1.0
  H  H481  1  0.773200  0.139900  0.075800  1.0
  H  H482  1  0.226800  0.139900  0.424200  1.0
  H  H483  1  0.273200  0.639900  0.075800  1.0
  H  H484  1  0.726800  0.639900  0.424200  1.0
  H  H485  1  0.226800  0.860100  0.924200  1.0
  H  H486  1  0.773200  0.860100  0.575800  1.0
  H  H487  1  0.726800  0.360100  0.924200  1.0
  H  H488  1  0.273200  0.360100  0.575800  1.0
  H  H489  1  0.738600  0.076300  0.064700  1.0
  H  H490  1  0.261400  0.076300  0.435300  1.0
  H  H491  1  0.238600  0.576300  0.064700  1.0
  H  H492  1  0.761400  0.576300  0.435300  1.0
  H  H493  1  0.261400  0.923700  0.935300  1.0
  H  H494  1  0.738600  0.923700  0.564700  1.0
  H  H495  1  0.761400  0.423700  0.935300  1.0
  H  H496  1  0.238600  0.423700  0.564700  1.0
  H  H497  1  0.776000  0.046300  0.081300  1.0
  H  H498  1  0.224000  0.046300  0.418700  1.0
  H  H499  1  0.276000  0.546300  0.081300  1.0
  H  H500  1  0.724000  0.546300  0.418700  1.0
  H  H501  1  0.224000  0.953700  0.918700  1.0
  H  H502  1  0.776000  0.953700  0.581300  1.0
  H  H503  1  0.724000  0.453700  0.918700  1.0
  H  H504  1  0.276000  0.453700  0.581300  1.0
  H  H505  1  0.572300  0.913500  0.843600  1.0
  H  H506  1  0.427700  0.913500  0.656400  1.0
  H  H507  1  0.072300  0.413500  0.843600  1.0
  H  H508  1  0.927700  0.413500  0.656400  1.0
  H  H509  1  0.427700  0.086500  0.156400  1.0
  H  H510  1  0.572300  0.086500  0.343600  1.0
  H  H511  1  0.927700  0.586500  0.156400  1.0
  H  H512  1  0.072300  0.586500  0.343600  1.0
  H  H513  1  0.461800  0.979100  0.797600  1.0
  H  H514  1  0.538200  0.979100  0.702400  1.0
  H  H515  1  0.961800  0.479100  0.797600  1.0
  H  H516  1  0.038200  0.479100  0.702400  1.0
  H  H517  1  0.538200  0.020900  0.202400  1.0
  H  H518  1  0.461800  0.020900  0.297600  1.0
  H  H519  1  0.038200  0.520900  0.202400  1.0
  H  H520  1  0.961800  0.520900  0.297600  1.0
  H  H521  1  0.512900  0.024600  0.822400  1.0
  H  H522  1  0.487100  0.024600  0.677600  1.0
  H  H523  1  0.012900  0.524600  0.822400  1.0
  H  H524  1  0.987100  0.524600  0.677600  1.0
  H  H525  1  0.487100  0.975400  0.177600  1.0
  H  H526  1  0.512900  0.975400  0.322400  1.0
  H  H527  1  0.987100  0.475400  0.177600  1.0
  H  H528  1  0.012900  0.475400  0.322400  1.0
  H  H529  1  0.487300  0.903700  0.783200  1.0
  H  H530  1  0.512700  0.903700  0.716800  1.0
  H  H531  1  0.987300  0.403700  0.783200  1.0
  H  H532  1  0.012700  0.403700  0.716800  1.0
  H  H533  1  0.512700  0.096300  0.216800  1.0
  H  H534  1  0.487300  0.096300  0.283200  1.0
  H  H535  1  0.012700  0.596300  0.216800  1.0
  H  H536  1  0.987300  0.596300  0.283200  1.0
  H  H537  1  0.485800  0.892300  0.819100  1.0
  H  H538  1  0.514200  0.892300  0.680900  1.0
  H  H539  1  0.985800  0.392300  0.819100  1.0
  H  H540  1  0.014200  0.392300  0.680900  1.0
  H  H541  1  0.514200  0.107700  0.180900  1.0
  H  H542  1  0.485800  0.107700  0.319100  1.0
  H  H543  1  0.014200  0.607700  0.180900  1.0
  H  H544  1  0.985800  0.607700  0.319100  1.0
  H  H545  1  0.410500  0.904900  0.787000  1.0
  H  H546  1  0.589500  0.904900  0.713000  1.0
  H  H547  1  0.910500  0.404900  0.787000  1.0
  H  H548  1  0.089500  0.404900  0.713000  1.0
  H  H549  1  0.589500  0.095100  0.213000  1.0
  H  H550  1  0.410500  0.095100  0.287000  1.0
  H  H551  1  0.089500  0.595100  0.213000  1.0
  H  H552  1  0.910500  0.595100  0.287000  1.0
  H  H553  1  0.657300  0.906700  0.883000  1.0
  H  H554  1  0.342700  0.906700  0.617000  1.0
  H  H555  1  0.157300  0.406700  0.883000  1.0
  H  H556  1  0.842700  0.406700  0.617000  1.0
  H  H557  1  0.342700  0.093300  0.117000  1.0
  H  H558  1  0.657300  0.093300  0.383000  1.0
  H  H559  1  0.842700  0.593300  0.117000  1.0
  H  H560  1  0.157300  0.593300  0.383000  1.0
  H  H561  1  0.740100  0.927200  0.921500  1.0
  H  H562  1  0.259900  0.927200  0.578500  1.0
  H  H563  1  0.240100  0.427200  0.921500  1.0
  H  H564  1  0.759900  0.427200  0.578500  1.0
  H  H565  1  0.259900  0.072800  0.078500  1.0
  H  H566  1  0.740100  0.072800  0.421500  1.0
  H  H567  1  0.759900  0.572800  0.078500  1.0
  H  H568  1  0.240100  0.572800  0.421500  1.0
  H  H569  1  0.746700  0.019000  0.920100  1.0
  H  H570  1  0.253300  0.019000  0.579900  1.0
  H  H571  1  0.246700  0.519000  0.920100  1.0
  H  H572  1  0.753300  0.519000  0.579900  1.0
  H  H573  1  0.253300  0.981000  0.079900  1.0
  H  H574  1  0.746700  0.981000  0.420100  1.0
  H  H575  1  0.753300  0.481000  0.079900  1.0
  H  H576  1  0.246700  0.481000  0.420100  1.0
  H  H577  1  0.777600  0.987000  0.938300  1.0
  H  H578  1  0.222400  0.987000  0.561700  1.0
  H  H579  1  0.277600  0.487000  0.938300  1.0
  H  H580  1  0.722400  0.487000  0.561700  1.0
  H  H581  1  0.222400  0.013000  0.061700  1.0
  H  H582  1  0.777600  0.013000  0.438300  1.0
  H  H583  1  0.722400  0.513000  0.061700  1.0
  H  H584  1  0.277600  0.513000  0.438300  1.0
  H  H585  1  0.844800  0.089600  0.044500  1.0
  H  H586  1  0.155200  0.089600  0.455500  1.0
  H  H587  1  0.344800  0.589600  0.044500  1.0
  H  H588  1  0.655200  0.589600  0.455500  1.0
  H  H589  1  0.155200  0.910400  0.955500  1.0
  H  H590  1  0.844800  0.910400  0.544500  1.0
  H  H591  1  0.655200  0.410400  0.955500  1.0
  H  H592  1  0.344800  0.410400  0.544500  1.0
  H  H593  1  0.862700  0.076200  0.995500  1.0
  H  H594  1  0.137300  0.076200  0.504500  1.0
  H  H595  1  0.362700  0.576200  0.995500  1.0
  H  H596  1  0.637300  0.576200  0.504500  1.0
  H  H597  1  0.137300  0.923800  0.004500  1.0
  H  H598  1  0.862700  0.923800  0.495500  1.0
  H  H599  1  0.637300  0.423800  0.004500  1.0
  H  H600  1  0.362700  0.423800  0.495500  1.0
  H  H601  1  0.810600  0.038600  0.958300  1.0
  H  H602  1  0.189400  0.038600  0.541700  1.0
  H  H603  1  0.310600  0.538600  0.958300  1.0
  H  H604  1  0.689400  0.538600  0.541700  1.0
  H  H605  1  0.189400  0.961400  0.041700  1.0
  H  H606  1  0.810600  0.961400  0.458300  1.0
  H  H607  1  0.689400  0.461400  0.041700  1.0
  H  H608  1  0.310600  0.461400  0.458300  1.0
  H  H609  1  0.702300  0.028700  0.041200  1.0
  H  H610  1  0.297700  0.028700  0.458800  1.0
  H  H611  1  0.202300  0.528700  0.041200  1.0
  H  H612  1  0.797700  0.528700  0.458800  1.0
  H  H613  1  0.297700  0.971300  0.958800  1.0
  H  H614  1  0.702300  0.971300  0.541200  1.0
  H  H615  1  0.797700  0.471300  0.958800  1.0
  H  H616  1  0.202300  0.471300  0.541200  1.0
  H  H617  1  0.650200  0.991100  0.004000  1.0
  H  H618  1  0.349800  0.991100  0.496000  1.0
  H  H619  1  0.150200  0.491100  0.004000  1.0
  H  H620  1  0.849800  0.491100  0.496000  1.0
  H  H621  1  0.349800  0.008900  0.996000  1.0
  H  H622  1  0.650200  0.008900  0.504000  1.0
  H  H623  1  0.849800  0.508900  0.996000  1.0
  H  H624  1  0.150200  0.508900  0.504000  1.0
  H  H625  1  0.668100  0.977700  0.954900  1.0
  H  H626  1  0.331900  0.977700  0.545100  1.0
  H  H627  1  0.168100  0.477700  0.954900  1.0
  H  H628  1  0.831900  0.477700  0.545100  1.0
  H  H629  1  0.331900  0.022300  0.045100  1.0
  H  H630  1  0.668100  0.022300  0.454900  1.0
  H  H631  1  0.831900  0.522300  0.045100  1.0
  H  H632  1  0.168100  0.522300  0.454900  1.0
  H  H633  1  0.856000  0.969400  0.023800  1.0
  H  H634  1  0.144000  0.969400  0.476200  1.0
  H  H635  1  0.356000  0.469400  0.023800  1.0
  H  H636  1  0.644000  0.469400  0.476200  1.0
  H  H637  1  0.144000  0.030600  0.976200  1.0
  H  H638  1  0.856000  0.030600  0.523800  1.0
  H  H639  1  0.644000  0.530600  0.976200  1.0
  H  H640  1  0.356000  0.530600  0.523800  1.0
  H  H641  1  0.763100  0.952500  0.080400  1.0
  H  H642  1  0.236900  0.952500  0.419600  1.0
  H  H643  1  0.263100  0.452500  0.080400  1.0
  H  H644  1  0.736900  0.452500  0.419600  1.0
  H  H645  1  0.236900  0.047500  0.919600  1.0
  H  H646  1  0.763100  0.047500  0.580400  1.0
  H  H647  1  0.736900  0.547500  0.919600  1.0
  H  H648  1  0.263100  0.547500  0.580400  1.0
  H  H649  1  0.809100  0.991400  0.119000  1.0
  H  H650  1  0.190900  0.991400  0.381000  1.0
  H  H651  1  0.309100  0.491400  0.119000  1.0
  H  H652  1  0.690900  0.491400  0.381000  1.0
  H  H653  1  0.190900  0.008600  0.881000  1.0
  H  H654  1  0.809100  0.008600  0.619000  1.0
  H  H655  1  0.690900  0.508600  0.881000  1.0
  H  H656  1  0.309100  0.508600  0.619000  1.0
  H  H657  1  0.753300  0.946000  0.004800  1.0
  H  H658  1  0.246700  0.946000  0.495200  1.0
  H  H659  1  0.253300  0.446000  0.004800  1.0
  H  H660  1  0.746700  0.446000  0.495200  1.0
  H  H661  1  0.246700  0.054000  0.995200  1.0
  H  H662  1  0.753300  0.054000  0.504800  1.0
  H  H663  1  0.746700  0.554000  0.995200  1.0
  H  H664  1  0.253300  0.554000  0.504800  1.0
  H  H665  1  0.800700  0.921000  0.013500  1.0
  H  H666  1  0.199300  0.921000  0.486500  1.0
  H  H667  1  0.300700  0.421000  0.013500  1.0
  H  H668  1  0.699300  0.421000  0.486500  1.0
  H  H669  1  0.199300  0.079000  0.986500  1.0
  H  H670  1  0.800700  0.079000  0.513500  1.0
  H  H671  1  0.699300  0.579000  0.986500  1.0
  H  H672  1  0.300700  0.579000  0.513500  1.0
  H  H673  1  0.769100  0.898100  0.049300  1.0
  H  H674  1  0.230900  0.898100  0.450700  1.0
  H  H675  1  0.269100  0.398100  0.049300  1.0
  H  H676  1  0.730900  0.398100  0.450700  1.0
  H  H677  1  0.230900  0.101900  0.950700  1.0
  H  H678  1  0.769100  0.101900  0.549300  1.0
  H  H679  1  0.730900  0.601900  0.950700  1.0
  H  H680  1  0.269100  0.601900  0.549300  1.0
  H  H681  1  0.936400  0.996600  0.020800  1.0
  H  H682  1  0.063600  0.996600  0.479200  1.0
  H  H683  1  0.436400  0.496600  0.020800  1.0
  H  H684  1  0.563600  0.496600  0.479200  1.0
  H  H685  1  0.063600  0.003400  0.979200  1.0
  H  H686  1  0.936400  0.003400  0.520800  1.0
  H  H687  1  0.563600  0.503400  0.979200  1.0
  H  H688  1  0.436400  0.503400  0.520800  1.0
  H  H689  1  0.011000  0.036600  0.039100  1.0
  H  H690  1  0.989000  0.036600  0.460900  1.0
  H  H691  1  0.511000  0.536600  0.039100  1.0
  H  H692  1  0.489000  0.536600  0.460900  1.0
  H  H693  1  0.989000  0.963400  0.960900  1.0
  H  H694  1  0.011000  0.963400  0.539100  1.0
  H  H695  1  0.489000  0.463400  0.960900  1.0
  H  H696  1  0.511000  0.463400  0.539100  1.0
  H  H697  1  0.044700  0.077800  0.091200  1.0
  H  H698  1  0.955300  0.077800  0.408800  1.0
  H  H699  1  0.544700  0.577800  0.091200  1.0
  H  H700  1  0.455300  0.577800  0.408800  1.0
  H  H701  1  0.955300  0.922200  0.908800  1.0
  H  H702  1  0.044700  0.922200  0.591200  1.0
  H  H703  1  0.455300  0.422200  0.908800  1.0
  H  H704  1  0.544700  0.422200  0.591200  1.0
  H  H705  1  0.014700  0.077300  0.118100  1.0
  H  H706  1  0.985300  0.077300  0.381900  1.0
  H  H707  1  0.514700  0.577300  0.118100  1.0
  H  H708  1  0.485300  0.577300  0.381900  1.0
  H  H709  1  0.985300  0.922700  0.881900  1.0
  H  H710  1  0.014700  0.922700  0.618100  1.0
  H  H711  1  0.485300  0.422700  0.881900  1.0
  H  H712  1  0.514700  0.422700  0.618100  1.0
  H  H713  1  0.149600  0.351500  0.127500  1.0
  H  H714  1  0.850400  0.351500  0.372500  1.0
  H  H715  1  0.649600  0.851500  0.127500  1.0
  H  H716  1  0.350400  0.851500  0.372500  1.0
  H  H717  1  0.850400  0.648500  0.872500  1.0
  H  H718  1  0.149600  0.648500  0.627500  1.0
  H  H719  1  0.350400  0.148500  0.872500  1.0
  H  H720  1  0.649600  0.148500  0.627500  1.0
  H  H721  1  0.230200  0.352300  0.061700  1.0
  H  H722  1  0.769800  0.352300  0.438300  1.0
  H  H723  1  0.730200  0.852300  0.061700  1.0
  H  H724  1  0.269800  0.852300  0.438300  1.0
  H  H725  1  0.769800  0.647700  0.938300  1.0
  H  H726  1  0.230200  0.647700  0.561700  1.0
  H  H727  1  0.269800  0.147700  0.938300  1.0
  H  H728  1  0.730200  0.147700  0.561700  1.0
  H  H729  1  0.179600  0.308600  0.032400  1.0
  H  H730  1  0.820400  0.308600  0.467600  1.0
  H  H731  1  0.679600  0.808600  0.032400  1.0
  H  H732  1  0.320400  0.808600  0.467600  1.0
  H  H733  1  0.820400  0.691400  0.967600  1.0
  H  H734  1  0.179600  0.691400  0.532400  1.0
  H  H735  1  0.320400  0.191400  0.967600  1.0
  H  H736  1  0.679600  0.191400  0.532400  1.0
  H  H737  1  0.201400  0.406200  0.114700  1.0
  H  H738  1  0.798600  0.406200  0.385300  1.0
  H  H739  1  0.701400  0.906200  0.114700  1.0
  H  H740  1  0.298600  0.906200  0.385300  1.0
  H  H741  1  0.798600  0.593800  0.885300  1.0
  H  H742  1  0.201400  0.593800  0.614700  1.0
  H  H743  1  0.298600  0.093800  0.885300  1.0
  H  H744  1  0.701400  0.093800  0.614700  1.0
  H  H745  1  0.229100  0.379700  0.142600  1.0
  H  H746  1  0.770900  0.379700  0.357400  1.0
  H  H747  1  0.729100  0.879700  0.142600  1.0
  H  H748  1  0.270900  0.879700  0.357400  1.0
  H  H749  1  0.770900  0.620300  0.857400  1.0
  H  H750  1  0.229100  0.620300  0.642600  1.0
  H  H751  1  0.270900  0.120300  0.857400  1.0
  H  H752  1  0.729100  0.120300  0.642600  1.0
  H  H753  1  0.286800  0.375800  0.119800  1.0
  H  H754  1  0.713200  0.375800  0.380200  1.0
  H  H755  1  0.786800  0.875800  0.119800  1.0
  H  H756  1  0.213200  0.875800  0.380200  1.0
  H  H757  1  0.713200  0.624200  0.880200  1.0
  H  H758  1  0.286800  0.624200  0.619800  1.0
  H  H759  1  0.213200  0.124200  0.880200  1.0
  H  H760  1  0.786800  0.124200  0.619800  1.0
  H  H761  1  0.076400  0.325100  0.142500  1.0
  H  H762  1  0.923600  0.325100  0.357500  1.0
  H  H763  1  0.576400  0.825100  0.142500  1.0
  H  H764  1  0.423600  0.825100  0.357500  1.0
  H  H765  1  0.923600  0.674900  0.857500  1.0
  H  H766  1  0.076400  0.674900  0.642500  1.0
  H  H767  1  0.423600  0.174900  0.857500  1.0
  H  H768  1  0.576400  0.174900  0.642500  1.0
  H  H769  1  0.004400  0.283600  0.136700  1.0
  H  H770  1  0.995600  0.283600  0.363300  1.0
  H  H771  1  0.504400  0.783600  0.136700  1.0
  H  H772  1  0.495600  0.783600  0.363300  1.0
  H  H773  1  0.995600  0.716400  0.863300  1.0
  H  H774  1  0.004400  0.716400  0.636700  1.0
  H  H775  1  0.495600  0.216400  0.863300  1.0
  H  H776  1  0.504400  0.216400  0.636700  1.0
  H  H777  1  0.984200  0.236700  0.059000  1.0
  H  H778  1  0.015800  0.236700  0.441000  1.0
  H  H779  1  0.484200  0.736700  0.059000  1.0
  H  H780  1  0.515800  0.736700  0.441000  1.0
  H  H781  1  0.015800  0.763300  0.941000  1.0
  H  H782  1  0.984200  0.763300  0.559000  1.0
  H  H783  1  0.515800  0.263300  0.941000  1.0
  H  H784  1  0.484200  0.263300  0.559000  1.0
  H  H785  1  0.959200  0.240900  0.088200  1.0
  H  H786  1  0.040800  0.240900  0.411800  1.0
  H  H787  1  0.459200  0.740900  0.088200  1.0
  H  H788  1  0.540800  0.740900  0.411800  1.0
  H  H789  1  0.040800  0.759100  0.911800  1.0
  H  H790  1  0.959200  0.759100  0.588200  1.0
  H  H791  1  0.540800  0.259100  0.911800  1.0
  H  H792  1  0.459200  0.259100  0.588200  1.0
  H  H793  1  0.926300  0.092700  0.047700  1.0
  H  H794  1  0.073700  0.092700  0.452300  1.0
  H  H795  1  0.426300  0.592700  0.047700  1.0
  H  H796  1  0.573700  0.592700  0.452300  1.0
  H  H797  1  0.073700  0.907300  0.952300  1.0
  H  H798  1  0.926300  0.907300  0.547700  1.0
  H  H799  1  0.573700  0.407300  0.952300  1.0
  H  H800  1  0.426300  0.407300  0.547700  1.0
  H  H801  1  0.890000  0.144900  0.027800  1.0
  H  H802  1  0.110000  0.144900  0.472200  1.0
  H  H803  1  0.390000  0.644900  0.027800  1.0
  H  H804  1  0.610000  0.644900  0.472200  1.0
  H  H805  1  0.110000  0.855100  0.972200  1.0
  H  H806  1  0.890000  0.855100  0.527800  1.0
  H  H807  1  0.610000  0.355100  0.972200  1.0
  H  H808  1  0.390000  0.355100  0.527800  1.0
  H  H809  1  0.929500  0.195300  0.050300  1.0
  H  H810  1  0.070500  0.195300  0.449700  1.0
  H  H811  1  0.429500  0.695300  0.050300  1.0
  H  H812  1  0.570500  0.695300  0.449700  1.0
  H  H813  1  0.070500  0.804700  0.949700  1.0
  H  H814  1  0.929500  0.804700  0.550300  1.0
  H  H815  1  0.570500  0.304700  0.949700  1.0
  H  H816  1  0.429500  0.304700  0.550300  1.0
  H  H817  1  0.070600  0.119900  0.128600  1.0
  H  H818  1  0.929400  0.119900  0.371400  1.0
  H  H819  1  0.570600  0.619900  0.128600  1.0
  H  H820  1  0.429400  0.619900  0.371400  1.0
  H  H821  1  0.929400  0.880100  0.871400  1.0
  H  H822  1  0.070600  0.880100  0.628600  1.0
  H  H823  1  0.429400  0.380100  0.871400  1.0
  H  H824  1  0.570600  0.380100  0.628600  1.0
  H  H825  1  0.110100  0.170400  0.151100  1.0
  H  H826  1  0.889900  0.170400  0.348900  1.0
  H  H827  1  0.610100  0.670400  0.151100  1.0
  H  H828  1  0.389900  0.670400  0.348900  1.0
  H  H829  1  0.889900  0.829600  0.848900  1.0
  H  H830  1  0.110100  0.829600  0.651100  1.0
  H  H831  1  0.389900  0.329600  0.848900  1.0
  H  H832  1  0.610100  0.329600  0.651100  1.0
  H  H833  1  0.073800  0.222500  0.131200  1.0
  H  H834  1  0.926200  0.222500  0.368800  1.0
  H  H835  1  0.573800  0.722500  0.131200  1.0
  H  H836  1  0.426200  0.722500  0.368800  1.0
  H  H837  1  0.926200  0.777500  0.868800  1.0
  H  H838  1  0.073800  0.777500  0.631200  1.0
  H  H839  1  0.426200  0.277500  0.868800  1.0
  H  H840  1  0.573800  0.277500  0.631200  1.0
  H  H841  1  0.972700  0.951800  0.215100  1.0
  H  H842  1  0.027300  0.951800  0.284900  1.0
  H  H843  1  0.472700  0.451800  0.215100  1.0
  H  H844  1  0.527300  0.451800  0.284900  1.0
  H  H845  1  0.027300  0.048200  0.784900  1.0
  H  H846  1  0.972700  0.048200  0.715100  1.0
  H  H847  1  0.527300  0.548200  0.784900  1.0
  H  H848  1  0.472700  0.548200  0.715100  1.0
  H  H849  1  0.055300  0.953600  0.150400  1.0
  H  H850  1  0.944700  0.953600  0.349600  1.0
  H  H851  1  0.555300  0.453600  0.150400  1.0
  H  H852  1  0.444700  0.453600  0.349600  1.0
  H  H853  1  0.944700  0.046400  0.849600  1.0
  H  H854  1  0.055300  0.046400  0.650400  1.0
  H  H855  1  0.444700  0.546400  0.849600  1.0
  H  H856  1  0.555300  0.546400  0.650400  1.0
  H  H857  1  0.005100  0.997800  0.121800  1.0
  H  H858  1  0.994900  0.997800  0.378200  1.0
  H  H859  1  0.505100  0.497800  0.121800  1.0
  H  H860  1  0.494900  0.497800  0.378200  1.0
  H  H861  1  0.994900  0.002200  0.878200  1.0
  H  H862  1  0.005100  0.002200  0.621800  1.0
  H  H863  1  0.494900  0.502200  0.878200  1.0
  H  H864  1  0.505100  0.502200  0.621800  1.0
  H  H865  1  0.025700  0.897900  0.197300  1.0
  H  H866  1  0.974300  0.897900  0.302700  1.0
  H  H867  1  0.525700  0.397900  0.197300  1.0
  H  H868  1  0.474300  0.397900  0.302700  1.0
  H  H869  1  0.974300  0.102100  0.802700  1.0
  H  H870  1  0.025700  0.102100  0.697300  1.0
  H  H871  1  0.474300  0.602100  0.802700  1.0
  H  H872  1  0.525700  0.602100  0.697300  1.0
  H  H873  1  0.078500  0.915400  0.199800  1.0
  H  H874  1  0.921500  0.915400  0.300200  1.0
  H  H875  1  0.578500  0.415400  0.199800  1.0
  H  H876  1  0.421500  0.415400  0.300200  1.0
  H  H877  1  0.921500  0.084600  0.800200  1.0
  H  H878  1  0.078500  0.084600  0.699800  1.0
  H  H879  1  0.421500  0.584600  0.800200  1.0
  H  H880  1  0.578500  0.584600  0.699800  1.0
  H  H881  1  0.029400  0.921900  0.243000  1.0
  H  H882  1  0.970600  0.921900  0.257000  1.0
  H  H883  1  0.529400  0.421900  0.243000  1.0
  H  H884  1  0.470600  0.421900  0.257000  1.0
  H  H885  1  0.970600  0.078100  0.757000  1.0
  H  H886  1  0.029400  0.078100  0.743000  1.0
  H  H887  1  0.470600  0.578100  0.757000  1.0
  H  H888  1  0.529400  0.578100  0.743000  1.0
  H  H889  1  0.901900  0.977500  0.232000  1.0
  H  H890  1  0.098100  0.977500  0.268000  1.0
  H  H891  1  0.401900  0.477500  0.232000  1.0
  H  H892  1  0.598100  0.477500  0.268000  1.0
  H  H893  1  0.098100  0.022500  0.768000  1.0
  H  H894  1  0.901900  0.022500  0.732000  1.0
  H  H895  1  0.598100  0.522500  0.768000  1.0
  H  H896  1  0.401900  0.522500  0.732000  1.0
  H  H897  1  0.824800  0.014900  0.224600  1.0
  H  H898  1  0.175200  0.014900  0.275400  1.0
  H  H899  1  0.324800  0.514900  0.224600  1.0
  H  H900  1  0.675200  0.514900  0.275400  1.0
  H  H901  1  0.175200  0.985100  0.775400  1.0
  H  H902  1  0.824800  0.985100  0.724600  1.0
  H  H903  1  0.675200  0.485100  0.775400  1.0
  H  H904  1  0.324800  0.485100  0.724600  1.0
  H  H905  1  0.773000  0.054900  0.174100  1.0
  H  H906  1  0.227000  0.054900  0.325900  1.0
  H  H907  1  0.273000  0.554900  0.174100  1.0
  H  H908  1  0.727000  0.554900  0.325900  1.0
  H  H909  1  0.227000  0.945100  0.825900  1.0
  H  H910  1  0.773000  0.945100  0.674100  1.0
  H  H911  1  0.727000  0.445100  0.825900  1.0
  H  H912  1  0.273000  0.445100  0.674100  1.0
  H  H913  1  0.797300  0.060000  0.144600  1.0
  H  H914  1  0.202700  0.060000  0.355400  1.0
  H  H915  1  0.297300  0.560000  0.144600  1.0
  H  H916  1  0.702700  0.560000  0.355400  1.0
  H  H917  1  0.202700  0.940000  0.855400  1.0
  H  H918  1  0.797300  0.940000  0.644600  1.0
  H  H919  1  0.702700  0.440000  0.855400  1.0
  H  H920  1  0.297300  0.440000  0.644600  1.0
  H  H921  1  0.625200  0.323300  0.117800  1.0
  H  H922  1  0.374800  0.323300  0.382200  1.0
  H  H923  1  0.125200  0.823300  0.117800  1.0
  H  H924  1  0.874800  0.823300  0.382200  1.0
  H  H925  1  0.374800  0.676700  0.882200  1.0
  H  H926  1  0.625200  0.676700  0.617800  1.0
  H  H927  1  0.874800  0.176700  0.882200  1.0
  H  H928  1  0.125200  0.176700  0.617800  1.0
  H  H929  1  0.538400  0.335000  0.179200  1.0
  H  H930  1  0.461600  0.335000  0.320800  1.0
  H  H931  1  0.038400  0.835000  0.179200  1.0
  H  H932  1  0.961600  0.835000  0.320800  1.0
  H  H933  1  0.461600  0.665000  0.820800  1.0
  H  H934  1  0.538400  0.665000  0.679200  1.0
  H  H935  1  0.961600  0.165000  0.820800  1.0
  H  H936  1  0.038400  0.165000  0.679200  1.0
  H  H937  1  0.585100  0.293100  0.213600  1.0
  H  H938  1  0.414900  0.293100  0.286400  1.0
  H  H939  1  0.085100  0.793100  0.213600  1.0
  H  H940  1  0.914900  0.793100  0.286400  1.0
  H  H941  1  0.414900  0.706900  0.786400  1.0
  H  H942  1  0.585100  0.706900  0.713600  1.0
  H  H943  1  0.914900  0.206900  0.786400  1.0
  H  H944  1  0.085100  0.206900  0.713600  1.0
  H  H945  1  0.571400  0.377600  0.118500  1.0
  H  H946  1  0.428600  0.377600  0.381500  1.0
  H  H947  1  0.071400  0.877600  0.118500  1.0
  H  H948  1  0.928600  0.877600  0.381500  1.0
  H  H949  1  0.428600  0.622400  0.881500  1.0
  H  H950  1  0.571400  0.622400  0.618500  1.0
  H  H951  1  0.928600  0.122400  0.881500  1.0
  H  H952  1  0.071400  0.122400  0.618500  1.0
  H  H953  1  0.533600  0.348600  0.099300  1.0
  H  H954  1  0.466400  0.348600  0.400700  1.0
  H  H955  1  0.033600  0.848600  0.099300  1.0
  H  H956  1  0.966400  0.848600  0.400700  1.0
  H  H957  1  0.466400  0.651400  0.900700  1.0
  H  H958  1  0.533600  0.651400  0.599300  1.0
  H  H959  1  0.966400  0.151400  0.900700  1.0
  H  H960  1  0.033600  0.151400  0.599300  1.0
  H  H961  1  0.493000  0.386900  0.119300  1.0
  H  H962  1  0.507000  0.386900  0.380700  1.0
  H  H963  1  0.993000  0.886900  0.119300  1.0
  H  H964  1  0.007000  0.886900  0.380700  1.0
  H  H965  1  0.507000  0.613100  0.880700  1.0
  H  H966  1  0.493000  0.613100  0.619300  1.0
  H  H967  1  0.007000  0.113100  0.880700  1.0
  H  H968  1  0.993000  0.113100  0.619300  1.0
  H  H969  1  0.701100  0.295000  0.109100  1.0
  H  H970  1  0.298900  0.295000  0.390900  1.0
  H  H971  1  0.201100  0.795000  0.109100  1.0
  H  H972  1  0.798900  0.795000  0.390900  1.0
  H  H973  1  0.298900  0.705000  0.890900  1.0
  H  H974  1  0.701100  0.705000  0.609100  1.0
  H  H975  1  0.798900  0.205000  0.890900  1.0
  H  H976  1  0.201100  0.205000  0.609100  1.0
  H  H977  1  0.780600  0.259200  0.125500  1.0
  H  H978  1  0.219400  0.259200  0.374500  1.0
  H  H979  1  0.280600  0.759200  0.125500  1.0
  H  H980  1  0.719400  0.759200  0.374500  1.0
  H  H981  1  0.219400  0.740800  0.874500  1.0
  H  H982  1  0.780600  0.740800  0.625500  1.0
  H  H983  1  0.719400  0.240800  0.874500  1.0
  H  H984  1  0.280600  0.240800  0.625500  1.0
  H  H985  1  0.796100  0.219500  0.206900  1.0
  H  H986  1  0.203900  0.219500  0.293100  1.0
  H  H987  1  0.296100  0.719500  0.206900  1.0
  H  H988  1  0.703900  0.719500  0.293100  1.0
  H  H989  1  0.203900  0.780500  0.793100  1.0
  H  H990  1  0.796100  0.780500  0.706900  1.0
  H  H991  1  0.703900  0.280500  0.793100  1.0
  H  H992  1  0.296100  0.280500  0.706900  1.0
  H  H993  1  0.826400  0.223900  0.180400  1.0
  H  H994  1  0.173600  0.223900  0.319600  1.0
  H  H995  1  0.326400  0.723900  0.180400  1.0
  H  H996  1  0.673600  0.723900  0.319600  1.0
  H  H997  1  0.173600  0.776100  0.819600  1.0
  H  H998  1  0.826400  0.776100  0.680400  1.0
  H  H999  1  0.673600  0.276100  0.819600  1.0
  H  H1000  1  0.326400  0.276100  0.680400  1.0
  H  H1001  1  0.891700  0.080800  0.212800  1.0
  H  H1002  1  0.108300  0.080800  0.287200  1.0
  H  H1003  1  0.391700  0.580800  0.212800  1.0
  H  H1004  1  0.608300  0.580800  0.287200  1.0
  H  H1005  1  0.108300  0.919200  0.787200  1.0
  H  H1006  1  0.891700  0.919200  0.712800  1.0
  H  H1007  1  0.608300  0.419200  0.787200  1.0
  H  H1008  1  0.391700  0.419200  0.712800  1.0
  H  H1009  1  0.918800  0.135000  0.232300  1.0
  H  H1010  1  0.081200  0.135000  0.267700  1.0
  H  H1011  1  0.418800  0.635000  0.232300  1.0
  H  H1012  1  0.581200  0.635000  0.267700  1.0
  H  H1013  1  0.081200  0.865000  0.767700  1.0
  H  H1014  1  0.918800  0.865000  0.732300  1.0
  H  H1015  1  0.581200  0.365000  0.767700  1.0
  H  H1016  1  0.418800  0.365000  0.732300  1.0
  H  H1017  1  0.867100  0.181900  0.213300  1.0
  H  H1018  1  0.132900  0.181900  0.286700  1.0
  H  H1019  1  0.367100  0.681900  0.213300  1.0
  H  H1020  1  0.632900  0.681900  0.286700  1.0
  H  H1021  1  0.132900  0.818100  0.786700  1.0
  H  H1022  1  0.867100  0.818100  0.713300  1.0
  H  H1023  1  0.632900  0.318100  0.786700  1.0
  H  H1024  1  0.367100  0.318100  0.713300  1.0
  H  H1025  1  0.735200  0.097200  0.140000  1.0
  H  H1026  1  0.264800  0.097200  0.360000  1.0
  H  H1027  1  0.235200  0.597200  0.140000  1.0
  H  H1028  1  0.764800  0.597200  0.360000  1.0
  H  H1029  1  0.264800  0.902800  0.860000  1.0
  H  H1030  1  0.735200  0.902800  0.640000  1.0
  H  H1031  1  0.764800  0.402800  0.860000  1.0
  H  H1032  1  0.235200  0.402800  0.640000  1.0
  H  H1033  1  0.683500  0.144100  0.121000  1.0
  H  H1034  1  0.316500  0.144100  0.379000  1.0
  H  H1035  1  0.183500  0.644100  0.121000  1.0
  H  H1036  1  0.816500  0.644100  0.379000  1.0
  H  H1037  1  0.316500  0.855900  0.879000  1.0
  H  H1038  1  0.683500  0.855900  0.621000  1.0
  H  H1039  1  0.816500  0.355900  0.879000  1.0
  H  H1040  1  0.183500  0.355900  0.621000  1.0
  H  H1041  1  0.710600  0.198300  0.140500  1.0
  H  H1042  1  0.289400  0.198300  0.359500  1.0
  H  H1043  1  0.210600  0.698300  0.140500  1.0
  H  H1044  1  0.789400  0.698300  0.359500  1.0
  H  H1045  1  0.289400  0.801700  0.859500  1.0
  H  H1046  1  0.710600  0.801700  0.640500  1.0
  H  H1047  1  0.789400  0.301700  0.859500  1.0
  H  H1048  1  0.210600  0.301700  0.640500  1.0
  H  H1049  1  0.608000  0.082200  0.979500  1.0
  H  H1050  1  0.392000  0.082200  0.520500  1.0
  H  H1051  1  0.108000  0.582200  0.979500  1.0
  H  H1052  1  0.892000  0.582200  0.520500  1.0
  H  H1053  1  0.392000  0.917800  0.020500  1.0
  H  H1054  1  0.608000  0.917800  0.479500  1.0
  H  H1055  1  0.892000  0.417800  0.020500  1.0
  H  H1056  1  0.108000  0.417800  0.479500  1.0
  H  H1057  1  0.502500  0.010300  0.942400  1.0
  H  H1058  1  0.497500  0.010300  0.557600  1.0
  H  H1059  1  0.002500  0.510300  0.942400  1.0
  H  H1060  1  0.997500  0.510300  0.557600  1.0
  H  H1061  1  0.497500  0.989700  0.057600  1.0
  H  H1062  1  0.502500  0.989700  0.442400  1.0
  H  H1063  1  0.997500  0.489700  0.057600  1.0
  H  H1064  1  0.002500  0.489700  0.442400  1.0
  H  H1065  1  0.536200  0.002200  0.898500  1.0
  H  H1066  1  0.463800  0.002200  0.601500  1.0
  H  H1067  1  0.036200  0.502200  0.898500  1.0
  H  H1068  1  0.963800  0.502200  0.601500  1.0
  H  H1069  1  0.463800  0.997800  0.101500  1.0
  H  H1070  1  0.536200  0.997800  0.398500  1.0
  H  H1071  1  0.963800  0.497800  0.101500  1.0
  H  H1072  1  0.036200  0.497800  0.398500  1.0
  H  H1073  1  0.559700  0.049400  0.014800  1.0
  H  H1074  1  0.440300  0.049400  0.485200  1.0
  H  H1075  1  0.059700  0.549400  0.014800  1.0
  H  H1076  1  0.940300  0.549400  0.485200  1.0
  H  H1077  1  0.440300  0.950600  0.985200  1.0
  H  H1078  1  0.559700  0.950600  0.514800  1.0
  H  H1079  1  0.940300  0.450600  0.985200  1.0
  H  H1080  1  0.059700  0.450600  0.514800  1.0
  H  H1081  1  0.522000  0.077500  0.994300  1.0
  H  H1082  1  0.478000  0.077500  0.505700  1.0
  H  H1083  1  0.022000  0.577500  0.994300  1.0
  H  H1084  1  0.978000  0.577500  0.505700  1.0
  H  H1085  1  0.478000  0.922500  0.005700  1.0
  H  H1086  1  0.522000  0.922500  0.494300  1.0
  H  H1087  1  0.978000  0.422500  0.005700  1.0
  H  H1088  1  0.022000  0.422500  0.494300  1.0
  H  H1089  1  0.500000  0.012600  0.994500  1.0
  H  H1090  1  0.500000  0.012600  0.505500  1.0
  H  H1091  1  0.000000  0.512600  0.994500  1.0
  H  H1092  1  0.000000  0.512600  0.505500  1.0
  H  H1093  1  0.500000  0.987400  0.005500  1.0
  H  H1094  1  0.500000  0.987400  0.494500  1.0
  H  H1095  1  0.000000  0.487400  0.005500  1.0
  H  H1096  1  0.000000  0.487400  0.494500  1.0
  H  H1097  1  0.685000  0.109200  0.975100  1.0
  H  H1098  1  0.315000  0.109200  0.524900  1.0
  H  H1099  1  0.185000  0.609200  0.975100  1.0
  H  H1100  1  0.815000  0.609200  0.524900  1.0
  H  H1101  1  0.315000  0.890800  0.024900  1.0
  H  H1102  1  0.685000  0.890800  0.475100  1.0
  H  H1103  1  0.815000  0.390800  0.024900  1.0
  H  H1104  1  0.185000  0.390800  0.475100  1.0
  H  H1105  1  0.756700  0.121600  0.950700  1.0
  H  H1106  1  0.243300  0.121600  0.549300  1.0
  H  H1107  1  0.256700  0.621600  0.950700  1.0
  H  H1108  1  0.743300  0.621600  0.549300  1.0
  H  H1109  1  0.243300  0.878400  0.049300  1.0
  H  H1110  1  0.756700  0.878400  0.450700  1.0
  H  H1111  1  0.743300  0.378400  0.049300  1.0
  H  H1112  1  0.256700  0.378400  0.450700  1.0
  H  H1113  1  0.740000  0.072100  0.874100  1.0
  H  H1114  1  0.260000  0.072100  0.625900  1.0
  H  H1115  1  0.240000  0.572100  0.874100  1.0
  H  H1116  1  0.760000  0.572100  0.625900  1.0
  H  H1117  1  0.260000  0.927900  0.125900  1.0
  H  H1118  1  0.740000  0.927900  0.374100  1.0
  H  H1119  1  0.760000  0.427900  0.125900  1.0
  H  H1120  1  0.240000  0.427900  0.374100  1.0
  H  H1121  1  0.779300  0.097700  0.897100  1.0
  H  H1122  1  0.220700  0.097700  0.602900  1.0
  H  H1123  1  0.279300  0.597700  0.897100  1.0
  H  H1124  1  0.720700  0.597700  0.602900  1.0
  H  H1125  1  0.220700  0.902300  0.102900  1.0
  H  H1126  1  0.779300  0.902300  0.397100  1.0
  H  H1127  1  0.720700  0.402300  0.102900  1.0
  H  H1128  1  0.279300  0.402300  0.397100  1.0
  H  H1129  1  0.853700  0.221500  0.676900  1.0
  H  H1130  1  0.146300  0.221500  0.823100  1.0
  H  H1131  1  0.353700  0.721500  0.676900  1.0
  H  H1132  1  0.646300  0.721500  0.823100  1.0
  H  H1133  1  0.146300  0.778500  0.323100  1.0
  H  H1134  1  0.853700  0.778500  0.176900  1.0
  H  H1135  1  0.646300  0.278500  0.323100  1.0
  H  H1136  1  0.353700  0.278500  0.176900  1.0
  H  H1137  1  0.958600  0.288400  0.727400  1.0
  H  H1138  1  0.041400  0.288400  0.772600  1.0
  H  H1139  1  0.458600  0.788400  0.727400  1.0
  H  H1140  1  0.541400  0.788400  0.772600  1.0
  H  H1141  1  0.041400  0.711600  0.272600  1.0
  H  H1142  1  0.958600  0.711600  0.227400  1.0
  H  H1143  1  0.541400  0.211600  0.272600  1.0
  H  H1144  1  0.458600  0.211600  0.227400  1.0
  H  H1145  1  0.918000  0.290900  0.768500  1.0
  H  H1146  1  0.082000  0.290900  0.731500  1.0
  H  H1147  1  0.418000  0.790900  0.768500  1.0
  H  H1148  1  0.582000  0.790900  0.731500  1.0
  H  H1149  1  0.082000  0.709100  0.231500  1.0
  H  H1150  1  0.918000  0.709100  0.268500  1.0
  H  H1151  1  0.582000  0.209100  0.231500  1.0
  H  H1152  1  0.418000  0.209100  0.268500  1.0
  H  H1153  1  0.919300  0.260800  0.651300  1.0
  H  H1154  1  0.080700  0.260800  0.848700  1.0
  H  H1155  1  0.419300  0.760800  0.651300  1.0
  H  H1156  1  0.580700  0.760800  0.848700  1.0
  H  H1157  1  0.080700  0.739200  0.348700  1.0
  H  H1158  1  0.919300  0.739200  0.151300  1.0
  H  H1159  1  0.580700  0.239200  0.348700  1.0
  H  H1160  1  0.419300  0.239200  0.151300  1.0
  H  H1161  1  0.938300  0.224400  0.667000  1.0
  H  H1162  1  0.061700  0.224400  0.833000  1.0
  H  H1163  1  0.438300  0.724400  0.667000  1.0
  H  H1164  1  0.561700  0.724400  0.833000  1.0
  H  H1165  1  0.061700  0.775600  0.333000  1.0
  H  H1166  1  0.938300  0.775600  0.167000  1.0
  H  H1167  1  0.561700  0.275600  0.333000  1.0
  H  H1168  1  0.438300  0.275600  0.167000  1.0
  H  H1169  1  0.984400  0.282100  0.688900  1.0
  H  H1170  1  0.015600  0.282100  0.811100  1.0
  H  H1171  1  0.484400  0.782100  0.688900  1.0
  H  H1172  1  0.515600  0.782100  0.811100  1.0
  H  H1173  1  0.015600  0.717900  0.311100  1.0
  H  H1174  1  0.984400  0.717900  0.188900  1.0
  H  H1175  1  0.515600  0.217900  0.311100  1.0
  H  H1176  1  0.484400  0.217900  0.188900  1.0
  H  H1177  1  0.779500  0.188900  0.676700  1.0
  H  H1178  1  0.220500  0.188900  0.823300  1.0
  H  H1179  1  0.279500  0.688900  0.676700  1.0
  H  H1180  1  0.720500  0.688900  0.823300  1.0
  H  H1181  1  0.220500  0.811100  0.323300  1.0
  H  H1182  1  0.779500  0.811100  0.176700  1.0
  H  H1183  1  0.720500  0.311100  0.323300  1.0
  H  H1184  1  0.279500  0.311100  0.176700  1.0
  H  H1185  1  0.709300  0.167500  0.698900  1.0
  H  H1186  1  0.290700  0.167500  0.801100  1.0
  H  H1187  1  0.209300  0.667500  0.698900  1.0
  H  H1188  1  0.790700  0.667500  0.801100  1.0
  H  H1189  1  0.290700  0.832500  0.301100  1.0
  H  H1190  1  0.709300  0.832500  0.198900  1.0
  H  H1191  1  0.790700  0.332500  0.301100  1.0
  H  H1192  1  0.209300  0.332500  0.198900  1.0
  H  H1193  1  0.715100  0.213000  0.776300  1.0
  H  H1194  1  0.284900  0.213000  0.723700  1.0
  H  H1195  1  0.215100  0.713000  0.776300  1.0
  H  H1196  1  0.784900  0.713000  0.723700  1.0
  H  H1197  1  0.284900  0.787000  0.223700  1.0
  H  H1198  1  0.715100  0.787000  0.276300  1.0
  H  H1199  1  0.784900  0.287000  0.223700  1.0
  H  H1200  1  0.215100  0.287000  0.276300  1.0
  H  H1201  1  0.681400  0.184800  0.753000  1.0
  H  H1202  1  0.318600  0.184800  0.747000  1.0
  H  H1203  1  0.181400  0.684800  0.753000  1.0
  H  H1204  1  0.818600  0.684800  0.747000  1.0
  H  H1205  1  0.318600  0.815200  0.247000  1.0
  H  H1206  1  0.681400  0.815200  0.253000  1.0
  H  H1207  1  0.818600  0.315200  0.247000  1.0
  H  H1208  1  0.181400  0.315200  0.253000  1.0
  H  H1209  1  0.666667  0.134000  0.882300  1.0
  H  H1210  1  0.333333  0.134000  0.617700  1.0
  H  H1211  1  0.166667  0.634000  0.882300  1.0
  H  H1212  1  0.833333  0.634000  0.617700  1.0
  H  H1213  1  0.333333  0.866000  0.117700  1.0
  H  H1214  1  0.666667  0.866000  0.382300  1.0
  H  H1215  1  0.833333  0.366000  0.117700  1.0
  H  H1216  1  0.166667  0.366000  0.382300  1.0
  H  H1217  1  0.630400  0.176700  0.844800  1.0
  H  H1218  1  0.369600  0.176700  0.655200  1.0
  H  H1219  1  0.130400  0.676700  0.844800  1.0
  H  H1220  1  0.869600  0.676700  0.655200  1.0
  H  H1221  1  0.369600  0.823300  0.155200  1.0
  H  H1222  1  0.630400  0.823300  0.344800  1.0
  H  H1223  1  0.869600  0.323300  0.155200  1.0
  H  H1224  1  0.130400  0.323300  0.344800  1.0
  H  H1225  1  0.665100  0.190200  0.802300  1.0
  H  H1226  1  0.334900  0.190200  0.697700  1.0
  H  H1227  1  0.165100  0.690200  0.802300  1.0
  H  H1228  1  0.834900  0.690200  0.697700  1.0
  H  H1229  1  0.334900  0.809800  0.197700  1.0
  H  H1230  1  0.665100  0.809800  0.302300  1.0
  H  H1231  1  0.834900  0.309800  0.197700  1.0
  H  H1232  1  0.165100  0.309800  0.302300  1.0
  H  H1233  1  0.800600  0.095500  0.849100  1.0
  H  H1234  1  0.199400  0.095500  0.650900  1.0
  H  H1235  1  0.300600  0.595500  0.849100  1.0
  H  H1236  1  0.699400  0.595500  0.650900  1.0
  H  H1237  1  0.199400  0.904500  0.150900  1.0
  H  H1238  1  0.800600  0.904500  0.349100  1.0
  H  H1239  1  0.699400  0.404500  0.150900  1.0
  H  H1240  1  0.300600  0.404500  0.349100  1.0
  H  H1241  1  0.835300  0.108900  0.806700  1.0
  H  H1242  1  0.164700  0.108900  0.693300  1.0
  H  H1243  1  0.335300  0.608900  0.806700  1.0
  H  H1244  1  0.664700  0.608900  0.693300  1.0
  H  H1245  1  0.164700  0.891100  0.193300  1.0
  H  H1246  1  0.835300  0.891100  0.306700  1.0
  H  H1247  1  0.664700  0.391100  0.193300  1.0
  H  H1248  1  0.335300  0.391100  0.306700  1.0
  H  H1249  1  0.799000  0.151600  0.769200  1.0
  H  H1250  1  0.201000  0.151600  0.730800  1.0
  H  H1251  1  0.299000  0.651600  0.769200  1.0
  H  H1252  1  0.701000  0.651600  0.730800  1.0
  H  H1253  1  0.201000  0.848400  0.230800  1.0
  H  H1254  1  0.799000  0.848400  0.269200  1.0
  H  H1255  1  0.701000  0.348400  0.230800  1.0
  H  H1256  1  0.299000  0.348400  0.269200  1.0
  H  H1257  1  0.648000  0.084900  0.769500  1.0
  H  H1258  1  0.352000  0.084900  0.730500  1.0
  H  H1259  1  0.148000  0.584900  0.769500  1.0
  H  H1260  1  0.852000  0.584900  0.730500  1.0
  H  H1261  1  0.352000  0.915100  0.230500  1.0
  H  H1262  1  0.648000  0.915100  0.269500  1.0
  H  H1263  1  0.852000  0.415100  0.230500  1.0
  H  H1264  1  0.148000  0.415100  0.269500  1.0
  H  H1265  1  0.754000  0.013500  0.807300  1.0
  H  H1266  1  0.246000  0.013500  0.692700  1.0
  H  H1267  1  0.254000  0.513500  0.807300  1.0
  H  H1268  1  0.746000  0.513500  0.692700  1.0
  H  H1269  1  0.246000  0.986500  0.192700  1.0
  H  H1270  1  0.754000  0.986500  0.307300  1.0
  H  H1271  1  0.746000  0.486500  0.192700  1.0
  H  H1272  1  0.254000  0.486500  0.307300  1.0
  H  H1273  1  0.718000  0.003900  0.850000  1.0
  H  H1274  1  0.282000  0.003900  0.650000  1.0
  H  H1275  1  0.218000  0.503900  0.850000  1.0
  H  H1276  1  0.782000  0.503900  0.650000  1.0
  H  H1277  1  0.282000  0.996100  0.150000  1.0
  H  H1278  1  0.718000  0.996100  0.350000  1.0
  H  H1279  1  0.782000  0.496100  0.150000  1.0
  H  H1280  1  0.218000  0.496100  0.350000  1.0
  H  H1281  1  0.699000  0.054300  0.734900  1.0
  H  H1282  1  0.301000  0.054300  0.765100  1.0
  H  H1283  1  0.199000  0.554300  0.734900  1.0
  H  H1284  1  0.801000  0.554300  0.765100  1.0
  H  H1285  1  0.301000  0.945700  0.265100  1.0
  H  H1286  1  0.699000  0.945700  0.234900  1.0
  H  H1287  1  0.801000  0.445700  0.265100  1.0
  H  H1288  1  0.199000  0.445700  0.234900  1.0
  H  H1289  1  0.737600  0.081100  0.757000  1.0
  H  H1290  1  0.262400  0.081100  0.743000  1.0
  H  H1291  1  0.237600  0.581100  0.757000  1.0
  H  H1292  1  0.762400  0.581100  0.743000  1.0
  H  H1293  1  0.262400  0.918900  0.243000  1.0
  H  H1294  1  0.737600  0.918900  0.257000  1.0
  H  H1295  1  0.762400  0.418900  0.243000  1.0
  H  H1296  1  0.237600  0.418900  0.257000  1.0
  H  H1297  1  0.755700  0.015300  0.754600  1.0
  H  H1298  1  0.244300  0.015300  0.745400  1.0
  H  H1299  1  0.255700  0.515300  0.754600  1.0
  H  H1300  1  0.744300  0.515300  0.745400  1.0
  H  H1301  1  0.244300  0.984700  0.245400  1.0
  H  H1302  1  0.755700  0.984700  0.254600  1.0
  H  H1303  1  0.744300  0.484700  0.245400  1.0
  H  H1304  1  0.255700  0.484700  0.254600  1.0
  H  H1305  1  0.567400  0.109600  0.772500  1.0
  H  H1306  1  0.432600  0.109600  0.727500  1.0
  H  H1307  1  0.067400  0.609600  0.772500  1.0
  H  H1308  1  0.932600  0.609600  0.727500  1.0
  H  H1309  1  0.432600  0.890400  0.227500  1.0
  H  H1310  1  0.567400  0.890400  0.272500  1.0
  H  H1311  1  0.932600  0.390400  0.227500  1.0
  H  H1312  1  0.067400  0.390400  0.272500  1.0
  H  H1313  1  0.496500  0.122200  0.797500  1.0
  H  H1314  1  0.503500  0.122200  0.702500  1.0
  H  H1315  1  0.996500  0.622200  0.797500  1.0
  H  H1316  1  0.003500  0.622200  0.702500  1.0
  H  H1317  1  0.503500  0.877800  0.202500  1.0
  H  H1318  1  0.496500  0.877800  0.297500  1.0
  H  H1319  1  0.003500  0.377800  0.202500  1.0
  H  H1320  1  0.996500  0.377800  0.297500  1.0
  H  H1321  1  0.514700  0.071500  0.873000  1.0
  H  H1322  1  0.485300  0.071500  0.627000  1.0
  H  H1323  1  0.014700  0.571500  0.873000  1.0
  H  H1324  1  0.985300  0.571500  0.627000  1.0
  H  H1325  1  0.485300  0.928500  0.127000  1.0
  H  H1326  1  0.514700  0.928500  0.373000  1.0
  H  H1327  1  0.985300  0.428500  0.127000  1.0
  H  H1328  1  0.014700  0.428500  0.373000  1.0
  H  H1329  1  0.474800  0.096900  0.850500  1.0
  H  H1330  1  0.525200  0.096900  0.649500  1.0
  H  H1331  1  0.974800  0.596900  0.850500  1.0
  H  H1332  1  0.025200  0.596900  0.649500  1.0
  H  H1333  1  0.525200  0.903100  0.149500  1.0
  H  H1334  1  0.474800  0.903100  0.350500  1.0
  H  H1335  1  0.025200  0.403100  0.149500  1.0
  H  H1336  1  0.974800  0.403100  0.350500  1.0
  H  H1337  1  0.381300  0.220600  0.069100  1.0
  H  H1338  1  0.618700  0.220600  0.430900  1.0
  H  H1339  1  0.881300  0.720600  0.069100  1.0
  H  H1340  1  0.118700  0.720600  0.430900  1.0
  H  H1341  1  0.618700  0.779400  0.930900  1.0
  H  H1342  1  0.381300  0.779400  0.569100  1.0
  H  H1343  1  0.118700  0.279400  0.930900  1.0
  H  H1344  1  0.881300  0.279400  0.569100  1.0
  H  H1345  1  0.277900  0.286200  0.014800  1.0
  H  H1346  1  0.722100  0.286200  0.485200  1.0
  H  H1347  1  0.777900  0.786200  0.014800  1.0
  H  H1348  1  0.222100  0.786200  0.485200  1.0
  H  H1349  1  0.722100  0.713800  0.985200  1.0
  H  H1350  1  0.277900  0.713800  0.514800  1.0
  H  H1351  1  0.222100  0.213800  0.985200  1.0
  H  H1352  1  0.777900  0.213800  0.514800  1.0
  H  H1353  1  0.314700  0.281500  0.971900  1.0
  H  H1354  1  0.685300  0.281500  0.528100  1.0
  H  H1355  1  0.814700  0.781500  0.971900  1.0
  H  H1356  1  0.185300  0.781500  0.528100  1.0
  H  H1357  1  0.685300  0.718500  0.028100  1.0
  H  H1358  1  0.314700  0.718500  0.471900  1.0
  H  H1359  1  0.185300  0.218500  0.028100  1.0
  H  H1360  1  0.814700  0.218500  0.471900  1.0
  H  H1361  1  0.273500  0.236000  0.067900  1.0
  H  H1362  1  0.726500  0.236000  0.432100  1.0
  H  H1363  1  0.773500  0.736000  0.067900  1.0
  H  H1364  1  0.226500  0.736000  0.432100  1.0
  H  H1365  1  0.726500  0.764000  0.932100  1.0
  H  H1366  1  0.273500  0.764000  0.567900  1.0
  H  H1367  1  0.226500  0.264000  0.932100  1.0
  H  H1368  1  0.773500  0.264000  0.567900  1.0
  H  H1369  1  0.280700  0.276200  0.071100  1.0
  H  H1370  1  0.719300  0.276200  0.428900  1.0
  H  H1371  1  0.780700  0.776200  0.071100  1.0
  H  H1372  1  0.219300  0.776200  0.428900  1.0
  H  H1373  1  0.719300  0.723800  0.928900  1.0
  H  H1374  1  0.280700  0.723800  0.571100  1.0
  H  H1375  1  0.219300  0.223800  0.928900  1.0
  H  H1376  1  0.780700  0.223800  0.571100  1.0
  H  H1377  1  0.344100  0.232000  0.104500  1.0
  H  H1378  1  0.655900  0.232000  0.395500  1.0
  H  H1379  1  0.844100  0.732000  0.104500  1.0
  H  H1380  1  0.155900  0.732000  0.395500  1.0
  H  H1381  1  0.655900  0.768000  0.895500  1.0
  H  H1382  1  0.344100  0.768000  0.604500  1.0
  H  H1383  1  0.155900  0.268000  0.895500  1.0
  H  H1384  1  0.844100  0.268000  0.604500  1.0
  H  H1385  1  0.454300  0.182800  0.069300  1.0
  H  H1386  1  0.545700  0.182800  0.430700  1.0
  H  H1387  1  0.954300  0.682800  0.069300  1.0
  H  H1388  1  0.045700  0.682800  0.430700  1.0
  H  H1389  1  0.545700  0.817200  0.930700  1.0
  H  H1390  1  0.454300  0.817200  0.569300  1.0
  H  H1391  1  0.045700  0.317200  0.930700  1.0
  H  H1392  1  0.954300  0.317200  0.569300  1.0
  H  H1393  1  0.526300  0.161200  0.049000  1.0
  H  H1394  1  0.473700  0.161200  0.451000  1.0
  H  H1395  1  0.026300  0.661200  0.049000  1.0
  H  H1396  1  0.973700  0.661200  0.451000  1.0
  H  H1397  1  0.473700  0.838800  0.951000  1.0
  H  H1398  1  0.526300  0.838800  0.549000  1.0
  H  H1399  1  0.973700  0.338800  0.951000  1.0
  H  H1400  1  0.026300  0.338800  0.549000  1.0
  H  H1401  1  0.559200  0.180300  0.998200  1.0
  H  H1402  1  0.440800  0.180300  0.501800  1.0
  H  H1403  1  0.059200  0.680300  0.998200  1.0
  H  H1404  1  0.940800  0.680300  0.501800  1.0
  H  H1405  1  0.440800  0.819700  0.001800  1.0
  H  H1406  1  0.559200  0.819700  0.498200  1.0
  H  H1407  1  0.940800  0.319700  0.001800  1.0
  H  H1408  1  0.059200  0.319700  0.498200  1.0
  H  H1409  1  0.524800  0.206200  0.972600  1.0
  H  H1410  1  0.475200  0.206200  0.527400  1.0
  H  H1411  1  0.024800  0.706200  0.972600  1.0
  H  H1412  1  0.975200  0.706200  0.527400  1.0
  H  H1413  1  0.475200  0.793800  0.027400  1.0
  H  H1414  1  0.524800  0.793800  0.472600  1.0
  H  H1415  1  0.975200  0.293800  0.027400  1.0
  H  H1416  1  0.024800  0.293800  0.472600  1.0
  H  H1417  1  0.582300  0.137200  0.866400  1.0
  H  H1418  1  0.417700  0.137200  0.633600  1.0
  H  H1419  1  0.082300  0.637200  0.866400  1.0
  H  H1420  1  0.917700  0.637200  0.633600  1.0
  H  H1421  1  0.417700  0.862800  0.133600  1.0
  H  H1422  1  0.582300  0.862800  0.366400  1.0
  H  H1423  1  0.917700  0.362800  0.133600  1.0
  H  H1424  1  0.082300  0.362800  0.366400  1.0
  H  H1425  1  0.614300  0.179800  0.905000  1.0
  H  H1426  1  0.385700  0.179800  0.595000  1.0
  H  H1427  1  0.114300  0.679800  0.905000  1.0
  H  H1428  1  0.885700  0.679800  0.595000  1.0
  H  H1429  1  0.385700  0.820200  0.095000  1.0
  H  H1430  1  0.614300  0.820200  0.405000  1.0
  H  H1431  1  0.885700  0.320200  0.095000  1.0
  H  H1432  1  0.114300  0.320200  0.405000  1.0
  H  H1433  1  0.579300  0.188500  0.948300  1.0
  H  H1434  1  0.420700  0.188500  0.551700  1.0
  H  H1435  1  0.079300  0.688500  0.948300  1.0
  H  H1436  1  0.920700  0.688500  0.551700  1.0
  H  H1437  1  0.420700  0.811500  0.051700  1.0
  H  H1438  1  0.579300  0.811500  0.448300  1.0
  H  H1439  1  0.920700  0.311500  0.051700  1.0
  H  H1440  1  0.079300  0.311500  0.448300  1.0
  H  H1441  1  0.454400  0.088500  0.899400  1.0
  H  H1442  1  0.545600  0.088500  0.600600  1.0
  H  H1443  1  0.954400  0.588500  0.899400  1.0
  H  H1444  1  0.045600  0.588500  0.600600  1.0
  H  H1445  1  0.545600  0.911500  0.100600  1.0
  H  H1446  1  0.454400  0.911500  0.399400  1.0
  H  H1447  1  0.045600  0.411500  0.100600  1.0
  H  H1448  1  0.954400  0.411500  0.399400  1.0
  H  H1449  1  0.419400  0.097300  0.942600  1.0
  H  H1450  1  0.580600  0.097300  0.557400  1.0
  H  H1451  1  0.919400  0.597300  0.942600  1.0
  H  H1452  1  0.080600  0.597300  0.557400  1.0
  H  H1453  1  0.580600  0.902700  0.057400  1.0
  H  H1454  1  0.419400  0.902700  0.442600  1.0
  H  H1455  1  0.080600  0.402700  0.057400  1.0
  H  H1456  1  0.919400  0.402700  0.442600  1.0
  H  H1457  1  0.451400  0.139800  0.981200  1.0
  H  H1458  1  0.548600  0.139800  0.518800  1.0
  H  H1459  1  0.951400  0.639800  0.981200  1.0
  H  H1460  1  0.048600  0.639800  0.518800  1.0
  H  H1461  1  0.548600  0.860200  0.018800  1.0
  H  H1462  1  0.451400  0.860200  0.481200  1.0
  H  H1463  1  0.048600  0.360200  0.018800  1.0
  H  H1464  1  0.951400  0.360200  0.481200  1.0
  H  H1465  1  0.163900  0.146900  0.092700  1.0
  H  H1466  1  0.836100  0.146900  0.407300  1.0
  H  H1467  1  0.663900  0.646900  0.092700  1.0
  H  H1468  1  0.336100  0.646900  0.407300  1.0
  H  H1469  1  0.836100  0.853100  0.907300  1.0
  H  H1470  1  0.163900  0.853100  0.592700  1.0
  H  H1471  1  0.336100  0.353100  0.907300  1.0
  H  H1472  1  0.663900  0.353100  0.592700  1.0
  H  H1473  1  0.248600  0.224900  0.140800  1.0
  H  H1474  1  0.751400  0.224900  0.359200  1.0
  H  H1475  1  0.748600  0.724900  0.140800  1.0
  H  H1476  1  0.251400  0.724900  0.359200  1.0
  H  H1477  1  0.751400  0.775100  0.859200  1.0
  H  H1478  1  0.248600  0.775100  0.640800  1.0
  H  H1479  1  0.251400  0.275100  0.859200  1.0
  H  H1480  1  0.748600  0.275100  0.640800  1.0
  H  H1481  1  0.194500  0.263300  0.105800  1.0
  H  H1482  1  0.805500  0.263300  0.394200  1.0
  H  H1483  1  0.694500  0.763300  0.105800  1.0
  H  H1484  1  0.305500  0.763300  0.394200  1.0
  H  H1485  1  0.805500  0.736700  0.894200  1.0
  H  H1486  1  0.194500  0.736700  0.605800  1.0
  H  H1487  1  0.305500  0.236700  0.894200  1.0
  H  H1488  1  0.694500  0.236700  0.605800  1.0
  H  H1489  1  0.226600  0.148800  0.160900  1.0
  H  H1490  1  0.773400  0.148800  0.339100  1.0
  H  H1491  1  0.726600  0.648800  0.160900  1.0
  H  H1492  1  0.273400  0.648800  0.339100  1.0
  H  H1493  1  0.773400  0.851200  0.839100  1.0
  H  H1494  1  0.226600  0.851200  0.660900  1.0
  H  H1495  1  0.273400  0.351200  0.839100  1.0
  H  H1496  1  0.726600  0.351200  0.660900  1.0
  H  H1497  1  0.258700  0.139500  0.136100  1.0
  H  H1498  1  0.741300  0.139500  0.363900  1.0
  H  H1499  1  0.758700  0.639500  0.136100  1.0
  H  H1500  1  0.241300  0.639500  0.363900  1.0
  H  H1501  1  0.741300  0.860500  0.863900  1.0
  H  H1502  1  0.258700  0.860500  0.636100  1.0
  H  H1503  1  0.241300  0.360500  0.863900  1.0
  H  H1504  1  0.758700  0.360500  0.636100  1.0
  H  H1505  1  0.304800  0.163600  0.180200  1.0
  H  H1506  1  0.695200  0.163600  0.319800  1.0
  H  H1507  1  0.804800  0.663600  0.180200  1.0
  H  H1508  1  0.195200  0.663600  0.319800  1.0
  H  H1509  1  0.695200  0.836400  0.819800  1.0
  H  H1510  1  0.304800  0.836400  0.680200  1.0
  H  H1511  1  0.195200  0.336400  0.819800  1.0
  H  H1512  1  0.804800  0.336400  0.680200  1.0
  H  H1513  1  0.087700  0.131100  0.046400  1.0
  H  H1514  1  0.912300  0.131100  0.453600  1.0
  H  H1515  1  0.587700  0.631100  0.046400  1.0
  H  H1516  1  0.412300  0.631100  0.453600  1.0
  H  H1517  1  0.912300  0.868900  0.953600  1.0
  H  H1518  1  0.087700  0.868900  0.546400  1.0
  H  H1519  1  0.412300  0.368900  0.953600  1.0
  H  H1520  1  0.587700  0.368900  0.546400  1.0
  H  H1521  1  0.004400  0.141300  0.003000  1.0
  H  H1522  1  0.995600  0.141300  0.497000  1.0
  H  H1523  1  0.504400  0.641300  0.003000  1.0
  H  H1524  1  0.495600  0.641300  0.497000  1.0
  H  H1525  1  0.995600  0.858700  0.997000  1.0
  H  H1526  1  0.004400  0.858700  0.503000  1.0
  H  H1527  1  0.495600  0.358700  0.997000  1.0
  H  H1528  1  0.504400  0.358700  0.503000  1.0
  H  H1529  1  0.974700  0.233600  0.000200  1.0
  H  H1530  1  0.025300  0.233600  0.499800  1.0
  H  H1531  1  0.474700  0.733600  0.000200  1.0
  H  H1532  1  0.525300  0.733600  0.499800  1.0
  H  H1533  1  0.025300  0.766400  0.999800  1.0
  H  H1534  1  0.974700  0.766400  0.500200  1.0
  H  H1535  1  0.525300  0.266400  0.999800  1.0
  H  H1536  1  0.474700  0.266400  0.500200  1.0
  H  H1537  1  0.947600  0.198700  0.986200  1.0
  H  H1538  1  0.052400  0.198700  0.513800  1.0
  H  H1539  1  0.447600  0.698700  0.986200  1.0
  H  H1540  1  0.552400  0.698700  0.513800  1.0
  H  H1541  1  0.052400  0.801300  0.013800  1.0
  H  H1542  1  0.947600  0.801300  0.486200  1.0
  H  H1543  1  0.552400  0.301300  0.013800  1.0
  H  H1544  1  0.447600  0.301300  0.486200  1.0
  H  H1545  1  0.775200  0.379000  0.769400  1.0
  H  H1546  1  0.224800  0.379000  0.730600  1.0
  H  H1547  1  0.275200  0.879000  0.769400  1.0
  H  H1548  1  0.724800  0.879000  0.730600  1.0
  H  H1549  1  0.224800  0.621000  0.230600  1.0
  H  H1550  1  0.775200  0.621000  0.269400  1.0
  H  H1551  1  0.724800  0.121000  0.230600  1.0
  H  H1552  1  0.275200  0.121000  0.269400  1.0
  H  H1553  1  0.670000  0.320200  0.707300  1.0
  H  H1554  1  0.330000  0.320200  0.792700  1.0
  H  H1555  1  0.170000  0.820200  0.707300  1.0
  H  H1556  1  0.830000  0.820200  0.792700  1.0
  H  H1557  1  0.330000  0.679800  0.292700  1.0
  H  H1558  1  0.670000  0.679800  0.207300  1.0
  H  H1559  1  0.830000  0.179800  0.292700  1.0
  H  H1560  1  0.170000  0.179800  0.207300  1.0
  H  H1561  1  0.716700  0.271800  0.728900  1.0
  H  H1562  1  0.283300  0.271800  0.771100  1.0
  H  H1563  1  0.216700  0.771800  0.728900  1.0
  H  H1564  1  0.783300  0.771800  0.771100  1.0
  H  H1565  1  0.283300  0.728200  0.271100  1.0
  H  H1566  1  0.716700  0.728200  0.228900  1.0
  H  H1567  1  0.783300  0.228200  0.271100  1.0
  H  H1568  1  0.216700  0.228200  0.228900  1.0
  H  H1569  1  0.709300  0.402200  0.718300  1.0
  H  H1570  1  0.290700  0.402200  0.781700  1.0
  H  H1571  1  0.209300  0.902200  0.718300  1.0
  H  H1572  1  0.790700  0.902200  0.781700  1.0
  H  H1573  1  0.290700  0.597800  0.281700  1.0
  H  H1574  1  0.709300  0.597800  0.218300  1.0
  H  H1575  1  0.790700  0.097800  0.281700  1.0
  H  H1576  1  0.209300  0.097800  0.218300  1.0
  H  H1577  1  0.673500  0.393600  0.740900  1.0
  H  H1578  1  0.326500  0.393600  0.759100  1.0
  H  H1579  1  0.173500  0.893600  0.740900  1.0
  H  H1580  1  0.826500  0.893600  0.759100  1.0
  H  H1581  1  0.326500  0.606400  0.259100  1.0
  H  H1582  1  0.673500  0.606400  0.240900  1.0
  H  H1583  1  0.826500  0.106400  0.259100  1.0
  H  H1584  1  0.173500  0.106400  0.240900  1.0
  H  H1585  1  0.628500  0.363800  0.700400  1.0
  H  H1586  1  0.371500  0.363800  0.799600  1.0
  H  H1587  1  0.128500  0.863800  0.700400  1.0
  H  H1588  1  0.871500  0.863800  0.799600  1.0
  H  H1589  1  0.371500  0.636200  0.299600  1.0
  H  H1590  1  0.628500  0.636200  0.200400  1.0
  H  H1591  1  0.871500  0.136200  0.299600  1.0
  H  H1592  1  0.128500  0.136200  0.200400  1.0
  H  H1593  1  0.860600  0.381100  0.808900  1.0
  H  H1594  1  0.139400  0.381100  0.691100  1.0
  H  H1595  1  0.360600  0.881100  0.808900  1.0
  H  H1596  1  0.639400  0.881100  0.691100  1.0
  H  H1597  1  0.139400  0.618900  0.191100  1.0
  H  H1598  1  0.860600  0.618900  0.308900  1.0
  H  H1599  1  0.639400  0.118900  0.191100  1.0
  H  H1600  1  0.360600  0.118900  0.308900  1.0
  H  H1601  1  0.940500  0.356700  0.847600  1.0
  H  H1602  1  0.059500  0.356700  0.652400  1.0
  H  H1603  1  0.440500  0.856700  0.847600  1.0
  H  H1604  1  0.559500  0.856700  0.652400  1.0
  H  H1605  1  0.059500  0.643300  0.152400  1.0
  H  H1606  1  0.940500  0.643300  0.347600  1.0
  H  H1607  1  0.559500  0.143300  0.152400  1.0
  H  H1608  1  0.440500  0.143300  0.347600  1.0
  H  H1609  1  0.941100  0.263500  0.838900  1.0
  H  H1610  1  0.058900  0.263500  0.661100  1.0
  H  H1611  1  0.441100  0.763500  0.838900  1.0
  H  H1612  1  0.558900  0.763500  0.661100  1.0
  H  H1613  1  0.058900  0.736500  0.161100  1.0
  H  H1614  1  0.941100  0.736500  0.338900  1.0
  H  H1615  1  0.558900  0.236500  0.161100  1.0
  H  H1616  1  0.441100  0.236500  0.338900  1.0
  H  H1617  1  0.976800  0.293400  0.857600  1.0
  H  H1618  1  0.023200  0.293400  0.642400  1.0
  H  H1619  1  0.476800  0.793400  0.857600  1.0
  H  H1620  1  0.523200  0.793400  0.642400  1.0
  H  H1621  1  0.023200  0.706600  0.142400  1.0
  H  H1622  1  0.976800  0.706600  0.357600  1.0
  H  H1623  1  0.523200  0.206600  0.142400  1.0
  H  H1624  1  0.476800  0.206600  0.357600  1.0
  H  H1625  1  0.049200  0.189600  0.961900  1.0
  H  H1626  1  0.950800  0.189600  0.538100  1.0
  H  H1627  1  0.549200  0.689600  0.961900  1.0
  H  H1628  1  0.450800  0.689600  0.538100  1.0
  H  H1629  1  0.950800  0.810400  0.038100  1.0
  H  H1630  1  0.049200  0.810400  0.461900  1.0
  H  H1631  1  0.450800  0.310400  0.038100  1.0
  H  H1632  1  0.549200  0.310400  0.461900  1.0
  H  H1633  1  0.063000  0.202500  0.912400  1.0
  H  H1634  1  0.937000  0.202500  0.587600  1.0
  H  H1635  1  0.563000  0.702500  0.912400  1.0
  H  H1636  1  0.437000  0.702500  0.587600  1.0
  H  H1637  1  0.937000  0.797500  0.087600  1.0
  H  H1638  1  0.063000  0.797500  0.412400  1.0
  H  H1639  1  0.437000  0.297500  0.087600  1.0
  H  H1640  1  0.563000  0.297500  0.412400  1.0
  H  H1641  1  0.009900  0.239100  0.875500  1.0
  H  H1642  1  0.990100  0.239100  0.624500  1.0
  H  H1643  1  0.509900  0.739100  0.875500  1.0
  H  H1644  1  0.490100  0.739100  0.624500  1.0
  H  H1645  1  0.990100  0.760900  0.124500  1.0
  H  H1646  1  0.009900  0.760900  0.375500  1.0
  H  H1647  1  0.490100  0.260900  0.124500  1.0
  H  H1648  1  0.509900  0.260900  0.375500  1.0
  H  H1649  1  0.907500  0.252100  0.963400  1.0
  H  H1650  1  0.092500  0.252100  0.536600  1.0
  H  H1651  1  0.407500  0.752100  0.963400  1.0
  H  H1652  1  0.592500  0.752100  0.536600  1.0
  H  H1653  1  0.092500  0.747900  0.036600  1.0
  H  H1654  1  0.907500  0.747900  0.463400  1.0
  H  H1655  1  0.592500  0.247900  0.036600  1.0
  H  H1656  1  0.407500  0.247900  0.463400  1.0
  H  H1657  1  0.858000  0.293100  0.929200  1.0
  H  H1658  1  0.142000  0.293100  0.570800  1.0
  H  H1659  1  0.358000  0.793100  0.929200  1.0
  H  H1660  1  0.642000  0.793100  0.570800  1.0
  H  H1661  1  0.142000  0.706900  0.070800  1.0
  H  H1662  1  0.858000  0.706900  0.429200  1.0
  H  H1663  1  0.642000  0.206900  0.070800  1.0
  H  H1664  1  0.358000  0.206900  0.429200  1.0
  H  H1665  1  0.872600  0.305700  0.877600  1.0
  H  H1666  1  0.127400  0.305700  0.622400  1.0
  H  H1667  1  0.372600  0.805700  0.877600  1.0
  H  H1668  1  0.627400  0.805700  0.622400  1.0
  H  H1669  1  0.127400  0.694300  0.122400  1.0
  H  H1670  1  0.872600  0.694300  0.377600  1.0
  H  H1671  1  0.627400  0.194300  0.122400  1.0
  H  H1672  1  0.372600  0.194300  0.377600  1.0
  C  C1673  1  0.104400  0.057000  0.173700  1
  C  C1674  1  0.895600  0.057000  0.326300  1
  C  C1675  1  0.604400  0.557000  0.173700  1
  C  C1676  1  0.395600  0.557000  0.326300  1
  C  C1677  1  0.895600  0.943000  0.826300  1
  C  C1678  1  0.104400  0.943000  0.673700  1
  C  C1679  1  0.395600  0.443000  0.826300  1
  C  C1680  1  0.604400  0.443000  0.673700  1
  C  C1681  1  0.103700  0.256300  0.206600  1
  C  C1682  1  0.896300  0.256300  0.293400  1
  C  C1683  1  0.603700  0.756300  0.206600  1
  C  C1684  1  0.396300  0.756300  0.293400  1
  C  C1685  1  0.896300  0.743700  0.793400  1
  C  C1686  1  0.103700  0.743700  0.706600  1
  C  C1687  1  0.396300  0.243700  0.793400  1
  C  C1688  1  0.603700  0.243700  0.706600  1
  C  C1689  1  0.233600  0.142800  0.041200  1
  C  C1690  1  0.766400  0.142800  0.458800  1
  C  C1691  1  0.733600  0.642800  0.041200  1
  C  C1692  1  0.266400  0.642800  0.458800  1
  C  C1693  1  0.766400  0.857200  0.958800  1
  C  C1694  1  0.233600  0.857200  0.541200  1
  C  C1695  1  0.266400  0.357200  0.958800  1
  C  C1696  1  0.733600  0.357200  0.541200  1
  C  C1697  1  0.352900  0.128500  0.020700  1
  C  C1698  1  0.647100  0.128500  0.479300  1
  C  C1699  1  0.852900  0.628500  0.020700  1
  C  C1700  1  0.147100  0.628500  0.479300  1
  C  C1701  1  0.647100  0.871500  0.979300  1
  C  C1702  1  0.352900  0.871500  0.520700  1
  C  C1703  1  0.147100  0.371500  0.979300  1
  C  C1704  1  0.852900  0.371500  0.520700  1
  C  C1705  1  0.338300  0.107000  0.198800  1
  C  C1706  1  0.661700  0.107000  0.301200  1
  C  C1707  1  0.838300  0.607000  0.198800  1
  C  C1708  1  0.161700  0.607000  0.301200  1
  C  C1709  1  0.661700  0.893000  0.801200  1
  C  C1710  1  0.338300  0.893000  0.698800  1
  C  C1711  1  0.161700  0.393000  0.801200  1
  C  C1712  1  0.838300  0.393000  0.698800  1
  C  C1713  1  0.458300  0.067300  0.057800  1
  C  C1714  1  0.541700  0.067300  0.442200  1
  C  C1715  1  0.958300  0.567300  0.057800  1
  C  C1716  1  0.041700  0.567300  0.442200  1
  C  C1717  1  0.541700  0.932700  0.942200  1
  C  C1718  1  0.458300  0.932700  0.557800  1
  C  C1719  1  0.041700  0.432700  0.942200  1
  C  C1720  1  0.958300  0.432700  0.557800  1
  C  C1721  1  0.927170  0.113490  0.144450  1.0
  C  C1722  1  0.072830  0.113490  0.355550  1.0
  C  C1723  1  0.427170  0.613490  0.144450  1.0
  C  C1724  1  0.572830  0.613490  0.355550  1.0
  C  C1725  1  0.072830  0.886510  0.855550  1.0
  C  C1726  1  0.927170  0.886510  0.644450  1.0
  C  C1727  1  0.572830  0.386510  0.855550  1.0
  C  C1728  1  0.427170  0.386510  0.644450  1.0
  C  C1729  1  0.952200  0.142480  0.159170  1.0
  C  C1730  1  0.047800  0.142480  0.340830  1.0
  C  C1731  1  0.452200  0.642480  0.159170  1.0
  C  C1732  1  0.547800  0.642480  0.340830  1.0
  C  C1733  1  0.047800  0.857520  0.840830  1.0
  C  C1734  1  0.952200  0.857520  0.659170  1.0
  C  C1735  1  0.547800  0.357520  0.840830  1.0
  C  C1736  1  0.452200  0.357520  0.659170  1.0
  C  C1737  1  0.998400  0.139780  0.183020  1.0
  C  C1738  1  0.001600  0.139780  0.316980  1.0
  C  C1739  1  0.498400  0.639780  0.183020  1.0
  C  C1740  1  0.501600  0.639780  0.316980  1.0
  C  C1741  1  0.001600  0.860220  0.816980  1.0
  C  C1742  1  0.998400  0.860220  0.683020  1.0
  C  C1743  1  0.501600  0.360220  0.816980  1.0
  C  C1744  1  0.498400  0.360220  0.683020  1.0
  C  C1745  1  0.019700  0.108080  0.192130  1.0
  C  C1746  1  0.980300  0.108080  0.307870  1.0
  C  C1747  1  0.519700  0.608080  0.192130  1.0
  C  C1748  1  0.480300  0.608080  0.307870  1.0
  C  C1749  1  0.980300  0.891920  0.807870  1.0
  C  C1750  1  0.019700  0.891920  0.692130  1.0
  C  C1751  1  0.480300  0.391920  0.807870  1.0
  C  C1752  1  0.519700  0.391920  0.692130  1.0
  C  C1753  1  0.994700  0.079090  0.177410  1.0
  C  C1754  1  0.005300  0.079090  0.322590  1.0
  C  C1755  1  0.494700  0.579090  0.177410  1.0
  C  C1756  1  0.505300  0.579090  0.322590  1.0
  C  C1757  1  0.005300  0.920910  0.822590  1.0
  C  C1758  1  0.994700  0.920910  0.677410  1.0
  C  C1759  1  0.505300  0.420910  0.822590  1.0
  C  C1760  1  0.494700  0.420910  0.677410  1.0
  C  C1761  1  0.880200  0.114590  0.122660  1.0
  C  C1762  1  0.119800  0.114590  0.377340  1.0
  C  C1763  1  0.380200  0.614590  0.122660  1.0
  C  C1764  1  0.619800  0.614590  0.377340  1.0
  C  C1765  1  0.119800  0.885410  0.877340  1.0
  C  C1766  1  0.880200  0.885410  0.622660  1.0
  C  C1767  1  0.619800  0.385410  0.877340  1.0
  C  C1768  1  0.380200  0.385410  0.622660  1.0
  C  C1769  1  0.846800  0.141650  0.109140  1.0
  C  C1770  1  0.153200  0.141650  0.390860  1.0
  C  C1771  1  0.346800  0.641650  0.109140  1.0
  C  C1772  1  0.653200  0.641650  0.390860  1.0
  C  C1773  1  0.153200  0.858350  0.890860  1.0
  C  C1774  1  0.846800  0.858350  0.609140  1.0
  C  C1775  1  0.653200  0.358350  0.890860  1.0
  C  C1776  1  0.346800  0.358350  0.609140  1.0
  C  C1777  1  0.801900  0.127550  0.088040  1.0
  C  C1778  1  0.198100  0.127550  0.411960  1.0
  C  C1779  1  0.301900  0.627550  0.088040  1.0
  C  C1780  1  0.698100  0.627550  0.411960  1.0
  C  C1781  1  0.198100  0.872450  0.911960  1.0
  C  C1782  1  0.801900  0.872450  0.588040  1.0
  C  C1783  1  0.698100  0.372450  0.911960  1.0
  C  C1784  1  0.301900  0.372450  0.588040  1.0
  C  C1785  1  0.773400  0.067700  0.068800  1.0
  C  C1786  1  0.226600  0.067700  0.431200  1.0
  C  C1787  1  0.273400  0.567700  0.068800  1.0
  C  C1788  1  0.726600  0.567700  0.431200  1.0
  C  C1789  1  0.226600  0.932300  0.931200  1.0
  C  C1790  1  0.773400  0.932300  0.568800  1.0
  C  C1791  1  0.726600  0.432300  0.931200  1.0
  C  C1792  1  0.273400  0.432300  0.568800  1.0
  C  C1793  1  0.590600  0.963100  0.854000  1.0
  C  C1794  1  0.409400  0.963100  0.646000  1.0
  C  C1795  1  0.090600  0.463100  0.854000  1.0
  C  C1796  1  0.909400  0.463100  0.646000  1.0
  C  C1797  1  0.409400  0.036900  0.146000  1.0
  C  C1798  1  0.590600  0.036900  0.354000  1.0
  C  C1799  1  0.909400  0.536900  0.146000  1.0
  C  C1800  1  0.090600  0.536900  0.354000  1.0
  C  C1801  1  0.560200  0.936090  0.839300  1.0
  C  C1802  1  0.439800  0.936090  0.660700  1.0
  C  C1803  1  0.060200  0.436090  0.839300  1.0
  C  C1804  1  0.939800  0.436090  0.660700  1.0
  C  C1805  1  0.439800  0.063910  0.160700  1.0
  C  C1806  1  0.560200  0.063910  0.339300  1.0
  C  C1807  1  0.939800  0.563910  0.160700  1.0
  C  C1808  1  0.060200  0.563910  0.339300  1.0
  C  C1809  1  0.512300  0.942000  0.818300  1.0
  C  C1810  1  0.487700  0.942000  0.681700  1.0
  C  C1811  1  0.012300  0.442000  0.818300  1.0
  C  C1812  1  0.987700  0.442000  0.681700  1.0
  C  C1813  1  0.487700  0.058000  0.181700  1.0
  C  C1814  1  0.512300  0.058000  0.318300  1.0
  C  C1815  1  0.987700  0.558000  0.181700  1.0
  C  C1816  1  0.012300  0.558000  0.318300  1.0
  C  C1817  1  0.494600  0.975000  0.812000  1.0
  C  C1818  1  0.505400  0.975000  0.688000  1.0
  C  C1819  1  0.994600  0.475000  0.812000  1.0
  C  C1820  1  0.005400  0.475000  0.688000  1.0
  C  C1821  1  0.505400  0.025000  0.188000  1.0
  C  C1822  1  0.494600  0.025000  0.312000  1.0
  C  C1823  1  0.005400  0.525000  0.188000  1.0
  C  C1824  1  0.994600  0.525000  0.312000  1.0
  C  C1825  1  0.524900  0.002080  0.826700  1.0
  C  C1826  1  0.475100  0.002080  0.673300  1.0
  C  C1827  1  0.024900  0.502080  0.826700  1.0
  C  C1828  1  0.975100  0.502080  0.673300  1.0
  C  C1829  1  0.475100  0.997920  0.173300  1.0
  C  C1830  1  0.524900  0.997920  0.326700  1.0
  C  C1831  1  0.975100  0.497920  0.173300  1.0
  C  C1832  1  0.024900  0.497920  0.326700  1.0
  C  C1833  1  0.635700  0.958400  0.876400  1.0
  C  C1834  1  0.364300  0.958400  0.623600  1.0
  C  C1835  1  0.135700  0.458400  0.876400  1.0
  C  C1836  1  0.864300  0.458400  0.623600  1.0
  C  C1837  1  0.364300  0.041600  0.123600  1.0
  C  C1838  1  0.635700  0.041600  0.376400  1.0
  C  C1839  1  0.864300  0.541600  0.123600  1.0
  C  C1840  1  0.135700  0.541600  0.376400  1.0
  C  C1841  1  0.666300  0.929580  0.888400  1.0
  C  C1842  1  0.333700  0.929580  0.611600  1.0
  C  C1843  1  0.166300  0.429580  0.888400  1.0
  C  C1844  1  0.833700  0.429580  0.611600  1.0
  C  C1845  1  0.333700  0.070420  0.111600  1.0
  C  C1846  1  0.666300  0.070420  0.388400  1.0
  C  C1847  1  0.833700  0.570420  0.111600  1.0
  C  C1848  1  0.166300  0.570420  0.388400  1.0
  C  C1849  1  0.712600  0.941090  0.910000  1.0
  C  C1850  1  0.287400  0.941090  0.590000  1.0
  C  C1851  1  0.212600  0.441090  0.910000  1.0
  C  C1852  1  0.787400  0.441090  0.590000  1.0
  C  C1853  1  0.287400  0.058910  0.090000  1.0
  C  C1854  1  0.712600  0.058910  0.410000  1.0
  C  C1855  1  0.787400  0.558910  0.090000  1.0
  C  C1856  1  0.212600  0.558910  0.410000  1.0
  C  C1857  1  0.744000  0.998000  0.932100  1.0
  C  C1858  1  0.256000  0.998000  0.567900  1.0
  C  C1859  1  0.244000  0.498000  0.932100  1.0
  C  C1860  1  0.756000  0.498000  0.567900  1.0
  C  C1861  1  0.256000  0.002000  0.067900  1.0
  C  C1862  1  0.744000  0.002000  0.432100  1.0
  C  C1863  1  0.756000  0.502000  0.067900  1.0
  C  C1864  1  0.244000  0.502000  0.432100  1.0
  C  C1865  1  0.782100  0.059940  0.036390  1.0
  C  C1866  1  0.217900  0.059940  0.463610  1.0
  C  C1867  1  0.282100  0.559940  0.036390  1.0
  C  C1868  1  0.717900  0.559940  0.463610  1.0
  C  C1869  1  0.217900  0.940060  0.963610  1.0
  C  C1870  1  0.782100  0.940060  0.536390  1.0
  C  C1871  1  0.717900  0.440060  0.963610  1.0
  C  C1872  1  0.282100  0.440060  0.536390  1.0
  C  C1873  1  0.823700  0.074330  0.029380  1.0
  C  C1874  1  0.176300  0.074330  0.470620  1.0
  C  C1875  1  0.323700  0.574330  0.029380  1.0
  C  C1876  1  0.676300  0.574330  0.470620  1.0
  C  C1877  1  0.176300  0.925670  0.970620  1.0
  C  C1878  1  0.823700  0.925670  0.529380  1.0
  C  C1879  1  0.676300  0.425670  0.970620  1.0
  C  C1880  1  0.323700  0.425670  0.529380  1.0
  C  C1881  1  0.834330  0.066380  0.000270  1.0
  C  C1882  1  0.165670  0.066380  0.499730  1.0
  C  C1883  1  0.334330  0.566380  0.000270  1.0
  C  C1884  1  0.665670  0.566380  0.499730  1.0
  C  C1885  1  0.165670  0.933620  0.999730  1.0
  C  C1886  1  0.834330  0.933620  0.500270  1.0
  C  C1887  1  0.665670  0.433620  0.999730  1.0
  C  C1888  1  0.334330  0.433620  0.500270  1.0
  C  C1889  1  0.803400  0.044060  0.978150  1.0
  C  C1890  1  0.196600  0.044060  0.521850  1.0
  C  C1891  1  0.303400  0.544060  0.978150  1.0
  C  C1892  1  0.696600  0.544060  0.521850  1.0
  C  C1893  1  0.196600  0.955940  0.021850  1.0
  C  C1894  1  0.803400  0.955940  0.478150  1.0
  C  C1895  1  0.696600  0.455940  0.021850  1.0
  C  C1896  1  0.303400  0.455940  0.478150  1.0
  C  C1897  1  0.761790  0.029680  0.985160  1.0
  C  C1898  1  0.238210  0.029680  0.514840  1.0
  C  C1899  1  0.261790  0.529680  0.985160  1.0
  C  C1900  1  0.738210  0.529680  0.514840  1.0
  C  C1901  1  0.238210  0.970320  0.014840  1.0
  C  C1902  1  0.761790  0.970320  0.485160  1.0
  C  C1903  1  0.738210  0.470320  0.014840  1.0
  C  C1904  1  0.261790  0.470320  0.485160  1.0
  C  C1905  1  0.751150  0.037620  0.014270  1.0
  C  C1906  1  0.248850  0.037620  0.485730  1.0
  C  C1907  1  0.251150  0.537620  0.014270  1.0
  C  C1908  1  0.748850  0.537620  0.485730  1.0
  C  C1909  1  0.248850  0.962380  0.985730  1.0
  C  C1910  1  0.751150  0.962380  0.514270  1.0
  C  C1911  1  0.748850  0.462380  0.985730  1.0
  C  C1912  1  0.251150  0.462380  0.514270  1.0
  C  C1913  1  0.709560  0.023240  0.021280  1.0
  C  C1914  1  0.290440  0.023240  0.478720  1.0
  C  C1915  1  0.209560  0.523240  0.021280  1.0
  C  C1916  1  0.790440  0.523240  0.478720  1.0
  C  C1917  1  0.290440  0.976760  0.978720  1.0
  C  C1918  1  0.709560  0.976760  0.521280  1.0
  C  C1919  1  0.790440  0.476760  0.978720  1.0
  C  C1920  1  0.209560  0.476760  0.521280  1.0
  C  C1921  1  0.678610  0.000910  0.999170  1.0
  C  C1922  1  0.321390  0.000910  0.500830  1.0
  C  C1923  1  0.178610  0.500910  0.999170  1.0
  C  C1924  1  0.821390  0.500910  0.500830  1.0
  C  C1925  1  0.321390  0.999090  0.000830  1.0
  C  C1926  1  0.678610  0.999090  0.499170  1.0
  C  C1927  1  0.821390  0.499090  0.000830  1.0
  C  C1928  1  0.178610  0.499090  0.499170  1.0
  C  C1929  1  0.689200  0.992970  0.970050  1.0
  C  C1930  1  0.310800  0.992970  0.529950  1.0
  C  C1931  1  0.189200  0.492970  0.970050  1.0
  C  C1932  1  0.810800  0.492970  0.529950  1.0
  C  C1933  1  0.310800  0.007030  0.029950  1.0
  C  C1934  1  0.689200  0.007030  0.470050  1.0
  C  C1935  1  0.810800  0.507030  0.029950  1.0
  C  C1936  1  0.189200  0.507030  0.470050  1.0
  C  C1937  1  0.730800  0.007350  0.963040  1.0
  C  C1938  1  0.269200  0.007350  0.536960  1.0
  C  C1939  1  0.230800  0.507350  0.963040  1.0
  C  C1940  1  0.769200  0.507350  0.536960  1.0
  C  C1941  1  0.269200  0.992650  0.036960  1.0
  C  C1942  1  0.730800  0.992650  0.463040  1.0
  C  C1943  1  0.769200  0.492650  0.036960  1.0
  C  C1944  1  0.230800  0.492650  0.463040  1.0
  C  C1945  1  0.873800  0.997020  0.066040  1.0
  C  C1946  1  0.126200  0.997020  0.433960  1.0
  C  C1947  1  0.373800  0.497020  0.066040  1.0
  C  C1948  1  0.626200  0.497020  0.433960  1.0
  C  C1949  1  0.126200  0.002980  0.933960  1.0
  C  C1950  1  0.873800  0.002980  0.566040  1.0
  C  C1951  1  0.626200  0.502980  0.933960  1.0
  C  C1952  1  0.373800  0.502980  0.566040  1.0
  C  C1953  1  0.846500  0.973890  0.043120  1.0
  C  C1954  1  0.153500  0.973890  0.456880  1.0
  C  C1955  1  0.346500  0.473890  0.043120  1.0
  C  C1956  1  0.653500  0.473890  0.456880  1.0
  C  C1957  1  0.153500  0.026110  0.956880  1.0
  C  C1958  1  0.846500  0.026110  0.543120  1.0
  C  C1959  1  0.653500  0.526110  0.956880  1.0
  C  C1960  1  0.346500  0.526110  0.543120  1.0
  C  C1961  1  0.805200  0.957290  0.048480  1.0
  C  C1962  1  0.194800  0.957290  0.451520  1.0
  C  C1963  1  0.305200  0.457290  0.048480  1.0
  C  C1964  1  0.694800  0.457290  0.451520  1.0
  C  C1965  1  0.194800  0.042710  0.951520  1.0
  C  C1966  1  0.805200  0.042710  0.548480  1.0
  C  C1967  1  0.694800  0.542710  0.951520  1.0
  C  C1968  1  0.305200  0.542710  0.548480  1.0
  C  C1969  1  0.791300  0.963810  0.076800  1.0
  C  C1970  1  0.208700  0.963810  0.423200  1.0
  C  C1971  1  0.291300  0.463810  0.076800  1.0
  C  C1972  1  0.708700  0.463810  0.423200  1.0
  C  C1973  1  0.208700  0.036190  0.923200  1.0
  C  C1974  1  0.791300  0.036190  0.576800  1.0
  C  C1975  1  0.708700  0.536190  0.923200  1.0
  C  C1976  1  0.291300  0.536190  0.576800  1.0
  C  C1977  1  0.818600  0.986930  0.099680  1.0
  C  C1978  1  0.181400  0.986930  0.400320  1.0
  C  C1979  1  0.318600  0.486930  0.099680  1.0
  C  C1980  1  0.681400  0.486930  0.400320  1.0
  C  C1981  1  0.181400  0.013070  0.900320  1.0
  C  C1982  1  0.818600  0.013070  0.599680  1.0
  C  C1983  1  0.681400  0.513070  0.900320  1.0
  C  C1984  1  0.318600  0.513070  0.599680  1.0
  C  C1985  1  0.776600  0.933100  0.022700  1.0
  C  C1986  1  0.223400  0.933100  0.477300  1.0
  C  C1987  1  0.276600  0.433100  0.022700  1.0
  C  C1988  1  0.723400  0.433100  0.477300  1.0
  C  C1989  1  0.223400  0.066900  0.977300  1.0
  C  C1990  1  0.776600  0.066900  0.522700  1.0
  C  C1991  1  0.723400  0.566900  0.977300  1.0
  C  C1992  1  0.276600  0.566900  0.522700  1.0
  C  C1993  1  0.914500  0.014210  0.061840  1.0
  C  C1994  1  0.085500  0.014210  0.438160  1.0
  C  C1995  1  0.414500  0.514210  0.061840  1.0
  C  C1996  1  0.585500  0.514210  0.438160  1.0
  C  C1997  1  0.085500  0.985790  0.938160  1.0
  C  C1998  1  0.914500  0.985790  0.561840  1.0
  C  C1999  1  0.585500  0.485790  0.938160  1.0
  C  C2000  1  0.414500  0.485790  0.561840  1.0
  C  C2001  1  0.943600  0.011120  0.039430  1.0
  C  C2002  1  0.056400  0.011120  0.460570  1.0
  C  C2003  1  0.443600  0.511120  0.039430  1.0
  C  C2004  1  0.556400  0.511120  0.460570  1.0
  C  C2005  1  0.056400  0.988880  0.960570  1.0
  C  C2006  1  0.943600  0.988880  0.539430  1.0
  C  C2007  1  0.556400  0.488880  0.960570  1.0
  C  C2008  1  0.443600  0.488880  0.539430  1.0
  C  C2009  1  0.985400  0.033490  0.049670  1.0
  C  C2010  1  0.014600  0.033490  0.450330  1.0
  C  C2011  1  0.485400  0.533490  0.049670  1.0
  C  C2012  1  0.514600  0.533490  0.450330  1.0
  C  C2013  1  0.014600  0.966510  0.950330  1.0
  C  C2014  1  0.985400  0.966510  0.549670  1.0
  C  C2015  1  0.514600  0.466510  0.950330  1.0
  C  C2016  1  0.485400  0.466510  0.549670  1.0
  C  C2017  1  0.010700  0.078800  0.094300  1.0
  C  C2018  1  0.989300  0.078800  0.405700  1.0
  C  C2019  1  0.510700  0.578800  0.094300  1.0
  C  C2020  1  0.489300  0.578800  0.405700  1.0
  C  C2021  1  0.989300  0.921200  0.905700  1.0
  C  C2022  1  0.010700  0.921200  0.594300  1.0
  C  C2023  1  0.489300  0.421200  0.905700  1.0
  C  C2024  1  0.510700  0.421200  0.594300  1.0
  C  C2025  1  0.125700  0.316850  0.090830  1.0
  C  C2026  1  0.874300  0.316850  0.409170  1.0
  C  C2027  1  0.625700  0.816850  0.090830  1.0
  C  C2028  1  0.374300  0.816850  0.409170  1.0
  C  C2029  1  0.874300  0.683150  0.909170  1.0
  C  C2030  1  0.125700  0.683150  0.590830  1.0
  C  C2031  1  0.374300  0.183150  0.909170  1.0
  C  C2032  1  0.625700  0.183150  0.590830  1.0
  C  C2033  1  0.155700  0.342770  0.108230  1.0
  C  C2034  1  0.844300  0.342770  0.391770  1.0
  C  C2035  1  0.655700  0.842770  0.108230  1.0
  C  C2036  1  0.344300  0.842770  0.391770  1.0
  C  C2037  1  0.844300  0.657230  0.891770  1.0
  C  C2038  1  0.155700  0.657230  0.608230  1.0
  C  C2039  1  0.344300  0.157230  0.891770  1.0
  C  C2040  1  0.655700  0.157230  0.608230  1.0
  C  C2041  1  0.194600  0.355970  0.097400  1.0
  C  C2042  1  0.805400  0.355970  0.402600  1.0
  C  C2043  1  0.694600  0.855970  0.097400  1.0
  C  C2044  1  0.305400  0.855970  0.402600  1.0
  C  C2045  1  0.805400  0.644030  0.902600  1.0
  C  C2046  1  0.194600  0.644030  0.597400  1.0
  C  C2047  1  0.305400  0.144030  0.902600  1.0
  C  C2048  1  0.694600  0.144030  0.597400  1.0
  C  C2049  1  0.203600  0.343200  0.069100  1.0
  C  C2050  1  0.796400  0.343200  0.430900  1.0
  C  C2051  1  0.703600  0.843200  0.069100  1.0
  C  C2052  1  0.296400  0.843200  0.430900  1.0
  C  C2053  1  0.796400  0.656800  0.930900  1.0
  C  C2054  1  0.203600  0.656800  0.569100  1.0
  C  C2055  1  0.296400  0.156800  0.930900  1.0
  C  C2056  1  0.703600  0.156800  0.569100  1.0
  C  C2057  1  0.173500  0.317320  0.051730  1.0
  C  C2058  1  0.826500  0.317320  0.448270  1.0
  C  C2059  1  0.673500  0.817320  0.051730  1.0
  C  C2060  1  0.326500  0.817320  0.448270  1.0
  C  C2061  1  0.826500  0.682680  0.948270  1.0
  C  C2062  1  0.173500  0.682680  0.551730  1.0
  C  C2063  1  0.326500  0.182680  0.948270  1.0
  C  C2064  1  0.673500  0.182680  0.551730  1.0
  C  C2065  1  0.222800  0.385600  0.119100  1.0
  C  C2066  1  0.777200  0.385600  0.380900  1.0
  C  C2067  1  0.722800  0.885600  0.119100  1.0
  C  C2068  1  0.277200  0.885600  0.380900  1.0
  C  C2069  1  0.777200  0.614400  0.880900  1.0
  C  C2070  1  0.222800  0.614400  0.619100  1.0
  C  C2071  1  0.277200  0.114400  0.880900  1.0
  C  C2072  1  0.722800  0.114400  0.619100  1.0
  C  C2073  1  0.086900  0.302630  0.099700  1.0
  C  C2074  1  0.913100  0.302630  0.400300  1.0
  C  C2075  1  0.586900  0.802630  0.099700  1.0
  C  C2076  1  0.413100  0.802630  0.400300  1.0
  C  C2077  1  0.913100  0.697370  0.900300  1.0
  C  C2078  1  0.086900  0.697370  0.599700  1.0
  C  C2079  1  0.413100  0.197370  0.900300  1.0
  C  C2080  1  0.586900  0.197370  0.599700  1.0
  C  C2081  1  0.065600  0.308530  0.125800  1.0
  C  C2082  1  0.934400  0.308530  0.374200  1.0
  C  C2083  1  0.565600  0.808530  0.125800  1.0
  C  C2084  1  0.434400  0.808530  0.374200  1.0
  C  C2085  1  0.934400  0.691470  0.874200  1.0
  C  C2086  1  0.065600  0.691470  0.625800  1.0
  C  C2087  1  0.434400  0.191470  0.874200  1.0
  C  C2088  1  0.565600  0.191470  0.625800  1.0
  C  C2089  1  0.025300  0.285280  0.122540  1.0
  C  C2090  1  0.974700  0.285280  0.377460  1.0
  C  C2091  1  0.525300  0.785280  0.122540  1.0
  C  C2092  1  0.474700  0.785280  0.377460  1.0
  C  C2093  1  0.974700  0.714720  0.877460  1.0
  C  C2094  1  0.025300  0.714720  0.622540  1.0
  C  C2095  1  0.474700  0.214720  0.877460  1.0
  C  C2096  1  0.525300  0.214720  0.622540  1.0
  C  C2097  1  0.991600  0.237500  0.083200  1.0
  C  C2098  1  0.008400  0.237500  0.416800  1.0
  C  C2099  1  0.491600  0.737500  0.083200  1.0
  C  C2100  1  0.508400  0.737500  0.416800  1.0
  C  C2101  1  0.008400  0.762500  0.916800  1.0
  C  C2102  1  0.991600  0.762500  0.583200  1.0
  C  C2103  1  0.508400  0.262500  0.916800  1.0
  C  C2104  1  0.491600  0.262500  0.583200  1.0
  C  C2105  1  0.987330  0.112170  0.082010  1.0
  C  C2106  1  0.012670  0.112170  0.417990  1.0
  C  C2107  1  0.487330  0.612170  0.082010  1.0
  C  C2108  1  0.512670  0.612170  0.417990  1.0
  C  C2109  1  0.012670  0.887830  0.917990  1.0
  C  C2110  1  0.987330  0.887830  0.582010  1.0
  C  C2111  1  0.512670  0.387830  0.917990  1.0
  C  C2112  1  0.487330  0.387830  0.582010  1.0
  C  C2113  1  0.942300  0.113190  0.056850  1.0
  C  C2114  1  0.057700  0.113190  0.443150  1.0
  C  C2115  1  0.442300  0.613190  0.056850  1.0
  C  C2116  1  0.557700  0.613190  0.443150  1.0
  C  C2117  1  0.057700  0.886810  0.943150  1.0
  C  C2118  1  0.942300  0.886810  0.556850  1.0
  C  C2119  1  0.557700  0.386810  0.943150  1.0
  C  C2120  1  0.442300  0.386810  0.556850  1.0
  C  C2121  1  0.920750  0.144180  0.045040  1.0
  C  C2122  1  0.079250  0.144180  0.454960  1.0
  C  C2123  1  0.420750  0.644180  0.045040  1.0
  C  C2124  1  0.579250  0.644180  0.454960  1.0
  C  C2125  1  0.079250  0.855820  0.954960  1.0
  C  C2126  1  0.920750  0.855820  0.545040  1.0
  C  C2127  1  0.579250  0.355820  0.954960  1.0
  C  C2128  1  0.420750  0.355820  0.545040  1.0
  C  C2129  1  0.944230  0.174140  0.058400  1.0
  C  C2130  1  0.055770  0.174140  0.441600  1.0
  C  C2131  1  0.444230  0.674140  0.058400  1.0
  C  C2132  1  0.555770  0.674140  0.441600  1.0
  C  C2133  1  0.055770  0.825860  0.941600  1.0
  C  C2134  1  0.944230  0.825860  0.558400  1.0
  C  C2135  1  0.555770  0.325860  0.941600  1.0
  C  C2136  1  0.444230  0.325860  0.558400  1.0
  C  C2137  1  0.989260  0.173120  0.083560  1.0
  C  C2138  1  0.010740  0.173120  0.416440  1.0
  C  C2139  1  0.489260  0.673120  0.083560  1.0
  C  C2140  1  0.510740  0.673120  0.416440  1.0
  C  C2141  1  0.010740  0.826880  0.916440  1.0
  C  C2142  1  0.989260  0.826880  0.583560  1.0
  C  C2143  1  0.510740  0.326880  0.916440  1.0
  C  C2144  1  0.489260  0.326880  0.583560  1.0
  C  C2145  1  0.010810  0.142130  0.095370  1.0
  C  C2146  1  0.989190  0.142130  0.404630  1.0
  C  C2147  1  0.510810  0.642130  0.095370  1.0
  C  C2148  1  0.489190  0.642130  0.404630  1.0
  C  C2149  1  0.989190  0.857870  0.904630  1.0
  C  C2150  1  0.010810  0.857870  0.595370  1.0
  C  C2151  1  0.489190  0.357870  0.904630  1.0
  C  C2152  1  0.510810  0.357870  0.595370  1.0
  C  C2153  1  0.055840  0.141110  0.120530  1.0
  C  C2154  1  0.944160  0.141110  0.379470  1.0
  C  C2155  1  0.555840  0.641110  0.120530  1.0
  C  C2156  1  0.444160  0.641110  0.379470  1.0
  C  C2157  1  0.944160  0.858890  0.879470  1.0
  C  C2158  1  0.055840  0.858890  0.620530  1.0
  C  C2159  1  0.444160  0.358890  0.879470  1.0
  C  C2160  1  0.555840  0.358890  0.620530  1.0
  C  C2161  1  0.079320  0.171070  0.133890  1.0
  C  C2162  1  0.920680  0.171070  0.366110  1.0
  C  C2163  1  0.579320  0.671070  0.133890  1.0
  C  C2164  1  0.420680  0.671070  0.366110  1.0
  C  C2165  1  0.920680  0.828930  0.866110  1.0
  C  C2166  1  0.079320  0.828930  0.633890  1.0
  C  C2167  1  0.420680  0.328930  0.866110  1.0
  C  C2168  1  0.579320  0.328930  0.633890  1.0
  C  C2169  1  0.057770  0.202060  0.122090  1.0
  C  C2170  1  0.942230  0.202060  0.377910  1.0
  C  C2171  1  0.557770  0.702060  0.122090  1.0
  C  C2172  1  0.442230  0.702060  0.377910  1.0
  C  C2173  1  0.942230  0.797940  0.877910  1.0
  C  C2174  1  0.057770  0.797940  0.622090  1.0
  C  C2175  1  0.442230  0.297940  0.877910  1.0
  C  C2176  1  0.557770  0.297940  0.622090  1.0
  C  C2177  1  0.012740  0.203080  0.096920  1.0
  C  C2178  1  0.987260  0.203080  0.403080  1.0
  C  C2179  1  0.512740  0.703080  0.096920  1.0
  C  C2180  1  0.487260  0.703080  0.403080  1.0
  C  C2181  1  0.987260  0.796920  0.903080  1.0
  C  C2182  1  0.012740  0.796920  0.596920  1.0
  C  C2183  1  0.487260  0.296920  0.903080  1.0
  C  C2184  1  0.512740  0.296920  0.596920  1.0
  C  C2185  1  0.949400  0.987390  0.179180  1.0
  C  C2186  1  0.050600  0.987390  0.320820  1.0
  C  C2187  1  0.449400  0.487390  0.179180  1.0
  C  C2188  1  0.550600  0.487390  0.320820  1.0
  C  C2189  1  0.050600  0.012610  0.820820  1.0
  C  C2190  1  0.949400  0.012610  0.679180  1.0
  C  C2191  1  0.550600  0.512610  0.820820  1.0
  C  C2192  1  0.449400  0.512610  0.679180  1.0
  C  C2193  1  0.979300  0.961160  0.196150  1.0
  C  C2194  1  0.020700  0.961160  0.303850  1.0
  C  C2195  1  0.479300  0.461160  0.196150  1.0
  C  C2196  1  0.520700  0.461160  0.303850  1.0
  C  C2197  1  0.020700  0.038840  0.803850  1.0
  C  C2198  1  0.979300  0.038840  0.696150  1.0
  C  C2199  1  0.520700  0.538840  0.803850  1.0
  C  C2200  1  0.479300  0.538840  0.696150  1.0
  C  C2201  1  0.018700  0.948590  0.185430  1.0
  C  C2202  1  0.981300  0.948590  0.314570  1.0
  C  C2203  1  0.518700  0.448590  0.185430  1.0
  C  C2204  1  0.481300  0.448590  0.314570  1.0
  C  C2205  1  0.981300  0.051410  0.814570  1.0
  C  C2206  1  0.018700  0.051410  0.685430  1.0
  C  C2207  1  0.481300  0.551410  0.814570  1.0
  C  C2208  1  0.518700  0.551410  0.685430  1.0
  C  C2209  1  0.028300  0.962240  0.157700  1.0
  C  C2210  1  0.971700  0.962240  0.342300  1.0
  C  C2211  1  0.528300  0.462240  0.157700  1.0
  C  C2212  1  0.471700  0.462240  0.342300  1.0
  C  C2213  1  0.971700  0.037760  0.842300  1.0
  C  C2214  1  0.028300  0.037760  0.657700  1.0
  C  C2215  1  0.471700  0.537760  0.842300  1.0
  C  C2216  1  0.528300  0.537760  0.657700  1.0
  C  C2217  1  0.998500  0.988470  0.140770  1.0
  C  C2218  1  0.001500  0.988470  0.359230  1.0
  C  C2219  1  0.498500  0.488470  0.140770  1.0
  C  C2220  1  0.501500  0.488470  0.359230  1.0
  C  C2221  1  0.001500  0.011530  0.859230  1.0
  C  C2222  1  0.998500  0.011530  0.640770  1.0
  C  C2223  1  0.501500  0.511530  0.859230  1.0
  C  C2224  1  0.498500  0.511530  0.640770  1.0
  C  C2225  1  0.910600  0.000600  0.188900  1.0
  C  C2226  1  0.089400  0.000600  0.311100  1.0
  C  C2227  1  0.410600  0.500600  0.188900  1.0
  C  C2228  1  0.589400  0.500600  0.311100  1.0
  C  C2229  1  0.089400  0.999400  0.811100  1.0
  C  C2230  1  0.910600  0.999400  0.688900  1.0
  C  C2231  1  0.589400  0.499400  0.811100  1.0
  C  C2232  1  0.410600  0.499400  0.688900  1.0
  C  C2233  1  0.889400  0.993500  0.214840  1.0
  C  C2234  1  0.110600  0.993500  0.285160  1.0
  C  C2235  1  0.389400  0.493500  0.214840  1.0
  C  C2236  1  0.610600  0.493500  0.285160  1.0
  C  C2237  1  0.110600  0.006500  0.785160  1.0
  C  C2238  1  0.889400  0.006500  0.714840  1.0
  C  C2239  1  0.610600  0.506500  0.785160  1.0
  C  C2240  1  0.389400  0.506500  0.714840  1.0
  C  C2241  1  0.846200  0.014400  0.210700  1.0
  C  C2242  1  0.153800  0.014400  0.289300  1.0
  C  C2243  1  0.346200  0.514400  0.210700  1.0
  C  C2244  1  0.653800  0.514400  0.289300  1.0
  C  C2245  1  0.153800  0.985600  0.789300  1.0
  C  C2246  1  0.846200  0.985600  0.710700  1.0
  C  C2247  1  0.653800  0.485600  0.789300  1.0
  C  C2248  1  0.346200  0.485600  0.710700  1.0
  C  C2249  1  0.804700  0.060000  0.168700  1.0
  C  C2250  1  0.195300  0.060000  0.331300  1.0
  C  C2251  1  0.304700  0.560000  0.168700  1.0
  C  C2252  1  0.695300  0.560000  0.331300  1.0
  C  C2253  1  0.195300  0.940000  0.831300  1.0
  C  C2254  1  0.804700  0.940000  0.668700  1.0
  C  C2255  1  0.695300  0.440000  0.831300  1.0
  C  C2256  1  0.304700  0.440000  0.668700  1.0
  C  C2257  1  0.644900  0.292210  0.157700  1.0
  C  C2258  1  0.355100  0.292210  0.342300  1.0
  C  C2259  1  0.144900  0.792210  0.157700  1.0
  C  C2260  1  0.855100  0.792210  0.342300  1.0
  C  C2261  1  0.355100  0.707790  0.842300  1.0
  C  C2262  1  0.644900  0.707790  0.657700  1.0
  C  C2263  1  0.855100  0.207790  0.842300  1.0
  C  C2264  1  0.144900  0.207790  0.657700  1.0
  C  C2265  1  0.617100  0.317140  0.137280  1.0
  C  C2266  1  0.382900  0.317140  0.362720  1.0
  C  C2267  1  0.117100  0.817140  0.137280  1.0
  C  C2268  1  0.882900  0.817140  0.362720  1.0
  C  C2269  1  0.382900  0.682860  0.862720  1.0
  C  C2270  1  0.617100  0.682860  0.637280  1.0
  C  C2271  1  0.882900  0.182860  0.862720  1.0
  C  C2272  1  0.117100  0.182860  0.637280  1.0
  C  C2273  1  0.577400  0.333100  0.145300  1.0
  C  C2274  1  0.422600  0.333100  0.354700  1.0
  C  C2275  1  0.077400  0.833100  0.145300  1.0
  C  C2276  1  0.922600  0.833100  0.354700  1.0
  C  C2277  1  0.422600  0.666900  0.854700  1.0
  C  C2278  1  0.577400  0.666900  0.645300  1.0
  C  C2279  1  0.922600  0.166900  0.854700  1.0
  C  C2280  1  0.077400  0.166900  0.645300  1.0
  C  C2281  1  0.565500  0.324100  0.173700  1.0
  C  C2282  1  0.434500  0.324100  0.326300  1.0
  C  C2283  1  0.065500  0.824100  0.173700  1.0
  C  C2284  1  0.934500  0.824100  0.326300  1.0
  C  C2285  1  0.434500  0.675900  0.826300  1.0
  C  C2286  1  0.565500  0.675900  0.673700  1.0
  C  C2287  1  0.934500  0.175900  0.826300  1.0
  C  C2288  1  0.065500  0.175900  0.673700  1.0
  C  C2289  1  0.593300  0.299200  0.194200  1.0
  C  C2290  1  0.406700  0.299200  0.305800  1.0
  C  C2291  1  0.093300  0.799200  0.194200  1.0
  C  C2292  1  0.906700  0.799200  0.305800  1.0
  C  C2293  1  0.406700  0.700800  0.805800  1.0
  C  C2294  1  0.593300  0.700800  0.694200  1.0
  C  C2295  1  0.906700  0.200800  0.805800  1.0
  C  C2296  1  0.093300  0.200800  0.694200  1.0
  C  C2297  1  0.548400  0.359300  0.121000  1.0
  C  C2298  1  0.451600  0.359300  0.379000  1.0
  C  C2299  1  0.048400  0.859300  0.121000  1.0
  C  C2300  1  0.951600  0.859300  0.379000  1.0
  C  C2301  1  0.451600  0.640700  0.879000  1.0
  C  C2302  1  0.548400  0.640700  0.621000  1.0
  C  C2303  1  0.951600  0.140700  0.879000  1.0
  C  C2304  1  0.048400  0.140700  0.621000  1.0
  C  C2305  1  0.686900  0.277520  0.152760  1.0
  C  C2306  1  0.313100  0.277520  0.347240  1.0
  C  C2307  1  0.186900  0.777520  0.152760  1.0
  C  C2308  1  0.813100  0.777520  0.347240  1.0
  C  C2309  1  0.313100  0.722480  0.847240  1.0
  C  C2310  1  0.686900  0.722480  0.652760  1.0
  C  C2311  1  0.813100  0.222480  0.847240  1.0
  C  C2312  1  0.186900  0.222480  0.652760  1.0
  C  C2313  1  0.712100  0.281380  0.128270  1.0
  C  C2314  1  0.287900  0.281380  0.371730  1.0
  C  C2315  1  0.212100  0.781380  0.128270  1.0
  C  C2316  1  0.787900  0.781380  0.371730  1.0
  C  C2317  1  0.287900  0.718620  0.871730  1.0
  C  C2318  1  0.712100  0.718620  0.628270  1.0
  C  C2319  1  0.787900  0.218620  0.871730  1.0
  C  C2320  1  0.212100  0.218620  0.628270  1.0
  C  C2321  1  0.756600  0.261350  0.137420  1.0
  C  C2322  1  0.243400  0.261350  0.362580  1.0
  C  C2323  1  0.256600  0.761350  0.137420  1.0
  C  C2324  1  0.743400  0.761350  0.362580  1.0
  C  C2325  1  0.243400  0.738650  0.862580  1.0
  C  C2326  1  0.756600  0.738650  0.637420  1.0
  C  C2327  1  0.743400  0.238650  0.862580  1.0
  C  C2328  1  0.256600  0.238650  0.637420  1.0
  C  C2329  1  0.792700  0.218800  0.183100  1.0
  C  C2330  1  0.207300  0.218800  0.316900  1.0
  C  C2331  1  0.292700  0.718800  0.183100  1.0
  C  C2332  1  0.707300  0.718800  0.316900  1.0
  C  C2333  1  0.207300  0.781200  0.816900  1.0
  C  C2334  1  0.792700  0.781200  0.683100  1.0
  C  C2335  1  0.707300  0.281200  0.816900  1.0
  C  C2336  1  0.292700  0.281200  0.683100  1.0
  C  C2337  1  0.823800  0.095560  0.182140  1.0
  C  C2338  1  0.176200  0.095560  0.317860  1.0
  C  C2339  1  0.323800  0.595560  0.182140  1.0
  C  C2340  1  0.676200  0.595560  0.317860  1.0
  C  C2341  1  0.176200  0.904440  0.817860  1.0
  C  C2342  1  0.823800  0.904440  0.682140  1.0
  C  C2343  1  0.676200  0.404440  0.817860  1.0
  C  C2344  1  0.323800  0.404440  0.682140  1.0
  C  C2345  1  0.870700  0.099850  0.205050  1.0
  C  C2346  1  0.129300  0.099850  0.294950  1.0
  C  C2347  1  0.370700  0.599850  0.205050  1.0
  C  C2348  1  0.629300  0.599850  0.294950  1.0
  C  C2349  1  0.129300  0.900150  0.794950  1.0
  C  C2350  1  0.870700  0.900150  0.705050  1.0
  C  C2351  1  0.629300  0.400150  0.794950  1.0
  C  C2352  1  0.370700  0.400150  0.705050  1.0
  C  C2353  1  0.886820  0.132040  0.216660  1.0
  C  C2354  1  0.113180  0.132040  0.283340  1.0
  C  C2355  1  0.386820  0.632040  0.216660  1.0
  C  C2356  1  0.613180  0.632040  0.283340  1.0
  C  C2357  1  0.113180  0.867960  0.783340  1.0
  C  C2358  1  0.886820  0.867960  0.716660  1.0
  C  C2359  1  0.613180  0.367960  0.783340  1.0
  C  C2360  1  0.386820  0.367960  0.716660  1.0
  C  C2361  1  0.856090  0.159940  0.205350  1.0
  C  C2362  1  0.143910  0.159940  0.294650  1.0
  C  C2363  1  0.356090  0.659940  0.205350  1.0
  C  C2364  1  0.643910  0.659940  0.294650  1.0
  C  C2365  1  0.143910  0.840060  0.794650  1.0
  C  C2366  1  0.856090  0.840060  0.705350  1.0
  C  C2367  1  0.643910  0.340060  0.794650  1.0
  C  C2368  1  0.356090  0.340060  0.705350  1.0
  C  C2369  1  0.809230  0.155660  0.182440  1.0
  C  C2370  1  0.190770  0.155660  0.317560  1.0
  C  C2371  1  0.309230  0.655660  0.182440  1.0
  C  C2372  1  0.690770  0.655660  0.317560  1.0
  C  C2373  1  0.190770  0.844340  0.817560  1.0
  C  C2374  1  0.809230  0.844340  0.682440  1.0
  C  C2375  1  0.690770  0.344340  0.817560  1.0
  C  C2376  1  0.309230  0.344340  0.682440  1.0
  C  C2377  1  0.793090  0.123470  0.170830  1.0
  C  C2378  1  0.206910  0.123470  0.329170  1.0
  C  C2379  1  0.293090  0.623470  0.170830  1.0
  C  C2380  1  0.706910  0.623470  0.329170  1.0
  C  C2381  1  0.206910  0.876530  0.829170  1.0
  C  C2382  1  0.793090  0.876530  0.670830  1.0
  C  C2383  1  0.706910  0.376530  0.829170  1.0
  C  C2384  1  0.293090  0.376530  0.670830  1.0
  C  C2385  1  0.746220  0.119180  0.147920  1.0
  C  C2386  1  0.253780  0.119180  0.352080  1.0
  C  C2387  1  0.246220  0.619180  0.147920  1.0
  C  C2388  1  0.753780  0.619180  0.352080  1.0
  C  C2389  1  0.253780  0.880820  0.852080  1.0
  C  C2390  1  0.746220  0.880820  0.647920  1.0
  C  C2391  1  0.753780  0.380820  0.852080  1.0
  C  C2392  1  0.246220  0.380820  0.647920  1.0
  C  C2393  1  0.715500  0.147080  0.136610  1.0
  C  C2394  1  0.284500  0.147080  0.363390  1.0
  C  C2395  1  0.215500  0.647080  0.136610  1.0
  C  C2396  1  0.784500  0.647080  0.363390  1.0
  C  C2397  1  0.284500  0.852920  0.863390  1.0
  C  C2398  1  0.715500  0.852920  0.636610  1.0
  C  C2399  1  0.784500  0.352920  0.863390  1.0
  C  C2400  1  0.215500  0.352920  0.636610  1.0
  C  C2401  1  0.731600  0.179270  0.148220  1.0
  C  C2402  1  0.268400  0.179270  0.351780  1.0
  C  C2403  1  0.231600  0.679270  0.148220  1.0
  C  C2404  1  0.768400  0.679270  0.351780  1.0
  C  C2405  1  0.268400  0.820730  0.851780  1.0
  C  C2406  1  0.731600  0.820730  0.648220  1.0
  C  C2407  1  0.768400  0.320730  0.851780  1.0
  C  C2408  1  0.231600  0.320730  0.648220  1.0
  C  C2409  1  0.778500  0.183560  0.171130  1.0
  C  C2410  1  0.221500  0.183560  0.328870  1.0
  C  C2411  1  0.278500  0.683560  0.171130  1.0
  C  C2412  1  0.721500  0.683560  0.328870  1.0
  C  C2413  1  0.221500  0.816440  0.828870  1.0
  C  C2414  1  0.778500  0.816440  0.671130  1.0
  C  C2415  1  0.721500  0.316440  0.828870  1.0
  C  C2416  1  0.278500  0.316440  0.671130  1.0
  C  C2417  1  0.613500  0.061140  0.936950  1.0
  C  C2418  1  0.386500  0.061140  0.563050  1.0
  C  C2419  1  0.113500  0.561140  0.936950  1.0
  C  C2420  1  0.886500  0.561140  0.563050  1.0
  C  C2421  1  0.386500  0.938860  0.063050  1.0
  C  C2422  1  0.613500  0.938860  0.436950  1.0
  C  C2423  1  0.886500  0.438860  0.063050  1.0
  C  C2424  1  0.113500  0.438860  0.436950  1.0
  C  C2425  1  0.593400  0.065990  0.963030  1.0
  C  C2426  1  0.406600  0.065990  0.536970  1.0
  C  C2427  1  0.093400  0.565990  0.963030  1.0
  C  C2428  1  0.906600  0.565990  0.536970  1.0
  C  C2429  1  0.406600  0.934010  0.036970  1.0
  C  C2430  1  0.593400  0.934010  0.463030  1.0
  C  C2431  1  0.906600  0.434010  0.036970  1.0
  C  C2432  1  0.093400  0.434010  0.463030  1.0
  C  C2433  1  0.552100  0.047100  0.965050  1.0
  C  C2434  1  0.447900  0.047100  0.534950  1.0
  C  C2435  1  0.052100  0.547100  0.965050  1.0
  C  C2436  1  0.947900  0.547100  0.534950  1.0
  C  C2437  1  0.447900  0.952900  0.034950  1.0
  C  C2438  1  0.552100  0.952900  0.465050  1.0
  C  C2439  1  0.947900  0.452900  0.034950  1.0
  C  C2440  1  0.052100  0.452900  0.465050  1.0
  C  C2441  1  0.530800  0.023300  0.941000  1.0
  C  C2442  1  0.469200  0.023300  0.559000  1.0
  C  C2443  1  0.030800  0.523300  0.941000  1.0
  C  C2444  1  0.969200  0.523300  0.559000  1.0
  C  C2445  1  0.469200  0.976700  0.059000  1.0
  C  C2446  1  0.530800  0.976700  0.441000  1.0
  C  C2447  1  0.969200  0.476700  0.059000  1.0
  C  C2448  1  0.030800  0.476700  0.441000  1.0
  C  C2449  1  0.550800  0.018410  0.914900  1.0
  C  C2450  1  0.449200  0.018410  0.585100  1.0
  C  C2451  1  0.050800  0.518410  0.914900  1.0
  C  C2452  1  0.949200  0.518410  0.585100  1.0
  C  C2453  1  0.449200  0.981590  0.085100  1.0
  C  C2454  1  0.550800  0.981590  0.414900  1.0
  C  C2455  1  0.949200  0.481590  0.085100  1.0
  C  C2456  1  0.050800  0.481590  0.414900  1.0
  C  C2457  1  0.532300  0.053500  0.994400  1.0
  C  C2458  1  0.467700  0.053500  0.505600  1.0
  C  C2459  1  0.032300  0.553500  0.994400  1.0
  C  C2460  1  0.967700  0.553500  0.505600  1.0
  C  C2461  1  0.467700  0.946500  0.005600  1.0
  C  C2462  1  0.532300  0.946500  0.494400  1.0
  C  C2463  1  0.967700  0.446500  0.005600  1.0
  C  C2464  1  0.032300  0.446500  0.494400  1.0
  C  C2465  1  0.654400  0.077860  0.933610  1.0
  C  C2466  1  0.345600  0.077860  0.566390  1.0
  C  C2467  1  0.154400  0.577860  0.933610  1.0
  C  C2468  1  0.845600  0.577860  0.566390  1.0
  C  C2469  1  0.345600  0.922140  0.066390  1.0
  C  C2470  1  0.654400  0.922140  0.433610  1.0
  C  C2471  1  0.845600  0.422140  0.066390  1.0
  C  C2472  1  0.154400  0.422140  0.433610  1.0
  C  C2473  1  0.688400  0.100360  0.955080  1.0
  C  C2474  1  0.311600  0.100360  0.544920  1.0
  C  C2475  1  0.188400  0.600360  0.955080  1.0
  C  C2476  1  0.811600  0.600360  0.544920  1.0
  C  C2477  1  0.311600  0.899640  0.044920  1.0
  C  C2478  1  0.688400  0.899640  0.455080  1.0
  C  C2479  1  0.811600  0.399640  0.044920  1.0
  C  C2480  1  0.188400  0.399640  0.455080  1.0
  C  C2481  1  0.728600  0.107300  0.941420  1.0
  C  C2482  1  0.271400  0.107300  0.558580  1.0
  C  C2483  1  0.228600  0.607300  0.941420  1.0
  C  C2484  1  0.771400  0.607300  0.558580  1.0
  C  C2485  1  0.271400  0.892700  0.058580  1.0
  C  C2486  1  0.728600  0.892700  0.441420  1.0
  C  C2487  1  0.771400  0.392700  0.058580  1.0
  C  C2488  1  0.228600  0.392700  0.441420  1.0
  C  C2489  1  0.742900  0.093600  0.886500  1.0
  C  C2490  1  0.257100  0.093600  0.613500  1.0
  C  C2491  1  0.242900  0.593600  0.886500  1.0
  C  C2492  1  0.757100  0.593600  0.613500  1.0
  C  C2493  1  0.257100  0.906400  0.113500  1.0
  C  C2494  1  0.742900  0.906400  0.386500  1.0
  C  C2495  1  0.757100  0.406400  0.113500  1.0
  C  C2496  1  0.242900  0.406400  0.386500  1.0
  C  C2497  1  0.842600  0.237100  0.719900  1.0
  C  C2498  1  0.157400  0.237100  0.780100  1.0
  C  C2499  1  0.342600  0.737100  0.719900  1.0
  C  C2500  1  0.657400  0.737100  0.780100  1.0
  C  C2501  1  0.157400  0.762900  0.280100  1.0
  C  C2502  1  0.842600  0.762900  0.219900  1.0
  C  C2503  1  0.657400  0.262900  0.280100  1.0
  C  C2504  1  0.342600  0.262900  0.219900  1.0
  C  C2505  1  0.866700  0.235600  0.695500  1.0
  C  C2506  1  0.133300  0.235600  0.804500  1.0
  C  C2507  1  0.366700  0.735600  0.695500  1.0
  C  C2508  1  0.633300  0.735600  0.804500  1.0
  C  C2509  1  0.133300  0.764400  0.304500  1.0
  C  C2510  1  0.866700  0.764400  0.195500  1.0
  C  C2511  1  0.633300  0.264400  0.304500  1.0
  C  C2512  1  0.366700  0.264400  0.195500  1.0
  C  C2513  1  0.910000  0.254700  0.698200  1.0
  C  C2514  1  0.090000  0.254700  0.801800  1.0
  C  C2515  1  0.410000  0.754700  0.698200  1.0
  C  C2516  1  0.590000  0.754700  0.801800  1.0
  C  C2517  1  0.090000  0.745300  0.301800  1.0
  C  C2518  1  0.910000  0.745300  0.198200  1.0
  C  C2519  1  0.590000  0.245300  0.301800  1.0
  C  C2520  1  0.410000  0.245300  0.198200  1.0
  C  C2521  1  0.929000  0.275300  0.725500  1.0
  C  C2522  1  0.071000  0.275300  0.774500  1.0
  C  C2523  1  0.429000  0.775300  0.725500  1.0
  C  C2524  1  0.571000  0.775300  0.774500  1.0
  C  C2525  1  0.071000  0.724700  0.274500  1.0
  C  C2526  1  0.929000  0.724700  0.225500  1.0
  C  C2527  1  0.571000  0.224700  0.274500  1.0
  C  C2528  1  0.429000  0.224700  0.225500  1.0
  C  C2529  1  0.904900  0.276800  0.749900  1.0
  C  C2530  1  0.095100  0.276800  0.750100  1.0
  C  C2531  1  0.404900  0.776800  0.749900  1.0
  C  C2532  1  0.595100  0.776800  0.750100  1.0
  C  C2533  1  0.095100  0.723200  0.250100  1.0
  C  C2534  1  0.904900  0.723200  0.249900  1.0
  C  C2535  1  0.595100  0.223200  0.250100  1.0
  C  C2536  1  0.404900  0.223200  0.249900  1.0
  C  C2537  1  0.804400  0.217900  0.720300  1.0
  C  C2538  1  0.195600  0.217900  0.779700  1.0
  C  C2539  1  0.304400  0.717900  0.720300  1.0
  C  C2540  1  0.695600  0.717900  0.779700  1.0
  C  C2541  1  0.195600  0.782100  0.279700  1.0
  C  C2542  1  0.804400  0.782100  0.220300  1.0
  C  C2543  1  0.695600  0.282100  0.279700  1.0
  C  C2544  1  0.304400  0.282100  0.220300  1.0
  C  C2545  1  0.774200  0.195100  0.697000  1.0
  C  C2546  1  0.225800  0.195100  0.803000  1.0
  C  C2547  1  0.274200  0.695100  0.697000  1.0
  C  C2548  1  0.725800  0.695100  0.803000  1.0
  C  C2549  1  0.225800  0.804900  0.303000  1.0
  C  C2550  1  0.774200  0.804900  0.197000  1.0
  C  C2551  1  0.725800  0.304900  0.303000  1.0
  C  C2552  1  0.274200  0.304900  0.197000  1.0
  C  C2553  1  0.734900  0.183100  0.709400  1.0
  C  C2554  1  0.265100  0.183100  0.790600  1.0
  C  C2555  1  0.234900  0.683100  0.709400  1.0
  C  C2556  1  0.765100  0.683100  0.790600  1.0
  C  C2557  1  0.265100  0.816900  0.290600  1.0
  C  C2558  1  0.734900  0.816900  0.209400  1.0
  C  C2559  1  0.765100  0.316900  0.290600  1.0
  C  C2560  1  0.234900  0.316900  0.209400  1.0
  C  C2561  1  0.716500  0.191800  0.764100  1.0
  C  C2562  1  0.283500  0.191800  0.735900  1.0
  C  C2563  1  0.216500  0.691800  0.764100  1.0
  C  C2564  1  0.783500  0.691800  0.735900  1.0
  C  C2565  1  0.283500  0.808200  0.235900  1.0
  C  C2566  1  0.716500  0.808200  0.264100  1.0
  C  C2567  1  0.783500  0.308200  0.235900  1.0
  C  C2568  1  0.216500  0.308200  0.264100  1.0
  C  C2569  1  0.723000  0.122140  0.862080  1.0
  C  C2570  1  0.277000  0.122140  0.637920  1.0
  C  C2571  1  0.223000  0.622140  0.862080  1.0
  C  C2572  1  0.777000  0.622140  0.637920  1.0
  C  C2573  1  0.277000  0.877860  0.137920  1.0
  C  C2574  1  0.723000  0.877860  0.362080  1.0
  C  C2575  1  0.777000  0.377860  0.137920  1.0
  C  C2576  1  0.223000  0.377860  0.362080  1.0
  C  C2577  1  0.680800  0.139500  0.865030  1.0
  C  C2578  1  0.319200  0.139500  0.634970  1.0
  C  C2579  1  0.180800  0.639500  0.865030  1.0
  C  C2580  1  0.819200  0.639500  0.634970  1.0
  C  C2581  1  0.319200  0.860500  0.134970  1.0
  C  C2582  1  0.680800  0.860500  0.365030  1.0
  C  C2583  1  0.819200  0.360500  0.134970  1.0
  C  C2584  1  0.180800  0.360500  0.365030  1.0
  C  C2585  1  0.659200  0.164870  0.842760  1.0
  C  C2586  1  0.340800  0.164870  0.657240  1.0
  C  C2587  1  0.159200  0.664870  0.842760  1.0
  C  C2588  1  0.840800  0.664870  0.657240  1.0
  C  C2589  1  0.340800  0.835130  0.157240  1.0
  C  C2590  1  0.659200  0.835130  0.342760  1.0
  C  C2591  1  0.840800  0.335130  0.157240  1.0
  C  C2592  1  0.159200  0.335130  0.342760  1.0
  C  C2593  1  0.679900  0.172870  0.817540  1.0
  C  C2594  1  0.320100  0.172870  0.682460  1.0
  C  C2595  1  0.179900  0.672870  0.817540  1.0
  C  C2596  1  0.820100  0.672870  0.682460  1.0
  C  C2597  1  0.320100  0.827130  0.182460  1.0
  C  C2598  1  0.679900  0.827130  0.317540  1.0
  C  C2599  1  0.820100  0.327130  0.182460  1.0
  C  C2600  1  0.179900  0.327130  0.317540  1.0
  C  C2601  1  0.722080  0.155510  0.814590  1.0
  C  C2602  1  0.277920  0.155510  0.685410  1.0
  C  C2603  1  0.222080  0.655510  0.814590  1.0
  C  C2604  1  0.777920  0.655510  0.685410  1.0
  C  C2605  1  0.277920  0.844490  0.185410  1.0
  C  C2606  1  0.722080  0.844490  0.314590  1.0
  C  C2607  1  0.777920  0.344490  0.185410  1.0
  C  C2608  1  0.222080  0.344490  0.314590  1.0
  C  C2609  1  0.743640  0.130150  0.836860  1.0
  C  C2610  1  0.256360  0.130150  0.663140  1.0
  C  C2611  1  0.243640  0.630150  0.836860  1.0
  C  C2612  1  0.756360  0.630150  0.663140  1.0
  C  C2613  1  0.256360  0.869850  0.163140  1.0
  C  C2614  1  0.743640  0.869850  0.336860  1.0
  C  C2615  1  0.756360  0.369850  0.163140  1.0
  C  C2616  1  0.243640  0.369850  0.336860  1.0
  C  C2617  1  0.785800  0.112790  0.833910  1.0
  C  C2618  1  0.214200  0.112790  0.666090  1.0
  C  C2619  1  0.285800  0.612790  0.833910  1.0
  C  C2620  1  0.714200  0.612790  0.666090  1.0
  C  C2621  1  0.214200  0.887210  0.166090  1.0
  C  C2622  1  0.785800  0.887210  0.333910  1.0
  C  C2623  1  0.714200  0.387210  0.166090  1.0
  C  C2624  1  0.285800  0.387210  0.333910  1.0
  C  C2625  1  0.806500  0.120790  0.808690  1.0
  C  C2626  1  0.193500  0.120790  0.691310  1.0
  C  C2627  1  0.306500  0.620790  0.808690  1.0
  C  C2628  1  0.693500  0.620790  0.691310  1.0
  C  C2629  1  0.193500  0.879210  0.191310  1.0
  C  C2630  1  0.806500  0.879210  0.308690  1.0
  C  C2631  1  0.693500  0.379210  0.191310  1.0
  C  C2632  1  0.306500  0.379210  0.308690  1.0
  C  C2633  1  0.784900  0.146150  0.786420  1.0
  C  C2634  1  0.215100  0.146150  0.713580  1.0
  C  C2635  1  0.284900  0.646150  0.786420  1.0
  C  C2636  1  0.715100  0.646150  0.713580  1.0
  C  C2637  1  0.215100  0.853850  0.213580  1.0
  C  C2638  1  0.784900  0.853850  0.286420  1.0
  C  C2639  1  0.715100  0.353850  0.213580  1.0
  C  C2640  1  0.284900  0.353850  0.286420  1.0
  C  C2641  1  0.742700  0.163510  0.789370  1.0
  C  C2642  1  0.257300  0.163510  0.710630  1.0
  C  C2643  1  0.242700  0.663510  0.789370  1.0
  C  C2644  1  0.757300  0.663510  0.710630  1.0
  C  C2645  1  0.257300  0.836490  0.210630  1.0
  C  C2646  1  0.742700  0.836490  0.289370  1.0
  C  C2647  1  0.757300  0.336490  0.210630  1.0
  C  C2648  1  0.242700  0.336490  0.289370  1.0
  C  C2649  1  0.640800  0.062740  0.811170  1.0
  C  C2650  1  0.359200  0.062740  0.688830  1.0
  C  C2651  1  0.140800  0.562740  0.811170  1.0
  C  C2652  1  0.859200  0.562740  0.688830  1.0
  C  C2653  1  0.359200  0.937260  0.188830  1.0
  C  C2654  1  0.640800  0.937260  0.311170  1.0
  C  C2655  1  0.859200  0.437260  0.188830  1.0
  C  C2656  1  0.140800  0.437260  0.311170  1.0
  C  C2657  1  0.662200  0.068480  0.785860  1.0
  C  C2658  1  0.337800  0.068480  0.714140  1.0
  C  C2659  1  0.162200  0.568480  0.785860  1.0
  C  C2660  1  0.837800  0.568480  0.714140  1.0
  C  C2661  1  0.337800  0.931520  0.214140  1.0
  C  C2662  1  0.662200  0.931520  0.285860  1.0
  C  C2663  1  0.837800  0.431520  0.214140  1.0
  C  C2664  1  0.162200  0.431520  0.285860  1.0
  C  C2665  1  0.704400  0.050100  0.784440  1.0
  C  C2666  1  0.295600  0.050100  0.715560  1.0
  C  C2667  1  0.204400  0.550100  0.784440  1.0
  C  C2668  1  0.795600  0.550100  0.715560  1.0
  C  C2669  1  0.295600  0.949900  0.215560  1.0
  C  C2670  1  0.704400  0.949900  0.284440  1.0
  C  C2671  1  0.795600  0.449900  0.215560  1.0
  C  C2672  1  0.204400  0.449900  0.284440  1.0
  C  C2673  1  0.725200  0.026100  0.808300  1.0
  C  C2674  1  0.274800  0.026100  0.691700  1.0
  C  C2675  1  0.225200  0.526100  0.808300  1.0
  C  C2676  1  0.774800  0.526100  0.691700  1.0
  C  C2677  1  0.274800  0.973900  0.191700  1.0
  C  C2678  1  0.725200  0.973900  0.308300  1.0
  C  C2679  1  0.774800  0.473900  0.191700  1.0
  C  C2680  1  0.225200  0.473900  0.308300  1.0
  C  C2681  1  0.703800  0.020320  0.833630  1.0
  C  C2682  1  0.296200  0.020320  0.666370  1.0
  C  C2683  1  0.203800  0.520320  0.833630  1.0
  C  C2684  1  0.796200  0.520320  0.666370  1.0
  C  C2685  1  0.296200  0.979680  0.166370  1.0
  C  C2686  1  0.703800  0.979680  0.333630  1.0
  C  C2687  1  0.796200  0.479680  0.166370  1.0
  C  C2688  1  0.203800  0.479680  0.333630  1.0
  C  C2689  1  0.725800  0.057400  0.755800  1.0
  C  C2690  1  0.274200  0.057400  0.744200  1.0
  C  C2691  1  0.225800  0.557400  0.755800  1.0
  C  C2692  1  0.774200  0.557400  0.744200  1.0
  C  C2693  1  0.274200  0.942600  0.244200  1.0
  C  C2694  1  0.725800  0.942600  0.255800  1.0
  C  C2695  1  0.774200  0.442600  0.244200  1.0
  C  C2696  1  0.225800  0.442600  0.255800  1.0
  C  C2697  1  0.599300  0.079000  0.814350  1.0
  C  C2698  1  0.400700  0.079000  0.685650  1.0
  C  C2699  1  0.099300  0.579000  0.814350  1.0
  C  C2700  1  0.900700  0.579000  0.685650  1.0
  C  C2701  1  0.400700  0.921000  0.185650  1.0
  C  C2702  1  0.599300  0.921000  0.314350  1.0
  C  C2703  1  0.900700  0.421000  0.185650  1.0
  C  C2704  1  0.099300  0.421000  0.314350  1.0
  C  C2705  1  0.564600  0.101100  0.792730  1.0
  C  C2706  1  0.435400  0.101100  0.707270  1.0
  C  C2707  1  0.064600  0.601100  0.792730  1.0
  C  C2708  1  0.935400  0.601100  0.707270  1.0
  C  C2709  1  0.435400  0.898900  0.207270  1.0
  C  C2710  1  0.564600  0.898900  0.292730  1.0
  C  C2711  1  0.935400  0.398900  0.207270  1.0
  C  C2712  1  0.064600  0.398900  0.292730  1.0
  C  C2713  1  0.524900  0.108200  0.806730  1.0
  C  C2714  1  0.475100  0.108200  0.693270  1.0
  C  C2715  1  0.024900  0.608200  0.806730  1.0
  C  C2716  1  0.975100  0.608200  0.693270  1.0
  C  C2717  1  0.475100  0.891800  0.193270  1.0
  C  C2718  1  0.524900  0.891800  0.306730  1.0
  C  C2719  1  0.975100  0.391800  0.193270  1.0
  C  C2720  1  0.024900  0.391800  0.306730  1.0
  C  C2721  1  0.511200  0.093400  0.861300  1.0
  C  C2722  1  0.488800  0.093400  0.638700  1.0
  C  C2723  1  0.011200  0.593400  0.861300  1.0
  C  C2724  1  0.988800  0.593400  0.638700  1.0
  C  C2725  1  0.488800  0.906600  0.138700  1.0
  C  C2726  1  0.511200  0.906600  0.361300  1.0
  C  C2727  1  0.988800  0.406600  0.138700  1.0
  C  C2728  1  0.011200  0.406600  0.361300  1.0
  C  C2729  1  0.389600  0.230150  0.023890  1.0
  C  C2730  1  0.610400  0.230150  0.476110  1.0
  C  C2731  1  0.889600  0.730150  0.023890  1.0
  C  C2732  1  0.110400  0.730150  0.476110  1.0
  C  C2733  1  0.610400  0.769850  0.976110  1.0
  C  C2734  1  0.389600  0.769850  0.523890  1.0
  C  C2735  1  0.110400  0.269850  0.976110  1.0
  C  C2736  1  0.889600  0.269850  0.523890  1.0
  C  C2737  1  0.367800  0.232960  0.049370  1.0
  C  C2738  1  0.632200  0.232960  0.450630  1.0
  C  C2739  1  0.867800  0.732960  0.049370  1.0
  C  C2740  1  0.132200  0.732960  0.450630  1.0
  C  C2741  1  0.632200  0.767040  0.950630  1.0
  C  C2742  1  0.367800  0.767040  0.549370  1.0
  C  C2743  1  0.132200  0.267040  0.950630  1.0
  C  C2744  1  0.867800  0.267040  0.549370  1.0
  C  C2745  1  0.326100  0.253850  0.045990  1.0
  C  C2746  1  0.673900  0.253850  0.454010  1.0
  C  C2747  1  0.826100  0.753850  0.045990  1.0
  C  C2748  1  0.173900  0.753850  0.454010  1.0
  C  C2749  1  0.673900  0.746150  0.954010  1.0
  C  C2750  1  0.326100  0.746150  0.545990  1.0
  C  C2751  1  0.173900  0.246150  0.954010  1.0
  C  C2752  1  0.826100  0.246150  0.545990  1.0
  C  C2753  1  0.306400  0.271940  0.017130  1.0
  C  C2754  1  0.693600  0.271940  0.482870  1.0
  C  C2755  1  0.806400  0.771940  0.017130  1.0
  C  C2756  1  0.193600  0.771940  0.482870  1.0
  C  C2757  1  0.693600  0.728060  0.982870  1.0
  C  C2758  1  0.306400  0.728060  0.517130  1.0
  C  C2759  1  0.193600  0.228060  0.982870  1.0
  C  C2760  1  0.806400  0.228060  0.517130  1.0
  C  C2761  1  0.328200  0.269130  0.991650  1.0
  C  C2762  1  0.671800  0.269130  0.508350  1.0
  C  C2763  1  0.828200  0.769130  0.991650  1.0
  C  C2764  1  0.171800  0.769130  0.508350  1.0
  C  C2765  1  0.671800  0.730870  0.008350  1.0
  C  C2766  1  0.328200  0.730870  0.491650  1.0
  C  C2767  1  0.171800  0.230870  0.008350  1.0
  C  C2768  1  0.828200  0.230870  0.491650  1.0
  C  C2769  1  0.430500  0.210730  0.024920  1.0
  C  C2770  1  0.569500  0.210730  0.475080  1.0
  C  C2771  1  0.930500  0.710730  0.024920  1.0
  C  C2772  1  0.069500  0.710730  0.475080  1.0
  C  C2773  1  0.569500  0.789270  0.975080  1.0
  C  C2774  1  0.430500  0.789270  0.524920  1.0
  C  C2775  1  0.069500  0.289270  0.975080  1.0
  C  C2776  1  0.930500  0.289270  0.524920  1.0
  C  C2777  1  0.460300  0.188550  0.049090  1.0
  C  C2778  1  0.539700  0.188550  0.450910  1.0
  C  C2779  1  0.960300  0.688550  0.049090  1.0
  C  C2780  1  0.039700  0.688550  0.450910  1.0
  C  C2781  1  0.539700  0.811450  0.950910  1.0
  C  C2782  1  0.460300  0.811450  0.549090  1.0
  C  C2783  1  0.039700  0.311450  0.950910  1.0
  C  C2784  1  0.960300  0.311450  0.549090  1.0
  C  C2785  1  0.500600  0.176450  0.037720  1.0
  C  C2786  1  0.499400  0.176450  0.462280  1.0
  C  C2787  1  0.000600  0.676450  0.037720  1.0
  C  C2788  1  0.999400  0.676450  0.462280  1.0
  C  C2789  1  0.499400  0.823550  0.962280  1.0
  C  C2790  1  0.500600  0.823550  0.537720  1.0
  C  C2791  1  0.999400  0.323550  0.962280  1.0
  C  C2792  1  0.000600  0.323550  0.537720  1.0
  C  C2793  1  0.524100  0.185200  0.985100  1.0
  C  C2794  1  0.475900  0.185200  0.514900  1.0
  C  C2795  1  0.024100  0.685200  0.985100  1.0
  C  C2796  1  0.975900  0.685200  0.514900  1.0
  C  C2797  1  0.475900  0.814800  0.014900  1.0
  C  C2798  1  0.524100  0.814800  0.485100  1.0
  C  C2799  1  0.975900  0.314800  0.014900  1.0
  C  C2800  1  0.024100  0.314800  0.485100  1.0
  C  C2801  1  0.528200  0.120710  0.886670  1.0
  C  C2802  1  0.471800  0.120710  0.613330  1.0
  C  C2803  1  0.028200  0.620710  0.886670  1.0
  C  C2804  1  0.971800  0.620710  0.613330  1.0
  C  C2805  1  0.471800  0.879290  0.113330  1.0
  C  C2806  1  0.528200  0.879290  0.386670  1.0
  C  C2807  1  0.971800  0.379290  0.113330  1.0
  C  C2808  1  0.028200  0.379290  0.386670  1.0
  C  C2809  1  0.568000  0.140790  0.883950  1.0
  C  C2810  1  0.432000  0.140790  0.616050  1.0
  C  C2811  1  0.068000  0.640790  0.883950  1.0
  C  C2812  1  0.932000  0.640790  0.616050  1.0
  C  C2813  1  0.432000  0.859210  0.116050  1.0
  C  C2814  1  0.568000  0.859210  0.383950  1.0
  C  C2815  1  0.932000  0.359210  0.116050  1.0
  C  C2816  1  0.068000  0.359210  0.383950  1.0
  C  C2817  1  0.587080  0.166070  0.906900  1.0
  C  C2818  1  0.412920  0.166070  0.593100  1.0
  C  C2819  1  0.087080  0.666070  0.906900  1.0
  C  C2820  1  0.912920  0.666070  0.593100  1.0
  C  C2821  1  0.412920  0.833930  0.093100  1.0
  C  C2822  1  0.587080  0.833930  0.406900  1.0
  C  C2823  1  0.912920  0.333930  0.093100  1.0
  C  C2824  1  0.087080  0.333930  0.406900  1.0
  C  C2825  1  0.566240  0.171260  0.932580  1.0
  C  C2826  1  0.433760  0.171260  0.567420  1.0
  C  C2827  1  0.066240  0.671260  0.932580  1.0
  C  C2828  1  0.933760  0.671260  0.567420  1.0
  C  C2829  1  0.433760  0.828740  0.067420  1.0
  C  C2830  1  0.566240  0.828740  0.432580  1.0
  C  C2831  1  0.933760  0.328740  0.067420  1.0
  C  C2832  1  0.066240  0.328740  0.432580  1.0
  C  C2833  1  0.526370  0.151180  0.935290  1.0
  C  C2834  1  0.473630  0.151180  0.564710  1.0
  C  C2835  1  0.026370  0.651180  0.935290  1.0
  C  C2836  1  0.973630  0.651180  0.564710  1.0
  C  C2837  1  0.473630  0.848820  0.064710  1.0
  C  C2838  1  0.526370  0.848820  0.435290  1.0
  C  C2839  1  0.973630  0.348820  0.064710  1.0
  C  C2840  1  0.026370  0.348820  0.435290  1.0
  C  C2841  1  0.507330  0.125900  0.912340  1.0
  C  C2842  1  0.492670  0.125900  0.587660  1.0
  C  C2843  1  0.007330  0.625900  0.912340  1.0
  C  C2844  1  0.992670  0.625900  0.587660  1.0
  C  C2845  1  0.492670  0.874100  0.087660  1.0
  C  C2846  1  0.507330  0.874100  0.412340  1.0
  C  C2847  1  0.992670  0.374100  0.087660  1.0
  C  C2848  1  0.007330  0.374100  0.412340  1.0
  C  C2849  1  0.467460  0.105820  0.915060  1.0
  C  C2850  1  0.532540  0.105820  0.584940  1.0
  C  C2851  1  0.967460  0.605820  0.915060  1.0
  C  C2852  1  0.032540  0.605820  0.584940  1.0
  C  C2853  1  0.532540  0.894180  0.084940  1.0
  C  C2854  1  0.467460  0.894180  0.415060  1.0
  C  C2855  1  0.032540  0.394180  0.084940  1.0
  C  C2856  1  0.967460  0.394180  0.415060  1.0
  C  C2857  1  0.446620  0.111010  0.940730  1.0
  C  C2858  1  0.553380  0.111010  0.559270  1.0
  C  C2859  1  0.946620  0.611010  0.940730  1.0
  C  C2860  1  0.053380  0.611010  0.559270  1.0
  C  C2861  1  0.553380  0.888990  0.059270  1.0
  C  C2862  1  0.446620  0.888990  0.440730  1.0
  C  C2863  1  0.053380  0.388990  0.059270  1.0
  C  C2864  1  0.946620  0.388990  0.440730  1.0
  C  C2865  1  0.465650  0.136290  0.963680  1.0
  C  C2866  1  0.534350  0.136290  0.536320  1.0
  C  C2867  1  0.965650  0.636290  0.963680  1.0
  C  C2868  1  0.034350  0.636290  0.536320  1.0
  C  C2869  1  0.534350  0.863710  0.036320  1.0
  C  C2870  1  0.465650  0.863710  0.463680  1.0
  C  C2871  1  0.034350  0.363710  0.036320  1.0
  C  C2872  1  0.965650  0.363710  0.463680  1.0
  C  C2873  1  0.505530  0.156370  0.960970  1.0
  C  C2874  1  0.494470  0.156370  0.539030  1.0
  C  C2875  1  0.005530  0.656370  0.960970  1.0
  C  C2876  1  0.994470  0.656370  0.539030  1.0
  C  C2877  1  0.494470  0.843630  0.039030  1.0
  C  C2878  1  0.505530  0.843630  0.460970  1.0
  C  C2879  1  0.994470  0.343630  0.039030  1.0
  C  C2880  1  0.005530  0.343630  0.460970  1.0
  C  C2881  1  0.138000  0.193330  0.074550  1.0
  C  C2882  1  0.862000  0.193330  0.425450  1.0
  C  C2883  1  0.638000  0.693330  0.074550  1.0
  C  C2884  1  0.362000  0.693330  0.425450  1.0
  C  C2885  1  0.862000  0.806670  0.925450  1.0
  C  C2886  1  0.138000  0.806670  0.574550  1.0
  C  C2887  1  0.362000  0.306670  0.925450  1.0
  C  C2888  1  0.638000  0.306670  0.574550  1.0
  C  C2889  1  0.170100  0.170510  0.095300  1.0
  C  C2890  1  0.829900  0.170510  0.404700  1.0
  C  C2891  1  0.670100  0.670510  0.095300  1.0
  C  C2892  1  0.329900  0.670510  0.404700  1.0
  C  C2893  1  0.829900  0.829490  0.904700  1.0
  C  C2894  1  0.170100  0.829490  0.595300  1.0
  C  C2895  1  0.329900  0.329490  0.904700  1.0
  C  C2896  1  0.670100  0.329490  0.595300  1.0
  C  C2897  1  0.211300  0.182300  0.120000  1.0
  C  C2898  1  0.788700  0.182300  0.380000  1.0
  C  C2899  1  0.711300  0.682300  0.120000  1.0
  C  C2900  1  0.288700  0.682300  0.380000  1.0
  C  C2901  1  0.788700  0.817700  0.880000  1.0
  C  C2902  1  0.211300  0.817700  0.620000  1.0
  C  C2903  1  0.288700  0.317700  0.880000  1.0
  C  C2904  1  0.711300  0.317700  0.620000  1.0
  C  C2905  1  0.220400  0.216900  0.123960  1.0
  C  C2906  1  0.779600  0.216900  0.376040  1.0
  C  C2907  1  0.720400  0.716900  0.123960  1.0
  C  C2908  1  0.279600  0.716900  0.376040  1.0
  C  C2909  1  0.779600  0.783100  0.876040  1.0
  C  C2910  1  0.220400  0.783100  0.623960  1.0
  C  C2911  1  0.279600  0.283100  0.876040  1.0
  C  C2912  1  0.720400  0.283100  0.623960  1.0
  C  C2913  1  0.188300  0.239680  0.103200  1.0
  C  C2914  1  0.811700  0.239680  0.396800  1.0
  C  C2915  1  0.688300  0.739680  0.103200  1.0
  C  C2916  1  0.311700  0.739680  0.396800  1.0
  C  C2917  1  0.811700  0.760320  0.896800  1.0
  C  C2918  1  0.188300  0.760320  0.603200  1.0
  C  C2919  1  0.311700  0.260320  0.896800  1.0
  C  C2920  1  0.688300  0.260320  0.603200  1.0
  C  C2921  1  0.094700  0.184550  0.050490  1.0
  C  C2922  1  0.905300  0.184550  0.449510  1.0
  C  C2923  1  0.594700  0.684550  0.050490  1.0
  C  C2924  1  0.405300  0.684550  0.449510  1.0
  C  C2925  1  0.905300  0.815450  0.949510  1.0
  C  C2926  1  0.094700  0.815450  0.550490  1.0
  C  C2927  1  0.405300  0.315450  0.949510  1.0
  C  C2928  1  0.594700  0.315450  0.550490  1.0
  C  C2929  1  0.073300  0.152550  0.039090  1.0
  C  C2930  1  0.926700  0.152550  0.460910  1.0
  C  C2931  1  0.573300  0.652550  0.039090  1.0
  C  C2932  1  0.426700  0.652550  0.460910  1.0
  C  C2933  1  0.926700  0.847450  0.960910  1.0
  C  C2934  1  0.073300  0.847450  0.539090  1.0
  C  C2935  1  0.426700  0.347450  0.960910  1.0
  C  C2936  1  0.573300  0.347450  0.539090  1.0
  C  C2937  1  0.026700  0.158270  0.014750  1.0
  C  C2938  1  0.973300  0.158270  0.485250  1.0
  C  C2939  1  0.526700  0.658270  0.014750  1.0
  C  C2940  1  0.473300  0.658270  0.485250  1.0
  C  C2941  1  0.973300  0.841730  0.985250  1.0
  C  C2942  1  0.026700  0.841730  0.514750  1.0
  C  C2943  1  0.473300  0.341730  0.985250  1.0
  C  C2944  1  0.526700  0.341730  0.514750  1.0
  C  C2945  1  0.979100  0.211900  0.989700  1.0
  C  C2946  1  0.020900  0.211900  0.510300  1.0
  C  C2947  1  0.479100  0.711900  0.989700  1.0
  C  C2948  1  0.520900  0.711900  0.510300  1.0
  C  C2949  1  0.020900  0.788100  0.010300  1.0
  C  C2950  1  0.979100  0.788100  0.489700  1.0
  C  C2951  1  0.520900  0.288100  0.010300  1.0
  C  C2952  1  0.479100  0.288100  0.489700  1.0
  C  C2953  1  0.791000  0.328550  0.774010  1.0
  C  C2954  1  0.209000  0.328550  0.725990  1.0
  C  C2955  1  0.291000  0.828550  0.774010  1.0
  C  C2956  1  0.709000  0.828550  0.725990  1.0
  C  C2957  1  0.209000  0.671450  0.225990  1.0
  C  C2958  1  0.791000  0.671450  0.274010  1.0
  C  C2959  1  0.709000  0.171450  0.225990  1.0
  C  C2960  1  0.291000  0.171450  0.274010  1.0
  C  C2961  1  0.763300  0.357280  0.761150  1.0
  C  C2962  1  0.236700  0.357280  0.738850  1.0
  C  C2963  1  0.263300  0.857280  0.761150  1.0
  C  C2964  1  0.736700  0.857280  0.738850  1.0
  C  C2965  1  0.236700  0.642720  0.238850  1.0
  C  C2966  1  0.763300  0.642720  0.261150  1.0
  C  C2967  1  0.736700  0.142720  0.238850  1.0
  C  C2968  1  0.263300  0.142720  0.261150  1.0
  C  C2969  1  0.718200  0.354160  0.736280  1.0
  C  C2970  1  0.281800  0.354160  0.763720  1.0
  C  C2971  1  0.218200  0.854160  0.736280  1.0
  C  C2972  1  0.781800  0.854160  0.763720  1.0
  C  C2973  1  0.281800  0.645840  0.263720  1.0
  C  C2974  1  0.718200  0.645840  0.236280  1.0
  C  C2975  1  0.781800  0.145840  0.263720  1.0
  C  C2976  1  0.218200  0.145840  0.236280  1.0
  C  C2977  1  0.700800  0.322320  0.724260  1.0
  C  C2978  1  0.299200  0.322320  0.775740  1.0
  C  C2979  1  0.200800  0.822320  0.724260  1.0
  C  C2980  1  0.799200  0.822320  0.775740  1.0
  C  C2981  1  0.299200  0.677680  0.275740  1.0
  C  C2982  1  0.700800  0.677680  0.224260  1.0
  C  C2983  1  0.799200  0.177680  0.275740  1.0
  C  C2984  1  0.200800  0.177680  0.224260  1.0
  C  C2985  1  0.728500  0.293590  0.737110  1.0
  C  C2986  1  0.271500  0.293590  0.762890  1.0
  C  C2987  1  0.228500  0.793590  0.737110  1.0
  C  C2988  1  0.771500  0.793590  0.762890  1.0
  C  C2989  1  0.271500  0.706410  0.262890  1.0
  C  C2990  1  0.728500  0.706410  0.237110  1.0
  C  C2991  1  0.771500  0.206410  0.262890  1.0
  C  C2992  1  0.228500  0.206410  0.237110  1.0
  C  C2993  1  0.687300  0.384600  0.723500  1.0
  C  C2994  1  0.312700  0.384600  0.776500  1.0
  C  C2995  1  0.187300  0.884600  0.723500  1.0
  C  C2996  1  0.812700  0.884600  0.776500  1.0
  C  C2997  1  0.312700  0.615400  0.276500  1.0
  C  C2998  1  0.687300  0.615400  0.223500  1.0
  C  C2999  1  0.812700  0.115400  0.276500  1.0
  C  C3000  1  0.187300  0.115400  0.223500  1.0
  C  C3001  1  0.836500  0.330400  0.797800  1.0
  C  C3002  1  0.163500  0.330400  0.702200  1.0
  C  C3003  1  0.336500  0.830400  0.797800  1.0
  C  C3004  1  0.663500  0.830400  0.702200  1.0
  C  C3005  1  0.163500  0.669600  0.202200  1.0
  C  C3006  1  0.836500  0.669600  0.297800  1.0
  C  C3007  1  0.663500  0.169600  0.202200  1.0
  C  C3008  1  0.336500  0.169600  0.297800  1.0
  C  C3009  1  0.868100  0.357750  0.812700  1.0
  C  C3010  1  0.131900  0.357750  0.687300  1.0
  C  C3011  1  0.368100  0.857750  0.812700  1.0
  C  C3012  1  0.631900  0.857750  0.687300  1.0
  C  C3013  1  0.131900  0.642250  0.187300  1.0
  C  C3014  1  0.868100  0.642250  0.312700  1.0
  C  C3015  1  0.631900  0.142250  0.187300  1.0
  C  C3016  1  0.368100  0.142250  0.312700  1.0
  C  C3017  1  0.912800  0.344100  0.834400  1.0
  C  C3018  1  0.087200  0.344100  0.665600  1.0
  C  C3019  1  0.412800  0.844100  0.834400  1.0
  C  C3020  1  0.587200  0.844100  0.665600  1.0
  C  C3021  1  0.087200  0.655900  0.165600  1.0
  C  C3022  1  0.912800  0.655900  0.334400  1.0
  C  C3023  1  0.587200  0.155900  0.165600  1.0
  C  C3024  1  0.412800  0.155900  0.334400  1.0
  C  C3025  1  0.942100  0.284300  0.852200  1.0
  C  C3026  1  0.057900  0.284300  0.647800  1.0
  C  C3027  1  0.442100  0.784300  0.852200  1.0
  C  C3028  1  0.557900  0.784300  0.647800  1.0
  C  C3029  1  0.057900  0.715700  0.147800  1.0
  C  C3030  1  0.942100  0.715700  0.352200  1.0
  C  C3031  1  0.557900  0.215700  0.147800  1.0
  C  C3032  1  0.442100  0.215700  0.352200  1.0
  C  C3033  1  0.987200  0.219300  0.956600  1.0
  C  C3034  1  0.012800  0.219300  0.543400  1.0
  C  C3035  1  0.487200  0.719300  0.956600  1.0
  C  C3036  1  0.512800  0.719300  0.543400  1.0
  C  C3037  1  0.012800  0.780700  0.043400  1.0
  C  C3038  1  0.987200  0.780700  0.456600  1.0
  C  C3039  1  0.512800  0.280700  0.043400  1.0
  C  C3040  1  0.487200  0.280700  0.456600  1.0
  C  C3041  1  0.027200  0.205000  0.947400  1.0
  C  C3042  1  0.972800  0.205000  0.552600  1.0
  C  C3043  1  0.527200  0.705000  0.947400  1.0
  C  C3044  1  0.472800  0.705000  0.552600  1.0
  C  C3045  1  0.972800  0.795000  0.052600  1.0
  C  C3046  1  0.027200  0.795000  0.447400  1.0
  C  C3047  1  0.472800  0.295000  0.052600  1.0
  C  C3048  1  0.527200  0.295000  0.447400  1.0
  C  C3049  1  0.035400  0.212600  0.917900  1.0
  C  C3050  1  0.964600  0.212600  0.582100  1.0
  C  C3051  1  0.535400  0.712600  0.917900  1.0
  C  C3052  1  0.464600  0.712600  0.582100  1.0
  C  C3053  1  0.964600  0.787400  0.082100  1.0
  C  C3054  1  0.035400  0.787400  0.417900  1.0
  C  C3055  1  0.464600  0.287400  0.082100  1.0
  C  C3056  1  0.535400  0.287400  0.417900  1.0
  C  C3057  1  0.004200  0.234700  0.896100  1.0
  C  C3058  1  0.995800  0.234700  0.603900  1.0
  C  C3059  1  0.504200  0.734700  0.896100  1.0
  C  C3060  1  0.495800  0.734700  0.603900  1.0
  C  C3061  1  0.995800  0.765300  0.103900  1.0
  C  C3062  1  0.004200  0.765300  0.396100  1.0
  C  C3063  1  0.495800  0.265300  0.103900  1.0
  C  C3064  1  0.504200  0.265300  0.396100  1.0
  C  C3065  1  0.963600  0.250700  0.904300  1.0
  C  C3066  1  0.036400  0.250700  0.595700  1.0
  C  C3067  1  0.463600  0.750700  0.904300  1.0
  C  C3068  1  0.536400  0.750700  0.595700  1.0
  C  C3069  1  0.036400  0.749300  0.095700  1.0
  C  C3070  1  0.963600  0.749300  0.404300  1.0
  C  C3071  1  0.536400  0.249300  0.095700  1.0
  C  C3072  1  0.463600  0.249300  0.404300  1.0
  C  C3073  1  0.953800  0.241900  0.935200  1.0
  C  C3074  1  0.046200  0.241900  0.564800  1.0
  C  C3075  1  0.453800  0.741900  0.935200  1.0
  C  C3076  1  0.546200  0.741900  0.564800  1.0
  C  C3077  1  0.046200  0.758100  0.064800  1.0
  C  C3078  1  0.953800  0.758100  0.435200  1.0
  C  C3079  1  0.546200  0.258100  0.064800  1.0
  C  C3080  1  0.453800  0.258100  0.435200  1.0
  C  C3081  1  0.914200  0.257800  0.943300  1.0
  C  C3082  1  0.085800  0.257800  0.556700  1.0
  C  C3083  1  0.414200  0.757800  0.943300  1.0
  C  C3084  1  0.585800  0.757800  0.556700  1.0
  C  C3085  1  0.085800  0.742200  0.056700  1.0
  C  C3086  1  0.914200  0.742200  0.443300  1.0
  C  C3087  1  0.585800  0.242200  0.056700  1.0
  C  C3088  1  0.414200  0.242200  0.443300  1.0
  C  C3089  1  0.884200  0.281900  0.922900  1.0
  C  C3090  1  0.115800  0.281900  0.577100  1.0
  C  C3091  1  0.384200  0.781900  0.922900  1.0
  C  C3092  1  0.615800  0.781900  0.577100  1.0
  C  C3093  1  0.115800  0.718100  0.077100  1.0
  C  C3094  1  0.884200  0.718100  0.422900  1.0
  C  C3095  1  0.615800  0.218100  0.077100  1.0
  C  C3096  1  0.384200  0.218100  0.422900  1.0
  C  C3097  1  0.893400  0.289700  0.892000  1.0
  C  C3098  1  0.106600  0.289700  0.608000  1.0
  C  C3099  1  0.393400  0.789700  0.892000  1.0
  C  C3100  1  0.606600  0.789700  0.608000  1.0
  C  C3101  1  0.106600  0.710300  0.108000  1.0
  C  C3102  1  0.893400  0.710300  0.392000  1.0
  C  C3103  1  0.606600  0.210300  0.108000  1.0
  C  C3104  1  0.393400  0.210300  0.392000  1.0
  C  C3105  1  0.930700  0.274800  0.883500  1.0
  C  C3106  1  0.069300  0.274800  0.616500  1.0
  C  C3107  1  0.430700  0.774800  0.883500  1.0
  C  C3108  1  0.569300  0.774800  0.616500  1.0
  C  C3109  1  0.069300  0.725200  0.116500  1.0
  C  C3110  1  0.930700  0.725200  0.383500  1.0
  C  C3111  1  0.569300  0.225200  0.116500  1.0
  C  C3112  1  0.430700  0.225200  0.383500  1.0
  C  C3113  1  0.024900  0.171600  0.200200  1.0
  C  C3114  1  0.975100  0.171600  0.299800  1.0
  C  C3115  1  0.524900  0.671600  0.200200  1.0
  C  C3116  1  0.475100  0.671600  0.299800  1.0
  C  C3117  1  0.975100  0.828400  0.799800  1.0
  C  C3118  1  0.024900  0.828400  0.700200  1.0
  C  C3119  1  0.475100  0.328400  0.799800  1.0
  C  C3120  1  0.524900  0.328400  0.700200  1.0
  C  C3121  1  0.479300  0.911300  0.803300  1.0
  C  C3122  1  0.520700  0.911300  0.696700  1.0
  C  C3123  1  0.979300  0.411300  0.803300  1.0
  C  C3124  1  0.020700  0.411300  0.696700  1.0
  C  C3125  1  0.520700  0.088700  0.196700  1.0
  C  C3126  1  0.479300  0.088700  0.303300  1.0
  C  C3127  1  0.020700  0.588700  0.196700  1.0
  C  C3128  1  0.979300  0.588700  0.303300  1.0
  C  C3129  1  0.046200  0.918400  0.205100  1.0
  C  C3130  1  0.953800  0.918400  0.294900  1.0
  C  C3131  1  0.546200  0.418400  0.205100  1.0
  C  C3132  1  0.453800  0.418400  0.294900  1.0
  C  C3133  1  0.953800  0.081600  0.794900  1.0
  C  C3134  1  0.046200  0.081600  0.705100  1.0
  C  C3135  1  0.453800  0.581600  0.794900  1.0
  C  C3136  1  0.546200  0.581600  0.705100  1.0
  C  C3137  1  0.937300  0.248900  0.671800  1.0
  C  C3138  1  0.062700  0.248900  0.828200  1.0
  C  C3139  1  0.437300  0.748900  0.671800  1.0
  C  C3140  1  0.562700  0.748900  0.828200  1.0
  C  C3141  1  0.062700  0.751100  0.328200  1.0
  C  C3142  1  0.937300  0.751100  0.171800  1.0
  C  C3143  1  0.562700  0.251100  0.328200  1.0
  C  C3144  1  0.437300  0.251100  0.171800  1.0
  C  C3145  1  0.299000  0.254400  0.072500  1.0
  C  C3146  1  0.701000  0.254400  0.427500  1.0
  C  C3147  1  0.799000  0.754400  0.072500  1.0
  C  C3148  1  0.201000  0.754400  0.427500  1.0
  C  C3149  1  0.701000  0.745600  0.927500  1.0
  C  C3150  1  0.299000  0.745600  0.572500  1.0
  C  C3151  1  0.201000  0.245600  0.927500  1.0
  C  C3152  1  0.799000  0.245600  0.572500  1.0
  C  C3153  1  0.246300  0.158500  0.146900  1.0
  C  C3154  1  0.753700  0.158500  0.353100  1.0
  C  C3155  1  0.746300  0.658500  0.146900  1.0
  C  C3156  1  0.253700  0.658500  0.353100  1.0
  C  C3157  1  0.753700  0.841500  0.853100  1.0
  C  C3158  1  0.246300  0.841500  0.646900  1.0
  C  C3159  1  0.253700  0.341500  0.853100  1.0
  C  C3160  1  0.746300  0.341500  0.646900  1.0
  N  N3161  1  0.948400  0.081790  0.153560  1.0
  N  N3162  1  0.051600  0.081790  0.346440  1.0
  N  N3163  1  0.448400  0.581790  0.153560  1.0
  N  N3164  1  0.551600  0.581790  0.346440  1.0
  N  N3165  1  0.051600  0.918210  0.846440  1.0
  N  N3166  1  0.948400  0.918210  0.653560  1.0
  N  N3167  1  0.551600  0.418210  0.846440  1.0
  N  N3168  1  0.448400  0.418210  0.653560  1.0
  N  N3169  1  0.807500  0.091790  0.088520  1.0
  N  N3170  1  0.192500  0.091790  0.411480  1.0
  N  N3171  1  0.307500  0.591790  0.088520  1.0
  N  N3172  1  0.692500  0.591790  0.411480  1.0
  N  N3173  1  0.192500  0.908210  0.911480  1.0
  N  N3174  1  0.807500  0.908210  0.588520  1.0
  N  N3175  1  0.692500  0.408210  0.911480  1.0
  N  N3176  1  0.307500  0.408210  0.588520  1.0
  N  N3177  1  0.855900  0.083780  0.109910  1.0
  N  N3178  1  0.144100  0.083780  0.390090  1.0
  N  N3179  1  0.355900  0.583780  0.109910  1.0
  N  N3180  1  0.644100  0.583780  0.390090  1.0
  N  N3181  1  0.144100  0.916220  0.890090  1.0
  N  N3182  1  0.855900  0.916220  0.609910  1.0
  N  N3183  1  0.644100  0.416220  0.890090  1.0
  N  N3184  1  0.355900  0.416220  0.609910  1.0
  N  N3185  1  0.572900  0.996120  0.847700  1.0
  N  N3186  1  0.427100  0.996120  0.652300  1.0
  N  N3187  1  0.072900  0.496120  0.847700  1.0
  N  N3188  1  0.927100  0.496120  0.652300  1.0
  N  N3189  1  0.427100  0.003880  0.152300  1.0
  N  N3190  1  0.572900  0.003880  0.347700  1.0
  N  N3191  1  0.927100  0.503880  0.152300  1.0
  N  N3192  1  0.072900  0.503880  0.347700  1.0
  N  N3193  1  0.710800  0.976980  0.911380  1.0
  N  N3194  1  0.289200  0.976980  0.588620  1.0
  N  N3195  1  0.210800  0.476980  0.911380  1.0
  N  N3196  1  0.789200  0.476980  0.588620  1.0
  N  N3197  1  0.289200  0.023020  0.088620  1.0
  N  N3198  1  0.710800  0.023020  0.411380  1.0
  N  N3199  1  0.789200  0.523020  0.088620  1.0
  N  N3200  1  0.210800  0.523020  0.411380  1.0
  N  N3201  1  0.663200  0.987660  0.890630  1.0
  N  N3202  1  0.336800  0.987660  0.609370  1.0
  N  N3203  1  0.163200  0.487660  0.890630  1.0
  N  N3204  1  0.836800  0.487660  0.609370  1.0
  N  N3205  1  0.336800  0.012340  0.109370  1.0
  N  N3206  1  0.663200  0.012340  0.390630  1.0
  N  N3207  1  0.836800  0.512340  0.109370  1.0
  N  N3208  1  0.163200  0.512340  0.390630  1.0
  N  N3209  1  0.859800  0.003540  0.094320  1.0
  N  N3210  1  0.140200  0.003540  0.405680  1.0
  N  N3211  1  0.359800  0.503540  0.094320  1.0
  N  N3212  1  0.640200  0.503540  0.405680  1.0
  N  N3213  1  0.140200  0.996460  0.905680  1.0
  N  N3214  1  0.859800  0.996460  0.594320  1.0
  N  N3215  1  0.640200  0.496460  0.905680  1.0
  N  N3216  1  0.359800  0.496460  0.594320  1.0
  N  N3217  1  0.982100  0.050410  0.078420  1.0
  N  N3218  1  0.017900  0.050410  0.421580  1.0
  N  N3219  1  0.482100  0.550410  0.078420  1.0
  N  N3220  1  0.517900  0.550410  0.421580  1.0
  N  N3221  1  0.017900  0.949590  0.921580  1.0
  N  N3222  1  0.982100  0.949590  0.578420  1.0
  N  N3223  1  0.517900  0.449590  0.921580  1.0
  N  N3224  1  0.482100  0.449590  0.578420  1.0
  N  N3225  1  0.938300  0.038500  0.085930  1.0
  N  N3226  1  0.061700  0.038500  0.414070  1.0
  N  N3227  1  0.438300  0.538500  0.085930  1.0
  N  N3228  1  0.561700  0.538500  0.414070  1.0
  N  N3229  1  0.061700  0.961500  0.914070  1.0
  N  N3230  1  0.938300  0.961500  0.585930  1.0
  N  N3231  1  0.561700  0.461500  0.914070  1.0
  N  N3232  1  0.438300  0.461500  0.585930  1.0
  N  N3233  1  0.134600  0.304120  0.062580  1.0
  N  N3234  1  0.865400  0.304120  0.437420  1.0
  N  N3235  1  0.634600  0.804120  0.062580  1.0
  N  N3236  1  0.365400  0.804120  0.437420  1.0
  N  N3237  1  0.865400  0.695880  0.937420  1.0
  N  N3238  1  0.134600  0.695880  0.562580  1.0
  N  N3239  1  0.365400  0.195880  0.937420  1.0
  N  N3240  1  0.634600  0.195880  0.562580  1.0
  N  N3241  1  0.021700  0.265000  0.094420  1.0
  N  N3242  1  0.978300  0.265000  0.405580  1.0
  N  N3243  1  0.521700  0.765000  0.094420  1.0
  N  N3244  1  0.478300  0.765000  0.405580  1.0
  N  N3245  1  0.978300  0.735000  0.905580  1.0
  N  N3246  1  0.021700  0.735000  0.594420  1.0
  N  N3247  1  0.478300  0.235000  0.905580  1.0
  N  N3248  1  0.521700  0.235000  0.594420  1.0
  N  N3249  1  0.059800  0.275720  0.080300  1.0
  N  N3250  1  0.940200  0.275720  0.419700  1.0
  N  N3251  1  0.559800  0.775720  0.080300  1.0
  N  N3252  1  0.440200  0.775720  0.419700  1.0
  N  N3253  1  0.940200  0.724280  0.919700  1.0
  N  N3254  1  0.059800  0.724280  0.580300  1.0
  N  N3255  1  0.440200  0.224280  0.919700  1.0
  N  N3256  1  0.559800  0.224280  0.580300  1.0
  N  N3257  1  0.959000  0.001040  0.151490  1.0
  N  N3258  1  0.041000  0.001040  0.348510  1.0
  N  N3259  1  0.459000  0.501040  0.151490  1.0
  N  N3260  1  0.541000  0.501040  0.348510  1.0
  N  N3261  1  0.041000  0.998960  0.848510  1.0
  N  N3262  1  0.959000  0.998960  0.651490  1.0
  N  N3263  1  0.541000  0.498960  0.848510  1.0
  N  N3264  1  0.459000  0.498960  0.651490  1.0
  N  N3265  1  0.840800  0.034400  0.182200  1.0
  N  N3266  1  0.159200  0.034400  0.317800  1.0
  N  N3267  1  0.340800  0.534400  0.182200  1.0
  N  N3268  1  0.659200  0.534400  0.317800  1.0
  N  N3269  1  0.159200  0.965600  0.817800  1.0
  N  N3270  1  0.840800  0.965600  0.682200  1.0
  N  N3271  1  0.659200  0.465600  0.817800  1.0
  N  N3272  1  0.340800  0.465600  0.682200  1.0
  N  N3273  1  0.880500  0.025870  0.168710  1.0
  N  N3274  1  0.119500  0.025870  0.331290  1.0
  N  N3275  1  0.380500  0.525870  0.168710  1.0
  N  N3276  1  0.619500  0.525870  0.331290  1.0
  N  N3277  1  0.119500  0.974130  0.831290  1.0
  N  N3278  1  0.880500  0.974130  0.668710  1.0
  N  N3279  1  0.619500  0.474130  0.831290  1.0
  N  N3280  1  0.380500  0.474130  0.668710  1.0
  N  N3281  1  0.633000  0.283250  0.186200  1.0
  N  N3282  1  0.367000  0.283250  0.313800  1.0
  N  N3283  1  0.133000  0.783250  0.186200  1.0
  N  N3284  1  0.867000  0.783250  0.313800  1.0
  N  N3285  1  0.367000  0.716750  0.813800  1.0
  N  N3286  1  0.633000  0.716750  0.686200  1.0
  N  N3287  1  0.867000  0.216750  0.813800  1.0
  N  N3288  1  0.133000  0.216750  0.686200  1.0
  N  N3289  1  0.758900  0.245110  0.167560  1.0
  N  N3290  1  0.241100  0.245110  0.332440  1.0
  N  N3291  1  0.258900  0.745110  0.167560  1.0
  N  N3292  1  0.741100  0.745110  0.332440  1.0
  N  N3293  1  0.241100  0.754890  0.832440  1.0
  N  N3294  1  0.758900  0.754890  0.667560  1.0
  N  N3295  1  0.741100  0.254890  0.832440  1.0
  N  N3296  1  0.258900  0.254890  0.667560  1.0
  N  N3297  1  0.715800  0.255100  0.177050  1.0
  N  N3298  1  0.284200  0.255100  0.322950  1.0
  N  N3299  1  0.215800  0.755100  0.177050  1.0
  N  N3300  1  0.784200  0.755100  0.322950  1.0
  N  N3301  1  0.284200  0.744900  0.822950  1.0
  N  N3302  1  0.715800  0.744900  0.677050  1.0
  N  N3303  1  0.784200  0.244900  0.822950  1.0
  N  N3304  1  0.215800  0.244900  0.677050  1.0
  N  N3305  1  0.592200  0.037350  0.912880  1.0
  N  N3306  1  0.407800  0.037350  0.587120  1.0
  N  N3307  1  0.092200  0.537350  0.912880  1.0
  N  N3308  1  0.907800  0.537350  0.587120  1.0
  N  N3309  1  0.407800  0.962650  0.087120  1.0
  N  N3310  1  0.592200  0.962650  0.412880  1.0
  N  N3311  1  0.907800  0.462650  0.087120  1.0
  N  N3312  1  0.092200  0.462650  0.412880  1.0
  N  N3313  1  0.719300  0.089090  0.911520  1.0
  N  N3314  1  0.280700  0.089090  0.588480  1.0
  N  N3315  1  0.219300  0.589090  0.911520  1.0
  N  N3316  1  0.780700  0.589090  0.588480  1.0
  N  N3317  1  0.280700  0.910910  0.088480  1.0
  N  N3318  1  0.719300  0.910910  0.411520  1.0
  N  N3319  1  0.780700  0.410910  0.088480  1.0
  N  N3320  1  0.219300  0.410910  0.411520  1.0
  N  N3321  1  0.673400  0.070890  0.906690  1.0
  N  N3322  1  0.326600  0.070890  0.593310  1.0
  N  N3323  1  0.173400  0.570890  0.906690  1.0
  N  N3324  1  0.826600  0.570890  0.593310  1.0
  N  N3325  1  0.326600  0.929110  0.093310  1.0
  N  N3326  1  0.673400  0.929110  0.406690  1.0
  N  N3327  1  0.826600  0.429110  0.093310  1.0
  N  N3328  1  0.173400  0.429110  0.406690  1.0
  N  N3329  1  0.861700  0.257700  0.747100  1.0
  N  N3330  1  0.138300  0.257700  0.752900  1.0
  N  N3331  1  0.361700  0.757700  0.747100  1.0
  N  N3332  1  0.638300  0.757700  0.752900  1.0
  N  N3333  1  0.138300  0.742300  0.252900  1.0
  N  N3334  1  0.861700  0.742300  0.247100  1.0
  N  N3335  1  0.638300  0.242300  0.252900  1.0
  N  N3336  1  0.361700  0.242300  0.247100  1.0
  N  N3337  1  0.740800  0.198600  0.740400  1.0
  N  N3338  1  0.259200  0.198600  0.759600  1.0
  N  N3339  1  0.240800  0.698600  0.740400  1.0
  N  N3340  1  0.759200  0.698600  0.759600  1.0
  N  N3341  1  0.259200  0.801400  0.259600  1.0
  N  N3342  1  0.740800  0.801400  0.240400  1.0
  N  N3343  1  0.759200  0.301400  0.259600  1.0
  N  N3344  1  0.240800  0.301400  0.240400  1.0
  N  N3345  1  0.783700  0.220100  0.747140  1.0
  N  N3346  1  0.216300  0.220100  0.752860  1.0
  N  N3347  1  0.283700  0.720100  0.747140  1.0
  N  N3348  1  0.716300  0.720100  0.752860  1.0
  N  N3349  1  0.216300  0.779900  0.252860  1.0
  N  N3350  1  0.783700  0.779900  0.247140  1.0
  N  N3351  1  0.716300  0.279900  0.252860  1.0
  N  N3352  1  0.283700  0.279900  0.247140  1.0
  N  N3353  1  0.661500  0.038660  0.835050  1.0
  N  N3354  1  0.338500  0.038660  0.664950  1.0
  N  N3355  1  0.161500  0.538660  0.835050  1.0
  N  N3356  1  0.838500  0.538660  0.664950  1.0
  N  N3357  1  0.338500  0.961340  0.164950  1.0
  N  N3358  1  0.661500  0.961340  0.335050  1.0
  N  N3359  1  0.838500  0.461340  0.164950  1.0
  N  N3360  1  0.161500  0.461340  0.335050  1.0
  N  N3361  1  0.535000  0.090510  0.836990  1.0
  N  N3362  1  0.465000  0.090510  0.663010  1.0
  N  N3363  1  0.035000  0.590510  0.836990  1.0
  N  N3364  1  0.965000  0.590510  0.663010  1.0
  N  N3365  1  0.465000  0.909490  0.163010  1.0
  N  N3366  1  0.535000  0.909490  0.336990  1.0
  N  N3367  1  0.965000  0.409490  0.163010  1.0
  N  N3368  1  0.035000  0.409490  0.336990  1.0
  N  N3369  1  0.581000  0.072520  0.841700  1.0
  N  N3370  1  0.419000  0.072520  0.658300  1.0
  N  N3371  1  0.081000  0.572520  0.841700  1.0
  N  N3372  1  0.919000  0.572520  0.658300  1.0
  N  N3373  1  0.419000  0.927480  0.158300  1.0
  N  N3374  1  0.581000  0.927480  0.341700  1.0
  N  N3375  1  0.919000  0.427480  0.158300  1.0
  N  N3376  1  0.081000  0.427480  0.341700  1.0
  N  N3377  1  0.369800  0.248230  0.995030  1.0
  N  N3378  1  0.630200  0.248230  0.504970  1.0
  N  N3379  1  0.869800  0.748230  0.995030  1.0
  N  N3380  1  0.130200  0.748230  0.504970  1.0
  N  N3381  1  0.630200  0.751770  0.004970  1.0
  N  N3382  1  0.369800  0.751770  0.495030  1.0
  N  N3383  1  0.130200  0.251770  0.004970  1.0
  N  N3384  1  0.869800  0.251770  0.495030  1.0
  N  N3385  1  0.495690  0.191150  0.006530  1.0
  N  N3386  1  0.504310  0.191150  0.493470  1.0
  N  N3387  1  0.995690  0.691150  0.006530  1.0
  N  N3388  1  0.004310  0.691150  0.493470  1.0
  N  N3389  1  0.504310  0.808850  0.993470  1.0
  N  N3390  1  0.495690  0.808850  0.506530  1.0
  N  N3391  1  0.004310  0.308850  0.993470  1.0
  N  N3392  1  0.995690  0.308850  0.506530  1.0
  N  N3393  1  0.452370  0.212330  0.998620  1.0
  N  N3394  1  0.547630  0.212330  0.501380  1.0
  N  N3395  1  0.952370  0.712330  0.998620  1.0
  N  N3396  1  0.047630  0.712330  0.501380  1.0
  N  N3397  1  0.547630  0.787670  0.001380  1.0
  N  N3398  1  0.452370  0.787670  0.498620  1.0
  N  N3399  1  0.047630  0.287670  0.001380  1.0
  N  N3400  1  0.952370  0.287670  0.498620  1.0
  N  N3401  1  0.147100  0.227920  0.078460  1.0
  N  N3402  1  0.852900  0.227920  0.421540  1.0
  N  N3403  1  0.647100  0.727920  0.078460  1.0
  N  N3404  1  0.352900  0.727920  0.421540  1.0
  N  N3405  1  0.852900  0.772080  0.921540  1.0
  N  N3406  1  0.147100  0.772080  0.578460  1.0
  N  N3407  1  0.352900  0.272080  0.921540  1.0
  N  N3408  1  0.647100  0.272080  0.578460  1.0
  N  N3409  1  0.019300  0.193800  0.011110  1.0
  N  N3410  1  0.980700  0.193800  0.488890  1.0
  N  N3411  1  0.519300  0.693800  0.011110  1.0
  N  N3412  1  0.480700  0.693800  0.488890  1.0
  N  N3413  1  0.980700  0.806200  0.988890  1.0
  N  N3414  1  0.019300  0.806200  0.511110  1.0
  N  N3415  1  0.480700  0.306200  0.988890  1.0
  N  N3416  1  0.519300  0.306200  0.511110  1.0
  N  N3417  1  0.061300  0.210040  0.033200  1.0
  N  N3418  1  0.938700  0.210040  0.466800  1.0
  N  N3419  1  0.561300  0.710040  0.033200  1.0
  N  N3420  1  0.438700  0.710040  0.466800  1.0
  N  N3421  1  0.938700  0.789960  0.966800  1.0
  N  N3422  1  0.061300  0.789960  0.533200  1.0
  N  N3423  1  0.438700  0.289960  0.966800  1.0
  N  N3424  1  0.561300  0.289960  0.533200  1.0
  N  N3425  1  0.773600  0.296710  0.761990  1.0
  N  N3426  1  0.226400  0.296710  0.738010  1.0
  N  N3427  1  0.273600  0.796710  0.761990  1.0
  N  N3428  1  0.726400  0.796710  0.738010  1.0
  N  N3429  1  0.226400  0.703290  0.238010  1.0
  N  N3430  1  0.773600  0.703290  0.261990  1.0
  N  N3431  1  0.726400  0.203290  0.238010  1.0
  N  N3432  1  0.273600  0.203290  0.261990  1.0
  N  N3433  1  0.908900  0.308200  0.832900  1.0
  N  N3434  1  0.091100  0.308200  0.667100  1.0
  N  N3435  1  0.408900  0.808200  0.832900  1.0
  N  N3436  1  0.591100  0.808200  0.667100  1.0
  N  N3437  1  0.091100  0.691800  0.167100  1.0
  N  N3438  1  0.908900  0.691800  0.332900  1.0
  N  N3439  1  0.591100  0.191800  0.167100  1.0
  N  N3440  1  0.408900  0.191800  0.332900  1.0
  N  N3441  1  0.861700  0.299740  0.810300  1.0
  N  N3442  1  0.138300  0.299740  0.689700  1.0
  N  N3443  1  0.361700  0.799740  0.810300  1.0
  N  N3444  1  0.638300  0.799740  0.689700  1.0
  N  N3445  1  0.138300  0.700260  0.189700  1.0
  N  N3446  1  0.861700  0.700260  0.310300  1.0
  N  N3447  1  0.638300  0.200260  0.189700  1.0
  N  N3448  1  0.361700  0.200260  0.310300  1.0
  O  O3449  1  0.112600  0.033000  0.201500  1
  O  O3450  1  0.887400  0.033000  0.298500  1
  O  O3451  1  0.612600  0.533000  0.201500  1
  O  O3452  1  0.387400  0.533000  0.298500  1
  O  O3453  1  0.887400  0.967000  0.798500  1
  O  O3454  1  0.112600  0.967000  0.701500  1
  O  O3455  1  0.387400  0.467000  0.798500  1
  O  O3456  1  0.612600  0.467000  0.701500  1
  O  O3457  1  0.115900  0.235400  0.236300  1
  O  O3458  1  0.884100  0.235400  0.263700  1
  O  O3459  1  0.615900  0.735400  0.236300  1
  O  O3460  1  0.384100  0.735400  0.263700  1
  O  O3461  1  0.884100  0.764600  0.763700  1
  O  O3462  1  0.115900  0.764600  0.736300  1
  O  O3463  1  0.384100  0.264600  0.763700  1
  O  O3464  1  0.615900  0.264600  0.736300  1
  O  O3465  1  0.259000  0.173900  0.047300  1
  O  O3466  1  0.741000  0.173900  0.452700  1
  O  O3467  1  0.759000  0.673900  0.047300  1
  O  O3468  1  0.241000  0.673900  0.452700  1
  O  O3469  1  0.741000  0.826100  0.952700  1
  O  O3470  1  0.259000  0.826100  0.547300  1
  O  O3471  1  0.241000  0.326100  0.952700  1
  O  O3472  1  0.759000  0.326100  0.547300  1
  O  O3473  1  0.351000  0.099000  0.001100  1
  O  O3474  1  0.649000  0.099000  0.498900  1
  O  O3475  1  0.851000  0.599000  0.001100  1
  O  O3476  1  0.149000  0.599000  0.498900  1
  O  O3477  1  0.649000  0.901000  0.998900  1
  O  O3478  1  0.351000  0.901000  0.501100  1
  O  O3479  1  0.149000  0.401000  0.998900  1
  O  O3480  1  0.851000  0.401000  0.501100  1
  O  O3481  1  0.370800  0.129300  0.221600  1
  O  O3482  1  0.629200  0.129300  0.278400  1
  O  O3483  1  0.870800  0.629300  0.221600  1
  O  O3484  1  0.129200  0.629300  0.278400  1
  O  O3485  1  0.629200  0.870700  0.778400  1
  O  O3486  1  0.370800  0.870700  0.721600  1
  O  O3487  1  0.129200  0.370700  0.778400  1
  O  O3488  1  0.870800  0.370700  0.721600  1
  O  O3489  1  0.424700  0.060400  0.025400  1
  O  O3490  1  0.575300  0.060400  0.474600  1
  O  O3491  1  0.924700  0.560400  0.025400  1
  O  O3492  1  0.075300  0.560400  0.474600  1
  O  O3493  1  0.575300  0.939600  0.974600  1
  O  O3494  1  0.424700  0.939600  0.525400  1
  O  O3495  1  0.075300  0.439600  0.974600  1
  O  O3496  1  0.924700  0.439600  0.525400  1
  O  O3497  1  0.880400  0.252100  0.018700  1
  O  O3498  1  0.119600  0.252100  0.481300  1
  O  O3499  1  0.380400  0.752100  0.018700  1
  O  O3500  1  0.619600  0.752100  0.481300  1
  O  O3501  1  0.119600  0.747900  0.981300  1
  O  O3502  1  0.880400  0.747900  0.518700  1
  O  O3503  1  0.619600  0.247900  0.981300  1
  O  O3504  1  0.380400  0.247900  0.518700  1
  O  O3505  1  0.321000  0.322100  0.130200  1
  O  O3506  1  0.679000  0.322100  0.369800  1
  O  O3507  1  0.821000  0.822100  0.130200  1
  O  O3508  1  0.179000  0.822100  0.369800  1
  O  O3509  1  0.679000  0.677900  0.869800  1
  O  O3510  1  0.321000  0.677900  0.630200  1
  O  O3511  1  0.179000  0.177900  0.869800  1
  O  O3512  1  0.821000  0.177900  0.630200  1
  O  O3513  1  0.430100  0.330600  0.151500  1
  O  O3514  1  0.569900  0.330600  0.348500  1
  O  O3515  1  0.930100  0.830600  0.151500  1
  O  O3516  1  0.069900  0.830600  0.348500  1
  O  O3517  1  0.569900  0.669400  0.848500  1
  O  O3518  1  0.430100  0.669400  0.651500  1
  O  O3519  1  0.069900  0.169400  0.848500  1
  O  O3520  1  0.930100  0.169400  0.651500  1
  O  O3521  1  0.477000  0.421600  0.082700  1
  O  O3522  1  0.523000  0.421600  0.417300  1
  O  O3523  1  0.977000  0.921600  0.082700  1
  O  O3524  1  0.023000  0.921600  0.417300  1
  O  O3525  1  0.523000  0.578400  0.917300  1
  O  O3526  1  0.477000  0.578400  0.582700  1
  O  O3527  1  0.023000  0.078400  0.917300  1
  O  O3528  1  0.977000  0.078400  0.582700  1
  O  O3529  1  0.853400  0.036700  0.796400  1
  O  O3530  1  0.146600  0.036700  0.703600  1
  O  O3531  1  0.353400  0.536700  0.796400  1
  O  O3532  1  0.646600  0.536700  0.703600  1
  O  O3533  1  0.146600  0.963300  0.203600  1
  O  O3534  1  0.853400  0.963300  0.296400  1
  O  O3535  1  0.646600  0.463300  0.203600  1
  O  O3536  1  0.353400  0.463300  0.296400  1
  O  O3537  1  0.419200  0.026400  0.859900  1
  O  O3538  1  0.580800  0.026400  0.640100  1
  O  O3539  1  0.919200  0.526400  0.859900  1
  O  O3540  1  0.080800  0.526400  0.640100  1
  O  O3541  1  0.580800  0.973600  0.140100  1
  O  O3542  1  0.419200  0.973600  0.359900  1
  O  O3543  1  0.080800  0.473600  0.140100  1
  O  O3544  1  0.919200  0.473600  0.359900  1
  O  O3545  1  0.013200  0.176000  0.229900  1
  O  O3546  1  0.986800  0.176000  0.270100  1
  O  O3547  1  0.513200  0.676000  0.229900  1
  O  O3548  1  0.486800  0.676000  0.270100  1
  O  O3549  1  0.986800  0.824000  0.770100  1
  O  O3550  1  0.013200  0.824000  0.729900  1
  O  O3551  1  0.486800  0.324000  0.770100  1
  O  O3552  1  0.513200  0.324000  0.729900  1
  O  O3553  1  0.453100  0.917900  0.771300  1
  O  O3554  1  0.546900  0.917900  0.728700  1
  O  O3555  1  0.953100  0.417900  0.771300  1
  O  O3556  1  0.046900  0.417900  0.728700  1
  O  O3557  1  0.546900  0.082100  0.228700  1
  O  O3558  1  0.453100  0.082100  0.271300  1
  O  O3559  1  0.046900  0.582100  0.228700  1
  O  O3560  1  0.953100  0.582100  0.271300  1
  O  O3561  1  0.078100  0.902400  0.192100  1
  O  O3562  1  0.921900  0.902400  0.307900  1
  O  O3563  1  0.578100  0.402400  0.192100  1
  O  O3564  1  0.421900  0.402400  0.307900  1
  O  O3565  1  0.921900  0.097600  0.807900  1
  O  O3566  1  0.078100  0.097600  0.692100  1
  O  O3567  1  0.421900  0.597600  0.807900  1
  O  O3568  1  0.578100  0.597600  0.692100  1
  O  O3569  1  0.909200  0.229700  0.645700  1
  O  O3570  1  0.090800  0.229700  0.854300  1
  O  O3571  1  0.409200  0.729700  0.645700  1
  O  O3572  1  0.590800  0.729700  0.854300  1
  O  O3573  1  0.090800  0.770300  0.354300  1
  O  O3574  1  0.909200  0.770300  0.145700  1
  O  O3575  1  0.590800  0.270300  0.354300  1
  O  O3576  1  0.409200  0.270300  0.145700  1
  O  O3577  1  0.269000  0.281000  0.071900  1
  O  O3578  1  0.731000  0.281000  0.428100  1
  O  O3579  1  0.769000  0.781000  0.071900  1
  O  O3580  1  0.231000  0.781000  0.428100  1
  O  O3581  1  0.731000  0.719000  0.928100  1
  O  O3582  1  0.269000  0.719000  0.571900  1
  O  O3583  1  0.231000  0.219000  0.928100  1
  O  O3584  1  0.769000  0.219000  0.571900  1
  O  O3585  1  0.264200  0.132800  0.132400  1
  O  O3586  1  0.735800  0.132800  0.367600  1
  O  O3587  1  0.764200  0.632800  0.132400  1
  O  O3588  1  0.235800  0.632800  0.367600  1
  O  O3589  1  0.735800  0.867200  0.867600  1
  O  O3590  1  0.264200  0.867200  0.632400  1
  O  O3591  1  0.235800  0.367200  0.867600  1
  O  O3592  1  0.764200  0.367200  0.632400  1
  O  O3593  1  0.074300  0.167500  0.214400  1.0
  O  O3594  1  0.925700  0.167500  0.285600  1.0
  O  O3595  1  0.574300  0.667500  0.214400  1.0
  O  O3596  1  0.425700  0.667500  0.285600  1.0
  O  O3597  1  0.925700  0.832500  0.785600  1.0
  O  O3598  1  0.074300  0.832500  0.714400  1.0
  O  O3599  1  0.425700  0.332500  0.785600  1.0
  O  O3600  1  0.574300  0.332500  0.714400  1.0
  O  O3601  1  0.429100  0.921200  0.795800  1.0
  O  O3602  1  0.570900  0.921200  0.704200  1.0
  O  O3603  1  0.929100  0.421200  0.795800  1.0
  O  O3604  1  0.070900  0.421200  0.704200  1.0
  O  O3605  1  0.570900  0.078800  0.204200  1.0
  O  O3606  1  0.429100  0.078800  0.295800  1.0
  O  O3607  1  0.070900  0.578800  0.204200  1.0
  O  O3608  1  0.929100  0.578800  0.295800  1.0
  O  O3609  1  0.749300  0.909700  0.034500  1.0
  O  O3610  1  0.250700  0.909700  0.465500  1.0
  O  O3611  1  0.249300  0.409700  0.034500  1.0
  O  O3612  1  0.750700  0.409700  0.465500  1.0
  O  O3613  1  0.250700  0.090300  0.965500  1.0
  O  O3614  1  0.749300  0.090300  0.534500  1.0
  O  O3615  1  0.750700  0.590300  0.965500  1.0
  O  O3616  1  0.249300  0.590300  0.534500  1.0
  O  O3617  1  0.266900  0.392100  0.113100  1.0
  O  O3618  1  0.733100  0.392100  0.386900  1.0
  O  O3619  1  0.766900  0.892100  0.113100  1.0
  O  O3620  1  0.233100  0.892100  0.386900  1.0
  O  O3621  1  0.733100  0.607900  0.886900  1.0
  O  O3622  1  0.266900  0.607900  0.613100  1.0
  O  O3623  1  0.233100  0.107900  0.886900  1.0
  O  O3624  1  0.766900  0.107900  0.613100  1.0
  O  O3625  1  0.056400  0.919800  0.237900  1.0
  O  O3626  1  0.943600  0.919800  0.262100  1.0
  O  O3627  1  0.556400  0.419800  0.237900  1.0
  O  O3628  1  0.443600  0.419800  0.262100  1.0
  O  O3629  1  0.943600  0.080200  0.762100  1.0
  O  O3630  1  0.056400  0.080200  0.737900  1.0
  O  O3631  1  0.443600  0.580200  0.762100  1.0
  O  O3632  1  0.556400  0.580200  0.737900  1.0
  O  O3633  1  0.509800  0.372600  0.132800  1.0
  O  O3634  1  0.490200  0.372600  0.367200  1.0
  O  O3635  1  0.009800  0.872600  0.132800  1.0
  O  O3636  1  0.990200  0.872600  0.367200  1.0
  O  O3637  1  0.490200  0.627400  0.867200  1.0
  O  O3638  1  0.509800  0.627400  0.632800  1.0
  O  O3639  1  0.990200  0.127400  0.867200  1.0
  O  O3640  1  0.009800  0.127400  0.632800  1.0
  O  O3641  1  0.491400  0.033000  0.994100  1.0
  O  O3642  1  0.508600  0.033000  0.505900  1.0
  O  O3643  1  0.991400  0.533000  0.994100  1.0
  O  O3644  1  0.008600  0.533000  0.505900  1.0
  O  O3645  1  0.508600  0.967000  0.005900  1.0
  O  O3646  1  0.491400  0.967000  0.494100  1.0
  O  O3647  1  0.008600  0.467000  0.005900  1.0
  O  O3648  1  0.991400  0.467000  0.494100  1.0
  O  O3649  1  0.985800  0.261600  0.684000  1.0
  O  O3650  1  0.014200  0.261600  0.816000  1.0
  O  O3651  1  0.485800  0.761600  0.684000  1.0
  O  O3652  1  0.514200  0.761600  0.816000  1.0
  O  O3653  1  0.014200  0.738400  0.316000  1.0
  O  O3654  1  0.985800  0.738400  0.184000  1.0
  O  O3655  1  0.514200  0.238400  0.316000  1.0
  O  O3656  1  0.485800  0.238400  0.184000  1.0
  O  O3657  1  0.766200  0.035400  0.756900  1.0
  O  O3658  1  0.233800  0.035400  0.743100  1.0
  O  O3659  1  0.266200  0.535400  0.756900  1.0
  O  O3660  1  0.733800  0.535400  0.743100  1.0
  O  O3661  1  0.233800  0.964600  0.243100  1.0
  O  O3662  1  0.766200  0.964600  0.256900  1.0
  O  O3663  1  0.733800  0.464600  0.243100  1.0
  O  O3664  1  0.266200  0.464600  0.256900  1.0
  O  O3665  1  0.328900  0.250600  0.102900  1.0
  O  O3666  1  0.671100  0.250600  0.397100  1.0
  O  O3667  1  0.828900  0.750600  0.102900  1.0
  O  O3668  1  0.171100  0.750600  0.397100  1.0
  O  O3669  1  0.671100  0.749400  0.897100  1.0
  O  O3670  1  0.328900  0.749400  0.602900  1.0
  O  O3671  1  0.171100  0.249400  0.897100  1.0
  O  O3672  1  0.828900  0.249400  0.602900  1.0
  O  O3673  1  0.286400  0.176500  0.166000  1.0
  O  O3674  1  0.713600  0.176500  0.334000  1.0
  O  O3675  1  0.786400  0.676500  0.166000  1.0
  O  O3676  1  0.213600  0.676500  0.334000  1.0
  O  O3677  1  0.713600  0.823500  0.834000  1.0
  O  O3678  1  0.286400  0.823500  0.666000  1.0
  O  O3679  1  0.213600  0.323500  0.834000  1.0
  O  O3680  1  0.786400  0.323500  0.666000  1.0
  O  O3681  1  0.648000  0.378200  0.696000  1.0
  O  O3682  1  0.352000  0.378200  0.804000  1.0
  O  O3683  1  0.148000  0.878200  0.696000  1.0
  O  O3684  1  0.852000  0.878200  0.804000  1.0
  O  O3685  1  0.352000  0.621800  0.304000  1.0
  O  O3686  1  0.648000  0.621800  0.196000  1.0
  O  O3687  1  0.852000  0.121800  0.304000  1.0
  O  O3688  1  0.148000  0.121800  0.196000  1.0
  F  F3689  1  0.956300  0.232100  0.155400  1
  F  F3690  1  0.043700  0.232100  0.344600  1
  F  F3691  1  0.456300  0.732100  0.155400  1
  F  F3692  1  0.543700  0.732100  0.344600  1
  F  F3693  1  0.043700  0.767900  0.844600  1
  F  F3694  1  0.956300  0.767900  0.655400  1
  F  F3695  1  0.543700  0.267900  0.844600  1
  F  F3696  1  0.456300  0.267900  0.655400  1
  F  F3697  1  0.873700  0.217700  0.137700  1
  F  F3698  1  0.126300  0.217700  0.362300  1
  F  F3699  1  0.373700  0.717700  0.137700  1
  F  F3700  1  0.626300  0.717700  0.362300  1
  F  F3701  1  0.126300  0.782300  0.862300  1
  F  F3702  1  0.873700  0.782300  0.637700  1
  F  F3703  1  0.626300  0.282300  0.862300  1
  F  F3704  1  0.373700  0.282300  0.637700  1
  F  F3705  1  0.900500  0.266900  0.122500  1
  F  F3706  1  0.099500  0.266900  0.377500  1
  F  F3707  1  0.400500  0.766900  0.122500  1
  F  F3708  1  0.599500  0.766900  0.377500  1
  F  F3709  1  0.099500  0.733100  0.877500  1
  F  F3710  1  0.900500  0.733100  0.622500  1
  F  F3711  1  0.599500  0.233100  0.877500  1
  F  F3712  1  0.400500  0.233100  0.622500  1
  F  F3713  1  0.896300  0.259900  0.174000  1
  F  F3714  1  0.103700  0.259900  0.326000  1
  F  F3715  1  0.396300  0.759900  0.174000  1
  F  F3716  1  0.603700  0.759900  0.326000  1
  F  F3717  1  0.103700  0.740100  0.826000  1
  F  F3718  1  0.896300  0.740100  0.674000  1
  F  F3719  1  0.603700  0.240100  0.826000  1
  F  F3720  1  0.396300  0.240100  0.674000  1
  F  F3721  1  0.613400  0.131400  0.013300  1
  F  F3722  1  0.386600  0.131400  0.486700  1
  F  F3723  1  0.113400  0.631400  0.013300  1
  F  F3724  1  0.886600  0.631400  0.486700  1
  F  F3725  1  0.386600  0.868600  0.986700  1
  F  F3726  1  0.613400  0.868600  0.513300  1
  F  F3727  1  0.886600  0.368600  0.986700  1
  F  F3728  1  0.113400  0.368600  0.513300  1
  F  F3729  1  0.682700  0.143300  0.054300  1
  F  F3730  1  0.317300  0.143300  0.445700  1
  F  F3731  1  0.182700  0.643300  0.054300  1
  F  F3732  1  0.817300  0.643300  0.445700  1
  F  F3733  1  0.317300  0.856700  0.945700  1
  F  F3734  1  0.682700  0.856700  0.554300  1
  F  F3735  1  0.817300  0.356700  0.945700  1
  F  F3736  1  0.182700  0.356700  0.554300  1
  F  F3737  1  0.650000  0.090600  0.048400  1
  F  F3738  1  0.350000  0.090600  0.451600  1
  F  F3739  1  0.150000  0.590600  0.048400  1
  F  F3740  1  0.850000  0.590600  0.451600  1
  F  F3741  1  0.350000  0.909400  0.951600  1
  F  F3742  1  0.650000  0.909400  0.548400  1
  F  F3743  1  0.850000  0.409400  0.951600  1
  F  F3744  1  0.150000  0.409400  0.548400  1
  F  F3745  1  0.608700  0.133100  0.063800  1
  F  F3746  1  0.391300  0.133100  0.436200  1
  F  F3747  1  0.108700  0.633100  0.063800  1
  F  F3748  1  0.891300  0.633100  0.436200  1
  F  F3749  1  0.391300  0.866900  0.936200  1
  F  F3750  1  0.608700  0.866900  0.563800  1
  F  F3751  1  0.891300  0.366900  0.936200  1
  F  F3752  1  0.108700  0.366900  0.563800  1
  F  F3753  1  0.661700  0.359800  0.034700  1
  F  F3754  1  0.338300  0.359800  0.465300  1
  F  F3755  1  0.161700  0.859800  0.034700  1
  F  F3756  1  0.838300  0.859800  0.465300  1
  F  F3757  1  0.338300  0.640200  0.965300  1
  F  F3758  1  0.661700  0.640200  0.534700  1
  F  F3759  1  0.838300  0.140200  0.965300  1
  F  F3760  1  0.161700  0.140200  0.534700  1
  F  F3761  1  0.621300  0.325200  0.059800  1
  F  F3762  1  0.378700  0.325200  0.440200  1
  F  F3763  1  0.121300  0.825200  0.059800  1
  F  F3764  1  0.878700  0.825200  0.440200  1
  F  F3765  1  0.378700  0.674800  0.940200  1
  F  F3766  1  0.621300  0.674800  0.559800  1
  F  F3767  1  0.878700  0.174800  0.940200  1
  F  F3768  1  0.121300  0.174800  0.559800  1
  F  F3769  1  0.642300  0.377900  0.080100  1
  F  F3770  1  0.357700  0.377900  0.419900  1
  F  F3771  1  0.142300  0.877900  0.080100  1
  F  F3772  1  0.857700  0.877900  0.419900  1
  F  F3773  1  0.357700  0.622100  0.919900  1
  F  F3774  1  0.642300  0.622100  0.580100  1
  F  F3775  1  0.857700  0.122100  0.919900  1
  F  F3776  1  0.142300  0.122100  0.580100  1
  F  F3777  1  0.581100  0.369300  0.033200  1
  F  F3778  1  0.418900  0.369300  0.466800  1
  F  F3779  1  0.081100  0.869300  0.033200  1
  F  F3780  1  0.918900  0.869300  0.466800  1
  F  F3781  1  0.418900  0.630700  0.966800  1
  F  F3782  1  0.581100  0.630700  0.533200  1
  F  F3783  1  0.918900  0.130700  0.966800  1
  F  F3784  1  0.081100  0.130700  0.533200  1
  F  F3785  1  0.469000  0.164700  0.169200  1
  F  F3786  1  0.531000  0.164700  0.330800  1
  F  F3787  1  0.969000  0.664700  0.169200  1
  F  F3788  1  0.031000  0.664700  0.330800  1
  F  F3789  1  0.531000  0.835300  0.830800  1
  F  F3790  1  0.469000  0.835300  0.669200  1
  F  F3791  1  0.031000  0.335300  0.830800  1
  F  F3792  1  0.969000  0.335300  0.669200  1
  F  F3793  1  0.394300  0.147200  0.137600  1
  F  F3794  1  0.605700  0.147200  0.362400  1
  F  F3795  1  0.894300  0.647200  0.137600  1
  F  F3796  1  0.105700  0.647200  0.362400  1
  F  F3797  1  0.605700  0.852800  0.862400  1
  F  F3798  1  0.394300  0.852800  0.637600  1
  F  F3799  1  0.105700  0.352800  0.862400  1
  F  F3800  1  0.894300  0.352800  0.637600  1
  F  F3801  1  0.435200  0.189300  0.119800  1
  F  F3802  1  0.564800  0.189300  0.380200  1
  F  F3803  1  0.935200  0.689300  0.119800  1
  F  F3804  1  0.064800  0.689300  0.380200  1
  F  F3805  1  0.564800  0.810700  0.880200  1
  F  F3806  1  0.435200  0.810700  0.619800  1
  F  F3807  1  0.064800  0.310700  0.880200  1
  F  F3808  1  0.935200  0.310700  0.619800  1
  F  F3809  1  0.466100  0.136200  0.122900  1
  F  F3810  1  0.533900  0.136200  0.377100  1
  F  F3811  1  0.966100  0.636200  0.122900  1
  F  F3812  1  0.033900  0.636200  0.377100  1
  F  F3813  1  0.533900  0.863800  0.877100  1
  F  F3814  1  0.466100  0.863800  0.622900  1
  F  F3815  1  0.033900  0.363800  0.877100  1
  F  F3816  1  0.966100  0.363800  0.622900  1
  F  F3817  1  0.167600  0.378900  0.219500  1
  F  F3818  1  0.832400  0.378900  0.280500  1
  F  F3819  1  0.667600  0.878900  0.219500  1
  F  F3820  1  0.332400  0.878900  0.280500  1
  F  F3821  1  0.832400  0.621100  0.780500  1
  F  F3822  1  0.167600  0.621100  0.719500  1
  F  F3823  1  0.332400  0.121100  0.780500  1
  F  F3824  1  0.667600  0.121100  0.719500  1
  F  F3825  1  0.101900  0.344200  0.207100  1
  F  F3826  1  0.898100  0.344200  0.292900  1
  F  F3827  1  0.601900  0.844200  0.207100  1
  F  F3828  1  0.398100  0.844200  0.292900  1
  F  F3829  1  0.898100  0.655800  0.792900  1
  F  F3830  1  0.101900  0.655800  0.707100  1
  F  F3831  1  0.398100  0.155800  0.792900  1
  F  F3832  1  0.601900  0.155800  0.707100  1
  F  F3833  1  0.112500  0.379700  0.171600  1
  F  F3834  1  0.887500  0.379700  0.328400  1
  F  F3835  1  0.612500  0.879700  0.171600  1
  F  F3836  1  0.387500  0.879700  0.328400  1
  F  F3837  1  0.887500  0.620300  0.828400  1
  F  F3838  1  0.112500  0.620300  0.671600  1
  F  F3839  1  0.387500  0.120300  0.828400  1
  F  F3840  1  0.612500  0.120300  0.671600  1
  F  F3841  1  0.092100  0.398500  0.214100  1
  F  F3842  1  0.907900  0.398500  0.285900  1
  F  F3843  1  0.592100  0.898500  0.214100  1
  F  F3844  1  0.407900  0.898500  0.285900  1
  F  F3845  1  0.907900  0.601500  0.785900  1
  F  F3846  1  0.092100  0.601500  0.714100  1
  F  F3847  1  0.407900  0.101500  0.785900  1
  F  F3848  1  0.592100  0.101500  0.714100  1
  F  F3849  1  0.747100  0.038500  0.240000  1
  F  F3850  1  0.252900  0.038500  0.260000  1
  F  F3851  1  0.247100  0.538500  0.240000  1
  F  F3852  1  0.752900  0.538500  0.260000  1
  F  F3853  1  0.252900  0.961500  0.760000  1
  F  F3854  1  0.747100  0.961500  0.740000  1
  F  F3855  1  0.752900  0.461500  0.760000  1
  F  F3856  1  0.247100  0.461500  0.740000  1
  F  F3857  1  0.672900  0.015600  0.221000  1
  F  F3858  1  0.327100  0.015600  0.279000  1
  F  F3859  1  0.172900  0.515600  0.221000  1
  F  F3860  1  0.827100  0.515600  0.279000  1
  F  F3861  1  0.327100  0.984400  0.779000  1
  F  F3862  1  0.672900  0.984400  0.721000  1
  F  F3863  1  0.827100  0.484400  0.779000  1
  F  F3864  1  0.172900  0.484400  0.721000  1
  F  F3865  1  0.696600  0.057100  0.193400  1
  F  F3866  1  0.303400  0.057100  0.306600  1
  F  F3867  1  0.196600  0.557100  0.193400  1
  F  F3868  1  0.803400  0.557100  0.306600  1
  F  F3869  1  0.303400  0.942900  0.806600  1
  F  F3870  1  0.696600  0.942900  0.693400  1
  F  F3871  1  0.803400  0.442900  0.806600  1
  F  F3872  1  0.196600  0.442900  0.693400  1
  F  F3873  1  0.678400  0.067700  0.238800  1
  F  F3874  1  0.321600  0.067700  0.261200  1
  F  F3875  1  0.178400  0.567700  0.238800  1
  F  F3876  1  0.821600  0.567700  0.261200  1
  F  F3877  1  0.321600  0.932300  0.761200  1
  F  F3878  1  0.678400  0.932300  0.738800  1
  F  F3879  1  0.821600  0.432300  0.761200  1
  F  F3880  1  0.178400  0.432300  0.738800  1
  F  F3881  1  0.161800  0.069400  0.035300  1
  F  F3882  1  0.838200  0.069400  0.464700  1
  F  F3883  1  0.661800  0.569400  0.035300  1
  F  F3884  1  0.338200  0.569400  0.464700  1
  F  F3885  1  0.838200  0.930600  0.964700  1
  F  F3886  1  0.161800  0.930600  0.535300  1
  F  F3887  1  0.338200  0.430600  0.964700  1
  F  F3888  1  0.661800  0.430600  0.535300  1
  F  F3889  1  0.080100  0.059000  0.017800  1
  F  F3890  1  0.919900  0.059000  0.482200  1
  F  F3891  1  0.580100  0.559000  0.017800  1
  F  F3892  1  0.419900  0.559000  0.482200  1
  F  F3893  1  0.919900  0.941000  0.982200  1
  F  F3894  1  0.080100  0.941000  0.517800  1
  F  F3895  1  0.419900  0.441000  0.982200  1
  F  F3896  1  0.580100  0.441000  0.517800  1
  F  F3897  1  0.131100  0.024400  0.050600  1
  F  F3898  1  0.868900  0.024400  0.449400  1
  F  F3899  1  0.631100  0.524400  0.050600  1
  F  F3900  1  0.368900  0.524400  0.449400  1
  F  F3901  1  0.868900  0.975600  0.949400  1
  F  F3902  1  0.131100  0.975600  0.550600  1
  F  F3903  1  0.368900  0.475600  0.949400  1
  F  F3904  1  0.631100  0.475600  0.550600  1
  F  F3905  1  0.114200  0.074800  0.067700  1
  F  F3906  1  0.885800  0.074800  0.432300  1
  F  F3907  1  0.614200  0.574800  0.067700  1
  F  F3908  1  0.385800  0.574800  0.432300  1
  F  F3909  1  0.885800  0.925200  0.932300  1
  F  F3910  1  0.114200  0.925200  0.567700  1
  F  F3911  1  0.385800  0.425200  0.932300  1
  F  F3912  1  0.614200  0.425200  0.567700  1
  F  F3913  1  0.865000  0.254700  0.135400  1
  F  F3914  1  0.135000  0.254700  0.364600  1
  F  F3915  1  0.365000  0.754700  0.135400  1
  F  F3916  1  0.635000  0.754700  0.364600  1
  F  F3917  1  0.135000  0.745300  0.864600  1
  F  F3918  1  0.865000  0.745300  0.635400  1
  F  F3919  1  0.635000  0.245300  0.864600  1
  F  F3920  1  0.365000  0.245300  0.635400  1
  F  F3921  1  0.912700  0.225700  0.179600  1
  F  F3922  1  0.087300  0.225700  0.320400  1
  F  F3923  1  0.412700  0.725700  0.179600  1
  F  F3924  1  0.587300  0.725700  0.320400  1
  F  F3925  1  0.087300  0.774300  0.820400  1
  F  F3926  1  0.912700  0.774300  0.679600  1
  F  F3927  1  0.587300  0.274300  0.820400  1
  F  F3928  1  0.412700  0.274300  0.679600  1
  F  F3929  1  0.942500  0.273100  0.162900  1
  F  F3930  1  0.057500  0.273100  0.337100  1
  F  F3931  1  0.442500  0.773100  0.162900  1
  F  F3932  1  0.557500  0.773100  0.337100  1
  F  F3933  1  0.057500  0.726900  0.837100  1
  F  F3934  1  0.942500  0.726900  0.662900  1
  F  F3935  1  0.557500  0.226900  0.837100  1
  F  F3936  1  0.442500  0.226900  0.662900  1
  F  F3937  1  0.934400  0.224800  0.133000  1
  F  F3938  1  0.065600  0.224800  0.367000  1
  F  F3939  1  0.434400  0.724800  0.133000  1
  F  F3940  1  0.565600  0.724800  0.367000  1
  F  F3941  1  0.065600  0.775200  0.867000  1
  F  F3942  1  0.934400  0.775200  0.633000  1
  F  F3943  1  0.565600  0.275200  0.867000  1
  F  F3944  1  0.434400  0.275200  0.633000  1
