# generated using pymatgen
data_H178Pd6C171(N29O40)2
_symmetry_space_group_name_H-M   'P 1'
_cell_length_a   21.34700000
_cell_length_b   26.24000000
_cell_length_c   31.52600000
_cell_angle_alpha   90.00000000
_cell_angle_beta   90.00000000
_cell_angle_gamma   111.23700000
_symmetry_Int_Tables_number   1
_chemical_formula_structural   H178Pd6C171(N29O40)2
_chemical_formula_sum   'H712 Pd24 C684 N232 O320'
_cell_volume   16459.90930379
_cell_formula_units_Z   4
loop_
 _symmetry_equiv_pos_site_id
 _symmetry_equiv_pos_as_xyz
  1  'x, y, z'
loop_
 _atom_site_type_symbol
 _atom_site_label
 _atom_site_symmetry_multiplicity
 _atom_site_fract_x
 _atom_site_fract_y
 _atom_site_fract_z
 _atom_site_occupancy
  H  H1  1  0.744100  0.643300  0.912300  1
  H  H2  1  0.755900  0.856700  0.412300  1
  H  H3  1  0.255900  0.356700  0.087700  1
  H  H4  1  0.244100  0.143300  0.587700  1
  H  H5  1  0.627100  0.608500  0.921100  1
  H  H6  1  0.872900  0.891500  0.421100  1
  H  H7  1  0.372900  0.391500  0.078900  1
  H  H8  1  0.127100  0.108500  0.578900  1
  H  H9  1  0.655000  0.624100  0.048700  1
  H  H10  1  0.845000  0.875900  0.548700  1
  H  H11  1  0.345000  0.375900  0.951300  1
  H  H12  1  0.155000  0.124100  0.451300  1
  H  H13  1  0.769700  0.654600  0.036600  1
  H  H14  1  0.730300  0.845400  0.536600  1
  H  H15  1  0.230300  0.345400  0.963400  1
  H  H16  1  0.269700  0.154600  0.463400  1
  H  H17  1  0.241100  0.456000  0.915400  1
  H  H18  1  0.258900  0.044000  0.415400  1
  H  H19  1  0.758900  0.544000  0.084600  1
  H  H20  1  0.741100  0.956000  0.584600  1
  H  H21  1  0.316400  0.494600  0.971900  1
  H  H22  1  0.183600  0.005400  0.471900  1
  H  H23  1  0.683600  0.505400  0.028100  1
  H  H24  1  0.816400  0.994600  0.528100  1
  H  H25  1  0.467700  0.536200  0.885800  1
  H  H26  1  0.032300  0.963800  0.385800  1
  H  H27  1  0.532300  0.463800  0.114200  1
  H  H28  1  0.967700  0.036200  0.614200  1
  H  H29  1  0.389100  0.488400  0.833900  1
  H  H30  1  0.110900  0.011600  0.333900  1
  H  H31  1  0.610900  0.511600  0.166100  1
  H  H32  1  0.889100  0.988400  0.666100  1
  H  H33  1  0.500000  0.561800  0.181600  1
  H  H34  1  1.000000  0.938200  0.681600  1
  H  H35  1  0.500000  0.438200  0.818400  1
  H  H36  1  1.000000  0.061800  0.318400  1
  H  H37  1  0.536200  0.581700  0.111300  1
  H  H38  1  0.963800  0.918300  0.611300  1
  H  H39  1  0.463800  0.418300  0.888700  1
  H  H40  1  0.036200  0.081700  0.388700  1
  H  H41  1  0.349400  0.496200  0.071400  1
  H  H42  1  0.150600  0.003800  0.571400  1
  H  H43  1  0.650600  0.503800  0.928600  1
  H  H44  1  0.849400  0.996200  0.428600  1
  H  H45  1  0.322200  0.469900  0.142600  1
  H  H46  1  0.177800  0.030100  0.642600  1
  H  H47  1  0.677800  0.530100  0.857400  1
  H  H48  1  0.822200  0.969900  0.357400  1
  H  H49  1  0.330200  0.882800  0.863600  1
  H  H50  1  0.169800  0.617200  0.363600  1
  H  H51  1  0.669800  0.117200  0.136400  1
  H  H52  1  0.830200  0.382800  0.636400  1
  H  H53  1  0.435700  0.914900  0.895100  1
  H  H54  1  0.064300  0.585100  0.395100  1
  H  H55  1  0.564300  0.085100  0.104900  1
  H  H56  1  0.935700  0.414900  0.604900  1
  H  H57  1  0.343800  0.884800  0.009800  1
  H  H58  1  0.156200  0.615200  0.509800  1
  H  H59  1  0.656200  0.115200  0.990200  1
  H  H60  1  0.843800  0.384800  0.490200  1
  H  H61  1  0.243000  0.852800  0.975600  1
  H  H62  1  0.257000  0.647200  0.475600  1
  H  H63  1  0.757000  0.147200  0.024400  1
  H  H64  1  0.743000  0.352800  0.524400  1
  H  H65  1  0.803800  0.044600  0.973700  1
  H  H66  1  0.696200  0.455400  0.473700  1
  H  H67  1  0.196200  0.955400  0.026300  1
  H  H68  1  0.303800  0.544600  0.526300  1
  H  H69  1  0.703200  0.003400  0.008200  1
  H  H70  1  0.796800  0.496600  0.508200  1
  H  H71  1  0.296800  0.996600  0.991800  1
  H  H72  1  0.203200  0.503400  0.491800  1
  H  H73  1  0.610300  0.992100  0.895400  1
  H  H74  1  0.889700  0.507900  0.395400  1
  H  H75  1  0.389700  0.007900  0.104600  1
  H  H76  1  0.110300  0.492100  0.604600  1
  H  H77  1  0.713100  0.035700  0.865100  1
  H  H78  1  0.786900  0.464300  0.365100  1
  H  H79  1  0.286900  0.964300  0.134900  1
  H  H80  1  0.213100  0.535700  0.634900  1
  H  H81  1  0.424600  0.906700  0.166300  1
  H  H82  1  0.075400  0.593300  0.666300  1
  H  H83  1  0.575400  0.093300  0.833700  1
  H  H84  1  0.924600  0.406700  0.333700  1
  H  H85  1  0.421800  0.904100  0.093500  1
  H  H86  1  0.078200  0.595900  0.593500  1
  H  H87  1  0.578200  0.095900  0.906500  1
  H  H88  1  0.921800  0.404100  0.406500  1
  H  H89  1  0.624400  0.984000  0.093200  1
  H  H90  1  0.875600  0.516000  0.593200  1
  H  H91  1  0.375600  0.016000  0.906800  1
  H  H92  1  0.124400  0.484000  0.406800  1
  H  H93  1  0.622100  0.980500  0.168100  1
  H  H94  1  0.877900  0.519500  0.668100  1
  H  H95  1  0.377900  0.019500  0.831900  1
  H  H96  1  0.122100  0.480500  0.331900  1
  H  H97  1  0.146800  0.890000  0.935800  1
  H  H98  1  0.353200  0.610000  0.435800  1
  H  H99  1  0.853200  0.110000  0.064200  1
  H  H100  1  0.646800  0.390000  0.564200  1
  H  H101  1  0.193700  0.928500  0.905300  1
  H  H102  1  0.306300  0.571500  0.405300  1
  H  H103  1  0.806300  0.071500  0.094700  1
  H  H104  1  0.693700  0.428500  0.594700  1
  H  H105  1  0.109300  0.822600  0.824600  1
  H  H106  1  0.390700  0.677400  0.324600  1
  H  H107  1  0.890700  0.177400  0.175400  1
  H  H108  1  0.609300  0.322600  0.675400  1
  H  H109  1  0.078200  0.775700  0.854100  1
  H  H110  1  0.421800  0.724300  0.354100  1
  H  H111  1  0.921800  0.224300  0.145900  1
  H  H112  1  0.578200  0.275700  0.645900  1
  H  H113  1  0.804400  0.148000  0.871000  1
  H  H114  1  0.695600  0.352000  0.371000  1
  H  H115  1  0.195600  0.852000  0.129000  1
  H  H116  1  0.304400  0.648000  0.629000  1
  H  H117  1  0.839300  0.165500  0.912300  1
  H  H118  1  0.660700  0.334500  0.412300  1
  H  H119  1  0.160700  0.834500  0.087700  1
  H  H120  1  0.339300  0.665500  0.587700  1
  H  H121  1  0.984100  0.117200  0.874900  1
  H  H122  1  0.515900  0.382800  0.374900  1
  H  H123  1  0.015900  0.882800  0.125100  1
  H  H124  1  0.484100  0.617200  0.625100  1
  H  H125  1  0.949600  0.116400  0.833400  1
  H  H126  1  0.550400  0.383600  0.333400  1
  H  H127  1  0.050400  0.883600  0.166600  1
  H  H128  1  0.449600  0.616400  0.666600  1
  H  H129  1  0.587700  0.047000  0.223600  1
  H  H130  1  0.912300  0.453000  0.723600  1
  H  H131  1  0.412300  0.953000  0.776400  1
  H  H132  1  0.087700  0.547000  0.276400  1
  H  H133  1  0.517100  0.040500  0.233800  1
  H  H134  1  0.982900  0.459500  0.733800  1
  H  H135  1  0.482900  0.959500  0.766200  1
  H  H136  1  0.017100  0.540500  0.266200  1
  H  H137  1  0.497500  0.925700  0.314400  1
  H  H138  1  0.002500  0.574300  0.814400  1
  H  H139  1  0.502500  0.074300  0.685600  1
  H  H140  1  0.997500  0.425700  0.185600  1
  H  H141  1  0.572000  0.952500  0.311200  1
  H  H142  1  0.928000  0.547500  0.811200  1
  H  H143  1  0.428000  0.047500  0.688800  1
  H  H144  1  0.072000  0.452500  0.188800  1
  H  H145  1  0.852500  0.602400  0.022900  1
  H  H146  1  0.647500  0.897600  0.522900  1
  H  H147  1  0.147500  0.397600  0.977100  1
  H  H148  1  0.352500  0.102400  0.477100  1
  H  H149  1  0.828000  0.575900  0.981300  1
  H  H150  1  0.672000  0.924100  0.481300  1
  H  H151  1  0.172000  0.424100  0.018700  1
  H  H152  1  0.328000  0.075900  0.518700  1
  H  H153  1  0.982000  0.685800  0.940700  1
  H  H154  1  0.518000  0.814200  0.440700  1
  H  H155  1  0.018000  0.314200  0.059300  1
  H  H156  1  0.482000  0.185800  0.559300  1
  H  H157  1  0.993700  0.723200  0.977900  1
  H  H158  1  0.506300  0.776800  0.477900  1
  H  H159  1  0.006300  0.276800  0.022100  1
  H  H160  1  0.493700  0.223200  0.522100  1
  H  H161  1  0.303000  0.375200  0.809800  1
  H  H162  1  0.197000  0.124800  0.309800  1
  H  H163  1  0.697000  0.624800  0.190200  1
  H  H164  1  0.803000  0.875200  0.690200  1
  H  H165  1  0.254900  0.352200  0.845300  1
  H  H166  1  0.245100  0.147800  0.345300  1
  H  H167  1  0.745100  0.647800  0.154700  1
  H  H168  1  0.754900  0.852200  0.654700  1
  H  H169  1  0.132800  0.397800  0.785300  1
  H  H170  1  0.367200  0.102200  0.285300  1
  H  H171  1  0.867200  0.602200  0.214700  1
  H  H172  1  0.632800  0.897800  0.714700  1
  H  H173  1  0.182700  0.429800  0.753600  1
  H  H174  1  0.317300  0.070200  0.253600  1
  H  H175  1  0.817300  0.570200  0.246400  1
  H  H176  1  0.682700  0.929800  0.746400  1
  H  H177  1  0.321300  0.402000  0.207700  1
  H  H178  1  0.178700  0.098000  0.707700  1
  H  H179  1  0.678700  0.598000  0.792300  1
  H  H180  1  0.821300  0.902000  0.292300  1
  H  H181  1  0.394500  0.412600  0.211300  1
  H  H182  1  0.105500  0.087400  0.711300  1
  H  H183  1  0.605500  0.587400  0.788700  1
  H  H184  1  0.894500  0.912600  0.288700  1
  H  H185  1  0.384200  0.487200  0.308900  1
  H  H186  1  0.115800  0.012800  0.808900  1
  H  H187  1  0.615800  0.512800  0.691100  1
  H  H188  1  0.884200  0.987200  0.191100  1
  H  H189  1  0.320200  0.496200  0.299900  1
  H  H190  1  0.179800  0.003800  0.799900  1
  H  H191  1  0.679800  0.503800  0.700100  1
  H  H192  1  0.820200  0.996200  0.200100  1
  H  H193  1  0.116500  0.922500  0.858400  1
  H  H194  1  0.383500  0.577500  0.358400  1
  H  H195  1  0.883500  0.077500  0.141600  1
  H  H196  1  0.616500  0.422500  0.641600  1
  H  H197  1  0.074800  0.915600  0.901800  1
  H  H198  1  0.425200  0.584400  0.401800  1
  H  H199  1  0.925200  0.084400  0.098200  1
  H  H200  1  0.574800  0.415600  0.598200  1
  H  H201  1  0.031500  0.820900  0.895700  1
  H  H202  1  0.468500  0.679100  0.395700  1
  H  H203  1  0.968500  0.179100  0.104300  1
  H  H204  1  0.531500  0.320900  0.604300  1
  H  H205  1  0.023100  0.842800  0.849300  1
  H  H206  1  0.476900  0.657200  0.349300  1
  H  H207  1  0.976900  0.157200  0.150700  1
  H  H208  1  0.523100  0.342800  0.650700  1
  H  H209  1  0.906100  0.232100  0.877500  1
  H  H210  1  0.593900  0.267900  0.377500  1
  H  H211  1  0.093900  0.767900  0.122500  1
  H  H212  1  0.406100  0.732100  0.622500  1
  H  H213  1  0.886400  0.198500  0.833800  1
  H  H214  1  0.613600  0.301500  0.333800  1
  H  H215  1  0.113600  0.801500  0.166200  1
  H  H216  1  0.386400  0.698500  0.666200  1
  H  H217  1  0.991700  0.203600  0.845700  1
  H  H218  1  0.508300  0.296400  0.345700  1
  H  H219  1  0.008300  0.796400  0.154300  1
  H  H220  1  0.491700  0.703600  0.654300  1
  H  H221  1  0.979500  0.194000  0.895400  1
  H  H222  1  0.520500  0.306000  0.395400  1
  H  H223  1  0.020500  0.806000  0.104600  1
  H  H224  1  0.479500  0.694000  0.604600  1
  H  H225  1  0.568900  0.085900  0.286800  1
  H  H226  1  0.931100  0.414100  0.786800  1
  H  H227  1  0.431100  0.914100  0.713200  1
  H  H228  1  0.068900  0.585900  0.213200  1
  H  H229  1  0.619400  0.053200  0.287600  1
  H  H230  1  0.880600  0.446800  0.787600  1
  H  H231  1  0.380600  0.946800  0.712400  1
  H  H232  1  0.119400  0.553200  0.212400  1
  H  H233  1  0.480100  0.008100  0.314300  1
  H  H234  1  0.019900  0.491900  0.814300  1
  H  H235  1  0.519900  0.991900  0.685700  1
  H  H236  1  0.980100  0.508100  0.185700  1
  H  H237  1  0.544100  0.019400  0.345100  1
  H  H238  1  0.955900  0.480600  0.845100  1
  H  H239  1  0.455900  0.980600  0.654900  1
  H  H240  1  0.044100  0.519400  0.154900  1
  H  H241  1  0.928100  0.580200  0.959500  1
  H  H242  1  0.571900  0.919800  0.459500  1
  H  H243  1  0.071900  0.419800  0.040500  1
  H  H244  1  0.428100  0.080200  0.540500  1
  H  H245  1  0.929400  0.566800  0.009100  1
  H  H246  1  0.570600  0.933200  0.509100  1
  H  H247  1  0.070600  0.433200  0.990900  1
  H  H248  1  0.429400  0.066800  0.490900  1
  H  H249  1  0.987000  0.658900  0.025100  1
  H  H250  1  0.513000  0.841100  0.525100  1
  H  H251  1  0.013000  0.341100  0.974900  1
  H  H252  1  0.487000  0.158900  0.474900  1
  H  H253  1  0.026800  0.644700  0.986300  1
  H  H254  1  0.473200  0.855300  0.486300  1
  H  H255  1  0.973200  0.355300  0.013700  1
  H  H256  1  0.526800  0.144700  0.513700  1
  H  H257  1  0.178500  0.303400  0.806900  1
  H  H258  1  0.321500  0.196600  0.306900  1
  H  H259  1  0.821500  0.696600  0.193100  1
  H  H260  1  0.678500  0.803400  0.693100  1
  H  H261  1  0.238000  0.311600  0.774200  1
  H  H262  1  0.262000  0.188400  0.274200  1
  H  H263  1  0.762000  0.688400  0.225800  1
  H  H264  1  0.738000  0.811600  0.725800  1
  H  H265  1  0.199400  0.360600  0.728100  1
  H  H266  1  0.300600  0.139400  0.228100  1
  H  H267  1  0.800600  0.639400  0.271900  1
  H  H268  1  0.699400  0.860600  0.771900  1
  H  H269  1  0.128800  0.327300  0.751000  1
  H  H270  1  0.371200  0.172700  0.251000  1
  H  H271  1  0.871200  0.672700  0.249000  1
  H  H272  1  0.628800  0.827300  0.749000  1
  H  H273  1  0.391500  0.396900  0.278300  1
  H  H274  1  0.108500  0.103100  0.778300  1
  H  H275  1  0.608500  0.603100  0.721700  1
  H  H276  1  0.891500  0.896900  0.221700  1
  H  H277  1  0.322500  0.352200  0.261500  1
  H  H278  1  0.177500  0.147800  0.761500  1
  H  H279  1  0.677500  0.647800  0.738500  1
  H  H280  1  0.822500  0.852200  0.238500  1
  H  H281  1  0.306000  0.402300  0.321100  1
  H  H282  1  0.194000  0.097700  0.821100  1
  H  H283  1  0.694000  0.597700  0.678900  1
  H  H284  1  0.806000  0.902300  0.178900  1
  H  H285  1  0.263400  0.407600  0.280400  1
  H  H286  1  0.236600  0.092400  0.780400  1
  H  H287  1  0.736600  0.592400  0.719600  1
  H  H288  1  0.763400  0.907600  0.219600  1
  H  H289  1  0.167600  0.642900  0.908500  1
  H  H290  1  0.332400  0.857100  0.408500  1
  H  H291  1  0.832400  0.357100  0.091500  1
  H  H292  1  0.667600  0.142900  0.591500  1
  H  H293  1  0.551400  0.769400  0.235900  1
  H  H294  1  0.948600  0.730600  0.735900  1
  H  H295  1  0.448600  0.230600  0.764100  1
  H  H296  1  0.051400  0.269400  0.264100  1
  H  H297  1  0.152500  0.769100  0.941500  1
  H  H298  1  0.347500  0.730900  0.441500  1
  H  H299  1  0.847500  0.230900  0.058500  1
  H  H300  1  0.652500  0.269100  0.558500  1
  H  H301  1  0.177000  0.724900  0.964000  1
  H  H302  1  0.323000  0.775100  0.464000  1
  H  H303  1  0.823000  0.275100  0.036000  1
  H  H304  1  0.677000  0.224900  0.536000  1
  H  H305  1  0.104200  0.706100  0.942500  1
  H  H306  1  0.395800  0.793900  0.442500  1
  H  H307  1  0.895800  0.293900  0.057500  1
  H  H308  1  0.604200  0.206100  0.557500  1
  H  H309  1  0.251000  0.704000  0.797200  1
  H  H310  1  0.249000  0.796000  0.297200  1
  H  H311  1  0.749000  0.296000  0.202800  1
  H  H312  1  0.751000  0.204000  0.702800  1
  H  H313  1  0.888100  0.825200  0.867500  1
  H  H314  1  0.611900  0.674800  0.367500  1
  H  H315  1  0.111900  0.174800  0.132500  1
  H  H316  1  0.388100  0.325200  0.632500  1
  H  H317  1  0.904900  0.811200  0.043100  1
  H  H318  1  0.595100  0.688800  0.543100  1
  H  H319  1  0.095100  0.188800  0.956900  1
  H  H320  1  0.404900  0.311200  0.456900  1
  H  H321  1  0.938500  0.768600  0.028000  1
  H  H322  1  0.561500  0.731400  0.528000  1
  H  H323  1  0.061500  0.231400  0.972000  1
  H  H324  1  0.438500  0.268600  0.472000  1
  H  H325  1  0.858700  0.749000  0.033400  1
  H  H326  1  0.641300  0.751000  0.533400  1
  H  H327  1  0.141300  0.251000  0.966600  1
  H  H328  1  0.358700  0.249000  0.466600  1
  H  H329  1  0.846200  0.891900  0.857300  1
  H  H330  1  0.653800  0.608100  0.357300  1
  H  H331  1  0.153800  0.108100  0.142700  1
  H  H332  1  0.346200  0.391900  0.642700  1
  H  H333  1  0.905000  0.871600  0.989800  1
  H  H334  1  0.595000  0.628400  0.489800  1
  H  H335  1  0.095000  0.128400  0.010200  1
  H  H336  1  0.405000  0.371600  0.510200  1
  H  H337  1  0.943700  0.955600  0.966300  1
  H  H338  1  0.556300  0.544400  0.466300  1
  H  H339  1  0.056300  0.044400  0.033700  1
  H  H340  1  0.443700  0.455600  0.533700  1
  H  H341  1  0.510300  0.690400  0.270500  1
  H  H342  1  0.989700  0.809600  0.770500  1
  H  H343  1  0.489700  0.309600  0.729500  1
  H  H344  1  0.010300  0.190400  0.229500  1
  H  H345  1  0.870400  0.688700  0.891500  1
  H  H346  1  0.629600  0.811300  0.391500  1
  H  H347  1  0.129600  0.311300  0.108500  1
  H  H348  1  0.370400  0.188700  0.608500  1
  H  H349  1  0.914000  0.733700  0.858300  1
  H  H350  1  0.586000  0.766300  0.358300  1
  H  H351  1  0.086000  0.266300  0.141700  1
  H  H352  1  0.414000  0.233700  0.641700  1
  H  H353  1  0.834000  0.716600  0.859600  1
  H  H354  1  0.666000  0.783400  0.359600  1
  H  H355  1  0.166000  0.283400  0.140400  1
  H  H356  1  0.334000  0.216600  0.640400  1
  H  H357  1  0.640300  0.855300  0.227000  1
  H  H358  1  0.859700  0.644700  0.727000  1
  H  H359  1  0.359700  0.144700  0.773000  1
  H  H360  1  0.140300  0.355300  0.273000  1
  H  H361  1  0.627000  0.900500  0.255900  1
  H  H362  1  0.873000  0.599500  0.755900  1
  H  H363  1  0.373000  0.099500  0.744100  1
  H  H364  1  0.127000  0.400500  0.244100  1
  H  H365  1  0.617800  0.901200  0.205500  1
  H  H366  1  0.882200  0.598800  0.705500  1
  H  H367  1  0.382200  0.098800  0.794500  1
  H  H368  1  0.117800  0.401200  0.294500  1
  H  H369  1  0.360700  0.758400  0.243500  1
  H  H370  1  0.139300  0.741600  0.743500  1
  H  H371  1  0.639300  0.241600  0.756500  1
  H  H372  1  0.860700  0.258400  0.256500  1
  H  H373  1  0.286600  0.637200  0.795900  1
  H  H374  1  0.213400  0.862800  0.295900  1
  H  H375  1  0.713400  0.362800  0.204100  1
  H  H376  1  0.786600  0.137200  0.704100  1
  H  H377  1  0.269100  0.791200  0.776300  1
  H  H378  1  0.230900  0.708800  0.276300  1
  H  H379  1  0.730900  0.208800  0.223700  1
  H  H380  1  0.769100  0.291200  0.723700  1
  H  H381  1  0.289500  0.833500  0.815000  1
  H  H382  1  0.210500  0.666500  0.315000  1
  H  H383  1  0.710500  0.166500  0.185000  1
  H  H384  1  0.789500  0.333500  0.685000  1
  H  H385  1  0.215700  0.815100  0.795000  1
  H  H386  1  0.284300  0.684900  0.295000  1
  H  H387  1  0.784300  0.184900  0.205000  1
  H  H388  1  0.715700  0.315100  0.705000  1
  H  H389  1  0.938900  0.088100  0.948000  1
  H  H390  1  0.561100  0.411900  0.448000  1
  H  H391  1  0.061100  0.911900  0.052000  1
  H  H392  1  0.438900  0.588100  0.552000  1
  H  H393  1  0.994800  0.064500  0.962700  1
  H  H394  1  0.505200  0.435500  0.462700  1
  H  H395  1  0.005200  0.935500  0.037300  1
  H  H396  1  0.494800  0.564500  0.537300  1
  H  H397  1  0.925100  0.047600  0.987800  1
  H  H398  1  0.574900  0.452400  0.487800  1
  H  H399  1  0.074900  0.952400  0.012200  1
  H  H400  1  0.425100  0.547600  0.512200  1
  H  H401  1  0.128800  0.563600  0.874500  1
  H  H402  1  0.371200  0.936400  0.374500  1
  H  H403  1  0.871200  0.436400  0.125500  1
  H  H404  1  0.628800  0.063600  0.625500  1
  H  H405  1  0.130600  0.429700  0.855800  1
  H  H406  1  0.369400  0.070300  0.355800  1
  H  H407  1  0.869400  0.570300  0.144200  1
  H  H408  1  0.630600  0.929700  0.644200  1
  H  H409  1  0.075200  0.457500  0.855600  1
  H  H410  1  0.424800  0.042500  0.355600  1
  H  H411  1  0.924800  0.542500  0.144400  1
  H  H412  1  0.575200  0.957500  0.644400  1
  H  H413  1  0.122800  0.464100  0.896100  1
  H  H414  1  0.377200  0.035900  0.396100  1
  H  H415  1  0.877200  0.535900  0.103900  1
  H  H416  1  0.622800  0.964100  0.603900  1
  H  H417  1  0.803800  0.944700  0.813700  1
  H  H418  1  0.696200  0.555300  0.313700  1
  H  H419  1  0.196200  0.055300  0.186300  1
  H  H420  1  0.303800  0.444700  0.686300  1
  H  H421  1  0.851900  0.007800  0.813400  1
  H  H422  1  0.648100  0.492200  0.313400  1
  H  H423  1  0.148100  0.992200  0.186600  1
  H  H424  1  0.351900  0.507800  0.686600  1
  H  H425  1  0.782600  0.988700  0.839100  1
  H  H426  1  0.717400  0.511300  0.339100  1
  H  H427  1  0.217400  0.011300  0.160900  1
  H  H428  1  0.282600  0.488700  0.660900  1
  H  H429  1  0.309900  0.510200  0.771600  1
  H  H430  1  0.190100  0.989800  0.271600  1
  H  H431  1  0.690100  0.489800  0.228400  1
  H  H432  1  0.809900  0.010200  0.728400  1
  H  H433  1  0.359400  0.570200  0.784600  1
  H  H434  1  0.140600  0.929800  0.284600  1
  H  H435  1  0.640600  0.429800  0.215400  1
  H  H436  1  0.859400  0.070200  0.715400  1
  H  H437  1  0.309000  0.562200  0.745400  1
  H  H438  1  0.191000  0.937800  0.245400  1
  H  H439  1  0.691000  0.437800  0.254600  1
  H  H440  1  0.809000  0.062200  0.754600  1
  H  H441  1  0.534800  0.613000  0.291500  1
  H  H442  1  0.965200  0.887000  0.791500  1
  H  H443  1  0.465200  0.387000  0.708500  1
  H  H444  1  0.034800  0.113000  0.208500  1
  H  H445  1  0.510200  0.563500  0.258400  1
  H  H446  1  0.989800  0.936500  0.758400  1
  H  H447  1  0.489800  0.436500  0.741600  1
  H  H448  1  0.010200  0.063500  0.241600  1
  H  H449  1  0.468700  0.560700  0.301200  1
  H  H450  1  0.031300  0.939300  0.801200  1
  H  H451  1  0.531300  0.439300  0.698800  1
  H  H452  1  0.968700  0.060700  0.198800  1
  H  H453  1  0.286500  0.528100  0.203500  1
  H  H454  1  0.213500  0.971900  0.703500  1
  H  H455  1  0.713500  0.471900  0.796500  1
  H  H456  1  0.786500  0.028100  0.296500  1
  H  H457  1  0.286400  0.576100  0.172200  1
  H  H458  1  0.213600  0.923900  0.672200  1
  H  H459  1  0.713600  0.423900  0.827800  1
  H  H460  1  0.786400  0.076100  0.327800  1
  H  H461  1  0.250800  0.569600  0.217600  1
  H  H462  1  0.249200  0.930400  0.717600  1
  H  H463  1  0.749200  0.430400  0.782400  1
  H  H464  1  0.750800  0.069600  0.282400  1
  H  H465  1  0.338600  0.673300  0.212200  1
  H  H466  1  0.161400  0.826700  0.712200  1
  H  H467  1  0.661400  0.326700  0.787800  1
  H  H468  1  0.838600  0.173300  0.287800  1
  H  H469  1  0.404400  0.905900  0.248700  1
  H  H470  1  0.095600  0.594100  0.748700  1
  H  H471  1  0.595600  0.094100  0.751300  1
  H  H472  1  0.904400  0.405900  0.251300  1
  H  H473  1  0.358100  0.855500  0.276900  1
  H  H474  1  0.141900  0.644500  0.776900  1
  H  H475  1  0.641900  0.144500  0.723100  1
  H  H476  1  0.858100  0.355500  0.223100  1
  H  H477  1  0.346300  0.855900  0.226700  1
  H  H478  1  0.153700  0.644100  0.726700  1
  H  H479  1  0.653700  0.144100  0.773300  1
  H  H480  1  0.846300  0.355900  0.273300  1
  H  H481  1  0.505400  0.686400  0.993000  1
  H  H482  1  0.994600  0.813600  0.493000  1
  H  H483  1  0.494600  0.313600  0.007000  1
  H  H484  1  0.005400  0.186400  0.507000  1
  H  H485  1  0.575000  0.710100  0.932000  1
  H  H486  1  0.925000  0.789900  0.432000  1
  H  H487  1  0.425000  0.289900  0.068000  1
  H  H488  1  0.075000  0.210100  0.568000  1
  H  H489  1  0.379300  0.631500  0.833700  1
  H  H490  1  0.120700  0.868500  0.333700  1
  H  H491  1  0.620700  0.368500  0.166300  1
  H  H492  1  0.879300  0.131500  0.666300  1
  H  H493  1  0.325700  0.620300  0.980000  1
  H  H494  1  0.174300  0.879700  0.480000  1
  H  H495  1  0.674300  0.379700  0.020000  1
  H  H496  1  0.825700  0.120300  0.520000  1
  H  H497  1  0.343000  0.635800  0.065400  1
  H  H498  1  0.157000  0.864200  0.565400  1
  H  H499  1  0.657000  0.364200  0.934600  1
  H  H500  1  0.843000  0.135800  0.434600  1
  H  H501  1  0.432800  0.664400  0.112700  1
  H  H502  1  0.067200  0.835600  0.612700  1
  H  H503  1  0.567200  0.335600  0.887300  1
  H  H504  1  0.932800  0.164400  0.387300  1
  H  H505  1  0.568200  0.712800  0.100200  1
  H  H506  1  0.931800  0.787200  0.600200  1
  H  H507  1  0.431800  0.287200  0.899800  1
  H  H508  1  0.068200  0.212800  0.399800  1
  H  H509  1  0.703500  0.762900  0.087400  1
  H  H510  1  0.796500  0.737100  0.587400  1
  H  H511  1  0.296500  0.237100  0.912600  1
  H  H512  1  0.203500  0.262900  0.412600  1
  H  H513  1  0.740200  0.769400  0.860300  1
  H  H514  1  0.759800  0.730600  0.360300  1
  H  H515  1  0.259800  0.230600  0.139700  1
  H  H516  1  0.240200  0.269400  0.639700  1
  H  H517  1  0.645900  0.725700  0.811800  1
  H  H518  1  0.854100  0.774300  0.311800  1
  H  H519  1  0.354100  0.274300  0.188200  1
  H  H520  1  0.145900  0.225700  0.688200  1
  H  H521  1  0.506300  0.678000  0.826000  1
  H  H522  1  0.993700  0.822000  0.326000  1
  H  H523  1  0.493700  0.322000  0.174000  1
  H  H524  1  0.006300  0.178000  0.674000  1
  H  H525  1  0.751400  0.784300  0.939400  1
  H  H526  1  0.748600  0.715700  0.439400  1
  H  H527  1  0.248600  0.215700  0.060600  1
  H  H528  1  0.251400  0.284300  0.560600  1
  H  H529  1  0.316300  0.605400  0.910000  1
  H  H530  1  0.183700  0.894600  0.410000  1
  H  H531  1  0.683700  0.394600  0.090000  1
  H  H532  1  0.816300  0.105400  0.590000  1
  H  H533  1  0.528200  0.831700  0.014600  1
  H  H534  1  0.971800  0.668300  0.514600  1
  H  H535  1  0.471800  0.168300  0.985400  1
  H  H536  1  0.028200  0.331700  0.485400  1
  H  H537  1  0.493900  0.819900  0.941500  1
  H  H538  1  0.006100  0.680100  0.441500  1
  H  H539  1  0.506100  0.180100  0.058500  1
  H  H540  1  0.993900  0.319900  0.558500  1
  H  H541  1  0.254500  0.718800  0.985000  1
  H  H542  1  0.245500  0.781200  0.485000  1
  H  H543  1  0.745500  0.281200  0.015000  1
  H  H544  1  0.754500  0.218800  0.515000  1
  H  H545  1  0.292400  0.735600  0.058800  1
  H  H546  1  0.207600  0.764400  0.558800  1
  H  H547  1  0.707600  0.264400  0.941200  1
  H  H548  1  0.792400  0.235600  0.441200  1
  H  H549  1  0.410800  0.779200  0.098300  1
  H  H550  1  0.089200  0.720800  0.598300  1
  H  H551  1  0.589200  0.220800  0.901700  1
  H  H552  1  0.910800  0.279200  0.401700  1
  H  H553  1  0.532600  0.822100  0.140300  1
  H  H554  1  0.967400  0.677900  0.640300  1
  H  H555  1  0.467400  0.177900  0.859700  1
  H  H556  1  0.032600  0.322100  0.359700  1
  H  H557  1  0.645800  0.862000  0.119200  1
  H  H558  1  0.854200  0.638000  0.619200  1
  H  H559  1  0.354200  0.138000  0.880800  1
  H  H560  1  0.145800  0.362000  0.380800  1
  H  H561  1  0.705200  0.888000  0.043800  1
  H  H562  1  0.794800  0.612000  0.543800  1
  H  H563  1  0.294800  0.112000  0.956200  1
  H  H564  1  0.205200  0.388000  0.456200  1
  H  H565  1  0.767100  0.918200  0.968200  1
  H  H566  1  0.732900  0.581800  0.468200  1
  H  H567  1  0.232900  0.081800  0.031800  1
  H  H568  1  0.267100  0.418200  0.531800  1
  H  H569  1  0.610100  0.864800  0.858600  1
  H  H570  1  0.889900  0.635200  0.358600  1
  H  H571  1  0.389900  0.135200  0.141400  1
  H  H572  1  0.110100  0.364800  0.641400  1
  H  H573  1  0.496300  0.828600  0.815400  1
  H  H574  1  0.003700  0.671400  0.315400  1
  H  H575  1  0.503700  0.171400  0.184600  1
  H  H576  1  0.996300  0.328600  0.684600  1
  H  H577  1  0.381100  0.770700  0.835600  1
  H  H578  1  0.118900  0.729300  0.335600  1
  H  H579  1  0.618900  0.229300  0.164400  1
  H  H580  1  0.881100  0.270700  0.664400  1
  H  H581  1  0.192000  0.346200  0.728100  1
  H  H582  1  0.308000  0.153800  0.228100  1
  H  H583  1  0.808000  0.653800  0.271900  1
  H  H584  1  0.692000  0.846200  0.771900  1
  H  H585  1  0.262700  0.389600  0.745200  1
  H  H586  1  0.237300  0.110400  0.245200  1
  H  H587  1  0.737300  0.610400  0.254800  1
  H  H588  1  0.762700  0.889600  0.754800  1
  H  H589  1  0.307300  0.607200  0.896000  1
  H  H590  1  0.192700  0.892800  0.396000  1
  H  H591  1  0.692700  0.392800  0.104000  1
  H  H592  1  0.807300  0.107200  0.604000  1
  H  H593  1  0.774900  0.789800  0.026000  1
  H  H594  1  0.725100  0.710200  0.526000  1
  H  H595  1  0.225100  0.210200  0.974000  1
  H  H596  1  0.274900  0.289800  0.474000  1
  H  H597  1  0.748000  0.782900  0.943300  1
  H  H598  1  0.752000  0.717100  0.443300  1
  H  H599  1  0.252000  0.217100  0.056700  1
  H  H600  1  0.248000  0.282900  0.556700  1
  H  H601  1  0.565200  0.706800  0.040500  1
  H  H602  1  0.934800  0.793200  0.540500  1
  H  H603  1  0.434800  0.293200  0.959500  1
  H  H604  1  0.065200  0.206800  0.459500  1
  H  H605  1  0.481700  0.677900  0.981600  1
  H  H606  1  0.018300  0.822100  0.481600  1
  H  H607  1  0.518300  0.322100  0.018400  1
  H  H608  1  0.981700  0.177900  0.518400  1
  H  H609  1  0.292900  0.594900  0.081000  1
  H  H610  1  0.207100  0.905100  0.581000  1
  H  H611  1  0.707100  0.405100  0.919000  1
  H  H612  1  0.792900  0.094900  0.419000  1
  H  H613  1  0.368800  0.653100  0.135100  1
  H  H614  1  0.131200  0.846900  0.635100  1
  H  H615  1  0.631200  0.346900  0.864900  1
  H  H616  1  0.868800  0.153100  0.364900  1
  H  H617  1  0.500000  0.685300  0.144900  1
  H  H618  1  0.000000  0.814700  0.644900  1
  H  H619  1  0.500000  0.314700  0.855100  1
  H  H620  1  1.000000  0.185300  0.355100  1
  H  H621  1  0.640300  0.726600  0.156700  1
  H  H622  1  0.859700  0.773400  0.656700  1
  H  H623  1  0.359700  0.273400  0.843300  1
  H  H624  1  0.140300  0.226600  0.343300  1
  H  H625  1  0.731400  0.767900  0.112000  1
  H  H626  1  0.768600  0.732100  0.612000  1
  H  H627  1  0.268600  0.232100  0.888000  1
  H  H628  1  0.231400  0.267900  0.388000  1
  H  H629  1  0.742000  0.775300  0.024600  1
  H  H630  1  0.758000  0.724700  0.524600  1
  H  H631  1  0.258000  0.224700  0.975400  1
  H  H632  1  0.242000  0.275300  0.475400  1
  H  H633  1  0.672500  0.750600  0.881900  1
  H  H634  1  0.827500  0.749400  0.381900  1
  H  H635  1  0.327500  0.249400  0.118100  1
  H  H636  1  0.172500  0.250600  0.618100  1
  H  H637  1  0.542000  0.698400  0.878100  1
  H  H638  1  0.958000  0.801600  0.378100  1
  H  H639  1  0.458000  0.301600  0.121900  1
  H  H640  1  0.042000  0.198400  0.621900  1
  H  H641  1  0.410900  0.653800  0.863300  1
  H  H642  1  0.089100  0.846200  0.363300  1
  H  H643  1  0.589100  0.346200  0.136700  1
  H  H644  1  0.910900  0.153800  0.636700  1
  H  H645  1  0.305400  0.605400  0.000600  1
  H  H646  1  0.194600  0.894600  0.500600  1
  H  H647  1  0.694600  0.394600  0.999400  1
  H  H648  1  0.805400  0.105400  0.499400  1
  H  H649  1  0.730100  0.906500  0.895400  1
  H  H650  1  0.769900  0.593500  0.395400  1
  H  H651  1  0.269900  0.093500  0.104600  1
  H  H652  1  0.230100  0.406500  0.604600  1
  H  H653  1  0.324400  0.733500  0.917000  1
  H  H654  1  0.175600  0.766500  0.417000  1
  H  H655  1  0.675600  0.266500  0.083000  1
  H  H656  1  0.824400  0.233500  0.583000  1
  H  H657  1  0.480600  0.807300  0.982700  1
  H  H658  1  0.019400  0.692700  0.482700  1
  H  H659  1  0.519400  0.192700  0.017300  1
  H  H660  1  0.980600  0.307300  0.517300  1
  H  H661  1  0.551300  0.829600  0.041600  1
  H  H662  1  0.948700  0.670400  0.541600  1
  H  H663  1  0.448700  0.170400  0.958400  1
  H  H664  1  0.051300  0.329600  0.458400  1
  H  H665  1  0.750400  0.903400  0.943500  1
  H  H666  1  0.749600  0.596600  0.443500  1
  H  H667  1  0.249600  0.096600  0.056500  1
  H  H668  1  0.250400  0.403400  0.556500  1
  H  H669  1  0.672300  0.882400  0.883700  1
  H  H670  1  0.827700  0.617600  0.383700  1
  H  H671  1  0.327700  0.117600  0.116300  1
  H  H672  1  0.172300  0.382400  0.616300  1
  H  H673  1  0.539600  0.831800  0.874000  1
  H  H674  1  0.960400  0.668200  0.374000  1
  H  H675  1  0.460400  0.168200  0.126000  1
  H  H676  1  0.039600  0.331800  0.626000  1
  H  H677  1  0.405200  0.778300  0.865700  1
  H  H678  1  0.094800  0.721700  0.365700  1
  H  H679  1  0.594800  0.221700  0.134300  1
  H  H680  1  0.905200  0.278300  0.634300  1
  H  H681  1  0.312900  0.745800  0.910900  1
  H  H682  1  0.187100  0.754200  0.410900  1
  H  H683  1  0.687100  0.254200  0.089100  1
  H  H684  1  0.812900  0.245800  0.589100  1
  H  H685  1  0.302000  0.734000  0.996200  1
  H  H686  1  0.198000  0.766000  0.496200  1
  H  H687  1  0.698000  0.266000  0.003800  1
  H  H688  1  0.802000  0.234000  0.503800  1
  H  H689  1  0.288700  0.723600  0.079500  1
  H  H690  1  0.211300  0.776400  0.579500  1
  H  H691  1  0.711300  0.276400  0.920500  1
  H  H692  1  0.788700  0.223600  0.420500  1
  H  H693  1  0.362000  0.758100  0.139800  1
  H  H694  1  0.138000  0.741900  0.639800  1
  H  H695  1  0.638000  0.241900  0.860200  1
  H  H696  1  0.862000  0.258100  0.360200  1
  H  H697  1  0.495700  0.801900  0.146700  1
  H  H698  1  0.004300  0.698100  0.646700  1
  H  H699  1  0.504300  0.198100  0.853300  1
  H  H700  1  0.995700  0.301900  0.353300  1
  H  H701  1  0.626700  0.831600  0.157600  1
  H  H702  1  0.873300  0.668400  0.657600  1
  H  H703  1  0.373300  0.168400  0.842400  1
  H  H704  1  0.126700  0.331600  0.342400  1
  H  H705  1  0.721800  0.878900  0.111000  1
  H  H706  1  0.778200  0.621100  0.611000  1
  H  H707  1  0.278200  0.121100  0.889000  1
  H  H708  1  0.221800  0.378900  0.389000  1
  H  H709  1  0.728600  0.900600  0.022900  1
  H  H710  1  0.771400  0.599400  0.522900  1
  H  H711  1  0.271400  0.099400  0.977100  1
  H  H712  1  0.228600  0.400600  0.477100  1
  Pd  Pd713  1  0.186650  0.835680  0.886530  1
  Pd  Pd714  1  0.313350  0.664320  0.386530  1
  Pd  Pd715  1  0.813350  0.164320  0.113470  1
  Pd  Pd716  1  0.686650  0.335680  0.613470  1
  Pd  Pd717  1  0.859890  0.082180  0.889120  1
  Pd  Pd718  1  0.640110  0.417820  0.389120  1
  Pd  Pd719  1  0.140110  0.917820  0.110880  1
  Pd  Pd720  1  0.359890  0.582180  0.610880  1
  Pd  Pd721  1  0.525320  0.948870  0.238340  1
  Pd  Pd722  1  0.974680  0.551130  0.738340  1
  Pd  Pd723  1  0.474680  0.051130  0.761660  1
  Pd  Pd724  1  0.025320  0.448870  0.261660  1
  Pd  Pd725  1  0.869250  0.675300  0.970530  1
  Pd  Pd726  1  0.630750  0.824700  0.470530  1
  Pd  Pd727  1  0.130750  0.324700  0.029470  1
  Pd  Pd728  1  0.369250  0.175300  0.529470  1
  Pd  Pd729  1  0.241200  0.438740  0.821900  1
  Pd  Pd730  1  0.258800  0.061260  0.321900  1
  Pd  Pd731  1  0.758800  0.561260  0.178100  1
  Pd  Pd732  1  0.741200  0.938740  0.678100  1
  Pd  Pd733  1  0.377540  0.497990  0.230140  1
  Pd  Pd734  1  0.122460  0.002010  0.730140  1
  Pd  Pd735  1  0.622460  0.502010  0.769860  1
  Pd  Pd736  1  0.877540  0.997990  0.269860  1
  C  C737  1  0.725700  0.639400  0.940000  1
  C  C738  1  0.774300  0.860600  0.440000  1
  C  C739  1  0.274300  0.360600  0.060000  1
  C  C740  1  0.225700  0.139400  0.560000  1
  C  C741  1  0.655500  0.618100  0.945300  1
  C  C742  1  0.844500  0.881900  0.445300  1
  C  C743  1  0.344500  0.381900  0.054700  1
  C  C744  1  0.155500  0.118100  0.554700  1
  C  C745  1  0.628000  0.611200  0.984600  1
  C  C746  1  0.872000  0.888800  0.484600  1
  C  C747  1  0.372000  0.388800  0.015400  1
  C  C748  1  0.128000  0.111200  0.515400  1
  C  C749  1  0.672200  0.627000  0.020600  1
  C  C750  1  0.827800  0.873000  0.520600  1
  C  C751  1  0.327800  0.373000  0.979400  1
  C  C752  1  0.172200  0.127000  0.479400  1
  C  C753  1  0.740100  0.646400  0.012900  1
  C  C754  1  0.759900  0.853600  0.512900  1
  C  C755  1  0.259900  0.353600  0.987100  1
  C  C756  1  0.240100  0.146400  0.487100  1
  C  C757  1  0.287800  0.471700  0.909600  1
  C  C758  1  0.212200  0.028300  0.409600  1
  C  C759  1  0.712200  0.528300  0.090400  1
  C  C760  1  0.787800  0.971700  0.590400  1
  C  C761  1  0.332400  0.495200  0.943700  1
  C  C762  1  0.167600  0.004800  0.443700  1
  C  C763  1  0.667600  0.504800  0.056300  1
  C  C764  1  0.832400  0.995200  0.556300  1
  C  C765  1  0.402100  0.519800  0.933900  1
  C  C766  1  0.097900  0.980200  0.433900  1
  C  C767  1  0.597900  0.480200  0.066100  1
  C  C768  1  0.902100  0.019800  0.566100  1
  C  C769  1  0.421700  0.518800  0.893300  1
  C  C770  1  0.078300  0.981200  0.393300  1
  C  C771  1  0.578300  0.481200  0.106700  1
  C  C772  1  0.921700  0.018800  0.606700  1
  C  C773  1  0.373900  0.491600  0.861800  1
  C  C774  1  0.126100  0.008400  0.361800  1
  C  C775  1  0.626100  0.508400  0.138200  1
  C  C776  1  0.873900  0.991600  0.638200  1
  C  C777  1  0.469300  0.547000  0.159000  1
  C  C778  1  0.030700  0.953000  0.659000  1
  C  C779  1  0.530700  0.453000  0.841000  1
  C  C780  1  0.969300  0.047000  0.341000  1
  C  C781  1  0.490700  0.559800  0.117100  1
  C  C782  1  0.009300  0.940200  0.617100  1
  C  C783  1  0.509300  0.440200  0.882900  1
  C  C784  1  0.990700  0.059800  0.382900  1
  C  C785  1  0.446600  0.541000  0.085000  1
  C  C786  1  0.053400  0.959000  0.585000  1
  C  C787  1  0.553400  0.459000  0.915000  1
  C  C788  1  0.946600  0.041000  0.415000  1
  C  C789  1  0.382000  0.508800  0.093300  1
  C  C790  1  0.118000  0.991200  0.593300  1
  C  C791  1  0.618000  0.491200  0.906700  1
  C  C792  1  0.882000  0.008800  0.406700  1
  C  C793  1  0.365900  0.495100  0.136300  1
  C  C794  1  0.134100  0.004900  0.636300  1
  C  C795  1  0.634100  0.504900  0.863700  1
  C  C796  1  0.865900  0.995100  0.363700  1
  C  C797  1  0.555700  0.586400  0.993500  1
  C  C798  1  0.944300  0.913600  0.493500  1
  C  C799  1  0.444300  0.413600  0.006500  1
  C  C800  1  0.055700  0.086400  0.506500  1
  C  C801  1  0.449100  0.542000  0.969200  1
  C  C802  1  0.050900  0.958000  0.469200  1
  C  C803  1  0.550900  0.458000  0.030800  1
  C  C804  1  0.949100  0.042000  0.530800  1
  C  C805  1  0.468800  0.551700  0.039500  1
  C  C806  1  0.031200  0.948300  0.539500  1
  C  C807  1  0.531200  0.448300  0.960500  1
  C  C808  1  0.968800  0.051700  0.460500  1
  C  C809  1  0.333333  0.883500  0.893600  1
  C  C810  1  0.166667  0.616500  0.393600  1
  C  C811  1  0.666667  0.116500  0.106400  1
  C  C812  1  0.833333  0.383500  0.606400  1
  C  C813  1  0.396500  0.902700  0.912300  1
  C  C814  1  0.103500  0.597300  0.412300  1
  C  C815  1  0.603500  0.097300  0.087700  1
  C  C816  1  0.896500  0.402700  0.587700  1
  C  C817  1  0.402100  0.903900  0.956100  1
  C  C818  1  0.097900  0.596100  0.456100  1
  C  C819  1  0.597900  0.096100  0.043900  1
  C  C820  1  0.902100  0.403900  0.543900  1
  C  C821  1  0.342500  0.884800  0.979700  1
  C  C822  1  0.157500  0.615200  0.479700  1
  C  C823  1  0.657500  0.115200  0.020300  1
  C  C824  1  0.842500  0.384800  0.520300  1
  C  C825  1  0.282700  0.866200  0.958800  1
  C  C826  1  0.217300  0.633800  0.458800  1
  C  C827  1  0.717300  0.133800  0.041200  1
  C  C828  1  0.782700  0.366200  0.541200  1
  C  C829  1  0.763500  0.034300  0.957700  1
  C  C830  1  0.736500  0.465700  0.457700  1
  C  C831  1  0.236500  0.965700  0.042300  1
  C  C832  1  0.263500  0.534300  0.542300  1
  C  C833  1  0.703500  0.009800  0.978500  1
  C  C834  1  0.796500  0.490200  0.478500  1
  C  C835  1  0.296500  0.990200  0.021500  1
  C  C836  1  0.203500  0.509800  0.521500  1
  C  C837  1  0.643700  0.994500  0.956500  1
  C  C838  1  0.856300  0.505500  0.456500  1
  C  C839  1  0.356300  0.005500  0.043500  1
  C  C840  1  0.143700  0.494500  0.543500  1
  C  C841  1  0.649500  0.003600  0.912600  1
  C  C842  1  0.850500  0.496400  0.412600  1
  C  C843  1  0.350500  0.996400  0.087400  1
  C  C844  1  0.149500  0.503600  0.587400  1
  C  C845  1  0.710500  0.028700  0.894700  1
  C  C846  1  0.789500  0.471300  0.394700  1
  C  C847  1  0.289500  0.971300  0.105300  1
  C  C848  1  0.210500  0.528700  0.605300  1
  C  C849  1  0.465400  0.922900  0.151000  1
  C  C850  1  0.034600  0.577100  0.651000  1
  C  C851  1  0.534600  0.077100  0.849000  1
  C  C852  1  0.965400  0.422900  0.349000  1
  C  C853  1  0.463100  0.920800  0.108100  1
  C  C854  1  0.036900  0.579200  0.608100  1
  C  C855  1  0.536900  0.079200  0.891900  1
  C  C856  1  0.963100  0.420800  0.391900  1
  C  C857  1  0.522500  0.943700  0.086300  1
  C  C858  1  0.977500  0.556300  0.586300  1
  C  C859  1  0.477500  0.056300  0.913700  1
  C  C860  1  0.022500  0.443700  0.413700  1
  C  C861  1  0.583200  0.967700  0.108000  1
  C  C862  1  0.916800  0.532300  0.608000  1
  C  C863  1  0.416800  0.032300  0.892000  1
  C  C864  1  0.083200  0.467700  0.392000  1
  C  C865  1  0.581200  0.966700  0.152600  1
  C  C866  1  0.918800  0.533300  0.652600  1
  C  C867  1  0.418800  0.033300  0.847400  1
  C  C868  1  0.081200  0.466700  0.347400  1
  C  C869  1  0.467100  0.925000  0.977300  1
  C  C870  1  0.032900  0.575000  0.477300  1
  C  C871  1  0.532900  0.075000  0.022700  1
  C  C872  1  0.967100  0.425000  0.522700  1
  C  C873  1  0.579200  0.967400  0.977500  1
  C  C874  1  0.920800  0.532600  0.477500  1
  C  C875  1  0.420800  0.032600  0.022500  1
  C  C876  1  0.079200  0.467400  0.522500  1
  C  C877  1  0.522900  0.943800  0.039300  1
  C  C878  1  0.977100  0.556200  0.539300  1
  C  C879  1  0.477100  0.056200  0.960700  1
  C  C880  1  0.022900  0.443800  0.460700  1
  C  C881  1  0.100600  0.899200  0.883800  1
  C  C882  1  0.399400  0.600800  0.383800  1
  C  C883  1  0.899400  0.100800  0.116200  1
  C  C884  1  0.600600  0.399200  0.616200  1
  C  C885  1  0.056300  0.841300  0.870700  1
  C  C886  1  0.443700  0.658700  0.370700  1
  C  C887  1  0.943700  0.158700  0.129300  1
  C  C888  1  0.556300  0.341300  0.629300  1
  C  C889  1  0.898100  0.196200  0.864000  1
  C  C890  1  0.601900  0.303800  0.364000  1
  C  C891  1  0.101900  0.803800  0.136000  1
  C  C892  1  0.398100  0.696200  0.636000  1
  C  C893  1  0.959100  0.182100  0.867200  1
  C  C894  1  0.540900  0.317900  0.367200  1
  C  C895  1  0.040900  0.817900  0.132800  1
  C  C896  1  0.459100  0.682100  0.632800  1
  C  C897  1  0.572000  0.049400  0.283100  1
  C  C898  1  0.928000  0.450600  0.783100  1
  C  C899  1  0.428000  0.950600  0.716900  1
  C  C900  1  0.072000  0.549400  0.216900  1
  C  C901  1  0.526900  0.009400  0.315900  1
  C  C902  1  0.973100  0.490600  0.815900  1
  C  C903  1  0.473100  0.990600  0.684100  1
  C  C904  1  0.026900  0.509400  0.184100  1
  C  C905  1  0.926200  0.594200  0.988500  1
  C  C906  1  0.573800  0.905800  0.488500  1
  C  C907  1  0.073800  0.405800  0.011500  1
  C  C908  1  0.426200  0.094200  0.511500  1
  C  C909  1  0.983800  0.647900  0.994900  1
  C  C910  1  0.516200  0.852100  0.494900  1
  C  C911  1  0.016200  0.352100  0.005100  1
  C  C912  1  0.483800  0.147900  0.505100  1
  C  C913  1  0.213200  0.331100  0.789800  1
  C  C914  1  0.286800  0.168900  0.289800  1
  C  C915  1  0.786800  0.668900  0.210200  1
  C  C916  1  0.713200  0.831100  0.710200  1
  C  C917  1  0.175000  0.353400  0.755500  1
  C  C918  1  0.325000  0.146600  0.255500  1
  C  C919  1  0.825000  0.646600  0.244500  1
  C  C920  1  0.675000  0.853400  0.744500  1
  C  C921  1  0.347800  0.391900  0.264800  1
  C  C922  1  0.152200  0.108100  0.764800  1
  C  C923  1  0.652200  0.608100  0.735200  1
  C  C924  1  0.847800  0.891900  0.235200  1
  C  C925  1  0.309300  0.416400  0.291800  1
  C  C926  1  0.190700  0.083600  0.791800  1
  C  C927  1  0.690700  0.583600  0.708200  1
  C  C928  1  0.809300  0.916400  0.208200  1
  C  C929  1  0.180100  0.722000  0.899400  1
  C  C930  1  0.319900  0.778000  0.399400  1
  C  C931  1  0.819900  0.278000  0.100600  1
  C  C932  1  0.680100  0.222000  0.600600  1
  C  C933  1  0.183400  0.672300  0.888900  1
  C  C934  1  0.316600  0.827700  0.388900  1
  C  C935  1  0.816600  0.327700  0.111100  1
  C  C936  1  0.683400  0.172300  0.611100  1
  C  C937  1  0.893100  0.793700  0.980700  1
  C  C938  1  0.606900  0.706300  0.480700  1
  C  C939  1  0.106900  0.206300  0.019300  1
  C  C940  1  0.393100  0.293700  0.519300  1
  C  C941  1  0.894500  0.858400  0.926400  1
  C  C942  1  0.605500  0.641600  0.426400  1
  C  C943  1  0.105500  0.141600  0.073600  1
  C  C944  1  0.394500  0.358400  0.573600  1
  C  C945  1  0.229000  0.756700  0.832800  1
  C  C946  1  0.271000  0.743300  0.332800  1
  C  C947  1  0.771000  0.243300  0.167200  1
  C  C948  1  0.729000  0.256700  0.667200  1
  C  C949  1  0.518700  0.786100  0.236300  1
  C  C950  1  0.981300  0.713900  0.736300  1
  C  C951  1  0.481300  0.213900  0.763700  1
  C  C952  1  0.018700  0.286100  0.263700  1
  C  C953  1  0.150900  0.731300  0.940400  1
  C  C954  1  0.349100  0.768700  0.440400  1
  C  C955  1  0.849100  0.268700  0.059600  1
  C  C956  1  0.650900  0.231300  0.559600  1
  C  C957  1  0.232000  0.708100  0.823600  1
  C  C958  1  0.268000  0.791900  0.323600  1
  C  C959  1  0.768000  0.291900  0.176400  1
  C  C960  1  0.732000  0.208100  0.676400  1
  C  C961  1  0.169700  0.511500  0.846400  1
  C  C962  1  0.330300  0.988500  0.346400  1
  C  C963  1  0.830300  0.488500  0.153600  1
  C  C964  1  0.669700  0.011500  0.653600  1
  C  C965  1  0.211300  0.609400  0.839100  1
  C  C966  1  0.288700  0.890600  0.339100  1
  C  C967  1  0.788700  0.390600  0.160900  1
  C  C968  1  0.711300  0.109400  0.660900  1
  C  C969  1  0.893700  0.913100  0.913600  1
  C  C970  1  0.606300  0.586900  0.413600  1
  C  C971  1  0.106300  0.086900  0.086400  1
  C  C972  1  0.393700  0.413100  0.586400  1
  C  C973  1  0.888000  0.817100  0.896900  1
  C  C974  1  0.612000  0.682900  0.396900  1
  C  C975  1  0.112000  0.182900  0.103100  1
  C  C976  1  0.388000  0.317100  0.603100  1
  C  C977  1  0.899300  0.779500  0.025000  1
  C  C978  1  0.600700  0.720500  0.525000  1
  C  C979  1  0.100700  0.220500  0.975000  1
  C  C980  1  0.399300  0.279500  0.475000  1
  C  C981  1  0.862900  0.920800  0.877300  1
  C  C982  1  0.637100  0.579200  0.377300  1
  C  C983  1  0.137100  0.079200  0.122700  1
  C  C984  1  0.362900  0.420800  0.622700  1
  C  C985  1  0.898400  0.844400  0.968700  1
  C  C986  1  0.601600  0.655600  0.468700  1
  C  C987  1  0.101600  0.155600  0.031300  1
  C  C988  1  0.398400  0.344400  0.531300  1
  C  C989  1  0.540500  0.841300  0.234900  1
  C  C990  1  0.959500  0.658700  0.734900  1
  C  C991  1  0.459500  0.158700  0.765100  1
  C  C992  1  0.040500  0.341300  0.265100  1
  C  C993  1  0.921600  0.959100  0.941000  1
  C  C994  1  0.578400  0.540900  0.441000  1
  C  C995  1  0.078400  0.040900  0.059000  1
  C  C996  1  0.421600  0.459100  0.559000  1
  C  C997  1  0.209500  0.664100  0.850000  1
  C  C998  1  0.290500  0.835900  0.350000  1
  C  C999  1  0.790500  0.335900  0.150000  1
  C  C1000  1  0.709500  0.164100  0.650000  1
  C  C1001  1  0.469900  0.668200  0.257000  1
  C  C1002  1  0.030100  0.831800  0.757000  1
  C  C1003  1  0.530100  0.331800  0.743000  1
  C  C1004  1  0.969900  0.168200  0.243000  1
  C  C1005  1  0.856200  0.969000  0.869700  1
  C  C1006  1  0.643800  0.531000  0.369700  1
  C  C1007  1  0.143800  0.031000  0.130300  1
  C  C1008  1  0.356200  0.469000  0.630300  1
  C  C1009  1  0.874400  0.722600  0.876800  1
  C  C1010  1  0.625600  0.777400  0.376800  1
  C  C1011  1  0.125600  0.277400  0.123200  1
  C  C1012  1  0.374400  0.222600  0.623200  1
  C  C1013  1  0.881500  0.766600  0.908600  1
  C  C1014  1  0.618500  0.733400  0.408600  1
  C  C1015  1  0.118500  0.233400  0.091400  1
  C  C1016  1  0.381500  0.266600  0.591400  1
  C  C1017  1  0.450700  0.752000  0.238400  1
  C  C1018  1  0.049300  0.748000  0.738400  1
  C  C1019  1  0.549300  0.248000  0.761600  1
  C  C1020  1  0.950700  0.252000  0.261600  1
  C  C1021  1  0.612600  0.877700  0.230400  1
  C  C1022  1  0.887400  0.622300  0.730400  1
  C  C1023  1  0.387400  0.122300  0.769600  1
  C  C1024  1  0.112600  0.377700  0.269600  1
  C  C1025  1  0.430300  0.693400  0.238700  1
  C  C1026  1  0.069700  0.806600  0.738700  1
  C  C1027  1  0.569700  0.306600  0.761300  1
  C  C1028  1  0.930300  0.193400  0.261300  1
  C  C1029  1  0.407500  0.778700  0.241600  1
  C  C1030  1  0.092500  0.721300  0.741600  1
  C  C1031  1  0.592500  0.221300  0.758400  1
  C  C1032  1  0.907500  0.278700  0.258400  1
  C  C1033  1  0.257800  0.605800  0.810500  1
  C  C1034  1  0.242200  0.894200  0.310500  1
  C  C1035  1  0.742200  0.394200  0.189500  1
  C  C1036  1  0.757800  0.105800  0.689500  1
  C  C1037  1  0.252900  0.803100  0.802100  1
  C  C1038  1  0.247100  0.696900  0.302100  1
  C  C1039  1  0.747100  0.196900  0.197900  1
  C  C1040  1  0.752900  0.303100  0.697900  1
  C  C1041  1  0.946400  0.056300  0.959800  1
  C  C1042  1  0.553600  0.443700  0.459800  1
  C  C1043  1  0.053600  0.943700  0.040200  1
  C  C1044  1  0.446400  0.556300  0.540200  1
  C  C1045  1  0.453500  0.611600  0.256700  1
  C  C1046  1  0.046500  0.888400  0.756700  1
  C  C1047  1  0.546500  0.388400  0.743300  1
  C  C1048  1  0.953500  0.111600  0.243300  1
  C  C1049  1  0.430700  0.836600  0.242200  1
  C  C1050  1  0.069300  0.663400  0.742200  1
  C  C1051  1  0.569300  0.163400  0.757800  1
  C  C1052  1  0.930700  0.336600  0.257800  1
  C  C1053  1  0.353800  0.603300  0.221200  1
  C  C1054  1  0.146200  0.896700  0.721200  1
  C  C1055  1  0.646200  0.396700  0.778800  1
  C  C1056  1  0.853800  0.103300  0.278800  1
  C  C1057  1  0.163800  0.561900  0.856500  1
  C  C1058  1  0.336200  0.938100  0.356500  1
  C  C1059  1  0.836200  0.438100  0.143500  1
  C  C1060  1  0.663800  0.061900  0.643500  1
  C  C1061  1  0.120500  0.461500  0.865000  1
  C  C1062  1  0.379500  0.038500  0.365000  1
  C  C1063  1  0.879500  0.538500  0.135000  1
  C  C1064  1  0.620500  0.961500  0.635000  1
  C  C1065  1  0.261700  0.553900  0.803300  1
  C  C1066  1  0.238300  0.946100  0.303300  1
  C  C1067  1  0.738300  0.446100  0.196700  1
  C  C1068  1  0.761700  0.053900  0.696700  1
  C  C1069  1  0.820500  0.978400  0.830500  1
  C  C1070  1  0.679500  0.521600  0.330500  1
  C  C1071  1  0.179500  0.021600  0.169500  1
  C  C1072  1  0.320500  0.478400  0.669500  1
  C  C1073  1  0.314700  0.548700  0.773600  1
  C  C1074  1  0.185300  0.951300  0.273600  1
  C  C1075  1  0.685300  0.451300  0.226400  1
  C  C1076  1  0.814700  0.048700  0.726400  1
  C  C1077  1  0.495400  0.584900  0.278800  1
  C  C1078  1  0.004600  0.915100  0.778800  1
  C  C1079  1  0.504600  0.415100  0.721200  1
  C  C1080  1  0.995400  0.084900  0.221200  1
  C  C1081  1  0.288700  0.566000  0.202000  1
  C  C1082  1  0.211300  0.934000  0.702000  1
  C  C1083  1  0.711300  0.434000  0.798000  1
  C  C1084  1  0.788700  0.066000  0.298000  1
  C  C1085  1  0.370100  0.658400  0.222700  1
  C  C1086  1  0.129900  0.841600  0.722700  1
  C  C1087  1  0.629900  0.341600  0.777300  1
  C  C1088  1  0.870100  0.158400  0.277300  1
  C  C1089  1  0.380200  0.866200  0.249300  1
  C  C1090  1  0.119800  0.633800  0.749300  1
  C  C1091  1  0.619800  0.133800  0.750700  1
  C  C1092  1  0.880200  0.366200  0.250700  1
  C  C1093  1  0.916700  0.008500  0.930900  1
  C  C1094  1  0.583300  0.491500  0.430900  1
  C  C1095  1  0.083300  0.991500  0.069100  1
  C  C1096  1  0.416700  0.508500  0.569100  1
  C  C1097  1  0.462100  0.665700  0.878900  1
  C  C1098  1  0.037900  0.834300  0.378900  1
  C  C1099  1  0.537900  0.334300  0.121100  1
  C  C1100  1  0.962100  0.165700  0.621100  1
  C  C1101  1  0.393000  0.638600  0.862500  1
  C  C1102  1  0.107000  0.861400  0.362500  1
  C  C1103  1  0.607000  0.361400  0.137500  1
  C  C1104  1  0.893000  0.138600  0.637500  1
  C  C1105  1  0.354600  0.626500  0.896400  1
  C  C1106  1  0.145400  0.873500  0.396400  1
  C  C1107  1  0.645400  0.373500  0.103600  1
  C  C1108  1  0.854600  0.126500  0.603600  1
  C  C1109  1  0.394700  0.646900  0.935500  1
  C  C1110  1  0.105300  0.853100  0.435500  1
  C  C1111  1  0.605300  0.353100  0.064500  1
  C  C1112  1  0.894700  0.146900  0.564500  1
  C  C1113  1  0.372900  0.637400  0.976300  1
  C  C1114  1  0.127100  0.862600  0.476300  1
  C  C1115  1  0.627100  0.362600  0.023700  1
  C  C1116  1  0.872900  0.137400  0.523700  1
  C  C1117  1  0.410700  0.649600  0.013000  1
  C  C1118  1  0.089300  0.850400  0.513000  1
  C  C1119  1  0.589300  0.350400  0.987000  1
  C  C1120  1  0.910700  0.149600  0.487000  1
  C  C1121  1  0.388900  0.648100  0.057000  1
  C  C1122  1  0.111100  0.851900  0.557000  1
  C  C1123  1  0.611100  0.351900  0.943000  1
  C  C1124  1  0.888900  0.148100  0.443000  1
  C  C1125  1  0.436800  0.664700  0.082600  1
  C  C1126  1  0.063200  0.835300  0.582600  1
  C  C1127  1  0.563200  0.335300  0.917400  1
  C  C1128  1  0.936800  0.164700  0.417400  1
  C  C1129  1  0.498100  0.683900  0.059800  1
  C  C1130  1  0.001900  0.816100  0.559800  1
  C  C1131  1  0.501900  0.316100  0.940200  1
  C  C1132  1  0.998100  0.183900  0.440200  1
  C  C1133  1  0.561100  0.709400  0.070400  1
  C  C1134  1  0.938900  0.790600  0.570400  1
  C  C1135  1  0.438900  0.290600  0.929600  1
  C  C1136  1  0.061100  0.209400  0.429600  1
  C  C1137  1  0.623900  0.734000  0.045200  1
  C  C1138  1  0.876100  0.766000  0.545200  1
  C  C1139  1  0.376100  0.266000  0.954800  1
  C  C1140  1  0.123900  0.234000  0.454800  1
  C  C1141  1  0.689000  0.757700  0.058700  1
  C  C1142  1  0.811000  0.742300  0.558700  1
  C  C1143  1  0.311000  0.242300  0.941300  1
  C  C1144  1  0.189000  0.257700  0.441300  1
  C  C1145  1  0.727500  0.771800  0.025400  1
  C  C1146  1  0.772500  0.728200  0.525400  1
  C  C1147  1  0.272500  0.228200  0.974600  1
  C  C1148  1  0.227500  0.271800  0.474600  1
  C  C1149  1  0.687600  0.756100  0.988100  1
  C  C1150  1  0.812400  0.743900  0.488100  1
  C  C1151  1  0.312400  0.243900  0.011900  1
  C  C1152  1  0.187600  0.256100  0.511900  1
  C  C1153  1  0.702100  0.762000  0.948300  1
  C  C1154  1  0.797900  0.738000  0.448300  1
  C  C1155  1  0.297900  0.238000  0.051700  1
  C  C1156  1  0.202100  0.262000  0.551700  1
  C  C1157  1  0.669000  0.745000  0.914100  1
  C  C1158  1  0.831000  0.755000  0.414100  1
  C  C1159  1  0.331000  0.255000  0.085900  1
  C  C1160  1  0.169000  0.245000  0.585900  1
  C  C1161  1  0.694700  0.751600  0.868500  1
  C  C1162  1  0.805300  0.748400  0.368500  1
  C  C1163  1  0.305300  0.248400  0.131500  1
  C  C1164  1  0.194700  0.251600  0.631500  1
  C  C1165  1  0.643100  0.728500  0.841700  1
  C  C1166  1  0.856900  0.771500  0.341700  1
  C  C1167  1  0.356900  0.271500  0.158300  1
  C  C1168  1  0.143100  0.228500  0.658300  1
  C  C1169  1  0.583300  0.709000  0.866900  1
  C  C1170  1  0.916700  0.791000  0.366900  1
  C  C1171  1  0.416700  0.291000  0.133100  1
  C  C1172  1  0.083300  0.209000  0.633100  1
  C  C1173  1  0.514500  0.683200  0.855600  1
  C  C1174  1  0.985500  0.816800  0.355600  1
  C  C1175  1  0.485500  0.316800  0.144400  1
  C  C1176  1  0.014500  0.183200  0.644400  1
  C  C1177  1  0.361000  0.759000  0.969700  1
  C  C1178  1  0.139000  0.741000  0.469700  1
  C  C1179  1  0.639000  0.241000  0.030300  1
  C  C1180  1  0.861000  0.259000  0.530300  1
  C  C1181  1  0.299300  0.736300  0.994800  1
  C  C1182  1  0.200700  0.763700  0.494800  1
  C  C1183  1  0.700700  0.263700  0.005200  1
  C  C1184  1  0.799300  0.236300  0.505200  1
  C  C1185  1  0.320900  0.745800  0.034700  1
  C  C1186  1  0.179100  0.754200  0.534700  1
  C  C1187  1  0.679100  0.254200  0.965300  1
  C  C1188  1  0.820900  0.245800  0.465300  1
  C  C1189  1  0.394900  0.774500  0.036700  1
  C  C1190  1  0.105100  0.725500  0.536700  1
  C  C1191  1  0.605100  0.225500  0.963300  1
  C  C1192  1  0.894900  0.274500  0.463300  1
  C  C1193  1  0.434000  0.789000  0.072100  1
  C  C1194  1  0.066000  0.711000  0.572100  1
  C  C1195  1  0.566000  0.211000  0.927900  1
  C  C1196  1  0.934000  0.289000  0.427900  1
  C  C1197  1  0.502400  0.815900  0.075000  1
  C  C1198  1  0.997600  0.684100  0.575000  1
  C  C1199  1  0.497600  0.184100  0.925000  1
  C  C1200  1  0.002400  0.315900  0.425000  1
  C  C1201  1  0.547300  0.828900  0.111700  1
  C  C1202  1  0.952700  0.671100  0.611700  1
  C  C1203  1  0.452700  0.171100  0.888300  1
  C  C1204  1  0.047300  0.328900  0.388300  1
  C  C1205  1  0.608300  0.850200  0.100500  1
  C  C1206  1  0.891700  0.649800  0.600500  1
  C  C1207  1  0.391700  0.149800  0.899500  1
  C  C1208  1  0.108300  0.350200  0.399500  1
  C  C1209  1  0.611700  0.853500  0.055800  1
  C  C1210  1  0.888300  0.646500  0.555800  1
  C  C1211  1  0.388300  0.146500  0.944200  1
  C  C1212  1  0.111700  0.353500  0.444200  1
  C  C1213  1  0.662900  0.873200  0.030000  1
  C  C1214  1  0.837100  0.626800  0.530000  1
  C  C1215  1  0.337100  0.126800  0.970000  1
  C  C1216  1  0.162900  0.373200  0.470000  1
  C  C1217  1  0.666667  0.876400  0.983300  1
  C  C1218  1  0.833333  0.623600  0.483300  1
  C  C1219  1  0.333333  0.123600  0.016700  1
  C  C1220  1  0.166667  0.376400  0.516700  1
  C  C1221  1  0.722200  0.900400  0.958700  1
  C  C1222  1  0.777800  0.599600  0.458700  1
  C  C1223  1  0.277800  0.099600  0.041300  1
  C  C1224  1  0.222200  0.400400  0.541300  1
  C  C1225  1  0.701500  0.894000  0.919300  1
  C  C1226  1  0.798500  0.606000  0.419300  1
  C  C1227  1  0.298500  0.106000  0.080700  1
  C  C1228  1  0.201500  0.394000  0.580700  1
  C  C1229  1  0.630500  0.865800  0.916900  1
  C  C1230  1  0.869500  0.634200  0.416900  1
  C  C1231  1  0.369500  0.134200  0.083100  1
  C  C1232  1  0.130500  0.365800  0.583100  1
  C  C1233  1  0.589000  0.853500  0.885300  1
  C  C1234  1  0.911000  0.646500  0.385300  1
  C  C1235  1  0.411000  0.146500  0.114700  1
  C  C1236  1  0.089000  0.353500  0.614700  1
  C  C1237  1  0.525300  0.829000  0.882900  1
  C  C1238  1  0.974700  0.671000  0.382900  1
  C  C1239  1  0.474700  0.171000  0.117100  1
  C  C1240  1  0.025300  0.329000  0.617100  1
  C  C1241  1  0.481300  0.816700  0.843300  1
  C  C1242  1  0.018700  0.683300  0.343300  1
  C  C1243  1  0.518700  0.183300  0.156700  1
  C  C1244  1  0.981300  0.316700  0.656700  1
  C  C1245  1  0.418000  0.786200  0.854300  1
  C  C1246  1  0.082000  0.713800  0.354300  1
  C  C1247  1  0.582000  0.213800  0.145700  1
  C  C1248  1  0.918000  0.286200  0.645700  1
  C  C1249  1  0.416300  0.781000  0.899800  1
  C  C1250  1  0.083700  0.719000  0.399800  1
  C  C1251  1  0.583700  0.219000  0.100200  1
  C  C1252  1  0.916300  0.281000  0.600200  1
  C  C1253  1  0.365000  0.756900  0.929700  1
  C  C1254  1  0.135000  0.743100  0.429700  1
  C  C1255  1  0.635000  0.243100  0.070300  1
  C  C1256  1  0.865000  0.256900  0.570300  1
  C  C1257  1  0.215900  0.367000  0.753100  1
  C  C1258  1  0.284100  0.133000  0.253100  1
  C  C1259  1  0.784100  0.633000  0.246900  1
  C  C1260  1  0.715900  0.867000  0.746900  1
  C  C1261  1  0.376900  0.638800  0.038300  1
  C  C1262  1  0.123100  0.861200  0.538300  1
  C  C1263  1  0.623100  0.361200  0.961700  1
  C  C1264  1  0.876900  0.138800  0.461700  1
  C  C1265  1  0.337700  0.620000  0.077700  1
  C  C1266  1  0.162300  0.880000  0.577700  1
  C  C1267  1  0.662300  0.380000  0.922300  1
  C  C1268  1  0.837700  0.120000  0.422300  1
  C  C1269  1  0.381000  0.647000  0.107200  1
  C  C1270  1  0.119000  0.853000  0.607200  1
  C  C1271  1  0.619000  0.353000  0.892800  1
  C  C1272  1  0.881000  0.147000  0.392800  1
  C  C1273  1  0.451200  0.665000  0.091200  1
  C  C1274  1  0.048800  0.835000  0.591200  1
  C  C1275  1  0.548800  0.335000  0.908800  1
  C  C1276  1  0.951200  0.165000  0.408800  1
  C  C1277  1  0.507600  0.686000  0.115200  1
  C  C1278  1  0.992400  0.814000  0.615200  1
  C  C1279  1  0.492400  0.314000  0.884800  1
  C  C1280  1  0.007600  0.186000  0.384800  1
  C  C1281  1  0.574000  0.707000  0.103300  1
  C  C1282  1  0.926000  0.793000  0.603300  1
  C  C1283  1  0.426000  0.293000  0.896700  1
  C  C1284  1  0.074000  0.207000  0.396700  1
  C  C1285  1  0.637000  0.729000  0.126800  1
  C  C1286  1  0.863000  0.771000  0.626800  1
  C  C1287  1  0.363000  0.271000  0.873200  1
  C  C1288  1  0.137000  0.229000  0.373200  1
  C  C1289  1  0.686300  0.750000  0.102700  1
  C  C1290  1  0.813700  0.750000  0.602700  1
  C  C1291  1  0.313700  0.250000  0.897300  1
  C  C1292  1  0.186300  0.250000  0.397300  1
  C  C1293  1  0.665400  0.745000  0.059900  1
  C  C1294  1  0.834600  0.755000  0.559900  1
  C  C1295  1  0.334600  0.255000  0.940100  1
  C  C1296  1  0.165400  0.245000  0.440100  1
  C  C1297  1  0.694700  0.757000  0.022800  1
  C  C1298  1  0.805300  0.743000  0.522800  1
  C  C1299  1  0.305300  0.243000  0.977200  1
  C  C1300  1  0.194700  0.257000  0.477200  1
  C  C1301  1  0.669200  0.748000  0.978600  1
  C  C1302  1  0.830800  0.752000  0.478600  1
  C  C1303  1  0.330800  0.252000  0.021400  1
  C  C1304  1  0.169200  0.248000  0.521400  1
  C  C1305  1  0.704600  0.764000  0.942000  1
  C  C1306  1  0.795400  0.736000  0.442000  1
  C  C1307  1  0.295400  0.236000  0.058000  1
  C  C1308  1  0.204600  0.264000  0.558000  1
  C  C1309  1  0.661100  0.747000  0.911200  1
  C  C1310  1  0.838900  0.753000  0.411200  1
  C  C1311  1  0.338900  0.253000  0.088800  1
  C  C1312  1  0.161100  0.247000  0.588800  1
  C  C1313  1  0.593800  0.722200  0.927400  1
  C  C1314  1  0.906200  0.777800  0.427400  1
  C  C1315  1  0.406200  0.277800  0.072600  1
  C  C1316  1  0.093800  0.222200  0.572600  1
  C  C1317  1  0.537000  0.699600  0.908000  1
  C  C1318  1  0.963000  0.800400  0.408000  1
  C  C1319  1  0.463000  0.300400  0.092000  1
  C  C1320  1  0.037000  0.199600  0.592000  1
  C  C1321  1  0.476000  0.678000  0.919900  1
  C  C1322  1  0.024000  0.822000  0.419900  1
  C  C1323  1  0.524000  0.322000  0.080100  1
  C  C1324  1  0.976000  0.178000  0.580100  1
  C  C1325  1  0.412900  0.652300  0.893300  1
  C  C1326  1  0.087100  0.847700  0.393300  1
  C  C1327  1  0.587100  0.347700  0.106700  1
  C  C1328  1  0.912900  0.152300  0.606700  1
  C  C1329  1  0.360600  0.627000  0.918700  1
  C  C1330  1  0.139400  0.873000  0.418700  1
  C  C1331  1  0.639400  0.373000  0.081300  1
  C  C1332  1  0.860600  0.127000  0.581300  1
  C  C1333  1  0.384200  0.638000  0.961200  1
  C  C1334  1  0.115800  0.862000  0.461200  1
  C  C1335  1  0.615800  0.362000  0.038800  1
  C  C1336  1  0.884200  0.138000  0.538800  1
  C  C1337  1  0.352200  0.626200  0.001400  1
  C  C1338  1  0.147800  0.873800  0.501400  1
  C  C1339  1  0.647800  0.373800  0.998600  1
  C  C1340  1  0.852200  0.126200  0.498600  1
  C  C1341  1  0.660500  0.873000  0.983100  1
  C  C1342  1  0.839500  0.627000  0.483100  1
  C  C1343  1  0.339500  0.127000  0.016900  1
  C  C1344  1  0.160500  0.373000  0.516900  1
  C  C1345  1  0.702700  0.888000  0.944800  1
  C  C1346  1  0.797300  0.612000  0.444800  1
  C  C1347  1  0.297300  0.112000  0.055200  1
  C  C1348  1  0.202700  0.388000  0.555200  1
  C  C1349  1  0.659900  0.876000  0.912600  1
  C  C1350  1  0.840100  0.624000  0.412600  1
  C  C1351  1  0.340100  0.124000  0.087400  1
  C  C1352  1  0.159900  0.376000  0.587400  1
  C  C1353  1  0.590300  0.849400  0.928100  1
  C  C1354  1  0.909700  0.650600  0.428100  1
  C  C1355  1  0.409700  0.150600  0.071900  1
  C  C1356  1  0.090300  0.349400  0.571900  1
  C  C1357  1  0.534400  0.829000  0.903900  1
  C  C1358  1  0.965600  0.671000  0.403900  1
  C  C1359  1  0.465600  0.171000  0.096100  1
  C  C1360  1  0.034400  0.329000  0.596100  1
  C  C1361  1  0.470300  0.803000  0.919800  1
  C  C1362  1  0.029700  0.697000  0.419800  1
  C  C1363  1  0.529700  0.197000  0.080200  1
  C  C1364  1  0.970300  0.303000  0.580200  1
  C  C1365  1  0.407800  0.780000  0.895800  1
  C  C1366  1  0.092200  0.720000  0.395800  1
  C  C1367  1  0.592200  0.220000  0.104200  1
  C  C1368  1  0.907800  0.280000  0.604200  1
  C  C1369  1  0.358400  0.762000  0.919800  1
  C  C1370  1  0.141600  0.738000  0.419800  1
  C  C1371  1  0.641600  0.238000  0.080200  1
  C  C1372  1  0.858400  0.262000  0.580200  1
  C  C1373  1  0.380100  0.769000  0.962700  1
  C  C1374  1  0.119900  0.731000  0.462700  1
  C  C1375  1  0.619900  0.231000  0.037300  1
  C  C1376  1  0.880100  0.269000  0.537300  1
  C  C1377  1  0.348300  0.756000  0.998700  1
  C  C1378  1  0.151700  0.744000  0.498700  1
  C  C1379  1  0.651700  0.244000  0.001300  1
  C  C1380  1  0.848300  0.256000  0.501300  1
  C  C1381  1  0.371900  0.769000  0.043300  1
  C  C1382  1  0.128100  0.731000  0.543300  1
  C  C1383  1  0.628100  0.231000  0.956700  1
  C  C1384  1  0.871900  0.269000  0.456700  1
  C  C1385  1  0.334700  0.747000  0.078700  1
  C  C1386  1  0.165300  0.753000  0.578700  1
  C  C1387  1  0.665300  0.253000  0.921300  1
  C  C1388  1  0.834700  0.247000  0.421300  1
  C  C1389  1  0.375500  0.764000  0.111000  1
  C  C1390  1  0.124500  0.736000  0.611000  1
  C  C1391  1  0.624500  0.236000  0.889000  1
  C  C1392  1  0.875500  0.264000  0.389000  1
  C  C1393  1  0.442900  0.791100  0.096900  1
  C  C1394  1  0.057100  0.708900  0.596900  1
  C  C1395  1  0.557100  0.208900  0.903100  1
  C  C1396  1  0.942900  0.291100  0.403100  1
  C  C1397  1  0.499400  0.807000  0.116900  1
  C  C1398  1  0.000600  0.693000  0.616900  1
  C  C1399  1  0.500600  0.193000  0.883100  1
  C  C1400  1  0.999400  0.307000  0.383100  1
  C  C1401  1  0.559400  0.828000  0.103300  1
  C  C1402  1  0.940600  0.672000  0.603300  1
  C  C1403  1  0.440600  0.172000  0.896700  1
  C  C1404  1  0.059400  0.328000  0.396700  1
  C  C1405  1  0.623900  0.840000  0.128400  1
  C  C1406  1  0.876100  0.660000  0.628400  1
  C  C1407  1  0.376100  0.160000  0.871600  1
  C  C1408  1  0.123900  0.340000  0.371600  1
  C  C1409  1  0.676000  0.863500  0.102700  1
  C  C1410  1  0.824000  0.636500  0.602700  1
  C  C1411  1  0.324000  0.136500  0.897300  1
  C  C1412  1  0.176000  0.363500  0.397300  1
  C  C1413  1  0.650600  0.862000  0.060400  1
  C  C1414  1  0.849400  0.638000  0.560400  1
  C  C1415  1  0.349400  0.138000  0.939600  1
  C  C1416  1  0.150600  0.362000  0.439600  1
  C  C1417  1  0.682100  0.879000  0.020700  1
  C  C1418  1  0.817900  0.621000  0.520700  1
  C  C1419  1  0.317900  0.121000  0.979300  1
  C  C1420  1  0.182100  0.379000  0.479300  1
  N  N1421  1  0.767500  0.654400  0.973700  1
  N  N1422  1  0.732500  0.845600  0.473700  1
  N  N1423  1  0.232500  0.345600  0.026300  1
  N  N1424  1  0.267500  0.154400  0.526300  1
  N  N1425  1  0.308700  0.470600  0.870000  1
  N  N1426  1  0.191300  0.029400  0.370000  1
  N  N1427  1  0.691300  0.529400  0.130000  1
  N  N1428  1  0.808700  0.970600  0.630000  1
  N  N1429  1  0.406500  0.514400  0.167600  1
  N  N1430  1  0.093500  0.985600  0.667600  1
  N  N1431  1  0.593500  0.485600  0.832400  1
  N  N1432  1  0.906500  0.014400  0.332400  1
  N  N1433  1  0.514700  0.567400  0.959300  1
  N  N1434  1  0.985300  0.932600  0.459300  1
  N  N1435  1  0.485300  0.432600  0.040700  1
  N  N1436  1  0.014700  0.067400  0.540700  1
  N  N1437  1  0.425300  0.533200  0.009200  1
  N  N1438  1  0.074700  0.966800  0.509200  1
  N  N1439  1  0.574700  0.466800  0.990800  1
  N  N1440  1  0.925300  0.033200  0.490800  1
  N  N1441  1  0.535800  0.578500  0.033500  1
  N  N1442  1  0.964200  0.921500  0.533500  1
  N  N1443  1  0.464200  0.421500  0.966500  1
  N  N1444  1  0.035800  0.078500  0.466500  1
  N  N1445  1  0.881300  0.013300  0.896100  1
  N  N1446  1  0.618700  0.486700  0.396100  1
  N  N1447  1  0.118700  0.986700  0.103900  1
  N  N1448  1  0.381300  0.513300  0.603900  1
  N  N1449  1  0.202400  0.764300  0.870400  1
  N  N1450  1  0.297600  0.735700  0.370400  1
  N  N1451  1  0.797600  0.235700  0.129600  1
  N  N1452  1  0.702400  0.264300  0.629600  1
  N  N1453  1  0.275300  0.865400  0.917000  1
  N  N1454  1  0.224700  0.634600  0.417000  1
  N  N1455  1  0.724700  0.134600  0.083000  1
  N  N1456  1  0.775300  0.365400  0.583000  1
  N  N1457  1  0.767900  0.044100  0.917400  1
  N  N1458  1  0.732100  0.455900  0.417400  1
  N  N1459  1  0.232100  0.955900  0.082600  1
  N  N1460  1  0.267900  0.544100  0.582600  1
  N  N1461  1  0.523200  0.946900  0.173500  1
  N  N1462  1  0.976800  0.553100  0.673500  1
  N  N1463  1  0.476800  0.053100  0.826500  1
  N  N1464  1  0.023200  0.446900  0.326500  1
  N  N1465  1  0.522600  0.946900  0.954500  1
  N  N1466  1  0.977400  0.553100  0.454500  1
  N  N1467  1  0.477400  0.053100  0.045500  1
  N  N1468  1  0.022600  0.446900  0.545500  1
  N  N1469  1  0.582000  0.966800  0.020800  1
  N  N1470  1  0.918000  0.533200  0.520800  1
  N  N1471  1  0.418000  0.033200  0.979200  1
  N  N1472  1  0.082000  0.466800  0.479200  1
  N  N1473  1  0.465200  0.922100  0.020100  1
  N  N1474  1  0.034800  0.577900  0.520100  1
  N  N1475  1  0.534800  0.077900  0.979900  1
  N  N1476  1  0.965200  0.422100  0.479900  1
  N  N1477  1  0.158100  0.895800  0.907600  1
  N  N1478  1  0.341900  0.604200  0.407600  1
  N  N1479  1  0.841900  0.104200  0.092400  1
  N  N1480  1  0.658100  0.395800  0.592400  1
  N  N1481  1  0.100000  0.813000  0.852600  1
  N  N1482  1  0.400000  0.687000  0.352600  1
  N  N1483  1  0.900000  0.187000  0.147400  1
  N  N1484  1  0.600000  0.313000  0.647400  1
  N  N1485  1  0.843900  0.153800  0.885400  1
  N  N1486  1  0.656100  0.346200  0.385400  1
  N  N1487  1  0.156100  0.846200  0.114600  1
  N  N1488  1  0.343900  0.653800  0.614600  1
  N  N1489  1  0.950000  0.124900  0.861800  1
  N  N1490  1  0.550000  0.375100  0.361800  1
  N  N1491  1  0.050000  0.875100  0.138200  1
  N  N1492  1  0.450000  0.624900  0.638200  1
  N  N1493  1  0.552600  0.030700  0.241900  1
  N  N1494  1  0.947400  0.469300  0.741900  1
  N  N1495  1  0.447400  0.969300  0.758100  1
  N  N1496  1  0.052600  0.530700  0.258100  1
  N  N1497  1  0.531800  0.954300  0.302300  1
  N  N1498  1  0.968200  0.545700  0.802300  1
  N  N1499  1  0.468200  0.045700  0.697700  1
  N  N1500  1  0.031800  0.454300  0.197700  1
  N  N1501  1  0.862300  0.603300  0.994500  1
  N  N1502  1  0.637700  0.896700  0.494500  1
  N  N1503  1  0.137700  0.396700  0.005500  1
  N  N1504  1  0.362300  0.103300  0.505500  1
  N  N1505  1  0.969400  0.688600  0.968300  1
  N  N1506  1  0.530600  0.811400  0.468300  1
  N  N1507  1  0.030600  0.311400  0.031700  1
  N  N1508  1  0.469400  0.188600  0.531700  1
  N  N1509  1  0.259600  0.368000  0.818800  1
  N  N1510  1  0.240400  0.132000  0.318800  1
  N  N1511  1  0.740400  0.632000  0.181200  1
  N  N1512  1  0.759600  0.868000  0.681200  1
  N  N1513  1  0.175300  0.404300  0.774900  1
  N  N1514  1  0.324700  0.095700  0.274900  1
  N  N1515  1  0.824700  0.595700  0.225100  1
  N  N1516  1  0.675300  0.904300  0.725100  1
  N  N1517  1  0.358700  0.417700  0.224400  1
  N  N1518  1  0.141300  0.082300  0.724400  1
  N  N1519  1  0.641300  0.582300  0.775600  1
  N  N1520  1  0.858700  0.917700  0.275600  1
  N  N1521  1  0.347500  0.478000  0.291100  1
  N  N1522  1  0.152500  0.022000  0.791100  1
  N  N1523  1  0.652500  0.522000  0.708900  1
  N  N1524  1  0.847500  0.978000  0.208900  1
  N  N1525  1  0.221300  0.509200  0.822600  1
  N  N1526  1  0.278700  0.990800  0.322600  1
  N  N1527  1  0.778700  0.490800  0.177400  1
  N  N1528  1  0.721300  0.009200  0.677400  1
  N  N1529  1  0.884100  0.753800  0.950600  1
  N  N1530  1  0.615900  0.746200  0.450600  1
  N  N1531  1  0.115900  0.246200  0.049400  1
  N  N1532  1  0.384100  0.253800  0.549400  1
  N  N1533  1  0.494900  0.866500  0.240000  1
  N  N1534  1  0.005100  0.633500  0.740000  1
  N  N1535  1  0.505100  0.133500  0.760000  1
  N  N1536  1  0.994900  0.366500  0.260000  1
  N  N1537  1  0.396700  0.579900  0.237800  1
  N  N1538  1  0.103300  0.920100  0.737800  1
  N  N1539  1  0.603300  0.420100  0.762200  1
  N  N1540  1  0.896700  0.079900  0.262200  1
  N  N1541  1  0.458400  0.665500  0.923900  1
  N  N1542  1  0.041600  0.834500  0.423900  1
  N  N1543  1  0.541600  0.334500  0.076100  1
  N  N1544  1  0.958400  0.165500  0.576100  1
  N  N1545  1  0.478100  0.675900  0.014900  1
  N  N1546  1  0.021900  0.824100  0.514900  1
  N  N1547  1  0.521900  0.324100  0.985100  1
  N  N1548  1  0.978100  0.175900  0.485100  1
  N  N1549  1  0.622400  0.730100  0.001100  1
  N  N1550  1  0.877600  0.769900  0.501100  1
  N  N1551  1  0.377600  0.269900  0.998900  1
  N  N1552  1  0.122400  0.230100  0.498900  1
  N  N1553  1  0.603100  0.719400  0.910400  1
  N  N1554  1  0.896900  0.780600  0.410400  1
  N  N1555  1  0.396900  0.280600  0.089600  1
  N  N1556  1  0.103100  0.219400  0.589600  1
  N  N1557  1  0.603000  0.670900  0.176300  1
  N  N1558  1  0.897000  0.829100  0.676300  1
  N  N1559  1  0.397000  0.329100  0.823700  1
  N  N1560  1  0.103000  0.170900  0.323700  1
  N  N1561  1  0.416900  0.784100  0.997200  1
  N  N1562  1  0.083100  0.715900  0.497200  1
  N  N1563  1  0.583100  0.215900  0.002800  1
  N  N1564  1  0.916900  0.284100  0.502800  1
  N  N1565  1  0.541800  0.832800  0.041100  1
  N  N1566  1  0.958200  0.667200  0.541100  1
  N  N1567  1  0.458200  0.167200  0.958900  1
  N  N1568  1  0.041800  0.332800  0.458900  1
  N  N1569  1  0.609700  0.859700  0.958000  1
  N  N1570  1  0.890300  0.640300  0.458000  1
  N  N1571  1  0.390300  0.140300  0.042000  1
  N  N1572  1  0.109700  0.359700  0.542000  1
  N  N1573  1  0.482900  0.812700  0.914600  1
  N  N1574  1  0.017100  0.687300  0.414600  1
  N  N1575  1  0.517100  0.187300  0.085400  1
  N  N1576  1  0.982900  0.312700  0.585400  1
  N  N1577  1  0.261700  0.948100  0.799300  1
  N  N1578  1  0.238300  0.551900  0.299300  1
  N  N1579  1  0.738300  0.051900  0.200700  1
  N  N1580  1  0.761700  0.448100  0.700700  1
  N  N1581  1  0.019200  0.662800  0.868000  1
  N  N1582  1  0.480800  0.837200  0.368000  1
  N  N1583  1  0.980800  0.337200  0.132000  1
  N  N1584  1  0.519200  0.162800  0.632000  1
  N  N1585  1  0.085500  0.817300  0.001400  1
  N  N1586  1  0.414500  0.682700  0.501400  1
  N  N1587  1  0.914500  0.182700  0.998600  1
  N  N1588  1  0.585500  0.317300  0.498600  1
  N  N1589  1  0.640000  0.818700  0.604700  1
  N  N1590  1  0.860000  0.681300  0.104700  1
  N  N1591  1  0.360000  0.181300  0.395300  1
  N  N1592  1  0.140000  0.318700  0.895300  1
  N  N1593  1  0.612400  0.972900  0.791000  1
  N  N1594  1  0.887600  0.527100  0.291000  1
  N  N1595  1  0.387600  0.027100  0.209000  1
  N  N1596  1  0.112400  0.472900  0.709000  1
  N  N1597  1  0.854400  0.958400  0.056000  1
  N  N1598  1  0.645600  0.541600  0.556000  1
  N  N1599  1  0.145600  0.041600  0.944000  1
  N  N1600  1  0.354400  0.458400  0.444000  1
  N  N1601  1  0.835100  0.552100  0.861200  1
  N  N1602  1  0.664900  0.947900  0.361200  1
  N  N1603  1  0.164900  0.447900  0.138800  1
  N  N1604  1  0.335100  0.052100  0.638800  1
  N  N1605  1  0.168900  0.563000  0.974700  1
  N  N1606  1  0.331100  0.937000  0.474700  1
  N  N1607  1  0.831100  0.437000  0.025300  1
  N  N1608  1  0.668900  0.063000  0.525300  1
  N  N1609  1  0.534000  0.452600  0.245400  1
  N  N1610  1  0.966000  0.047400  0.745400  1
  N  N1611  1  0.466000  0.547400  0.754600  1
  N  N1612  1  0.034000  0.952600  0.254600  1
  N  N1613  1  0.446200  0.664400  0.049300  1
  N  N1614  1  0.053800  0.835600  0.549300  1
  N  N1615  1  0.553800  0.335600  0.950700  1
  N  N1616  1  0.946200  0.164400  0.450700  1
  N  N1617  1  0.592600  0.716000  0.062300  1
  N  N1618  1  0.907400  0.784000  0.562300  1
  N  N1619  1  0.407400  0.284000  0.937700  1
  N  N1620  1  0.092600  0.216000  0.437700  1
  N  N1621  1  0.601300  0.720800  0.969700  1
  N  N1622  1  0.898700  0.779200  0.469700  1
  N  N1623  1  0.398700  0.279200  0.030300  1
  N  N1624  1  0.101300  0.220800  0.530300  1
  N  N1625  1  0.455300  0.668000  0.959300  1
  N  N1626  1  0.044700  0.832000  0.459300  1
  N  N1627  1  0.544700  0.332000  0.040700  1
  N  N1628  1  0.955300  0.168000  0.540700  1
  N  N1629  1  0.592100  0.849700  0.970200  1
  N  N1630  1  0.907900  0.650300  0.470200  1
  N  N1631  1  0.407900  0.150300  0.029800  1
  N  N1632  1  0.092100  0.349700  0.529800  1
  N  N1633  1  0.453200  0.796800  0.960900  1
  N  N1634  1  0.046800  0.703200  0.460900  1
  N  N1635  1  0.546800  0.203200  0.039100  1
  N  N1636  1  0.953200  0.296800  0.539100  1
  N  N1637  1  0.439700  0.790100  0.054000  1
  N  N1638  1  0.060300  0.709900  0.554000  1
  N  N1639  1  0.560300  0.209900  0.946000  1
  N  N1640  1  0.939700  0.290100  0.446000  1
  N  N1641  1  0.578800  0.837400  0.063500  1
  N  N1642  1  0.921200  0.662600  0.563500  1
  N  N1643  1  0.421200  0.162600  0.936500  1
  N  N1644  1  0.078800  0.337400  0.436500  1
  N  N1645  1  0.633700  0.996700  0.780700  1
  N  N1646  1  0.866300  0.503300  0.280700  1
  N  N1647  1  0.366300  0.003300  0.219300  1
  N  N1648  1  0.133700  0.496700  0.719300  1
  N  N1649  1  0.538700  0.458300  0.263600  1
  N  N1650  1  0.961300  0.041700  0.763600  1
  N  N1651  1  0.461300  0.541700  0.736400  1
  N  N1652  1  0.038700  0.958300  0.236400  1
  O  O1653  1  0.651100  0.690100  0.152600  1
  O  O1654  1  0.848900  0.809900  0.652600  1
  O  O1655  1  0.348900  0.309900  0.847400  1
  O  O1656  1  0.151100  0.190100  0.347400  1
  O  O1657  1  0.562000  0.685000  0.172500  1
  O  O1658  1  0.938000  0.815000  0.672500  1
  O  O1659  1  0.438000  0.315000  0.827500  1
  O  O1660  1  0.062000  0.185000  0.327500  1
  O  O1661  1  0.602800  0.623900  0.197700  1
  O  O1662  1  0.897200  0.876100  0.697700  1
  O  O1663  1  0.397200  0.376100  0.802300  1
  O  O1664  1  0.102800  0.123900  0.302300  1
  O  O1665  1  0.275700  0.000600  0.801200  1
  O  O1666  1  0.224300  0.499400  0.301200  1
  O  O1667  1  0.724300  0.999400  0.198800  1
  O  O1668  1  0.775700  0.500600  0.698800  1
  O  O1669  1  0.307600  0.931300  0.793600  1
  O  O1670  1  0.192400  0.568700  0.293600  1
  O  O1671  1  0.692400  0.068700  0.206400  1
  O  O1672  1  0.807600  0.431300  0.706400  1
  O  O1673  1  0.203200  0.917000  0.807500  1
  O  O1674  1  0.296800  0.583000  0.307500  1
  O  O1675  1  0.796800  0.083000  0.192500  1
  O  O1676  1  0.703200  0.417000  0.692500  1
  O  O1677  1  0.047300  0.656800  0.833900  1
  O  O1678  1  0.452700  0.843200  0.333900  1
  O  O1679  1  0.952700  0.343200  0.166100  1
  O  O1680  1  0.547300  0.156800  0.666100  1
  O  O1681  1  0.991200  0.622400  0.890300  1
  O  O1682  1  0.508800  0.877600  0.390300  1
  O  O1683  1  0.008800  0.377600  0.109700  1
  O  O1684  1  0.491200  0.122400  0.609700  1
  O  O1685  1  0.019800  0.707100  0.879600  1
  O  O1686  1  0.480200  0.792900  0.379600  1
  O  O1687  1  0.980200  0.292900  0.120400  1
  O  O1688  1  0.519800  0.207100  0.620400  1
  O  O1689  1  0.140600  0.855500  0.006200  1
  O  O1690  1  0.359400  0.644500  0.506200  1
  O  O1691  1  0.859400  0.144500  0.993800  1
  O  O1692  1  0.640600  0.355500  0.493800  1
  O  O1693  1  0.050500  0.815700  0.970600  1
  O  O1694  1  0.449500  0.684300  0.470600  1
  O  O1695  1  0.949500  0.184300  0.029400  1
  O  O1696  1  0.550500  0.315700  0.529400  1
  O  O1697  1  0.068500  0.777600  0.027800  1
  O  O1698  1  0.431500  0.722400  0.527800  1
  O  O1699  1  0.931500  0.222400  0.972200  1
  O  O1700  1  0.568500  0.277600  0.472200  1
  O  O1701  1  0.589400  0.791000  0.623300  1
  O  O1702  1  0.910600  0.709000  0.123300  1
  O  O1703  1  0.410600  0.209000  0.376700  1
  O  O1704  1  0.089400  0.291000  0.876700  1
  O  O1705  1  0.634800  0.856300  0.580400  1
  O  O1706  1  0.865200  0.643700  0.080400  1
  O  O1707  1  0.365200  0.143700  0.419600  1
  O  O1708  1  0.134800  0.356300  0.919600  1
  O  O1709  1  0.691400  0.807600  0.605000  1
  O  O1710  1  0.808600  0.692400  0.105000  1
  O  O1711  1  0.308600  0.192400  0.395000  1
  O  O1712  1  0.191400  0.307600  0.895000  1
  O  O1713  1  0.669400  0.974200  0.795100  1
  O  O1714  1  0.830600  0.525800  0.295100  1
  O  O1715  1  0.330600  0.025800  0.204900  1
  O  O1716  1  0.169400  0.474200  0.704900  1
  O  O1717  1  0.576900  0.986800  0.816600  1
  O  O1718  1  0.923100  0.513200  0.316600  1
  O  O1719  1  0.423100  0.013200  0.183400  1
  O  O1720  1  0.076900  0.486800  0.683400  1
  O  O1721  1  0.579500  0.950500  0.759400  1
  O  O1722  1  0.920500  0.549500  0.259400  1
  O  O1723  1  0.420500  0.049500  0.240600  1
  O  O1724  1  0.079500  0.450500  0.740600  1
  O  O1725  1  0.820100  0.937200  0.088100  1
  O  O1726  1  0.679900  0.562800  0.588100  1
  O  O1727  1  0.179900  0.062800  0.911900  1
  O  O1728  1  0.320100  0.437200  0.411900  1
  O  O1729  1  0.897800  0.939700  0.042500  1
  O  O1730  1  0.602200  0.560300  0.542500  1
  O  O1731  1  0.102200  0.060300  0.957500  1
  O  O1732  1  0.397800  0.439700  0.457500  1
  O  O1733  1  0.843300  0.994900  0.036800  1
  O  O1734  1  0.656700  0.505100  0.536800  1
  O  O1735  1  0.156700  0.005100  0.963200  1
  O  O1736  1  0.343300  0.494900  0.463200  1
  O  O1737  1  0.849200  0.575900  0.827400  1
  O  O1738  1  0.650800  0.924100  0.327400  1
  O  O1739  1  0.150800  0.424100  0.172600  1
  O  O1740  1  0.349200  0.075900  0.672600  1
  O  O1741  1  0.856100  0.513900  0.873900  1
  O  O1742  1  0.643900  0.986100  0.373900  1
  O  O1743  1  0.143900  0.486100  0.126100  1
  O  O1744  1  0.356100  0.013900  0.626100  1
  O  O1745  1  0.799000  0.566700  0.889500  1
  O  O1746  1  0.701000  0.933300  0.389500  1
  O  O1747  1  0.201000  0.433300  0.110500  1
  O  O1748  1  0.299000  0.066700  0.610500  1
  O  O1749  1  0.207400  0.575600  0.005000  1
  O  O1750  1  0.292600  0.924400  0.505000  1
  O  O1751  1  0.792600  0.424400  0.995000  1
  O  O1752  1  0.707400  0.075600  0.495000  1
  O  O1753  1  0.163000  0.524100  0.949900  1
  O  O1754  1  0.337000  0.975900  0.449900  1
  O  O1755  1  0.837000  0.475900  0.050100  1
  O  O1756  1  0.663000  0.024100  0.550100  1
  O  O1757  1  0.125700  0.583500  0.969500  1
  O  O1758  1  0.374300  0.916500  0.469500  1
  O  O1759  1  0.874300  0.416500  0.030500  1
  O  O1760  1  0.625700  0.083500  0.530500  1
  O  O1761  1  0.239900  0.491900  0.032900  1
  O  O1762  1  0.260100  0.008100  0.532900  1
  O  O1763  1  0.760100  0.508100  0.967100  1
  O  O1764  1  0.739900  0.991900  0.467100  1
  O  O1765  1  0.562700  0.501800  0.239600  1
  O  O1766  1  0.937300  0.998200  0.739600  1
  O  O1767  1  0.437300  0.498200  0.760400  1
  O  O1768  1  0.062700  0.001800  0.260400  1
  O  O1769  1  0.510100  0.418700  0.215700  1
  O  O1770  1  0.989900  0.081300  0.715700  1
  O  O1771  1  0.489900  0.581300  0.784300  1
  O  O1772  1  0.010100  0.918700  0.284300  1
  O  O1773  1  0.528000  0.438600  0.283300  1
  O  O1774  1  0.972000  0.061400  0.783300  1
  O  O1775  1  0.472000  0.561400  0.716700  1
  O  O1776  1  0.028000  0.938600  0.216700  1
  O  O1777  1  0.545300  0.830300  0.703100  1
  O  O1778  1  0.954700  0.669700  0.203100  1
  O  O1779  1  0.454700  0.169700  0.296900  1
  O  O1780  1  0.045300  0.330300  0.796900  1
  O  O1781  1  0.843000  0.366100  0.949300  1
  O  O1782  1  0.657000  0.133900  0.449300  1
  O  O1783  1  0.157000  0.633900  0.050700  1
  O  O1784  1  0.343000  0.866100  0.550700  1
  O  O1785  1  0.752800  0.305700  0.816700  1
  O  O1786  1  0.747200  0.194300  0.316700  1
  O  O1787  1  0.247200  0.694300  0.183300  1
  O  O1788  1  0.252800  0.805700  0.683300  1
  O  O1789  1  0.751000  0.236600  0.801300  1
  O  O1790  1  0.749000  0.263400  0.301300  1
  O  O1791  1  0.249000  0.763400  0.198700  1
  O  O1792  1  0.251000  0.736600  0.698700  1
  O  O1793  1  0.848400  0.196500  0.753500  1
  O  O1794  1  0.651600  0.303500  0.253500  1
  O  O1795  1  0.151600  0.803500  0.246500  1
  O  O1796  1  0.348400  0.696500  0.746500  1
  O  O1797  1  0.985000  0.257000  0.750400  1
  O  O1798  1  0.515000  0.243000  0.250400  1
  O  O1799  1  0.015000  0.743000  0.249600  1
  O  O1800  1  0.485000  0.757000  0.749600  1
  O  O1801  1  0.671300  0.187700  0.848800  1
  O  O1802  1  0.828700  0.312300  0.348800  1
  O  O1803  1  0.328700  0.812300  0.151200  1
  O  O1804  1  0.171300  0.687700  0.651200  1
  O  O1805  1  0.749000  0.221000  0.880100  1
  O  O1806  1  0.751000  0.279000  0.380100  1
  O  O1807  1  0.251000  0.779000  0.119900  1
  O  O1808  1  0.249000  0.721000  0.619900  1
  O  O1809  1  0.548100  0.348500  0.271200  1
  O  O1810  1  0.951900  0.151500  0.771200  1
  O  O1811  1  0.451900  0.651500  0.728800  1
  O  O1812  1  0.048100  0.848500  0.228800  1
  O  O1813  1  0.830500  0.254000  0.947300  1
  O  O1814  1  0.669500  0.246000  0.447300  1
  O  O1815  1  0.169500  0.746000  0.052700  1
  O  O1816  1  0.330500  0.754000  0.552700  1
  O  O1817  1  0.570000  0.696300  0.732100  1
  O  O1818  1  0.930000  0.803700  0.232100  1
  O  O1819  1  0.430000  0.303700  0.267900  1
  O  O1820  1  0.070000  0.196300  0.767900  1
  O  O1821  1  0.722900  0.794400  0.186000  1
  O  O1822  1  0.777100  0.705600  0.686000  1
  O  O1823  1  0.277100  0.205600  0.814000  1
  O  O1824  1  0.222900  0.294400  0.314000  1
  O  O1825  1  0.988200  0.340100  0.874600  1
  O  O1826  1  0.511800  0.159900  0.374600  1
  O  O1827  1  0.011800  0.659900  0.125400  1
  O  O1828  1  0.488200  0.840100  0.625400  1
  O  O1829  1  0.713200  0.151000  0.917600  1
  O  O1830  1  0.786800  0.349000  0.417600  1
  O  O1831  1  0.286800  0.849000  0.082400  1
  O  O1832  1  0.213200  0.651000  0.582400  1
  O  O1833  1  0.960500  0.419300  0.927800  1
  O  O1834  1  0.539500  0.080700  0.427800  1
  O  O1835  1  0.039500  0.580700  0.072200  1
  O  O1836  1  0.460500  0.919300  0.572200  1
  O  O1837  1  0.235500  0.367000  0.185600  1
  O  O1838  1  0.264500  0.133000  0.685600  1
  O  O1839  1  0.764500  0.633000  0.814400  1
  O  O1840  1  0.735500  0.867000  0.314400  1
  O  O1841  1  0.475700  0.968200  0.416800  1
  O  O1842  1  0.024300  0.531800  0.916800  1
  O  O1843  1  0.524300  0.031800  0.583200  1
  O  O1844  1  0.975700  0.468200  0.083200  1
  O  O1845  1  0.155800  0.207800  0.841600  1
  O  O1846  1  0.344200  0.292200  0.341600  1
  O  O1847  1  0.844200  0.792200  0.158400  1
  O  O1848  1  0.655800  0.707800  0.658400  1
  O  O1849  1  0.462600  0.483000  0.343800  1
  O  O1850  1  0.037400  0.017000  0.843800  1
  O  O1851  1  0.537400  0.517000  0.656200  1
  O  O1852  1  0.962600  0.983000  0.156200  1
  O  O1853  1  0.746000  0.984000  0.132000  1
  O  O1854  1  0.754000  0.516000  0.632000  1
  O  O1855  1  0.254000  0.016000  0.868000  1
  O  O1856  1  0.246000  0.484000  0.368000  1
  O  O1857  1  0.076600  0.117300  0.887900  1
  O  O1858  1  0.423400  0.382700  0.387900  1
  O  O1859  1  0.923400  0.882700  0.112100  1
  O  O1860  1  0.576600  0.617300  0.612100  1
  O  O1861  1  0.934000  0.373500  0.681600  1
  O  O1862  1  0.566000  0.126500  0.181600  1
  O  O1863  1  0.066000  0.626500  0.318400  1
  O  O1864  1  0.434000  0.873500  0.818400  1
  O  O1865  1  0.757200  0.111100  0.806000  1
  O  O1866  1  0.742800  0.388900  0.306000  1
  O  O1867  1  0.242800  0.888900  0.194000  1
  O  O1868  1  0.257200  0.611100  0.694000  1
  O  O1869  1  0.442000  0.398700  0.168000  1
  O  O1870  1  0.058000  0.101300  0.668000  1
  O  O1871  1  0.558000  0.601300  0.832000  1
  O  O1872  1  0.942000  0.898700  0.332000  1
  O  O1873  1  0.343000  0.300600  0.708300  1
  O  O1874  1  0.157000  0.199400  0.208300  1
  O  O1875  1  0.657000  0.699400  0.291700  1
  O  O1876  1  0.843000  0.800600  0.791700  1
  O  O1877  1  0.359000  0.282000  0.769000  1
  O  O1878  1  0.141000  0.218000  0.269000  1
  O  O1879  1  0.641000  0.718000  0.231000  1
  O  O1880  1  0.859000  0.782000  0.731000  1
  O  O1881  1  0.275000  0.239900  0.723300  1
  O  O1882  1  0.225000  0.260100  0.223300  1
  O  O1883  1  0.725000  0.760100  0.276700  1
  O  O1884  1  0.775000  0.739900  0.776700  1
  O  O1885  1  0.819000  0.388000  0.867300  1
  O  O1886  1  0.681000  0.112000  0.367300  1
  O  O1887  1  0.181000  0.612000  0.132700  1
  O  O1888  1  0.319000  0.888000  0.632700  1
  O  O1889  1  0.914000  0.297000  0.762000  1
  O  O1890  1  0.586000  0.203000  0.262000  1
  O  O1891  1  0.086000  0.703000  0.238000  1
  O  O1892  1  0.414000  0.797000  0.738000  1
  O  O1893  1  0.637000  0.575000  0.239000  1
  O  O1894  1  0.863000  0.925000  0.739000  1
  O  O1895  1  0.363000  0.425000  0.761000  1
  O  O1896  1  0.137000  0.075000  0.261000  1
  O  O1897  1  0.692000  0.000100  0.779900  1
  O  O1898  1  0.808000  0.499900  0.279900  1
  O  O1899  1  0.308000  0.999900  0.220100  1
  O  O1900  1  0.192000  0.500100  0.720100  1
  O  O1901  1  0.611800  0.020600  0.807600  1
  O  O1902  1  0.888200  0.479400  0.307600  1
  O  O1903  1  0.388200  0.979400  0.192400  1
  O  O1904  1  0.111800  0.520600  0.692400  1
  O  O1905  1  0.593200  0.970000  0.753800  1
  O  O1906  1  0.906800  0.530000  0.253800  1
  O  O1907  1  0.406800  0.030000  0.246200  1
  O  O1908  1  0.093200  0.470000  0.746200  1
  O  O1909  1  0.100300  0.593700  0.987200  1
  O  O1910  1  0.399700  0.906300  0.487200  1
  O  O1911  1  0.899700  0.406300  0.012800  1
  O  O1912  1  0.600300  0.093700  0.512800  1
  O  O1913  1  0.224000  0.539000  0.004300  1
  O  O1914  1  0.276000  0.961000  0.504300  1
  O  O1915  1  0.776000  0.461000  0.995700  1
  O  O1916  1  0.724000  0.039000  0.495700  1
  O  O1917  1  0.178000  0.507700  0.955300  1
  O  O1918  1  0.322000  0.992300  0.455300  1
  O  O1919  1  0.822000  0.492300  0.044700  1
  O  O1920  1  0.678000  0.007700  0.544700  1
  O  O1921  1  0.565000  0.491400  0.291200  1
  O  O1922  1  0.935000  0.008600  0.791200  1
  O  O1923  1  0.435000  0.508600  0.708800  1
  O  O1924  1  0.065000  0.991400  0.208800  1
  O  O1925  1  0.517000  0.407400  0.271100  1
  O  O1926  1  0.983000  0.092600  0.771100  1
  O  O1927  1  0.483000  0.592600  0.728900  1
  O  O1928  1  0.017000  0.907400  0.228900  1
  O  O1929  1  0.531000  0.474000  0.227500  1
  O  O1930  1  0.969000  0.026000  0.727500  1
  O  O1931  1  0.469000  0.526000  0.772500  1
  O  O1932  1  0.031000  0.974000  0.272500  1
  O  O1933  1  0.519000  0.863100  0.703800  1
  O  O1934  1  0.981000  0.636900  0.203800  1
  O  O1935  1  0.481000  0.136900  0.296200  1
  O  O1936  1  0.019000  0.363100  0.796200  1
  O  O1937  1  0.806000  0.326000  0.812000  1
  O  O1938  1  0.694000  0.174000  0.312000  1
  O  O1939  1  0.194000  0.674000  0.188000  1
  O  O1940  1  0.306000  0.826000  0.688000  1
  O  O1941  1  0.792000  0.214700  0.770500  1
  O  O1942  1  0.708000  0.285300  0.270500  1
  O  O1943  1  0.208000  0.785300  0.229500  1
  O  O1944  1  0.292000  0.714700  0.729500  1
  O  O1945  1  0.912000  0.209300  0.737400  1
  O  O1946  1  0.588000  0.290700  0.237400  1
  O  O1947  1  0.088000  0.790700  0.262600  1
  O  O1948  1  0.412000  0.709300  0.762600  1
  O  O1949  1  0.699400  0.154900  0.862600  1
  O  O1950  1  0.800600  0.345100  0.362600  1
  O  O1951  1  0.300600  0.845100  0.137400  1
  O  O1952  1  0.199400  0.654900  0.637400  1
  O  O1953  1  0.578500  0.733200  0.722400  1
  O  O1954  1  0.921500  0.766800  0.222400  1
  O  O1955  1  0.421500  0.266800  0.277600  1
  O  O1956  1  0.078500  0.233200  0.777600  1
  O  O1957  1  0.739700  0.997400  0.105900  1
  O  O1958  1  0.760300  0.502600  0.605900  1
  O  O1959  1  0.260300  0.002600  0.894100  1
  O  O1960  1  0.239700  0.497400  0.394100  1
  O  O1961  1  0.345000  0.269300  0.718800  1
  O  O1962  1  0.155000  0.230700  0.218800  1
  O  O1963  1  0.655000  0.730700  0.281200  1
  O  O1964  1  0.845000  0.769300  0.781200  1
  O  O1965  1  0.316000  0.321900  0.700000  1
  O  O1966  1  0.184000  0.178100  0.200000  1
  O  O1967  1  0.684000  0.678100  0.300000  1
  O  O1968  1  0.816000  0.821900  0.800000  1
  O  O1969  1  0.788000  0.418000  0.900300  1
  O  O1970  1  0.712000  0.082000  0.400300  1
  O  O1971  1  0.212000  0.582000  0.099700  1
  O  O1972  1  0.288000  0.918000  0.599700  1
