
#######################################################################
#
#                 Cambridge Crystallographic Data Centre
#                                CCDC 
#
#######################################################################
#
# If this CIF has been generated from an entry in the Cambridge 
# Structural Database, then it will include bibliographic, chemical, 
# crystal, experimental, refinement or atomic coordinate data resulting 
# from the CCDC's data processing and validation procedures.
#
#######################################################################

data_VEZVEC
_chemical_formula_moiety         
'C90 H120 N30 Pd6 12+,2(C20 H14 N4),12(N1 O3 1-),18.5(H2 O1)'
_chemical_name_systematic        
"bis(\m~3~-2,4,6-tris(4-pyridyl)triazine)-tris(\m~2~-4,4'-bipyridyl)-hexakis(ethylene-1,2-diamine)-hexa-palladium dodecanitrate bis(porphyrin) clathrate hydrate"
_symmetry_cell_setting           monoclinic
_symmetry_space_group_name_H-M   'P 21/n'
_symmetry_Int_Tables_number      14
_space_group_name_Hall           '-P 2yn'
loop_
_symmetry_equiv_pos_site_id
_symmetry_equiv_pos_as_xyz
1 x,y,z
2 1/2-x,1/2+y,1/2-z
3 -x,-y,-z
4 1/2+x,1/2-y,1/2+z
_cell_length_a                   21.347(3)
_cell_length_b                   31.526(4)
_cell_length_c                   26.240(3)
_cell_angle_alpha                90
_cell_angle_beta                 111.237(2)
_cell_angle_gamma                90
_cell_volume                     16459.9
_exptl_crystal_colour            dark-red
_exptl_crystal_description       block
_cell_formula_units_Z            4
loop_
_atom_site_label
_atom_site_type_symbol
_atom_site_fract_x
_atom_site_fract_y
_atom_site_fract_z
Pd1 Pd 0.81335(6) 0.11347(3) 0.16432(4)
Pd2 Pd 0.14011(6) 0.11088(4) -0.08218(5)
Pd3 Pd 0.47468(6) -0.23834(4) 0.05113(5)
Pd4 Pd 0.13075(6) 0.02947(4) 0.32470(5)
Pd5 Pd 0.75880(8) 0.17810(4) 0.56126(5)
Pd6 Pd 0.62246(8) -0.23014(4) 0.50201(6)
N1 N 0.2325(7) 0.0263(4) 0.3456(5)
N2 N 0.6913(7) 0.1300(4) 0.5294(5)
N3 N 0.5935(8) -0.1676(5) 0.4856(6)
N4 N 0.4853(7) 0.0407(4) 0.4326(5)
N5 N 0.5747(7) -0.0092(4) 0.4668(5)
N6 N 0.4642(7) -0.0335(4) 0.4215(5)
C1 C 0.2743(9) 0.0600(5) 0.3606(6)
C2 C 0.3445(8) 0.0547(5) 0.3819(7)
C3 C 0.3720(8) 0.0154(5) 0.3888(6)
C4 C 0.3278(8) -0.0206(5) 0.3730(6)
C5 C 0.2599(7) -0.0129(5) 0.3536(6)
C6 C 0.7122(10) 0.0904(6) 0.5283(6)
C7 C 0.6676(8) 0.0563(5) 0.5048(6)
C8 C 0.5979(10) 0.0661(5) 0.4802(7)
C9 C 0.5783(9) 0.1067(5) 0.4812(7)
C10 C 0.6261(12) 0.1382(6) 0.5084(8)
C11 C 0.5307(9) -0.1590(5) 0.4530(7)
C12 C 0.5093(10) -0.1171(6) 0.4402(6)
C13 C 0.5534(8) -0.0850(5) 0.4590(6)
C14 C 0.6180(10) -0.0933(6) 0.4912(6)
C15 C 0.6341(9) -0.1363(6) 0.5049(8)
C16 C 0.4443(8) 0.0065(6) 0.4136(6)
C17 C 0.5509(10) 0.0308(6) 0.4580(6)
C18 C 0.5312(9) -0.0395(6) 0.4483(6)
N7 N 0.1187(6) 0.1039(3) -0.0133(5)
N8 N 0.7976(5) 0.1296(3) 0.2357(4)
N9 N 0.7247(6) 0.0830(4) 0.1346(4)
N10 N 0.2321(7) 0.0826(4) -0.0441(4)
N11 N 0.4768(7) -0.1735(4) 0.0531(5)
N12 N 0.4774(5) 0.0455(3) 0.0531(4)
N13 N 0.4180(6) -0.0208(3) 0.0332(4)
N14 N 0.5348(6) -0.0201(3) 0.0779(4)
C19 C 0.6667(8) 0.1064(5) 0.1165(5)
C20 C 0.6035(7) 0.0877(5) 0.0973(6)
C21 C 0.5979(7) 0.0439(4) 0.0961(5)
C22 C 0.6575(7) 0.0203(4) 0.1152(6)
C23 C 0.7173(8) 0.0412(4) 0.1338(5)
C24 C 0.2365(7) 0.0423(4) -0.0343(6)
C25 C 0.2965(7) 0.0215(5) -0.0098(5)
C26 C 0.3563(8) 0.0435(5) 0.0055(5)
C27 C 0.3505(7) 0.0874(4) -0.0036(5)
C28 C 0.2895(7) 0.1053(5) -0.0287(5)
C29 C 0.5346(7) -0.1510(4) 0.0771(6)
C30 C 0.5369(8) -0.1081(4) 0.0792(5)
C31 C 0.4775(7) -0.0863(4) 0.0563(5)
C32 C 0.4168(8) -0.1080(5) 0.0323(6)
C33 C 0.4188(9) -0.1526(5) 0.0333(6)
C34 C 0.5329(7) 0.0227(4) 0.0750(5)
C35 C 0.4208(7) 0.0225(4) 0.0326(5)
C36 C 0.4771(8) -0.0393(4) 0.0562(5)
N15 N 0.8419(6) 0.0924(4) 0.1042(5)
N16 N 0.9000(6) 0.1474(4) 0.1870(5)
N17 N 0.1561(8) 0.1146(4) -0.1538(6)
N18 N 0.0500(7) 0.1382(4) -0.1249(5)
N19 N 0.4474(7) -0.2419(4) -0.0307(5)
N20 N 0.4682(7) -0.3023(4) 0.0457(5)
N21 N 0.1377(7) 0.0055(4) 0.3967(5)
N22 N 0.0306(6) 0.0317(3) 0.3114(4)
N23 N 0.7404(8) 0.1812(5) 0.6320(6)
N24 N 0.8247(8) 0.2251(5) 0.5957(6)
N25 N 0.6413(8) -0.2244(4) 0.5823(6)
N26 N 0.6525(7) -0.2911(4) 0.5220(5)
N27 N 0.7787(7) 0.1774(4) 0.4908(5)
N28 N 0.1159(6) 0.0494(4) 0.2462(5)
N29 N 0.5051(6) -0.2400(4) 0.1335(5)
N30 N 0.6033(7) -0.2378(4) 0.4201(5)
C37 C 0.8994(7) 0.1162(4) 0.1008(6)
C38 C 0.9437(8) 0.1293(5) 0.1587(6)
C39 C 0.1019(9) 0.1360(6) -0.1962(7)
C40 C 0.0409(13) 0.1328(8) -0.1821(10)
C41 C 0.4280(10) -0.2831(5) -0.0494(7)
C42 C 0.4731(11) -0.3159(7) -0.0094(6)
C43 C 0.0738(8) 0.0115(5) 0.4058(6)
C44 C 0.0162(8) 0.0051(5) 0.3521(6)
C45 C 0.7868(11) 0.2102(7) 0.6689(9)
C46 C 0.825(2) 0.2445(12) 0.6466(16)
C47 C 0.6522(12) -0.2648(7) 0.6081(9)
C48 C 0.6907(9) -0.2918(6) 0.5836(7)
C49 C 0.8199(7) 0.1006(4) 0.2780(4)
C50 C 0.8166(6) 0.1111(4) 0.3277(5)
C51 C 0.1069(7) 0.0193(4) 0.2063(5)
C52 C 0.1055(7) 0.0736(4) 0.1416(5)
C53 C 0.7710(7) 0.1672(4) 0.2433(5)
C54 C 0.4813(9) -0.2363(4) 0.2139(6)
C55 C 0.8491(7) 0.0596(4) 0.2687(5)
C56 C 0.7680(7) 0.1764(4) 0.2919(6)
C57 C 0.8303(9) 0.1536(6) 0.4885(5)
C58 C 0.7887(9) 0.1609(5) 0.3906(6)
C59 C 0.1063(7) 0.0864(4) 0.0869(5)
C60 C 0.1120(7) 0.1031(4) 0.1829(6)
C61 C 0.1007(8) -0.0250(4) 0.2205(6)
C62 C 0.1371(8) 0.1227(4) 0.0792(7)
C63 C 0.1016(7) 0.0313(4) 0.1556(6)
C64 C 0.4595(8) -0.2349(5) 0.1587(6)
C65 C 0.0784(7) 0.0590(4) 0.0409(5)
C66 C 0.7905(6) 0.1500(4) 0.3359(5)
C67 C 0.5301(9) -0.2570(5) 0.3318(6)
C68 C 0.1438(9) 0.1303(5) 0.0310(6)
C69 C 0.1256(9) 0.1232(4) 0.2774(6)
C70 C 0.1185(8) 0.0914(4) 0.2334(6)
C71 C 0.5493(8) -0.2384(4) 0.2480(7)
C72 C 0.3874(8) -0.2304(5) 0.1223(7)
C73 C 0.5697(8) -0.2387(5) 0.3066(7)
C74 C 0.5925(8) -0.2416(5) 0.2213(6)
C75 C 0.7422(8) 0.1895(5) 0.3942(6)
C76 C 0.7471(8) 0.1979(4) 0.1969(5)
C77 C 0.0536(8) 0.0402(4) -0.0563(6)
C78 C 0.5465(9) -0.2567(5) 0.3884(7)
C79 C 0.5693(9) -0.2422(5) 0.1634(6)
C80 C 0.6462(9) -0.2212(5) 0.3967(7)
C81 C 0.8362(7) 0.1435(5) 0.4381(6)
C82 C 0.8795(8) 0.1350(5) 0.5385(6)
C83 C 0.7383(8) 0.1967(5) 0.4461(6)
C84 C 0.1795(12) 0.1695(5) 0.0216(8)
C85 C 0.6853(11) 0.2264(8) 0.4513(8)
C86 C 0.5046(9) -0.2788(5) 0.4151(7)
C87 C 0.7113(9) -0.2020(6) 0.4340(8)
C88 C 0.6299(9) -0.2227(5) 0.3416(7)
C89 C 0.6198(5) -0.2493(3) 0.1338(4)
C90 C 0.0833(5) 0.0691(3) -0.0085(4)
H1 H 0.2559 0.0877 0.3567
H2 H 0.3729 0.0789 0.3915
H3 H 0.3450 -0.0487 0.3759
H4 H 0.2303 -0.0366 0.3454
H5 H 0.7589 0.0846 0.5440
H6 H 0.6836 0.0281 0.5054
H7 H 0.5323 0.1142 0.4638
H8 H 0.6109 0.1661 0.5116
H9 H 0.5000 -0.1816 0.4382
H10 H 0.4638 -0.1113 0.4183
H11 H 0.6506 -0.0714 0.5038
H12 H 0.6778 -0.1426 0.5301
H13 H 0.6698 0.1364 0.1172
H14 H 0.5643 0.1049 0.0851
H15 H 0.6562 -0.0098 0.1152
H16 H 0.7570 0.0244 0.1472
H17 H 0.1962 0.0263 -0.0446
H18 H 0.2968 -0.0082 -0.0034
H19 H 0.3897 0.1046 0.0079
H20 H 0.2869 0.1349 -0.0357
H21 H 0.5754 -0.1663 0.0933
H22 H 0.5782 -0.0935 0.0959
H23 H 0.3756 -0.0932 0.0160
H24 H 0.3779 -0.1681 0.0195
H25 H 0.8532 0.0642 0.1100
H26 H 0.8063 0.0947 0.0715
H27 H 0.8907 0.1754 0.1774
H28 H 0.9218 0.1459 0.2243
H29 H 0.1956 0.1290 -0.1480
H30 H 0.1607 0.0877 -0.1655
H31 H 0.0159 0.1251 -0.1172
H32 H 0.0504 0.1666 -0.1164
H33 H 0.4123 -0.2236 -0.0470
H34 H 0.4829 -0.2338 -0.0405
H35 H 0.5025 -0.3144 0.0743
H36 H 0.4280 -0.3112 0.0475
H37 H 0.1475 -0.0229 0.3976
H38 H 0.1720 0.0187 0.4241
H39 H 0.0180 0.0593 0.3142
H40 H 0.0063 0.0221 0.2768
H41 H 0.6970 0.1902 0.6248
H42 H 0.7451 0.1547 0.6478
H43 H 0.8672 0.2147 0.6022
H44 H 0.8173 0.2464 0.5702
H45 H 0.6787 -0.2077 0.5980
H46 H 0.6055 -0.2113 0.5874
H47 H 0.6158 -0.3089 0.5128
H48 H 0.6798 -0.2999 0.5038
H49 H 0.8835 0.1416 0.0775
H50 H 0.9252 0.0982 0.0844
H51 H 0.9685 0.1043 0.1791
H52 H 0.9769 0.1507 0.1572
H53 H 0.0939 0.1225 -0.2321
H54 H 0.1136 0.1662 -0.1985
H55 H 0.0083 0.1543 -0.2036
H56 H 0.0205 0.1046 -0.1940
H57 H 0.4311 -0.2868 -0.0859
H58 H 0.3806 -0.2876 -0.0532
H59 H 0.5199 -0.3143 -0.0081
H60 H 0.4559 -0.3451 -0.0194
H61 H 0.0719 0.0405 0.4198
H62 H 0.0706 -0.0091 0.4332
H63 H 0.0130 -0.0251 0.3411
H64 H -0.0268 0.0137 0.3553
H65 H 0.8215 0.1931 0.6966
H66 H 0.7620 0.2258 0.6884
H67 H 0.8006 0.2719 0.6394
H68 H 0.8712 0.2490 0.6727
H69 H 0.6085 -0.2783 0.6031
H70 H 0.6775 -0.2615 0.6478
H71 H 0.6940 -0.3211 0.5977
H72 H 0.7366 -0.2804 0.5924
H73 H 0.8324 0.0915 0.3571
H74 H 0.4486 -0.2359 0.2306
H75 H 0.8475 0.0585 0.2309
H76 H 0.8230 0.0360 0.2751
H77 H 0.8958 0.0575 0.2939
H78 H 0.7490 0.2028 0.2960
H79 H 0.1119 0.1325 0.1748
H80 H 0.0951 -0.0431 0.1888
H81 H 0.0615 -0.0280 0.2314
H82 H 0.1413 -0.0334 0.2510
H83 H 0.1538 0.1427 0.1081
H84 H 0.0950 0.0102 0.1284
H85 H 0.0563 0.0337 0.0444
H86 H 0.4897 -0.2705 0.3096
H87 H 0.1296 0.1085 0.3113
H88 H 0.0860 0.1417 0.2663
H89 H 0.1660 0.1404 0.2834
H90 H 0.3597 -0.2270 0.1447
H91 H 0.3730 -0.2559 0.0995
H92 H 0.3822 -0.2055 0.0988
H93 H 0.6393 -0.2435 0.2416
H94 H 0.7134 0.2041 0.3628
H95 H 0.7309 0.2237 0.2088
H96 H 0.7105 0.1850 0.1665
H97 H 0.7843 0.2050 0.1849
H98 H 0.0611 0.0520 -0.0881
H99 H 0.0052 0.0373 -0.0645
H100 H 0.0749 0.0122 -0.0476
H101 H 0.8712 0.1255 0.4364
H102 H 0.8694 0.1442 0.5703
H103 H 0.9248 0.1444 0.5425
H104 H 0.8772 0.1039 0.5359
H105 H 0.1962 0.1863 0.0553
H106 H 0.1481 0.1866 -0.0078
H107 H 0.2174 0.1609 0.0113
H108 H 0.6901 0.2284 0.4898
H109 H 0.6406 0.2154 0.4298
H110 H 0.6910 0.2546 0.4378
H111 H 0.4652 -0.2915 0.3870
H112 H 0.4898 -0.2584 0.4365
H113 H 0.5313 -0.3012 0.4393
H114 H 0.7135 -0.2035 0.4719
H115 H 0.7136 -0.1722 0.4239
H116 H 0.7492 -0.2176 0.4304
H117 H 0.6614 -0.2122 0.3267
H118 H 0.5956 -0.2487 0.0941
H119 H 0.6419 -0.2769 0.1445
H120 H 0.6537 -0.2267 0.1441
N31 N 0.5416(11) 0.0761(6) 0.3345(12)
N32 N 0.5219(10) -0.0149(6) 0.3241(8)
N33 N 0.3776(9) -0.0011(6) 0.2699(8)
N34 N 0.3969(10) 0.0896(6) 0.2806(9)
C91 C 0.5379(12) 0.1211(8) 0.3343(13)
C92 C 0.6070(12) 0.1375(8) 0.3614(12)
C93 C 0.6454(14) 0.1036(8) 0.3735(14)
C94 C 0.6053(12) 0.0645(7) 0.3531(11)
C95 C 0.6271(14) 0.0237(8) 0.3626(14)
C96 C 0.5893(12) -0.0130(7) 0.3504(11)
C97 C 0.6111(13) -0.0570(8) 0.3519(11)
C98 C 0.5632(13) -0.0826(8) 0.3353(18)
C99 C 0.5019(10) -0.0598(6) 0.3161(9)
C100 C 0.4389(11) -0.0704(7) 0.2906(11)
C101 C 0.3761(11) -0.0452(6) 0.2660(10)
C102 C 0.3110(12) -0.0587(8) 0.2423(14)
C103 C 0.2725(14) -0.0254(8) 0.2282(15)
C104 C 0.3124(13) 0.0119(7) 0.2439(14)
C105 C 0.2979(15) 0.0517(9) 0.238(2)
C106 C 0.3310(15) 0.0859(9) 0.255(2)
C107 C 0.3053(14) 0.1315(8) 0.2484(12)
C108 C 0.3569(13) 0.1583(8) 0.2715(12)
C109 C 0.4167(13) 0.1331(8) 0.2910(13)
C110 C 0.4855(13) 0.1444(9) 0.3168(13)
H121 H 0.4946 0.0070 0.3136
H122 H 0.4250 0.0680 0.2899
H123 H 0.6207 0.1663 0.3685
H124 H 0.6743 0.0200 0.3797
H125 H 0.6570 -0.0654 0.3642
H126 H 0.5672 -0.1127 0.3356
H127 H 0.4318 -0.1002 0.2872
H128 H 0.2965 -0.0874 0.2371
H129 H 0.2598 0.1397 0.2306
H130 H 0.3541 0.1882 0.2743
H131 H 0.4937 0.1740 0.3220
H132 H 0.2486 0.0606 0.2157
H133 H 0.6837 0.0900 0.3946
N35 N 0.397(2) -0.1763(12) 0.3291(16)
O1 O 0.3489(17) -0.1526(10) 0.3099(13)
O2 O 0.438(2) -0.1725(13) 0.3150(17)
O3 O 0.3972(12) -0.1977(7) 0.3761(9)
N36 N 0.5831(10) 0.0028(6) 0.2159(9)
N37 N 0.4582(10) -0.0411(6) 0.1672(9)
N38 N 0.3903(11) 0.0420(7) 0.1403(11)
N39 N 0.5171(12) 0.0854(7) 0.1873(14)
C111 C 0.6390(13) 0.0303(8) 0.2410(14)
C112 C 0.7007(13) 0.0052(8) 0.2637(12)
C113 C 0.6791(13) -0.0347(8) 0.2542(12)
C114 C 0.6051(13) -0.0367(8) 0.2255(15)
C115 C 0.5660(12) -0.0721(9) 0.2110(13)
C116 C 0.4976(11) -0.0750(7) 0.1841(11)
C117 C 0.4527(13) -0.1117(8) 0.1711(17)
C118 C 0.3917(13) -0.1005(7) 0.1498(11)
C119 C 0.3883(12) -0.0558(7) 0.1465(11)
C120 C 0.3371(13) -0.0300(7) 0.1268(15)
C121 C 0.3333(13) 0.0167(7) 0.1236(17)
C122 C 0.2778(13) 0.0413(8) 0.0996(13)
C123 C 0.2985(14) 0.0807(8) 0.1060(14)
C124 C 0.3695(13) 0.0831(8) 0.1342(14)
C125 C 0.4110(14) 0.1147(9) 0.1465(14)
C126 C 0.4747(14) 0.1171(9) 0.1710(14)
C127 C 0.5187(16) 0.1567(10) 0.1833(17)
C128 C 0.5820(16) 0.1457(9) 0.2138(15)
C129 C 0.5837(15) 0.1002(9) 0.219(2)
C130 C 0.6350(16) 0.0703(8) 0.2431(17)
H134 H 0.4718 -0.0146 0.1683
H135 H 0.5061 0.0585 0.1801
H136 H 0.7455 0.0150 0.2812
H137 H 0.7076 -0.0588 0.2644
H138 H 0.5892 -0.0983 0.2208
H139 H 0.4674 -0.1403 0.1779
H140 H 0.3542 -0.1192 0.1380
H141 H 0.2948 -0.0438 0.1120
H142 H 0.2329 0.0318 0.0818
H143 H 0.3899 0.1414 0.1352
H144 H 0.5037 0.1846 0.1714
H145 H 0.6189 0.1644 0.2293
N40 N 0.7383(7) 0.2007(4) 0.0519(5)
O4 O 0.7243(7) 0.1988(4) -0.0006(5)
O5 O 0.6924(6) 0.2064(3) 0.0687(4)
O6 O 0.7968(6) 0.1925(3) 0.0830(4)
N41 N 0.9808(7) 0.1320(4) 0.3372(5)
O7 O 0.9527(6) 0.1661(4) 0.3432(5)
O8 O 1.0088(6) 0.1097(4) 0.3776(5)
O9 O 0.9802(5) 0.1204(3) 0.2929(4)
N42 N 0.9145(7) -0.0014(4) 0.1827(6)
O10 O 0.8594(6) -0.0062(4) 0.1445(5)
O11 O 0.9495(6) 0.0294(3) 0.1843(4)
O12 O 0.9315(6) -0.0278(4) 0.2224(5)
N43 N 0.3600(9) 0.3953(5) 0.1813(7)
O13 O 0.4106(10) 0.3767(6) 0.2090(8)
O14 O 0.3652(8) 0.4196(5) 0.1437(6)
O15 O 0.3086(8) 0.3950(4) 0.1924(6)
N44 N 0.3876(13) 0.2090(8) 0.0271(9)
O16 O 0.3306(12) 0.2049(7) 0.0258(10)
O17 O 0.4231(18) 0.1834(11) 0.0132(17)
O18 O 0.4205(17) 0.2406(10) 0.0495(16)
N45 N 0.1456(7) -0.0560(4) 0.0416(6)
O19 O 0.1799(7) -0.0881(4) 0.0628(6)
O20 O 0.1022(7) -0.0425(4) 0.0603(6)
O21 O 0.1567(7) -0.0368(4) 0.0051(5)
N46 N 0.1649(10) 0.1388(7) 0.4479(8)
O22 O 0.1508(9) 0.1726(6) 0.4241(7)
O23 O 0.1439(10) 0.1261(6) 0.4861(8)
O24 O 0.2010(8) 0.1105(5) 0.4333(6)
N47 N 0.8311(13) 0.0253(7) 0.4370(10)
O25 O 0.7926(11) -0.0050(6) 0.4244(9)
O26 O 0.837(2) 0.0501(12) 0.4759(15)
O27 O 0.8743(14) 0.0305(9) 0.4165(12)
O28 O 0.7601(7) -0.0329(4) 0.5081(6)
N48 N 0.4660(14) -0.2454(9) 0.5474(10)
O29 O 0.4373(15) -0.2396(8) 0.4982(9)
O30 O 0.4899(16) -0.2157(9) 0.5813(11)
O31 O 0.472(2) -0.2833(9) 0.5614(14)
O32 O 0.4547(18) 0.2969(10) 0.1697(14)
O33 O 0.1570(19) 0.0507(11) 0.6339(14)
O34 O 0.2472(19) 0.1833(10) -0.3057(14)
O35 O 0.249(2) 0.1987(13) -0.2366(16)
O36 O 0.1516(19) 0.2465(10) -0.1965(13)
O37 O 0.015(3) 0.2496(14) -0.2570(19)
O38 O 0.3287(17) 0.1512(10) -0.1877(13)
O39 O 0.251(3) 0.1199(15) -0.221(2)
O40 O 0.4519(16) -0.2712(9) 0.6515(12)
O41 O 0.1695(16) 0.0527(9) 0.7460(12)
O42 O 0.430(2) 0.2679(12) 0.3037(17)
O43 O 0.2771(14) -0.1860(9) 0.2056(11)
O44 O 0.0118(11) 0.1254(7) -0.3401(9)
O45 O 0.2868(11) 0.0824(7) 0.8490(8)
O46 O 0.0395(9) 0.0722(6) 0.5807(7)
O47 O 0.7645(9) -0.1856(6) 0.6330(7)
O48 O 0.5243(7) -0.4168(4) 0.0318(5)
O49 O 0.8442(6) 0.1584(4) 0.7922(5)
O50 O 0.5374(7) -0.3438(4) 0.5170(5)
O51 O 0.254(4) -0.132(3) 0.016(3)
O52 O -0.0766(6) 0.1121(3) -0.1173(4)
O53 O 0.066(2) 0.3184(12) -0.3735(16)
O54 O 0.2428(10) 0.1940(6) -0.1111(8)
O55 O 0.558(2) -0.1680(15) 0.6013(19)
O56 O 0.657(2) 0.2917(11) 0.6994(17)
O57 O 0.641(3) 0.231(2) 0.718(3)
O58 O 0.725(2) 0.2767(11) 0.7601(14)
O59 O 0.181(3) 0.1327(19) 0.612(2)
O60 O 0.086(4) 0.238(2) -0.297(3)
C131? C 0.7841(18) 0.2469(9) 0.6330(12)
N49? N 0.5538(15) -0.0493(10) 0.3356(17)
N50? N 0.4074(17) -0.0623(10) 0.284(2)
N51? N 0.3987(14) 0.0303(9) 0.2792(13)
N52? N 0.5447(14) 0.0407(8) 0.3320(14)
C132? C 0.6231(16) -0.0383(9) 0.3612(16)
C133? C 0.6623(18) -0.0777(10) 0.380(2)
C134? C 0.6190(18) -0.1072(11) 0.353(2)
C135? C 0.5488(17) -0.0912(11) 0.335(3)
C136? C 0.4924(17) -0.1152(13) 0.314(3)
C137? C 0.4260(17) -0.1033(12) 0.293(3)
C138? C 0.3630(19) -0.1268(11) 0.271(3)
C139? C 0.3137(19) -0.1027(11) 0.250(3)
C140? C 0.3346(19) -0.0599(10) 0.255(3)
C141? C 0.3053(18) -0.0228(10) 0.243(2)
C142? C 0.3308(17) 0.0214(10) 0.252(2)
C143? C 0.2954(17) 0.0580(11) 0.236(3)
C144? C 0.3389(18) 0.0888(11) 0.253(3)
C145? C 0.4062(16) 0.0726(10) 0.2778(19)
C146? C 0.4630(14) 0.0920(10) 0.3004(17)
C147? C 0.5240(16) 0.0801(10) 0.322(3)
C148? C 0.5871(17) 0.1067(10) 0.3477(19)
C149? C 0.6394(18) 0.0813(11) 0.373(2)
C150? C 0.6158(17) 0.0388(10) 0.362(2)
C151? C 0.6478(18) -0.0014(10) 0.3738(19)
O61? O 0.363(5) -0.239(3) 0.425(4)
N53? N 0.4079(14) 0.0298(9) 0.1503(16)
N54? N 0.5468(13) 0.0391(8) 0.2032(12)
N55? N 0.5603(14) -0.0540(9) 0.2099(17)
N56? N 0.4212(14) -0.0635(8) 0.1626(14)
C152? C 0.3395(17) 0.0169(9) 0.127(2)
C153? C 0.2973(16) 0.0552(10) 0.112(2)
C154? C 0.3401(17) 0.0874(10) 0.124(2)
C155? C 0.4097(15) 0.0719(10) 0.1506(17)
C156? C 0.4656(15) 0.0961(11) 0.171(2)
C157? C 0.5297(15) 0.0802(10) 0.197(3)
C158? C 0.5922(18) 0.1042(11) 0.220(3)
C159? C 0.6416(17) 0.0802(10) 0.238(2)
C160? C 0.6199(16) 0.0373(9) 0.231(2)
C161? C 0.6517(18) 0.0013(9) 0.244(2)
C162? C 0.6281(17) -0.0433(9) 0.231(2)
C163? C 0.6653(17) -0.0787(11) 0.253(2)
C164? C 0.6245(18) -0.1110(11) 0.236(2)
C165? C 0.5571(15) -0.0969(10) 0.2089(19)
C166? C 0.5006(16) -0.1169(11) 0.193(2)
C167? C 0.4406(16) -0.1033(11) 0.172(3)
C168? C 0.3761(17) -0.1284(11) 0.160(2)
C169? C 0.3240(16) -0.1027(10) 0.1365(18)
C170? C 0.3494(17) -0.0604(9) 0.138(2)
C171? C 0.3179(18) -0.0207(9) 0.121(2)
N57? N 0.3663(10) 0.2193(6) 0.0033(8)
O62? O 0.3080(9) 0.2201(6) -0.0001(8)
O63? O 0.3882(10) 0.1924(6) -0.0206(8)
O64? O 0.4068(14) 0.2462(8) 0.0300(13)
O65? O 0.8997(15) 0.0128(9) 0.4063(11)
O66? O 0.776(3) -0.0043(18) 0.461(2)
O67? O 0.822(2) 0.0447(11) 0.4923(15)
N58? N 0.4613(18) -0.2636(11) 0.5417(14)
O68? O 0.435(2) -0.2912(12) 0.5086(16)
O69? O 0.483(3) -0.2711(14) 0.5926(14)
O70? O 0.469(3) -0.2275(12) 0.5260(19)
O71? O 0.481(2) 0.2962(14) 0.1369(19)
O72? O 0.194(3) 0.1880(16) -0.326(2)
O73? O 0.208(2) 0.2295(14) -0.2147(18)
O74? O 0.088(2) 0.2626(13) -0.2093(17)
O75? O 0.3006(19) 0.1374(11) -0.1549(15)
O76? O 0.4215(17) 0.2776(10) 0.2668(14)
O77? O 0.2603(6) -0.1059(4) 0.0026(5)
O78? O 0.655(2) 0.2812(13) 0.7307(19)
O79? O 0.6840(14) 0.3000(8) 0.6781(11)
O80? O 0.212(3) 0.0997(19) 0.582(2)
H146? H 0.8080 0.2719 0.6538
H147? H 0.7373 0.2548 0.6104
H148? H 0.6927 0.1040 0.3928
H149? H 0.2251 -0.0260 0.2102
H150? H 0.2520 0.0567 0.2171
H151? H 0.4348 -0.0405 0.2932
H152? H 0.5183 0.0184 0.3221
H153? H 0.7071 -0.0810 0.4051
H154? H 0.6312 -0.1351 0.3469
H155? H 0.5000 -0.1449 0.3147
H156? H 0.3597 -0.1567 0.2734
H157? H 0.2686 -0.1120 0.2321
H158? H 0.2580 -0.0246 0.2247
H159? H 0.3275 0.1181 0.2494
H160? H 0.4580 0.1219 0.3016
H161? H 0.5891 0.1367 0.3462
H162? H 0.6946 -0.0006 0.3946
H163? H 0.2699 0.1046 0.0935
H164? H 0.6756 0.0830 0.2665
H165? H 0.5194 0.0173 0.1927
H166? H 0.4487 -0.0416 0.1704
H167? H 0.2496 0.0565 0.0966
H168? H 0.3277 0.1163 0.1176
H169? H 0.4604 0.1260 0.1682
H170? H 0.5948 0.1343 0.2217
H171? H 0.6871 0.0891 0.2542
H172? H 0.6980 0.0038 0.2660
H173? H 0.7113 -0.0795 0.2764
H174? H 0.6380 -0.1398 0.2419
H175? H 0.5043 -0.1467 0.1981
H176? H 0.3733 -0.1576 0.1684
H177? H 0.2782 -0.1110 0.1211
H178? H 0.2714 -0.0229 0.0994
loop_
_geom_bond_atom_site_label_1
_geom_bond_atom_site_label_2
_geom_bond_site_symmetry_1
_geom_bond_site_symmetry_2
Pd1 N8 1_555 1_555
Pd2 N7 1_555 1_555
Pd3 N11 1_555 1_555
Pd4 N1 1_555 1_555
Pd5 N2 1_555 1_555
Pd6 N3 1_555 1_555
N1 C1 1_555 1_555
N2 C6 1_555 1_555
N3 C11 1_555 1_555
N4 C16 1_555 1_555
N5 C17 1_555 1_555
N6 C16 1_555 1_555
C1 C2 1_555 1_555
C2 C3 1_555 1_555
C3 C4 1_555 1_555
C4 C5 1_555 1_555
C5 N1 1_555 1_555
C6 C7 1_555 1_555
C7 C8 1_555 1_555
C8 C9 1_555 1_555
C9 C10 1_555 1_555
C10 N2 1_555 1_555
C11 C12 1_555 1_555
C12 C13 1_555 1_555
C13 C14 1_555 1_555
C14 C15 1_555 1_555
C15 N3 1_555 1_555
C16 C3 1_555 1_555
C17 N4 1_555 1_555
C18 N5 1_555 1_555
N7 C68 1_555 1_555
N8 C49 1_555 1_555
N9 Pd1 1_555 1_555
N10 Pd2 1_555 1_555
N11 C29 1_555 1_555
N12 C34 1_555 1_555
N13 C35 1_555 1_555
N14 C34 1_555 1_555
C19 N9 1_555 1_555
C20 C19 1_555 1_555
C21 C20 1_555 1_555
C22 C21 1_555 1_555
C23 N9 1_555 1_555
C24 N10 1_555 1_555
C25 C24 1_555 1_555
C26 C25 1_555 1_555
C27 C26 1_555 1_555
C28 N10 1_555 1_555
C29 C30 1_555 1_555
C30 C31 1_555 1_555
C31 C32 1_555 1_555
C32 C33 1_555 1_555
C33 N11 1_555 1_555
C34 C21 1_555 1_555
C35 N12 1_555 1_555
C36 N13 1_555 1_555
N15 Pd1 1_555 1_555
N16 Pd1 1_555 1_555
N17 Pd2 1_555 1_555
N18 Pd2 1_555 1_555
N19 Pd3 1_555 1_555
N20 Pd3 1_555 1_555
N21 Pd4 1_555 1_555
N22 Pd4 1_555 1_555
N23 Pd5 1_555 1_555
N24 Pd5 1_555 1_555
N25 Pd6 1_555 1_555
N26 Pd6 1_555 1_555
N27 Pd5 1_555 1_555
N28 Pd4 1_555 1_555
N29 Pd3 1_555 1_555
N30 Pd6 1_555 1_555
C37 N15 1_555 1_555
C38 N16 1_555 1_555
C39 N17 1_555 1_555
C40 N18 1_555 1_555
C41 N19 1_555 1_555
C42 N20 1_555 1_555
C43 N21 1_555 1_555
C44 N22 1_555 1_555
C45 N23 1_555 1_555
C46 N24 1_555 1_555
C47 N25 1_555 1_555
C48 N26 1_555 1_555
C49 C50 1_555 1_555
C50 C66 1_555 1_555
C51 N28 1_555 1_555
C52 C59 1_555 1_555
C53 N8 1_555 1_555
C54 C64 1_555 1_555
C55 C49 1_555 1_555
C56 C53 1_555 1_555
C57 N27 1_555 1_555
C58 C66 1_555 1_555
C59 C62 1_555 1_555
C60 C52 1_555 1_555
C61 C51 1_555 1_555
C62 C68 1_555 1_555
C63 C51 1_555 1_555
C64 N29 1_555 1_555
C65 C59 1_555 1_555
C66 C56 1_555 1_555
C67 C73 1_555 1_555
C68 C84 1_555 1_555
C69 C70 1_555 1_555
C70 N28 1_555 1_555
C71 C54 1_555 1_555
C72 C64 1_555 1_555
C73 C71 1_555 1_555
C74 C71 1_555 1_555
C75 C58 1_555 1_555
C76 C53 1_555 1_555
C77 C90 1_555 1_555
C78 N30 1_555 1_555
C79 N29 1_555 1_555
C80 N30 1_555 1_555
C81 C57 1_555 1_555
C82 C57 1_555 1_555
C83 N27 1_555 1_555
C84 H105 1_555 1_555
C85 C83 1_555 1_555
C86 C78 1_555 1_555
C87 C80 1_555 1_555
C88 C73 1_555 1_555
C89 C79 1_555 1_555
C90 N7 1_555 1_555
H1 C1 1_555 1_555
H2 C2 1_555 1_555
H3 C4 1_555 1_555
H4 C5 1_555 1_555
H5 C6 1_555 1_555
H6 C7 1_555 1_555
H7 C9 1_555 1_555
H8 C10 1_555 1_555
H9 C11 1_555 1_555
H10 C12 1_555 1_555
H11 C14 1_555 1_555
H12 C15 1_555 1_555
H13 C19 1_555 1_555
H14 C20 1_555 1_555
H15 C22 1_555 1_555
H16 C23 1_555 1_555
H17 C24 1_555 1_555
H18 C25 1_555 1_555
H19 C27 1_555 1_555
H20 C28 1_555 1_555
H21 C29 1_555 1_555
H22 C30 1_555 1_555
H23 C32 1_555 1_555
H24 C33 1_555 1_555
H25 N15 1_555 1_555
H26 N15 1_555 1_555
H27 N16 1_555 1_555
H28 N16 1_555 1_555
H29 N17 1_555 1_555
H30 N17 1_555 1_555
H31 N18 1_555 1_555
H32 N18 1_555 1_555
H33 N19 1_555 1_555
H34 N19 1_555 1_555
H35 N20 1_555 1_555
H36 N20 1_555 1_555
H37 N21 1_555 1_555
H38 N21 1_555 1_555
H39 N22 1_555 1_555
H40 N22 1_555 1_555
H41 N23 1_555 1_555
H42 N23 1_555 1_555
H43 N24 1_555 1_555
H44 N24 1_555 1_555
H45 N25 1_555 1_555
H46 N25 1_555 1_555
H47 N26 1_555 1_555
H48 N26 1_555 1_555
H49 C37 1_555 1_555
H50 C37 1_555 1_555
H51 C38 1_555 1_555
H52 C38 1_555 1_555
H53 C39 1_555 1_555
H54 C39 1_555 1_555
H55 C40 1_555 1_555
H56 C40 1_555 1_555
H57 C41 1_555 1_555
H58 C41 1_555 1_555
H59 C42 1_555 1_555
H60 C42 1_555 1_555
H61 C43 1_555 1_555
H62 C43 1_555 1_555
H63 C44 1_555 1_555
H64 C44 1_555 1_555
H65 C45 1_555 1_555
H66 C45 1_555 1_555
H67 C46 1_555 1_555
H68 C46 1_555 1_555
H69 C47 1_555 1_555
H70 C47 1_555 1_555
H71 C48 1_555 1_555
H72 C48 1_555 1_555
H73 C50 1_555 1_555
H74 C54 1_555 1_555
H75 C55 1_555 1_555
H76 C55 1_555 1_555
H77 C55 1_555 1_555
H78 C56 1_555 1_555
H79 C60 1_555 1_555
H80 C61 1_555 1_555
H81 C61 1_555 1_555
H82 C61 1_555 1_555
H83 C62 1_555 1_555
H84 C63 1_555 1_555
H85 C65 1_555 1_555
H86 C67 1_555 1_555
H87 C69 1_555 1_555
H88 C69 1_555 1_555
H89 C69 1_555 1_555
H90 C72 1_555 1_555
H91 C72 1_555 1_555
H92 C72 1_555 1_555
H93 C74 1_555 1_555
H94 C75 1_555 1_555
H95 C76 1_555 1_555
H96 C76 1_555 1_555
H97 C76 1_555 1_555
H98 C77 1_555 1_555
H99 C77 1_555 1_555
H100 C77 1_555 1_555
H101 C81 1_555 1_555
H102 C82 1_555 1_555
H103 C82 1_555 1_555
H104 C82 1_555 1_555
H106 C84 1_555 1_555
H107 C84 1_555 1_555
H108 C85 1_555 1_555
H109 C85 1_555 1_555
H110 C85 1_555 1_555
H111 C86 1_555 1_555
H112 C86 1_555 1_555
H113 C86 1_555 1_555
H114 C87 1_555 1_555
H115 C87 1_555 1_555
H116 C87 1_555 1_555
H117 C88 1_555 1_555
H118 C89 1_555 1_555
H119 C89 1_555 1_555
H120 C89 1_555 1_555
N31 C91 1_555 1_555
N32 C96 1_555 1_555
N33 C101 1_555 1_555
N34 C106 1_555 1_555
C91 C92 1_555 1_555
C92 C93 1_555 1_555
C93 C94 1_555 1_555
C94 N31 1_555 1_555
C95 C94 1_555 1_555
C96 C95 1_555 1_555
C97 C96 1_555 1_555
C98 C97 1_555 1_555
C99 N32 1_555 1_555
C100 C99 1_555 1_555
C101 C100 1_555 1_555
C102 C101 1_555 1_555
C103 C102 1_555 1_555
C104 N33 1_555 1_555
C105 C104 1_555 1_555
C106 C105 1_555 1_555
C107 C106 1_555 1_555
C108 C107 1_555 1_555
C109 N34 1_555 1_555
C110 C91 1_555 1_555
H121 N32 1_555 1_555
H122 N34 1_555 1_555
H123 C92 1_555 1_555
H124 C95 1_555 1_555
H125 C97 1_555 1_555
H126 C98 1_555 1_555
H127 C100 1_555 1_555
H128 C102 1_555 1_555
H129 C107 1_555 1_555
H130 C108 1_555 1_555
H131 C110 1_555 1_555
H132 C105 1_555 1_555
H133 C93 1_555 1_555
N35 O1 1_555 1_555
O2 N35 1_555 1_555
O3 N35 1_555 1_555
N36 C111 1_555 1_555
N37 C116 1_555 1_555
N38 C121 1_555 1_555
N39 C126 1_555 1_555
C111 C112 1_555 1_555
C112 C113 1_555 1_555
C113 C114 1_555 1_555
C114 N36 1_555 1_555
C115 C114 1_555 1_555
C116 C115 1_555 1_555
C117 C116 1_555 1_555
C118 C117 1_555 1_555
C119 N37 1_555 1_555
C120 C119 1_555 1_555
C121 C120 1_555 1_555
C122 C121 1_555 1_555
C123 C122 1_555 1_555
C124 N38 1_555 1_555
C125 C124 1_555 1_555
C126 C125 1_555 1_555
C127 C126 1_555 1_555
C128 C127 1_555 1_555
C129 N39 1_555 1_555
C130 C111 1_555 1_555
H134 N37 1_555 1_555
H135 N39 1_555 1_555
H136 C112 1_555 1_555
H137 C113 1_555 1_555
H138 C115 1_555 1_555
H139 C117 1_555 1_555
H140 C118 1_555 1_555
H141 C120 1_555 1_555
H142 C122 1_555 1_555
H143 C125 1_555 1_555
H144 C127 1_555 1_555
H145 C128 1_555 1_555
N40 O4 1_555 1_555
O5 N40 1_555 1_555
O6 N40 1_555 1_555
N41 O7 1_555 1_555
O8 N41 1_555 1_555
O9 N41 1_555 1_555
N42 O10 1_555 1_555
O11 N42 1_555 1_555
O12 N42 1_555 1_555
N43 O13 1_555 1_555
O14 N43 1_555 1_555
O15 N43 1_555 1_555
N44 O16 1_555 1_555
O17 N44 1_555 1_555
O18 N44 1_555 1_555
N45 O19 1_555 1_555
O20 N45 1_555 1_555
O21 N45 1_555 1_555
N46 O22 1_555 1_555
O23 N46 1_555 1_555
O24 N46 1_555 1_555
N47 O25 1_555 1_555
O26 N47 1_555 1_555
O27 N47 1_555 1_555
N48 O29 1_555 1_555
O30 N48 1_555 1_555
O31 N48 1_555 1_555
N6 C18 1_555 1_555
C8 C17 1_555 1_555
C13 C18 1_555 1_555
N14 C36 1_555 1_555
C22 C23 1_555 1_555
C26 C35 1_555 1_555
C27 C28 1_555 1_555
C31 C36 1_555 1_555
C37 C38 1_555 1_555
C39 C40 1_555 1_555
C41 C42 1_555 1_555
C43 C44 1_555 1_555
C45 C46 1_555 1_555
C47 C48 1_555 1_555
C52 C63 1_555 1_555
C58 C81 1_555 1_555
C60 C70 1_555 1_555
C65 C90 1_555 1_555
C67 C78 1_555 1_555
C74 C79 1_555 1_555
C75 C83 1_555 1_555
C80 C88 1_555 1_555
C98 C99 1_555 1_555
C103 C104 1_555 1_555
C108 C109 1_555 1_555
C109 C110 1_555 1_555
C118 C119 1_555 1_555
C123 C124 1_555 1_555
C128 C129 1_555 1_555
C129 C130 1_555 1_555

#END
