
#######################################################################
#
#                 Cambridge Crystallographic Data Centre
#                                CCDC 
#
#######################################################################
#
# If this CIF has been generated from an entry in the Cambridge 
# Structural Database, then it will include bibliographic, chemical, 
# crystal, experimental, refinement or atomic coordinate data resulting 
# from the CCDC's data processing and validation procedures.
#
#######################################################################

data_VIPFUX
_chemical_formula_moiety         
'C63 H63 Br6 N9 O9 Pd3,C60 H60 Br6 N12 O6 Pd3,6(C3 H6 O1),6(H2 O1)'
_chemical_name_systematic        
"(M)-(\m~3~-N,N',N''-tris(2-(pyridin-2-yl)propyl)benzene-1,3,5-tricarboxamide)-(\m~3~-N,N',N''-tris(2-(pyridin-2-yl)ethyl)benzene-1,3,5-tricarboxamide)-tris(dibromo-palladium) (P)-bis(\m~3~-N,N',N''-tris(2-(pyridin-2-yl)ethyl)benzene-1,3,5-tricarboxamide)-tris(dibromo-palladium) acetone solvate hexahydrate"
_symmetry_cell_setting           rhombohedral
_symmetry_space_group_name_H-M   'R 3'
_symmetry_Int_Tables_number      146
_space_group_name_Hall           'R 3'
loop_
_symmetry_equiv_pos_site_id
_symmetry_equiv_pos_as_xyz
1 x,y,z
2 -y,x-y,z
3 -x+y,-x,z
4 2/3+x,1/3+y,1/3+z
5 2/3-y,1/3+x-y,1/3+z
6 2/3-x+y,1/3-x,1/3+z
7 1/3+x,2/3+y,2/3+z
8 1/3-y,2/3+x-y,2/3+z
9 1/3-x+y,2/3-x,2/3+z
_cell_length_a                   26.4040(2)
_cell_length_b                   26.4040(2)
_cell_length_c                   21.6074(3)
_cell_angle_alpha                90
_cell_angle_beta                 90
_cell_angle_gamma                120
_cell_volume                     13045.9
_exptl_crystal_colour            yellow
_exptl_crystal_description       BLOCK
_cell_formula_units_Z            3
loop_
_atom_site_label
_atom_site_type_symbol
_atom_site_fract_x
_atom_site_fract_y
_atom_site_fract_z
Pd1 Pd -0.81694(4) -0.14365(4) -0.83099(9)
Br1 Br -0.81194(6) -0.14932(6) -0.94280(10)
Br2 Br -0.82195(7) -0.14235(6) -0.71953(10)
O1 O -0.9154(3) -0.0703(3) -0.9617(3)
O2 O -0.8446(3) 0.0796(3) -0.8024(3)
N1 N -0.8883(3) -0.2247(3) -0.8292(4)
N2 N -0.9867(3) -0.1312(3) -0.8964(4)
H1 H -1.0170 -0.1371 -0.8741
N3 N -0.7422(4) -0.0653(4) -0.8312(4)
N4 N -0.8621(4) -0.0032(4) -0.7535(4)
H2 H -0.8873 -0.0339 -0.7321
C1 C -0.8774(5) -0.2689(5) -0.8273(6)
H3 H -0.8380 -0.2603 -0.8302
C2 C -0.9204(6) -0.3255(5) -0.8214(6)
H4 H -0.9110 -0.3557 -0.8169
C3 C -0.9788(5) -0.3387(4) -0.8219(5)
H5 H -1.0098 -0.3781 -0.8197
C4 C -0.9903(5) -0.2934(5) -0.8256(5)
H6 H -1.0295 -0.3010 -0.8275
C5 C -0.9431(5) -0.2354(5) -0.8265(5)
C6 C -0.9567(5) -0.1858(4) -0.8310(5)
H7 H -0.9913 -0.1954 -0.8050
H8 H -0.9232 -0.1495 -0.8144
C7 C -0.9685(5) -0.1752(4) -0.8954(5)
H9 H -0.9328 -0.1616 -0.9207
H10 H -0.9997 -0.2122 -0.9136
C8 C -0.9588(4) -0.0824(4) -0.9300(5)
C9 C -0.9812(4) -0.0400(4) -0.9264(4)
C10 C -1.0403(4) -0.0587(4) -0.9264(4)
H11 H -1.0681 -0.0994 -0.9264
C11 C -0.6908(5) -0.0678(6) -0.8328(6)
H12 H -0.6924 -0.1045 -0.8310
C12 C -0.6374(5) -0.0166(6) -0.8369(6)
H13 H -0.6025 -0.0186 -0.8380
C13 C -0.6338(5) 0.0353(5) -0.8394(5)
H14 H -0.5970 0.0700 -0.8429
C14 C -0.6850(5) 0.0377(5) -0.8367(5)
H15 H -0.6831 0.0746 -0.8373
C15 C -0.7392(5) -0.0132(5) -0.8330(5)
C16 C -0.7930(4) -0.0101(5) -0.8294(5)
H16 H -0.8269 -0.0485 -0.8405
H17 H -0.7910 0.0193 -0.8592
C17 C -0.8008(5) 0.0067(5) -0.7643(6)
H18 H -0.7719 0.0485 -0.7571
H19 H -0.7929 -0.0167 -0.7340
C18 C -0.8783(4) 0.0330(5) -0.7756(5)
C19 C -0.9406(4) 0.0161(4) -0.7669(4)
C20 C -0.9848(5) -0.0437(4) -0.7670(4)
H20 H -0.9742 -0.0732 -0.7672
O1A O -0.9297(3) 0.1549(4) -0.9617(3)
N1A N -0.7753(3) 0.3364(4) -0.8292(4)
N2A N -0.8688(3) 0.1445(4) -0.8964(4)
H1A H -0.8629 0.1201 -0.8741
C1A C -0.7311(5) 0.3915(7) -0.8273(6)
H3A H -0.7397 0.4223 -0.8302
C2A C -0.6745(5) 0.4051(8) -0.8214(6)
H4A H -0.6443 0.4447 -0.8169
C3A C -0.6613(4) 0.3599(6) -0.8219(5)
H5A H -0.6219 0.3683 -0.8197
C4A C -0.7066(5) 0.3031(7) -0.8256(5)
H6A H -0.6990 0.2715 -0.8275
C5A C -0.7646(5) 0.2923(7) -0.8265(5)
C6A C -0.8142(4) 0.2291(6) -0.8310(5)
H7A H -0.8046 0.2041 -0.8050
H8A H -0.8505 0.2263 -0.8144
C7A C -0.8248(4) 0.2067(6) -0.8954(5)
H9A H -0.8384 0.2288 -0.9207
H10A H -0.7878 0.2125 -0.9136
C8A C -0.9176(4) 0.1236(6) -0.9300(5)
C9A C -0.9600(4) 0.0588(6) -0.9264(4)
C10A C -0.9413(4) 0.0184(6) -0.9264(4)
H11A H -0.9006 0.0313 -0.9264
O1B O -1.1549(4) -0.0846(3) -0.9617(3)
N1B N -1.3364(4) -0.1117(3) -0.8292(4)
N2B N -1.1445(4) -0.0133(3) -0.8964(4)
H1B H -1.1201 0.0170 -0.8741
C1B C -1.3915(7) -0.1226(5) -0.8273(6)
H3B H -1.4223 -0.1620 -0.8302
C2B C -1.4051(8) -0.0796(6) -0.8214(6)
H4B H -1.4447 -0.0890 -0.8169
C3B C -1.3599(6) -0.0212(5) -0.8219(5)
H5B H -1.3683 0.0098 -0.8197
C4B C -1.3031(7) -0.0097(5) -0.8256(5)
H6B H -1.2715 0.0295 -0.8275
C5B C -1.2923(7) -0.0569(5) -0.8265(5)
C6B C -1.2291(6) -0.0433(5) -0.8310(5)
H7B H -1.2041 -0.0087 -0.8050
H8B H -1.2263 -0.0768 -0.8144
C7B C -1.2067(6) -0.0315(5) -0.8954(5)
H9B H -1.2288 -0.0672 -0.9207
H10B H -1.2125 -0.0003 -0.9136
C8B C -1.1236(6) -0.0412(4) -0.9300(5)
C9B C -1.0588(6) -0.0188(4) -0.9264(4)
C10B C -1.0184(6) 0.0403(4) -0.9264(4)
H11B H -1.0313 0.0681 -0.9264
O2A O -1.0796(3) 0.0758(4) -0.8024(3)
N3A N -0.9347(4) 0.3231(6) -0.8312(4)
N4A N -0.9968(4) 0.1411(6) -0.7535(4)
H2A H -0.9661 0.1466 -0.7321
C11A C -0.9322(6) 0.3770(8) -0.8328(6)
H12A H -0.8955 0.4121 -0.8310
C12A C -0.9834(6) 0.3792(8) -0.8369(6)
H13A H -0.9814 0.4161 -0.8380
C13A C -1.0353(5) 0.3309(7) -0.8394(5)
H14A H -1.0700 0.3330 -0.8429
C14A C -1.0377(5) 0.2773(7) -0.8367(5)
H15A H -1.0746 0.2423 -0.8373
C15A C -0.9868(5) 0.2740(7) -0.8330(5)
C16A C -0.9899(5) 0.2171(6) -0.8294(5)
H16A H -0.9515 0.2216 -0.8405
H17A H -1.0193 0.1897 -0.8592
C17A C -1.0067(5) 0.1925(7) -0.7643(6)
H18A H -1.0485 0.1796 -0.7571
H19A H -0.9833 0.2238 -0.7340
C18A C -1.0330(5) 0.0887(6) -0.7756(5)
C19A C -1.0161(4) 0.0433(6) -0.7669(4)
C20A C -0.9563(4) 0.0589(6) -0.7670(4)
H20A H -0.9268 0.0990 -0.7672
O2B O -1.0758(4) -0.1554(3) -0.8024(3)
N3B N -1.3231(6) -0.2578(4) -0.8312(4)
N4B N -1.1411(6) -0.1379(4) -0.7535(4)
H2B H -1.1466 -0.1127 -0.7321
C11B C -1.3770(8) -0.3092(5) -0.8328(6)
H12B H -1.4121 -0.3076 -0.8310
C12B C -1.3792(8) -0.3626(5) -0.8369(6)
H13B H -1.4161 -0.3975 -0.8380
C13B C -1.3309(7) -0.3662(5) -0.8394(5)
H14B H -1.3330 -0.4030 -0.8429
C14B C -1.2773(7) -0.3150(5) -0.8367(5)
H15B H -1.2423 -0.3169 -0.8373
C15B C -1.2740(7) -0.2608(5) -0.8330(5)
C16B C -1.2171(6) -0.2070(4) -0.8294(5)
H16B H -1.2216 -0.1731 -0.8405
H17B H -1.1897 -0.2090 -0.8592
C17B C -1.1925(7) -0.1992(5) -0.7643(6)
H18B H -1.1796 -0.2281 -0.7571
H19B H -1.2238 -0.2071 -0.7340
C18B C -1.0887(6) -0.1217(4) -0.7756(5)
C19B C -1.0433(6) -0.0594(4) -0.7669(4)
C20B C -1.0589(6) -0.0152(5) -0.7670(4)
H20B H -1.0990 -0.0258 -0.7672
Pd1A Pd -0.85635(4) 0.32671(6) -0.83099(9)
Br1A Br -0.85068(6) 0.33738(8) -0.94280(10)
Br2A Br -0.85765(6) 0.32040(9) -0.71953(10)
Pd1B Pd -1.32671(6) -0.18306(4) -0.83099(9)
Br1B Br -1.33738(8) -0.18806(6) -0.94280(10)
Br2B Br -1.32040(9) -0.17805(7) -0.71953(10)
Pd2 Pd -1.16481(3) 0.14627(3) -0.00497(8)
Br3 Br -1.18060(5) 0.16500(5) -0.11103(9)
Br4 Br -1.15558(5) 0.12801(5) 0.10371(9)
O3 O -1.0860(3) 0.0707(3) -0.1159(3)
O4 O -1.1481(4) -0.1270(4) -0.2572(5)
O5 O -1.1534(3) -0.0532(3) -0.2133(4)
N5 N -1.0996(4) 0.2308(4) 0.0031(4)
N6 N -1.0036(4) 0.1378(3) -0.0655(4)
H21 H -0.9699 0.1452 -0.0496
N7 N -1.2247(4) 0.0622(4) -0.0159(4)
C21 C -1.1151(5) 0.2728(4) 0.0051(6)
H22 H -1.1552 0.2618 0.0081
C22 C -1.0737(5) 0.3301(5) 0.0028(6)
H23 H -1.0850 0.3591 0.0013
C23 C -1.0158(5) 0.3465(4) 0.0026(5)
H24 H -0.9866 0.3867 0.0038
C24 C -1.0005(5) 0.3042(5) 0.0008(5)
H25 H -0.9604 0.3149 -0.0009
C25 C -1.0429(4) 0.2461(4) 0.0014(5)
C26 C -1.0263(4) 0.1993(4) 0.0003(5)
H26 H -0.9892 0.2131 0.0232
H27 H -1.0569 0.1639 0.0214
C27 C -1.0190(4) 0.1840(4) -0.0648(5)
H28 H -1.0559 0.1707 -0.0879
H29 H -0.9880 0.2193 -0.0857
C28 C -1.0392(4) 0.0845(4) -0.0898(4)
C29 C -1.0173(4) 0.0419(4) -0.0855(4)
C30 C -0.9586(4) 0.0590(4) -0.0857(5)
H30 H -0.9301 0.0994 -0.0861
C31 C -1.2781(5) 0.0374(6) 0.0112(6)
H31 H -1.2880 0.0610 0.0357
C32 C -1.3182(5) -0.0209(5) 0.0040(5)
H32 H -1.3552 -0.0378 0.0239
C33 C -1.3034(5) -0.0549(5) -0.0331(5)
H33 H -1.3308 -0.0952 -0.0393
C34 C -1.2498(5) -0.0308(4) -0.0604(5)
C35 C -1.2118(4) 0.0281(5) -0.0516(5)
H34 H -1.1748 0.0455 -0.0714
C36 C -1.2315(5) -0.0650(5) -0.1004(6)
H35 H -1.2557 -0.1071 -0.0902
H36 H -1.1902 -0.0529 -0.0915
C37 C -1.2380(6) -0.0561(6) -0.1691(5)
H37 H -1.2157 -0.0138 -0.1788
H38 H -1.2797 -0.0705 -0.1786
C38 C -1.2155(6) -0.0887(7) -0.2097(8)
H39 H -1.2265 -0.1271 -0.1912
H40 H -1.2328 -0.0952 -0.2516
C39 C -1.1242(5) -0.0789(5) -0.2381(6)
C40 C -1.0607(4) -0.0371(5) -0.2412(5)
C41 C -1.0244(5) -0.0612(5) -0.2409(5)
H41 H -1.0406 -0.1024 -0.2405
O3A O -1.0707(3) -0.1567(4) -0.1159(3)
N5A N -1.2308(4) -0.3304(6) 0.0031(4)
N6A N -1.1378(3) -0.1414(5) -0.0655(4)
H21A H -1.1452 -0.1151 -0.0496
C21A C -1.2728(4) -0.3879(6) 0.0051(6)
H22A H -1.2618 -0.4170 0.0081
C22A C -1.3301(5) -0.4038(7) 0.0028(6)
H23A H -1.3591 -0.4441 0.0013
C23A C -1.3465(4) -0.3623(6) 0.0026(5)
H24A H -1.3867 -0.3733 0.0038
C24A C -1.3042(5) -0.3047(7) 0.0008(5)
H25A H -1.3149 -0.2753 -0.0009
C25A C -1.2461(4) -0.2890(6) 0.0014(5)
C26A C -1.1993(4) -0.2256(6) 0.0003(5)
H26A H -1.2131 -0.2023 0.0232
H27A H -1.1639 -0.2208 0.0214
C27A C -1.1840(4) -0.2030(6) -0.0648(5)
H28A H -1.1707 -0.2266 -0.0879
H29A H -1.2193 -0.2073 -0.0857
C28A C -1.0845(4) -0.1237(6) -0.0898(4)
C29A C -1.0419(4) -0.0592(6) -0.0855(4)
C30A C -1.0590(4) -0.0176(6) -0.0857(5)
H30A H -1.0994 -0.0295 -0.0861
O3B O -0.8433(4) 0.0860(3) -0.1159(3)
N5B N -0.6696(6) 0.0996(4) 0.0031(4)
N6B N -0.8586(5) 0.0036(4) -0.0655(4)
H21B H -0.8849 -0.0301 -0.0496
C21B C -0.6121(6) 0.1151(5) 0.0051(6)
H22B H -0.5830 0.1552 0.0081
C22B C -0.5962(7) 0.0737(5) 0.0028(6)
H23B H -0.5559 0.0850 0.0013
C23B C -0.6377(6) 0.0158(5) 0.0026(5)
H24B H -0.6267 -0.0134 0.0038
C24B C -0.6953(7) 0.0005(5) 0.0008(5)
H25B H -0.7247 -0.0396 -0.0009
C25B C -0.7110(6) 0.0429(4) 0.0014(5)
C26B C -0.7744(6) 0.0263(4) 0.0003(5)
H26B H -0.7977 -0.0108 0.0232
H27B H -0.7792 0.0569 0.0214
C27B C -0.7970(6) 0.0190(4) -0.0648(5)
H28B H -0.7734 0.0559 -0.0879
H29B H -0.7927 -0.0120 -0.0857
C28B C -0.8763(6) 0.0392(4) -0.0898(4)
C29B C -0.9408(6) 0.0173(4) -0.0855(4)
C30B C -0.9824(6) -0.0414(4) -0.0857(5)
H30B H -0.9705 -0.0699 -0.0861
O4A O -0.8730(4) -0.0211(6) -0.2572(5)
O5A O -0.9468(3) -0.1002(4) -0.2133(4)
N7A N -1.0622(4) -0.2869(6) -0.0159(4)
C31A C -1.0374(6) -0.3155(8) 0.0112(6)
H31A H -1.0610 -0.3490 0.0357
C32A C -0.9791(5) -0.2973(7) 0.0040(5)
H32A H -0.9622 -0.3174 0.0239
C33A C -0.9451(5) -0.2485(7) -0.0331(5)
H33A H -0.9048 -0.2356 -0.0393
C34A C -0.9692(4) -0.2190(6) -0.0604(5)
C35A C -1.0281(5) -0.2399(6) -0.0516(5)
H34A H -1.0455 -0.2203 -0.0714
C36A C -0.9350(5) -0.1665(7) -0.1004(6)
H35A H -0.8929 -0.1486 -0.0902
H36A H -0.9471 -0.1373 -0.0915
C37A C -0.9439(6) -0.1819(8) -0.1691(5)
H37A H -0.9862 -0.2019 -0.1788
H38A H -0.9295 -0.2092 -0.1786
C38A C -0.9113(7) -0.1268(9) -0.2097(8)
H39A H -0.8729 -0.0994 -0.1912
H40A H -0.9048 -0.1376 -0.2516
C39A C -0.9211(5) -0.0453(7) -0.2381(6)
C40A C -0.9629(5) -0.0236(6) -0.2412(5)
C41A C -0.9388(5) 0.0368(7) -0.2409(5)
H41A H -0.8976 0.0618 -0.2405
O4B O -0.9789(6) 0.1481(4) -0.2572(5)
O5B O -0.8998(4) 0.1534(3) -0.2133(4)
N7B N -0.7131(6) 0.2247(4) -0.0159(4)
C31B C -0.6845(8) 0.2781(5) 0.0112(6)
H31B H -0.6510 0.2880 0.0357
C32B C -0.7027(7) 0.3182(5) 0.0040(5)
H32B H -0.6826 0.3552 0.0239
C33B C -0.7515(7) 0.3034(5) -0.0331(5)
H33B H -0.7644 0.3308 -0.0393
C34B C -0.7810(6) 0.2498(5) -0.0604(5)
C35B C -0.7601(6) 0.2118(4) -0.0516(5)
H34B H -0.7797 0.1748 -0.0714
C36B C -0.8335(7) 0.2315(5) -0.1004(6)
H35B H -0.8514 0.2557 -0.0902
H36B H -0.8627 0.1902 -0.0915
C37B C -0.8181(8) 0.2380(6) -0.1691(5)
H37B H -0.7981 0.2157 -0.1788
H38B H -0.7908 0.2797 -0.1786
C38B C -0.8732(9) 0.2155(6) -0.2097(8)
H39B H -0.9006 0.2265 -0.1912
H40B H -0.8624 0.2328 -0.2516
C39B C -0.9547(7) 0.1242(5) -0.2381(6)
C40B C -0.9764(6) 0.0607(4) -0.2412(5)
C41B C -1.0368(7) 0.0244(5) -0.2409(5)
H41B H -1.0618 0.0406 -0.2405
Pd2A Pd -1.14627(3) -0.31108(4) -0.00497(8)
Br3A Br -1.16500(5) -0.34560(7) -0.11103(9)
Br4A Br -1.12801(5) -0.28359(7) 0.10371(9)
Pd2B Pd -0.68892(4) 0.16481(3) -0.00497(8)
Br3B Br -0.65440(7) 0.18060(5) -0.11103(9)
Br4B Br -0.71641(7) 0.15558(5) 0.10371(9)
O6 O -1.0512(9) -0.4337(7) -0.9321(8)
C42 C -1.0901(7) -0.5343(7) -0.9156(7)
H42 H -1.0599 -0.5204 -0.8835
H43 H -1.0843 -0.5594 -0.9447
H44 H -1.1288 -0.5566 -0.8964
C43 C -1.0861(7) -0.4823(7) -0.9502(7)
C44 C -1.1304(9) -0.5041(12) -1.0026(9)
H45 H -1.1270 -0.4706 -1.0258
H46 H -1.1699 -0.5268 -0.9855
H47 H -1.1228 -0.5289 -1.0303
O7 O -0.8812(19) -0.019(2) -0.4507(18)
H48 H -0.9170 -0.0333 -0.4583
H49 H -0.8680 0.0122 -0.4306
O8 O -1.0680(15) -0.1422(14) -0.6009(13)
H50 H -1.0451 -0.1190 -0.5741
H51 H -1.1021 -0.1492 -0.5937
O9 O -0.9336(7) -0.0970(7) -0.6725(8)
C45 C -0.9297(10) -0.1299(12) -0.6389(11)
C46 C -0.989(2) -0.1860(18) -0.6574(18)
H52 H -1.0038 -0.1785 -0.6958
H53 H -1.0176 -0.1956 -0.6243
H54 H -0.9821 -0.2189 -0.6636
C47 C -0.8825(17) -0.1145(16) -0.5888(15)
H55 H -0.8526 -0.0731 -0.5923
H56 H -0.8643 -0.1387 -0.5945
H57 H -0.9006 -0.1218 -0.5477
loop_
_geom_bond_atom_site_label_1
_geom_bond_atom_site_label_2
_geom_bond_site_symmetry_1
_geom_bond_site_symmetry_2
Pd1 Br1 1_555 1_555
Br2 Pd1 1_555 1_555
O1 C8 1_555 1_555
O2 C18 1_555 1_555
N1 Pd1 1_555 1_555
N2 H1 1_555 1_555
N3 Pd1 1_555 1_555
N4 H2 1_555 1_555
C1 N1 1_555 1_555
H3 C1 1_555 1_555
C2 C1 1_555 1_555
H4 C2 1_555 1_555
C3 C2 1_555 1_555
H5 C3 1_555 1_555
C4 C3 1_555 1_555
H6 C4 1_555 1_555
C5 N1 1_555 1_555
C6 C5 1_555 1_555
H7 C6 1_555 1_555
H8 C6 1_555 1_555
C7 N2 1_555 1_555
H9 C7 1_555 1_555
H10 C7 1_555 1_555
C8 N2 1_555 1_555
C9 C8 1_555 1_555
C10 C9 1_555 1_555
H11 C10 1_555 1_555
C11 N3 1_555 1_555
H12 C11 1_555 1_555
C12 C11 1_555 1_555
H13 C12 1_555 1_555
C13 C12 1_555 1_555
H14 C13 1_555 1_555
C14 C13 1_555 1_555
H15 C14 1_555 1_555
C15 N3 1_555 1_555
C16 C15 1_555 1_555
H16 C16 1_555 1_555
H17 C16 1_555 1_555
C17 N4 1_555 1_555
H18 C17 1_555 1_555
H19 C17 1_555 1_555
C18 N4 1_555 1_555
C19 C18 1_555 1_555
C20 C19 1_555 1_555
H20 C20 1_555 1_555
Pd2 Br3 1_555 1_555
Br4 Pd2 1_555 1_555
O3 C28 1_555 1_555
O4 C39 1_555 1_555
O5 C38 1_555 1_555
N5 Pd2 1_555 1_555
N6 H21 1_555 1_555
N7 Pd2 1_555 1_555
C21 N5 1_555 1_555
H22 C21 1_555 1_555
C22 C21 1_555 1_555
H23 C22 1_555 1_555
C23 C22 1_555 1_555
H24 C23 1_555 1_555
C24 C23 1_555 1_555
H25 C24 1_555 1_555
C25 N5 1_555 1_555
C26 C25 1_555 1_555
H26 C26 1_555 1_555
H27 C26 1_555 1_555
C27 N6 1_555 1_555
H28 C27 1_555 1_555
H29 C27 1_555 1_555
C28 N6 1_555 1_555
C29 C28 1_555 1_555
C30 C29 1_555 1_555
H30 C30 1_555 1_555
C31 N7 1_555 1_555
H31 C31 1_555 1_555
C32 C31 1_555 1_555
H32 C32 1_555 1_555
C33 C32 1_555 1_555
H33 C33 1_555 1_555
C34 C33 1_555 1_555
C35 N7 1_555 1_555
H34 C35 1_555 1_555
C36 C34 1_555 1_555
H35 C36 1_555 1_555
H36 C36 1_555 1_555
C37 C36 1_555 1_555
H37 C37 1_555 1_555
H38 C37 1_555 1_555
C38 C37 1_555 1_555
H39 C38 1_555 1_555
H40 C38 1_555 1_555
C39 O5 1_555 1_555
C40 C39 1_555 1_555
C41 C40 1_555 1_555
H41 C41 1_555 1_555
O6 C43 1_555 1_555
C42 H42 1_555 1_555
H43 C42 1_555 1_555
H44 C42 1_555 1_555
C43 C42 1_555 1_555
C44 C43 1_555 1_555
H45 C44 1_555 1_555
H46 C44 1_555 1_555
H47 C44 1_555 1_555
O7 H48 1_555 1_555
H49 O7 1_555 1_555
O8 H50 1_555 1_555
H51 O8 1_555 1_555
O9 C45 1_555 1_555
C45 C46 1_555 1_555
C46 H52 1_555 1_555
H53 C46 1_555 1_555
H54 C46 1_555 1_555
C47 C45 1_555 1_555
H55 C47 1_555 1_555
H56 C47 1_555 1_555
H57 C47 1_555 1_555
O1A C8A 1_555 1_555
N1A C1A 1_555 1_555
N2A H1A 1_555 1_555
C1A H3A 1_555 1_555
C2A C1A 1_555 1_555
H4A C2A 1_555 1_555
C3A C2A 1_555 1_555
H5A C3A 1_555 1_555
C4A C3A 1_555 1_555
H6A C4A 1_555 1_555
C5A N1A 1_555 1_555
C6A C5A 1_555 1_555
H7A C6A 1_555 1_555
H8A C6A 1_555 1_555
C7A N2A 1_555 1_555
H9A C7A 1_555 1_555
H10A C7A 1_555 1_555
C8A N2A 1_555 1_555
C9A C8A 1_555 1_555
C10A C9 1_555 1_555
H11A C10A 1_555 1_555
O1B C8B 1_555 1_555
N1B C1B 1_555 1_555
N2B H1B 1_555 1_555
C1B H3B 1_555 1_555
C2B C1B 1_555 1_555
H4B C2B 1_555 1_555
C3B C2B 1_555 1_555
H5B C3B 1_555 1_555
C4B C3B 1_555 1_555
H6B C4B 1_555 1_555
C5B N1B 1_555 1_555
C6B C5B 1_555 1_555
H7B C6B 1_555 1_555
H8B C6B 1_555 1_555
C7B N2B 1_555 1_555
H9B C7B 1_555 1_555
H10B C7B 1_555 1_555
C8B N2B 1_555 1_555
C9B C10 1_555 1_555
C10B C9A 1_555 1_555
H11B C10B 1_555 1_555
O2A C18A 1_555 1_555
N3A C11A 1_555 1_555
N4A H2A 1_555 1_555
C11A H12A 1_555 1_555
C12A C11A 1_555 1_555
H13A C12A 1_555 1_555
C13A C12A 1_555 1_555
H14A C13A 1_555 1_555
C14A C13A 1_555 1_555
H15A C14A 1_555 1_555
C15A N3A 1_555 1_555
C16A C15A 1_555 1_555
H16A C16A 1_555 1_555
H17A C16A 1_555 1_555
C17A N4A 1_555 1_555
H18A C17A 1_555 1_555
H19A C17A 1_555 1_555
C18A N4A 1_555 1_555
C19A C18A 1_555 1_555
C20A C19 1_555 1_555
H20A C20A 1_555 1_555
O2B C18B 1_555 1_555
N3B C11B 1_555 1_555
N4B H2B 1_555 1_555
C11B H12B 1_555 1_555
C12B C11B 1_555 1_555
H13B C12B 1_555 1_555
C13B C12B 1_555 1_555
H14B C13B 1_555 1_555
C14B C13B 1_555 1_555
H15B C14B 1_555 1_555
C15B N3B 1_555 1_555
C16B C15B 1_555 1_555
H16B C16B 1_555 1_555
H17B C16B 1_555 1_555
C17B N4B 1_555 1_555
H18B C17B 1_555 1_555
H19B C17B 1_555 1_555
C18B N4B 1_555 1_555
C19B C20 1_555 1_555
C20B C19A 1_555 1_555
H20B C20B 1_555 1_555
Pd1A N1A 1_555 1_555
Br1A Pd1A 1_555 1_555
Br2A Pd1A 1_555 1_555
Pd1B N1B 1_555 1_555
Br1B Pd1B 1_555 1_555
Br2B Pd1B 1_555 1_555
O3A C28A 1_555 1_555
N5A C21A 1_555 1_555
N6A H21A 1_555 1_555
C21A H22A 1_555 1_555
C22A C21A 1_555 1_555
H23A C22A 1_555 1_555
C23A C22A 1_555 1_555
H24A C23A 1_555 1_555
C24A C23A 1_555 1_555
H25A C24A 1_555 1_555
C25A N5A 1_555 1_555
C26A C25A 1_555 1_555
H26A C26A 1_555 1_555
H27A C26A 1_555 1_555
C27A N6A 1_555 1_555
H28A C27A 1_555 1_555
H29A C27A 1_555 1_555
C28A N6A 1_555 1_555
C29A C28A 1_555 1_555
C30A C29 1_555 1_555
H30A C30A 1_555 1_555
O3B C28B 1_555 1_555
N5B C21B 1_555 1_555
N6B H21B 1_555 1_555
C21B H22B 1_555 1_555
C22B C21B 1_555 1_555
H23B C22B 1_555 1_555
C23B C22B 1_555 1_555
H24B C23B 1_555 1_555
C24B C23B 1_555 1_555
H25B C24B 1_555 1_555
C25B N5B 1_555 1_555
C26B C25B 1_555 1_555
H26B C26B 1_555 1_555
H27B C26B 1_555 1_555
C27B N6B 1_555 1_555
H28B C27B 1_555 1_555
H29B C27B 1_555 1_555
C28B N6B 1_555 1_555
C29B C30 1_555 1_555
C30B C29A 1_555 1_555
H30B C30B 1_555 1_555
O4A C39A 1_555 1_555
O5A C38A 1_555 1_555
N7A C31A 1_555 1_555
C31A H31A 1_555 1_555
C32A C31A 1_555 1_555
H32A C32A 1_555 1_555
C33A C32A 1_555 1_555
H33A C33A 1_555 1_555
C34A C33A 1_555 1_555
C35A N7A 1_555 1_555
H34A C35A 1_555 1_555
C36A C34A 1_555 1_555
H35A C36A 1_555 1_555
H36A C36A 1_555 1_555
C37A C36A 1_555 1_555
H37A C37A 1_555 1_555
H38A C37A 1_555 1_555
C38A C37A 1_555 1_555
H39A C38A 1_555 1_555
H40A C38A 1_555 1_555
C39A O5A 1_555 1_555
C40A C41 1_555 1_555
C41A C40A 1_555 1_555
H41A C41A 1_555 1_555
O4B C39B 1_555 1_555
O5B C38B 1_555 1_555
N7B C31B 1_555 1_555
C31B H31B 1_555 1_555
C32B C31B 1_555 1_555
H32B C32B 1_555 1_555
C33B C32B 1_555 1_555
H33B C33B 1_555 1_555
C34B C33B 1_555 1_555
C35B N7B 1_555 1_555
H34B C35B 1_555 1_555
C36B C34B 1_555 1_555
H35B C36B 1_555 1_555
H36B C36B 1_555 1_555
C37B C36B 1_555 1_555
H37B C37B 1_555 1_555
H38B C37B 1_555 1_555
C38B C37B 1_555 1_555
H39B C38B 1_555 1_555
H40B C38B 1_555 1_555
C39B O5B 1_555 1_555
C40B C41A 1_555 1_555
C41B C40 1_555 1_555
H41B C41B 1_555 1_555
Pd2A N5A 1_555 1_555
Br3A Pd2A 1_555 1_555
Br4A Pd2A 1_555 1_555
Pd2B N5B 1_555 1_555
Br3B Pd2B 1_555 1_555
Br4B Pd2B 1_555 1_555
C4 C5 1_555 1_555
C6 C7 1_555 1_555
C14 C15 1_555 1_555
C16 C17 1_555 1_555
C24 C25 1_555 1_555
C26 C27 1_555 1_555
C34 C35 1_555 1_555
C4A C5A 1_555 1_555
C6A C7A 1_555 1_555
C9A C10A 1_555 1_555
C4B C5B 1_555 1_555
C6B C7B 1_555 1_555
C8B C9B 1_555 1_555
C9B C10B 1_555 1_555
N3A Pd1A 1_555 1_555
C14A C15A 1_555 1_555
C16A C17A 1_555 1_555
C19A C20A 1_555 1_555
N3B Pd1B 1_555 1_555
C14B C15B 1_555 1_555
C16B C17B 1_555 1_555
C18B C19B 1_555 1_555
C19B C20B 1_555 1_555
C24A C25A 1_555 1_555
C26A C27A 1_555 1_555
C29A C30A 1_555 1_555
C24B C25B 1_555 1_555
C26B C27B 1_555 1_555
C28B C29B 1_555 1_555
C29B C30B 1_555 1_555
N7A Pd2A 1_555 1_555
C34A C35A 1_555 1_555
C39A C40A 1_555 1_555
N7B Pd2B 1_555 1_555
C34B C35B 1_555 1_555
C39B C40B 1_555 1_555
C40B C41B 1_555 1_555

#END
