
#######################################################################
#
#                 Cambridge Crystallographic Data Centre
#                                CCDC 
#
#######################################################################
#
# If this CIF has been generated from an entry in the Cambridge 
# Structural Database, then it will include bibliographic, chemical, 
# crystal, experimental, refinement or atomic coordinate data resulting 
# from the CCDC's data processing and validation procedures.
#
#######################################################################

data_VIPFAD
_chemical_formula_moiety         'C60 H60 Cl6 N12 O6 Pd3,3(C1 H4 O1),9(H2 O1)'
_chemical_name_systematic        
"(P,M)-bis(\m~3~-N,N',N''-tris(2-(pyridin-2-yl)ethyl)benzene-1,3,5-tricarboxamide)-tris(dichloro-palladium) methanol solvate nonahydrate"
_symmetry_cell_setting           rhombohedral
_symmetry_space_group_name_H-M   'R 3 c'
_symmetry_Int_Tables_number      161
_space_group_name_Hall           'R 3 -2"c'
loop_
_symmetry_equiv_pos_site_id
_symmetry_equiv_pos_as_xyz
1 x,y,z
2 -y,x-y,z
3 -x+y,-x,z
4 -y,-x,1/2+z
5 -x+y,y,1/2+z
6 x,x-y,1/2+z
7 2/3+x,1/3+y,1/3+z
8 2/3-y,1/3+x-y,1/3+z
9 2/3-x+y,1/3-x,1/3+z
10 2/3-y,1/3-x,5/6+z
11 2/3-x+y,1/3+y,5/6+z
12 2/3+x,1/3+x-y,5/6+z
13 1/3+x,2/3+y,2/3+z
14 1/3-y,2/3+x-y,2/3+z
15 1/3-x+y,2/3-x,2/3+z
16 1/3-y,2/3-x,1/6+z
17 1/3-x+y,2/3+y,1/6+z
18 1/3+x,2/3+x-y,1/6+z
_cell_length_a                   22.5899(2)
_cell_length_b                   22.5899(2)
_cell_length_c                   27.0236(4)
_cell_angle_alpha                90
_cell_angle_beta                 90
_cell_angle_gamma                120
_cell_volume                     11942.7
_exptl_crystal_colour            yellow
_exptl_crystal_description       block
_cell_formula_units_Z            6
loop_
_atom_site_label
_atom_site_type_symbol
_atom_site_fract_x
_atom_site_fract_y
_atom_site_fract_z
Pd1 Pd 0.107223(18) 0.820751(17) 0.059380(10)
Cl1 Cl 0.12448(9) 0.82468(7) -0.02469(5)
Cl2 Cl 0.07954(7) 0.81647(8) 0.14136(5)
O1 O 0.23920(16) 0.75795(16) 0.16131(14)
O2 O 0.39852(19) 0.84634(18) 0.04352(14)
N1 N 0.0237(2) 0.7280(2) 0.05117(14)
N2 N 0.16850(17) 0.66028(18) 0.12055(15)
H1 H 0.1642 0.6224 0.1078
N3 N 0.1901(2) 0.9152(2) 0.07089(15)
N4 N 0.2967(2) 0.8085(2) 0.00527(17)
H2 H 0.2645 0.7759 -0.0128
C1 C -0.0352(3) 0.7283(3) 0.0418(2)
H3 H -0.0340 0.7705 0.0369
C2 C -0.0968(3) 0.6680(4) 0.0394(2)
H4 H -0.1379 0.6687 0.0335
C3 C -0.0983(3) 0.6082(4) 0.0454(3)
H5 H -0.1406 0.5665 0.0441
C4 C -0.0377(3) 0.6075(3) 0.0535(2)
H6 H -0.0384 0.5655 0.0577
C5 C 0.0232(2) 0.6689(2) 0.05536(17)
C6 C 0.0900(2) 0.6705(2) 0.06250(17)
H7 H 0.1263 0.7113 0.0454
H8 H 0.0869 0.6297 0.0464
C7 C 0.1112(2) 0.6722(2) 0.11655(18)
H9 H 0.1240 0.7172 0.1311
H10 H 0.0720 0.6367 0.1355
C8 C 0.22713(19) 0.70356(19) 0.14242(16)
C9 C 0.2816(2) 0.6832(2) 0.14300(15)
C10 C 0.3498(2) 0.73473(19) 0.14266(16)
H11 H 0.3611 0.7813 0.1422
C11 C 0.1772(3) 0.9675(3) 0.0750(2)
H12 H 0.1317 0.9587 0.0710
C12 C 0.2295(4) 1.0340(3) 0.0850(2)
H13 H 0.2198 1.0703 0.0876
C13 C 0.2949(3) 1.0462(3) 0.0910(2)
H14 H 0.3311 1.0908 0.0986
C14 C 0.3077(3) 0.9919(3) 0.0857(2)
H15 H 0.3528 0.9995 0.0890
C15 C 0.2540(3) 0.9272(2) 0.07545(17)
C16 C 0.2678(2) 0.8690(2) 0.06858(19)
H16 H 0.2254 0.8250 0.0746
H17 H 0.3028 0.8732 0.0926
C17 C 0.2932(3) 0.8707(2) 0.0156(2)
H18 H 0.2618 0.8742 -0.0082
H19 H 0.3391 0.9115 0.0114
C18 C 0.3475(3) 0.8004(2) 0.02255(18)
C19 C 0.3390(2) 0.7308(2) 0.01582(18)
C20 C 0.3975(2) 0.7253(2) 0.01594(18)
H20 H 0.4413 0.7653 0.0161
O1A O 0.24205(16) 0.48125(23) 0.16131(14)
N1A N 0.2720(2) 0.2957(3) 0.05117(14)
N2A N 0.33972(18) 0.50822(25) 0.12055(15)
H1A H 0.3776 0.5418 0.1078
C1A C 0.2717(3) 0.2365(4) 0.0418(2)
H3A H 0.2295 0.1955 0.0369
C2A C 0.3320(4) 0.2352(5) 0.0394(2)
H4A H 0.3313 0.1934 0.0335
C3A C 0.3918(4) 0.2935(5) 0.0454(3)
H5A H 0.4335 0.2929 0.0441
C4A C 0.3925(3) 0.3548(4) 0.0535(2)
H6A H 0.4345 0.3961 0.0577
C5A C 0.3311(2) 0.3543(3) 0.05536(17)
C6A C 0.3295(2) 0.4195(3) 0.06250(17)
H7A H 0.2887 0.4150 0.0454
H8A H 0.3703 0.4572 0.0464
C7A C 0.3278(2) 0.4390(3) 0.11655(18)
H9A H 0.2828 0.4068 0.1311
H10A H 0.3633 0.4353 0.1355
C8A C 0.29644(19) 0.52357(27) 0.14242(16)
C9A C 0.3168(2) 0.5984(3) 0.14300(15)
C10A C 0.26527(19) 0.61507(28) 0.14266(16)
H11A H 0.2187 0.5798 0.1422
O1B O 0.51875(23) 0.76080(16) 0.16131(14)
N1B N 0.7043(3) 0.9763(2) 0.05117(14)
N2B N 0.49178(25) 0.83150(17) 0.12055(15)
H1B H 0.4582 0.8358 0.1078
C1B C 0.7635(4) 1.0352(3) 0.0418(2)
H3B H 0.8045 1.0340 0.0369
C2B C 0.7648(5) 1.0968(3) 0.0394(2)
H4B H 0.8066 1.1379 0.0335
C3B C 0.7065(5) 1.0983(3) 0.0454(3)
H5B H 0.7071 1.1406 0.0441
C4B C 0.6452(4) 1.0377(3) 0.0535(2)
H6B H 0.6039 1.0384 0.0577
C5B C 0.6457(3) 0.9768(2) 0.05536(17)
C6B C 0.5805(3) 0.9100(2) 0.06250(17)
H7B H 0.5850 0.8737 0.0454
H8B H 0.5428 0.9131 0.0464
C7B C 0.5610(3) 0.8888(2) 0.11655(18)
H9B H 0.5932 0.8760 0.1311
H10B H 0.5647 0.9280 0.1355
C8B C 0.47643(27) 0.77287(19) 0.14242(16)
C9B C 0.4016(3) 0.7184(2) 0.14300(15)
C10B C 0.38493(28) 0.6502(2) 0.14266(16)
H11B H 0.4202 0.6389 0.1422
O2A O 0.15366(18) 0.55218(26) 0.04352(14)
N3A N 0.0848(2) 0.2749(3) 0.07089(15)
N4A N 0.1915(2) 0.4882(3) 0.00527(17)
H2A H 0.2241 0.4886 -0.0128
C11A C 0.0325(3) 0.2097(4) 0.0750(2)
H12A H 0.0413 0.1730 0.0710
C12A C -0.0340(3) 0.1955(5) 0.0850(2)
H13A H -0.0703 0.1495 0.0876
C13A C -0.0462(3) 0.2487(4) 0.0910(2)
H14A H -0.0908 0.2403 0.0986
C14A C 0.0081(3) 0.3158(4) 0.0857(2)
H15A H 0.0005 0.3533 0.0890
C15A C 0.0728(2) 0.3268(4) 0.07545(17)
C16A C 0.1310(2) 0.3988(3) 0.06858(19)
H16A H 0.1750 0.4004 0.0746
H17A H 0.1268 0.4296 0.0926
C17A C 0.1293(2) 0.4225(4) 0.0156(2)
H18A H 0.1258 0.3876 -0.0082
H19A H 0.0885 0.4276 0.0114
C18A C 0.1996(2) 0.5471(4) 0.02255(18)
C19A C 0.2692(2) 0.6082(3) 0.01582(18)
C20A C 0.2747(2) 0.6722(3) 0.01594(18)
H20A H 0.2347 0.6760 0.0161
O2B O 0.44782(26) 0.60148(19) 0.04352(14)
N3B N 0.7251(3) 0.8099(2) 0.07089(15)
N4B N 0.5118(3) 0.7033(2) 0.00527(17)
H2B H 0.5114 0.7355 -0.0128
C11B C 0.7903(4) 0.8228(3) 0.0750(2)
H12B H 0.8270 0.8683 0.0710
C12B C 0.8045(5) 0.7705(4) 0.0850(2)
H13B H 0.8505 0.7802 0.0876
C13B C 0.7513(4) 0.7051(3) 0.0910(2)
H14B H 0.7597 0.6689 0.0986
C14B C 0.6842(4) 0.6923(3) 0.0857(2)
H15B H 0.6467 0.6472 0.0890
C15B C 0.6732(4) 0.7460(3) 0.07545(17)
C16B C 0.6012(3) 0.7322(2) 0.06858(19)
H16B H 0.5996 0.7746 0.0746
H17B H 0.5704 0.6972 0.0926
C17B C 0.5775(4) 0.7068(3) 0.0156(2)
H18B H 0.6124 0.7382 -0.0082
H19B H 0.5724 0.6609 0.0114
C18B C 0.4529(4) 0.6525(3) 0.02255(18)
C19B C 0.3918(3) 0.6610(2) 0.01582(18)
C20B C 0.3278(3) 0.6025(2) 0.01594(18)
H20B H 0.3240 0.5587 0.0161
Pd1A Pd 0.179249(17) 0.286472(25) 0.059380(10)
Cl1A Cl 0.17532(7) 0.29980(11) -0.02469(5)
Cl2A Cl 0.18353(8) 0.26307(11) 0.14136(5)
Pd1B Pd 0.713528(25) 0.892777(18) 0.059380(10)
Cl1B Cl 0.70020(11) 0.87552(9) -0.02469(5)
Cl2B Cl 0.73693(11) 0.92046(7) 0.14136(5)
O3 O 0.1994(6) 0.7194(4) -0.0629(4)
H21 H 0.1636 0.6826 -0.0696
H22 H 0.2333 0.7189 -0.0753
O4 O 0.3646(4) 1.1865(4) 0.1596(3)
H23 H 0.3941 1.2040 0.1821
C21 C 0.3072(4) 1.1915(4) 0.1721(4)
H24 H 0.3099 1.2043 0.2070
H25 H 0.2658 1.1474 0.1665
H26 H 0.3058 1.2265 0.1514
O5 O 0.3364(13) 0.7508(13) -0.1298(9)
H27 H 0.3124 0.7651 -0.1432
H28 H 0.3610 0.7468 -0.1514
O6 O 0.4031(19) 0.7330(10) -0.2201(10)
H29 H 0.3940 0.7347 -0.1901
H30 H 0.4457 0.7541 -0.2240
loop_
_geom_bond_atom_site_label_1
_geom_bond_atom_site_label_2
_geom_bond_site_symmetry_1
_geom_bond_site_symmetry_2
Pd1 Cl1 1_555 1_555
Cl2 Pd1 1_555 1_555
O1 C8 1_555 1_555
O2 C18 1_555 1_555
N1 Pd1 1_555 1_555
N2 H1 1_555 1_555
N3 Pd1 1_555 1_555
N4 H2 1_555 1_555
C1 N1 1_555 1_555
H3 C1 1_555 1_555
C2 C1 1_555 1_555
H4 C2 1_555 1_555
C3 C2 1_555 1_555
H5 C3 1_555 1_555
C4 C3 1_555 1_555
H6 C4 1_555 1_555
C5 N1 1_555 1_555
C6 C5 1_555 1_555
H7 C6 1_555 1_555
H8 C6 1_555 1_555
C7 N2 1_555 1_555
H9 C7 1_555 1_555
H10 C7 1_555 1_555
C8 N2 1_555 1_555
C9 C8 1_555 1_555
C10 C9 1_555 1_555
H11 C10 1_555 1_555
C11 N3 1_555 1_555
H12 C11 1_555 1_555
C12 C11 1_555 1_555
H13 C12 1_555 1_555
C13 C12 1_555 1_555
H14 C13 1_555 1_555
C14 C13 1_555 1_555
H15 C14 1_555 1_555
C15 N3 1_555 1_555
C16 C15 1_555 1_555
H16 C16 1_555 1_555
H17 C16 1_555 1_555
C17 N4 1_555 1_555
H18 C17 1_555 1_555
H19 C17 1_555 1_555
C18 N4 1_555 1_555
C19 C18 1_555 1_555
C20 C19 1_555 1_555
H20 C20 1_555 1_555
O3 H21 1_555 1_555
H22 O3 1_555 1_555
O4 H23 1_555 1_555
C21 O4 1_555 1_555
H24 C21 1_555 1_555
H25 C21 1_555 1_555
H26 C21 1_555 1_555
O5 H27 1_555 1_555
H28 O5 1_555 1_555
O6 H29 1_555 1_555
H30 O6 1_555 1_555
O1A C8A 1_555 1_555
N1A C1A 1_555 1_555
N2A H1A 1_555 1_555
C1A H3A 1_555 1_555
C2A C1A 1_555 1_555
H4A C2A 1_555 1_555
C3A C2A 1_555 1_555
H5A C3A 1_555 1_555
C4A C3A 1_555 1_555
H6A C4A 1_555 1_555
C5A N1A 1_555 1_555
C6A C5A 1_555 1_555
H7A C6A 1_555 1_555
H8A C6A 1_555 1_555
C7A N2A 1_555 1_555
H9A C7A 1_555 1_555
H10A C7A 1_555 1_555
C8A N2A 1_555 1_555
C9A C8A 1_555 1_555
C10A C9 1_555 1_555
H11A C10A 1_555 1_555
O1B C8B 1_555 1_555
N1B C1B 1_555 1_555
N2B H1B 1_555 1_555
C1B H3B 1_555 1_555
C2B C1B 1_555 1_555
H4B C2B 1_555 1_555
C3B C2B 1_555 1_555
H5B C3B 1_555 1_555
C4B C3B 1_555 1_555
H6B C4B 1_555 1_555
C5B N1B 1_555 1_555
C6B C5B 1_555 1_555
H7B C6B 1_555 1_555
H8B C6B 1_555 1_555
C7B N2B 1_555 1_555
H9B C7B 1_555 1_555
H10B C7B 1_555 1_555
C8B N2B 1_555 1_555
C9B C10 1_555 1_555
C10B C9A 1_555 1_555
H11B C10B 1_555 1_555
O2A C18A 1_555 1_555
N3A C11A 1_555 1_555
N4A H2A 1_555 1_555
C11A H12A 1_555 1_555
C12A C11A 1_555 1_555
H13A C12A 1_555 1_555
C13A C12A 1_555 1_555
H14A C13A 1_555 1_555
C14A C13A 1_555 1_555
H15A C14A 1_555 1_555
C15A N3A 1_555 1_555
C16A C15A 1_555 1_555
H16A C16A 1_555 1_555
H17A C16A 1_555 1_555
C17A N4A 1_555 1_555
H18A C17A 1_555 1_555
H19A C17A 1_555 1_555
C18A N4A 1_555 1_555
C19A C18A 1_555 1_555
C20A C19 1_555 1_555
H20A C20A 1_555 1_555
O2B C18B 1_555 1_555
N3B C11B 1_555 1_555
N4B H2B 1_555 1_555
C11B H12B 1_555 1_555
C12B C11B 1_555 1_555
H13B C12B 1_555 1_555
C13B C12B 1_555 1_555
H14B C13B 1_555 1_555
C14B C13B 1_555 1_555
H15B C14B 1_555 1_555
C15B N3B 1_555 1_555
C16B C15B 1_555 1_555
H16B C16B 1_555 1_555
H17B C16B 1_555 1_555
C17B N4B 1_555 1_555
H18B C17B 1_555 1_555
H19B C17B 1_555 1_555
C18B N4B 1_555 1_555
C19B C20 1_555 1_555
C20B C19A 1_555 1_555
H20B C20B 1_555 1_555
Pd1A N1A 1_555 1_555
Cl1A Pd1A 1_555 1_555
Cl2A Pd1A 1_555 1_555
Pd1B N1B 1_555 1_555
Cl1B Pd1B 1_555 1_555
Cl2B Pd1B 1_555 1_555
C4 C5 1_555 1_555
C6 C7 1_555 1_555
C14 C15 1_555 1_555
C16 C17 1_555 1_555
C4A C5A 1_555 1_555
C6A C7A 1_555 1_555
C9A C10A 1_555 1_555
C4B C5B 1_555 1_555
C6B C7B 1_555 1_555
C8B C9B 1_555 1_555
C9B C10B 1_555 1_555
N3A Pd1A 1_555 1_555
C14A C15A 1_555 1_555
C16A C17A 1_555 1_555
C19A C20A 1_555 1_555
N3B Pd1B 1_555 1_555
C14B C15B 1_555 1_555
C16B C17B 1_555 1_555
C18B C19B 1_555 1_555
C19B C20B 1_555 1_555

#END
