
#######################################################################
#
#                 Cambridge Crystallographic Data Centre
#                                CCDC 
#
#######################################################################
#
# If this CIF has been generated from an entry in the Cambridge 
# Structural Database, then it will include bibliographic, chemical, 
# crystal, experimental, refinement or atomic coordinate data resulting 
# from the CCDC's data processing and validation procedures.
#
#######################################################################

data_VIPFOR
_chemical_formula_moiety         'C63 H63 Cl6 N9 O9 Pd3,C60 H60 Cl6 N12 O6 Pd3'
_chemical_name_systematic        
"(P)-(\m~3~-N,N',N''-tris(2-(pyridin-2-yl)propyl)benzene-1,3,5-tricarboxamide)-(\m~3~-N,N',N''-tris(2-(pyridin-2-yl)ethyl)benzene-1,3,5-tricarboxamide)-tris(dichloro-palladium) (M)-bis(\m~3~-N,N',N''-tris(2-(pyridin-2-yl)ethyl)benzene-1,3,5-tricarboxamide)-tris(dichloro-palladium)"
_symmetry_cell_setting           rhombohedral
_symmetry_space_group_name_H-M   'R 3'
_symmetry_Int_Tables_number      146
_space_group_name_Hall           'R 3'
loop_
_symmetry_equiv_pos_site_id
_symmetry_equiv_pos_as_xyz
1 x,y,z
2 -y,x-y,z
3 -x+y,-x,z
4 2/3+x,1/3+y,1/3+z
5 2/3-y,1/3+x-y,1/3+z
6 2/3-x+y,1/3-x,1/3+z
7 1/3+x,2/3+y,2/3+z
8 1/3-y,2/3+x-y,2/3+z
9 1/3-x+y,2/3-x,2/3+z
_cell_length_a                   26.2930(2)
_cell_length_b                   26.2930(2)
_cell_length_c                   21.4684(3)
_cell_angle_alpha                90
_cell_angle_beta                 90
_cell_angle_gamma                120
_cell_volume                     12853.2
_exptl_crystal_colour            yellow
_exptl_crystal_description       BLOCK
_cell_formula_units_Z            3
loop_
_atom_site_label
_atom_site_type_symbol
_atom_site_fract_x
_atom_site_fract_y
_atom_site_fract_z
Pd1 Pd -0.48257(5) -0.00536(5) 0.0525(2)
Cl1 Cl -0.4784(2) 0.0024(3) 0.1585(3)
Cl2 Cl -0.4869(2) -0.0132(3) -0.0535(3)
O1 O -0.5838(5) -0.1789(4) -0.0768(5)
O2 O -0.5115(5) -0.2516(6) 0.0864(5)
N1 N -0.5563(4) 0.0032(4) 0.0559(6)
N2 N -0.6563(6) -0.1874(5) -0.0091(6)
H1 H -0.6847 -0.2130 0.0150
N3 N -0.4051(4) -0.0082(4) 0.0507(6)
N4 N -0.5321(5) -0.1869(5) 0.1317(6)
H2 H -0.5526 -0.1887 0.1649
C1 C -0.5423(5) 0.0595(4) 0.0588(7)
H3 H -0.5025 0.0903 0.0570
C2 C -0.5871(5) 0.0712(5) 0.0645(7)
H4 H -0.5773 0.1112 0.0664
C3 C -0.6451(4) 0.0293(5) 0.0677(10)
H5 H -0.6751 0.0391 0.0724
C4 C -0.6575(5) -0.0277(5) 0.0638(9)
H6 H -0.6970 -0.0589 0.0647
C5 C -0.6126(4) -0.0393(4) 0.0585(7)
C6 C -0.6244(7) -0.1045(7) 0.0558(6)
H7 H -0.5876 -0.1040 0.0670
H8 H -0.6540 -0.1279 0.0878
C7 C -0.6445(11) -0.1341(10) -0.0037(7)
H9 H -0.6804 -0.1329 -0.0152
H10 H -0.6142 -0.1106 -0.0351
C8 C -0.6304(6) -0.2104(7) -0.0479(8)
C9 C -0.6506(5) -0.2747(5) -0.0413(6)
C10 C -0.7137(8) -0.3203(8) -0.0412(9)
H11 H -0.7440 -0.3105 -0.0410
C11 C -0.3560(5) 0.0442(5) 0.0524(7)
H12 H -0.3582 0.0790 0.0560
C12 C -0.3027(6) 0.0473(6) 0.0491(9)
H13 H -0.2681 0.0847 0.0510
C13 C -0.2973(4) -0.0016(6) 0.0432(10)
H14 H -0.2601 0.0009 0.0402
C14 C -0.3487(6) -0.0541(6) 0.0419(8)
H15 H -0.3473 -0.0894 0.0374
C15 C -0.4019(6) -0.0573(5) 0.0470(12)
C16 C -0.4549(7) -0.1154(7) 0.0512(8)
H16 H -0.4802 -0.1206 0.0148
H17 H -0.4432 -0.1457 0.0484
C17 C -0.4895(13) -0.1258(7) 0.1073(11)
H18 H -0.5124 -0.1057 0.1014
H19 H -0.4613 -0.1048 0.1414
C18 C -0.5412(5) -0.2348(4) 0.1099(8)
C19 C -0.6049(4) -0.2863(4) 0.1182(7)
C20 C -0.6202(5) -0.3473(4) 0.1241(6)
H20 H -0.5901 -0.3565 0.1319
O1A O -0.8211(4) -0.4049(6) -0.0768(5)
N1A N -1.0032(4) -0.5595(6) 0.0559(6)
N2A N -0.8126(5) -0.4689(8) -0.0091(6)
H1A H -0.7870 -0.4717 0.0150
C1A C -1.0595(4) -0.6018(6) 0.0588(7)
H3A H -1.0903 -0.5928 0.0570
C2A C -1.0712(5) -0.6583(7) 0.0645(7)
H4A H -1.1112 -0.6885 0.0664
C3A C -1.0293(5) -0.6744(6) 0.0677(10)
H5A H -1.0391 -0.7142 0.0724
C4A C -0.9723(5) -0.6298(7) 0.0638(9)
H6A H -0.9411 -0.6381 0.0647
C5A C -0.9607(4) -0.5733(6) 0.0585(7)
C6A C -0.8955(7) -0.5199(10) 0.0558(6)
H7A H -0.8960 -0.4836 0.0670
H8A H -0.8721 -0.5261 0.0878
C7A C -0.8659(10) -0.5104(15) -0.0037(7)
H9A H -0.8671 -0.5475 -0.0152
H10A H -0.8894 -0.5036 -0.0351
C8A C -0.7896(7) -0.4200(9) -0.0479(8)
C9A C -0.7253(5) -0.3759(7) -0.0413(6)
C10A C -0.6797(8) -0.3934(11) -0.0412(9)
H11A H -0.6895 -0.4335 -0.0410
O1B O -0.5951(6) -0.4162(5) -0.0768(5)
N1B N -0.4405(6) -0.4437(4) 0.0559(6)
N2B N -0.5311(8) -0.3437(6) -0.0091(6)
H1B H -0.5283 -0.3153 0.0150
C1B C -0.3982(6) -0.4577(5) 0.0588(7)
H3B H -0.4072 -0.4975 0.0570
C2B C -0.3417(7) -0.4129(5) 0.0645(7)
H4B H -0.3115 -0.4227 0.0664
C3B C -0.3256(6) -0.3549(4) 0.0677(10)
H5B H -0.2858 -0.3249 0.0724
C4B C -0.3702(7) -0.3425(5) 0.0638(9)
H6B H -0.3619 -0.3030 0.0647
C5B C -0.4267(6) -0.3874(4) 0.0585(7)
C6B C -0.4801(10) -0.3756(7) 0.0558(6)
H7B H -0.5164 -0.4124 0.0670
H8B H -0.4739 -0.3460 0.0878
C7B C -0.4896(15) -0.3555(11) -0.0037(7)
H9B H -0.4525 -0.3196 -0.0152
H10B H -0.4964 -0.3858 -0.0351
C8B C -0.5800(9) -0.3696(6) -0.0479(8)
C9B C -0.6241(7) -0.3494(5) -0.0413(6)
C10B C -0.6066(11) -0.2863(8) -0.0412(9)
H11B H -0.5665 -0.2560 -0.0410
O2A O -0.7484(6) -0.2599(8) 0.0864(5)
N3A N -0.9918(4) -0.3969(6) 0.0507(6)
N4A N -0.8131(5) -0.3452(7) 0.1317(6)
H2A H -0.8113 -0.3639 0.1649
C11A C -1.0442(5) -0.4002(7) 0.0524(7)
H12A H -1.0790 -0.4372 0.0560
C12A C -1.0473(6) -0.3500(8) 0.0491(9)
H13A H -1.0847 -0.3528 0.0510
C13A C -0.9984(6) -0.2957(7) 0.0432(10)
H14A H -1.0009 -0.2610 0.0402
C14A C -0.9459(6) -0.2946(8) 0.0419(8)
H15A H -0.9106 -0.2579 0.0374
C15A C -0.9427(5) -0.3446(8) 0.0470(12)
C16A C -0.8846(7) -0.3395(10) 0.0512(8)
H16A H -0.8794 -0.3596 0.0148
H17A H -0.8543 -0.2975 0.0484
C17A C -0.8742(7) -0.3637(15) 0.1073(11)
H18A H -0.8943 -0.4067 0.1014
H19A H -0.8952 -0.3565 0.1414
C18A C -0.7652(4) -0.3064(6) 0.1099(8)
C19A C -0.7137(4) -0.3186(6) 0.1182(7)
C20A C -0.6527(4) -0.2729(6) 0.1241(6)
H20A H -0.6435 -0.2336 0.1319
O2B O -0.7401(8) -0.4885(5) 0.0864(5)
N3B N -0.6031(6) -0.5949(4) 0.0507(6)
N4B N -0.6548(7) -0.4679(5) 0.1317(6)
H2B H -0.6361 -0.4474 0.1649
C11B C -0.5998(7) -0.6440(5) 0.0524(7)
H12B H -0.5628 -0.6418 0.0560
C12B C -0.6500(8) -0.6973(6) 0.0491(9)
H13B H -0.6472 -0.7319 0.0510
C13B C -0.7043(7) -0.7027(4) 0.0432(10)
H14B H -0.7390 -0.7399 0.0402
C14B C -0.7054(8) -0.6513(6) 0.0419(8)
H15B H -0.7421 -0.6527 0.0374
C15B C -0.6554(8) -0.5981(6) 0.0470(12)
C16B C -0.6605(10) -0.5451(7) 0.0512(8)
H16B H -0.6404 -0.5198 0.0148
H17B H -0.7025 -0.5568 0.0484
C17B C -0.6363(15) -0.5105(13) 0.1073(11)
H18B H -0.5933 -0.4876 0.1014
H19B H -0.6435 -0.5387 0.1414
C18B C -0.6936(6) -0.4588(5) 0.1099(8)
C19B C -0.6814(6) -0.3951(4) 0.1182(7)
C20B C -0.7271(6) -0.3798(5) 0.1241(6)
H20B H -0.7664 -0.4099 0.1319
Pd1A Pd -0.99464(5) -0.47721(7) 0.0525(2)
Cl1A Cl -1.0024(3) -0.4808(4) 0.1585(3)
Cl2A Cl -0.9868(3) -0.4737(4) -0.0535(3)
Pd1B Pd -0.52279(7) -0.51743(5) 0.0525(2)
Cl1B Cl -0.5192(4) -0.5216(2) 0.1585(3)
Cl2B Cl -0.5263(4) -0.5131(2) -0.0535(3)
Pd2 Pd -0.68856(5) 0.14896(5) 0.2111(2)
Cl3 Cl -0.6566(2) 0.16554(18) 0.1088(3)
Cl4 Cl -0.7109(2) 0.13381(19) 0.3139(3)
O3 O -0.8436(4) 0.0732(4) 0.1031(5)
O4 O -0.9873(8) -0.1317(6) -0.0464(11)
O5 O -0.9028(6) -0.0556(5) 0.0058(6)
N5 N -0.6679(4) 0.2342(3) 0.2192(7)
N6 N -0.8634(5) 0.1379(5) 0.1505(7)
H21 H -0.8896 0.1485 0.1587
N7 N -0.7142(5) 0.0634(3) 0.2008(6)
C21 C -0.6115(4) 0.2763(5) 0.2174(7)
H22 H -0.5816 0.2661 0.2166
C22 C -0.5967(4) 0.3340(5) 0.2167(7)
H23 H -0.5564 0.3634 0.2167
C23 C -0.6384(4) 0.3506(3) 0.2161(7)
H24 H -0.6283 0.3907 0.2146
C24 C -0.6955(4) 0.3060(4) 0.2176(7)
H25 H -0.7259 0.3154 0.2166
C25 C -0.7102(4) 0.2484(5) 0.2207(10)
C26 C -0.7755(5) 0.1993(6) 0.2178(8)
H26 H -0.7808 0.1654 0.2427
H27 H -0.8000 0.2140 0.2367
C27 C -0.7950(12) 0.1805(12) 0.1564(12)
H28 H -0.7746 0.1603 0.1400
H29 H -0.7837 0.2154 0.1300
C28 C -0.8761(4) 0.0886(4) 0.1334(7)
C29 C -0.9400(4) 0.0428(4) 0.1322(7)
C30 C -0.9602(4) -0.0163(3) 0.1363(6)
H30 H -0.9317 -0.0278 0.1425
C31 C -0.6858(5) 0.0398(5) 0.2297(6)
H31 H -0.6526 0.0640 0.2548
C32 C -0.7038(5) -0.0184(5) 0.2236(7)
H32 H -0.6823 -0.0340 0.2437
C33 C -0.7522(5) -0.0547(3) 0.1890(6)
H33 H -0.7651 -0.0953 0.1841
C34 C -0.7809(5) -0.0290(4) 0.1620(6)
C35 C -0.7616(6) 0.0295(4) 0.1662(8)
H34 H -0.7816 0.0461 0.1450
C36 C -0.8331(7) -0.0643(10) 0.1224(7)
H35 H -0.8609 -0.0496 0.1280
H36 H -0.8529 -0.1056 0.1370
C37 C -0.8198(7) -0.0632(10) 0.0543(8)
H37 H -0.7963 -0.0218 0.0406
H38 H -0.7956 -0.0819 0.0481
C38 C -0.8728(8) -0.0935(9) 0.0146(9)
H39 H -0.9011 -0.1315 0.0338
H40 H -0.8616 -0.1017 -0.0267
C39 C -0.9558(6) -0.0801(5) -0.0171(8)
C40 C -0.9785(4) -0.0393(5) -0.0210(8)
C41 C -0.9423(6) 0.0228(5) -0.0201(8)
H41 H -0.9011 0.0382 -0.0187
O3A O -1.0732(4) 0.0832(6) 0.1031(5)
N5A N -1.2342(3) 0.0979(5) 0.2192(7)
N6A N -1.1379(5) -0.0013(7) 0.1505(7)
H21A H -1.1485 -0.0381 0.1587
C21A C -1.2763(5) 0.1122(6) 0.2174(7)
H22A H -1.2661 0.1523 0.2166
C22A C -1.3340(5) 0.0693(6) 0.2167(7)
H23A H -1.3634 0.0802 0.2167
C23A C -1.3506(3) 0.0110(5) 0.2161(7)
H24A H -1.3907 -0.0190 0.2146
C24A C -1.3060(4) -0.0015(6) 0.2176(7)
H25A H -1.3154 -0.0413 0.2166
C25A C -1.2484(5) 0.0414(6) 0.2207(10)
C26A C -1.1993(6) 0.0252(8) 0.2178(8)
H26A H -1.1654 0.0538 0.2427
H27A H -1.2140 -0.0140 0.2367
C27A C -1.1805(12) 0.0245(17) 0.1564(12)
H28A H -1.1603 0.0651 0.1400
H29A H -1.2154 0.0009 0.1300
C28A C -1.0886(4) 0.0353(6) 0.1334(7)
C29A C -1.0428(4) 0.0172(6) 0.1322(7)
C30A C -0.9837(3) 0.0561(5) 0.1363(6)
H30A H -0.9722 0.0961 0.1425
O3B O -1.0832(6) -0.1564(4) 0.1031(5)
N5B N -1.0979(5) -0.3321(4) 0.2192(7)
N6B N -0.9987(7) -0.1366(5) 0.1505(7)
H21B H -0.9619 -0.1104 0.1587
C21B C -1.1122(6) -0.3885(4) 0.2174(7)
H22B H -1.1523 -0.4184 0.2166
C22B C -1.0693(6) -0.4033(4) 0.2167(7)
H23B H -1.0802 -0.4436 0.2167
C23B C -1.0110(5) -0.3616(4) 0.2161(7)
H24B H -0.9810 -0.3717 0.2146
C24B C -0.9985(6) -0.3045(4) 0.2176(7)
H25B H -0.9587 -0.2741 0.2166
C25B C -1.0414(6) -0.2898(4) 0.2207(10)
C26B C -1.0252(8) -0.2245(5) 0.2178(8)
H26B H -1.0538 -0.2192 0.2427
H27B H -0.9860 -0.2000 0.2367
C27B C -1.0245(17) -0.2050(12) 0.1564(12)
H28B H -1.0651 -0.2254 0.1400
H29B H -1.0009 -0.2163 0.1300
C28B C -1.0353(6) -0.1239(4) 0.1334(7)
C29B C -1.0172(6) -0.0600(4) 0.1322(7)
C30B C -1.0561(5) -0.0398(4) 0.1363(6)
H30B H -1.0961 -0.0683 0.1425
O4A O -0.8683(6) 0.1444(10) -0.0464(11)
O5A O -0.9444(5) 0.1528(8) 0.0058(6)
N7A N -1.0634(3) 0.2224(6) 0.2008(6)
C31A C -1.0398(5) 0.2744(7) 0.2297(6)
H31A H -1.0640 0.2834 0.2548
C32A C -0.9816(5) 0.3146(7) 0.2236(7)
H32A H -0.9660 0.3517 0.2437
C33A C -0.9453(3) 0.3025(6) 0.1890(6)
H33A H -0.9047 0.3302 0.1841
C34A C -0.9710(4) 0.2481(6) 0.1620(6)
C35A C -1.0295(4) 0.2089(7) 0.1662(8)
H34A H -1.0461 0.1723 0.1450
C36A C -0.9357(10) 0.2312(12) 0.1224(7)
H35A H -0.9504 0.1887 0.1280
H36A H -0.8944 0.2527 0.1370
C37A C -0.9368(10) 0.2434(12) 0.0543(8)
H37A H -0.9782 0.2255 0.0406
H38A H -0.9181 0.2863 0.0481
C38A C -0.9065(9) 0.2207(12) 0.0146(9)
H39A H -0.8685 0.2304 0.0338
H40A H -0.8983 0.2401 -0.0267
C39A C -0.9199(5) 0.1243(8) -0.0171(8)
C40A C -0.9607(5) 0.0608(6) -0.0210(8)
C41A C -1.0228(5) 0.0349(8) -0.0201(8)
H41A H -1.0382 0.0607 -0.0187
O4B O -1.1444(10) -0.0127(8) -0.0464(11)
O5B O -1.1528(8) -0.0972(6) 0.0058(6)
N7B N -1.2224(6) -0.2858(5) 0.2008(6)
C31B C -1.2744(7) -0.3142(5) 0.2297(6)
H31B H -1.2834 -0.3474 0.2548
C32B C -1.3146(7) -0.2962(5) 0.2236(7)
H32B H -1.3517 -0.3177 0.2437
C33B C -1.3025(6) -0.2478(5) 0.1890(6)
H33B H -1.3302 -0.2349 0.1841
C34B C -1.2481(6) -0.2191(5) 0.1620(6)
C35B C -1.2089(7) -0.2384(6) 0.1662(8)
H34B H -1.1723 -0.2184 0.1450
C36B C -1.2312(12) -0.1669(7) 0.1224(7)
H35B H -1.1887 -0.1391 0.1280
H36B H -1.2527 -0.1471 0.1370
C37B C -1.2434(12) -0.1802(7) 0.0543(8)
H37B H -1.2255 -0.2037 0.0406
H38B H -1.2863 -0.2044 0.0481
C38B C -1.2207(12) -0.1272(8) 0.0146(9)
H39B H -1.2304 -0.0989 0.0338
H40B H -1.2401 -0.1384 -0.0267
C39B C -1.1243(8) -0.0442(6) -0.0171(8)
C40B C -1.0608(6) -0.0215(4) -0.0210(8)
C41B C -1.0349(8) -0.0577(6) -0.0201(8)
H41B H -1.0607 -0.0989 -0.0187
Pd2A Pd -1.14896(5) 0.16248(7) 0.2111(2)
Cl3A Cl -1.16554(18) 0.17786(27) 0.1088(3)
Cl4A Cl -1.13381(19) 0.15529(28) 0.3139(3)
Pd2B Pd -1.16248(7) -0.31144(5) 0.2111(2)
Cl3B Cl -1.17786(27) -0.3434(2) 0.1088(3)
Cl4B Cl -1.15529(28) -0.2891(2) 0.3139(3)
loop_
_geom_bond_atom_site_label_1
_geom_bond_atom_site_label_2
_geom_bond_site_symmetry_1
_geom_bond_site_symmetry_2
Pd1 Cl1 1_555 1_555
Cl2 Pd1 1_555 1_555
O1 C8 1_555 1_555
O2 C18 1_555 1_555
N1 Pd1 1_555 1_555
N2 H1 1_555 1_555
N3 Pd1 1_555 1_555
N4 H2 1_555 1_555
C1 N1 1_555 1_555
H3 C1 1_555 1_555
C2 C1 1_555 1_555
H4 C2 1_555 1_555
C3 C2 1_555 1_555
H5 C3 1_555 1_555
C4 C3 1_555 1_555
H6 C4 1_555 1_555
C5 N1 1_555 1_555
C6 C5 1_555 1_555
H7 C6 1_555 1_555
H8 C6 1_555 1_555
C7 N2 1_555 1_555
H9 C7 1_555 1_555
H10 C7 1_555 1_555
C8 N2 1_555 1_555
C9 C8 1_555 1_555
C10 C9 1_555 1_555
H11 C10 1_555 1_555
C11 N3 1_555 1_555
H12 C11 1_555 1_555
C12 C11 1_555 1_555
H13 C12 1_555 1_555
C13 C12 1_555 1_555
H14 C13 1_555 1_555
C14 C13 1_555 1_555
H15 C14 1_555 1_555
C15 N3 1_555 1_555
C16 C15 1_555 1_555
H16 C16 1_555 1_555
H17 C16 1_555 1_555
C17 N4 1_555 1_555
H18 C17 1_555 1_555
H19 C17 1_555 1_555
C18 N4 1_555 1_555
C19 C18 1_555 1_555
C20 C19 1_555 1_555
H20 C20 1_555 1_555
Pd2 Cl3 1_555 1_555
Cl4 Pd2 1_555 1_555
O3 C28 1_555 1_555
O4 C39 1_555 1_555
O5 C38 1_555 1_555
N5 Pd2 1_555 1_555
N6 H21 1_555 1_555
N7 Pd2 1_555 1_555
C21 N5 1_555 1_555
H22 C21 1_555 1_555
C22 C21 1_555 1_555
H23 C22 1_555 1_555
C23 C22 1_555 1_555
H24 C23 1_555 1_555
C24 C23 1_555 1_555
H25 C24 1_555 1_555
C25 N5 1_555 1_555
C26 C25 1_555 1_555
H26 C26 1_555 1_555
H27 C26 1_555 1_555
C27 N6 1_555 1_555
H28 C27 1_555 1_555
H29 C27 1_555 1_555
C28 N6 1_555 1_555
C29 C28 1_555 1_555
C30 C29 1_555 1_555
H30 C30 1_555 1_555
C31 N7 1_555 1_555
H31 C31 1_555 1_555
C32 C31 1_555 1_555
H32 C32 1_555 1_555
C33 C32 1_555 1_555
H33 C33 1_555 1_555
C34 C33 1_555 1_555
C35 N7 1_555 1_555
H34 C35 1_555 1_555
C36 C34 1_555 1_555
H35 C36 1_555 1_555
H36 C36 1_555 1_555
C37 C36 1_555 1_555
H37 C37 1_555 1_555
H38 C37 1_555 1_555
C38 C37 1_555 1_555
H39 C38 1_555 1_555
H40 C38 1_555 1_555
C39 O5 1_555 1_555
C40 C39 1_555 1_555
C41 C40 1_555 1_555
H41 C41 1_555 1_555
O1A C8A 1_555 1_555
N1A C1A 1_555 1_555
N2A H1A 1_555 1_555
C1A H3A 1_555 1_555
C2A C1A 1_555 1_555
H4A C2A 1_555 1_555
C3A C2A 1_555 1_555
H5A C3A 1_555 1_555
C4A C3A 1_555 1_555
H6A C4A 1_555 1_555
C5A N1A 1_555 1_555
C6A C5A 1_555 1_555
H7A C6A 1_555 1_555
H8A C6A 1_555 1_555
C7A N2A 1_555 1_555
H9A C7A 1_555 1_555
H10A C7A 1_555 1_555
C8A N2A 1_555 1_555
C9A C10 1_555 1_555
C10A C9A 1_555 1_555
H11A C10A 1_555 1_555
O1B C8B 1_555 1_555
N1B C1B 1_555 1_555
N2B H1B 1_555 1_555
C1B H3B 1_555 1_555
C2B C1B 1_555 1_555
H4B C2B 1_555 1_555
C3B C2B 1_555 1_555
H5B C3B 1_555 1_555
C4B C3B 1_555 1_555
H6B C4B 1_555 1_555
C5B N1B 1_555 1_555
C6B C5B 1_555 1_555
H7B C6B 1_555 1_555
H8B C6B 1_555 1_555
C7B N2B 1_555 1_555
H9B C7B 1_555 1_555
H10B C7B 1_555 1_555
C8B N2B 1_555 1_555
C9B C10A 1_555 1_555
C10B C9 1_555 1_555
H11B C10B 1_555 1_555
O2A C18A 1_555 1_555
N3A C11A 1_555 1_555
N4A H2A 1_555 1_555
C11A H12A 1_555 1_555
C12A C11A 1_555 1_555
H13A C12A 1_555 1_555
C13A C12A 1_555 1_555
H14A C13A 1_555 1_555
C14A C13A 1_555 1_555
H15A C14A 1_555 1_555
C15A N3A 1_555 1_555
C16A C15A 1_555 1_555
H16A C16A 1_555 1_555
H17A C16A 1_555 1_555
C17A N4A 1_555 1_555
H18A C17A 1_555 1_555
H19A C17A 1_555 1_555
C18A N4A 1_555 1_555
C19A C18A 1_555 1_555
C20A C19 1_555 1_555
H20A C20A 1_555 1_555
O2B C18B 1_555 1_555
N3B C11B 1_555 1_555
N4B H2B 1_555 1_555
C11B H12B 1_555 1_555
C12B C11B 1_555 1_555
H13B C12B 1_555 1_555
C13B C12B 1_555 1_555
H14B C13B 1_555 1_555
C14B C13B 1_555 1_555
H15B C14B 1_555 1_555
C15B N3B 1_555 1_555
C16B C15B 1_555 1_555
H16B C16B 1_555 1_555
H17B C16B 1_555 1_555
C17B N4B 1_555 1_555
H18B C17B 1_555 1_555
H19B C17B 1_555 1_555
C18B N4B 1_555 1_555
C19B C20 1_555 1_555
C20B C19A 1_555 1_555
H20B C20B 1_555 1_555
Pd1A N1A 1_555 1_555
Cl1A Pd1A 1_555 1_555
Cl2A Pd1A 1_555 1_555
Pd1B N1B 1_555 1_555
Cl1B Pd1B 1_555 1_555
Cl2B Pd1B 1_555 1_555
O3A C28A 1_555 1_555
N5A C21A 1_555 1_555
N6A H21A 1_555 1_555
C21A H22A 1_555 1_555
C22A C21A 1_555 1_555
H23A C22A 1_555 1_555
C23A C22A 1_555 1_555
H24A C23A 1_555 1_555
C24A C23A 1_555 1_555
H25A C24A 1_555 1_555
C25A N5A 1_555 1_555
C26A C25A 1_555 1_555
H26A C26A 1_555 1_555
H27A C26A 1_555 1_555
C27A N6A 1_555 1_555
H28A C27A 1_555 1_555
H29A C27A 1_555 1_555
C28A N6A 1_555 1_555
C29A C28A 1_555 1_555
C30A C29 1_555 1_555
H30A C30A 1_555 1_555
O3B C28B 1_555 1_555
N5B C21B 1_555 1_555
N6B H21B 1_555 1_555
C21B H22B 1_555 1_555
C22B C21B 1_555 1_555
H23B C22B 1_555 1_555
C23B C22B 1_555 1_555
H24B C23B 1_555 1_555
C24B C23B 1_555 1_555
H25B C24B 1_555 1_555
C25B N5B 1_555 1_555
C26B C25B 1_555 1_555
H26B C26B 1_555 1_555
H27B C26B 1_555 1_555
C27B N6B 1_555 1_555
H28B C27B 1_555 1_555
H29B C27B 1_555 1_555
C28B N6B 1_555 1_555
C29B C30 1_555 1_555
C30B C29A 1_555 1_555
H30B C30B 1_555 1_555
O4A C39A 1_555 1_555
O5A C38A 1_555 1_555
N7A C31A 1_555 1_555
C31A H31A 1_555 1_555
C32A C31A 1_555 1_555
H32A C32A 1_555 1_555
C33A C32A 1_555 1_555
H33A C33A 1_555 1_555
C34A C33A 1_555 1_555
C35A N7A 1_555 1_555
H34A C35A 1_555 1_555
C36A C34A 1_555 1_555
H35A C36A 1_555 1_555
H36A C36A 1_555 1_555
C37A C36A 1_555 1_555
H37A C37A 1_555 1_555
H38A C37A 1_555 1_555
C38A C37A 1_555 1_555
H39A C38A 1_555 1_555
H40A C38A 1_555 1_555
C39A O5A 1_555 1_555
C40A C41 1_555 1_555
C41A C40A 1_555 1_555
H41A C41A 1_555 1_555
O4B C39B 1_555 1_555
O5B C38B 1_555 1_555
N7B C31B 1_555 1_555
C31B H31B 1_555 1_555
C32B C31B 1_555 1_555
H32B C32B 1_555 1_555
C33B C32B 1_555 1_555
H33B C33B 1_555 1_555
C34B C33B 1_555 1_555
C35B N7B 1_555 1_555
H34B C35B 1_555 1_555
C36B C34B 1_555 1_555
H35B C36B 1_555 1_555
H36B C36B 1_555 1_555
C37B C36B 1_555 1_555
H37B C37B 1_555 1_555
H38B C37B 1_555 1_555
C38B C37B 1_555 1_555
H39B C38B 1_555 1_555
H40B C38B 1_555 1_555
C39B O5B 1_555 1_555
C40B C41A 1_555 1_555
C41B C40 1_555 1_555
H41B C41B 1_555 1_555
Pd2A N5A 1_555 1_555
Cl3A Pd2A 1_555 1_555
Cl4A Pd2A 1_555 1_555
Pd2B N5B 1_555 1_555
Cl3B Pd2B 1_555 1_555
Cl4B Pd2B 1_555 1_555
C4 C5 1_555 1_555
C6 C7 1_555 1_555
C14 C15 1_555 1_555
C16 C17 1_555 1_555
C24 C25 1_555 1_555
C26 C27 1_555 1_555
C34 C35 1_555 1_555
C4A C5A 1_555 1_555
C6A C7A 1_555 1_555
C8A C9A 1_555 1_555
C4B C5B 1_555 1_555
C6B C7B 1_555 1_555
C8B C9B 1_555 1_555
C9B C10B 1_555 1_555
N3A Pd1A 1_555 1_555
C14A C15A 1_555 1_555
C16A C17A 1_555 1_555
C19A C20A 1_555 1_555
N3B Pd1B 1_555 1_555
C14B C15B 1_555 1_555
C16B C17B 1_555 1_555
C18B C19B 1_555 1_555
C19B C20B 1_555 1_555
C24A C25A 1_555 1_555
C26A C27A 1_555 1_555
C29A C30A 1_555 1_555
C24B C25B 1_555 1_555
C26B C27B 1_555 1_555
C28B C29B 1_555 1_555
C29B C30B 1_555 1_555
N7A Pd2A 1_555 1_555
C34A C35A 1_555 1_555
C39A C40A 1_555 1_555
N7B Pd2B 1_555 1_555
C34B C35B 1_555 1_555
C39B C40B 1_555 1_555
C40B C41B 1_555 1_555

#END
