
#######################################################################
#
#                 Cambridge Crystallographic Data Centre
#                                CCDC 
#
#######################################################################
#
# If this CIF has been generated from an entry in the Cambridge 
# Structural Database, then it will include bibliographic, chemical, 
# crystal, experimental, refinement or atomic coordinate data resulting 
# from the CCDC's data processing and validation procedures.
#
#######################################################################

data_VIQHIM
_chemical_formula_moiety         'C92 H92 N4 Si4 Zr2,2(C4 H10 O1),C5 H12'
_chemical_name_systematic        
'(\m~2~-2,3,10,11-tetrakis(Trimethylsilylmethylene)-6,7,14,15-tetraphenyl-5,8,13,16-tetra-aza-1,4,9,13(1,4)-tetrabenzenahexadecaphane-5,7,13,15-tetraene)-di-zirconocene diethyl ether pentane solvate'
_symmetry_cell_setting           monoclinic
_symmetry_space_group_name_H-M   'P 21/c'
_symmetry_Int_Tables_number      14
_space_group_name_Hall           '-P 2ybc'
loop_
_symmetry_equiv_pos_site_id
_symmetry_equiv_pos_as_xyz
1 x,y,z
2 -x,1/2+y,1/2-z
3 -x,-y,-z
4 x,1/2-y,1/2+z
_cell_length_a                   27.5002(1)
_cell_length_b                   24.1625(3)
_cell_length_c                   29.8723(1)
_cell_angle_alpha                90
_cell_angle_beta                 96.461(1)
_cell_angle_gamma                90
_cell_volume                     19723.3
_exptl_crystal_colour            yellow
_exptl_crystal_description       block
_cell_formula_units_Z            8
loop_
_atom_site_label
_atom_site_type_symbol
_atom_site_fract_x
_atom_site_fract_y
_atom_site_fract_z
Zr1 Zr -0.31880(8) 0.4631(1) 0.12224(6)
Zr2 Zr 0.01100(8) 0.2074(1) -0.05462(6)
Si1 Si -0.2890(3) 0.3218(4) 0.1687(2)
Si2 Si -0.2312(3) 0.5731(4) 0.0947(2)
Si3 Si -0.0609(2) 0.1025(3) 0.0020(2)
Si4 Si 0.0593(3) 0.3433(4) -0.0077(2)
N1 N -0.0664(6) 0.2876(8) 0.2438(5)
N2 N -0.1210(6) 0.1767(8) 0.1901(5)
N3 N 0.0145(6) 0.3820(9) 0.1977(5)
N4 N -0.0064(6) 0.5003(8) 0.1400(5)
C1 C -0.327(1) 0.542(1) 0.1784(9)
C2 C -0.3151(8) 0.490(1) 0.2035(7)
C3 C -0.3529(9) 0.453(1) 0.1986(7)
C4 C -0.3901(9) 0.479(1) 0.1664(8)
C5 C -0.375(1) 0.531(1) 0.1555(9)
C6 C -0.3283(7) 0.3935(10) 0.0583(6)
C7 C -0.3768(8) 0.411(1) 0.0666(6)
C8 C -0.3826(8) 0.468(1) 0.0540(6)
C9 C -0.3358(8) 0.485(1) 0.0393(6)
C10 C -0.3034(7) 0.439(1) 0.0419(6)
C11 C -0.0681(7) 0.1894(9) -0.1057(6)
C12 C -0.0784(7) 0.235(1) -0.0768(6)
C13 C -0.0498(7) 0.280(1) -0.0874(6)
C14 C -0.0199(8) 0.264(1) -0.1229(7)
C15 C -0.0318(7) 0.207(1) -0.1343(6)
C16 C 0.0623(8) 0.128(1) -0.0770(8)
C17 C 0.0736(8) 0.133(1) -0.0275(7)
C18 C 0.0974(8) 0.183(1) -0.0203(7)
C19 C 0.1028(8) 0.214(1) -0.0608(7)
C20 C 0.0808(9) 0.174(1) -0.0949(8)
C21 C -0.2720(7) 0.3912(10) 0.1518(6)
C22 C -0.2267(7) 0.4131(9) 0.1543(5)
C23 C -0.1838(7) 0.3790(10) 0.1775(6)
C24 C -0.1751(7) 0.3834(10) 0.2269(6)
C25 C -0.1360(8) 0.350(1) 0.2466(6)
C26 C -0.1082(8) 0.319(1) 0.2236(6)
C27 C -0.1177(7) 0.3136(9) 0.1737(6)
C28 C -0.1563(8) 0.348(1) 0.1536(6)
C29 C -0.0652(7) 0.234(1) 0.2455(6)
C30 C -0.1100(8) 0.200(1) 0.2308(7)
C31 C -0.0905(7) 0.1832(9) 0.1544(6)
C32 C -0.1225(7) 0.198(1) 0.1132(6)
C33 C -0.0970(7) 0.2047(9) 0.0753(6)
C34 C -0.0482(7) 0.1993(9) 0.0764(6)
C35 C -0.0178(7) 0.1823(9) 0.1182(6)
C36 C -0.0433(7) 0.1754(9) 0.1567(6)
C37 C -0.0213(7) 0.207(1) 0.0352(6)
C38 C -0.0263(7) 0.1671(9) 0.0013(6)
C39 C 0.0249(7) 0.2770(10) -0.0042(6)
C40 C 0.0049(7) 0.2581(9) 0.0319(6)
C41 C 0.0080(8) 0.296(1) 0.0749(6)
C42 C -0.0302(8) 0.328(1) 0.0837(6)
C43 C -0.0296(7) 0.3592(10) 0.1244(6)
C44 C 0.0165(8) 0.355(1) 0.1537(6)
C45 C 0.0560(7) 0.3243(9) 0.1456(6)
C46 C 0.0526(7) 0.2923(10) 0.1048(6)
C47 C 0.0185(7) 0.434(1) 0.2028(6)
C48 C 0.0270(8) 0.475(1) 0.1670(6)
C49 C -0.0568(7) 0.4913(9) 0.1424(6)
C50 C -0.0807(7) 0.4962(9) 0.1804(6)
C51 C -0.1294(7) 0.4905(10) 0.1799(6)
C52 C -0.1583(7) 0.4756(9) 0.1370(6)
C53 C -0.1352(7) 0.4731(10) 0.0992(6)
C54 C -0.0849(7) 0.4805(9) 0.0992(6)
C55 C -0.2130(7) 0.4674(10) 0.1361(6)
C56 C -0.2482(7) 0.507(1) 0.1197(6)
C57 C -0.0193(7) 0.207(1) 0.2649(6)
C58 C 0.0217(8) 0.2384(10) 0.2664(6)
C59 C 0.0677(8) 0.211(1) 0.2883(7)
C60 C 0.0631(8) 0.156(1) 0.3038(6)
C61 C 0.0196(9) 0.127(1) 0.3008(7)
C62 C -0.0263(8) 0.155(1) 0.2814(7)
C63 C -0.1476(8) 0.192(1) 0.2629(7)
C64 C -0.1369(8) 0.219(1) 0.3067(7)
C65 C -0.1722(9) 0.214(1) 0.3363(7)
C66 C -0.219(1) 0.185(1) 0.3267(9)
C67 C -0.2294(9) 0.159(1) 0.2805(8)
C68 C -0.1918(9) 0.164(1) 0.2506(7)
C69 C 0.0138(7) 0.453(1) 0.2522(6)
C70 C 0.0361(7) 0.504(1) 0.2630(6)
C71 C 0.0316(8) 0.525(1) 0.3107(7)
C72 C 0.0071(9) 0.492(1) 0.3361(8)
C73 C -0.0162(8) 0.441(1) 0.3256(7)
C74 C -0.0110(7) 0.4189(10) 0.2777(6)
C75 C 0.0774(9) 0.489(1) 0.1668(7)
C76 C 0.0874(10) 0.544(1) 0.1487(8)
C77 C 0.136(1) 0.563(2) 0.1499(10)
C78 C 0.174(1) 0.528(2) 0.170(1)
C79 C 0.165(1) 0.470(2) 0.181(1)
C80 C 0.1149(10) 0.454(1) 0.1858(7)
C81 C -0.260(1) 0.268(1) 0.1334(9)
C82 C -0.2709(8) 0.305(1) 0.2336(7)
C83 C -0.3571(8) 0.312(1) 0.1581(6)
C84 C -0.1768(7) 0.611(1) 0.1251(6)
C85 C -0.2842(9) 0.625(1) 0.0949(7)
C86 C -0.2165(8) 0.563(1) 0.0324(7)
C87 C -0.0518(7) 0.064(1) 0.0575(6)
C88 C -0.1290(7) 0.111(1) -0.0124(6)
C89 C -0.0395(7) 0.052(1) -0.0406(6)
C90 C 0.0297(9) 0.407(1) 0.0176(8)
C91 C 0.1247(9) 0.336(1) 0.0193(8)
C92 C 0.0625(8) 0.362(1) -0.0704(7)
Zr3 Zr 0.17872(8) 0.4120(1) 0.65696(6)
Zr4 Zr 0.55072(9) 0.2264(1) 0.42923(6)
Si5 Si 0.2437(2) 0.5377(3) 0.6246(2)
Si6 Si 0.2333(3) 0.2772(4) 0.7013(2)
Si7 Si 0.5928(3) 0.3623(4) 0.4785(2)
Si8 Si 0.4779(3) 0.1184(3) 0.4809(2)
N5 N 0.4778(6) 0.5010(8) 0.6321(5)
N6 N 0.5313(6) 0.3874(8) 0.6836(5)
N7 N 0.4238(6) 0.1647(8) 0.6731(5)
N8 N 0.4649(6) 0.2761(8) 0.7327(4)
C93 C 0.1656(8) 0.346(1) 0.5908(6)
C94 C 0.1825(7) 0.3972(10) 0.5737(6)
C95 C 0.1450(8) 0.4352(10) 0.5756(6)
C96 C 0.1059(8) 0.411(1) 0.5966(6)
C97 C 0.1192(8) 0.355(1) 0.6065(7)
C98 C 0.1104(8) 0.427(1) 0.7067(7)
C99 C 0.1483(9) 0.393(1) 0.7319(7)
C100 C 0.1901(8) 0.424(1) 0.7406(7)
C101 C 0.1832(8) 0.478(1) 0.7220(7)
C102 C 0.1320(8) 0.479(1) 0.7011(6)
C103 C 0.4916(7) 0.299(1) 0.3936(6)
C104 C 0.4614(8) 0.254(1) 0.4038(6)
C105 C 0.4711(7) 0.208(1) 0.3764(6)
C106 C 0.5076(7) 0.223(1) 0.3501(6)
C107 C 0.5229(7) 0.280(1) 0.3600(6)
C108 C 0.6116(7) 0.152(1) 0.4541(6)
C109 C 0.6369(7) 0.203(1) 0.4657(6)
C110 C 0.6434(8) 0.235(1) 0.4263(8)
C111 C 0.6237(8) 0.199(1) 0.3893(7)
C112 C 0.6039(8) 0.148(1) 0.4029(7)
C113 C 0.2406(7) 0.4638(9) 0.6453(5)
C114 C 0.2825(7) 0.4357(9) 0.6568(5)
C115 C 0.3311(7) 0.4554(9) 0.6521(6)
C116 C 0.3663(7) 0.4689(9) 0.6903(6)
C117 C 0.4129(7) 0.4824(9) 0.6854(6)
C118 C 0.4318(8) 0.4860(10) 0.6422(6)
C119 C 0.3971(7) 0.4710(10) 0.6028(6)
C120 C 0.3502(7) 0.4556(9) 0.6094(6)
C121 C 0.5185(8) 0.4812(10) 0.6507(6)
C122 C 0.5228(7) 0.438(1) 0.6894(6)
C123 C 0.5365(8) 0.364(1) 0.6397(6)
C124 C 0.5779(7) 0.3375(10) 0.6335(6)
C125 C 0.5802(7) 0.3111(9) 0.5895(6)
C126 C 0.5366(7) 0.3122(9) 0.5588(6)
C127 C 0.4954(8) 0.337(1) 0.5670(6)
C128 C 0.4917(7) 0.3646(10) 0.6069(6)
C129 C 0.5379(7) 0.275(1) 0.5144(6)
C130 C 0.5612(7) 0.2959(10) 0.4813(6)
C131 C 0.5134(7) 0.184(1) 0.4821(6)
C132 C 0.5123(7) 0.222(1) 0.5172(6)
C133 C 0.4883(7) 0.2086(9) 0.5578(6)
C134 C 0.4394(7) 0.2125(9) 0.5592(6)
C135 C 0.4167(7) 0.1981(10) 0.5971(6)
C136 C 0.4494(8) 0.1810(10) 0.6385(7)
C137 C 0.4986(7) 0.1789(9) 0.6367(6)
C138 C 0.5219(7) 0.1929(9) 0.5989(6)
C139 C 0.4334(7) 0.1836(9) 0.7155(6)
C140 C 0.4727(7) 0.2243(10) 0.7309(6)
C141 C 0.4170(7) 0.3009(9) 0.7186(6)
C142 C 0.4029(7) 0.3025(10) 0.6701(6)
C143 C 0.3575(7) 0.3288(10) 0.6594(6)
C144 C 0.3279(7) 0.3493(10) 0.6888(6)
C145 C 0.3445(7) 0.3445(10) 0.7363(6)
C146 C 0.3884(7) 0.3210(9) 0.7502(6)
C147 C 0.2797(7) 0.3773(9) 0.6749(5)
C148 C 0.2379(7) 0.3494(10) 0.6789(6)
C149 C 0.5651(8) 0.500(1) 0.6353(7)
C150 C 0.5592(8) 0.536(1) 0.5969(7)
C151 C 0.6038(10) 0.547(1) 0.5776(8)
C152 C 0.6517(9) 0.526(1) 0.5976(9)
C153 C 0.654(1) 0.493(1) 0.6337(9)
C154 C 0.6093(9) 0.478(1) 0.6537(7)
C155 C 0.5218(7) 0.457(1) 0.7385(6)
C156 C 0.5402(7) 0.512(1) 0.7493(6)
C157 C 0.5394(7) 0.528(1) 0.7962(7)
C158 C 0.5223(8) 0.490(1) 0.8264(7)
C159 C 0.5049(8) 0.438(1) 0.8142(7)
C160 C 0.5074(7) 0.421(1) 0.7673(7)
C161 C 0.4026(8) 0.162(1) 0.7472(7)
C162 C 0.3659(8) 0.125(1) 0.7367(7)
C163 C 0.3330(8) 0.105(1) 0.7653(7)
C164 C 0.3411(9) 0.124(1) 0.8129(8)
C165 C 0.3808(9) 0.163(1) 0.8239(7)
C166 C 0.4116(8) 0.183(1) 0.7932(7)
C167 C 0.5221(7) 0.2065(10) 0.7468(6)
C168 C 0.5304(7) 0.150(1) 0.7583(6)
C169 C 0.5805(8) 0.135(1) 0.7782(6)
C170 C 0.6177(8) 0.174(1) 0.7826(7)
C171 C 0.6088(8) 0.229(1) 0.7703(6)
C172 C 0.5602(7) 0.2456(9) 0.7513(6)
C173 C 0.2510(7) 0.5424(10) 0.5616(6)
C174 C 0.2930(7) 0.584(1) 0.6559(6)
C175 C 0.1852(7) 0.5751(10) 0.6312(6)
C176 C 0.2785(9) 0.226(1) 0.6839(8)
C177 C 0.2395(9) 0.279(1) 0.7689(8)
C178 C 0.1689(9) 0.247(1) 0.6834(7)
C179 C 0.6032(8) 0.383(1) 0.4168(7)
C180 C 0.6601(9) 0.357(1) 0.5091(8)
C181 C 0.5612(9) 0.424(1) 0.5004(8)
C182 C 0.4803(7) 0.078(1) 0.5351(6)
C183 C 0.4105(8) 0.129(1) 0.4597(6)
C184 C 0.5037(8) 0.070(1) 0.4368(7)
O1 O -0.168(4) 0.341(4) -0.002(2)
C186 C -0.114(3) 0.420(7) -0.026(3)
C187 C -0.137(5) 0.372(6) -0.014(3)
C189 C -0.215(4) 0.305(5) 0.007(3)
C204 C -0.231(7) 0.352(10) -0.037(6)
C198 C 0.345(2) 0.344(2) 0.509(2)
C199 C 0.367(6) 0.324(6) 0.467(5)
C201 C 0.303(5) 0.272(10) 0.519(4)
C203 C 0.294(5) 0.325(7) 0.518(3)
C215 C 0.252(4) 0.251(5) 0.536(3)
loop_
_geom_bond_atom_site_label_1
_geom_bond_atom_site_label_2
_geom_bond_site_symmetry_1
_geom_bond_site_symmetry_2
Zr1 C1 1_555 1_555
Zr2 C11 1_555 1_555
Zr3 C93 1_555 1_555
Zr4 C103 1_555 1_555
Si1 C21 1_555 1_555
Si2 C56 1_555 1_555
Si3 C38 1_555 1_555
Si4 C39 1_555 1_555
Si5 C113 1_555 1_555
Si6 C148 1_555 1_555
Si7 C130 1_555 1_555
Si8 C131 1_555 1_555
O1 C187 1_555 1_555
N1 C26 1_555 1_555
N2 C30 1_555 1_555
N3 C44 1_555 1_555
N4 C48 1_555 1_555
N5 C118 1_555 1_555
N6 C122 1_555 1_555
N7 C136 1_555 1_555
N8 C140 1_555 1_555
C1 C2 1_555 1_555
C2 Zr1 1_555 1_555
C3 Zr1 1_555 1_555
C4 Zr1 1_555 1_555
C5 Zr1 1_555 1_555
C6 Zr1 1_555 1_555
C7 Zr1 1_555 1_555
C8 Zr1 1_555 1_555
C9 Zr1 1_555 1_555
C10 Zr1 1_555 1_555
C11 C12 1_555 1_555
C12 Zr2 1_555 1_555
C13 Zr2 1_555 1_555
C14 Zr2 1_555 1_555
C15 Zr2 1_555 1_555
C16 Zr2 1_555 1_555
C17 Zr2 1_555 1_555
C18 Zr2 1_555 1_555
C19 Zr2 1_555 1_555
C20 Zr2 1_555 1_555
C21 Zr1 1_555 1_555
C22 C21 1_555 1_555
C23 C22 1_555 1_555
C24 C23 1_555 1_555
C25 C24 1_555 1_555
C26 C25 1_555 1_555
C27 C26 1_555 1_555
C28 C23 1_555 1_555
C29 N1 1_555 1_555
C30 C29 1_555 1_555
C31 N2 1_555 1_555
C32 C31 1_555 1_555
C33 C32 1_555 1_555
C34 C33 1_555 1_555
C35 C34 1_555 1_555
C36 C31 1_555 1_555
C37 C34 1_555 1_555
C38 Zr2 1_555 1_555
C39 Zr2 1_555 1_555
C40 C37 1_555 1_555
C41 C40 1_555 1_555
C42 C41 1_555 1_555
C43 C42 1_555 1_555
C44 C43 1_555 1_555
C45 C44 1_555 1_555
C46 C41 1_555 1_555
C47 N3 1_555 1_555
C48 C47 1_555 1_555
C49 N4 1_555 1_555
C50 C49 1_555 1_555
C51 C50 1_555 1_555
C52 C51 1_555 1_555
C53 C52 1_555 1_555
C54 C49 1_555 1_555
C55 C22 1_555 1_555
C56 Zr1 1_555 1_555
C57 C29 1_555 1_555
C58 C57 1_555 1_555
C59 C58 1_555 1_555
C60 C59 1_555 1_555
C61 C60 1_555 1_555
C62 C57 1_555 1_555
C63 C30 1_555 1_555
C64 C63 1_555 1_555
C65 C64 1_555 1_555
C66 C65 1_555 1_555
C67 C66 1_555 1_555
C68 C63 1_555 1_555
C69 C47 1_555 1_555
C70 C69 1_555 1_555
C71 C70 1_555 1_555
C72 C71 1_555 1_555
C73 C72 1_555 1_555
C74 C69 1_555 1_555
C75 C48 1_555 1_555
C76 C75 1_555 1_555
C77 C76 1_555 1_555
C78 C77 1_555 1_555
C79 C78 1_555 1_555
C80 C75 1_555 1_555
C81 Si1 1_555 1_555
C82 Si1 1_555 1_555
C83 Si1 1_555 1_555
C84 Si2 1_555 1_555
C85 Si2 1_555 1_555
C86 Si2 1_555 1_555
C87 Si3 1_555 1_555
C88 Si3 1_555 1_555
C89 Si3 1_555 1_555
C90 Si4 1_555 1_555
C91 Si4 1_555 1_555
C92 Si4 1_555 1_555
C93 C94 1_555 1_555
C94 Zr3 1_555 1_555
C95 Zr3 1_555 1_555
C96 Zr3 1_555 1_555
C97 Zr3 1_555 1_555
C98 Zr3 1_555 1_555
C99 Zr3 1_555 1_555
C100 Zr3 1_555 1_555
C101 Zr3 1_555 1_555
C102 Zr3 1_555 1_555
C103 C104 1_555 1_555
C104 Zr4 1_555 1_555
C105 Zr4 1_555 1_555
C106 Zr4 1_555 1_555
C107 Zr4 1_555 1_555
C108 Zr4 1_555 1_555
C109 Zr4 1_555 1_555
C110 Zr4 1_555 1_555
C111 Zr4 1_555 1_555
C112 Zr4 1_555 1_555
C113 Zr3 1_555 1_555
C114 C113 1_555 1_555
C115 C114 1_555 1_555
C116 C115 1_555 1_555
C117 C116 1_555 1_555
C118 C117 1_555 1_555
C119 C118 1_555 1_555
C120 C115 1_555 1_555
C121 N5 1_555 1_555
C122 C121 1_555 1_555
C123 N6 1_555 1_555
C124 C123 1_555 1_555
C125 C124 1_555 1_555
C126 C125 1_555 1_555
C127 C126 1_555 1_555
C128 C123 1_555 1_555
C129 C126 1_555 1_555
C130 Zr4 1_555 1_555
C131 Zr4 1_555 1_555
C132 C129 1_555 1_555
C133 C132 1_555 1_555
C134 C133 1_555 1_555
C135 C134 1_555 1_555
C136 C135 1_555 1_555
C137 C136 1_555 1_555
C138 C133 1_555 1_555
C139 N7 1_555 1_555
C140 C139 1_555 1_555
C141 N8 1_555 1_555
C142 C141 1_555 1_555
C143 C142 1_555 1_555
C144 C143 1_555 1_555
C145 C144 1_555 1_555
C146 C141 1_555 1_555
C147 C114 1_555 1_555
C148 Zr3 1_555 1_555
C149 C121 1_555 1_555
C150 C149 1_555 1_555
C151 C150 1_555 1_555
C152 C151 1_555 1_555
C153 C152 1_555 1_555
C154 C149 1_555 1_555
C155 C122 1_555 1_555
C156 C155 1_555 1_555
C157 C156 1_555 1_555
C158 C157 1_555 1_555
C159 C158 1_555 1_555
C160 C155 1_555 1_555
C161 C139 1_555 1_555
C162 C161 1_555 1_555
C163 C162 1_555 1_555
C164 C163 1_555 1_555
C165 C164 1_555 1_555
C166 C161 1_555 1_555
C167 C140 1_555 1_555
C168 C167 1_555 1_555
C169 C168 1_555 1_555
C170 C169 1_555 1_555
C171 C170 1_555 1_555
C172 C167 1_555 1_555
C173 Si5 1_555 1_555
C174 Si5 1_555 1_555
C175 Si5 1_555 1_555
C176 Si6 1_555 1_555
C177 Si6 1_555 1_555
C178 Si6 1_555 1_555
C179 Si7 1_555 1_555
C180 Si7 1_555 1_555
C181 Si7 1_555 1_555
C182 Si8 1_555 1_555
C183 Si8 1_555 1_555
C184 Si8 1_555 1_555
C186 C187 1_555 1_555
C189 O1 1_555 1_555
C198 C199 1_555 1_555
C201 C203 1_555 1_555
C203 C198 1_555 1_555
C204 C189 1_555 1_555
C215 C201 1_555 1_555
C1 C5 1_555 1_555
C2 C3 1_555 1_555
C3 C4 1_555 1_555
C4 C5 1_555 1_555
C6 C7 1_555 1_555
C6 C10 1_555 1_555
C7 C8 1_555 1_555
C8 C9 1_555 1_555
C9 C10 1_555 1_555
C11 C15 1_555 1_555
C12 C13 1_555 1_555
C13 C14 1_555 1_555
C14 C15 1_555 1_555
C16 C17 1_555 1_555
C16 C20 1_555 1_555
C17 C18 1_555 1_555
C18 C19 1_555 1_555
C19 C20 1_555 1_555
C27 C28 1_555 1_555
C35 C36 1_555 1_555
C37 C38 1_555 1_555
C39 C40 1_555 1_555
C45 C46 1_555 1_555
C52 C55 1_555 1_555
C53 C54 1_555 1_555
C55 C56 1_555 1_555
C61 C62 1_555 1_555
C67 C68 1_555 1_555
C73 C74 1_555 1_555
C79 C80 1_555 1_555
C93 C97 1_555 1_555
C94 C95 1_555 1_555
C95 C96 1_555 1_555
C96 C97 1_555 1_555
C98 C99 1_555 1_555
C98 C102 1_555 1_555
C99 C100 1_555 1_555
C100 C101 1_555 1_555
C101 C102 1_555 1_555
C103 C107 1_555 1_555
C104 C105 1_555 1_555
C105 C106 1_555 1_555
C106 C107 1_555 1_555
C108 C109 1_555 1_555
C108 C112 1_555 1_555
C109 C110 1_555 1_555
C110 C111 1_555 1_555
C111 C112 1_555 1_555
C119 C120 1_555 1_555
C127 C128 1_555 1_555
C129 C130 1_555 1_555
C131 C132 1_555 1_555
C137 C138 1_555 1_555
C144 C147 1_555 1_555
C145 C146 1_555 1_555
C147 C148 1_555 1_555
C153 C154 1_555 1_555
C159 C160 1_555 1_555
C165 C166 1_555 1_555
C171 C172 1_555 1_555

#END
