# generated using pymatgen
data_Zr4Si8C218N8O7
_symmetry_space_group_name_H-M   'P 1'
_cell_length_a   24.16250000
_cell_length_b   27.50020000
_cell_length_c   29.87230000
_cell_angle_alpha   96.46100000
_cell_angle_beta   90.00000000
_cell_angle_gamma   90.00000000
_symmetry_Int_Tables_number   1
_chemical_formula_structural   Zr4Si8C218N8O7
_chemical_formula_sum   'Zr16 Si32 C872 N32 O28'
_cell_volume   19723.28460777
_cell_formula_units_Z   4
loop_
 _symmetry_equiv_pos_site_id
 _symmetry_equiv_pos_as_xyz
  1  'x, y, z'
loop_
 _atom_site_type_symbol
 _atom_site_label
 _atom_site_symmetry_multiplicity
 _atom_site_fract_x
 _atom_site_fract_y
 _atom_site_fract_z
 _atom_site_occupancy
  Zr  Zr1  1  0.536900  0.318800  0.877760  1
  Zr  Zr2  1  0.036900  0.681200  0.622240  1
  Zr  Zr3  1  0.463100  0.681200  0.122240  1
  Zr  Zr4  1  0.963100  0.318800  0.377760  1
  Zr  Zr5  1  0.792600  0.989000  0.054620  1
  Zr  Zr6  1  0.292600  0.011000  0.445380  1
  Zr  Zr7  1  0.207400  0.011000  0.945380  1
  Zr  Zr8  1  0.707400  0.989000  0.554620  1
  Zr  Zr9  1  0.588000  0.821280  0.343040  1
  Zr  Zr10  1  0.088000  0.178720  0.156960  1
  Zr  Zr11  1  0.412000  0.178720  0.656960  1
  Zr  Zr12  1  0.912000  0.821280  0.843040  1
  Zr  Zr13  1  0.773600  0.449280  0.570770  1
  Zr  Zr14  1  0.273600  0.550720  0.929230  1
  Zr  Zr15  1  0.226400  0.550720  0.429230  1
  Zr  Zr16  1  0.726400  0.449280  0.070770  1
  Si  Si17  1  0.678200  0.289000  0.831300  1
  Si  Si18  1  0.178200  0.711000  0.668700  1
  Si  Si19  1  0.321800  0.711000  0.168700  1
  Si  Si20  1  0.821800  0.289000  0.331300  1
  Si  Si21  1  0.426900  0.231200  0.905300  1
  Si  Si22  1  0.926900  0.768800  0.594700  1
  Si  Si23  1  0.573100  0.768800  0.094700  1
  Si  Si24  1  0.073100  0.231200  0.405300  1
  Si  Si25  1  0.897500  0.060900  0.998000  1
  Si  Si26  1  0.397500  0.939100  0.502000  1
  Si  Si27  1  0.102500  0.939100  0.002000  1
  Si  Si28  1  0.602500  0.060900  0.498000  1
  Si  Si29  1  0.656700  0.940700  0.007700  1
  Si  Si30  1  0.156700  0.059300  0.492300  1
  Si  Si31  1  0.343300  0.059300  0.992300  1
  Si  Si32  1  0.843300  0.940700  0.507700  1
  Si  Si33  1  0.462300  0.756300  0.375400  1
  Si  Si34  1  0.962300  0.243700  0.124600  1
  Si  Si35  1  0.537700  0.243700  0.624600  1
  Si  Si36  1  0.037700  0.756300  0.875400  1
  Si  Si37  1  0.722800  0.766700  0.298700  1
  Si  Si38  1  0.222800  0.233300  0.201300  1
  Si  Si39  1  0.277200  0.233300  0.701300  1
  Si  Si40  1  0.777200  0.766700  0.798700  1
  Si  Si41  1  0.637700  0.407200  0.521500  1
  Si  Si42  1  0.137700  0.592800  0.978500  1
  Si  Si43  1  0.362300  0.592800  0.478500  1
  Si  Si44  1  0.862300  0.407200  0.021500  1
  Si  Si45  1  0.881600  0.522100  0.519100  1
  Si  Si46  1  0.381600  0.477900  0.980900  1
  Si  Si47  1  0.118400  0.477900  0.480900  1
  Si  Si48  1  0.618400  0.522100  0.019100  1
  C  C49  1  0.458000  0.327000  0.821600  1
  C  C50  1  0.958000  0.673000  0.678400  1
  C  C51  1  0.542000  0.673000  0.178400  1
  C  C52  1  0.042000  0.327000  0.321600  1
  C  C53  1  0.510000  0.315100  0.796500  1
  C  C54  1  0.010000  0.684900  0.703500  1
  C  C55  1  0.490000  0.684900  0.203500  1
  C  C56  1  0.990000  0.315100  0.296500  1
  C  C57  1  0.547000  0.352900  0.801400  1
  C  C58  1  0.047000  0.647100  0.698600  1
  C  C59  1  0.453000  0.647100  0.198600  1
  C  C60  1  0.953000  0.352900  0.301400  1
  C  C61  1  0.521000  0.390100  0.833600  1
  C  C62  1  0.021000  0.609900  0.666400  1
  C  C63  1  0.479000  0.609900  0.166400  1
  C  C64  1  0.979000  0.390100  0.333600  1
  C  C65  1  0.469000  0.375000  0.844500  1
  C  C66  1  0.969000  0.625000  0.655500  1
  C  C67  1  0.531000  0.625000  0.155500  1
  C  C68  1  0.031000  0.375000  0.344500  1
  C  C69  1  0.606500  0.328300  0.941700  1
  C  C70  1  0.106500  0.671700  0.558300  1
  C  C71  1  0.393500  0.671700  0.058300  1
  C  C72  1  0.893500  0.328300  0.441700  1
  C  C73  1  0.589000  0.376800  0.933400  1
  C  C74  1  0.089000  0.623200  0.566600  1
  C  C75  1  0.411000  0.623200  0.066600  1
  C  C76  1  0.911000  0.376800  0.433400  1
  C  C77  1  0.532000  0.382600  0.946000  1
  C  C78  1  0.032000  0.617400  0.554000  1
  C  C79  1  0.468000  0.617400  0.054000  1
  C  C80  1  0.968000  0.382600  0.446000  1
  C  C81  1  0.515000  0.335800  0.960700  1
  C  C82  1  0.015000  0.664200  0.539300  1
  C  C83  1  0.485000  0.664200  0.039300  1
  C  C84  1  0.985000  0.335800  0.460700  1
  C  C85  1  0.561000  0.303400  0.958100  1
  C  C86  1  0.061000  0.696600  0.541900  1
  C  C87  1  0.439000  0.696600  0.041900  1
  C  C88  1  0.939000  0.303400  0.458100  1
  C  C89  1  0.810600  0.068100  0.105700  1
  C  C90  1  0.310600  0.931900  0.394300  1
  C  C91  1  0.189400  0.931900  0.894300  1
  C  C92  1  0.689400  0.068100  0.605700  1
  C  C93  1  0.765000  0.078400  0.076800  1
  C  C94  1  0.265000  0.921600  0.423200  1
  C  C95  1  0.235000  0.921600  0.923200  1
  C  C96  1  0.735000  0.078400  0.576800  1
  C  C97  1  0.720000  0.049800  0.087400  1
  C  C98  1  0.220000  0.950200  0.412600  1
  C  C99  1  0.280000  0.950200  0.912600  1
  C  C100  1  0.780000  0.049800  0.587400  1
  C  C101  1  0.736000  0.019900  0.122900  1
  C  C102  1  0.236000  0.980100  0.377100  1
  C  C103  1  0.264000  0.980100  0.877100  1
  C  C104  1  0.764000  0.019900  0.622900  1
  C  C105  1  0.793000  0.031800  0.134300  1
  C  C106  1  0.293000  0.968200  0.365700  1
  C  C107  1  0.207000  0.968200  0.865700  1
  C  C108  1  0.707000  0.031800  0.634300  1
  C  C109  1  0.872000  0.937700  0.077000  1
  C  C110  1  0.372000  0.062300  0.423000  1
  C  C111  1  0.128000  0.062300  0.923000  1
  C  C112  1  0.628000  0.937700  0.577000  1
  C  C113  1  0.867000  0.926400  0.027500  1
  C  C114  1  0.367000  0.073600  0.472500  1
  C  C115  1  0.133000  0.073600  0.972500  1
  C  C116  1  0.633000  0.926400  0.527500  1
  C  C117  1  0.817000  0.902600  0.020300  1
  C  C118  1  0.317000  0.097400  0.479700  1
  C  C119  1  0.183000  0.097400  0.979700  1
  C  C120  1  0.683000  0.902600  0.520300  1
  C  C121  1  0.786000  0.897200  0.060800  1
  C  C122  1  0.286000  0.102800  0.439200  1
  C  C123  1  0.214000  0.102800  0.939200  1
  C  C124  1  0.714000  0.897200  0.560800  1
  C  C125  1  0.826000  0.919200  0.094900  1
  C  C126  1  0.326000  0.080800  0.405100  1
  C  C127  1  0.174000  0.080800  0.905100  1
  C  C128  1  0.674000  0.919200  0.594900  1
  C  C129  1  0.608800  0.272000  0.848200  1
  C  C130  1  0.108800  0.728000  0.651800  1
  C  C131  1  0.391200  0.728000  0.151800  1
  C  C132  1  0.891200  0.272000  0.348200  1
  C  C133  1  0.586900  0.226700  0.845700  1
  C  C134  1  0.086900  0.773300  0.654300  1
  C  C135  1  0.413100  0.773300  0.154300  1
  C  C136  1  0.913100  0.226700  0.345700  1
  C  C137  1  0.621000  0.183800  0.822500  1
  C  C138  1  0.121000  0.816200  0.677500  1
  C  C139  1  0.379000  0.816200  0.177500  1
  C  C140  1  0.879000  0.183800  0.322500  1
  C  C141  1  0.616600  0.175100  0.773100  1
  C  C142  1  0.116600  0.824900  0.726900  1
  C  C143  1  0.383400  0.824900  0.226900  1
  C  C144  1  0.883400  0.175100  0.273100  1
  C  C145  1  0.650000  0.136000  0.753400  1
  C  C146  1  0.150000  0.864000  0.746600  1
  C  C147  1  0.350000  0.864000  0.246600  1
  C  C148  1  0.850000  0.136000  0.253400  1
  C  C149  1  0.681000  0.108200  0.776400  1
  C  C150  1  0.181000  0.891800  0.723600  1
  C  C151  1  0.319000  0.891800  0.223600  1
  C  C152  1  0.819000  0.108200  0.276400  1
  C  C153  1  0.686400  0.117700  0.826300  1
  C  C154  1  0.186400  0.882300  0.673700  1
  C  C155  1  0.313600  0.882300  0.173700  1
  C  C156  1  0.813600  0.117700  0.326300  1
  C  C157  1  0.652000  0.156300  0.846400  1
  C  C158  1  0.152000  0.843700  0.653600  1
  C  C159  1  0.348000  0.843700  0.153600  1
  C  C160  1  0.848000  0.156300  0.346400  1
  C  C161  1  0.766000  0.065200  0.754500  1
  C  C162  1  0.266000  0.934800  0.745500  1
  C  C163  1  0.234000  0.934800  0.245500  1
  C  C164  1  0.734000  0.065200  0.254500  1
  C  C165  1  0.800000  0.110000  0.769200  1
  C  C166  1  0.300000  0.890000  0.730800  1
  C  C167  1  0.200000  0.890000  0.230800  1
  C  C168  1  0.700000  0.110000  0.269200  1
  C  C169  1  0.816800  0.090500  0.845600  1
  C  C170  1  0.316800  0.909500  0.654400  1
  C  C171  1  0.183200  0.909500  0.154400  1
  C  C172  1  0.683200  0.090500  0.345600  1
  C  C173  1  0.802000  0.122500  0.886800  1
  C  C174  1  0.302000  0.877500  0.613200  1
  C  C175  1  0.198000  0.877500  0.113200  1
  C  C176  1  0.698000  0.122500  0.386800  1
  C  C177  1  0.795300  0.097000  0.924700  1
  C  C178  1  0.295300  0.903000  0.575300  1
  C  C179  1  0.204700  0.903000  0.075300  1
  C  C180  1  0.704700  0.097000  0.424700  1
  C  C181  1  0.800700  0.048200  0.923600  1
  C  C182  1  0.300700  0.951800  0.576400  1
  C  C183  1  0.199300  0.951800  0.076400  1
  C  C184  1  0.699300  0.048200  0.423600  1
  C  C185  1  0.817700  0.017800  0.881800  1
  C  C186  1  0.317700  0.982200  0.618200  1
  C  C187  1  0.182300  0.982200  0.118200  1
  C  C188  1  0.682300  0.017800  0.381800  1
  C  C189  1  0.824600  0.043300  0.843300  1
  C  C190  1  0.324600  0.956700  0.656700  1
  C  C191  1  0.175400  0.956700  0.156700  1
  C  C192  1  0.675400  0.043300  0.343300  1
  C  C193  1  0.793000  0.021300  0.964800  1
  C  C194  1  0.293000  0.978700  0.535200  1
  C  C195  1  0.207000  0.978700  0.035200  1
  C  C196  1  0.707000  0.021300  0.464800  1
  C  C197  1  0.832900  0.026300  0.998700  1
  C  C198  1  0.332900  0.973700  0.501300  1
  C  C199  1  0.167100  0.973700  0.001300  1
  C  C200  1  0.667100  0.026300  0.498700  1
  C  C201  1  0.723000  0.975100  0.004200  1
  C  C202  1  0.223000  0.024900  0.495800  1
  C  C203  1  0.277000  0.024900  0.995800  1
  C  C204  1  0.777000  0.975100  0.504200  1
  C  C205  1  0.741900  0.995100  0.968100  1
  C  C206  1  0.241900  0.004900  0.531900  1
  C  C207  1  0.258100  0.004900  0.031900  1
  C  C208  1  0.758100  0.995100  0.468100  1
  C  C209  1  0.704000  0.992000  0.925100  1
  C  C210  1  0.204000  0.008000  0.574900  1
  C  C211  1  0.296000  0.008000  0.074900  1
  C  C212  1  0.796000  0.992000  0.425100  1
  C  C213  1  0.672000  0.030200  0.916300  1
  C  C214  1  0.172000  0.969800  0.583700  1
  C  C215  1  0.328000  0.969800  0.083700  1
  C  C216  1  0.828000  0.030200  0.416300  1
  C  C217  1  0.640800  0.029600  0.875600  1
  C  C218  1  0.140800  0.970400  0.624400  1
  C  C219  1  0.359200  0.970400  0.124400  1
  C  C220  1  0.859200  0.029600  0.375600  1
  C  C221  1  0.645000  0.983500  0.846300  1
  C  C222  1  0.145000  0.016500  0.653700  1
  C  C223  1  0.355000  0.016500  0.153700  1
  C  C224  1  0.855000  0.983500  0.346300  1
  C  C225  1  0.675700  0.944000  0.854400  1
  C  C226  1  0.175700  0.056000  0.645600  1
  C  C227  1  0.324300  0.056000  0.145600  1
  C  C228  1  0.824300  0.944000  0.354400  1
  C  C229  1  0.707700  0.947400  0.895200  1
  C  C230  1  0.207700  0.052600  0.604800  1
  C  C231  1  0.292300  0.052600  0.104800  1
  C  C232  1  0.792300  0.947400  0.395200  1
  C  C233  1  0.566000  0.981500  0.797200  1
  C  C234  1  0.066000  0.018500  0.702800  1
  C  C235  1  0.434000  0.018500  0.202800  1
  C  C236  1  0.934000  0.981500  0.297200  1
  C  C237  1  0.525000  0.973000  0.833000  1
  C  C238  1  0.025000  0.027000  0.667000  1
  C  C239  1  0.475000  0.027000  0.167000  1
  C  C240  1  0.975000  0.973000  0.333000  1
  C  C241  1  0.508700  0.056800  0.857600  1
  C  C242  1  0.008700  0.943200  0.642400  1
  C  C243  1  0.491300  0.943200  0.142400  1
  C  C244  1  0.991300  0.056800  0.357600  1
  C  C245  1  0.503800  0.080700  0.819600  1
  C  C246  1  0.003800  0.919300  0.680400  1
  C  C247  1  0.496200  0.919300  0.180400  1
  C  C248  1  0.996200  0.080700  0.319600  1
  C  C249  1  0.509500  0.129400  0.820100  1
  C  C250  1  0.009500  0.870600  0.679900  1
  C  C251  1  0.490500  0.870600  0.179900  1
  C  C252  1  0.990500  0.129400  0.320100  1
  C  C253  1  0.524400  0.158300  0.863000  1
  C  C254  1  0.024400  0.841700  0.637000  1
  C  C255  1  0.475600  0.841700  0.137000  1
  C  C256  1  0.975600  0.158300  0.363000  1
  C  C257  1  0.526900  0.135200  0.900800  1
  C  C258  1  0.026900  0.864800  0.599200  1
  C  C259  1  0.473100  0.864800  0.099200  1
  C  C260  1  0.973100  0.135200  0.400800  1
  C  C261  1  0.519500  0.084900  0.900800  1
  C  C262  1  0.019500  0.915100  0.599200  1
  C  C263  1  0.480500  0.915100  0.099200  1
  C  C264  1  0.980500  0.084900  0.400800  1
  C  C265  1  0.532600  0.213000  0.863900  1
  C  C266  1  0.032600  0.787000  0.636100  1
  C  C267  1  0.467400  0.787000  0.136100  1
  C  C268  1  0.967400  0.213000  0.363900  1
  C  C269  1  0.493000  0.248200  0.880300  1
  C  C270  1  0.993000  0.751800  0.619700  1
  C  C271  1  0.507000  0.751800  0.119700  1
  C  C272  1  0.007000  0.248200  0.380300  1
  C  C273  1  0.793000  0.019300  0.735100  1
  C  C274  1  0.293000  0.980700  0.764900  1
  C  C275  1  0.207000  0.980700  0.264900  1
  C  C276  1  0.707000  0.019300  0.235100  1
  C  C277  1  0.761600  0.978300  0.733600  1
  C  C278  1  0.261600  0.021700  0.766400  1
  C  C279  1  0.238400  0.021700  0.266400  1
  C  C280  1  0.738400  0.978300  0.233600  1
  C  C281  1  0.789000  0.932300  0.711700  1
  C  C282  1  0.289000  0.067700  0.788300  1
  C  C283  1  0.211000  0.067700  0.288300  1
  C  C284  1  0.711000  0.932300  0.211700  1
  C  C285  1  0.844000  0.936900  0.696200  1
  C  C286  1  0.344000  0.063100  0.803800  1
  C  C287  1  0.156000  0.063100  0.303800  1
  C  C288  1  0.656000  0.936900  0.196200  1
  C  C289  1  0.873000  0.980400  0.699200  1
  C  C290  1  0.373000  0.019600  0.800800  1
  C  C291  1  0.127000  0.019600  0.300800  1
  C  C292  1  0.627000  0.980400  0.199200  1
  C  C293  1  0.845000  0.026300  0.718600  1
  C  C294  1  0.345000  0.973700  0.781400  1
  C  C295  1  0.155000  0.973700  0.281400  1
  C  C296  1  0.655000  0.026300  0.218600  1
  C  C297  1  0.808000  0.147600  0.737100  1
  C  C298  1  0.308000  0.852400  0.762900  1
  C  C299  1  0.192000  0.852400  0.262900  1
  C  C300  1  0.692000  0.147600  0.237100  1
  C  C301  1  0.781000  0.136900  0.693300  1
  C  C302  1  0.281000  0.863100  0.806700  1
  C  C303  1  0.219000  0.863100  0.306700  1
  C  C304  1  0.719000  0.136900  0.193300  1
  C  C305  1  0.786000  0.172200  0.663700  1
  C  C306  1  0.286000  0.827800  0.836300  1
  C  C307  1  0.214000  0.827800  0.336300  1
  C  C308  1  0.714000  0.172200  0.163700  1
  C  C309  1  0.815000  0.219000  0.673300  1
  C  C310  1  0.315000  0.781000  0.826700  1
  C  C311  1  0.185000  0.781000  0.326700  1
  C  C312  1  0.685000  0.219000  0.173300  1
  C  C313  1  0.841000  0.229400  0.719500  1
  C  C314  1  0.341000  0.770600  0.780500  1
  C  C315  1  0.159000  0.770600  0.280500  1
  C  C316  1  0.659000  0.229400  0.219500  1
  C  C317  1  0.836000  0.191800  0.749400  1
  C  C318  1  0.336000  0.808200  0.750600  1
  C  C319  1  0.164000  0.808200  0.250600  1
  C  C320  1  0.664000  0.191800  0.249400  1
  C  C321  1  0.547000  0.986200  0.747800  1
  C  C322  1  0.047000  0.013800  0.752200  1
  C  C323  1  0.453000  0.013800  0.252200  1
  C  C324  1  0.953000  0.986200  0.247800  1
  C  C325  1  0.496000  0.963900  0.737000  1
  C  C326  1  0.996000  0.036100  0.763000  1
  C  C327  1  0.504000  0.036100  0.263000  1
  C  C328  1  0.004000  0.963900  0.237000  1
  C  C329  1  0.475000  0.968400  0.689300  1
  C  C330  1  0.975000  0.031600  0.810700  1
  C  C331  1  0.525000  0.031600  0.310700  1
  C  C332  1  0.025000  0.968400  0.189300  1
  C  C333  1  0.508000  0.992900  0.663900  1
  C  C334  1  0.008000  0.007100  0.836100  1
  C  C335  1  0.492000  0.007100  0.336100  1
  C  C336  1  0.992000  0.992900  0.163900  1
  C  C337  1  0.559000  0.016200  0.674400  1
  C  C338  1  0.059000  0.983800  0.825600  1
  C  C339  1  0.441000  0.983800  0.325600  1
  C  C340  1  0.941000  0.016200  0.174400  1
  C  C341  1  0.581100  0.011000  0.722300  1
  C  C342  1  0.081100  0.989000  0.777700  1
  C  C343  1  0.418900  0.989000  0.277700  1
  C  C344  1  0.918900  0.011000  0.222300  1
  C  C345  1  0.511000  0.922600  0.833200  1
  C  C346  1  0.011000  0.077400  0.666800  1
  C  C347  1  0.489000  0.077400  0.166800  1
  C  C348  1  0.989000  0.922600  0.333200  1
  C  C349  1  0.456000  0.912600  0.851300  1
  C  C350  1  0.956000  0.087400  0.648700  1
  C  C351  1  0.544000  0.087400  0.148700  1
  C  C352  1  0.044000  0.912600  0.351300  1
  C  C353  1  0.437000  0.864000  0.850100  1
  C  C354  1  0.937000  0.136000  0.649900  1
  C  C355  1  0.563000  0.136000  0.149900  1
  C  C356  1  0.063000  0.864000  0.350100  1
  C  C357  1  0.472000  0.826000  0.830000  1
  C  C358  1  0.972000  0.174000  0.670000  1
  C  C359  1  0.528000  0.174000  0.170000  1
  C  C360  1  0.028000  0.826000  0.330000  1
  C  C361  1  0.530000  0.835000  0.819000  1
  C  C362  1  0.030000  0.165000  0.681000  1
  C  C363  1  0.470000  0.165000  0.181000  1
  C  C364  1  0.970000  0.835000  0.319000  1
  C  C365  1  0.546000  0.885100  0.814200  1
  C  C366  1  0.046000  0.114900  0.685800  1
  C  C367  1  0.454000  0.114900  0.185800  1
  C  C368  1  0.954000  0.885100  0.314200  1
  C  C369  1  0.732000  0.260000  0.866600  1
  C  C370  1  0.232000  0.740000  0.633400  1
  C  C371  1  0.268000  0.740000  0.133400  1
  C  C372  1  0.768000  0.260000  0.366600  1
  C  C373  1  0.695000  0.270900  0.766400  1
  C  C374  1  0.195000  0.729100  0.733600  1
  C  C375  1  0.305000  0.729100  0.233600  1
  C  C376  1  0.805000  0.270900  0.266400  1
  C  C377  1  0.688000  0.357100  0.841900  1
  C  C378  1  0.188000  0.642900  0.658100  1
  C  C379  1  0.312000  0.642900  0.158100  1
  C  C380  1  0.812000  0.357100  0.341900  1
  C  C381  1  0.389000  0.176800  0.874900  1
  C  C382  1  0.889000  0.823200  0.625100  1
  C  C383  1  0.611000  0.823200  0.125100  1
  C  C384  1  0.111000  0.176800  0.374900  1
  C  C385  1  0.375000  0.284200  0.905100  1
  C  C386  1  0.875000  0.715800  0.594900  1
  C  C387  1  0.625000  0.715800  0.094900  1
  C  C388  1  0.125000  0.284200  0.405100  1
  C  C389  1  0.437000  0.216500  0.967600  1
  C  C390  1  0.937000  0.783500  0.532400  1
  C  C391  1  0.563000  0.783500  0.032400  1
  C  C392  1  0.063000  0.216500  0.467600  1
  C  C393  1  0.936000  0.051800  0.942500  1
  C  C394  1  0.436000  0.948200  0.557500  1
  C  C395  1  0.064000  0.948200  0.057500  1
  C  C396  1  0.564000  0.051800  0.442500  1
  C  C397  1  0.889000  0.129000  0.012400  1
  C  C398  1  0.389000  0.871000  0.487600  1
  C  C399  1  0.111000  0.871000  0.987600  1
  C  C400  1  0.611000  0.129000  0.512400  1
  C  C401  1  0.948000  0.039500  0.040600  1
  C  C402  1  0.448000  0.960500  0.459400  1
  C  C403  1  0.052000  0.960500  0.959400  1
  C  C404  1  0.552000  0.039500  0.540600  1
  C  C405  1  0.593000  0.970300  0.982400  1
  C  C406  1  0.093000  0.029700  0.517600  1
  C  C407  1  0.407000  0.029700  0.017600  1
  C  C408  1  0.907000  0.970300  0.482400  1
  C  C409  1  0.664000  0.875300  0.980700  1
  C  C410  1  0.164000  0.124700  0.519300  1
  C  C411  1  0.336000  0.124700  0.019300  1
  C  C412  1  0.836000  0.875300  0.480700  1
  C  C413  1  0.638000  0.937500  0.070400  1
  C  C414  1  0.138000  0.062500  0.429600  1
  C  C415  1  0.362000  0.062500  0.929600  1
  C  C416  1  0.862000  0.937500  0.570400  1
  C  C417  1  0.654000  0.834400  0.409200  1
  C  C418  1  0.154000  0.165600  0.090800  1
  C  C419  1  0.346000  0.165600  0.590800  1
  C  C420  1  0.846000  0.834400  0.909200  1
  C  C421  1  0.602800  0.817500  0.426300  1
  C  C422  1  0.102800  0.182500  0.073700  1
  C  C423  1  0.397200  0.182500  0.573700  1
  C  C424  1  0.897200  0.817500  0.926300  1
  C  C425  1  0.564800  0.855000  0.424400  1
  C  C426  1  0.064800  0.145000  0.075600  1
  C  C427  1  0.435200  0.145000  0.575600  1
  C  C428  1  0.935200  0.855000  0.924400  1
  C  C429  1  0.589000  0.894100  0.403400  1
  C  C430  1  0.089000  0.105900  0.096600  1
  C  C431  1  0.411000  0.105900  0.596600  1
  C  C432  1  0.911000  0.894100  0.903400  1
  C  C433  1  0.645000  0.880800  0.393500  1
  C  C434  1  0.145000  0.119200  0.106500  1
  C  C435  1  0.355000  0.119200  0.606500  1
  C  C436  1  0.855000  0.880800  0.893500  1
  C  C437  1  0.573000  0.889600  0.293300  1
  C  C438  1  0.073000  0.110400  0.206700  1
  C  C439  1  0.427000  0.110400  0.706700  1
  C  C440  1  0.927000  0.889600  0.793300  1
  C  C441  1  0.607000  0.851700  0.268100  1
  C  C442  1  0.107000  0.148300  0.231900  1
  C  C443  1  0.393000  0.148300  0.731900  1
  C  C444  1  0.893000  0.851700  0.768100  1
  C  C445  1  0.576000  0.809900  0.259400  1
  C  C446  1  0.076000  0.190100  0.240600  1
  C  C447  1  0.424000  0.190100  0.740600  1
  C  C448  1  0.924000  0.809900  0.759400  1
  C  C449  1  0.522000  0.816800  0.278000  1
  C  C450  1  0.022000  0.183200  0.222000  1
  C  C451  1  0.478000  0.183200  0.722000  1
  C  C452  1  0.978000  0.816800  0.778000  1
  C  C453  1  0.521000  0.868000  0.298900  1
  C  C454  1  0.021000  0.132000  0.201100  1
  C  C455  1  0.479000  0.132000  0.701100  1
  C  C456  1  0.979000  0.868000  0.798900  1
  C  C457  1  0.701000  0.508400  0.606400  1
  C  C458  1  0.201000  0.491600  0.893600  1
  C  C459  1  0.299000  0.491600  0.393600  1
  C  C460  1  0.799000  0.508400  0.106400  1
  C  C461  1  0.746000  0.538600  0.596200  1
  C  C462  1  0.246000  0.461400  0.903800  1
  C  C463  1  0.254000  0.461400  0.403800  1
  C  C464  1  0.754000  0.538600  0.096200  1
  C  C465  1  0.792000  0.528900  0.623600  1
  C  C466  1  0.292000  0.471100  0.876400  1
  C  C467  1  0.208000  0.471100  0.376400  1
  C  C468  1  0.708000  0.528900  0.123600  1
  C  C469  1  0.777000  0.492400  0.649900  1
  C  C470  1  0.277000  0.507600  0.850100  1
  C  C471  1  0.223000  0.507600  0.350100  1
  C  C472  1  0.723000  0.492400  0.149900  1
  C  C473  1  0.720000  0.477100  0.640000  1
  C  C474  1  0.220000  0.522900  0.860000  1
  C  C475  1  0.280000  0.522900  0.360000  1
  C  C476  1  0.780000  0.477100  0.140000  1
  C  C477  1  0.848000  0.388400  0.545900  1
  C  C478  1  0.348000  0.611600  0.954100  1
  C  C479  1  0.152000  0.611600  0.454100  1
  C  C480  1  0.652000  0.388400  0.045900  1
  C  C481  1  0.797000  0.363100  0.534300  1
  C  C482  1  0.297000  0.636900  0.965700  1
  C  C483  1  0.203000  0.636900  0.465700  1
  C  C484  1  0.703000  0.363100  0.034300  1
  C  C485  1  0.765000  0.356600  0.573700  1
  C  C486  1  0.265000  0.643400  0.926300  1
  C  C487  1  0.235000  0.643400  0.426300  1
  C  C488  1  0.735000  0.356600  0.073700  1
  C  C489  1  0.801000  0.376300  0.610700  1
  C  C490  1  0.301000  0.623700  0.889300  1
  C  C491  1  0.199000  0.623700  0.389300  1
  C  C492  1  0.699000  0.376300  0.110700  1
  C  C493  1  0.852000  0.396100  0.597100  1
  C  C494  1  0.352000  0.603900  0.902900  1
  C  C495  1  0.148000  0.603900  0.402900  1
  C  C496  1  0.648000  0.396100  0.097100  1
  C  C497  1  0.536200  0.759400  0.354700  1
  C  C498  1  0.036200  0.240600  0.145300  1
  C  C499  1  0.463800  0.240600  0.645300  1
  C  C500  1  0.963800  0.759400  0.854700  1
  C  C501  1  0.564300  0.717500  0.343200  1
  C  C502  1  0.064300  0.282500  0.156800  1
  C  C503  1  0.435700  0.282500  0.656800  1
  C  C504  1  0.935700  0.717500  0.843200  1
  C  C505  1  0.544600  0.668900  0.347900  1
  C  C506  1  0.044600  0.331100  0.152100  1
  C  C507  1  0.455400  0.331100  0.652100  1
  C  C508  1  0.955400  0.668900  0.847900  1
  C  C509  1  0.531100  0.633700  0.309700  1
  C  C510  1  0.031100  0.366300  0.190300  1
  C  C511  1  0.468900  0.366300  0.690300  1
  C  C512  1  0.968900  0.633700  0.809700  1
  C  C513  1  0.517600  0.587100  0.314600  1
  C  C514  1  0.017600  0.412900  0.185400  1
  C  C515  1  0.482400  0.412900  0.685400  1
  C  C516  1  0.982400  0.587100  0.814600  1
  C  C517  1  0.514000  0.568200  0.357800  1
  C  C518  1  0.014000  0.431800  0.142200  1
  C  C519  1  0.486000  0.431800  0.642200  1
  C  C520  1  0.986000  0.568200  0.857800  1
  C  C521  1  0.529000  0.602900  0.397200  1
  C  C522  1  0.029000  0.397100  0.102800  1
  C  C523  1  0.471000  0.397100  0.602800  1
  C  C524  1  0.971000  0.602900  0.897200  1
  C  C525  1  0.544400  0.649800  0.390600  1
  C  C526  1  0.044400  0.350200  0.109400  1
  C  C527  1  0.455600  0.350200  0.609400  1
  C  C528  1  0.955600  0.649800  0.890600  1
  C  C529  1  0.518800  0.481500  0.349300  1
  C  C530  1  0.018800  0.518500  0.150700  1
  C  C531  1  0.481200  0.518500  0.650700  1
  C  C532  1  0.981200  0.481500  0.849300  1
  C  C533  1  0.562000  0.477200  0.310600  1
  C  C534  1  0.062000  0.522800  0.189400  1
  C  C535  1  0.438000  0.522800  0.689400  1
  C  C536  1  0.938000  0.477200  0.810600  1
  C  C537  1  0.636000  0.463500  0.360300  1
  C  C538  1  0.136000  0.536500  0.139700  1
  C  C539  1  0.364000  0.536500  0.639700  1
  C  C540  1  0.864000  0.463500  0.860300  1
  C  C541  1  0.662500  0.422100  0.366500  1
  C  C542  1  0.162500  0.577900  0.133500  1
  C  C543  1  0.337500  0.577900  0.633500  1
  C  C544  1  0.837500  0.422100  0.866500  1
  C  C545  1  0.688900  0.419800  0.410500  1
  C  C546  1  0.188900  0.580200  0.089500  1
  C  C547  1  0.311100  0.580200  0.589500  1
  C  C548  1  0.811100  0.419800  0.910500  1
  C  C549  1  0.687800  0.463400  0.441200  1
  C  C550  1  0.187800  0.536600  0.058800  1
  C  C551  1  0.312200  0.536600  0.558800  1
  C  C552  1  0.812200  0.463400  0.941200  1
  C  C553  1  0.663000  0.504600  0.433000  1
  C  C554  1  0.163000  0.495400  0.067000  1
  C  C555  1  0.337000  0.495400  0.567000  1
  C  C556  1  0.837000  0.504600  0.933000  1
  C  C557  1  0.635400  0.508300  0.393100  1
  C  C558  1  0.135400  0.491700  0.106900  1
  C  C559  1  0.364600  0.491700  0.606900  1
  C  C560  1  0.864600  0.508300  0.893100  1
  C  C561  1  0.725000  0.462100  0.485600  1
  C  C562  1  0.225000  0.537900  0.014400  1
  C  C563  1  0.275000  0.537900  0.514400  1
  C  C564  1  0.775000  0.462100  0.985600  1
  C  C565  1  0.704100  0.438800  0.518700  1
  C  C566  1  0.204100  0.561200  0.981300  1
  C  C567  1  0.295900  0.561200  0.481300  1
  C  C568  1  0.795900  0.438800  0.018700  1
  C  C569  1  0.816000  0.486600  0.517900  1
  C  C570  1  0.316000  0.513400  0.982100  1
  C  C571  1  0.184000  0.513400  0.482100  1
  C  C572  1  0.684000  0.486600  0.017900  1
  C  C573  1  0.778000  0.487700  0.482800  1
  C  C574  1  0.278000  0.512300  0.017200  1
  C  C575  1  0.222000  0.512300  0.517200  1
  C  C576  1  0.722000  0.487700  0.982800  1
  C  C577  1  0.791400  0.511700  0.442200  1
  C  C578  1  0.291400  0.488300  0.057800  1
  C  C579  1  0.208600  0.488300  0.557800  1
  C  C580  1  0.708600  0.511700  0.942200  1
  C  C581  1  0.787500  0.560600  0.440800  1
  C  C582  1  0.287500  0.439400  0.059200  1
  C  C583  1  0.212500  0.439400  0.559200  1
  C  C584  1  0.712500  0.560600  0.940800  1
  C  C585  1  0.801900  0.583300  0.402900  1
  C  C586  1  0.301900  0.416700  0.097100  1
  C  C587  1  0.198100  0.416700  0.597100  1
  C  C588  1  0.698100  0.583300  0.902900  1
  C  C589  1  0.819000  0.550600  0.361500  1
  C  C590  1  0.319000  0.449400  0.138500  1
  C  C591  1  0.181000  0.449400  0.638500  1
  C  C592  1  0.681000  0.550600  0.861500  1
  C  C593  1  0.821100  0.501400  0.363300  1
  C  C594  1  0.321100  0.498600  0.136700  1
  C  C595  1  0.178900  0.498600  0.636700  1
  C  C596  1  0.678900  0.501400  0.863300  1
  C  C597  1  0.807100  0.478100  0.401100  1
  C  C598  1  0.307100  0.521900  0.098900  1
  C  C599  1  0.192900  0.521900  0.598900  1
  C  C600  1  0.692900  0.478100  0.901100  1
  C  C601  1  0.816400  0.566600  0.284500  1
  C  C602  1  0.316400  0.433400  0.215500  1
  C  C603  1  0.183600  0.433400  0.715500  1
  C  C604  1  0.683600  0.566600  0.784500  1
  C  C605  1  0.775700  0.527300  0.269100  1
  C  C606  1  0.275700  0.472700  0.230900  1
  C  C607  1  0.224300  0.472700  0.730900  1
  C  C608  1  0.724300  0.527300  0.769100  1
  C  C609  1  0.699100  0.583000  0.281400  1
  C  C610  1  0.199100  0.417000  0.218600  1
  C  C611  1  0.300900  0.417000  0.718600  1
  C  C612  1  0.800900  0.583000  0.781400  1
  C  C613  1  0.697500  0.597100  0.329900  1
  C  C614  1  0.197500  0.402900  0.170100  1
  C  C615  1  0.302500  0.402900  0.670100  1
  C  C616  1  0.802500  0.597100  0.829900  1
  C  C617  1  0.671200  0.642500  0.340600  1
  C  C618  1  0.171200  0.357500  0.159400  1
  C  C619  1  0.328800  0.357500  0.659400  1
  C  C620  1  0.828800  0.642500  0.840600  1
  C  C621  1  0.650700  0.672100  0.311200  1
  C  C622  1  0.150700  0.327900  0.188800  1
  C  C623  1  0.349300  0.327900  0.688800  1
  C  C624  1  0.849300  0.672100  0.811200  1
  C  C625  1  0.655500  0.655500  0.263700  1
  C  C626  1  0.155500  0.344500  0.236300  1
  C  C627  1  0.344500  0.344500  0.736300  1
  C  C628  1  0.844500  0.655500  0.763700  1
  C  C629  1  0.679000  0.611600  0.249800  1
  C  C630  1  0.179000  0.388400  0.250200  1
  C  C631  1  0.321000  0.388400  0.750200  1
  C  C632  1  0.821000  0.611600  0.749800  1
  C  C633  1  0.622700  0.720300  0.325100  1
  C  C634  1  0.122700  0.279700  0.174900  1
  C  C635  1  0.377300  0.279700  0.674900  1
  C  C636  1  0.877300  0.720300  0.825100  1
  C  C637  1  0.650600  0.762100  0.321100  1
  C  C638  1  0.150600  0.237900  0.178900  1
  C  C639  1  0.349400  0.237900  0.678900  1
  C  C640  1  0.849400  0.762100  0.821100  1
  C  C641  1  0.500000  0.434900  0.364700  1
  C  C642  1  0.000000  0.565100  0.135300  1
  C  C643  1  0.500000  0.565100  0.635300  1
  C  C644  1  0.000000  0.434900  0.864700  1
  C  C645  1  0.464000  0.440800  0.403100  1
  C  C646  1  0.964000  0.559200  0.096900  1
  C  C647  1  0.536000  0.559200  0.596900  1
  C  C648  1  0.036000  0.440800  0.903100  1
  C  C649  1  0.453000  0.396200  0.422400  1
  C  C650  1  0.953000  0.603800  0.077600  1
  C  C651  1  0.547000  0.603800  0.577600  1
  C  C652  1  0.047000  0.396200  0.922400  1
  C  C653  1  0.474000  0.348300  0.402400  1
  C  C654  1  0.974000  0.651700  0.097600  1
  C  C655  1  0.526000  0.651700  0.597600  1
  C  C656  1  0.026000  0.348300  0.902400  1
  C  C657  1  0.507000  0.346000  0.366300  1
  C  C658  1  0.007000  0.654000  0.133700  1
  C  C659  1  0.493000  0.654000  0.633700  1
  C  C660  1  0.993000  0.346000  0.866300  1
  C  C661  1  0.522000  0.390700  0.346300  1
  C  C662  1  0.022000  0.609300  0.153700  1
  C  C663  1  0.478000  0.609300  0.653700  1
  C  C664  1  0.978000  0.390700  0.846300  1
  C  C665  1  0.543000  0.478200  0.261500  1
  C  C666  1  0.043000  0.521800  0.238500  1
  C  C667  1  0.457000  0.521800  0.738500  1
  C  C668  1  0.957000  0.478200  0.761500  1
  C  C669  1  0.488000  0.459800  0.250700  1
  C  C670  1  0.988000  0.540200  0.249300  1
  C  C671  1  0.512000  0.540200  0.749300  1
  C  C672  1  0.012000  0.459800  0.750700  1
  C  C673  1  0.472000  0.460600  0.203800  1
  C  C674  1  0.972000  0.539400  0.296200  1
  C  C675  1  0.528000  0.539400  0.796200  1
  C  C676  1  0.028000  0.460600  0.703800  1
  C  C677  1  0.510000  0.477700  0.173600  1
  C  C678  1  0.010000  0.522300  0.326400  1
  C  C679  1  0.490000  0.522300  0.826400  1
  C  C680  1  0.990000  0.477700  0.673600  1
  C  C681  1  0.562000  0.495100  0.185800  1
  C  C682  1  0.062000  0.504900  0.314200  1
  C  C683  1  0.438000  0.504900  0.814200  1
  C  C684  1  0.938000  0.495100  0.685800  1
  C  C685  1  0.579000  0.492600  0.232700  1
  C  C686  1  0.079000  0.507400  0.267300  1
  C  C687  1  0.421000  0.507400  0.767300  1
  C  C688  1  0.921000  0.492600  0.732700  1
  C  C689  1  0.838000  0.597400  0.252800  1
  C  C690  1  0.338000  0.402600  0.247200  1
  C  C691  1  0.162000  0.402600  0.747200  1
  C  C692  1  0.662000  0.597400  0.752800  1
  C  C693  1  0.875000  0.634100  0.263300  1
  C  C694  1  0.375000  0.365900  0.236700  1
  C  C695  1  0.125000  0.365900  0.736700  1
  C  C696  1  0.625000  0.634100  0.763300  1
  C  C697  1  0.895000  0.667000  0.234700  1
  C  C698  1  0.395000  0.333000  0.265300  1
  C  C699  1  0.105000  0.333000  0.765300  1
  C  C700  1  0.605000  0.667000  0.734700  1
  C  C701  1  0.876000  0.658900  0.187100  1
  C  C702  1  0.376000  0.341100  0.312900  1
  C  C703  1  0.124000  0.341100  0.812900  1
  C  C704  1  0.624000  0.658900  0.687100  1
  C  C705  1  0.837000  0.619200  0.176100  1
  C  C706  1  0.337000  0.380800  0.323900  1
  C  C707  1  0.163000  0.380800  0.823900  1
  C  C708  1  0.663000  0.619200  0.676100  1
  C  C709  1  0.817000  0.588400  0.206800  1
  C  C710  1  0.317000  0.411600  0.293200  1
  C  C711  1  0.183000  0.411600  0.793200  1
  C  C712  1  0.683000  0.588400  0.706800  1
  C  C713  1  0.793500  0.477900  0.253200  1
  C  C714  1  0.293500  0.522100  0.246800  1
  C  C715  1  0.206500  0.522100  0.746800  1
  C  C716  1  0.706500  0.477900  0.753200  1
  C  C717  1  0.850000  0.469600  0.241700  1
  C  C718  1  0.350000  0.530400  0.258300  1
  C  C719  1  0.150000  0.530400  0.758300  1
  C  C720  1  0.650000  0.469600  0.741700  1
  C  C721  1  0.865000  0.419500  0.221800  1
  C  C722  1  0.365000  0.580500  0.278200  1
  C  C723  1  0.135000  0.580500  0.778200  1
  C  C724  1  0.635000  0.419500  0.721800  1
  C  C725  1  0.826000  0.382300  0.217400  1
  C  C726  1  0.326000  0.617700  0.282600  1
  C  C727  1  0.174000  0.617700  0.782600  1
  C  C728  1  0.674000  0.382300  0.717400  1
  C  C729  1  0.771000  0.391200  0.229700  1
  C  C730  1  0.271000  0.608800  0.270300  1
  C  C731  1  0.229000  0.608800  0.770300  1
  C  C732  1  0.729000  0.391200  0.729700  1
  C  C733  1  0.754400  0.439800  0.248700  1
  C  C734  1  0.254400  0.560200  0.251300  1
  C  C735  1  0.245600  0.560200  0.751300  1
  C  C736  1  0.745600  0.439800  0.748700  1
  C  C737  1  0.457600  0.749000  0.438400  1
  C  C738  1  0.957600  0.251000  0.061600  1
  C  C739  1  0.542400  0.251000  0.561600  1
  C  C740  1  0.042400  0.749000  0.938400  1
  C  C741  1  0.416000  0.707000  0.344100  1
  C  C742  1  0.916000  0.293000  0.155900  1
  C  C743  1  0.584000  0.293000  0.655900  1
  C  C744  1  0.084000  0.707000  0.844100  1
  C  C745  1  0.424900  0.814800  0.368800  1
  C  C746  1  0.924900  0.185200  0.131200  1
  C  C747  1  0.575100  0.185200  0.631200  1
  C  C748  1  0.075100  0.814800  0.868800  1
  C  C749  1  0.774000  0.721500  0.316100  1
  C  C750  1  0.274000  0.278500  0.183900  1
  C  C751  1  0.226000  0.278500  0.683900  1
  C  C752  1  0.726000  0.721500  0.816100  1
  C  C753  1  0.721000  0.760500  0.231100  1
  C  C754  1  0.221000  0.239500  0.268900  1
  C  C755  1  0.279000  0.239500  0.768900  1
  C  C756  1  0.779000  0.760500  0.731100  1
  C  C757  1  0.753000  0.831100  0.316600  1
  C  C758  1  0.253000  0.168900  0.183400  1
  C  C759  1  0.247000  0.168900  0.683400  1
  C  C760  1  0.747000  0.831100  0.816600  1
  C  C761  1  0.617000  0.396800  0.583200  1
  C  C762  1  0.117000  0.603200  0.916800  1
  C  C763  1  0.383000  0.603200  0.416800  1
  C  C764  1  0.883000  0.396800  0.083200  1
  C  C765  1  0.643000  0.339900  0.490900  1
  C  C766  1  0.143000  0.660100  0.009100  1
  C  C767  1  0.357000  0.660100  0.509100  1
  C  C768  1  0.857000  0.339900  0.990900  1
  C  C769  1  0.576000  0.438800  0.499600  1
  C  C770  1  0.076000  0.561200  0.000400  1
  C  C771  1  0.424000  0.561200  0.500400  1
  C  C772  1  0.924000  0.438800  0.999600  1
  C  C773  1  0.922000  0.519700  0.464900  1
  C  C774  1  0.422000  0.480300  0.035100  1
  C  C775  1  0.078000  0.480300  0.535100  1
  C  C776  1  0.578000  0.519700  0.964900  1
  C  C777  1  0.871000  0.589500  0.540300  1
  C  C778  1  0.371000  0.410500  0.959700  1
  C  C779  1  0.129000  0.410500  0.459700  1
  C  C780  1  0.629000  0.589500  0.040300  1
  C  C781  1  0.930000  0.496300  0.563200  1
  C  C782  1  0.430000  0.503700  0.936800  1
  C  C783  1  0.070000  0.503700  0.436800  1
  C  C784  1  0.570000  0.496300  0.063200  1
  C  C785  1  0.580000  0.114000  0.026000  1
  C  C786  1  0.080000  0.886000  0.474000  1
  C  C787  1  0.420000  0.886000  0.974000  1
  C  C788  1  0.920000  0.114000  0.526000  1
  C  C789  1  0.628000  0.137000  0.014000  1
  C  C790  1  0.128000  0.863000  0.486000  1
  C  C791  1  0.372000  0.863000  0.986000  1
  C  C792  1  0.872000  0.137000  0.514000  1
  C  C793  1  0.695000  0.215000  0.993000  1
  C  C794  1  0.195000  0.785000  0.507000  1
  C  C795  1  0.305000  0.785000  0.007000  1
  C  C796  1  0.805000  0.215000  0.493000  1
  C  C797  1  0.648000  0.231000  0.037000  1
  C  C798  1  0.148000  0.769000  0.463000  1
  C  C799  1  0.352000  0.769000  0.963000  1
  C  C800  1  0.852000  0.231000  0.537000  1
  C  C801  1  0.656000  0.655000  0.491000  1
  C  C802  1  0.156000  0.345000  0.009000  1
  C  C803  1  0.344000  0.345000  0.509000  1
  C  C804  1  0.844000  0.655000  0.991000  1
  C  C805  1  0.676000  0.633000  0.533000  1
  C  C806  1  0.176000  0.367000  0.967000  1
  C  C807  1  0.324000  0.367000  0.467000  1
  C  C808  1  0.824000  0.633000  0.033000  1
  C  C809  1  0.728000  0.697000  0.481000  1
  C  C810  1  0.228000  0.303000  0.019000  1
  C  C811  1  0.272000  0.303000  0.519000  1
  C  C812  1  0.772000  0.697000  0.981000  1
  C  C813  1  0.675000  0.706000  0.482000  1
  C  C814  1  0.175000  0.294000  0.018000  1
  C  C815  1  0.325000  0.294000  0.518000  1
  C  C816  1  0.825000  0.706000  0.982000  1
  C  C817  1  0.749000  0.748000  0.464000  1
  C  C818  1  0.249000  0.252000  0.036000  1
  C  C819  1  0.251000  0.252000  0.536000  1
  C  C820  1  0.751000  0.748000  0.964000  1
  C  C821  1  0.512000  0.131000  0.032000  1
  C  C822  1  0.012000  0.869000  0.468000  1
  C  C823  1  0.488000  0.869000  0.968000  1
  C  C824  1  0.988000  0.131000  0.532000  1
  C  C825  1  0.589000  0.178000  0.022000  1
  C  C826  1  0.089000  0.822000  0.478000  1
  C  C827  1  0.411000  0.822000  0.978000  1
  C  C828  1  0.911000  0.178000  0.522000  1
  C  C829  1  0.593000  0.775000  0.896000  1
  C  C830  1  0.093000  0.225000  0.604000  1
  C  C831  1  0.407000  0.225000  0.104000  1
  C  C832  1  0.907000  0.775000  0.396000  1
  C  C833  1  0.709000  0.187000  0.027000  1
  C  C834  1  0.209000  0.813000  0.473000  1
  C  C835  1  0.291000  0.813000  0.973000  1
  C  C836  1  0.791000  0.187000  0.527000  1
  C  C837  1  0.753000  0.227000  0.010000  1
  C  C838  1  0.253000  0.773000  0.490000  1
  C  C839  1  0.247000  0.773000  0.990000  1
  C  C840  1  0.747000  0.227000  0.510000  1
  C  C841  1  0.786000  0.225000  0.057000  1
  C  C842  1  0.286000  0.775000  0.443000  1
  C  C843  1  0.214000  0.775000  0.943000  1
  C  C844  1  0.714000  0.225000  0.557000  1
  C  C845  1  0.565000  0.707000  0.897000  1
  C  C846  1  0.065000  0.293000  0.603000  1
  C  C847  1  0.435000  0.293000  0.103000  1
  C  C848  1  0.935000  0.707000  0.397000  1
  C  C849  1  0.610000  0.697000  0.926000  1
  C  C850  1  0.110000  0.303000  0.574000  1
  C  C851  1  0.390000  0.303000  0.074000  1
  C  C852  1  0.890000  0.697000  0.426000  1
  C  C853  1  0.514000  0.642000  0.910000  1
  C  C854  1  0.014000  0.358000  0.590000  1
  C  C855  1  0.486000  0.358000  0.090000  1
  C  C856  1  0.986000  0.642000  0.410000  1
  C  C857  1  0.520000  0.674000  0.864000  1
  C  C858  1  0.020000  0.326000  0.636000  1
  C  C859  1  0.480000  0.326000  0.136000  1
  C  C860  1  0.980000  0.674000  0.364000  1
  C  C861  1  0.703000  0.678000  0.548000  1
  C  C862  1  0.203000  0.322000  0.952000  1
  C  C863  1  0.297000  0.322000  0.452000  1
  C  C864  1  0.797000  0.678000  0.048000  1
  C  C865  1  0.456000  0.699000  0.908000  1
  C  C866  1  0.956000  0.301000  0.592000  1
  C  C867  1  0.544000  0.301000  0.092000  1
  C  C868  1  0.044000  0.699000  0.408000  1
  C  C869  1  0.420000  0.710000  0.851000  1
  C  C870  1  0.920000  0.290000  0.649000  1
  C  C871  1  0.580000  0.290000  0.149000  1
  C  C872  1  0.080000  0.710000  0.351000  1
  C  C873  1  0.470000  0.683000  0.834000  1
  C  C874  1  0.970000  0.317000  0.666000  1
  C  C875  1  0.530000  0.317000  0.166000  1
  C  C876  1  0.030000  0.683000  0.334000  1
  C  C877  1  0.441000  0.653000  0.791000  1
  C  C878  1  0.941000  0.347000  0.709000  1
  C  C879  1  0.559000  0.347000  0.209000  1
  C  C880  1  0.059000  0.653000  0.291000  1
  C  C881  1  0.463000  0.705000  0.758000  1
  C  C882  1  0.963000  0.295000  0.742000  1
  C  C883  1  0.537000  0.295000  0.242000  1
  C  C884  1  0.037000  0.705000  0.258000  1
  C  C885  1  0.794000  0.724000  0.458000  1
  C  C886  1  0.294000  0.276000  0.042000  1
  C  C887  1  0.206000  0.276000  0.542000  1
  C  C888  1  0.706000  0.724000  0.958000  1
  C  C889  1  0.632000  0.775000  0.578000  1
  C  C890  1  0.132000  0.225000  0.922000  1
  C  C891  1  0.368000  0.225000  0.422000  1
  C  C892  1  0.868000  0.775000  0.078000  1
  C  C893  1  0.707000  0.718000  0.609000  1
  C  C894  1  0.207000  0.282000  0.891000  1
  C  C895  1  0.293000  0.282000  0.391000  1
  C  C896  1  0.793000  0.718000  0.109000  1
  C  C897  1  0.710000  0.774000  0.616000  1
  C  C898  1  0.210000  0.226000  0.884000  1
  C  C899  1  0.290000  0.226000  0.384000  1
  C  C900  1  0.790000  0.774000  0.116000  1
  C  C901  1  0.538000  0.825000  0.559000  1
  C  C902  1  0.038000  0.175000  0.941000  1
  C  C903  1  0.462000  0.175000  0.441000  1
  C  C904  1  0.962000  0.825000  0.059000  1
  C  C905  1  0.499000  0.778000  0.711000  1
  C  C906  1  0.999000  0.222000  0.789000  1
  C  C907  1  0.501000  0.222000  0.289000  1
  C  C908  1  0.001000  0.778000  0.211000  1
  C  C909  1  0.608000  0.827000  0.704000  1
  C  C910  1  0.108000  0.173000  0.796000  1
  C  C911  1  0.392000  0.173000  0.296000  1
  C  C912  1  0.892000  0.827000  0.204000  1
  C  C913  1  0.483000  0.825000  0.680000  1
  C  C914  1  0.983000  0.175000  0.820000  1
  C  C915  1  0.517000  0.175000  0.320000  1
  C  C916  1  0.017000  0.825000  0.180000  1
  C  C917  1  0.469000  0.808000  0.603000  1
  C  C918  1  0.969000  0.192000  0.897000  1
  C  C919  1  0.531000  0.192000  0.397000  1
  C  C920  1  0.031000  0.808000  0.103000  1
  N  N921  1  0.712400  0.066400  0.756200  1
  N  N922  1  0.212400  0.933600  0.743800  1
  N  N923  1  0.287600  0.933600  0.243800  1
  N  N924  1  0.787600  0.066400  0.256200  1
  N  N925  1  0.823300  0.121000  0.809900  1
  N  N926  1  0.323300  0.879000  0.690100  1
  N  N927  1  0.176700  0.879000  0.190100  1
  N  N928  1  0.676700  0.121000  0.309900  1
  N  N929  1  0.618000  0.985500  0.802300  1
  N  N930  1  0.118000  0.014500  0.697700  1
  N  N931  1  0.382000  0.014500  0.197700  1
  N  N932  1  0.882000  0.985500  0.302300  1
  N  N933  1  0.499700  0.006400  0.860000  1
  N  N934  1  0.999700  0.993600  0.640000  1
  N  N935  1  0.500300  0.993600  0.140000  1
  N  N936  1  0.000300  0.006400  0.360000  1
  N  N937  1  0.499000  0.522200  0.367900  1
  N  N938  1  0.999000  0.477800  0.132100  1
  N  N939  1  0.501000  0.477800  0.632100  1
  N  N940  1  0.001000  0.522200  0.867900  1
  N  N941  1  0.612600  0.468700  0.316400  1
  N  N942  1  0.112600  0.531300  0.183600  1
  N  N943  1  0.387400  0.531300  0.683600  1
  N  N944  1  0.887400  0.468700  0.816400  1
  N  N945  1  0.835300  0.576200  0.326900  1
  N  N946  1  0.335300  0.423800  0.173100  1
  N  N947  1  0.164700  0.423800  0.673100  1
  N  N948  1  0.664700  0.576200  0.826900  1
  N  N949  1  0.723900  0.535100  0.267300  1
  N  N950  1  0.223900  0.464900  0.232700  1
  N  N951  1  0.276100  0.464900  0.732700  1
  N  N952  1  0.776100  0.535100  0.767300  1
  O  O953  1  0.659000  0.168000  0.002000  1
  O  O954  1  0.159000  0.832000  0.498000  1
  O  O955  1  0.341000  0.832000  0.998000  1
  O  O956  1  0.841000  0.168000  0.502000  1
  O  O957  1  0.561000  0.652000  0.912000  1
  O  O958  1  0.061000  0.348000  0.588000  1
  O  O959  1  0.439000  0.348000  0.088000  1
  O  O960  1  0.939000  0.652000  0.412000  1
  O  O961  1  0.410000  0.735000  0.924000  1
  O  O962  1  0.910000  0.265000  0.576000  1
  O  O963  1  0.590000  0.265000  0.076000  1
  O  O964  1  0.090000  0.735000  0.424000  1
  O  O965  1  0.391000  0.638000  0.779000  1
  O  O966  1  0.891000  0.362000  0.721000  1
  O  O967  1  0.609000  0.362000  0.221000  1
  O  O968  1  0.109000  0.638000  0.279000  1
  O  O969  1  0.635000  0.874000  0.707000  1
  O  O970  1  0.135000  0.126000  0.793000  1
  O  O971  1  0.365000  0.126000  0.293000  1
  O  O972  1  0.865000  0.874000  0.207000  1
  O  O973  1  0.570000  0.793000  0.553000  1
  O  O974  1  0.070000  0.207000  0.947000  1
  O  O975  1  0.430000  0.207000  0.447000  1
  O  O976  1  0.930000  0.793000  0.053000  1
  O  O977  1  0.401000  0.768000  0.596000  1
  O  O978  1  0.901000  0.232000  0.904000  1
  O  O979  1  0.599000  0.232000  0.404000  1
  O  O980  1  0.099000  0.768000  0.096000  1
