
#######################################################################
#
#                 Cambridge Crystallographic Data Centre
#                                CCDC 
#
#######################################################################
#
# If this CIF has been generated from an entry in the Cambridge 
# Structural Database, then it will include bibliographic, chemical, 
# crystal, experimental, refinement or atomic coordinate data resulting 
# from the CCDC's data processing and validation procedures.
#
#######################################################################

data_VIQHEI
_chemical_formula_moiety         'C126 H126 N6 Si6 Zr3,7(C6 H6)'
_chemical_name_systematic        
'(\m~3~-4,5,10,11,16,17-hexakis(Trimethylsilylmethylene)-1,2,8,14(2,5),7,13(3,6)-hexapyridina-3,6,9,12,15,18(1,4)-hexabenzenaoctadecaphane)-tri-zirconocene benzene clathrate'
_symmetry_cell_setting           monoclinic
_symmetry_space_group_name_H-M   'P 21/n'
_symmetry_Int_Tables_number      14
_space_group_name_Hall           '-P 2yn'
loop_
_symmetry_equiv_pos_site_id
_symmetry_equiv_pos_as_xyz
1 x,y,z
2 1/2-x,1/2+y,1/2-z
3 -x,-y,-z
4 1/2+x,1/2-y,1/2+z
_cell_length_a                   14.2960(4)
_cell_length_b                   41.6634(11)
_cell_length_c                   24.5525(8)
_cell_angle_alpha                90
_cell_angle_beta                 90.580(1)
_cell_angle_gamma                90
_cell_volume                     14623.2
_exptl_crystal_colour            yellow
_exptl_crystal_description       blocks
_cell_formula_units_Z            4
loop_
_atom_site_label
_atom_site_type_symbol
_atom_site_fract_x
_atom_site_fract_y
_atom_site_fract_z
Zr1 Zr 0.62977(7) 0.74873(2) 0.32188(4)
Zr2 Zr 0.72152(8) 0.17641(2) 0.47936(4)
Zr3 Zr 1.36864(8) 0.54297(2) 1.15004(4)
Si1 Si 0.5289(2) 0.66701(7) 0.2960(1)
Si2 Si 0.5858(2) 0.23935(7) 0.4023(1)
Si3 Si 0.8386(2) 0.18530(7) 0.6153(1)
Si4 Si 1.3172(3) 0.45971(8) 1.1069(1)
Si5 Si 1.3091(3) 0.61899(8) 1.0788(1)
Si6 Si 0.7911(2) 0.77482(7) 0.4329(1)
N1 N 0.7762(6) 0.5016(2) 0.4308(3)
N2 N 0.6308(6) 0.4366(2) 0.4770(3)
N3 N 1.0649(6) 0.3523(2) 0.7341(3)
N4 N 0.9971(6) 0.4055(2) 0.8411(4)
N5 N 0.9689(6) 0.6210(2) 0.7922(4)
N6 N 1.0346(6) 0.6502(2) 0.6597(4)
C1 C 0.6057(7) 0.6958(2) 0.3344(4)
C2 C 0.6651(6) 0.6870(2) 0.3766(4)
C3 C 0.6734(7) 0.6524(2) 0.3947(4)
C4 C 0.6336(7) 0.6414(2) 0.4420(4)
C5 C 0.7246(7) 0.6314(2) 0.3635(4)
C6 C 0.6416(7) 0.6091(2) 0.4566(4)
C7 C 0.7318(7) 0.5992(2) 0.3790(4)
C8 C 0.6914(7) 0.5876(2) 0.4254(4)
C9 C 0.7728(8) 0.5342(3) 0.4237(4)
C10 C 0.6949(7) 0.5524(2) 0.4395(4)
C11 C 0.6233(7) 0.5369(2) 0.4655(4)
C12 C 0.6279(7) 0.5041(2) 0.4724(4)
C13 C 0.7026(7) 0.4875(2) 0.4551(4)
C14 C 0.7087(7) 0.4513(2) 0.4578(4)
C15 C 0.7857(8) 0.4354(3) 0.4414(4)
C16 C 0.7896(8) 0.4017(3) 0.4444(4)
C17 C 0.7111(7) 0.3852(2) 0.4664(4)
C18 C 0.6350(7) 0.4041(2) 0.4805(4)
C19 C 0.7082(7) 0.3496(2) 0.4716(4)
C20 C 0.6541(7) 0.3345(2) 0.5110(4)
C21 C 0.7638(7) 0.3301(2) 0.4384(4)
C22 C 0.6537(7) 0.3014(2) 0.5172(4)
C23 C 0.7647(7) 0.2970(2) 0.4465(4)
C24 C 0.7101(7) 0.2820(2) 0.4851(4)
C25 C 0.7136(6) 0.2462(2) 0.4931(4)
C26 C 0.6700(7) 0.2263(2) 0.4561(4)
C27 C 0.7834(7) 0.2025(2) 0.5517(4)
C28 C 0.7687(7) 0.2349(2) 0.5421(4)
C29 C 0.8045(7) 0.2600(2) 0.5804(4)
C30 C 0.7685(7) 0.2634(2) 0.6324(4)
C31 C 0.8791(7) 0.2795(2) 0.5664(4)
C32 C 0.8073(7) 0.2853(2) 0.6695(4)
C33 C 0.9186(7) 0.3008(2) 0.6036(4)
C34 C 0.8844(7) 0.3037(2) 0.6551(4)
C35 C 1.0213(7) 0.3315(2) 0.7003(4)
C36 C 0.9273(7) 0.3264(2) 0.6953(4)
C37 C 0.8716(8) 0.3429(3) 0.7312(4)
C38 C 0.9128(8) 0.3647(3) 0.7683(4)
C39 C 1.0087(7) 0.3683(2) 0.7673(4)
C40 C 1.0539(7) 0.3921(2) 0.8049(4)
C41 C 1.1460(8) 0.4006(3) 0.8015(4)
C42 C 1.1807(8) 0.4234(3) 0.8384(4)
C43 C 1.1248(7) 0.4367(2) 0.8781(4)
C44 C 1.0327(8) 0.4271(3) 0.8763(4)
C45 C 1.1616(7) 0.4592(2) 0.9212(4)
C47 C 1.100(1) 0.4794(5) 0.9524(8)
C48 C 1.258(1) 0.4608(5) 0.9341(8)
C51 C 1.136(1) 0.4983(5) 0.9939(9)
C52 C 1.293(1) 0.4798(5) 0.9759(8)
C54 C 1.2302(7) 0.4990(2) 1.0057(4)
C55 C 1.2694(7) 0.5183(2) 1.0521(4)
C56 C 1.3090(7) 0.5037(2) 1.0959(4)
C57 C 1.3070(7) 0.5747(2) 1.0837(4)
C58 C 1.2679(7) 0.5543(2) 1.0455(4)
C59 C 1.2243(7) 0.5675(2) 0.9940(4)
C60 C 1.129(1) 0.5668(5) 0.9830(8)
C63 C 1.285(2) 0.5813(6) 0.9530(9)
C64 C 1.093(2) 0.5809(6) 0.9346(9)
C67 C 1.244(2) 0.5954(6) 0.9060(9)
C68 C 1.1458(7) 0.5943(2) 0.8981(4)
C69 C 1.0099(7) 0.6110(2) 0.8391(4)
C70 C 1.1063(7) 0.6081(2) 0.8467(4)
C71 C 1.1620(8) 0.6177(3) 0.8035(4)
C72 C 1.1188(8) 0.6277(2) 0.7556(4)
C73 C 1.0258(7) 0.6290(2) 0.7503(4)
C74 C 0.9789(7) 0.6391(2) 0.6996(4)
C75 C 0.8823(7) 0.6369(2) 0.6935(4)
C76 C 0.8383(7) 0.6475(2) 0.6453(4)
C77 C 0.8935(7) 0.6598(2) 0.6048(4)
C78 C 0.9894(7) 0.6605(2) 0.6128(4)
C79 C 0.8515(7) 0.6729(2) 0.5542(4)
C80 C 0.7725(7) 0.6922(2) 0.5570(4)
C81 C 0.8908(7) 0.6665(2) 0.5030(4)
C82 C 0.7325(7) 0.7042(2) 0.5083(4)
C83 C 0.8474(7) 0.6789(2) 0.4548(4)
C84 C 0.7684(7) 0.6982(2) 0.4588(4)
C85 C 0.7204(7) 0.7111(2) 0.4080(4)
C86 C 0.7275(6) 0.7433(2) 0.3945(4)
C87 C 0.5949(8) 0.6438(3) 0.2441(5)
C88 C 0.4339(8) 0.6894(3) 0.2591(5)
C89 C 0.4634(9) 0.6385(3) 0.3400(5)
C90 C 0.4791(7) 0.2551(3) 0.4369(4)
C91 C 0.6228(8) 0.2711(2) 0.3545(4)
C92 C 0.5490(8) 0.2050(3) 0.3599(4)
C93 C 0.9003(8) 0.1472(3) 0.5982(5)
C94 C 0.7457(8) 0.1750(3) 0.6649(4)
C95 C 0.9288(8) 0.2091(3) 0.6524(4)
C96 C 1.363(2) 0.4368(5) 1.0386(9)
C98 C 1.205(1) 0.4402(4) 1.1108(6)
C99 C 1.340(1) 0.4525(5) 1.1892(8)
C101 C 1.325(2) 0.6344(6) 1.1572(10)
C103 C 1.206(1) 0.6396(5) 1.0920(9)
C104 C 1.381(2) 0.6371(6) 1.033(1)
C107 C 0.9036(7) 0.7619(2) 0.4652(4)
C108 C 0.7175(8) 0.7922(3) 0.4881(4)
C109 C 0.8194(7) 0.8087(2) 0.3863(4)
C110 C 0.5310(7) 0.7675(2) 0.3990(4)
C111 C 0.5547(7) 0.7952(3) 0.3721(4)
C112 C 0.5133(7) 0.7935(2) 0.3208(4)
C113 C 0.4625(7) 0.7655(2) 0.3154(4)
C114 C 0.4724(7) 0.7486(2) 0.3663(4)
C115 C 0.7307(7) 0.7806(2) 0.2595(4)
C116 C 0.6575(8) 0.7696(3) 0.2266(4)
C117 C 0.6621(7) 0.7365(3) 0.2232(4)
C118 C 0.7402(7) 0.7261(2) 0.2524(4)
C119 C 0.7847(7) 0.7534(2) 0.2745(4)
C120 C 0.5500(8) 0.1687(3) 0.4980(4)
C121 C 0.5967(8) 0.1651(2) 0.5475(4)
C122 C 0.6496(7) 0.1377(3) 0.5448(4)
C123 C 0.6374(7) 0.1233(2) 0.4936(4)
C124 C 0.5770(8) 0.1438(3) 0.4639(4)
C126 C 0.899(2) 0.170(1) 0.4607(10)
C128 C 0.866(2) 0.1959(6) 0.426(2)
C129 C 0.796(2) 0.183(1) 0.384(1)
C131 C 0.785(2) 0.149(1) 0.395(1)
C133 C 0.845(3) 0.1392(6) 0.444(1)
C135 C 1.355(1) 0.5646(4) 1.2471(7)
C136 C 1.3266(8) 0.5314(3) 1.2469(4)
C138 C 1.244(2) 0.5309(5) 1.2141(8)
C140 C 1.288(1) 0.5823(5) 1.2138(8)
C141 C 1.2182(8) 0.5604(3) 1.1963(4)
C143 C 1.539(1) 0.5406(6) 1.1839(8)
C145 C 1.525(1) 0.5717(5) 1.1441(10)
C146 C 1.519(1) 0.5625(5) 1.1051(9)
C148 C 1.511(1) 0.5274(6) 1.0915(8)
C150 C 1.526(1) 0.5114(5) 1.147(1)
C152 C 0.6218(8) 0.6248(3) 0.7111(5)
C153 C 0.6090(9) 0.6007(3) 0.6749(5)
C154 C 0.5740(9) 0.6073(3) 0.6229(6)
C155 C 0.5533(9) 0.6387(3) 0.6086(5)
C156 C 0.5680(9) 0.6632(3) 0.6448(5)
C157 C 0.6028(9) 0.6558(3) 0.6968(5)
C158 C 0.8749(9) 0.7275(3) 0.6790(5)
C159 C 0.7905(9) 0.7280(3) 0.7005(5)
C160 C 0.7242(9) 0.7509(3) 0.6856(5)
C161 C 0.7493(10) 0.7727(3) 0.6450(5)
C162 C 0.8317(9) 0.7716(3) 0.6240(5)
C163 C 0.9003(9) 0.7491(3) 0.6397(5)
C164 C 1.342(1) 0.6056(6) 0.6909(9)
C165 C 1.377(1) 0.6350(5) 0.7203(9)
C166 C 1.416(1) 0.6281(6) 0.7780(9)
C167 C 1.411(1) 0.5935(5) 0.7886(7)
C168 C 1.368(2) 0.5698(6) 0.7638(10)
C169 C 1.330(1) 0.5776(5) 0.7085(9)
C170 C 0.810(2) 0.5591(6) 0.5892(10)
C171 C 0.839(2) 0.5281(7) 0.605(1)
C172 C 0.908(2) 0.5135(5) 0.5720(10)
C173 C 0.967(2) 0.5326(6) 0.5408(9)
C174 C 0.940(2) 0.5634(6) 0.5306(8)
C175 C 0.859(2) 0.5765(5) 0.5518(9)
C176 C 0.912(1) 0.4345(4) 0.6685(7)
C177 C 0.828(1) 0.4275(5) 0.6419(8)
C178 C 0.822(1) 0.4055(5) 0.6037(8)
C179 C 0.904(1) 0.3925(4) 0.5836(7)
C180 C 0.989(1) 0.3994(4) 0.6063(6)
C181 C 0.994(1) 0.4188(4) 0.6484(7)
C182 C 0.4279(9) 0.4913(3) 0.3791(5)
C183 C 0.5046(9) 0.4852(3) 0.3483(5)
C184 C 0.5564(9) 0.5105(3) 0.3303(5)
C185 C 0.5297(9) 0.5408(3) 0.3420(5)
C186 C 0.4495(9) 0.5467(3) 0.3713(5)
C187 C 0.3979(8) 0.5219(3) 0.3903(5)
C188 C 1.179(3) 0.5081(8) 0.781(2)
C189 C 1.162(2) 0.5013(8) 0.721(2)
C190 C 1.086(2) 0.5126(7) 0.693(1)
C191 C 1.014(2) 0.5361(7) 0.713(1)
C192 C 1.013(2) 0.5324(7) 0.780(1)
C193 C 1.083(2) 0.5160(6) 0.801(1)
C46? C 1.110(2) 0.4626(5) 0.9677(9)
C49? C 1.244(2) 0.4763(5) 0.9107(9)
C50? C 1.141(1) 0.4832(5) 1.0112(9)
C53? C 1.274(1) 0.4983(5) 0.9549(9)
C61? C 1.142(1) 0.5860(4) 0.9976(7)
C62? C 0.266(1) 0.5625(5) 0.9449(7)
C65? C 1.099(1) 0.5989(5) 0.9501(8)
C66? C 1.229(1) 0.5758(5) 0.8963(8)
C97? C 1.414(2) 0.4413(5) 1.0750(9)
C100? C 1.411(2) 0.4481(6) 1.155(1)
C102? C 1.412(1) 0.6362(4) 1.1231(7)
C105? C 1.175(2) 0.6350(5) 1.0674(10)
C106? C 1.360(1) 0.6306(4) 1.0013(8)
C125? C 0.874(3) 0.150(1) 0.453(1)
C127? C 0.887(2) 0.183(1) 0.448(2)
C130? C 0.789(2) 0.168(1) 0.388(1)
C132? C 0.810(3) 0.1399(7) 0.414(2)
C134? C 0.832(3) 0.1921(8) 0.405(2)
C137? C 1.262(2) 0.5097(6) 1.2198(10)
C139? C 1.296(2) 0.5632(6) 1.235(1)
C142? C 1.199(2) 0.5269(6) 1.1930(10)
C144? C 1.530(1) 0.5604(6) 1.1746(9)
C147? C 1.509(1) 0.5529(6) 1.0879(8)
C149? C 1.516(1) 0.5187(5) 1.1131(10)
C151? C 1.531(1) 0.5250(6) 1.1755(9)
loop_
_geom_bond_atom_site_label_1
_geom_bond_atom_site_label_2
_geom_bond_site_symmetry_1
_geom_bond_site_symmetry_2
Zr1 C1 1_555 1_555
Zr2 C26 1_555 1_555
Zr3 C56 1_555 1_555
Si1 C1 1_555 1_555
Si2 C26 1_555 1_555
Si3 C27 1_555 1_555
Si4 C56 1_555 1_555
Si5 C57 1_555 1_555
Si6 C86 1_555 1_555
N1 C9 1_555 1_555
N2 C14 1_555 1_555
N3 C35 1_555 1_555
N4 C40 1_555 1_555
N5 C69 1_555 1_555
N6 C74 1_555 1_555
C1 C2 1_555 1_555
C2 C3 1_555 1_555
C3 C4 1_555 1_555
C4 C6 1_555 1_555
C5 C3 1_555 1_555
C6 C8 1_555 1_555
C7 C5 1_555 1_555
C8 C7 1_555 1_555
C9 C10 1_555 1_555
C10 C8 1_555 1_555
C11 C10 1_555 1_555
C12 C11 1_555 1_555
C13 N1 1_555 1_555
C14 C13 1_555 1_555
C15 C14 1_555 1_555
C16 C15 1_555 1_555
C17 C16 1_555 1_555
C18 N2 1_555 1_555
C19 C17 1_555 1_555
C20 C19 1_555 1_555
C21 C19 1_555 1_555
C22 C20 1_555 1_555
C23 C21 1_555 1_555
C24 C22 1_555 1_555
C25 C24 1_555 1_555
C26 C25 1_555 1_555
C27 Zr2 1_555 1_555
C28 C25 1_555 1_555
C29 C28 1_555 1_555
C30 C29 1_555 1_555
C31 C29 1_555 1_555
C32 C30 1_555 1_555
C33 C31 1_555 1_555
C34 C32 1_555 1_555
C35 C36 1_555 1_555
C36 C34 1_555 1_555
C37 C36 1_555 1_555
C38 C37 1_555 1_555
C39 N3 1_555 1_555
C40 C39 1_555 1_555
C41 C40 1_555 1_555
C42 C41 1_555 1_555
C43 C42 1_555 1_555
C44 N4 1_555 1_555
C45 C43 1_555 1_555
C47 C45 1_555 1_555
C48 C45 1_555 1_555
C51 C47 1_555 1_555
C52 C48 1_555 1_555
C54 C51 1_555 1_555
C55 C54 1_555 1_555
C56 C55 1_555 1_555
C57 Zr3 1_555 1_555
C58 C55 1_555 1_555
C59 C58 1_555 1_555
C60 C59 1_555 1_555
C63 C59 1_555 1_555
C64 C60 1_555 1_555
C67 C63 1_555 1_555
C68 C64 1_555 1_555
C69 C70 1_555 1_555
C70 C68 1_555 1_555
C71 C70 1_555 1_555
C72 C71 1_555 1_555
C73 N5 1_555 1_555
C74 C73 1_555 1_555
C75 C74 1_555 1_555
C76 C75 1_555 1_555
C77 C76 1_555 1_555
C78 N6 1_555 1_555
C79 C77 1_555 1_555
C80 C79 1_555 1_555
C81 C79 1_555 1_555
C82 C80 1_555 1_555
C83 C81 1_555 1_555
C84 C82 1_555 1_555
C85 C2 1_555 1_555
C86 Zr1 1_555 1_555
C87 Si1 1_555 1_555
C88 Si1 1_555 1_555
C89 Si1 1_555 1_555
C90 Si2 1_555 1_555
C91 Si2 1_555 1_555
C92 Si2 1_555 1_555
C93 Si3 1_555 1_555
C94 Si3 1_555 1_555
C95 Si3 1_555 1_555
C96 Si4 1_555 1_555
C98 Si4 1_555 1_555
C99 Si4 1_555 1_555
C101 Si5 1_555 1_555
C103 Si5 1_555 1_555
C104 Si5 1_555 1_555
C107 Si6 1_555 1_555
C108 Si6 1_555 1_555
C109 Si6 1_555 1_555
C110 Zr1 1_555 1_555
C111 Zr1 1_555 1_555
C112 Zr1 1_555 1_555
C113 Zr1 1_555 1_555
C114 Zr1 1_555 1_555
C115 Zr1 1_555 1_555
C116 Zr1 1_555 1_555
C117 Zr1 1_555 1_555
C118 Zr1 1_555 1_555
C119 Zr1 1_555 1_555
C120 Zr2 1_555 1_555
C121 Zr2 1_555 1_555
C122 Zr2 1_555 1_555
C123 Zr2 1_555 1_555
C124 Zr2 1_555 1_555
C126 Zr2 1_555 1_555
C128 Zr2 1_555 1_555
C129 Zr2 1_555 1_555
C131 Zr2 1_555 1_555
C133 Zr2 1_555 1_555
C135 Zr3 1_555 1_555
C136 Zr3 1_555 1_555
C138 Zr3 1_555 1_555
C140 Zr3 1_555 1_555
C141 Zr3 1_555 1_555
C143 Zr3 1_555 1_555
C145 Zr3 1_555 1_555
C146 Zr3 1_555 1_555
C148 Zr3 1_555 1_555
C150 Zr3 1_555 1_555
C152 C153 1_555 1_555
C153 C154 1_555 1_555
C154 C155 1_555 1_555
C155 C156 1_555 1_555
C156 C157 1_555 1_555
C157 C152 1_555 1_555
C158 C159 1_555 1_555
C159 C160 1_555 1_555
C160 C161 1_555 1_555
C161 C162 1_555 1_555
C162 C163 1_555 1_555
C163 C158 1_555 1_555
C164 C165 1_555 1_555
C165 C166 1_555 1_555
C166 C167 1_555 1_555
C167 C168 1_555 1_555
C168 C169 1_555 1_555
C169 C164 1_555 1_555
C170 C171 1_555 1_555
C171 C172 1_555 1_555
C172 C173 1_555 1_555
C173 C174 1_555 1_555
C174 C175 1_555 1_555
C175 C170 1_555 1_555
C176 C177 1_555 1_555
C177 C178 1_555 1_555
C178 C179 1_555 1_555
C179 C180 1_555 1_555
C180 C181 1_555 1_555
C181 C176 1_555 1_555
C182 C183 1_555 1_555
C183 C184 1_555 1_555
C184 C185 1_555 1_555
C185 C186 1_555 1_555
C186 C187 1_555 1_555
C187 C182 1_555 1_555
C188 C189 1_555 1_555
C189 C190 1_555 1_555
C190 C191 1_555 1_555
C191 C192 1_555 1_555
C192 C193 1_555 1_555
C193 C188 1_555 1_555
C12 C13 1_555 1_555
C17 C18 1_555 1_555
C23 C24 1_555 1_555
C27 C28 1_555 1_555
C33 C34 1_555 1_555
C38 C39 1_555 1_555
C43 C44 1_555 1_555
C52 C54 1_555 1_555
C57 C58 1_555 1_555
C67 C68 1_555 1_555
C72 C73 1_555 1_555
C77 C78 1_555 1_555
C83 C84 1_555 1_555
C84 C85 1_555 1_555
C85 C86 1_555 1_555
C110 C111 1_555 1_555
C110 C114 1_555 1_555
C111 C112 1_555 1_555
C112 C113 1_555 1_555
C113 C114 1_555 1_555
C115 C116 1_555 1_555
C115 C119 1_555 1_555
C116 C117 1_555 1_555
C117 C118 1_555 1_555
C118 C119 1_555 1_555
C120 C121 1_555 1_555
C120 C124 1_555 1_555
C121 C122 1_555 1_555
C122 C123 1_555 1_555
C123 C124 1_555 1_555
C126 C128 1_555 1_555
C126 C133 1_555 1_555
C128 C129 1_555 1_555
C129 C131 1_555 1_555
C131 C133 1_555 1_555
C135 C136 1_555 1_555
C135 C140 1_555 1_555
C136 C138 1_555 1_555
C138 C141 1_555 1_555
C140 C141 1_555 1_555
C143 C145 1_555 1_555
C143 C150 1_555 1_555
C145 C146 1_555 1_555
C146 C148 1_555 1_555
C148 C150 1_555 1_555

#END
