
#######################################################################
#
#                 Cambridge Crystallographic Data Centre
#                                CCDC 
#
#######################################################################
#
# If this CIF has been generated from an entry in the Cambridge 
# Structural Database, then it will include bibliographic, chemical, 
# crystal, experimental, refinement or atomic coordinate data resulting 
# from the CCDC's data processing and validation procedures.
#
#######################################################################

data_VIWWAB
_chemical_formula_moiety         
'C128 H108 N12 O8 Pd2 S4 4+,3.5(B1 F4 1-),0.5(Cl1 1-),C2 H6 O1'
_chemical_name_systematic        
'tetrakis(\m~2~-10-hexyl-3,7-bis(pyridin-3-ylethynyl)-10H-phenothiazine 5,5-dioxide)-di-palladium(ii) tetrafluoroborate chloride ethanol solvate'
_symmetry_cell_setting           tetragonal
_symmetry_space_group_name_H-M   'P 4/n n c'
_symmetry_Int_Tables_number      126
_space_group_name_Hall           '-P 4a 2bc'
loop_
_symmetry_equiv_pos_site_id
_symmetry_equiv_pos_as_xyz
1 x,y,z
2 1/2-x,1/2-y,z
3 1/2-y,x,z
4 y,1/2-x,z
5 1/2-x,y,1/2-z
6 x,1/2-y,1/2-z
7 y,x,1/2-z
8 1/2-y,1/2-x,1/2-z
9 -x,-y,-z
10 1/2+x,1/2+y,-z
11 1/2+y,-x,-z
12 -y,1/2+x,-z
13 1/2+x,-y,1/2+z
14 -x,1/2+y,1/2+z
15 -y,-x,1/2+z
16 1/2+y,1/2+x,1/2+z
_cell_length_a                   21.991(2)
_cell_length_b                   21.991(2)
_cell_length_c                   31.800(3)
_cell_angle_alpha                90
_cell_angle_beta                 90
_cell_angle_gamma                90
_cell_volume                     15378.6
_exptl_crystal_colour            yellow
_exptl_crystal_description       block
_cell_formula_units_Z            4
loop_
_atom_site_label
_atom_site_type_symbol
_atom_site_fract_x
_atom_site_fract_y
_atom_site_fract_z
B1 B 0.2500 0.7500 0.5000
F1 F 0.3023(2) 0.74785(19) 0.47598(18)
F1A F 0.1977(2) 0.75215(19) 0.47598(18)
F1J F 0.24785(19) 0.6977(2) 0.52402(18)
F1K F 0.25215(19) 0.8023(2) 0.52402(18)
Pd1 Pd 0.2500 0.2500 0.11684(2)
Pd2 Pd 0.2500 0.2500 0.64723(3)
O1 O 0.3599(3) 0.4098(2) 0.38167(14)
O2 O 0.4490(3) 0.4758(3) 0.38316(16)
N1 N 0.2707(2) 0.3395(2) 0.11701(13)
C1 C 0.2735(3) 0.3709(3) 0.08055(19)
H1 H 0.2657 0.3507 0.0547
C2 C 0.2875(3) 0.4320(3) 0.0804(2)
H2 H 0.2898 0.4534 0.0545
C3 C 0.2980(3) 0.4614(3) 0.11699(19)
H3 H 0.3065 0.5038 0.1170
C4 C 0.2965(2) 0.4292(2) 0.15464(19)
C5 C 0.2821(2) 0.3682(2) 0.15357(17)
H4 H 0.2803 0.3459 0.1791
C6 C 0.3099(3) 0.4576(3) 0.1937(2)
C7 C 0.3212(3) 0.4820(3) 0.2271(2)
S1 S 0.38470(8) 0.47040(8) 0.38214(5)
C8 C 0.3570(3) 0.5109(2) 0.33964(19)
C9 C 0.3476(3) 0.4810(3) 0.3021(2)
H5 H 0.3519 0.4381 0.3010
C10 C 0.3322(3) 0.5121(3) 0.2661(2)
C11 C 0.3264(4) 0.5758(3) 0.2692(2)
H6 H 0.3172 0.5987 0.2447
C12 C 0.3334(4) 0.6046(3) 0.3056(2)
H7 H 0.3274 0.6474 0.3064
C13 C 0.3494(3) 0.5742(3) 0.3431(2)
N2 N 0.3546(3) 0.6043(2) 0.38172(14)
C14 C 0.3540(3) 0.5110(2) 0.42348(19)
C15 C 0.3431(3) 0.4812(3) 0.4613(2)
H8 H 0.3490 0.4385 0.4629
C16 C 0.3240(3) 0.5121(3) 0.4963(2)
C17 C 0.3148(4) 0.5749(3) 0.4921(2)
H9 H 0.3018 0.5975 0.5160
C18 C 0.3234(4) 0.6037(3) 0.4563(2)
H10 H 0.3148 0.6460 0.4548
C19 C 0.3451(3) 0.5738(3) 0.4198(2)
C20 C 0.3149(4) 0.4821(3) 0.5352(2)
C21 C 0.3082(4) 0.4577(3) 0.5687(2)
N3 N 0.2738(3) 0.3385(2) 0.64621(15)
C22 C 0.2838(3) 0.3678(3) 0.61022(19)
H11 H 0.2810 0.3455 0.5847
C23 C 0.2979(4) 0.4287(3) 0.6083(2)
C24 C 0.3783(6) 0.6672(5) 0.3849(5)
H12 H 0.3458 0.6933 0.3966
H13 H 0.3873 0.6820 0.3562
C25 C 0.4362(5) 0.6758(6) 0.4122(5)
H14 H 0.4521 0.7175 0.4079
H15 H 0.4252 0.6715 0.4422
C26 C 0.4857(6) 0.6302(7) 0.4015(4)
H16 H 0.4943 0.6326 0.3710
H17 H 0.4704 0.5887 0.4074
C27 C 0.5404(8) 0.6318(6) 0.4726(4)
H18 H 0.5149 0.6647 0.4844
H19 H 0.5815 0.6354 0.4851
C28 C 0.5448(5) 0.6395(7) 0.4255(4)
H20 H 0.5754 0.6104 0.4146
H21 H 0.5600 0.6810 0.4195
C29 C 0.5129(9) 0.5699(5) 0.4849(5)
H22 H 0.4750 0.5634 0.4692
H23 H 0.5043 0.5694 0.5151
H24 H 0.5418 0.5374 0.4780
C30 C 0.3166(13) 0.4578(8) 0.6453(4)
H25 H 0.3315 0.4983 0.6449
C31 C 0.3127(14) 0.4261(8) 0.6814(4)
H26 H 0.3244 0.4448 0.7071
C32 C 0.2922(13) 0.3671(8) 0.6818(4)
H27 H 0.2908 0.3458 0.7077
O1A O 0.1401(3) 0.0902(2) 0.38167(14)
O2A O 0.0510(3) 0.0242(3) 0.38316(16)
N1A N 0.2293(2) 0.1605(2) 0.11701(13)
C1A C 0.2265(3) 0.1291(3) 0.08055(19)
H1A H 0.2343 0.1493 0.0547
C2A C 0.2125(3) 0.0680(3) 0.0804(2)
H2A H 0.2102 0.0466 0.0545
C3A C 0.2020(3) 0.0386(3) 0.11699(19)
H3A H 0.1935 -0.0038 0.1170
C4A C 0.2035(2) 0.0708(2) 0.15464(19)
C5A C 0.2179(2) 0.1318(2) 0.15357(17)
H4A H 0.2197 0.1541 0.1791
C6A C 0.1901(3) 0.0424(3) 0.1937(2)
C7A C 0.1788(3) 0.0180(3) 0.2271(2)
S1A S 0.11530(8) 0.02960(8) 0.38214(5)
C8A C 0.1430(3) -0.0109(2) 0.33964(19)
C9A C 0.1524(3) 0.0190(3) 0.3021(2)
H5A H 0.1481 0.0619 0.3010
C10A C 0.1678(3) -0.0121(3) 0.2661(2)
C11A C 0.1736(4) -0.0758(3) 0.2692(2)
H6A H 0.1828 -0.0987 0.2447
C12A C 0.1666(4) -0.1046(3) 0.3056(2)
H7A H 0.1726 -0.1474 0.3064
C13A C 0.1506(3) -0.0742(3) 0.3431(2)
N2A N 0.1454(3) -0.1043(2) 0.38172(14)
C14A C 0.1460(3) -0.0110(2) 0.42348(19)
C15A C 0.1569(3) 0.0188(3) 0.4613(2)
H8A H 0.1510 0.0615 0.4629
C16A C 0.1760(3) -0.0121(3) 0.4963(2)
C17A C 0.1852(4) -0.0749(3) 0.4921(2)
H9A H 0.1982 -0.0975 0.5160
C18A C 0.1766(4) -0.1037(3) 0.4563(2)
H10A H 0.1852 -0.1460 0.4548
C19A C 0.1549(3) -0.0738(3) 0.4198(2)
C20A C 0.1851(4) 0.0179(3) 0.5352(2)
C21A C 0.1918(4) 0.0423(3) 0.5687(2)
N3A N 0.2262(3) 0.1615(2) 0.64621(15)
C22A C 0.2162(3) 0.1322(3) 0.61022(19)
H11A H 0.2190 0.1545 0.5847
C23A C 0.2021(4) 0.0713(3) 0.6083(2)
C24A C 0.1217(6) -0.1672(5) 0.3849(5)
H12A H 0.1542 -0.1933 0.3966
H13A H 0.1127 -0.1820 0.3562
C25A C 0.0638(5) -0.1758(6) 0.4122(5)
H14A H 0.0479 -0.2175 0.4079
H15A H 0.0748 -0.1715 0.4422
C26A C 0.0143(6) -0.1302(7) 0.4015(4)
H16A H 0.0057 -0.1326 0.3710
H17A H 0.0296 -0.0887 0.4074
C27A C -0.0404(8) -0.1318(6) 0.4726(4)
H18A H -0.0149 -0.1647 0.4844
H19A H -0.0815 -0.1354 0.4851
C28A C -0.0448(5) -0.1395(7) 0.4255(4)
H20A H -0.0754 -0.1104 0.4146
H21A H -0.0600 -0.1810 0.4195
C29A C -0.0129(9) -0.0699(5) 0.4849(5)
H22A H 0.0250 -0.0634 0.4692
H23A H -0.0043 -0.0694 0.5151
H24A H -0.0418 -0.0374 0.4780
C30A C 0.1834(13) 0.0422(8) 0.6453(4)
H25A H 0.1685 0.0017 0.6449
C31A C 0.1873(14) 0.0739(8) 0.6814(4)
H26A H 0.1756 0.0552 0.7071
C32A C 0.2078(13) 0.1329(8) 0.6818(4)
H27A H 0.2092 0.1542 0.7077
O1B O 0.0902(2) 0.3599(3) 0.38167(14)
O2B O 0.0242(3) 0.4490(3) 0.38316(16)
N1B N 0.1605(2) 0.2707(2) 0.11701(13)
C1B C 0.1291(3) 0.2735(3) 0.08055(19)
H1B H 0.1493 0.2657 0.0547
C2B C 0.0680(3) 0.2875(3) 0.0804(2)
H2B H 0.0466 0.2898 0.0545
C3B C 0.0386(3) 0.2980(3) 0.11699(19)
H3B H -0.0038 0.3065 0.1170
C4B C 0.0708(2) 0.2965(2) 0.15464(19)
C5B C 0.1318(2) 0.2821(2) 0.15357(17)
H4B H 0.1541 0.2803 0.1791
C6B C 0.0424(3) 0.3099(3) 0.1937(2)
C7B C 0.0180(3) 0.3212(3) 0.2271(2)
S1B S 0.02960(8) 0.38470(8) 0.38214(5)
C8B C -0.0109(2) 0.3570(3) 0.33964(19)
C9B C 0.0190(3) 0.3476(3) 0.3021(2)
H5B H 0.0619 0.3519 0.3010
C10B C -0.0121(3) 0.3322(3) 0.2661(2)
C11B C -0.0758(3) 0.3264(4) 0.2692(2)
H6B H -0.0987 0.3172 0.2447
C12B C -0.1046(3) 0.3334(4) 0.3056(2)
H7B H -0.1474 0.3274 0.3064
C13B C -0.0742(3) 0.3494(3) 0.3431(2)
N2B N -0.1043(2) 0.3546(3) 0.38172(14)
C14B C -0.0110(2) 0.3540(3) 0.42348(19)
C15B C 0.0188(3) 0.3431(3) 0.4613(2)
H8B H 0.0615 0.3490 0.4629
C16B C -0.0121(3) 0.3240(3) 0.4963(2)
C17B C -0.0749(3) 0.3148(4) 0.4921(2)
H9B H -0.0975 0.3018 0.5160
C18B C -0.1037(3) 0.3234(4) 0.4563(2)
H10B H -0.1460 0.3148 0.4548
C19B C -0.0738(3) 0.3451(3) 0.4198(2)
C20B C 0.0179(3) 0.3149(4) 0.5352(2)
C21B C 0.0423(3) 0.3082(4) 0.5687(2)
N3B N 0.1615(2) 0.2738(3) 0.64621(15)
C22B C 0.1322(3) 0.2838(3) 0.61022(19)
H11B H 0.1545 0.2810 0.5847
C23B C 0.0713(3) 0.2979(4) 0.6083(2)
C24B C -0.1672(5) 0.3783(6) 0.3849(5)
H12B H -0.1933 0.3458 0.3966
H13B H -0.1820 0.3873 0.3562
C25B C -0.1758(6) 0.4362(5) 0.4122(5)
H14B H -0.2175 0.4521 0.4079
H15B H -0.1715 0.4252 0.4422
C26B C -0.1302(7) 0.4857(6) 0.4015(4)
H16B H -0.1326 0.4943 0.3710
H17B H -0.0887 0.4704 0.4074
C27B C -0.1318(6) 0.5404(8) 0.4726(4)
H18B H -0.1647 0.5149 0.4844
H19B H -0.1354 0.5815 0.4851
C28B C -0.1395(7) 0.5448(5) 0.4255(4)
H20B H -0.1104 0.5754 0.4146
H21B H -0.1810 0.5600 0.4195
C29B C -0.0699(5) 0.5129(9) 0.4849(5)
H22B H -0.0634 0.4750 0.4692
H23B H -0.0694 0.5043 0.5151
H24B H -0.0374 0.5418 0.4780
C30B C 0.0422(8) 0.3166(13) 0.6453(4)
H25B H 0.0017 0.3315 0.6449
C31B C 0.0739(8) 0.3127(14) 0.6814(4)
H26B H 0.0552 0.3244 0.7071
C32B C 0.1329(8) 0.2922(13) 0.6818(4)
H27B H 0.1542 0.2908 0.7077
O1C O 0.4098(2) 0.1401(3) 0.38167(14)
O2C O 0.4758(3) 0.0510(3) 0.38316(16)
N1C N 0.3395(2) 0.2293(2) 0.11701(13)
C1C C 0.3709(3) 0.2265(3) 0.08055(19)
H1C H 0.3507 0.2343 0.0547
C2C C 0.4320(3) 0.2125(3) 0.0804(2)
H2C H 0.4534 0.2102 0.0545
C3C C 0.4614(3) 0.2020(3) 0.11699(19)
H3C H 0.5038 0.1935 0.1170
C4C C 0.4292(2) 0.2035(2) 0.15464(19)
C5C C 0.3682(2) 0.2179(2) 0.15357(17)
H4C H 0.3459 0.2197 0.1791
C6C C 0.4576(3) 0.1901(3) 0.1937(2)
C7C C 0.4820(3) 0.1788(3) 0.2271(2)
S1C S 0.47040(8) 0.11530(8) 0.38214(5)
C8C C 0.5109(2) 0.1430(3) 0.33964(19)
C9C C 0.4810(3) 0.1524(3) 0.3021(2)
H5C H 0.4381 0.1481 0.3010
C10C C 0.5121(3) 0.1678(3) 0.2661(2)
C11C C 0.5758(3) 0.1736(4) 0.2692(2)
H6C H 0.5987 0.1828 0.2447
C12C C 0.6046(3) 0.1666(4) 0.3056(2)
H7C H 0.6474 0.1726 0.3064
C13C C 0.5742(3) 0.1506(3) 0.3431(2)
N2C N 0.6043(2) 0.1454(3) 0.38172(14)
C14C C 0.5110(2) 0.1460(3) 0.42348(19)
C15C C 0.4812(3) 0.1569(3) 0.4613(2)
H8C H 0.4385 0.1510 0.4629
C16C C 0.5121(3) 0.1760(3) 0.4963(2)
C17C C 0.5749(3) 0.1852(4) 0.4921(2)
H9C H 0.5975 0.1982 0.5160
C18C C 0.6037(3) 0.1766(4) 0.4563(2)
H10C H 0.6460 0.1852 0.4548
C19C C 0.5738(3) 0.1549(3) 0.4198(2)
C20C C 0.4821(3) 0.1851(4) 0.5352(2)
C21C C 0.4577(3) 0.1918(4) 0.5687(2)
N3C N 0.3385(2) 0.2262(3) 0.64621(15)
C22C C 0.3678(3) 0.2162(3) 0.61022(19)
H11C H 0.3455 0.2190 0.5847
C23C C 0.4287(3) 0.2021(4) 0.6083(2)
C24C C 0.6672(5) 0.1217(6) 0.3849(5)
H12C H 0.6933 0.1542 0.3966
H13C H 0.6820 0.1127 0.3562
C25C C 0.6758(6) 0.0638(5) 0.4122(5)
H14C H 0.7175 0.0479 0.4079
H15C H 0.6715 0.0748 0.4422
C26C C 0.6302(7) 0.0143(6) 0.4015(4)
H16C H 0.6326 0.0057 0.3710
H17C H 0.5887 0.0296 0.4074
C27C C 0.6318(6) -0.0404(8) 0.4726(4)
H18C H 0.6647 -0.0149 0.4844
H19C H 0.6354 -0.0815 0.4851
C28C C 0.6395(7) -0.0448(5) 0.4255(4)
H20C H 0.6104 -0.0754 0.4146
H21C H 0.6810 -0.0600 0.4195
C29C C 0.5699(5) -0.0129(9) 0.4849(5)
H22C H 0.5634 0.0250 0.4692
H23C H 0.5694 -0.0043 0.5151
H24C H 0.5374 -0.0418 0.4780
C30C C 0.4578(8) 0.1834(13) 0.6453(4)
H25C H 0.4983 0.1685 0.6449
C31C C 0.4261(8) 0.1873(14) 0.6814(4)
H26C H 0.4448 0.1756 0.7071
C32C C 0.3671(8) 0.2078(13) 0.6818(4)
H27C H 0.3458 0.2092 0.7077
Cl1 Cl 0.2500 0.2500 0.7500
B2? B 0.4158(12) 0.7468(13) 0.2524(8)
F2? F 0.3577(12) 0.764(2) 0.2439(14)
F3? F 0.4544(15) 0.7911(16) 0.2393(11)
F4? F 0.4223(16) 0.7386(18) 0.2945(7)
F5? F 0.4289(19) 0.6940(15) 0.2322(12)
C33? C 0.2886(10) 0.4624(7) 0.6456(4)
H28? H 0.2940 0.5053 0.6451
C34? C 0.2722(15) 0.4351(8) 0.6819(5)
H29? H 0.2662 0.4581 0.7068
C35? C 0.2645(14) 0.3727(8) 0.6818(5)
H30? H 0.2523 0.3530 0.7070
C36? C 0.3545(11) 0.6748(6) 0.3795(6)
H31? H 0.3192 0.6882 0.3626
H32? H 0.3494 0.6913 0.4083
C37? C 0.4125(10) 0.7013(10) 0.3603(8)
H33? H 0.4206 0.7419 0.3726
H34? H 0.4071 0.7064 0.3296
C38? C 0.4670(10) 0.6588(10) 0.3689(8)
H35? H 0.4555 0.6162 0.3627
H36? H 0.5016 0.6700 0.3505
C39? C 0.4858(19) 0.6648(14) 0.4155(9)
H37? H 0.5197 0.6943 0.4180
H38? H 0.4511 0.6804 0.4321
C40? C 0.506(2) 0.6033(17) 0.4333(10)
H39? H 0.4697 0.5775 0.4382
H40? H 0.5266 0.6096 0.4606
C41? C 0.5493(19) 0.5709(19) 0.4028(16)
H41? H 0.5668 0.5352 0.4167
H42? H 0.5819 0.5988 0.3946
H43? H 0.5267 0.5580 0.3778
C42? C 0.3670(9) 0.6717(7) 0.3799(8)
H44? H 0.3685 0.6885 0.4088
H45? H 0.3337 0.6924 0.3646
C43? C 0.4284(8) 0.6842(10) 0.3573(6)
H46? H 0.4286 0.6635 0.3296
H47? H 0.4329 0.7284 0.3524
C44? C 0.4815(9) 0.6615(15) 0.3835(6)
H48? H 0.4665 0.6314 0.4042
H49? H 0.4992 0.6960 0.3992
C45? C 0.5312(11) 0.6320(10) 0.3566(8)
H50? H 0.5615 0.6123 0.3751
H51? H 0.5129 0.6002 0.3386
C46? C 0.5632(15) 0.6788(12) 0.3288(8)
H52? H 0.6073 0.6787 0.3349
H53? H 0.5472 0.7200 0.3350
C47? C 0.553(2) 0.6636(18) 0.2820(7)
H54? H 0.5787 0.6894 0.2645
H55? H 0.5099 0.6711 0.2748
H56? H 0.5624 0.6208 0.2769
B3? B 0.2775(7) 0.2533(10) 0.5158(4)
F6? F 0.2456(9) 0.2423(14) 0.5513(2)
F7? F 0.3103(10) 0.3052(8) 0.5205(6)
F8? F 0.3171(8) 0.2071(7) 0.5080(5)
F9? F 0.2399(9) 0.2588(14) 0.4819(2)
B4? B 0.2564(10) 0.2751(10) 0.2511(9)
F10? F 0.2433(17) 0.2505(17) 0.2892(7)
F11? F 0.258(2) 0.2320(12) 0.2210(9)
F12? F 0.2134(8) 0.3176(12) 0.2410(8)
F13? F 0.3117(8) 0.3038(14) 0.2535(17)
B5? B 0.7471(16) 0.2595(16) 0.2668(9)
F14? F 0.802(2) 0.245(2) 0.251(2)
F15? F 0.7433(19) 0.239(2) 0.3071(9)
F16? F 0.7400(17) 0.3209(15) 0.2666(11)
F17? F 0.703(3) 0.233(2) 0.2431(11)
loop_
_geom_bond_atom_site_label_1
_geom_bond_atom_site_label_2
_geom_bond_site_symmetry_1
_geom_bond_site_symmetry_2
B1 F1 1_555 1_555
Pd1 N1 1_555 1_555
Pd2 N3 1_555 1_555
O1 S1 1_555 1_555
O2 S1 1_555 1_555
N1 C1 1_555 1_555
C1 H1 1_555 1_555
C2 C1 1_555 1_555
H2 C2 1_555 1_555
C3 C2 1_555 1_555
H3 C3 1_555 1_555
C4 C3 1_555 1_555
C5 N1 1_555 1_555
H4 C5 1_555 1_555
C6 C4 1_555 1_555
C7 C6 1_555 1_555
S1 C8 1_555 1_555
C8 C9 1_555 1_555
C9 H5 1_555 1_555
C10 C7 1_555 1_555
C11 C10 1_555 1_555
H6 C11 1_555 1_555
C12 C11 1_555 1_555
H7 C12 1_555 1_555
C13 C8 1_555 1_555
N2 C13 1_555 1_555
C14 S1 1_555 1_555
C15 C14 1_555 1_555
H8 C15 1_555 1_555
C16 C15 1_555 1_555
C17 C16 1_555 1_555
H9 C17 1_555 1_555
C18 C17 1_555 1_555
H10 C18 1_555 1_555
C19 N2 1_555 1_555
C20 C16 1_555 1_555
C21 C20 1_555 1_555
N3 C22 1_555 1_555
C22 H11 1_555 1_555
C23 C21 1_555 1_555
C24 N2 1_555 1_555
H12 C24 1_555 1_555
H13 C24 1_555 1_555
C25 C24 1_555 1_555
H14 C25 1_555 1_555
H15 C25 1_555 1_555
C26 C25 1_555 1_555
H16 C26 1_555 1_555
H17 C26 1_555 1_555
C27 H18 1_555 1_555
H19 C27 1_555 1_555
C28 C26 1_555 1_555
H20 C28 1_555 1_555
H21 C28 1_555 1_555
C29 C27 1_555 1_555
H22 C29 1_555 1_555
H23 C29 1_555 1_555
H24 C29 1_555 1_555
C30 C23 1_555 1_555
H25 C30 1_555 1_555
C31 C30 1_555 1_555
H26 C31 1_555 1_555
C32 N3 1_555 1_555
H27 C32 1_555 1_555
F1A B1 1_555 1_555
F1J B1 1_555 1_555
F1K B1 1_555 1_555
O1A S1A 1_555 1_555
O2A S1A 1_555 1_555
N1A Pd1 1_555 1_555
C1A N1A 1_555 1_555
H1A C1A 1_555 1_555
C2A C1A 1_555 1_555
H2A C2A 1_555 1_555
C3A C2A 1_555 1_555
H3A C3A 1_555 1_555
C4A C3A 1_555 1_555
C5A N1A 1_555 1_555
H4A C5A 1_555 1_555
C6A C4A 1_555 1_555
C7A C6A 1_555 1_555
S1A C8A 1_555 1_555
C8A C9A 1_555 1_555
C9A H5A 1_555 1_555
C10A C7A 1_555 1_555
C11A C10A 1_555 1_555
H6A C11A 1_555 1_555
C12A C11A 1_555 1_555
H7A C12A 1_555 1_555
C13A C8A 1_555 1_555
N2A C13A 1_555 1_555
C14A S1A 1_555 1_555
C15A C14A 1_555 1_555
H8A C15A 1_555 1_555
C16A C15A 1_555 1_555
C17A C16A 1_555 1_555
H9A C17A 1_555 1_555
C18A C17A 1_555 1_555
H10A C18A 1_555 1_555
C19A N2A 1_555 1_555
C20A C16A 1_555 1_555
C21A C20A 1_555 1_555
N3A Pd2 1_555 1_555
C22A N3A 1_555 1_555
H11A C22A 1_555 1_555
C23A C21A 1_555 1_555
C24A N2A 1_555 1_555
H12A C24A 1_555 1_555
H13A C24A 1_555 1_555
C25A C24A 1_555 1_555
H14A C25A 1_555 1_555
H15A C25A 1_555 1_555
C26A C25A 1_555 1_555
H16A C26A 1_555 1_555
H17A C26A 1_555 1_555
C27A H18A 1_555 1_555
H19A C27A 1_555 1_555
C28A C26A 1_555 1_555
H20A C28A 1_555 1_555
H21A C28A 1_555 1_555
C29A C27A 1_555 1_555
H22A C29A 1_555 1_555
H23A C29A 1_555 1_555
H24A C29A 1_555 1_555
C30A C23A 1_555 1_555
H25A C30A 1_555 1_555
C31A C30A 1_555 1_555
H26A C31A 1_555 1_555
C32A N3A 1_555 1_555
H27A C32A 1_555 1_555
O1B S1B 1_555 1_555
O2B S1B 1_555 1_555
N1B Pd1 1_555 1_555
C1B N1B 1_555 1_555
H1B C1B 1_555 1_555
C2B C1B 1_555 1_555
H2B C2B 1_555 1_555
C3B C2B 1_555 1_555
H3B C3B 1_555 1_555
C4B C3B 1_555 1_555
C5B N1B 1_555 1_555
H4B C5B 1_555 1_555
C6B C4B 1_555 1_555
C7B C6B 1_555 1_555
S1B C8B 1_555 1_555
C8B C9B 1_555 1_555
C9B H5B 1_555 1_555
C10B C7B 1_555 1_555
C11B C10B 1_555 1_555
H6B C11B 1_555 1_555
C12B C11B 1_555 1_555
H7B C12B 1_555 1_555
C13B C8B 1_555 1_555
N2B C13B 1_555 1_555
C14B S1B 1_555 1_555
C15B C14B 1_555 1_555
H8B C15B 1_555 1_555
C16B C15B 1_555 1_555
C17B C16B 1_555 1_555
H9B C17B 1_555 1_555
C18B C17B 1_555 1_555
H10B C18B 1_555 1_555
C19B N2B 1_555 1_555
C20B C16B 1_555 1_555
C21B C20B 1_555 1_555
N3B Pd2 1_555 1_555
C22B N3B 1_555 1_555
H11B C22B 1_555 1_555
C23B C21B 1_555 1_555
C24B N2B 1_555 1_555
H12B C24B 1_555 1_555
H13B C24B 1_555 1_555
C25B C24B 1_555 1_555
H14B C25B 1_555 1_555
H15B C25B 1_555 1_555
C26B C25B 1_555 1_555
H16B C26B 1_555 1_555
H17B C26B 1_555 1_555
C27B H18B 1_555 1_555
H19B C27B 1_555 1_555
C28B C26B 1_555 1_555
H20B C28B 1_555 1_555
H21B C28B 1_555 1_555
C29B C27B 1_555 1_555
H22B C29B 1_555 1_555
H23B C29B 1_555 1_555
H24B C29B 1_555 1_555
C30B C23B 1_555 1_555
H25B C30B 1_555 1_555
C31B C30B 1_555 1_555
H26B C31B 1_555 1_555
C32B N3B 1_555 1_555
H27B C32B 1_555 1_555
O1C S1C 1_555 1_555
O2C S1C 1_555 1_555
N1C Pd1 1_555 1_555
C1C N1C 1_555 1_555
H1C C1C 1_555 1_555
C2C C1C 1_555 1_555
H2C C2C 1_555 1_555
C3C C2C 1_555 1_555
H3C C3C 1_555 1_555
C4C C3C 1_555 1_555
C5C N1C 1_555 1_555
H4C C5C 1_555 1_555
C6C C4C 1_555 1_555
C7C C6C 1_555 1_555
S1C C8C 1_555 1_555
C8C C9C 1_555 1_555
C9C H5C 1_555 1_555
C10C C7C 1_555 1_555
C11C C10C 1_555 1_555
H6C C11C 1_555 1_555
C12C C11C 1_555 1_555
H7C C12C 1_555 1_555
C13C C8C 1_555 1_555
N2C C13C 1_555 1_555
C14C S1C 1_555 1_555
C15C C14C 1_555 1_555
H8C C15C 1_555 1_555
C16C C15C 1_555 1_555
C17C C16C 1_555 1_555
H9C C17C 1_555 1_555
C18C C17C 1_555 1_555
H10C C18C 1_555 1_555
C19C N2C 1_555 1_555
C20C C16C 1_555 1_555
C21C C20C 1_555 1_555
N3C Pd2 1_555 1_555
C22C N3C 1_555 1_555
H11C C22C 1_555 1_555
C23C C21C 1_555 1_555
C24C N2C 1_555 1_555
H12C C24C 1_555 1_555
H13C C24C 1_555 1_555
C25C C24C 1_555 1_555
H14C C25C 1_555 1_555
H15C C25C 1_555 1_555
C26C C25C 1_555 1_555
H16C C26C 1_555 1_555
H17C C26C 1_555 1_555
C27C H18C 1_555 1_555
H19C C27C 1_555 1_555
C28C C26C 1_555 1_555
H20C C28C 1_555 1_555
H21C C28C 1_555 1_555
C29C C27C 1_555 1_555
H22C C29C 1_555 1_555
H23C C29C 1_555 1_555
H24C C29C 1_555 1_555
C30C C23C 1_555 1_555
H25C C30C 1_555 1_555
C31C C30C 1_555 1_555
H26C C31C 1_555 1_555
C32C N3C 1_555 1_555
H27C C32C 1_555 1_555
C4 C5 1_555 1_555
C9 C10 1_555 1_555
C12 C13 1_555 1_555
C14 C19 1_555 1_555
C18 C19 1_555 1_555
C22 C23 1_555 1_555
C27 C28 1_555 1_555
C31 C32 1_555 1_555
C4A C5A 1_555 1_555
C9A C10A 1_555 1_555
C12A C13A 1_555 1_555
C14A C19A 1_555 1_555
C18A C19A 1_555 1_555
C22A C23A 1_555 1_555
C27A C28A 1_555 1_555
C31A C32A 1_555 1_555
C4B C5B 1_555 1_555
C9B C10B 1_555 1_555
C12B C13B 1_555 1_555
C14B C19B 1_555 1_555
C18B C19B 1_555 1_555
C22B C23B 1_555 1_555
C27B C28B 1_555 1_555
C31B C32B 1_555 1_555
C4C C5C 1_555 1_555
C9C C10C 1_555 1_555
C12C C13C 1_555 1_555
C14C C19C 1_555 1_555
C18C C19C 1_555 1_555
C22C C23C 1_555 1_555
C27C C28C 1_555 1_555
C31C C32C 1_555 1_555

#END
