# generated using pymatgen
data_B34H448Pd4C376S8N24Cl(O2F17)8
_symmetry_space_group_name_H-M   'P 1'
_cell_length_a   21.99100000
_cell_length_b   21.99100000
_cell_length_c   31.80000000
_cell_angle_alpha   90.00000000
_cell_angle_beta   90.00000000
_cell_angle_gamma   90.00000000
_symmetry_Int_Tables_number   1
_chemical_formula_structural   B34H448Pd4C376S8N24Cl(O2F17)8
_chemical_formula_sum   'B68 H896 Pd8 C752 S16 N48 Cl2 O32 F272'
_cell_volume   15378.60977580
_cell_formula_units_Z   2
loop_
 _symmetry_equiv_pos_site_id
 _symmetry_equiv_pos_as_xyz
  1  'x, y, z'
loop_
 _atom_site_type_symbol
 _atom_site_label
 _atom_site_symmetry_multiplicity
 _atom_site_fract_x
 _atom_site_fract_y
 _atom_site_fract_z
 _atom_site_occupancy
  B  B1  1  0.250000  0.750000  0.500000  1
  B  B2  1  0.750000  0.250000  0.500000  1
  B  B3  1  0.250000  0.750000  0.000000  1
  B  B4  1  0.750000  0.250000  0.000000  1
  B  B5  1  0.415800  0.746800  0.252400  1
  B  B6  1  0.084200  0.753200  0.252400  1
  B  B7  1  0.753200  0.415800  0.252400  1
  B  B8  1  0.746800  0.084200  0.252400  1
  B  B9  1  0.084200  0.746800  0.247600  1
  B  B10  1  0.415800  0.753200  0.247600  1
  B  B11  1  0.746800  0.415800  0.247600  1
  B  B12  1  0.753200  0.084200  0.247600  1
  B  B13  1  0.584200  0.253200  0.747600  1
  B  B14  1  0.915800  0.246800  0.747600  1
  B  B15  1  0.246800  0.584200  0.747600  1
  B  B16  1  0.253200  0.915800  0.747600  1
  B  B17  1  0.915800  0.253200  0.752400  1
  B  B18  1  0.584200  0.246800  0.752400  1
  B  B19  1  0.253200  0.584200  0.752400  1
  B  B20  1  0.246800  0.915800  0.752400  1
  B  B21  1  0.277500  0.253300  0.515800  1
  B  B22  1  0.222500  0.246700  0.515800  1
  B  B23  1  0.246700  0.277500  0.515800  1
  B  B24  1  0.253300  0.222500  0.515800  1
  B  B25  1  0.222500  0.253300  0.984200  1
  B  B26  1  0.277500  0.246700  0.984200  1
  B  B27  1  0.253300  0.277500  0.984200  1
  B  B28  1  0.246700  0.222500  0.984200  1
  B  B29  1  0.722500  0.746700  0.484200  1
  B  B30  1  0.777500  0.753300  0.484200  1
  B  B31  1  0.753300  0.722500  0.484200  1
  B  B32  1  0.746700  0.777500  0.484200  1
  B  B33  1  0.777500  0.746700  0.015800  1
  B  B34  1  0.722500  0.753300  0.015800  1
  B  B35  1  0.746700  0.722500  0.015800  1
  B  B36  1  0.753300  0.777500  0.015800  1
  B  B37  1  0.256400  0.275100  0.251100  1
  B  B38  1  0.243600  0.224900  0.251100  1
  B  B39  1  0.224900  0.256400  0.251100  1
  B  B40  1  0.275100  0.243600  0.251100  1
  B  B41  1  0.243600  0.275100  0.248900  1
  B  B42  1  0.256400  0.224900  0.248900  1
  B  B43  1  0.275100  0.256400  0.248900  1
  B  B44  1  0.224900  0.243600  0.248900  1
  B  B45  1  0.743600  0.724900  0.748900  1
  B  B46  1  0.756400  0.775100  0.748900  1
  B  B47  1  0.775100  0.743600  0.748900  1
  B  B48  1  0.724900  0.756400  0.748900  1
  B  B49  1  0.756400  0.724900  0.751100  1
  B  B50  1  0.743600  0.775100  0.751100  1
  B  B51  1  0.724900  0.743600  0.751100  1
  B  B52  1  0.775100  0.756400  0.751100  1
  B  B53  1  0.747100  0.259500  0.266800  1
  B  B54  1  0.752900  0.240500  0.266800  1
  B  B55  1  0.240500  0.747100  0.266800  1
  B  B56  1  0.259500  0.752900  0.266800  1
  B  B57  1  0.752900  0.259500  0.233200  1
  B  B58  1  0.747100  0.240500  0.233200  1
  B  B59  1  0.259500  0.747100  0.233200  1
  B  B60  1  0.240500  0.752900  0.233200  1
  B  B61  1  0.252900  0.740500  0.733200  1
  B  B62  1  0.247100  0.759500  0.733200  1
  B  B63  1  0.759500  0.252900  0.733200  1
  B  B64  1  0.740500  0.247100  0.733200  1
  B  B65  1  0.247100  0.740500  0.766800  1
  B  B66  1  0.252900  0.759500  0.766800  1
  B  B67  1  0.740500  0.252900  0.766800  1
  B  B68  1  0.759500  0.247100  0.766800  1
  H  H69  1  0.294000  0.505300  0.645100  1
  H  H70  1  0.206000  0.994700  0.645100  1
  H  H71  1  0.994700  0.294000  0.645100  1
  H  H72  1  0.505300  0.206000  0.645100  1
  H  H73  1  0.206000  0.505300  0.854900  1
  H  H74  1  0.294000  0.994700  0.854900  1
  H  H75  1  0.505300  0.294000  0.854900  1
  H  H76  1  0.994700  0.206000  0.854900  1
  H  H77  1  0.706000  0.494700  0.354900  1
  H  H78  1  0.794000  0.005300  0.354900  1
  H  H79  1  0.005300  0.706000  0.354900  1
  H  H80  1  0.494700  0.794000  0.354900  1
  H  H81  1  0.794000  0.494700  0.145100  1
  H  H82  1  0.706000  0.005300  0.145100  1
  H  H83  1  0.494700  0.706000  0.145100  1
  H  H84  1  0.005300  0.794000  0.145100  1
  H  H85  1  0.266200  0.458100  0.706800  1
  H  H86  1  0.233800  0.041900  0.706800  1
  H  H87  1  0.041900  0.266200  0.706800  1
  H  H88  1  0.458100  0.233800  0.706800  1
  H  H89  1  0.233800  0.458100  0.793200  1
  H  H90  1  0.266200  0.041900  0.793200  1
  H  H91  1  0.458100  0.266200  0.793200  1
  H  H92  1  0.041900  0.233800  0.793200  1
  H  H93  1  0.733800  0.541900  0.293200  1
  H  H94  1  0.766200  0.958100  0.293200  1
  H  H95  1  0.958100  0.733800  0.293200  1
  H  H96  1  0.541900  0.766200  0.293200  1
  H  H97  1  0.766200  0.541900  0.206800  1
  H  H98  1  0.733800  0.958100  0.206800  1
  H  H99  1  0.541900  0.733800  0.206800  1
  H  H100  1  0.958100  0.766200  0.206800  1
  H  H101  1  0.252300  0.353000  0.707000  1
  H  H102  1  0.247700  0.147000  0.707000  1
  H  H103  1  0.147000  0.252300  0.707000  1
  H  H104  1  0.353000  0.247700  0.707000  1
  H  H105  1  0.247700  0.353000  0.793000  1
  H  H106  1  0.252300  0.147000  0.793000  1
  H  H107  1  0.353000  0.252300  0.793000  1
  H  H108  1  0.147000  0.247700  0.793000  1
  H  H109  1  0.747700  0.647000  0.293000  1
  H  H110  1  0.752300  0.853000  0.293000  1
  H  H111  1  0.853000  0.747700  0.293000  1
  H  H112  1  0.647000  0.752300  0.293000  1
  H  H113  1  0.752300  0.647000  0.207000  1
  H  H114  1  0.747700  0.853000  0.207000  1
  H  H115  1  0.647000  0.747700  0.207000  1
  H  H116  1  0.853000  0.752300  0.207000  1
  H  H117  1  0.319200  0.688200  0.362600  1
  H  H118  1  0.180800  0.811800  0.362600  1
  H  H119  1  0.811800  0.319200  0.362600  1
  H  H120  1  0.688200  0.180800  0.362600  1
  H  H121  1  0.180800  0.688200  0.137400  1
  H  H122  1  0.319200  0.811800  0.137400  1
  H  H123  1  0.688200  0.319200  0.137400  1
  H  H124  1  0.811800  0.180800  0.137400  1
  H  H125  1  0.680800  0.311800  0.637400  1
  H  H126  1  0.819200  0.188200  0.637400  1
  H  H127  1  0.188200  0.680800  0.637400  1
  H  H128  1  0.311800  0.819200  0.637400  1
  H  H129  1  0.819200  0.311800  0.862600  1
  H  H130  1  0.680800  0.188200  0.862600  1
  H  H131  1  0.311800  0.680800  0.862600  1
  H  H132  1  0.188200  0.819200  0.862600  1
  H  H133  1  0.349400  0.691300  0.408300  1
  H  H134  1  0.150600  0.808700  0.408300  1
  H  H135  1  0.808700  0.349400  0.408300  1
  H  H136  1  0.691300  0.150600  0.408300  1
  H  H137  1  0.150600  0.691300  0.091700  1
  H  H138  1  0.349400  0.808700  0.091700  1
  H  H139  1  0.691300  0.349400  0.091700  1
  H  H140  1  0.808700  0.150600  0.091700  1
  H  H141  1  0.650600  0.308700  0.591700  1
  H  H142  1  0.849400  0.191300  0.591700  1
  H  H143  1  0.191300  0.650600  0.591700  1
  H  H144  1  0.308700  0.849400  0.591700  1
  H  H145  1  0.849400  0.308700  0.908300  1
  H  H146  1  0.650600  0.191300  0.908300  1
  H  H147  1  0.308700  0.650600  0.908300  1
  H  H148  1  0.191300  0.849400  0.908300  1
  H  H149  1  0.420600  0.741900  0.372600  1
  H  H150  1  0.079400  0.758100  0.372600  1
  H  H151  1  0.758100  0.420600  0.372600  1
  H  H152  1  0.741900  0.079400  0.372600  1
  H  H153  1  0.079400  0.741900  0.127400  1
  H  H154  1  0.420600  0.758100  0.127400  1
  H  H155  1  0.741900  0.420600  0.127400  1
  H  H156  1  0.758100  0.079400  0.127400  1
  H  H157  1  0.579400  0.258100  0.627400  1
  H  H158  1  0.920600  0.241900  0.627400  1
  H  H159  1  0.241900  0.579400  0.627400  1
  H  H160  1  0.258100  0.920600  0.627400  1
  H  H161  1  0.920600  0.258100  0.872600  1
  H  H162  1  0.579400  0.241900  0.872600  1
  H  H163  1  0.258100  0.579400  0.872600  1
  H  H164  1  0.241900  0.920600  0.872600  1
  H  H165  1  0.407100  0.706400  0.329600  1
  H  H166  1  0.092900  0.793600  0.329600  1
  H  H167  1  0.793600  0.407100  0.329600  1
  H  H168  1  0.706400  0.092900  0.329600  1
  H  H169  1  0.092900  0.706400  0.170400  1
  H  H170  1  0.407100  0.793600  0.170400  1
  H  H171  1  0.706400  0.407100  0.170400  1
  H  H172  1  0.793600  0.092900  0.170400  1
  H  H173  1  0.592900  0.293600  0.670400  1
  H  H174  1  0.907100  0.206400  0.670400  1
  H  H175  1  0.206400  0.592900  0.670400  1
  H  H176  1  0.293600  0.907100  0.670400  1
  H  H177  1  0.907100  0.293600  0.829600  1
  H  H178  1  0.592900  0.206400  0.829600  1
  H  H179  1  0.293600  0.592900  0.829600  1
  H  H180  1  0.206400  0.907100  0.829600  1
  H  H181  1  0.455500  0.616200  0.362700  1
  H  H182  1  0.044500  0.883800  0.362700  1
  H  H183  1  0.883800  0.455500  0.362700  1
  H  H184  1  0.616200  0.044500  0.362700  1
  H  H185  1  0.044500  0.616200  0.137300  1
  H  H186  1  0.455500  0.883800  0.137300  1
  H  H187  1  0.616200  0.455500  0.137300  1
  H  H188  1  0.883800  0.044500  0.137300  1
  H  H189  1  0.544500  0.383800  0.637300  1
  H  H190  1  0.955500  0.116200  0.637300  1
  H  H191  1  0.116200  0.544500  0.637300  1
  H  H192  1  0.383800  0.955500  0.637300  1
  H  H193  1  0.955500  0.383800  0.862700  1
  H  H194  1  0.544500  0.116200  0.862700  1
  H  H195  1  0.383800  0.544500  0.862700  1
  H  H196  1  0.116200  0.955500  0.862700  1
  H  H197  1  0.501600  0.670000  0.350500  1
  H  H198  1  0.998400  0.830000  0.350500  1
  H  H199  1  0.830000  0.501600  0.350500  1
  H  H200  1  0.670000  0.998400  0.350500  1
  H  H201  1  0.998400  0.670000  0.149500  1
  H  H202  1  0.501600  0.830000  0.149500  1
  H  H203  1  0.670000  0.501600  0.149500  1
  H  H204  1  0.830000  0.998400  0.149500  1
  H  H205  1  0.498400  0.330000  0.649500  1
  H  H206  1  0.001600  0.170000  0.649500  1
  H  H207  1  0.170000  0.498400  0.649500  1
  H  H208  1  0.330000  0.001600  0.649500  1
  H  H209  1  0.001600  0.330000  0.850500  1
  H  H210  1  0.498400  0.170000  0.850500  1
  H  H211  1  0.330000  0.498400  0.850500  1
  H  H212  1  0.170000  0.001600  0.850500  1
  H  H213  1  0.519700  0.694300  0.418000  1
  H  H214  1  0.980300  0.805700  0.418000  1
  H  H215  1  0.805700  0.519700  0.418000  1
  H  H216  1  0.694300  0.980300  0.418000  1
  H  H217  1  0.980300  0.694300  0.082000  1
  H  H218  1  0.519700  0.805700  0.082000  1
  H  H219  1  0.694300  0.519700  0.082000  1
  H  H220  1  0.805700  0.980300  0.082000  1
  H  H221  1  0.480300  0.305700  0.582000  1
  H  H222  1  0.019700  0.194300  0.582000  1
  H  H223  1  0.194300  0.480300  0.582000  1
  H  H224  1  0.305700  0.019700  0.582000  1
  H  H225  1  0.019700  0.305700  0.918000  1
  H  H226  1  0.480300  0.194300  0.918000  1
  H  H227  1  0.305700  0.480300  0.918000  1
  H  H228  1  0.194300  0.019700  0.918000  1
  H  H229  1  0.451100  0.680400  0.432100  1
  H  H230  1  0.048900  0.819600  0.432100  1
  H  H231  1  0.819600  0.451100  0.432100  1
  H  H232  1  0.680400  0.048900  0.432100  1
  H  H233  1  0.048900  0.680400  0.067900  1
  H  H234  1  0.451100  0.819600  0.067900  1
  H  H235  1  0.680400  0.451100  0.067900  1
  H  H236  1  0.819600  0.048900  0.067900  1
  H  H237  1  0.548900  0.319600  0.567900  1
  H  H238  1  0.951100  0.180400  0.567900  1
  H  H239  1  0.180400  0.548900  0.567900  1
  H  H240  1  0.319600  0.951100  0.567900  1
  H  H241  1  0.951100  0.319600  0.932100  1
  H  H242  1  0.548900  0.180400  0.932100  1
  H  H243  1  0.319600  0.548900  0.932100  1
  H  H244  1  0.180400  0.951100  0.932100  1
  H  H245  1  0.469700  0.577500  0.438200  1
  H  H246  1  0.030300  0.922500  0.438200  1
  H  H247  1  0.922500  0.469700  0.438200  1
  H  H248  1  0.577500  0.030300  0.438200  1
  H  H249  1  0.030300  0.577500  0.061800  1
  H  H250  1  0.469700  0.922500  0.061800  1
  H  H251  1  0.577500  0.469700  0.061800  1
  H  H252  1  0.922500  0.030300  0.061800  1
  H  H253  1  0.530300  0.422500  0.561800  1
  H  H254  1  0.969700  0.077500  0.561800  1
  H  H255  1  0.077500  0.530300  0.561800  1
  H  H256  1  0.422500  0.969700  0.561800  1
  H  H257  1  0.969700  0.422500  0.938200  1
  H  H258  1  0.530300  0.077500  0.938200  1
  H  H259  1  0.422500  0.530300  0.938200  1
  H  H260  1  0.077500  0.969700  0.938200  1
  H  H261  1  0.526600  0.609600  0.460600  1
  H  H262  1  0.973400  0.890400  0.460600  1
  H  H263  1  0.890400  0.526600  0.460600  1
  H  H264  1  0.609600  0.973400  0.460600  1
  H  H265  1  0.973400  0.609600  0.039400  1
  H  H266  1  0.526600  0.890400  0.039400  1
  H  H267  1  0.609600  0.526600  0.039400  1
  H  H268  1  0.890400  0.973400  0.039400  1
  H  H269  1  0.473400  0.390400  0.539400  1
  H  H270  1  0.026600  0.109600  0.539400  1
  H  H271  1  0.109600  0.473400  0.539400  1
  H  H272  1  0.390400  0.026600  0.539400  1
  H  H273  1  0.026600  0.390400  0.960600  1
  H  H274  1  0.473400  0.109600  0.960600  1
  H  H275  1  0.390400  0.473400  0.960600  1
  H  H276  1  0.109600  0.026600  0.960600  1
  H  H277  1  0.566800  0.535200  0.416700  1
  H  H278  1  0.933200  0.964800  0.416700  1
  H  H279  1  0.964800  0.566800  0.416700  1
  H  H280  1  0.535200  0.933200  0.416700  1
  H  H281  1  0.933200  0.535200  0.083300  1
  H  H282  1  0.566800  0.964800  0.083300  1
  H  H283  1  0.535200  0.566800  0.083300  1
  H  H284  1  0.964800  0.933200  0.083300  1
  H  H285  1  0.433200  0.464800  0.583300  1
  H  H286  1  0.066800  0.035200  0.583300  1
  H  H287  1  0.035200  0.433200  0.583300  1
  H  H288  1  0.464800  0.066800  0.583300  1
  H  H289  1  0.066800  0.464800  0.916700  1
  H  H290  1  0.433200  0.035200  0.916700  1
  H  H291  1  0.464800  0.433200  0.916700  1
  H  H292  1  0.035200  0.066800  0.916700  1
  H  H293  1  0.581900  0.598800  0.394600  1
  H  H294  1  0.918100  0.901200  0.394600  1
  H  H295  1  0.901200  0.581900  0.394600  1
  H  H296  1  0.598800  0.918100  0.394600  1
  H  H297  1  0.918100  0.598800  0.105400  1
  H  H298  1  0.581900  0.901200  0.105400  1
  H  H299  1  0.598800  0.581900  0.105400  1
  H  H300  1  0.901200  0.918100  0.105400  1
  H  H301  1  0.418100  0.401200  0.605400  1
  H  H302  1  0.081900  0.098800  0.605400  1
  H  H303  1  0.098800  0.418100  0.605400  1
  H  H304  1  0.401200  0.081900  0.605400  1
  H  H305  1  0.081900  0.401200  0.894600  1
  H  H306  1  0.418100  0.098800  0.894600  1
  H  H307  1  0.401200  0.418100  0.894600  1
  H  H308  1  0.098800  0.081900  0.894600  1
  H  H309  1  0.526700  0.558000  0.377800  1
  H  H310  1  0.973300  0.942000  0.377800  1
  H  H311  1  0.942000  0.526700  0.377800  1
  H  H312  1  0.558000  0.973300  0.377800  1
  H  H313  1  0.973300  0.558000  0.122200  1
  H  H314  1  0.526700  0.942000  0.122200  1
  H  H315  1  0.558000  0.526700  0.122200  1
  H  H316  1  0.942000  0.973300  0.122200  1
  H  H317  1  0.473300  0.442000  0.622200  1
  H  H318  1  0.026700  0.058000  0.622200  1
  H  H319  1  0.058000  0.473300  0.622200  1
  H  H320  1  0.442000  0.026700  0.622200  1
  H  H321  1  0.026700  0.442000  0.877800  1
  H  H322  1  0.473300  0.058000  0.877800  1
  H  H323  1  0.442000  0.473300  0.877800  1
  H  H324  1  0.058000  0.026700  0.877800  1
  H  H325  1  0.368500  0.688500  0.408800  1
  H  H326  1  0.131500  0.811500  0.408800  1
  H  H327  1  0.811500  0.368500  0.408800  1
  H  H328  1  0.688500  0.131500  0.408800  1
  H  H329  1  0.131500  0.688500  0.091200  1
  H  H330  1  0.368500  0.811500  0.091200  1
  H  H331  1  0.688500  0.368500  0.091200  1
  H  H332  1  0.811500  0.131500  0.091200  1
  H  H333  1  0.631500  0.311500  0.591200  1
  H  H334  1  0.868500  0.188500  0.591200  1
  H  H335  1  0.188500  0.631500  0.591200  1
  H  H336  1  0.311500  0.868500  0.591200  1
  H  H337  1  0.868500  0.311500  0.908800  1
  H  H338  1  0.631500  0.188500  0.908800  1
  H  H339  1  0.311500  0.631500  0.908800  1
  H  H340  1  0.188500  0.868500  0.908800  1
  H  H341  1  0.333700  0.692400  0.364600  1
  H  H342  1  0.166300  0.807600  0.364600  1
  H  H343  1  0.807600  0.333700  0.364600  1
  H  H344  1  0.692400  0.166300  0.364600  1
  H  H345  1  0.166300  0.692400  0.135400  1
  H  H346  1  0.333700  0.807600  0.135400  1
  H  H347  1  0.692400  0.333700  0.135400  1
  H  H348  1  0.807600  0.166300  0.135400  1
  H  H349  1  0.666300  0.307600  0.635400  1
  H  H350  1  0.833700  0.192400  0.635400  1
  H  H351  1  0.192400  0.666300  0.635400  1
  H  H352  1  0.307600  0.833700  0.635400  1
  H  H353  1  0.833700  0.307600  0.864600  1
  H  H354  1  0.666300  0.192400  0.864600  1
  H  H355  1  0.307600  0.666300  0.864600  1
  H  H356  1  0.192400  0.833700  0.864600  1
  H  H357  1  0.428600  0.663500  0.329600  1
  H  H358  1  0.071400  0.836500  0.329600  1
  H  H359  1  0.836500  0.428600  0.329600  1
  H  H360  1  0.663500  0.071400  0.329600  1
  H  H361  1  0.071400  0.663500  0.170400  1
  H  H362  1  0.428600  0.836500  0.170400  1
  H  H363  1  0.663500  0.428600  0.170400  1
  H  H364  1  0.836500  0.071400  0.170400  1
  H  H365  1  0.571400  0.336500  0.670400  1
  H  H366  1  0.928600  0.163500  0.670400  1
  H  H367  1  0.163500  0.571400  0.670400  1
  H  H368  1  0.336500  0.928600  0.670400  1
  H  H369  1  0.928600  0.336500  0.829600  1
  H  H370  1  0.571400  0.163500  0.829600  1
  H  H371  1  0.336500  0.571400  0.829600  1
  H  H372  1  0.163500  0.928600  0.829600  1
  H  H373  1  0.432900  0.728400  0.352400  1
  H  H374  1  0.067100  0.771600  0.352400  1
  H  H375  1  0.771600  0.432900  0.352400  1
  H  H376  1  0.728400  0.067100  0.352400  1
  H  H377  1  0.067100  0.728400  0.147600  1
  H  H378  1  0.432900  0.771600  0.147600  1
  H  H379  1  0.728400  0.432900  0.147600  1
  H  H380  1  0.771600  0.067100  0.147600  1
  H  H381  1  0.567100  0.271600  0.647600  1
  H  H382  1  0.932900  0.228400  0.647600  1
  H  H383  1  0.228400  0.567100  0.647600  1
  H  H384  1  0.271600  0.932900  0.647600  1
  H  H385  1  0.932900  0.271600  0.852400  1
  H  H386  1  0.567100  0.228400  0.852400  1
  H  H387  1  0.271600  0.567100  0.852400  1
  H  H388  1  0.228400  0.932900  0.852400  1
  H  H389  1  0.466500  0.631400  0.404200  1
  H  H390  1  0.033500  0.868600  0.404200  1
  H  H391  1  0.868600  0.466500  0.404200  1
  H  H392  1  0.631400  0.033500  0.404200  1
  H  H393  1  0.033500  0.631400  0.095800  1
  H  H394  1  0.466500  0.868600  0.095800  1
  H  H395  1  0.631400  0.466500  0.095800  1
  H  H396  1  0.868600  0.033500  0.095800  1
  H  H397  1  0.533500  0.368600  0.595800  1
  H  H398  1  0.966500  0.131400  0.595800  1
  H  H399  1  0.131400  0.533500  0.595800  1
  H  H400  1  0.368600  0.966500  0.595800  1
  H  H401  1  0.966500  0.368600  0.904200  1
  H  H402  1  0.533500  0.131400  0.904200  1
  H  H403  1  0.368600  0.533500  0.904200  1
  H  H404  1  0.131400  0.966500  0.904200  1
  H  H405  1  0.499200  0.696000  0.399200  1
  H  H406  1  0.000800  0.804000  0.399200  1
  H  H407  1  0.804000  0.499200  0.399200  1
  H  H408  1  0.696000  0.000800  0.399200  1
  H  H409  1  0.000800  0.696000  0.100800  1
  H  H410  1  0.499200  0.804000  0.100800  1
  H  H411  1  0.696000  0.499200  0.100800  1
  H  H412  1  0.804000  0.000800  0.100800  1
  H  H413  1  0.500800  0.304000  0.600800  1
  H  H414  1  0.999200  0.196000  0.600800  1
  H  H415  1  0.196000  0.500800  0.600800  1
  H  H416  1  0.304000  0.999200  0.600800  1
  H  H417  1  0.999200  0.304000  0.899200  1
  H  H418  1  0.500800  0.196000  0.899200  1
  H  H419  1  0.304000  0.500800  0.899200  1
  H  H420  1  0.196000  0.999200  0.899200  1
  H  H421  1  0.561500  0.612300  0.375100  1
  H  H422  1  0.938500  0.887700  0.375100  1
  H  H423  1  0.887700  0.561500  0.375100  1
  H  H424  1  0.612300  0.938500  0.375100  1
  H  H425  1  0.938500  0.612300  0.124900  1
  H  H426  1  0.561500  0.887700  0.124900  1
  H  H427  1  0.612300  0.561500  0.124900  1
  H  H428  1  0.887700  0.938500  0.124900  1
  H  H429  1  0.438500  0.387700  0.624900  1
  H  H430  1  0.061500  0.112300  0.624900  1
  H  H431  1  0.112300  0.438500  0.624900  1
  H  H432  1  0.387700  0.061500  0.624900  1
  H  H433  1  0.061500  0.387700  0.875100  1
  H  H434  1  0.438500  0.112300  0.875100  1
  H  H435  1  0.387700  0.438500  0.875100  1
  H  H436  1  0.112300  0.061500  0.875100  1
  H  H437  1  0.512900  0.600200  0.338600  1
  H  H438  1  0.987100  0.899800  0.338600  1
  H  H439  1  0.899800  0.512900  0.338600  1
  H  H440  1  0.600200  0.987100  0.338600  1
  H  H441  1  0.987100  0.600200  0.161400  1
  H  H442  1  0.512900  0.899800  0.161400  1
  H  H443  1  0.600200  0.512900  0.161400  1
  H  H444  1  0.899800  0.987100  0.161400  1
  H  H445  1  0.487100  0.399800  0.661400  1
  H  H446  1  0.012900  0.100200  0.661400  1
  H  H447  1  0.100200  0.487100  0.661400  1
  H  H448  1  0.399800  0.012900  0.661400  1
  H  H449  1  0.012900  0.399800  0.838600  1
  H  H450  1  0.487100  0.100200  0.838600  1
  H  H451  1  0.399800  0.487100  0.838600  1
  H  H452  1  0.100200  0.012900  0.838600  1
  H  H453  1  0.607300  0.678700  0.334900  1
  H  H454  1  0.892700  0.821300  0.334900  1
  H  H455  1  0.821300  0.607300  0.334900  1
  H  H456  1  0.678700  0.892700  0.334900  1
  H  H457  1  0.892700  0.678700  0.165100  1
  H  H458  1  0.607300  0.821300  0.165100  1
  H  H459  1  0.678700  0.607300  0.165100  1
  H  H460  1  0.821300  0.892700  0.165100  1
  H  H461  1  0.392700  0.321300  0.665100  1
  H  H462  1  0.107300  0.178700  0.665100  1
  H  H463  1  0.178700  0.392700  0.665100  1
  H  H464  1  0.321300  0.107300  0.665100  1
  H  H465  1  0.107300  0.321300  0.834900  1
  H  H466  1  0.392700  0.178700  0.834900  1
  H  H467  1  0.321300  0.392700  0.834900  1
  H  H468  1  0.178700  0.107300  0.834900  1
  H  H469  1  0.547200  0.720000  0.335000  1
  H  H470  1  0.952800  0.780000  0.335000  1
  H  H471  1  0.780000  0.547200  0.335000  1
  H  H472  1  0.720000  0.952800  0.335000  1
  H  H473  1  0.952800  0.720000  0.165000  1
  H  H474  1  0.547200  0.780000  0.165000  1
  H  H475  1  0.720000  0.547200  0.165000  1
  H  H476  1  0.780000  0.952800  0.165000  1
  H  H477  1  0.452800  0.280000  0.665000  1
  H  H478  1  0.047200  0.220000  0.665000  1
  H  H479  1  0.220000  0.452800  0.665000  1
  H  H480  1  0.280000  0.047200  0.665000  1
  H  H481  1  0.047200  0.280000  0.835000  1
  H  H482  1  0.452800  0.220000  0.835000  1
  H  H483  1  0.280000  0.452800  0.835000  1
  H  H484  1  0.220000  0.047200  0.835000  1
  H  H485  1  0.578700  0.689400  0.264500  1
  H  H486  1  0.921300  0.810600  0.264500  1
  H  H487  1  0.810600  0.578700  0.264500  1
  H  H488  1  0.689400  0.921300  0.264500  1
  H  H489  1  0.921300  0.689400  0.235500  1
  H  H490  1  0.578700  0.810600  0.235500  1
  H  H491  1  0.689400  0.578700  0.235500  1
  H  H492  1  0.810600  0.921300  0.235500  1
  H  H493  1  0.421300  0.310600  0.735500  1
  H  H494  1  0.078700  0.189400  0.735500  1
  H  H495  1  0.189400  0.421300  0.735500  1
  H  H496  1  0.310600  0.078700  0.735500  1
  H  H497  1  0.078700  0.310600  0.764500  1
  H  H498  1  0.421300  0.189400  0.764500  1
  H  H499  1  0.310600  0.421300  0.764500  1
  H  H500  1  0.189400  0.078700  0.764500  1
  H  H501  1  0.509900  0.671100  0.274800  1
  H  H502  1  0.990100  0.828900  0.274800  1
  H  H503  1  0.828900  0.509900  0.274800  1
  H  H504  1  0.671100  0.990100  0.274800  1
  H  H505  1  0.990100  0.671100  0.225200  1
  H  H506  1  0.509900  0.828900  0.225200  1
  H  H507  1  0.671100  0.509900  0.225200  1
  H  H508  1  0.828900  0.990100  0.225200  1
  H  H509  1  0.490100  0.328900  0.725200  1
  H  H510  1  0.009900  0.171100  0.725200  1
  H  H511  1  0.171100  0.490100  0.725200  1
  H  H512  1  0.328900  0.009900  0.725200  1
  H  H513  1  0.009900  0.328900  0.774800  1
  H  H514  1  0.490100  0.171100  0.774800  1
  H  H515  1  0.328900  0.490100  0.774800  1
  H  H516  1  0.171100  0.009900  0.774800  1
  H  H517  1  0.562400  0.620800  0.276900  1
  H  H518  1  0.937600  0.879200  0.276900  1
  H  H519  1  0.879200  0.562400  0.276900  1
  H  H520  1  0.620800  0.937600  0.276900  1
  H  H521  1  0.937600  0.620800  0.223100  1
  H  H522  1  0.562400  0.879200  0.223100  1
  H  H523  1  0.620800  0.562400  0.223100  1
  H  H524  1  0.879200  0.937600  0.223100  1
  H  H525  1  0.437600  0.379200  0.723100  1
  H  H526  1  0.062400  0.120800  0.723100  1
  H  H527  1  0.120800  0.437600  0.723100  1
  H  H528  1  0.379200  0.062400  0.723100  1
  H  H529  1  0.062400  0.379200  0.776900  1
  H  H530  1  0.437600  0.120800  0.776900  1
  H  H531  1  0.379200  0.437600  0.776900  1
  H  H532  1  0.120800  0.062400  0.776900  1
  H  H533  1  0.265700  0.350700  0.054700  1.0
  H  H534  1  0.234300  0.149300  0.054700  1.0
  H  H535  1  0.149300  0.265700  0.054700  1.0
  H  H536  1  0.350700  0.234300  0.054700  1.0
  H  H537  1  0.234300  0.350700  0.445300  1.0
  H  H538  1  0.265700  0.149300  0.445300  1.0
  H  H539  1  0.350700  0.265700  0.445300  1.0
  H  H540  1  0.149300  0.234300  0.445300  1.0
  H  H541  1  0.734300  0.649300  0.945300  1.0
  H  H542  1  0.765700  0.850700  0.945300  1.0
  H  H543  1  0.850700  0.734300  0.945300  1.0
  H  H544  1  0.649300  0.765700  0.945300  1.0
  H  H545  1  0.765700  0.649300  0.554700  1.0
  H  H546  1  0.734300  0.850700  0.554700  1.0
  H  H547  1  0.649300  0.734300  0.554700  1.0
  H  H548  1  0.850700  0.765700  0.554700  1.0
  H  H549  1  0.289800  0.453400  0.054500  1.0
  H  H550  1  0.210200  0.046600  0.054500  1.0
  H  H551  1  0.046600  0.289800  0.054500  1.0
  H  H552  1  0.453400  0.210200  0.054500  1.0
  H  H553  1  0.210200  0.453400  0.445500  1.0
  H  H554  1  0.289800  0.046600  0.445500  1.0
  H  H555  1  0.453400  0.289800  0.445500  1.0
  H  H556  1  0.046600  0.210200  0.445500  1.0
  H  H557  1  0.710200  0.546600  0.945500  1.0
  H  H558  1  0.789800  0.953400  0.945500  1.0
  H  H559  1  0.953400  0.710200  0.945500  1.0
  H  H560  1  0.546600  0.789800  0.945500  1.0
  H  H561  1  0.789800  0.546600  0.554500  1.0
  H  H562  1  0.710200  0.953400  0.554500  1.0
  H  H563  1  0.546600  0.710200  0.554500  1.0
  H  H564  1  0.953400  0.789800  0.554500  1.0
  H  H565  1  0.306500  0.503800  0.117000  1.0
  H  H566  1  0.193500  0.996200  0.117000  1.0
  H  H567  1  0.996200  0.306500  0.117000  1.0
  H  H568  1  0.503800  0.193500  0.117000  1.0
  H  H569  1  0.193500  0.503800  0.383000  1.0
  H  H570  1  0.306500  0.996200  0.383000  1.0
  H  H571  1  0.503800  0.306500  0.383000  1.0
  H  H572  1  0.996200  0.193500  0.383000  1.0
  H  H573  1  0.693500  0.496200  0.883000  1.0
  H  H574  1  0.806500  0.003800  0.883000  1.0
  H  H575  1  0.003800  0.693500  0.883000  1.0
  H  H576  1  0.496200  0.806500  0.883000  1.0
  H  H577  1  0.806500  0.496200  0.617000  1.0
  H  H578  1  0.693500  0.003800  0.617000  1.0
  H  H579  1  0.496200  0.693500  0.617000  1.0
  H  H580  1  0.003800  0.806500  0.617000  1.0
  H  H581  1  0.280300  0.345900  0.179100  1.0
  H  H582  1  0.219700  0.154100  0.179100  1.0
  H  H583  1  0.154100  0.280300  0.179100  1.0
  H  H584  1  0.345900  0.219700  0.179100  1.0
  H  H585  1  0.219700  0.345900  0.320900  1.0
  H  H586  1  0.280300  0.154100  0.320900  1.0
  H  H587  1  0.345900  0.280300  0.320900  1.0
  H  H588  1  0.154100  0.219700  0.320900  1.0
  H  H589  1  0.719700  0.654100  0.820900  1.0
  H  H590  1  0.780300  0.845900  0.820900  1.0
  H  H591  1  0.845900  0.719700  0.820900  1.0
  H  H592  1  0.654100  0.780300  0.820900  1.0
  H  H593  1  0.780300  0.654100  0.679100  1.0
  H  H594  1  0.719700  0.845900  0.679100  1.0
  H  H595  1  0.654100  0.719700  0.679100  1.0
  H  H596  1  0.845900  0.780300  0.679100  1.0
  H  H597  1  0.351900  0.438100  0.301000  1.0
  H  H598  1  0.148100  0.061900  0.301000  1.0
  H  H599  1  0.061900  0.351900  0.301000  1.0
  H  H600  1  0.438100  0.148100  0.301000  1.0
  H  H601  1  0.148100  0.438100  0.199000  1.0
  H  H602  1  0.351900  0.061900  0.199000  1.0
  H  H603  1  0.438100  0.351900  0.199000  1.0
  H  H604  1  0.061900  0.148100  0.199000  1.0
  H  H605  1  0.648100  0.561900  0.699000  1.0
  H  H606  1  0.851900  0.938100  0.699000  1.0
  H  H607  1  0.938100  0.648100  0.699000  1.0
  H  H608  1  0.561900  0.851900  0.699000  1.0
  H  H609  1  0.851900  0.561900  0.801000  1.0
  H  H610  1  0.648100  0.938100  0.801000  1.0
  H  H611  1  0.561900  0.648100  0.801000  1.0
  H  H612  1  0.938100  0.851900  0.801000  1.0
  H  H613  1  0.317200  0.598700  0.244700  1.0
  H  H614  1  0.182800  0.901300  0.244700  1.0
  H  H615  1  0.901300  0.317200  0.244700  1.0
  H  H616  1  0.598700  0.182800  0.244700  1.0
  H  H617  1  0.182800  0.598700  0.255300  1.0
  H  H618  1  0.317200  0.901300  0.255300  1.0
  H  H619  1  0.598700  0.317200  0.255300  1.0
  H  H620  1  0.901300  0.182800  0.255300  1.0
  H  H621  1  0.682800  0.401300  0.755300  1.0
  H  H622  1  0.817200  0.098700  0.755300  1.0
  H  H623  1  0.098700  0.682800  0.755300  1.0
  H  H624  1  0.401300  0.817200  0.755300  1.0
  H  H625  1  0.817200  0.401300  0.744700  1.0
  H  H626  1  0.682800  0.098700  0.744700  1.0
  H  H627  1  0.401300  0.682800  0.744700  1.0
  H  H628  1  0.098700  0.817200  0.744700  1.0
  H  H629  1  0.327400  0.647400  0.306400  1.0
  H  H630  1  0.172600  0.852600  0.306400  1.0
  H  H631  1  0.852600  0.327400  0.306400  1.0
  H  H632  1  0.647400  0.172600  0.306400  1.0
  H  H633  1  0.172600  0.647400  0.193600  1.0
  H  H634  1  0.327400  0.852600  0.193600  1.0
  H  H635  1  0.647400  0.327400  0.193600  1.0
  H  H636  1  0.852600  0.172600  0.193600  1.0
  H  H637  1  0.672600  0.352600  0.693600  1.0
  H  H638  1  0.827400  0.147400  0.693600  1.0
  H  H639  1  0.147400  0.672600  0.693600  1.0
  H  H640  1  0.352600  0.827400  0.693600  1.0
  H  H641  1  0.827400  0.352600  0.806400  1.0
  H  H642  1  0.672600  0.147400  0.806400  1.0
  H  H643  1  0.352600  0.672600  0.806400  1.0
  H  H644  1  0.147400  0.827400  0.806400  1.0
  H  H645  1  0.349000  0.438500  0.462900  1.0
  H  H646  1  0.151000  0.061500  0.462900  1.0
  H  H647  1  0.061500  0.349000  0.462900  1.0
  H  H648  1  0.438500  0.151000  0.462900  1.0
  H  H649  1  0.151000  0.438500  0.037100  1.0
  H  H650  1  0.349000  0.061500  0.037100  1.0
  H  H651  1  0.438500  0.349000  0.037100  1.0
  H  H652  1  0.061500  0.151000  0.037100  1.0
  H  H653  1  0.651000  0.561500  0.537100  1.0
  H  H654  1  0.849000  0.938500  0.537100  1.0
  H  H655  1  0.938500  0.651000  0.537100  1.0
  H  H656  1  0.561500  0.849000  0.537100  1.0
  H  H657  1  0.849000  0.561500  0.962900  1.0
  H  H658  1  0.651000  0.938500  0.962900  1.0
  H  H659  1  0.561500  0.651000  0.962900  1.0
  H  H660  1  0.938500  0.849000  0.962900  1.0
  H  H661  1  0.301800  0.597500  0.516000  1.0
  H  H662  1  0.198200  0.902500  0.516000  1.0
  H  H663  1  0.902500  0.301800  0.516000  1.0
  H  H664  1  0.597500  0.198200  0.516000  1.0
  H  H665  1  0.198200  0.597500  0.984000  1.0
  H  H666  1  0.301800  0.902500  0.984000  1.0
  H  H667  1  0.597500  0.301800  0.984000  1.0
  H  H668  1  0.902500  0.198200  0.984000  1.0
  H  H669  1  0.698200  0.402500  0.484000  1.0
  H  H670  1  0.801800  0.097500  0.484000  1.0
  H  H671  1  0.097500  0.698200  0.484000  1.0
  H  H672  1  0.402500  0.801800  0.484000  1.0
  H  H673  1  0.801800  0.402500  0.016000  1.0
  H  H674  1  0.698200  0.097500  0.016000  1.0
  H  H675  1  0.402500  0.698200  0.016000  1.0
  H  H676  1  0.097500  0.801800  0.016000  1.0
  H  H677  1  0.314800  0.646000  0.454800  1.0
  H  H678  1  0.185200  0.854000  0.454800  1.0
  H  H679  1  0.854000  0.314800  0.454800  1.0
  H  H680  1  0.646000  0.185200  0.454800  1.0
  H  H681  1  0.185200  0.646000  0.045200  1.0
  H  H682  1  0.314800  0.854000  0.045200  1.0
  H  H683  1  0.646000  0.314800  0.045200  1.0
  H  H684  1  0.854000  0.185200  0.045200  1.0
  H  H685  1  0.685200  0.354000  0.545200  1.0
  H  H686  1  0.814800  0.146000  0.545200  1.0
  H  H687  1  0.146000  0.685200  0.545200  1.0
  H  H688  1  0.354000  0.814800  0.545200  1.0
  H  H689  1  0.814800  0.354000  0.954800  1.0
  H  H690  1  0.685200  0.146000  0.954800  1.0
  H  H691  1  0.354000  0.685200  0.954800  1.0
  H  H692  1  0.146000  0.814800  0.954800  1.0
  H  H693  1  0.281000  0.345500  0.584700  1.0
  H  H694  1  0.219000  0.154500  0.584700  1.0
  H  H695  1  0.154500  0.281000  0.584700  1.0
  H  H696  1  0.345500  0.219000  0.584700  1.0
  H  H697  1  0.219000  0.345500  0.915300  1.0
  H  H698  1  0.281000  0.154500  0.915300  1.0
  H  H699  1  0.345500  0.281000  0.915300  1.0
  H  H700  1  0.154500  0.219000  0.915300  1.0
  H  H701  1  0.719000  0.654500  0.415300  1.0
  H  H702  1  0.781000  0.845500  0.415300  1.0
  H  H703  1  0.845500  0.719000  0.415300  1.0
  H  H704  1  0.654500  0.781000  0.415300  1.0
  H  H705  1  0.781000  0.654500  0.084700  1.0
  H  H706  1  0.719000  0.845500  0.084700  1.0
  H  H707  1  0.654500  0.719000  0.084700  1.0
  H  H708  1  0.845500  0.781000  0.084700  1.0
  H  H709  1  0.345800  0.693300  0.396600  1.0
  H  H710  1  0.154200  0.806700  0.396600  1.0
  H  H711  1  0.806700  0.345800  0.396600  1.0
  H  H712  1  0.693300  0.154200  0.396600  1.0
  H  H713  1  0.154200  0.693300  0.103400  1.0
  H  H714  1  0.345800  0.806700  0.103400  1.0
  H  H715  1  0.693300  0.345800  0.103400  1.0
  H  H716  1  0.806700  0.154200  0.103400  1.0
  H  H717  1  0.654200  0.306700  0.603400  1.0
  H  H718  1  0.845800  0.193300  0.603400  1.0
  H  H719  1  0.193300  0.654200  0.603400  1.0
  H  H720  1  0.306700  0.845800  0.603400  1.0
  H  H721  1  0.845800  0.306700  0.896600  1.0
  H  H722  1  0.654200  0.193300  0.896600  1.0
  H  H723  1  0.306700  0.654200  0.896600  1.0
  H  H724  1  0.193300  0.845800  0.896600  1.0
  H  H725  1  0.387300  0.682000  0.356200  1.0
  H  H726  1  0.112700  0.818000  0.356200  1.0
  H  H727  1  0.818000  0.387300  0.356200  1.0
  H  H728  1  0.682000  0.112700  0.356200  1.0
  H  H729  1  0.112700  0.682000  0.143800  1.0
  H  H730  1  0.387300  0.818000  0.143800  1.0
  H  H731  1  0.682000  0.387300  0.143800  1.0
  H  H732  1  0.818000  0.112700  0.143800  1.0
  H  H733  1  0.612700  0.318000  0.643800  1.0
  H  H734  1  0.887300  0.182000  0.643800  1.0
  H  H735  1  0.182000  0.612700  0.643800  1.0
  H  H736  1  0.318000  0.887300  0.643800  1.0
  H  H737  1  0.887300  0.318000  0.856200  1.0
  H  H738  1  0.612700  0.182000  0.856200  1.0
  H  H739  1  0.318000  0.612700  0.856200  1.0
  H  H740  1  0.182000  0.887300  0.856200  1.0
  H  H741  1  0.452100  0.717500  0.407900  1.0
  H  H742  1  0.047900  0.782500  0.407900  1.0
  H  H743  1  0.782500  0.452100  0.407900  1.0
  H  H744  1  0.717500  0.047900  0.407900  1.0
  H  H745  1  0.047900  0.717500  0.092100  1.0
  H  H746  1  0.452100  0.782500  0.092100  1.0
  H  H747  1  0.717500  0.452100  0.092100  1.0
  H  H748  1  0.782500  0.047900  0.092100  1.0
  H  H749  1  0.547900  0.282500  0.592100  1.0
  H  H750  1  0.952100  0.217500  0.592100  1.0
  H  H751  1  0.217500  0.547900  0.592100  1.0
  H  H752  1  0.282500  0.952100  0.592100  1.0
  H  H753  1  0.952100  0.282500  0.907900  1.0
  H  H754  1  0.547900  0.217500  0.907900  1.0
  H  H755  1  0.282500  0.547900  0.907900  1.0
  H  H756  1  0.217500  0.952100  0.907900  1.0
  H  H757  1  0.425200  0.671500  0.442200  1.0
  H  H758  1  0.074800  0.828500  0.442200  1.0
  H  H759  1  0.828500  0.425200  0.442200  1.0
  H  H760  1  0.671500  0.074800  0.442200  1.0
  H  H761  1  0.074800  0.671500  0.057800  1.0
  H  H762  1  0.425200  0.828500  0.057800  1.0
  H  H763  1  0.671500  0.425200  0.057800  1.0
  H  H764  1  0.828500  0.074800  0.057800  1.0
  H  H765  1  0.574800  0.328500  0.557800  1.0
  H  H766  1  0.925200  0.171500  0.557800  1.0
  H  H767  1  0.171500  0.574800  0.557800  1.0
  H  H768  1  0.328500  0.925200  0.557800  1.0
  H  H769  1  0.925200  0.328500  0.942200  1.0
  H  H770  1  0.574800  0.171500  0.942200  1.0
  H  H771  1  0.328500  0.574800  0.942200  1.0
  H  H772  1  0.171500  0.925200  0.942200  1.0
  H  H773  1  0.494300  0.632600  0.371000  1.0
  H  H774  1  0.005700  0.867400  0.371000  1.0
  H  H775  1  0.867400  0.494300  0.371000  1.0
  H  H776  1  0.632600  0.005700  0.371000  1.0
  H  H777  1  0.005700  0.632600  0.129000  1.0
  H  H778  1  0.494300  0.867400  0.129000  1.0
  H  H779  1  0.632600  0.494300  0.129000  1.0
  H  H780  1  0.867400  0.005700  0.129000  1.0
  H  H781  1  0.505700  0.367400  0.629000  1.0
  H  H782  1  0.994300  0.132600  0.629000  1.0
  H  H783  1  0.132600  0.505700  0.629000  1.0
  H  H784  1  0.367400  0.994300  0.629000  1.0
  H  H785  1  0.994300  0.367400  0.871000  1.0
  H  H786  1  0.505700  0.132600  0.871000  1.0
  H  H787  1  0.367400  0.505700  0.871000  1.0
  H  H788  1  0.132600  0.994300  0.871000  1.0
  H  H789  1  0.470400  0.588700  0.407400  1.0
  H  H790  1  0.029600  0.911300  0.407400  1.0
  H  H791  1  0.911300  0.470400  0.407400  1.0
  H  H792  1  0.588700  0.029600  0.407400  1.0
  H  H793  1  0.029600  0.588700  0.092600  1.0
  H  H794  1  0.470400  0.911300  0.092600  1.0
  H  H795  1  0.588700  0.470400  0.092600  1.0
  H  H796  1  0.911300  0.029600  0.092600  1.0
  H  H797  1  0.529600  0.411300  0.592600  1.0
  H  H798  1  0.970400  0.088700  0.592600  1.0
  H  H799  1  0.088700  0.529600  0.592600  1.0
  H  H800  1  0.411300  0.970400  0.592600  1.0
  H  H801  1  0.970400  0.411300  0.907400  1.0
  H  H802  1  0.529600  0.088700  0.907400  1.0
  H  H803  1  0.411300  0.529600  0.907400  1.0
  H  H804  1  0.088700  0.970400  0.907400  1.0
  H  H805  1  0.514900  0.664700  0.484400  1.0
  H  H806  1  0.985100  0.835300  0.484400  1.0
  H  H807  1  0.835300  0.514900  0.484400  1.0
  H  H808  1  0.664700  0.985100  0.484400  1.0
  H  H809  1  0.985100  0.664700  0.015600  1.0
  H  H810  1  0.514900  0.835300  0.015600  1.0
  H  H811  1  0.664700  0.514900  0.015600  1.0
  H  H812  1  0.835300  0.985100  0.015600  1.0
  H  H813  1  0.485100  0.335300  0.515600  1.0
  H  H814  1  0.014900  0.164700  0.515600  1.0
  H  H815  1  0.164700  0.485100  0.515600  1.0
  H  H816  1  0.335300  0.014900  0.515600  1.0
  H  H817  1  0.014900  0.335300  0.984400  1.0
  H  H818  1  0.485100  0.164700  0.984400  1.0
  H  H819  1  0.335300  0.485100  0.984400  1.0
  H  H820  1  0.164700  0.014900  0.984400  1.0
  H  H821  1  0.581500  0.635400  0.485100  1.0
  H  H822  1  0.918500  0.864600  0.485100  1.0
  H  H823  1  0.864600  0.581500  0.485100  1.0
  H  H824  1  0.635400  0.918500  0.485100  1.0
  H  H825  1  0.918500  0.635400  0.014900  1.0
  H  H826  1  0.581500  0.864600  0.014900  1.0
  H  H827  1  0.635400  0.581500  0.014900  1.0
  H  H828  1  0.864600  0.918500  0.014900  1.0
  H  H829  1  0.418500  0.364600  0.514900  1.0
  H  H830  1  0.081500  0.135400  0.514900  1.0
  H  H831  1  0.135400  0.418500  0.514900  1.0
  H  H832  1  0.364600  0.081500  0.514900  1.0
  H  H833  1  0.081500  0.364600  0.985100  1.0
  H  H834  1  0.418500  0.135400  0.985100  1.0
  H  H835  1  0.364600  0.418500  0.985100  1.0
  H  H836  1  0.135400  0.081500  0.985100  1.0
  H  H837  1  0.575400  0.610400  0.414600  1.0
  H  H838  1  0.924600  0.889600  0.414600  1.0
  H  H839  1  0.889600  0.575400  0.414600  1.0
  H  H840  1  0.610400  0.924600  0.414600  1.0
  H  H841  1  0.924600  0.610400  0.085400  1.0
  H  H842  1  0.575400  0.889600  0.085400  1.0
  H  H843  1  0.610400  0.575400  0.085400  1.0
  H  H844  1  0.889600  0.924600  0.085400  1.0
  H  H845  1  0.424600  0.389600  0.585400  1.0
  H  H846  1  0.075400  0.110400  0.585400  1.0
  H  H847  1  0.110400  0.424600  0.585400  1.0
  H  H848  1  0.389600  0.075400  0.585400  1.0
  H  H849  1  0.075400  0.389600  0.914600  1.0
  H  H850  1  0.424600  0.110400  0.914600  1.0
  H  H851  1  0.389600  0.424600  0.914600  1.0
  H  H852  1  0.110400  0.075400  0.914600  1.0
  H  H853  1  0.560000  0.681000  0.419500  1.0
  H  H854  1  0.940000  0.819000  0.419500  1.0
  H  H855  1  0.819000  0.560000  0.419500  1.0
  H  H856  1  0.681000  0.940000  0.419500  1.0
  H  H857  1  0.940000  0.681000  0.080500  1.0
  H  H858  1  0.560000  0.819000  0.080500  1.0
  H  H859  1  0.681000  0.560000  0.080500  1.0
  H  H860  1  0.819000  0.940000  0.080500  1.0
  H  H861  1  0.440000  0.319000  0.580500  1.0
  H  H862  1  0.060000  0.181000  0.580500  1.0
  H  H863  1  0.181000  0.440000  0.580500  1.0
  H  H864  1  0.319000  0.060000  0.580500  1.0
  H  H865  1  0.060000  0.319000  0.919500  1.0
  H  H866  1  0.440000  0.181000  0.919500  1.0
  H  H867  1  0.319000  0.440000  0.919500  1.0
  H  H868  1  0.181000  0.060000  0.919500  1.0
  H  H869  1  0.475000  0.563400  0.469200  1.0
  H  H870  1  0.025000  0.936600  0.469200  1.0
  H  H871  1  0.936600  0.475000  0.469200  1.0
  H  H872  1  0.563400  0.025000  0.469200  1.0
  H  H873  1  0.025000  0.563400  0.030800  1.0
  H  H874  1  0.475000  0.936600  0.030800  1.0
  H  H875  1  0.563400  0.475000  0.030800  1.0
  H  H876  1  0.936600  0.025000  0.030800  1.0
  H  H877  1  0.525000  0.436600  0.530800  1.0
  H  H878  1  0.975000  0.063400  0.530800  1.0
  H  H879  1  0.063400  0.525000  0.530800  1.0
  H  H880  1  0.436600  0.975000  0.530800  1.0
  H  H881  1  0.975000  0.436600  0.969200  1.0
  H  H882  1  0.525000  0.063400  0.969200  1.0
  H  H883  1  0.436600  0.525000  0.969200  1.0
  H  H884  1  0.063400  0.975000  0.969200  1.0
  H  H885  1  0.504300  0.569400  0.515100  1.0
  H  H886  1  0.995700  0.930600  0.515100  1.0
  H  H887  1  0.930600  0.504300  0.515100  1.0
  H  H888  1  0.569400  0.995700  0.515100  1.0
  H  H889  1  0.995700  0.569400  0.984900  1.0
  H  H890  1  0.504300  0.930600  0.984900  1.0
  H  H891  1  0.569400  0.504300  0.984900  1.0
  H  H892  1  0.930600  0.995700  0.984900  1.0
  H  H893  1  0.495700  0.430600  0.484900  1.0
  H  H894  1  0.004300  0.069400  0.484900  1.0
  H  H895  1  0.069400  0.495700  0.484900  1.0
  H  H896  1  0.430600  0.004300  0.484900  1.0
  H  H897  1  0.004300  0.430600  0.015100  1.0
  H  H898  1  0.495700  0.069400  0.015100  1.0
  H  H899  1  0.430600  0.495700  0.015100  1.0
  H  H900  1  0.069400  0.004300  0.015100  1.0
  H  H901  1  0.541800  0.537400  0.478000  1.0
  H  H902  1  0.958200  0.962600  0.478000  1.0
  H  H903  1  0.962600  0.541800  0.478000  1.0
  H  H904  1  0.537400  0.958200  0.478000  1.0
  H  H905  1  0.958200  0.537400  0.022000  1.0
  H  H906  1  0.541800  0.962600  0.022000  1.0
  H  H907  1  0.537400  0.541800  0.022000  1.0
  H  H908  1  0.962600  0.958200  0.022000  1.0
  H  H909  1  0.458200  0.462600  0.522000  1.0
  H  H910  1  0.041800  0.037400  0.522000  1.0
  H  H911  1  0.037400  0.458200  0.522000  1.0
  H  H912  1  0.462600  0.041800  0.522000  1.0
  H  H913  1  0.041800  0.462600  0.978000  1.0
  H  H914  1  0.458200  0.037400  0.978000  1.0
  H  H915  1  0.462600  0.458200  0.978000  1.0
  H  H916  1  0.037400  0.041800  0.978000  1.0
  H  H917  1  0.331500  0.498300  0.644900  1.0
  H  H918  1  0.168500  0.001700  0.644900  1.0
  H  H919  1  0.001700  0.331500  0.644900  1.0
  H  H920  1  0.498300  0.168500  0.644900  1.0
  H  H921  1  0.168500  0.498300  0.855100  1.0
  H  H922  1  0.331500  0.001700  0.855100  1.0
  H  H923  1  0.498300  0.331500  0.855100  1.0
  H  H924  1  0.001700  0.168500  0.855100  1.0
  H  H925  1  0.668500  0.501700  0.355100  1.0
  H  H926  1  0.831500  0.998300  0.355100  1.0
  H  H927  1  0.998300  0.668500  0.355100  1.0
  H  H928  1  0.501700  0.831500  0.355100  1.0
  H  H929  1  0.831500  0.501700  0.144900  1.0
  H  H930  1  0.668500  0.998300  0.144900  1.0
  H  H931  1  0.501700  0.668500  0.144900  1.0
  H  H932  1  0.998300  0.831500  0.144900  1.0
  H  H933  1  0.324400  0.444800  0.707100  1.0
  H  H934  1  0.175600  0.055200  0.707100  1.0
  H  H935  1  0.055200  0.324400  0.707100  1.0
  H  H936  1  0.444800  0.175600  0.707100  1.0
  H  H937  1  0.175600  0.444800  0.792900  1.0
  H  H938  1  0.324400  0.055200  0.792900  1.0
  H  H939  1  0.444800  0.324400  0.792900  1.0
  H  H940  1  0.055200  0.175600  0.792900  1.0
  H  H941  1  0.675600  0.555200  0.292900  1.0
  H  H942  1  0.824400  0.944800  0.292900  1.0
  H  H943  1  0.944800  0.675600  0.292900  1.0
  H  H944  1  0.555200  0.824400  0.292900  1.0
  H  H945  1  0.824400  0.555200  0.207100  1.0
  H  H946  1  0.675600  0.944800  0.207100  1.0
  H  H947  1  0.555200  0.675600  0.207100  1.0
  H  H948  1  0.944800  0.824400  0.207100  1.0
  H  H949  1  0.290800  0.345800  0.707700  1.0
  H  H950  1  0.209200  0.154200  0.707700  1.0
  H  H951  1  0.154200  0.290800  0.707700  1.0
  H  H952  1  0.345800  0.209200  0.707700  1.0
  H  H953  1  0.209200  0.345800  0.792300  1.0
  H  H954  1  0.290800  0.154200  0.792300  1.0
  H  H955  1  0.345800  0.290800  0.792300  1.0
  H  H956  1  0.154200  0.209200  0.792300  1.0
  H  H957  1  0.709200  0.654200  0.292300  1.0
  H  H958  1  0.790800  0.845800  0.292300  1.0
  H  H959  1  0.845800  0.709200  0.292300  1.0
  H  H960  1  0.654200  0.790800  0.292300  1.0
  H  H961  1  0.790800  0.654200  0.207700  1.0
  H  H962  1  0.709200  0.845800  0.207700  1.0
  H  H963  1  0.654200  0.709200  0.207700  1.0
  H  H964  1  0.845800  0.790800  0.207700  1.0
  Pd  Pd965  1  0.250000  0.250000  0.116840  1
  Pd  Pd966  1  0.250000  0.250000  0.383160  1
  Pd  Pd967  1  0.750000  0.750000  0.883160  1
  Pd  Pd968  1  0.750000  0.750000  0.616840  1
  Pd  Pd969  1  0.250000  0.250000  0.647230  1
  Pd  Pd970  1  0.250000  0.250000  0.852770  1
  Pd  Pd971  1  0.750000  0.750000  0.352770  1
  Pd  Pd972  1  0.750000  0.750000  0.147230  1
  C  C973  1  0.288600  0.462400  0.645600  1
  C  C974  1  0.211400  0.037600  0.645600  1
  C  C975  1  0.037600  0.288600  0.645600  1
  C  C976  1  0.462400  0.211400  0.645600  1
  C  C977  1  0.211400  0.462400  0.854400  1
  C  C978  1  0.288600  0.037600  0.854400  1
  C  C979  1  0.462400  0.288600  0.854400  1
  C  C980  1  0.037600  0.211400  0.854400  1
  C  C981  1  0.711400  0.537600  0.354400  1
  C  C982  1  0.788600  0.962400  0.354400  1
  C  C983  1  0.962400  0.711400  0.354400  1
  C  C984  1  0.537600  0.788600  0.354400  1
  C  C985  1  0.788600  0.537600  0.145600  1
  C  C986  1  0.711400  0.962400  0.145600  1
  C  C987  1  0.537600  0.711400  0.145600  1
  C  C988  1  0.962400  0.788600  0.145600  1
  C  C989  1  0.272200  0.435100  0.681900  1
  C  C990  1  0.227800  0.064900  0.681900  1
  C  C991  1  0.064900  0.272200  0.681900  1
  C  C992  1  0.435100  0.227800  0.681900  1
  C  C993  1  0.227800  0.435100  0.818100  1
  C  C994  1  0.272200  0.064900  0.818100  1
  C  C995  1  0.435100  0.272200  0.818100  1
  C  C996  1  0.064900  0.227800  0.818100  1
  C  C997  1  0.727800  0.564900  0.318100  1
  C  C998  1  0.772200  0.935100  0.318100  1
  C  C999  1  0.935100  0.727800  0.318100  1
  C  C1000  1  0.564900  0.772200  0.318100  1
  C  C1001  1  0.772200  0.564900  0.181900  1
  C  C1002  1  0.727800  0.935100  0.181900  1
  C  C1003  1  0.564900  0.727800  0.181900  1
  C  C1004  1  0.935100  0.772200  0.181900  1
  C  C1005  1  0.264500  0.372700  0.681800  1
  C  C1006  1  0.235500  0.127300  0.681800  1
  C  C1007  1  0.127300  0.264500  0.681800  1
  C  C1008  1  0.372700  0.235500  0.681800  1
  C  C1009  1  0.235500  0.372700  0.818200  1
  C  C1010  1  0.264500  0.127300  0.818200  1
  C  C1011  1  0.372700  0.264500  0.818200  1
  C  C1012  1  0.127300  0.235500  0.818200  1
  C  C1013  1  0.735500  0.627300  0.318200  1
  C  C1014  1  0.764500  0.872700  0.318200  1
  C  C1015  1  0.872700  0.735500  0.318200  1
  C  C1016  1  0.627300  0.764500  0.318200  1
  C  C1017  1  0.764500  0.627300  0.181800  1
  C  C1018  1  0.735500  0.872700  0.181800  1
  C  C1019  1  0.627300  0.735500  0.181800  1
  C  C1020  1  0.872700  0.764500  0.181800  1
  C  C1021  1  0.354500  0.674800  0.379500  1
  C  C1022  1  0.145500  0.825200  0.379500  1
  C  C1023  1  0.825200  0.354500  0.379500  1
  C  C1024  1  0.674800  0.145500  0.379500  1
  C  C1025  1  0.145500  0.674800  0.120500  1
  C  C1026  1  0.354500  0.825200  0.120500  1
  C  C1027  1  0.674800  0.354500  0.120500  1
  C  C1028  1  0.825200  0.145500  0.120500  1
  C  C1029  1  0.645500  0.325200  0.620500  1
  C  C1030  1  0.854500  0.174800  0.620500  1
  C  C1031  1  0.174800  0.645500  0.620500  1
  C  C1032  1  0.325200  0.854500  0.620500  1
  C  C1033  1  0.854500  0.325200  0.879500  1
  C  C1034  1  0.645500  0.174800  0.879500  1
  C  C1035  1  0.325200  0.645500  0.879500  1
  C  C1036  1  0.174800  0.854500  0.879500  1
  C  C1037  1  0.412500  0.701300  0.360300  1
  C  C1038  1  0.087500  0.798700  0.360300  1
  C  C1039  1  0.798700  0.412500  0.360300  1
  C  C1040  1  0.701300  0.087500  0.360300  1
  C  C1041  1  0.087500  0.701300  0.139700  1
  C  C1042  1  0.412500  0.798700  0.139700  1
  C  C1043  1  0.701300  0.412500  0.139700  1
  C  C1044  1  0.798700  0.087500  0.139700  1
  C  C1045  1  0.587500  0.298700  0.639700  1
  C  C1046  1  0.912500  0.201300  0.639700  1
  C  C1047  1  0.201300  0.587500  0.639700  1
  C  C1048  1  0.298700  0.912500  0.639700  1
  C  C1049  1  0.912500  0.298700  0.860300  1
  C  C1050  1  0.587500  0.201300  0.860300  1
  C  C1051  1  0.298700  0.587500  0.860300  1
  C  C1052  1  0.201300  0.912500  0.860300  1
  C  C1053  1  0.467000  0.658800  0.368900  1
  C  C1054  1  0.033000  0.841200  0.368900  1
  C  C1055  1  0.841200  0.467000  0.368900  1
  C  C1056  1  0.658800  0.033000  0.368900  1
  C  C1057  1  0.033000  0.658800  0.131100  1
  C  C1058  1  0.467000  0.841200  0.131100  1
  C  C1059  1  0.658800  0.467000  0.131100  1
  C  C1060  1  0.841200  0.033000  0.131100  1
  C  C1061  1  0.533000  0.341200  0.631100  1
  C  C1062  1  0.967000  0.158800  0.631100  1
  C  C1063  1  0.158800  0.533000  0.631100  1
  C  C1064  1  0.341200  0.967000  0.631100  1
  C  C1065  1  0.967000  0.341200  0.868900  1
  C  C1066  1  0.533000  0.158800  0.868900  1
  C  C1067  1  0.341200  0.533000  0.868900  1
  C  C1068  1  0.158800  0.967000  0.868900  1
  C  C1069  1  0.485800  0.664800  0.415500  1
  C  C1070  1  0.014200  0.835200  0.415500  1
  C  C1071  1  0.835200  0.485800  0.415500  1
  C  C1072  1  0.664800  0.014200  0.415500  1
  C  C1073  1  0.014200  0.664800  0.084500  1
  C  C1074  1  0.485800  0.835200  0.084500  1
  C  C1075  1  0.664800  0.485800  0.084500  1
  C  C1076  1  0.835200  0.014200  0.084500  1
  C  C1077  1  0.514200  0.335200  0.584500  1
  C  C1078  1  0.985800  0.164800  0.584500  1
  C  C1079  1  0.164800  0.514200  0.584500  1
  C  C1080  1  0.335200  0.985800  0.584500  1
  C  C1081  1  0.985800  0.335200  0.915500  1
  C  C1082  1  0.514200  0.164800  0.915500  1
  C  C1083  1  0.335200  0.514200  0.915500  1
  C  C1084  1  0.164800  0.985800  0.915500  1
  C  C1085  1  0.506000  0.603300  0.433300  1
  C  C1086  1  0.994000  0.896700  0.433300  1
  C  C1087  1  0.896700  0.506000  0.433300  1
  C  C1088  1  0.603300  0.994000  0.433300  1
  C  C1089  1  0.994000  0.603300  0.066700  1
  C  C1090  1  0.506000  0.896700  0.066700  1
  C  C1091  1  0.603300  0.506000  0.066700  1
  C  C1092  1  0.896700  0.994000  0.066700  1
  C  C1093  1  0.494000  0.396700  0.566700  1
  C  C1094  1  0.006000  0.103300  0.566700  1
  C  C1095  1  0.103300  0.494000  0.566700  1
  C  C1096  1  0.396700  0.006000  0.566700  1
  C  C1097  1  0.006000  0.396700  0.933300  1
  C  C1098  1  0.494000  0.103300  0.933300  1
  C  C1099  1  0.396700  0.494000  0.933300  1
  C  C1100  1  0.103300  0.006000  0.933300  1
  C  C1101  1  0.549300  0.570900  0.402800  1
  C  C1102  1  0.950700  0.929100  0.402800  1
  C  C1103  1  0.929100  0.549300  0.402800  1
  C  C1104  1  0.570900  0.950700  0.402800  1
  C  C1105  1  0.950700  0.570900  0.097200  1
  C  C1106  1  0.549300  0.929100  0.097200  1
  C  C1107  1  0.570900  0.549300  0.097200  1
  C  C1108  1  0.929100  0.950700  0.097200  1
  C  C1109  1  0.450700  0.429100  0.597200  1
  C  C1110  1  0.049300  0.070900  0.597200  1
  C  C1111  1  0.070900  0.450700  0.597200  1
  C  C1112  1  0.429100  0.049300  0.597200  1
  C  C1113  1  0.049300  0.429100  0.902800  1
  C  C1114  1  0.450700  0.070900  0.902800  1
  C  C1115  1  0.429100  0.450700  0.902800  1
  C  C1116  1  0.070900  0.049300  0.902800  1
  C  C1117  1  0.367000  0.671700  0.379900  1
  C  C1118  1  0.133000  0.828300  0.379900  1
  C  C1119  1  0.828300  0.367000  0.379900  1
  C  C1120  1  0.671700  0.133000  0.379900  1
  C  C1121  1  0.133000  0.671700  0.120100  1
  C  C1122  1  0.367000  0.828300  0.120100  1
  C  C1123  1  0.671700  0.367000  0.120100  1
  C  C1124  1  0.828300  0.133000  0.120100  1
  C  C1125  1  0.633000  0.328300  0.620100  1
  C  C1126  1  0.867000  0.171700  0.620100  1
  C  C1127  1  0.171700  0.633000  0.620100  1
  C  C1128  1  0.328300  0.867000  0.620100  1
  C  C1129  1  0.867000  0.328300  0.879900  1
  C  C1130  1  0.633000  0.171700  0.879900  1
  C  C1131  1  0.328300  0.633000  0.879900  1
  C  C1132  1  0.171700  0.867000  0.879900  1
  C  C1133  1  0.428400  0.684200  0.357300  1
  C  C1134  1  0.071600  0.815800  0.357300  1
  C  C1135  1  0.815800  0.428400  0.357300  1
  C  C1136  1  0.684200  0.071600  0.357300  1
  C  C1137  1  0.071600  0.684200  0.142700  1
  C  C1138  1  0.428400  0.815800  0.142700  1
  C  C1139  1  0.684200  0.428400  0.142700  1
  C  C1140  1  0.815800  0.071600  0.142700  1
  C  C1141  1  0.571600  0.315800  0.642700  1
  C  C1142  1  0.928400  0.184200  0.642700  1
  C  C1143  1  0.184200  0.571600  0.642700  1
  C  C1144  1  0.315800  0.928400  0.642700  1
  C  C1145  1  0.928400  0.315800  0.857300  1
  C  C1146  1  0.571600  0.184200  0.857300  1
  C  C1147  1  0.315800  0.571600  0.857300  1
  C  C1148  1  0.184200  0.928400  0.857300  1
  C  C1149  1  0.481500  0.661500  0.383500  1
  C  C1150  1  0.018500  0.838500  0.383500  1
  C  C1151  1  0.838500  0.481500  0.383500  1
  C  C1152  1  0.661500  0.018500  0.383500  1
  C  C1153  1  0.018500  0.661500  0.116500  1
  C  C1154  1  0.481500  0.838500  0.116500  1
  C  C1155  1  0.661500  0.481500  0.116500  1
  C  C1156  1  0.838500  0.018500  0.116500  1
  C  C1157  1  0.518500  0.338500  0.616500  1
  C  C1158  1  0.981500  0.161500  0.616500  1
  C  C1159  1  0.161500  0.518500  0.616500  1
  C  C1160  1  0.338500  0.981500  0.616500  1
  C  C1161  1  0.981500  0.338500  0.883500  1
  C  C1162  1  0.518500  0.161500  0.883500  1
  C  C1163  1  0.338500  0.518500  0.883500  1
  C  C1164  1  0.161500  0.981500  0.883500  1
  C  C1165  1  0.531200  0.632000  0.356600  1
  C  C1166  1  0.968800  0.868000  0.356600  1
  C  C1167  1  0.868000  0.531200  0.356600  1
  C  C1168  1  0.632000  0.968800  0.356600  1
  C  C1169  1  0.968800  0.632000  0.143400  1
  C  C1170  1  0.531200  0.868000  0.143400  1
  C  C1171  1  0.632000  0.531200  0.143400  1
  C  C1172  1  0.868000  0.968800  0.143400  1
  C  C1173  1  0.468800  0.368000  0.643400  1
  C  C1174  1  0.031200  0.132000  0.643400  1
  C  C1175  1  0.132000  0.468800  0.643400  1
  C  C1176  1  0.368000  0.031200  0.643400  1
  C  C1177  1  0.031200  0.368000  0.856600  1
  C  C1178  1  0.468800  0.132000  0.856600  1
  C  C1179  1  0.368000  0.468800  0.856600  1
  C  C1180  1  0.132000  0.031200  0.856600  1
  C  C1181  1  0.563200  0.678800  0.328800  1
  C  C1182  1  0.936800  0.821200  0.328800  1
  C  C1183  1  0.821200  0.563200  0.328800  1
  C  C1184  1  0.678800  0.936800  0.328800  1
  C  C1185  1  0.936800  0.678800  0.171200  1
  C  C1186  1  0.563200  0.821200  0.171200  1
  C  C1187  1  0.678800  0.563200  0.171200  1
  C  C1188  1  0.821200  0.936800  0.171200  1
  C  C1189  1  0.436800  0.321200  0.671200  1
  C  C1190  1  0.063200  0.178800  0.671200  1
  C  C1191  1  0.178800  0.436800  0.671200  1
  C  C1192  1  0.321200  0.063200  0.671200  1
  C  C1193  1  0.063200  0.321200  0.828800  1
  C  C1194  1  0.436800  0.178800  0.828800  1
  C  C1195  1  0.321200  0.436800  0.828800  1
  C  C1196  1  0.178800  0.063200  0.828800  1
  C  C1197  1  0.553000  0.663600  0.282000  1
  C  C1198  1  0.947000  0.836400  0.282000  1
  C  C1199  1  0.836400  0.553000  0.282000  1
  C  C1200  1  0.663600  0.947000  0.282000  1
  C  C1201  1  0.947000  0.663600  0.218000  1
  C  C1202  1  0.553000  0.836400  0.218000  1
  C  C1203  1  0.663600  0.553000  0.218000  1
  C  C1204  1  0.836400  0.947000  0.218000  1
  C  C1205  1  0.447000  0.336400  0.718000  1
  C  C1206  1  0.053000  0.163600  0.718000  1
  C  C1207  1  0.163600  0.447000  0.718000  1
  C  C1208  1  0.336400  0.053000  0.718000  1
  C  C1209  1  0.053000  0.336400  0.782000  1
  C  C1210  1  0.447000  0.163600  0.782000  1
  C  C1211  1  0.336400  0.447000  0.782000  1
  C  C1212  1  0.163600  0.053000  0.782000  1
  C  C1213  1  0.273500  0.370900  0.080550  1.0
  C  C1214  1  0.226500  0.129100  0.080550  1.0
  C  C1215  1  0.129100  0.273500  0.080550  1.0
  C  C1216  1  0.370900  0.226500  0.080550  1.0
  C  C1217  1  0.226500  0.370900  0.419450  1.0
  C  C1218  1  0.273500  0.129100  0.419450  1.0
  C  C1219  1  0.370900  0.273500  0.419450  1.0
  C  C1220  1  0.129100  0.226500  0.419450  1.0
  C  C1221  1  0.726500  0.629100  0.919450  1.0
  C  C1222  1  0.773500  0.870900  0.919450  1.0
  C  C1223  1  0.870900  0.726500  0.919450  1.0
  C  C1224  1  0.629100  0.773500  0.919450  1.0
  C  C1225  1  0.773500  0.629100  0.580550  1.0
  C  C1226  1  0.726500  0.870900  0.580550  1.0
  C  C1227  1  0.629100  0.726500  0.580550  1.0
  C  C1228  1  0.870900  0.773500  0.580550  1.0
  C  C1229  1  0.287500  0.432000  0.080400  1.0
  C  C1230  1  0.212500  0.068000  0.080400  1.0
  C  C1231  1  0.068000  0.287500  0.080400  1.0
  C  C1232  1  0.432000  0.212500  0.080400  1.0
  C  C1233  1  0.212500  0.432000  0.419600  1.0
  C  C1234  1  0.287500  0.068000  0.419600  1.0
  C  C1235  1  0.432000  0.287500  0.419600  1.0
  C  C1236  1  0.068000  0.212500  0.419600  1.0
  C  C1237  1  0.712500  0.568000  0.919600  1.0
  C  C1238  1  0.787500  0.932000  0.919600  1.0
  C  C1239  1  0.932000  0.712500  0.919600  1.0
  C  C1240  1  0.568000  0.787500  0.919600  1.0
  C  C1241  1  0.787500  0.568000  0.580400  1.0
  C  C1242  1  0.712500  0.932000  0.580400  1.0
  C  C1243  1  0.568000  0.712500  0.580400  1.0
  C  C1244  1  0.932000  0.787500  0.580400  1.0
  C  C1245  1  0.298000  0.461400  0.116990  1.0
  C  C1246  1  0.202000  0.038600  0.116990  1.0
  C  C1247  1  0.038600  0.298000  0.116990  1.0
  C  C1248  1  0.461400  0.202000  0.116990  1.0
  C  C1249  1  0.202000  0.461400  0.383010  1.0
  C  C1250  1  0.298000  0.038600  0.383010  1.0
  C  C1251  1  0.461400  0.298000  0.383010  1.0
  C  C1252  1  0.038600  0.202000  0.383010  1.0
  C  C1253  1  0.702000  0.538600  0.883010  1.0
  C  C1254  1  0.798000  0.961400  0.883010  1.0
  C  C1255  1  0.961400  0.702000  0.883010  1.0
  C  C1256  1  0.538600  0.798000  0.883010  1.0
  C  C1257  1  0.798000  0.538600  0.616990  1.0
  C  C1258  1  0.702000  0.961400  0.616990  1.0
  C  C1259  1  0.538600  0.702000  0.616990  1.0
  C  C1260  1  0.961400  0.798000  0.616990  1.0
  C  C1261  1  0.296500  0.429200  0.154640  1.0
  C  C1262  1  0.203500  0.070800  0.154640  1.0
  C  C1263  1  0.070800  0.296500  0.154640  1.0
  C  C1264  1  0.429200  0.203500  0.154640  1.0
  C  C1265  1  0.203500  0.429200  0.345360  1.0
  C  C1266  1  0.296500  0.070800  0.345360  1.0
  C  C1267  1  0.429200  0.296500  0.345360  1.0
  C  C1268  1  0.070800  0.203500  0.345360  1.0
  C  C1269  1  0.703500  0.570800  0.845360  1.0
  C  C1270  1  0.796500  0.929200  0.845360  1.0
  C  C1271  1  0.929200  0.703500  0.845360  1.0
  C  C1272  1  0.570800  0.796500  0.845360  1.0
  C  C1273  1  0.796500  0.570800  0.654640  1.0
  C  C1274  1  0.703500  0.929200  0.654640  1.0
  C  C1275  1  0.570800  0.703500  0.654640  1.0
  C  C1276  1  0.929200  0.796500  0.654640  1.0
  C  C1277  1  0.282100  0.368200  0.153570  1.0
  C  C1278  1  0.217900  0.131800  0.153570  1.0
  C  C1279  1  0.131800  0.282100  0.153570  1.0
  C  C1280  1  0.368200  0.217900  0.153570  1.0
  C  C1281  1  0.217900  0.368200  0.346430  1.0
  C  C1282  1  0.282100  0.131800  0.346430  1.0
  C  C1283  1  0.368200  0.282100  0.346430  1.0
  C  C1284  1  0.131800  0.217900  0.346430  1.0
  C  C1285  1  0.717900  0.631800  0.846430  1.0
  C  C1286  1  0.782100  0.868200  0.846430  1.0
  C  C1287  1  0.868200  0.717900  0.846430  1.0
  C  C1288  1  0.631800  0.782100  0.846430  1.0
  C  C1289  1  0.782100  0.631800  0.653570  1.0
  C  C1290  1  0.717900  0.868200  0.653570  1.0
  C  C1291  1  0.631800  0.717900  0.653570  1.0
  C  C1292  1  0.868200  0.782100  0.653570  1.0
  C  C1293  1  0.309900  0.457600  0.193700  1.0
  C  C1294  1  0.190100  0.042400  0.193700  1.0
  C  C1295  1  0.042400  0.309900  0.193700  1.0
  C  C1296  1  0.457600  0.190100  0.193700  1.0
  C  C1297  1  0.190100  0.457600  0.306300  1.0
  C  C1298  1  0.309900  0.042400  0.306300  1.0
  C  C1299  1  0.457600  0.309900  0.306300  1.0
  C  C1300  1  0.042400  0.190100  0.306300  1.0
  C  C1301  1  0.690100  0.542400  0.806300  1.0
  C  C1302  1  0.809900  0.957600  0.806300  1.0
  C  C1303  1  0.957600  0.690100  0.806300  1.0
  C  C1304  1  0.542400  0.809900  0.806300  1.0
  C  C1305  1  0.809900  0.542400  0.693700  1.0
  C  C1306  1  0.690100  0.957600  0.693700  1.0
  C  C1307  1  0.542400  0.690100  0.693700  1.0
  C  C1308  1  0.957600  0.809900  0.693700  1.0
  C  C1309  1  0.321200  0.482000  0.227100  1.0
  C  C1310  1  0.178800  0.018000  0.227100  1.0
  C  C1311  1  0.018000  0.321200  0.227100  1.0
  C  C1312  1  0.482000  0.178800  0.227100  1.0
  C  C1313  1  0.178800  0.482000  0.272900  1.0
  C  C1314  1  0.321200  0.018000  0.272900  1.0
  C  C1315  1  0.482000  0.321200  0.272900  1.0
  C  C1316  1  0.018000  0.178800  0.272900  1.0
  C  C1317  1  0.678800  0.518000  0.772900  1.0
  C  C1318  1  0.821200  0.982000  0.772900  1.0
  C  C1319  1  0.982000  0.678800  0.772900  1.0
  C  C1320  1  0.518000  0.821200  0.772900  1.0
  C  C1321  1  0.821200  0.518000  0.727100  1.0
  C  C1322  1  0.678800  0.982000  0.727100  1.0
  C  C1323  1  0.518000  0.678800  0.727100  1.0
  C  C1324  1  0.982000  0.821200  0.727100  1.0
  C  C1325  1  0.357000  0.510900  0.339640  1.0
  C  C1326  1  0.143000  0.989100  0.339640  1.0
  C  C1327  1  0.989100  0.357000  0.339640  1.0
  C  C1328  1  0.510900  0.143000  0.339640  1.0
  C  C1329  1  0.143000  0.510900  0.160360  1.0
  C  C1330  1  0.357000  0.989100  0.160360  1.0
  C  C1331  1  0.510900  0.357000  0.160360  1.0
  C  C1332  1  0.989100  0.143000  0.160360  1.0
  C  C1333  1  0.643000  0.489100  0.660360  1.0
  C  C1334  1  0.857000  0.010900  0.660360  1.0
  C  C1335  1  0.010900  0.643000  0.660360  1.0
  C  C1336  1  0.489100  0.857000  0.660360  1.0
  C  C1337  1  0.857000  0.489100  0.839640  1.0
  C  C1338  1  0.643000  0.010900  0.839640  1.0
  C  C1339  1  0.489100  0.643000  0.839640  1.0
  C  C1340  1  0.010900  0.857000  0.839640  1.0
  C  C1341  1  0.347600  0.481000  0.302100  1.0
  C  C1342  1  0.152400  0.019000  0.302100  1.0
  C  C1343  1  0.019000  0.347600  0.302100  1.0
  C  C1344  1  0.481000  0.152400  0.302100  1.0
  C  C1345  1  0.152400  0.481000  0.197900  1.0
  C  C1346  1  0.347600  0.019000  0.197900  1.0
  C  C1347  1  0.481000  0.347600  0.197900  1.0
  C  C1348  1  0.019000  0.152400  0.197900  1.0
  C  C1349  1  0.652400  0.519000  0.697900  1.0
  C  C1350  1  0.847600  0.981000  0.697900  1.0
  C  C1351  1  0.981000  0.652400  0.697900  1.0
  C  C1352  1  0.519000  0.847600  0.697900  1.0
  C  C1353  1  0.847600  0.519000  0.802100  1.0
  C  C1354  1  0.652400  0.981000  0.802100  1.0
  C  C1355  1  0.519000  0.652400  0.802100  1.0
  C  C1356  1  0.981000  0.847600  0.802100  1.0
  C  C1357  1  0.332200  0.512100  0.266100  1.0
  C  C1358  1  0.167800  0.987900  0.266100  1.0
  C  C1359  1  0.987900  0.332200  0.266100  1.0
  C  C1360  1  0.512100  0.167800  0.266100  1.0
  C  C1361  1  0.167800  0.512100  0.233900  1.0
  C  C1362  1  0.332200  0.987900  0.233900  1.0
  C  C1363  1  0.512100  0.332200  0.233900  1.0
  C  C1364  1  0.987900  0.167800  0.233900  1.0
  C  C1365  1  0.667800  0.487900  0.733900  1.0
  C  C1366  1  0.832200  0.012100  0.733900  1.0
  C  C1367  1  0.012100  0.667800  0.733900  1.0
  C  C1368  1  0.487900  0.832200  0.733900  1.0
  C  C1369  1  0.832200  0.487900  0.766100  1.0
  C  C1370  1  0.667800  0.012100  0.766100  1.0
  C  C1371  1  0.487900  0.667800  0.766100  1.0
  C  C1372  1  0.012100  0.832200  0.766100  1.0
  C  C1373  1  0.326400  0.575800  0.269200  1.0
  C  C1374  1  0.173600  0.924200  0.269200  1.0
  C  C1375  1  0.924200  0.326400  0.269200  1.0
  C  C1376  1  0.575800  0.173600  0.269200  1.0
  C  C1377  1  0.173600  0.575800  0.230800  1.0
  C  C1378  1  0.326400  0.924200  0.230800  1.0
  C  C1379  1  0.575800  0.326400  0.230800  1.0
  C  C1380  1  0.924200  0.173600  0.230800  1.0
  C  C1381  1  0.673600  0.424200  0.730800  1.0
  C  C1382  1  0.826400  0.075800  0.730800  1.0
  C  C1383  1  0.075800  0.673600  0.730800  1.0
  C  C1384  1  0.424200  0.826400  0.730800  1.0
  C  C1385  1  0.826400  0.424200  0.769200  1.0
  C  C1386  1  0.673600  0.075800  0.769200  1.0
  C  C1387  1  0.424200  0.673600  0.769200  1.0
  C  C1388  1  0.075800  0.826400  0.769200  1.0
  C  C1389  1  0.333400  0.604600  0.305600  1.0
  C  C1390  1  0.166600  0.895400  0.305600  1.0
  C  C1391  1  0.895400  0.333400  0.305600  1.0
  C  C1392  1  0.604600  0.166600  0.305600  1.0
  C  C1393  1  0.166600  0.604600  0.194400  1.0
  C  C1394  1  0.333400  0.895400  0.194400  1.0
  C  C1395  1  0.604600  0.333400  0.194400  1.0
  C  C1396  1  0.895400  0.166600  0.194400  1.0
  C  C1397  1  0.666600  0.395400  0.694400  1.0
  C  C1398  1  0.833400  0.104600  0.694400  1.0
  C  C1399  1  0.104600  0.666600  0.694400  1.0
  C  C1400  1  0.395400  0.833400  0.694400  1.0
  C  C1401  1  0.833400  0.395400  0.805600  1.0
  C  C1402  1  0.666600  0.104600  0.805600  1.0
  C  C1403  1  0.395400  0.666600  0.805600  1.0
  C  C1404  1  0.104600  0.833400  0.805600  1.0
  C  C1405  1  0.349400  0.574200  0.343100  1.0
  C  C1406  1  0.150600  0.925800  0.343100  1.0
  C  C1407  1  0.925800  0.349400  0.343100  1.0
  C  C1408  1  0.574200  0.150600  0.343100  1.0
  C  C1409  1  0.150600  0.574200  0.156900  1.0
  C  C1410  1  0.349400  0.925800  0.156900  1.0
  C  C1411  1  0.574200  0.349400  0.156900  1.0
  C  C1412  1  0.925800  0.150600  0.156900  1.0
  C  C1413  1  0.650600  0.425800  0.656900  1.0
  C  C1414  1  0.849400  0.074200  0.656900  1.0
  C  C1415  1  0.074200  0.650600  0.656900  1.0
  C  C1416  1  0.425800  0.849400  0.656900  1.0
  C  C1417  1  0.849400  0.425800  0.843100  1.0
  C  C1418  1  0.650600  0.074200  0.843100  1.0
  C  C1419  1  0.425800  0.650600  0.843100  1.0
  C  C1420  1  0.074200  0.849400  0.843100  1.0
  C  C1421  1  0.354000  0.511000  0.423480  1.0
  C  C1422  1  0.146000  0.989000  0.423480  1.0
  C  C1423  1  0.989000  0.354000  0.423480  1.0
  C  C1424  1  0.511000  0.146000  0.423480  1.0
  C  C1425  1  0.146000  0.511000  0.076520  1.0
  C  C1426  1  0.354000  0.989000  0.076520  1.0
  C  C1427  1  0.511000  0.354000  0.076520  1.0
  C  C1428  1  0.989000  0.146000  0.076520  1.0
  C  C1429  1  0.646000  0.489000  0.576520  1.0
  C  C1430  1  0.854000  0.011000  0.576520  1.0
  C  C1431  1  0.011000  0.646000  0.576520  1.0
  C  C1432  1  0.489000  0.854000  0.576520  1.0
  C  C1433  1  0.854000  0.489000  0.923480  1.0
  C  C1434  1  0.646000  0.011000  0.923480  1.0
  C  C1435  1  0.489000  0.646000  0.923480  1.0
  C  C1436  1  0.011000  0.854000  0.923480  1.0
  C  C1437  1  0.343100  0.481200  0.461300  1.0
  C  C1438  1  0.156900  0.018800  0.461300  1.0
  C  C1439  1  0.018800  0.343100  0.461300  1.0
  C  C1440  1  0.481200  0.156900  0.461300  1.0
  C  C1441  1  0.156900  0.481200  0.038700  1.0
  C  C1442  1  0.343100  0.018800  0.038700  1.0
  C  C1443  1  0.481200  0.343100  0.038700  1.0
  C  C1444  1  0.018800  0.156900  0.038700  1.0
  C  C1445  1  0.656900  0.518800  0.538700  1.0
  C  C1446  1  0.843100  0.981200  0.538700  1.0
  C  C1447  1  0.981200  0.656900  0.538700  1.0
  C  C1448  1  0.518800  0.843100  0.538700  1.0
  C  C1449  1  0.843100  0.518800  0.961300  1.0
  C  C1450  1  0.656900  0.981200  0.961300  1.0
  C  C1451  1  0.518800  0.656900  0.961300  1.0
  C  C1452  1  0.981200  0.843100  0.961300  1.0
  C  C1453  1  0.324000  0.512100  0.496300  1.0
  C  C1454  1  0.176000  0.987900  0.496300  1.0
  C  C1455  1  0.987900  0.324000  0.496300  1.0
  C  C1456  1  0.512100  0.176000  0.496300  1.0
  C  C1457  1  0.176000  0.512100  0.003700  1.0
  C  C1458  1  0.324000  0.987900  0.003700  1.0
  C  C1459  1  0.512100  0.324000  0.003700  1.0
  C  C1460  1  0.987900  0.176000  0.003700  1.0
  C  C1461  1  0.676000  0.487900  0.503700  1.0
  C  C1462  1  0.824000  0.012100  0.503700  1.0
  C  C1463  1  0.012100  0.676000  0.503700  1.0
  C  C1464  1  0.487900  0.824000  0.503700  1.0
  C  C1465  1  0.824000  0.487900  0.996300  1.0
  C  C1466  1  0.676000  0.012100  0.996300  1.0
  C  C1467  1  0.487900  0.676000  0.996300  1.0
  C  C1468  1  0.012100  0.824000  0.996300  1.0
  C  C1469  1  0.314800  0.574900  0.492100  1.0
  C  C1470  1  0.185200  0.925100  0.492100  1.0
  C  C1471  1  0.925100  0.314800  0.492100  1.0
  C  C1472  1  0.574900  0.185200  0.492100  1.0
  C  C1473  1  0.185200  0.574900  0.007900  1.0
  C  C1474  1  0.314800  0.925100  0.007900  1.0
  C  C1475  1  0.574900  0.314800  0.007900  1.0
  C  C1476  1  0.925100  0.185200  0.007900  1.0
  C  C1477  1  0.685200  0.425100  0.507900  1.0
  C  C1478  1  0.814800  0.074900  0.507900  1.0
  C  C1479  1  0.074900  0.685200  0.507900  1.0
  C  C1480  1  0.425100  0.814800  0.507900  1.0
  C  C1481  1  0.814800  0.425100  0.992100  1.0
  C  C1482  1  0.685200  0.074900  0.992100  1.0
  C  C1483  1  0.425100  0.685200  0.992100  1.0
  C  C1484  1  0.074900  0.814800  0.992100  1.0
  C  C1485  1  0.323400  0.603700  0.456300  1.0
  C  C1486  1  0.176600  0.896300  0.456300  1.0
  C  C1487  1  0.896300  0.323400  0.456300  1.0
  C  C1488  1  0.603700  0.176600  0.456300  1.0
  C  C1489  1  0.176600  0.603700  0.043700  1.0
  C  C1490  1  0.323400  0.896300  0.043700  1.0
  C  C1491  1  0.603700  0.323400  0.043700  1.0
  C  C1492  1  0.896300  0.176600  0.043700  1.0
  C  C1493  1  0.676600  0.396300  0.543700  1.0
  C  C1494  1  0.823400  0.103700  0.543700  1.0
  C  C1495  1  0.103700  0.676600  0.543700  1.0
  C  C1496  1  0.396300  0.823400  0.543700  1.0
  C  C1497  1  0.823400  0.396300  0.956300  1.0
  C  C1498  1  0.676600  0.103700  0.956300  1.0
  C  C1499  1  0.396300  0.676600  0.956300  1.0
  C  C1500  1  0.103700  0.823400  0.956300  1.0
  C  C1501  1  0.345100  0.573800  0.419800  1.0
  C  C1502  1  0.154900  0.926200  0.419800  1.0
  C  C1503  1  0.926200  0.345100  0.419800  1.0
  C  C1504  1  0.573800  0.154900  0.419800  1.0
  C  C1505  1  0.154900  0.573800  0.080200  1.0
  C  C1506  1  0.345100  0.926200  0.080200  1.0
  C  C1507  1  0.573800  0.345100  0.080200  1.0
  C  C1508  1  0.926200  0.154900  0.080200  1.0
  C  C1509  1  0.654900  0.426200  0.580200  1.0
  C  C1510  1  0.845100  0.073800  0.580200  1.0
  C  C1511  1  0.073800  0.654900  0.580200  1.0
  C  C1512  1  0.426200  0.845100  0.580200  1.0
  C  C1513  1  0.845100  0.426200  0.919800  1.0
  C  C1514  1  0.654900  0.073800  0.919800  1.0
  C  C1515  1  0.426200  0.654900  0.919800  1.0
  C  C1516  1  0.073800  0.845100  0.919800  1.0
  C  C1517  1  0.314900  0.482100  0.535200  1.0
  C  C1518  1  0.185100  0.017900  0.535200  1.0
  C  C1519  1  0.017900  0.314900  0.535200  1.0
  C  C1520  1  0.482100  0.185100  0.535200  1.0
  C  C1521  1  0.185100  0.482100  0.964800  1.0
  C  C1522  1  0.314900  0.017900  0.964800  1.0
  C  C1523  1  0.482100  0.314900  0.964800  1.0
  C  C1524  1  0.017900  0.185100  0.964800  1.0
  C  C1525  1  0.685100  0.517900  0.464800  1.0
  C  C1526  1  0.814900  0.982100  0.464800  1.0
  C  C1527  1  0.982100  0.685100  0.464800  1.0
  C  C1528  1  0.517900  0.814900  0.464800  1.0
  C  C1529  1  0.814900  0.517900  0.035200  1.0
  C  C1530  1  0.685100  0.982100  0.035200  1.0
  C  C1531  1  0.517900  0.685100  0.035200  1.0
  C  C1532  1  0.982100  0.814900  0.035200  1.0
  C  C1533  1  0.308200  0.457700  0.568700  1.0
  C  C1534  1  0.191800  0.042300  0.568700  1.0
  C  C1535  1  0.042300  0.308200  0.568700  1.0
  C  C1536  1  0.457700  0.191800  0.568700  1.0
  C  C1537  1  0.191800  0.457700  0.931300  1.0
  C  C1538  1  0.308200  0.042300  0.931300  1.0
  C  C1539  1  0.457700  0.308200  0.931300  1.0
  C  C1540  1  0.042300  0.191800  0.931300  1.0
  C  C1541  1  0.691800  0.542300  0.431300  1.0
  C  C1542  1  0.808200  0.957700  0.431300  1.0
  C  C1543  1  0.957700  0.691800  0.431300  1.0
  C  C1544  1  0.542300  0.808200  0.431300  1.0
  C  C1545  1  0.808200  0.542300  0.068700  1.0
  C  C1546  1  0.691800  0.957700  0.068700  1.0
  C  C1547  1  0.542300  0.691800  0.068700  1.0
  C  C1548  1  0.957700  0.808200  0.068700  1.0
  C  C1549  1  0.283800  0.367800  0.610220  1.0
  C  C1550  1  0.216200  0.132200  0.610220  1.0
  C  C1551  1  0.132200  0.283800  0.610220  1.0
  C  C1552  1  0.367800  0.216200  0.610220  1.0
  C  C1553  1  0.216200  0.367800  0.889780  1.0
  C  C1554  1  0.283800  0.132200  0.889780  1.0
  C  C1555  1  0.367800  0.283800  0.889780  1.0
  C  C1556  1  0.132200  0.216200  0.889780  1.0
  C  C1557  1  0.716200  0.632200  0.389780  1.0
  C  C1558  1  0.783800  0.867800  0.389780  1.0
  C  C1559  1  0.867800  0.716200  0.389780  1.0
  C  C1560  1  0.632200  0.783800  0.389780  1.0
  C  C1561  1  0.783800  0.632200  0.110220  1.0
  C  C1562  1  0.716200  0.867800  0.110220  1.0
  C  C1563  1  0.632200  0.716200  0.110220  1.0
  C  C1564  1  0.867800  0.783800  0.110220  1.0
  C  C1565  1  0.297900  0.428700  0.608300  1.0
  C  C1566  1  0.202100  0.071300  0.608300  1.0
  C  C1567  1  0.071300  0.297900  0.608300  1.0
  C  C1568  1  0.428700  0.202100  0.608300  1.0
  C  C1569  1  0.202100  0.428700  0.891700  1.0
  C  C1570  1  0.297900  0.071300  0.891700  1.0
  C  C1571  1  0.428700  0.297900  0.891700  1.0
  C  C1572  1  0.071300  0.202100  0.891700  1.0
  C  C1573  1  0.702100  0.571300  0.391700  1.0
  C  C1574  1  0.797900  0.928700  0.391700  1.0
  C  C1575  1  0.928700  0.702100  0.391700  1.0
  C  C1576  1  0.571300  0.797900  0.391700  1.0
  C  C1577  1  0.797900  0.571300  0.108300  1.0
  C  C1578  1  0.702100  0.928700  0.108300  1.0
  C  C1579  1  0.571300  0.702100  0.108300  1.0
  C  C1580  1  0.928700  0.797900  0.108300  1.0
  C  C1581  1  0.378300  0.667200  0.384900  1.0
  C  C1582  1  0.121700  0.832800  0.384900  1.0
  C  C1583  1  0.832800  0.378300  0.384900  1.0
  C  C1584  1  0.667200  0.121700  0.384900  1.0
  C  C1585  1  0.121700  0.667200  0.115100  1.0
  C  C1586  1  0.378300  0.832800  0.115100  1.0
  C  C1587  1  0.667200  0.378300  0.115100  1.0
  C  C1588  1  0.832800  0.121700  0.115100  1.0
  C  C1589  1  0.621700  0.332800  0.615100  1.0
  C  C1590  1  0.878300  0.167200  0.615100  1.0
  C  C1591  1  0.167200  0.621700  0.615100  1.0
  C  C1592  1  0.332800  0.878300  0.615100  1.0
  C  C1593  1  0.878300  0.332800  0.884900  1.0
  C  C1594  1  0.621700  0.167200  0.884900  1.0
  C  C1595  1  0.332800  0.621700  0.884900  1.0
  C  C1596  1  0.167200  0.878300  0.884900  1.0
  C  C1597  1  0.436200  0.675800  0.412200  1.0
  C  C1598  1  0.063800  0.824200  0.412200  1.0
  C  C1599  1  0.824200  0.436200  0.412200  1.0
  C  C1600  1  0.675800  0.063800  0.412200  1.0
  C  C1601  1  0.063800  0.675800  0.087800  1.0
  C  C1602  1  0.436200  0.824200  0.087800  1.0
  C  C1603  1  0.675800  0.436200  0.087800  1.0
  C  C1604  1  0.824200  0.063800  0.087800  1.0
  C  C1605  1  0.563800  0.324200  0.587800  1.0
  C  C1606  1  0.936200  0.175800  0.587800  1.0
  C  C1607  1  0.175800  0.563800  0.587800  1.0
  C  C1608  1  0.324200  0.936200  0.587800  1.0
  C  C1609  1  0.936200  0.324200  0.912200  1.0
  C  C1610  1  0.563800  0.175800  0.912200  1.0
  C  C1611  1  0.324200  0.563800  0.912200  1.0
  C  C1612  1  0.175800  0.936200  0.912200  1.0
  C  C1613  1  0.485700  0.630200  0.401500  1.0
  C  C1614  1  0.014300  0.869800  0.401500  1.0
  C  C1615  1  0.869800  0.485700  0.401500  1.0
  C  C1616  1  0.630200  0.014300  0.401500  1.0
  C  C1617  1  0.014300  0.630200  0.098500  1.0
  C  C1618  1  0.485700  0.869800  0.098500  1.0
  C  C1619  1  0.630200  0.485700  0.098500  1.0
  C  C1620  1  0.869800  0.014300  0.098500  1.0
  C  C1621  1  0.514300  0.369800  0.598500  1.0
  C  C1622  1  0.985700  0.130200  0.598500  1.0
  C  C1623  1  0.130200  0.514300  0.598500  1.0
  C  C1624  1  0.369800  0.985700  0.598500  1.0
  C  C1625  1  0.985700  0.369800  0.901500  1.0
  C  C1626  1  0.514300  0.130200  0.901500  1.0
  C  C1627  1  0.369800  0.514300  0.901500  1.0
  C  C1628  1  0.130200  0.985700  0.901500  1.0
  C  C1629  1  0.540400  0.631800  0.472600  1.0
  C  C1630  1  0.959600  0.868200  0.472600  1.0
  C  C1631  1  0.868200  0.540400  0.472600  1.0
  C  C1632  1  0.631800  0.959600  0.472600  1.0
  C  C1633  1  0.959600  0.631800  0.027400  1.0
  C  C1634  1  0.540400  0.868200  0.027400  1.0
  C  C1635  1  0.631800  0.540400  0.027400  1.0
  C  C1636  1  0.868200  0.959600  0.027400  1.0
  C  C1637  1  0.459600  0.368200  0.527400  1.0
  C  C1638  1  0.040400  0.131800  0.527400  1.0
  C  C1639  1  0.131800  0.459600  0.527400  1.0
  C  C1640  1  0.368200  0.040400  0.527400  1.0
  C  C1641  1  0.040400  0.368200  0.972600  1.0
  C  C1642  1  0.459600  0.131800  0.972600  1.0
  C  C1643  1  0.368200  0.459600  0.972600  1.0
  C  C1644  1  0.131800  0.040400  0.972600  1.0
  C  C1645  1  0.544800  0.639500  0.425500  1.0
  C  C1646  1  0.955200  0.860500  0.425500  1.0
  C  C1647  1  0.860500  0.544800  0.425500  1.0
  C  C1648  1  0.639500  0.955200  0.425500  1.0
  C  C1649  1  0.955200  0.639500  0.074500  1.0
  C  C1650  1  0.544800  0.860500  0.074500  1.0
  C  C1651  1  0.639500  0.544800  0.074500  1.0
  C  C1652  1  0.860500  0.955200  0.074500  1.0
  C  C1653  1  0.455200  0.360500  0.574500  1.0
  C  C1654  1  0.044800  0.139500  0.574500  1.0
  C  C1655  1  0.139500  0.455200  0.574500  1.0
  C  C1656  1  0.360500  0.044800  0.574500  1.0
  C  C1657  1  0.044800  0.360500  0.925500  1.0
  C  C1658  1  0.455200  0.139500  0.925500  1.0
  C  C1659  1  0.360500  0.455200  0.925500  1.0
  C  C1660  1  0.139500  0.044800  0.925500  1.0
  C  C1661  1  0.512900  0.569900  0.484900  1.0
  C  C1662  1  0.987100  0.930100  0.484900  1.0
  C  C1663  1  0.930100  0.512900  0.484900  1.0
  C  C1664  1  0.569900  0.987100  0.484900  1.0
  C  C1665  1  0.987100  0.569900  0.015100  1.0
  C  C1666  1  0.512900  0.930100  0.015100  1.0
  C  C1667  1  0.569900  0.512900  0.015100  1.0
  C  C1668  1  0.930100  0.987100  0.015100  1.0
  C  C1669  1  0.487100  0.430100  0.515100  1.0
  C  C1670  1  0.012900  0.069900  0.515100  1.0
  C  C1671  1  0.069900  0.487100  0.515100  1.0
  C  C1672  1  0.430100  0.012900  0.515100  1.0
  C  C1673  1  0.012900  0.430100  0.984900  1.0
  C  C1674  1  0.487100  0.069900  0.984900  1.0
  C  C1675  1  0.430100  0.487100  0.984900  1.0
  C  C1676  1  0.069900  0.012900  0.984900  1.0
  C  C1677  1  0.316600  0.457800  0.645300  1.0
  C  C1678  1  0.183400  0.042200  0.645300  1.0
  C  C1679  1  0.042200  0.316600  0.645300  1.0
  C  C1680  1  0.457800  0.183400  0.645300  1.0
  C  C1681  1  0.183400  0.457800  0.854700  1.0
  C  C1682  1  0.316600  0.042200  0.854700  1.0
  C  C1683  1  0.457800  0.316600  0.854700  1.0
  C  C1684  1  0.042200  0.183400  0.854700  1.0
  C  C1685  1  0.683400  0.542200  0.354700  1.0
  C  C1686  1  0.816600  0.957800  0.354700  1.0
  C  C1687  1  0.957800  0.683400  0.354700  1.0
  C  C1688  1  0.542200  0.816600  0.354700  1.0
  C  C1689  1  0.816600  0.542200  0.145300  1.0
  C  C1690  1  0.683400  0.957800  0.145300  1.0
  C  C1691  1  0.542200  0.683400  0.145300  1.0
  C  C1692  1  0.957800  0.816600  0.145300  1.0
  C  C1693  1  0.312700  0.426100  0.681400  1.0
  C  C1694  1  0.187300  0.073900  0.681400  1.0
  C  C1695  1  0.073900  0.312700  0.681400  1.0
  C  C1696  1  0.426100  0.187300  0.681400  1.0
  C  C1697  1  0.187300  0.426100  0.818600  1.0
  C  C1698  1  0.312700  0.073900  0.818600  1.0
  C  C1699  1  0.426100  0.312700  0.818600  1.0
  C  C1700  1  0.073900  0.187300  0.818600  1.0
  C  C1701  1  0.687300  0.573900  0.318600  1.0
  C  C1702  1  0.812700  0.926100  0.318600  1.0
  C  C1703  1  0.926100  0.687300  0.318600  1.0
  C  C1704  1  0.573900  0.812700  0.318600  1.0
  C  C1705  1  0.812700  0.573900  0.181400  1.0
  C  C1706  1  0.687300  0.926100  0.181400  1.0
  C  C1707  1  0.573900  0.687300  0.181400  1.0
  C  C1708  1  0.926100  0.812700  0.181400  1.0
  C  C1709  1  0.292200  0.367100  0.681800  1.0
  C  C1710  1  0.207800  0.132900  0.681800  1.0
  C  C1711  1  0.132900  0.292200  0.681800  1.0
  C  C1712  1  0.367100  0.207800  0.681800  1.0
  C  C1713  1  0.207800  0.367100  0.818200  1.0
  C  C1714  1  0.292200  0.132900  0.818200  1.0
  C  C1715  1  0.367100  0.292200  0.818200  1.0
  C  C1716  1  0.132900  0.207800  0.818200  1.0
  C  C1717  1  0.707800  0.632900  0.318200  1.0
  C  C1718  1  0.792200  0.867100  0.318200  1.0
  C  C1719  1  0.867100  0.707800  0.318200  1.0
  C  C1720  1  0.632900  0.792200  0.318200  1.0
  C  C1721  1  0.792200  0.632900  0.181800  1.0
  C  C1722  1  0.707800  0.867100  0.181800  1.0
  C  C1723  1  0.632900  0.707800  0.181800  1.0
  C  C1724  1  0.867100  0.792200  0.181800  1.0
  S  S1725  1  0.384700  0.470400  0.382140  1.0
  S  S1726  1  0.115300  0.029600  0.382140  1.0
  S  S1727  1  0.029600  0.384700  0.382140  1.0
  S  S1728  1  0.470400  0.115300  0.382140  1.0
  S  S1729  1  0.115300  0.470400  0.117860  1.0
  S  S1730  1  0.384700  0.029600  0.117860  1.0
  S  S1731  1  0.470400  0.384700  0.117860  1.0
  S  S1732  1  0.029600  0.115300  0.117860  1.0
  S  S1733  1  0.615300  0.529600  0.617860  1.0
  S  S1734  1  0.884700  0.970400  0.617860  1.0
  S  S1735  1  0.970400  0.615300  0.617860  1.0
  S  S1736  1  0.529600  0.884700  0.617860  1.0
  S  S1737  1  0.884700  0.529600  0.882140  1.0
  S  S1738  1  0.615300  0.970400  0.882140  1.0
  S  S1739  1  0.529600  0.615300  0.882140  1.0
  S  S1740  1  0.970400  0.884700  0.882140  1.0
  N  N1741  1  0.270700  0.339500  0.117010  1.0
  N  N1742  1  0.229300  0.160500  0.117010  1.0
  N  N1743  1  0.160500  0.270700  0.117010  1.0
  N  N1744  1  0.339500  0.229300  0.117010  1.0
  N  N1745  1  0.229300  0.339500  0.382990  1.0
  N  N1746  1  0.270700  0.160500  0.382990  1.0
  N  N1747  1  0.339500  0.270700  0.382990  1.0
  N  N1748  1  0.160500  0.229300  0.382990  1.0
  N  N1749  1  0.729300  0.660500  0.882990  1.0
  N  N1750  1  0.770700  0.839500  0.882990  1.0
  N  N1751  1  0.839500  0.729300  0.882990  1.0
  N  N1752  1  0.660500  0.770700  0.882990  1.0
  N  N1753  1  0.770700  0.660500  0.617010  1.0
  N  N1754  1  0.729300  0.839500  0.617010  1.0
  N  N1755  1  0.660500  0.729300  0.617010  1.0
  N  N1756  1  0.839500  0.770700  0.617010  1.0
  N  N1757  1  0.354600  0.604300  0.381720  1.0
  N  N1758  1  0.145400  0.895700  0.381720  1.0
  N  N1759  1  0.895700  0.354600  0.381720  1.0
  N  N1760  1  0.604300  0.145400  0.381720  1.0
  N  N1761  1  0.145400  0.604300  0.118280  1.0
  N  N1762  1  0.354600  0.895700  0.118280  1.0
  N  N1763  1  0.604300  0.354600  0.118280  1.0
  N  N1764  1  0.895700  0.145400  0.118280  1.0
  N  N1765  1  0.645400  0.395700  0.618280  1.0
  N  N1766  1  0.854600  0.104300  0.618280  1.0
  N  N1767  1  0.104300  0.645400  0.618280  1.0
  N  N1768  1  0.395700  0.854600  0.618280  1.0
  N  N1769  1  0.854600  0.395700  0.881720  1.0
  N  N1770  1  0.645400  0.104300  0.881720  1.0
  N  N1771  1  0.395700  0.645400  0.881720  1.0
  N  N1772  1  0.104300  0.854600  0.881720  1.0
  N  N1773  1  0.273800  0.338500  0.646210  1.0
  N  N1774  1  0.226200  0.161500  0.646210  1.0
  N  N1775  1  0.161500  0.273800  0.646210  1.0
  N  N1776  1  0.338500  0.226200  0.646210  1.0
  N  N1777  1  0.226200  0.338500  0.853790  1.0
  N  N1778  1  0.273800  0.161500  0.853790  1.0
  N  N1779  1  0.338500  0.273800  0.853790  1.0
  N  N1780  1  0.161500  0.226200  0.853790  1.0
  N  N1781  1  0.726200  0.661500  0.353790  1.0
  N  N1782  1  0.773800  0.838500  0.353790  1.0
  N  N1783  1  0.838500  0.726200  0.353790  1.0
  N  N1784  1  0.661500  0.773800  0.353790  1.0
  N  N1785  1  0.773800  0.661500  0.146210  1.0
  N  N1786  1  0.726200  0.838500  0.146210  1.0
  N  N1787  1  0.661500  0.726200  0.146210  1.0
  N  N1788  1  0.838500  0.773800  0.146210  1.0
  Cl  Cl1789  1  0.250000  0.250000  0.750000  1
  Cl  Cl1790  1  0.750000  0.750000  0.250000  1
  O  O1791  1  0.359900  0.409800  0.381670  1.0
  O  O1792  1  0.140100  0.090200  0.381670  1.0
  O  O1793  1  0.090200  0.359900  0.381670  1.0
  O  O1794  1  0.409800  0.140100  0.381670  1.0
  O  O1795  1  0.140100  0.409800  0.118330  1.0
  O  O1796  1  0.359900  0.090200  0.118330  1.0
  O  O1797  1  0.409800  0.359900  0.118330  1.0
  O  O1798  1  0.090200  0.140100  0.118330  1.0
  O  O1799  1  0.640100  0.590200  0.618330  1.0
  O  O1800  1  0.859900  0.909800  0.618330  1.0
  O  O1801  1  0.909800  0.640100  0.618330  1.0
  O  O1802  1  0.590200  0.859900  0.618330  1.0
  O  O1803  1  0.859900  0.590200  0.881670  1.0
  O  O1804  1  0.640100  0.909800  0.881670  1.0
  O  O1805  1  0.590200  0.640100  0.881670  1.0
  O  O1806  1  0.909800  0.859900  0.881670  1.0
  O  O1807  1  0.449000  0.475800  0.383160  1.0
  O  O1808  1  0.051000  0.024200  0.383160  1.0
  O  O1809  1  0.024200  0.449000  0.383160  1.0
  O  O1810  1  0.475800  0.051000  0.383160  1.0
  O  O1811  1  0.051000  0.475800  0.116840  1.0
  O  O1812  1  0.449000  0.024200  0.116840  1.0
  O  O1813  1  0.475800  0.449000  0.116840  1.0
  O  O1814  1  0.024200  0.051000  0.116840  1.0
  O  O1815  1  0.551000  0.524200  0.616840  1.0
  O  O1816  1  0.949000  0.975800  0.616840  1.0
  O  O1817  1  0.975800  0.551000  0.616840  1.0
  O  O1818  1  0.524200  0.949000  0.616840  1.0
  O  O1819  1  0.949000  0.524200  0.883160  1.0
  O  O1820  1  0.551000  0.975800  0.883160  1.0
  O  O1821  1  0.524200  0.551000  0.883160  1.0
  O  O1822  1  0.975800  0.949000  0.883160  1.0
  F  F1823  1  0.357700  0.764000  0.243900  1
  F  F1824  1  0.142300  0.736000  0.243900  1
  F  F1825  1  0.736000  0.357700  0.243900  1
  F  F1826  1  0.764000  0.142300  0.243900  1
  F  F1827  1  0.142300  0.764000  0.256100  1
  F  F1828  1  0.357700  0.736000  0.256100  1
  F  F1829  1  0.764000  0.357700  0.256100  1
  F  F1830  1  0.736000  0.142300  0.256100  1
  F  F1831  1  0.642300  0.236000  0.756100  1
  F  F1832  1  0.857700  0.264000  0.756100  1
  F  F1833  1  0.264000  0.642300  0.756100  1
  F  F1834  1  0.236000  0.857700  0.756100  1
  F  F1835  1  0.857700  0.236000  0.743900  1
  F  F1836  1  0.642300  0.264000  0.743900  1
  F  F1837  1  0.236000  0.642300  0.743900  1
  F  F1838  1  0.264000  0.857700  0.743900  1
  F  F1839  1  0.454400  0.791100  0.239300  1
  F  F1840  1  0.045600  0.708900  0.239300  1
  F  F1841  1  0.708900  0.454400  0.239300  1
  F  F1842  1  0.791100  0.045600  0.239300  1
  F  F1843  1  0.045600  0.791100  0.260700  1
  F  F1844  1  0.454400  0.708900  0.260700  1
  F  F1845  1  0.791100  0.454400  0.260700  1
  F  F1846  1  0.708900  0.045600  0.260700  1
  F  F1847  1  0.545600  0.208900  0.760700  1
  F  F1848  1  0.954400  0.291100  0.760700  1
  F  F1849  1  0.291100  0.545600  0.760700  1
  F  F1850  1  0.208900  0.954400  0.760700  1
  F  F1851  1  0.954400  0.208900  0.739300  1
  F  F1852  1  0.545600  0.291100  0.739300  1
  F  F1853  1  0.208900  0.545600  0.739300  1
  F  F1854  1  0.291100  0.954400  0.739300  1
  F  F1855  1  0.422300  0.738600  0.294500  1
  F  F1856  1  0.077700  0.761400  0.294500  1
  F  F1857  1  0.761400  0.422300  0.294500  1
  F  F1858  1  0.738600  0.077700  0.294500  1
  F  F1859  1  0.077700  0.738600  0.205500  1
  F  F1860  1  0.422300  0.761400  0.205500  1
  F  F1861  1  0.738600  0.422300  0.205500  1
  F  F1862  1  0.761400  0.077700  0.205500  1
  F  F1863  1  0.577700  0.261400  0.705500  1
  F  F1864  1  0.922300  0.238600  0.705500  1
  F  F1865  1  0.238600  0.577700  0.705500  1
  F  F1866  1  0.261400  0.922300  0.705500  1
  F  F1867  1  0.922300  0.261400  0.794500  1
  F  F1868  1  0.577700  0.238600  0.794500  1
  F  F1869  1  0.261400  0.577700  0.794500  1
  F  F1870  1  0.238600  0.922300  0.794500  1
  F  F1871  1  0.428900  0.694000  0.232200  1
  F  F1872  1  0.071100  0.806000  0.232200  1
  F  F1873  1  0.806000  0.428900  0.232200  1
  F  F1874  1  0.694000  0.071100  0.232200  1
  F  F1875  1  0.071100  0.694000  0.267800  1
  F  F1876  1  0.428900  0.806000  0.267800  1
  F  F1877  1  0.694000  0.428900  0.267800  1
  F  F1878  1  0.806000  0.071100  0.267800  1
  F  F1879  1  0.571100  0.306000  0.767800  1
  F  F1880  1  0.928900  0.194000  0.767800  1
  F  F1881  1  0.194000  0.571100  0.767800  1
  F  F1882  1  0.306000  0.928900  0.767800  1
  F  F1883  1  0.928900  0.306000  0.732200  1
  F  F1884  1  0.571100  0.194000  0.732200  1
  F  F1885  1  0.306000  0.571100  0.732200  1
  F  F1886  1  0.194000  0.928900  0.732200  1
  F  F1887  1  0.245600  0.242300  0.551300  1
  F  F1888  1  0.254400  0.257700  0.551300  1
  F  F1889  1  0.257700  0.245600  0.551300  1
  F  F1890  1  0.242300  0.254400  0.551300  1
  F  F1891  1  0.254400  0.242300  0.948700  1
  F  F1892  1  0.245600  0.257700  0.948700  1
  F  F1893  1  0.242300  0.245600  0.948700  1
  F  F1894  1  0.257700  0.254400  0.948700  1
  F  F1895  1  0.754400  0.757700  0.448700  1
  F  F1896  1  0.745600  0.742300  0.448700  1
  F  F1897  1  0.742300  0.754400  0.448700  1
  F  F1898  1  0.757700  0.745600  0.448700  1
  F  F1899  1  0.745600  0.757700  0.051300  1
  F  F1900  1  0.754400  0.742300  0.051300  1
  F  F1901  1  0.757700  0.754400  0.051300  1
  F  F1902  1  0.742300  0.745600  0.051300  1
  F  F1903  1  0.310300  0.305200  0.520500  1
  F  F1904  1  0.189700  0.194800  0.520500  1
  F  F1905  1  0.194800  0.310300  0.520500  1
  F  F1906  1  0.305200  0.189700  0.520500  1
  F  F1907  1  0.189700  0.305200  0.979500  1
  F  F1908  1  0.310300  0.194800  0.979500  1
  F  F1909  1  0.305200  0.310300  0.979500  1
  F  F1910  1  0.194800  0.189700  0.979500  1
  F  F1911  1  0.689700  0.694800  0.479500  1
  F  F1912  1  0.810300  0.805200  0.479500  1
  F  F1913  1  0.805200  0.689700  0.479500  1
  F  F1914  1  0.694800  0.810300  0.479500  1
  F  F1915  1  0.810300  0.694800  0.020500  1
  F  F1916  1  0.689700  0.805200  0.020500  1
  F  F1917  1  0.694800  0.689700  0.020500  1
  F  F1918  1  0.805200  0.810300  0.020500  1
  F  F1919  1  0.317100  0.207100  0.508000  1
  F  F1920  1  0.182900  0.292900  0.508000  1
  F  F1921  1  0.292900  0.317100  0.508000  1
  F  F1922  1  0.207100  0.182900  0.508000  1
  F  F1923  1  0.182900  0.207100  0.992000  1
  F  F1924  1  0.317100  0.292900  0.992000  1
  F  F1925  1  0.207100  0.317100  0.992000  1
  F  F1926  1  0.292900  0.182900  0.992000  1
  F  F1927  1  0.682900  0.792900  0.492000  1
  F  F1928  1  0.817100  0.707100  0.492000  1
  F  F1929  1  0.707100  0.682900  0.492000  1
  F  F1930  1  0.792900  0.817100  0.492000  1
  F  F1931  1  0.817100  0.792900  0.008000  1
  F  F1932  1  0.682900  0.707100  0.008000  1
  F  F1933  1  0.792900  0.682900  0.008000  1
  F  F1934  1  0.707100  0.817100  0.008000  1
  F  F1935  1  0.239900  0.258800  0.481900  1
  F  F1936  1  0.260100  0.241200  0.481900  1
  F  F1937  1  0.241200  0.239900  0.481900  1
  F  F1938  1  0.258800  0.260100  0.481900  1
  F  F1939  1  0.260100  0.258800  0.018100  1
  F  F1940  1  0.239900  0.241200  0.018100  1
  F  F1941  1  0.258800  0.239900  0.018100  1
  F  F1942  1  0.241200  0.260100  0.018100  1
  F  F1943  1  0.760100  0.741200  0.518100  1
  F  F1944  1  0.739900  0.758800  0.518100  1
  F  F1945  1  0.758800  0.760100  0.518100  1
  F  F1946  1  0.741200  0.739900  0.518100  1
  F  F1947  1  0.739900  0.741200  0.981900  1
  F  F1948  1  0.760100  0.758800  0.981900  1
  F  F1949  1  0.741200  0.760100  0.981900  1
  F  F1950  1  0.758800  0.739900  0.981900  1
  F  F1951  1  0.243300  0.250500  0.289200  1
  F  F1952  1  0.256700  0.249500  0.289200  1
  F  F1953  1  0.249500  0.243300  0.289200  1
  F  F1954  1  0.250500  0.256700  0.289200  1
  F  F1955  1  0.256700  0.250500  0.210800  1
  F  F1956  1  0.243300  0.249500  0.210800  1
  F  F1957  1  0.250500  0.243300  0.210800  1
  F  F1958  1  0.249500  0.256700  0.210800  1
  F  F1959  1  0.756700  0.749500  0.710800  1
  F  F1960  1  0.743300  0.750500  0.710800  1
  F  F1961  1  0.750500  0.756700  0.710800  1
  F  F1962  1  0.749500  0.743300  0.710800  1
  F  F1963  1  0.743300  0.749500  0.789200  1
  F  F1964  1  0.756700  0.750500  0.789200  1
  F  F1965  1  0.749500  0.756700  0.789200  1
  F  F1966  1  0.750500  0.743300  0.789200  1
  F  F1967  1  0.258000  0.232000  0.221000  1
  F  F1968  1  0.242000  0.268000  0.221000  1
  F  F1969  1  0.268000  0.258000  0.221000  1
  F  F1970  1  0.232000  0.242000  0.221000  1
  F  F1971  1  0.242000  0.232000  0.279000  1
  F  F1972  1  0.258000  0.268000  0.279000  1
  F  F1973  1  0.232000  0.258000  0.279000  1
  F  F1974  1  0.268000  0.242000  0.279000  1
  F  F1975  1  0.742000  0.768000  0.779000  1
  F  F1976  1  0.758000  0.732000  0.779000  1
  F  F1977  1  0.732000  0.742000  0.779000  1
  F  F1978  1  0.768000  0.758000  0.779000  1
  F  F1979  1  0.758000  0.768000  0.721000  1
  F  F1980  1  0.742000  0.732000  0.721000  1
  F  F1981  1  0.768000  0.742000  0.721000  1
  F  F1982  1  0.732000  0.758000  0.721000  1
  F  F1983  1  0.213400  0.317600  0.241000  1
  F  F1984  1  0.286600  0.182400  0.241000  1
  F  F1985  1  0.182400  0.213400  0.241000  1
  F  F1986  1  0.317600  0.286600  0.241000  1
  F  F1987  1  0.286600  0.317600  0.259000  1
  F  F1988  1  0.213400  0.182400  0.259000  1
  F  F1989  1  0.317600  0.213400  0.259000  1
  F  F1990  1  0.182400  0.286600  0.259000  1
  F  F1991  1  0.786600  0.682400  0.759000  1
  F  F1992  1  0.713400  0.817600  0.759000  1
  F  F1993  1  0.817600  0.786600  0.759000  1
  F  F1994  1  0.682400  0.713400  0.759000  1
  F  F1995  1  0.713400  0.682400  0.741000  1
  F  F1996  1  0.786600  0.817600  0.741000  1
  F  F1997  1  0.682400  0.786600  0.741000  1
  F  F1998  1  0.817600  0.713400  0.741000  1
  F  F1999  1  0.311700  0.303800  0.253500  1
  F  F2000  1  0.188300  0.196200  0.253500  1
  F  F2001  1  0.196200  0.311700  0.253500  1
  F  F2002  1  0.303800  0.188300  0.253500  1
  F  F2003  1  0.188300  0.303800  0.246500  1
  F  F2004  1  0.311700  0.196200  0.246500  1
  F  F2005  1  0.303800  0.311700  0.246500  1
  F  F2006  1  0.196200  0.188300  0.246500  1
  F  F2007  1  0.688300  0.696200  0.746500  1
  F  F2008  1  0.811700  0.803800  0.746500  1
  F  F2009  1  0.803800  0.688300  0.746500  1
  F  F2010  1  0.696200  0.811700  0.746500  1
  F  F2011  1  0.811700  0.696200  0.753500  1
  F  F2012  1  0.688300  0.803800  0.753500  1
  F  F2013  1  0.696200  0.688300  0.753500  1
  F  F2014  1  0.803800  0.811700  0.753500  1
  F  F2015  1  0.802000  0.245000  0.251000  1
  F  F2016  1  0.698000  0.255000  0.251000  1
  F  F2017  1  0.255000  0.802000  0.251000  1
  F  F2018  1  0.245000  0.698000  0.251000  1
  F  F2019  1  0.698000  0.245000  0.249000  1
  F  F2020  1  0.802000  0.255000  0.249000  1
  F  F2021  1  0.245000  0.802000  0.249000  1
  F  F2022  1  0.255000  0.698000  0.249000  1
  F  F2023  1  0.198000  0.755000  0.749000  1
  F  F2024  1  0.302000  0.745000  0.749000  1
  F  F2025  1  0.745000  0.198000  0.749000  1
  F  F2026  1  0.755000  0.302000  0.749000  1
  F  F2027  1  0.302000  0.755000  0.751000  1
  F  F2028  1  0.198000  0.745000  0.751000  1
  F  F2029  1  0.755000  0.198000  0.751000  1
  F  F2030  1  0.745000  0.302000  0.751000  1
  F  F2031  1  0.743300  0.239000  0.307100  1
  F  F2032  1  0.756700  0.261000  0.307100  1
  F  F2033  1  0.261000  0.743300  0.307100  1
  F  F2034  1  0.239000  0.756700  0.307100  1
  F  F2035  1  0.756700  0.239000  0.192900  1
  F  F2036  1  0.743300  0.261000  0.192900  1
  F  F2037  1  0.239000  0.743300  0.192900  1
  F  F2038  1  0.261000  0.756700  0.192900  1
  F  F2039  1  0.256700  0.761000  0.692900  1
  F  F2040  1  0.243300  0.739000  0.692900  1
  F  F2041  1  0.739000  0.256700  0.692900  1
  F  F2042  1  0.761000  0.243300  0.692900  1
  F  F2043  1  0.243300  0.761000  0.807100  1
  F  F2044  1  0.256700  0.739000  0.807100  1
  F  F2045  1  0.761000  0.256700  0.807100  1
  F  F2046  1  0.739000  0.243300  0.807100  1
  F  F2047  1  0.740000  0.320900  0.266600  1
  F  F2048  1  0.760000  0.179100  0.266600  1
  F  F2049  1  0.179100  0.740000  0.266600  1
  F  F2050  1  0.320900  0.760000  0.266600  1
  F  F2051  1  0.760000  0.320900  0.233400  1
  F  F2052  1  0.740000  0.179100  0.233400  1
  F  F2053  1  0.320900  0.740000  0.233400  1
  F  F2054  1  0.179100  0.760000  0.233400  1
  F  F2055  1  0.260000  0.679100  0.733400  1
  F  F2056  1  0.240000  0.820900  0.733400  1
  F  F2057  1  0.820900  0.260000  0.733400  1
  F  F2058  1  0.679100  0.240000  0.733400  1
  F  F2059  1  0.240000  0.679100  0.766600  1
  F  F2060  1  0.260000  0.820900  0.766600  1
  F  F2061  1  0.679100  0.260000  0.766600  1
  F  F2062  1  0.820900  0.240000  0.766600  1
  F  F2063  1  0.703000  0.233000  0.243100  1
  F  F2064  1  0.797000  0.267000  0.243100  1
  F  F2065  1  0.267000  0.703000  0.243100  1
  F  F2066  1  0.233000  0.797000  0.243100  1
  F  F2067  1  0.797000  0.233000  0.256900  1
  F  F2068  1  0.703000  0.267000  0.256900  1
  F  F2069  1  0.233000  0.703000  0.256900  1
  F  F2070  1  0.267000  0.797000  0.256900  1
  F  F2071  1  0.297000  0.767000  0.756900  1
  F  F2072  1  0.203000  0.733000  0.756900  1
  F  F2073  1  0.733000  0.297000  0.756900  1
  F  F2074  1  0.767000  0.203000  0.756900  1
  F  F2075  1  0.203000  0.767000  0.743100  1
  F  F2076  1  0.297000  0.733000  0.743100  1
  F  F2077  1  0.767000  0.297000  0.743100  1
  F  F2078  1  0.733000  0.203000  0.743100  1
  F  F2079  1  0.302300  0.747850  0.475980  1.0
  F  F2080  1  0.197700  0.752150  0.475980  1.0
  F  F2081  1  0.752150  0.302300  0.475980  1.0
  F  F2082  1  0.747850  0.197700  0.475980  1.0
  F  F2083  1  0.197700  0.747850  0.024020  1.0
  F  F2084  1  0.302300  0.752150  0.024020  1.0
  F  F2085  1  0.747850  0.302300  0.024020  1.0
  F  F2086  1  0.752150  0.197700  0.024020  1.0
  F  F2087  1  0.697700  0.252150  0.524020  1.0
  F  F2088  1  0.802300  0.247850  0.524020  1.0
  F  F2089  1  0.247850  0.697700  0.524020  1.0
  F  F2090  1  0.252150  0.802300  0.524020  1.0
  F  F2091  1  0.802300  0.252150  0.975980  1.0
  F  F2092  1  0.697700  0.247850  0.975980  1.0
  F  F2093  1  0.252150  0.697700  0.975980  1.0
  F  F2094  1  0.247850  0.802300  0.975980  1.0
