# generated using pymatgen
data_B12H118Pd6C142N24O6F43
_symmetry_space_group_name_H-M   'P 1'
_cell_length_a   25.56040000
_cell_length_b   28.52950000
_cell_length_c   53.94400000
_cell_angle_alpha   90.00000000
_cell_angle_beta   90.00000000
_cell_angle_gamma   90.00000000
_symmetry_Int_Tables_number   1
_chemical_formula_structural   B12H118Pd6C142N24O6F43
_chemical_formula_sum   'B96 H944 Pd48 C1136 N192 O48 F344'
_cell_volume   39337.33669302
_cell_formula_units_Z   8
loop_
 _symmetry_equiv_pos_site_id
 _symmetry_equiv_pos_as_xyz
  1  'x, y, z'
loop_
 _atom_site_type_symbol
 _atom_site_label
 _atom_site_symmetry_multiplicity
 _atom_site_fract_x
 _atom_site_fract_y
 _atom_site_fract_z
 _atom_site_occupancy
  B  B1  1  0.189000  0.381200  0.353800  1
  B  B2  1  0.811000  0.618800  0.353800  1
  B  B3  1  0.811000  0.381200  0.646200  1
  B  B4  1  0.189000  0.618800  0.646200  1
  B  B5  1  0.189000  0.881200  0.853800  1
  B  B6  1  0.811000  0.118800  0.853800  1
  B  B7  1  0.811000  0.881200  0.146200  1
  B  B8  1  0.189000  0.118800  0.146200  1
  B  B9  1  0.689000  0.381200  0.853800  1
  B  B10  1  0.311000  0.618800  0.853800  1
  B  B11  1  0.311000  0.381200  0.146200  1
  B  B12  1  0.689000  0.618800  0.146200  1
  B  B13  1  0.689000  0.881200  0.353800  1
  B  B14  1  0.311000  0.118800  0.353800  1
  B  B15  1  0.311000  0.881200  0.646200  1
  B  B16  1  0.689000  0.118800  0.646200  1
  B  B17  1  0.811000  0.618800  0.646200  1
  B  B18  1  0.189000  0.381200  0.646200  1
  B  B19  1  0.189000  0.618800  0.353800  1
  B  B20  1  0.811000  0.381200  0.353800  1
  B  B21  1  0.811000  0.118800  0.146200  1
  B  B22  1  0.189000  0.881200  0.146200  1
  B  B23  1  0.189000  0.118800  0.853800  1
  B  B24  1  0.811000  0.881200  0.853800  1
  B  B25  1  0.311000  0.618800  0.146200  1
  B  B26  1  0.689000  0.381200  0.146200  1
  B  B27  1  0.689000  0.618800  0.853800  1
  B  B28  1  0.311000  0.381200  0.853800  1
  B  B29  1  0.311000  0.118800  0.646200  1
  B  B30  1  0.689000  0.881200  0.646200  1
  B  B31  1  0.689000  0.118800  0.353800  1
  B  B32  1  0.311000  0.881200  0.353800  1
  B  B33  1  0.000000  0.164400  0.150700  1
  B  B34  1  0.000000  0.835600  0.150700  1
  B  B35  1  0.000000  0.164400  0.849300  1
  B  B36  1  0.000000  0.835600  0.849300  1
  B  B37  1  0.000000  0.664400  0.650700  1
  B  B38  1  0.000000  0.335600  0.650700  1
  B  B39  1  0.000000  0.664400  0.349300  1
  B  B40  1  0.000000  0.335600  0.349300  1
  B  B41  1  0.500000  0.164400  0.650700  1
  B  B42  1  0.500000  0.835600  0.650700  1
  B  B43  1  0.500000  0.164400  0.349300  1
  B  B44  1  0.500000  0.835600  0.349300  1
  B  B45  1  0.500000  0.664400  0.150700  1
  B  B46  1  0.500000  0.335600  0.150700  1
  B  B47  1  0.500000  0.664400  0.849300  1
  B  B48  1  0.500000  0.335600  0.849300  1
  B  B49  1  0.500000  0.187600  0.000000  1
  B  B50  1  0.500000  0.812400  0.000000  1
  B  B51  1  0.500000  0.687600  0.500000  1
  B  B52  1  0.500000  0.312400  0.500000  1
  B  B53  1  0.000000  0.187600  0.500000  1
  B  B54  1  0.000000  0.812400  0.500000  1
  B  B55  1  0.000000  0.687600  0.000000  1
  B  B56  1  0.000000  0.312400  0.000000  1
  B  B57  1  0.000000  0.000000  0.235100  1
  B  B58  1  0.000000  0.000000  0.764900  1
  B  B59  1  0.000000  0.500000  0.735100  1
  B  B60  1  0.000000  0.500000  0.264900  1
  B  B61  1  0.500000  0.000000  0.735100  1
  B  B62  1  0.500000  0.000000  0.264900  1
  B  B63  1  0.500000  0.500000  0.235100  1
  B  B64  1  0.500000  0.500000  0.764900  1
  B  B65  1  0.000000  0.157600  0.402100  1
  B  B66  1  0.000000  0.842400  0.402100  1
  B  B67  1  0.000000  0.157600  0.597900  1
  B  B68  1  0.000000  0.842400  0.597900  1
  B  B69  1  0.000000  0.657600  0.902100  1
  B  B70  1  0.000000  0.342400  0.902100  1
  B  B71  1  0.000000  0.657600  0.097900  1
  B  B72  1  0.000000  0.342400  0.097900  1
  B  B73  1  0.500000  0.157600  0.902100  1
  B  B74  1  0.500000  0.842400  0.902100  1
  B  B75  1  0.500000  0.157600  0.097900  1
  B  B76  1  0.500000  0.842400  0.097900  1
  B  B77  1  0.500000  0.657600  0.402100  1
  B  B78  1  0.500000  0.342400  0.402100  1
  B  B79  1  0.500000  0.657600  0.597900  1
  B  B80  1  0.500000  0.342400  0.597900  1
  B  B81  1  0.000000  0.131000  0.403800  1
  B  B82  1  0.000000  0.869000  0.403800  1
  B  B83  1  0.000000  0.131000  0.596200  1
  B  B84  1  0.000000  0.869000  0.596200  1
  B  B85  1  0.000000  0.631000  0.903800  1
  B  B86  1  0.000000  0.369000  0.903800  1
  B  B87  1  0.000000  0.631000  0.096200  1
  B  B88  1  0.000000  0.369000  0.096200  1
  B  B89  1  0.500000  0.131000  0.903800  1
  B  B90  1  0.500000  0.869000  0.903800  1
  B  B91  1  0.500000  0.131000  0.096200  1
  B  B92  1  0.500000  0.869000  0.096200  1
  B  B93  1  0.500000  0.631000  0.403800  1
  B  B94  1  0.500000  0.369000  0.403800  1
  B  B95  1  0.500000  0.631000  0.596200  1
  B  B96  1  0.500000  0.369000  0.596200  1
  H  H97  1  0.053000  0.000000  0.122500  1
  H  H98  1  0.947000  0.000000  0.122500  1
  H  H99  1  0.947000  0.000000  0.877500  1
  H  H100  1  0.053000  0.000000  0.877500  1
  H  H101  1  0.053000  0.500000  0.622500  1
  H  H102  1  0.947000  0.500000  0.622500  1
  H  H103  1  0.947000  0.500000  0.377500  1
  H  H104  1  0.053000  0.500000  0.377500  1
  H  H105  1  0.553000  0.000000  0.622500  1
  H  H106  1  0.447000  0.000000  0.622500  1
  H  H107  1  0.447000  0.000000  0.377500  1
  H  H108  1  0.553000  0.000000  0.377500  1
  H  H109  1  0.553000  0.500000  0.122500  1
  H  H110  1  0.447000  0.500000  0.122500  1
  H  H111  1  0.447000  0.500000  0.877500  1
  H  H112  1  0.553000  0.500000  0.877500  1
  H  H113  1  0.065400  0.112100  0.464900  1
  H  H114  1  0.934600  0.887900  0.464900  1
  H  H115  1  0.934600  0.112100  0.535100  1
  H  H116  1  0.065400  0.887900  0.535100  1
  H  H117  1  0.065400  0.612100  0.964900  1
  H  H118  1  0.934600  0.387900  0.964900  1
  H  H119  1  0.934600  0.612100  0.035100  1
  H  H120  1  0.065400  0.387900  0.035100  1
  H  H121  1  0.565400  0.112100  0.964900  1
  H  H122  1  0.434600  0.887900  0.964900  1
  H  H123  1  0.434600  0.112100  0.035100  1
  H  H124  1  0.565400  0.887900  0.035100  1
  H  H125  1  0.565400  0.612100  0.464900  1
  H  H126  1  0.434600  0.387900  0.464900  1
  H  H127  1  0.434600  0.612100  0.535100  1
  H  H128  1  0.565400  0.387900  0.535100  1
  H  H129  1  0.934600  0.887900  0.535100  1
  H  H130  1  0.065400  0.112100  0.535100  1
  H  H131  1  0.065400  0.887900  0.464900  1
  H  H132  1  0.934600  0.112100  0.464900  1
  H  H133  1  0.934600  0.387900  0.035100  1
  H  H134  1  0.065400  0.612100  0.035100  1
  H  H135  1  0.065400  0.387900  0.964900  1
  H  H136  1  0.934600  0.612100  0.964900  1
  H  H137  1  0.434600  0.887900  0.035100  1
  H  H138  1  0.565400  0.112100  0.035100  1
  H  H139  1  0.565400  0.887900  0.964900  1
  H  H140  1  0.434600  0.112100  0.964900  1
  H  H141  1  0.434600  0.387900  0.535100  1
  H  H142  1  0.565400  0.612100  0.535100  1
  H  H143  1  0.565400  0.387900  0.464900  1
  H  H144  1  0.434600  0.612100  0.464900  1
  H  H145  1  0.091500  0.036500  0.476900  1
  H  H146  1  0.908500  0.963500  0.476900  1
  H  H147  1  0.908500  0.036500  0.523100  1
  H  H148  1  0.091500  0.963500  0.523100  1
  H  H149  1  0.091500  0.536500  0.976900  1
  H  H150  1  0.908500  0.463500  0.976900  1
  H  H151  1  0.908500  0.536500  0.023100  1
  H  H152  1  0.091500  0.463500  0.023100  1
  H  H153  1  0.591500  0.036500  0.976900  1
  H  H154  1  0.408500  0.963500  0.976900  1
  H  H155  1  0.408500  0.036500  0.023100  1
  H  H156  1  0.591500  0.963500  0.023100  1
  H  H157  1  0.591500  0.536500  0.476900  1
  H  H158  1  0.408500  0.463500  0.476900  1
  H  H159  1  0.408500  0.536500  0.523100  1
  H  H160  1  0.591500  0.463500  0.523100  1
  H  H161  1  0.908500  0.963500  0.523100  1
  H  H162  1  0.091500  0.036500  0.523100  1
  H  H163  1  0.091500  0.963500  0.476900  1
  H  H164  1  0.908500  0.036500  0.476900  1
  H  H165  1  0.908500  0.463500  0.023100  1
  H  H166  1  0.091500  0.536500  0.023100  1
  H  H167  1  0.091500  0.463500  0.976900  1
  H  H168  1  0.908500  0.536500  0.976900  1
  H  H169  1  0.408500  0.963500  0.023100  1
  H  H170  1  0.591500  0.036500  0.023100  1
  H  H171  1  0.591500  0.963500  0.976900  1
  H  H172  1  0.408500  0.036500  0.976900  1
  H  H173  1  0.408500  0.463500  0.523100  1
  H  H174  1  0.591500  0.536500  0.523100  1
  H  H175  1  0.591500  0.463500  0.476900  1
  H  H176  1  0.408500  0.536500  0.476900  1
  H  H177  1  0.232900  0.057300  0.444600  1
  H  H178  1  0.767100  0.942700  0.444600  1
  H  H179  1  0.767100  0.057300  0.555400  1
  H  H180  1  0.232900  0.942700  0.555400  1
  H  H181  1  0.232900  0.557300  0.944600  1
  H  H182  1  0.767100  0.442700  0.944600  1
  H  H183  1  0.767100  0.557300  0.055400  1
  H  H184  1  0.232900  0.442700  0.055400  1
  H  H185  1  0.732900  0.057300  0.944600  1
  H  H186  1  0.267100  0.942700  0.944600  1
  H  H187  1  0.267100  0.057300  0.055400  1
  H  H188  1  0.732900  0.942700  0.055400  1
  H  H189  1  0.732900  0.557300  0.444600  1
  H  H190  1  0.267100  0.442700  0.444600  1
  H  H191  1  0.267100  0.557300  0.555400  1
  H  H192  1  0.732900  0.442700  0.555400  1
  H  H193  1  0.767100  0.942700  0.555400  1
  H  H194  1  0.232900  0.057300  0.555400  1
  H  H195  1  0.232900  0.942700  0.444600  1
  H  H196  1  0.767100  0.057300  0.444600  1
  H  H197  1  0.767100  0.442700  0.055400  1
  H  H198  1  0.232900  0.557300  0.055400  1
  H  H199  1  0.232900  0.442700  0.944600  1
  H  H200  1  0.767100  0.557300  0.944600  1
  H  H201  1  0.267100  0.942700  0.055400  1
  H  H202  1  0.732900  0.057300  0.055400  1
  H  H203  1  0.732900  0.942700  0.944600  1
  H  H204  1  0.267100  0.057300  0.944600  1
  H  H205  1  0.267100  0.442700  0.555400  1
  H  H206  1  0.732900  0.557300  0.555400  1
  H  H207  1  0.732900  0.442700  0.444600  1
  H  H208  1  0.267100  0.557300  0.444600  1
  H  H209  1  0.206900  0.132800  0.432600  1
  H  H210  1  0.793100  0.867200  0.432600  1
  H  H211  1  0.793100  0.132800  0.567400  1
  H  H212  1  0.206900  0.867200  0.567400  1
  H  H213  1  0.206900  0.632800  0.932600  1
  H  H214  1  0.793100  0.367200  0.932600  1
  H  H215  1  0.793100  0.632800  0.067400  1
  H  H216  1  0.206900  0.367200  0.067400  1
  H  H217  1  0.706900  0.132800  0.932600  1
  H  H218  1  0.293100  0.867200  0.932600  1
  H  H219  1  0.293100  0.132800  0.067400  1
  H  H220  1  0.706900  0.867200  0.067400  1
  H  H221  1  0.706900  0.632800  0.432600  1
  H  H222  1  0.293100  0.367200  0.432600  1
  H  H223  1  0.293100  0.632800  0.567400  1
  H  H224  1  0.706900  0.367200  0.567400  1
  H  H225  1  0.793100  0.867200  0.567400  1
  H  H226  1  0.206900  0.132800  0.567400  1
  H  H227  1  0.206900  0.867200  0.432600  1
  H  H228  1  0.793100  0.132800  0.432600  1
  H  H229  1  0.793100  0.367200  0.067400  1
  H  H230  1  0.206900  0.632800  0.067400  1
  H  H231  1  0.206900  0.367200  0.932600  1
  H  H232  1  0.793100  0.632800  0.932600  1
  H  H233  1  0.293100  0.867200  0.067400  1
  H  H234  1  0.706900  0.132800  0.067400  1
  H  H235  1  0.706900  0.867200  0.932600  1
  H  H236  1  0.293100  0.132800  0.932600  1
  H  H237  1  0.293100  0.367200  0.567400  1
  H  H238  1  0.706900  0.632800  0.567400  1
  H  H239  1  0.706900  0.367200  0.432600  1
  H  H240  1  0.293100  0.632800  0.432600  1
  H  H241  1  0.242600  0.971500  0.295100  1
  H  H242  1  0.757400  0.028500  0.295100  1
  H  H243  1  0.757400  0.971500  0.704900  1
  H  H244  1  0.242600  0.028500  0.704900  1
  H  H245  1  0.242600  0.471500  0.795100  1
  H  H246  1  0.757400  0.528500  0.795100  1
  H  H247  1  0.757400  0.471500  0.204900  1
  H  H248  1  0.242600  0.528500  0.204900  1
  H  H249  1  0.742600  0.971500  0.795100  1
  H  H250  1  0.257400  0.028500  0.795100  1
  H  H251  1  0.257400  0.971500  0.204900  1
  H  H252  1  0.742600  0.028500  0.204900  1
  H  H253  1  0.742600  0.471500  0.295100  1
  H  H254  1  0.257400  0.528500  0.295100  1
  H  H255  1  0.257400  0.471500  0.704900  1
  H  H256  1  0.742600  0.528500  0.704900  1
  H  H257  1  0.757400  0.028500  0.704900  1
  H  H258  1  0.242600  0.971500  0.704900  1
  H  H259  1  0.242600  0.028500  0.295100  1
  H  H260  1  0.757400  0.971500  0.295100  1
  H  H261  1  0.757400  0.528500  0.204900  1
  H  H262  1  0.242600  0.471500  0.204900  1
  H  H263  1  0.242600  0.528500  0.795100  1
  H  H264  1  0.757400  0.471500  0.795100  1
  H  H265  1  0.257400  0.028500  0.204900  1
  H  H266  1  0.742600  0.971500  0.204900  1
  H  H267  1  0.742600  0.028500  0.795100  1
  H  H268  1  0.257400  0.971500  0.795100  1
  H  H269  1  0.257400  0.528500  0.704900  1
  H  H270  1  0.742600  0.471500  0.704900  1
  H  H271  1  0.742600  0.528500  0.295100  1
  H  H272  1  0.257400  0.471500  0.295100  1
  H  H273  1  0.244200  0.027600  0.294700  1
  H  H274  1  0.755800  0.972400  0.294700  1
  H  H275  1  0.755800  0.027600  0.705300  1
  H  H276  1  0.244200  0.972400  0.705300  1
  H  H277  1  0.244200  0.527600  0.794700  1
  H  H278  1  0.755800  0.472400  0.794700  1
  H  H279  1  0.755800  0.527600  0.205300  1
  H  H280  1  0.244200  0.472400  0.205300  1
  H  H281  1  0.744200  0.027600  0.794700  1
  H  H282  1  0.255800  0.972400  0.794700  1
  H  H283  1  0.255800  0.027600  0.205300  1
  H  H284  1  0.744200  0.972400  0.205300  1
  H  H285  1  0.744200  0.527600  0.294700  1
  H  H286  1  0.255800  0.472400  0.294700  1
  H  H287  1  0.255800  0.527600  0.705300  1
  H  H288  1  0.744200  0.472400  0.705300  1
  H  H289  1  0.755800  0.972400  0.705300  1
  H  H290  1  0.244200  0.027600  0.705300  1
  H  H291  1  0.244200  0.972400  0.294700  1
  H  H292  1  0.755800  0.027600  0.294700  1
  H  H293  1  0.755800  0.472400  0.205300  1
  H  H294  1  0.244200  0.527600  0.205300  1
  H  H295  1  0.244200  0.472400  0.794700  1
  H  H296  1  0.755800  0.527600  0.794700  1
  H  H297  1  0.255800  0.972400  0.205300  1
  H  H298  1  0.744200  0.027600  0.205300  1
  H  H299  1  0.744200  0.972400  0.794700  1
  H  H300  1  0.255800  0.027600  0.794700  1
  H  H301  1  0.255800  0.472400  0.705300  1
  H  H302  1  0.744200  0.527600  0.705300  1
  H  H303  1  0.744200  0.472400  0.294700  1
  H  H304  1  0.255800  0.527600  0.294700  1
  H  H305  1  0.196700  0.000900  0.308000  1
  H  H306  1  0.803300  0.999100  0.308000  1
  H  H307  1  0.803300  0.000900  0.692000  1
  H  H308  1  0.196700  0.999100  0.692000  1
  H  H309  1  0.196700  0.500900  0.808000  1
  H  H310  1  0.803300  0.499100  0.808000  1
  H  H311  1  0.803300  0.500900  0.192000  1
  H  H312  1  0.196700  0.499100  0.192000  1
  H  H313  1  0.696700  0.000900  0.808000  1
  H  H314  1  0.303300  0.999100  0.808000  1
  H  H315  1  0.303300  0.000900  0.192000  1
  H  H316  1  0.696700  0.999100  0.192000  1
  H  H317  1  0.696700  0.500900  0.308000  1
  H  H318  1  0.303300  0.499100  0.308000  1
  H  H319  1  0.303300  0.500900  0.692000  1
  H  H320  1  0.696700  0.499100  0.692000  1
  H  H321  1  0.803300  0.999100  0.692000  1
  H  H322  1  0.196700  0.000900  0.692000  1
  H  H323  1  0.196700  0.999100  0.308000  1
  H  H324  1  0.803300  0.000900  0.308000  1
  H  H325  1  0.803300  0.499100  0.192000  1
  H  H326  1  0.196700  0.500900  0.192000  1
  H  H327  1  0.196700  0.499100  0.808000  1
  H  H328  1  0.803300  0.500900  0.808000  1
  H  H329  1  0.303300  0.999100  0.192000  1
  H  H330  1  0.696700  0.000900  0.192000  1
  H  H331  1  0.696700  0.999100  0.808000  1
  H  H332  1  0.303300  0.000900  0.808000  1
  H  H333  1  0.303300  0.499100  0.692000  1
  H  H334  1  0.696700  0.500900  0.692000  1
  H  H335  1  0.696700  0.499100  0.308000  1
  H  H336  1  0.303300  0.500900  0.308000  1
  H  H337  1  0.064900  0.294600  0.471700  1.0
  H  H338  1  0.935100  0.705400  0.471700  1.0
  H  H339  1  0.935100  0.294600  0.528300  1.0
  H  H340  1  0.064900  0.705400  0.528300  1.0
  H  H341  1  0.064900  0.794600  0.971700  1.0
  H  H342  1  0.935100  0.205400  0.971700  1.0
  H  H343  1  0.935100  0.794600  0.028300  1.0
  H  H344  1  0.064900  0.205400  0.028300  1.0
  H  H345  1  0.564900  0.294600  0.971700  1.0
  H  H346  1  0.435100  0.705400  0.971700  1.0
  H  H347  1  0.435100  0.294600  0.028300  1.0
  H  H348  1  0.564900  0.705400  0.028300  1.0
  H  H349  1  0.564900  0.794600  0.471700  1.0
  H  H350  1  0.435100  0.205400  0.471700  1.0
  H  H351  1  0.435100  0.794600  0.528300  1.0
  H  H352  1  0.564900  0.205400  0.528300  1.0
  H  H353  1  0.935100  0.705400  0.528300  1.0
  H  H354  1  0.064900  0.294600  0.528300  1.0
  H  H355  1  0.064900  0.705400  0.471700  1.0
  H  H356  1  0.935100  0.294600  0.471700  1.0
  H  H357  1  0.935100  0.205400  0.028300  1.0
  H  H358  1  0.064900  0.794600  0.028300  1.0
  H  H359  1  0.064900  0.205400  0.971700  1.0
  H  H360  1  0.935100  0.794600  0.971700  1.0
  H  H361  1  0.435100  0.705400  0.028300  1.0
  H  H362  1  0.564900  0.294600  0.028300  1.0
  H  H363  1  0.564900  0.705400  0.971700  1.0
  H  H364  1  0.435100  0.294600  0.971700  1.0
  H  H365  1  0.435100  0.205400  0.528300  1.0
  H  H366  1  0.564900  0.794600  0.528300  1.0
  H  H367  1  0.564900  0.205400  0.471700  1.0
  H  H368  1  0.435100  0.794600  0.471700  1.0
  H  H369  1  0.052000  0.362500  0.448200  1.0
  H  H370  1  0.948000  0.637500  0.448200  1.0
  H  H371  1  0.948000  0.362500  0.551800  1.0
  H  H372  1  0.052000  0.637500  0.551800  1.0
  H  H373  1  0.052000  0.862500  0.948200  1.0
  H  H374  1  0.948000  0.137500  0.948200  1.0
  H  H375  1  0.948000  0.862500  0.051800  1.0
  H  H376  1  0.052000  0.137500  0.051800  1.0
  H  H377  1  0.552000  0.362500  0.948200  1.0
  H  H378  1  0.448000  0.637500  0.948200  1.0
  H  H379  1  0.448000  0.362500  0.051800  1.0
  H  H380  1  0.552000  0.637500  0.051800  1.0
  H  H381  1  0.552000  0.862500  0.448200  1.0
  H  H382  1  0.448000  0.137500  0.448200  1.0
  H  H383  1  0.448000  0.862500  0.551800  1.0
  H  H384  1  0.552000  0.137500  0.551800  1.0
  H  H385  1  0.948000  0.637500  0.551800  1.0
  H  H386  1  0.052000  0.362500  0.551800  1.0
  H  H387  1  0.052000  0.637500  0.448200  1.0
  H  H388  1  0.948000  0.362500  0.448200  1.0
  H  H389  1  0.948000  0.137500  0.051800  1.0
  H  H390  1  0.052000  0.862500  0.051800  1.0
  H  H391  1  0.052000  0.137500  0.948200  1.0
  H  H392  1  0.948000  0.862500  0.948200  1.0
  H  H393  1  0.448000  0.637500  0.051800  1.0
  H  H394  1  0.552000  0.362500  0.051800  1.0
  H  H395  1  0.552000  0.637500  0.948200  1.0
  H  H396  1  0.448000  0.362500  0.948200  1.0
  H  H397  1  0.448000  0.137500  0.551800  1.0
  H  H398  1  0.552000  0.862500  0.551800  1.0
  H  H399  1  0.552000  0.137500  0.448200  1.0
  H  H400  1  0.448000  0.862500  0.448200  1.0
  H  H401  1  0.071600  0.362500  0.405800  1.0
  H  H402  1  0.928400  0.637500  0.405800  1.0
  H  H403  1  0.928400  0.362500  0.594200  1.0
  H  H404  1  0.071600  0.637500  0.594200  1.0
  H  H405  1  0.071600  0.862500  0.905800  1.0
  H  H406  1  0.928400  0.137500  0.905800  1.0
  H  H407  1  0.928400  0.862500  0.094200  1.0
  H  H408  1  0.071600  0.137500  0.094200  1.0
  H  H409  1  0.571600  0.362500  0.905800  1.0
  H  H410  1  0.428400  0.637500  0.905800  1.0
  H  H411  1  0.428400  0.362500  0.094200  1.0
  H  H412  1  0.571600  0.637500  0.094200  1.0
  H  H413  1  0.571600  0.862500  0.405800  1.0
  H  H414  1  0.428400  0.137500  0.405800  1.0
  H  H415  1  0.428400  0.862500  0.594200  1.0
  H  H416  1  0.571600  0.137500  0.594200  1.0
  H  H417  1  0.928400  0.637500  0.594200  1.0
  H  H418  1  0.071600  0.362500  0.594200  1.0
  H  H419  1  0.071600  0.637500  0.405800  1.0
  H  H420  1  0.928400  0.362500  0.405800  1.0
  H  H421  1  0.928400  0.137500  0.094200  1.0
  H  H422  1  0.071600  0.862500  0.094200  1.0
  H  H423  1  0.071600  0.137500  0.905800  1.0
  H  H424  1  0.928400  0.862500  0.905800  1.0
  H  H425  1  0.428400  0.637500  0.094200  1.0
  H  H426  1  0.571600  0.362500  0.094200  1.0
  H  H427  1  0.571600  0.637500  0.905800  1.0
  H  H428  1  0.428400  0.362500  0.905800  1.0
  H  H429  1  0.428400  0.137500  0.594200  1.0
  H  H430  1  0.571600  0.862500  0.594200  1.0
  H  H431  1  0.571600  0.137500  0.405800  1.0
  H  H432  1  0.428400  0.862500  0.405800  1.0
  H  H433  1  0.105200  0.305700  0.366300  1.0
  H  H434  1  0.894800  0.694300  0.366300  1.0
  H  H435  1  0.894800  0.305700  0.633700  1.0
  H  H436  1  0.105200  0.694300  0.633700  1.0
  H  H437  1  0.105200  0.805700  0.866300  1.0
  H  H438  1  0.894800  0.194300  0.866300  1.0
  H  H439  1  0.894800  0.805700  0.133700  1.0
  H  H440  1  0.105200  0.194300  0.133700  1.0
  H  H441  1  0.605200  0.305700  0.866300  1.0
  H  H442  1  0.394800  0.694300  0.866300  1.0
  H  H443  1  0.394800  0.305700  0.133700  1.0
  H  H444  1  0.605200  0.694300  0.133700  1.0
  H  H445  1  0.605200  0.805700  0.366300  1.0
  H  H446  1  0.394800  0.194300  0.366300  1.0
  H  H447  1  0.394800  0.805700  0.633700  1.0
  H  H448  1  0.605200  0.194300  0.633700  1.0
  H  H449  1  0.894800  0.694300  0.633700  1.0
  H  H450  1  0.105200  0.305700  0.633700  1.0
  H  H451  1  0.105200  0.694300  0.366300  1.0
  H  H452  1  0.894800  0.305700  0.366300  1.0
  H  H453  1  0.894800  0.194300  0.133700  1.0
  H  H454  1  0.105200  0.805700  0.133700  1.0
  H  H455  1  0.105200  0.194300  0.866300  1.0
  H  H456  1  0.894800  0.805700  0.866300  1.0
  H  H457  1  0.394800  0.694300  0.133700  1.0
  H  H458  1  0.605200  0.305700  0.133700  1.0
  H  H459  1  0.605200  0.694300  0.866300  1.0
  H  H460  1  0.394800  0.305700  0.866300  1.0
  H  H461  1  0.394800  0.194300  0.633700  1.0
  H  H462  1  0.605200  0.805700  0.633700  1.0
  H  H463  1  0.605200  0.194300  0.366300  1.0
  H  H464  1  0.394800  0.805700  0.366300  1.0
  H  H465  1  0.082100  0.263500  0.331800  1.0
  H  H466  1  0.917900  0.736500  0.331800  1.0
  H  H467  1  0.917900  0.263500  0.668200  1.0
  H  H468  1  0.082100  0.736500  0.668200  1.0
  H  H469  1  0.082100  0.763500  0.831800  1.0
  H  H470  1  0.917900  0.236500  0.831800  1.0
  H  H471  1  0.917900  0.763500  0.168200  1.0
  H  H472  1  0.082100  0.236500  0.168200  1.0
  H  H473  1  0.582100  0.263500  0.831800  1.0
  H  H474  1  0.417900  0.736500  0.831800  1.0
  H  H475  1  0.417900  0.263500  0.168200  1.0
  H  H476  1  0.582100  0.736500  0.168200  1.0
  H  H477  1  0.582100  0.763500  0.331800  1.0
  H  H478  1  0.417900  0.236500  0.331800  1.0
  H  H479  1  0.417900  0.763500  0.668200  1.0
  H  H480  1  0.582100  0.236500  0.668200  1.0
  H  H481  1  0.917900  0.736500  0.668200  1.0
  H  H482  1  0.082100  0.263500  0.668200  1.0
  H  H483  1  0.082100  0.736500  0.331800  1.0
  H  H484  1  0.917900  0.263500  0.331800  1.0
  H  H485  1  0.917900  0.236500  0.168200  1.0
  H  H486  1  0.082100  0.763500  0.168200  1.0
  H  H487  1  0.082100  0.236500  0.831800  1.0
  H  H488  1  0.917900  0.763500  0.831800  1.0
  H  H489  1  0.417900  0.736500  0.168200  1.0
  H  H490  1  0.582100  0.263500  0.168200  1.0
  H  H491  1  0.582100  0.736500  0.831800  1.0
  H  H492  1  0.417900  0.263500  0.831800  1.0
  H  H493  1  0.417900  0.236500  0.668200  1.0
  H  H494  1  0.582100  0.763500  0.668200  1.0
  H  H495  1  0.582100  0.236500  0.331800  1.0
  H  H496  1  0.417900  0.763500  0.331800  1.0
  H  H497  1  0.107400  0.244800  0.290700  1.0
  H  H498  1  0.892600  0.755200  0.290700  1.0
  H  H499  1  0.892600  0.244800  0.709300  1.0
  H  H500  1  0.107400  0.755200  0.709300  1.0
  H  H501  1  0.107400  0.744800  0.790700  1.0
  H  H502  1  0.892600  0.255200  0.790700  1.0
  H  H503  1  0.892600  0.744800  0.209300  1.0
  H  H504  1  0.107400  0.255200  0.209300  1.0
  H  H505  1  0.607400  0.244800  0.790700  1.0
  H  H506  1  0.392600  0.755200  0.790700  1.0
  H  H507  1  0.392600  0.244800  0.209300  1.0
  H  H508  1  0.607400  0.755200  0.209300  1.0
  H  H509  1  0.607400  0.744800  0.290700  1.0
  H  H510  1  0.392600  0.255200  0.290700  1.0
  H  H511  1  0.392600  0.744800  0.709300  1.0
  H  H512  1  0.607400  0.255200  0.709300  1.0
  H  H513  1  0.892600  0.755200  0.709300  1.0
  H  H514  1  0.107400  0.244800  0.709300  1.0
  H  H515  1  0.107400  0.755200  0.290700  1.0
  H  H516  1  0.892600  0.244800  0.290700  1.0
  H  H517  1  0.892600  0.255200  0.209300  1.0
  H  H518  1  0.107400  0.744800  0.209300  1.0
  H  H519  1  0.107400  0.255200  0.790700  1.0
  H  H520  1  0.892600  0.744800  0.790700  1.0
  H  H521  1  0.392600  0.755200  0.209300  1.0
  H  H522  1  0.607400  0.244800  0.209300  1.0
  H  H523  1  0.607400  0.755200  0.790700  1.0
  H  H524  1  0.392600  0.244800  0.790700  1.0
  H  H525  1  0.392600  0.255200  0.709300  1.0
  H  H526  1  0.607400  0.744800  0.709300  1.0
  H  H527  1  0.607400  0.255200  0.290700  1.0
  H  H528  1  0.392600  0.744800  0.290700  1.0
  H  H529  1  0.238600  0.185800  0.318200  1.0
  H  H530  1  0.761400  0.814200  0.318200  1.0
  H  H531  1  0.761400  0.185800  0.681800  1.0
  H  H532  1  0.238600  0.814200  0.681800  1.0
  H  H533  1  0.238600  0.685800  0.818200  1.0
  H  H534  1  0.761400  0.314200  0.818200  1.0
  H  H535  1  0.761400  0.685800  0.181800  1.0
  H  H536  1  0.238600  0.314200  0.181800  1.0
  H  H537  1  0.738600  0.185800  0.818200  1.0
  H  H538  1  0.261400  0.814200  0.818200  1.0
  H  H539  1  0.261400  0.185800  0.181800  1.0
  H  H540  1  0.738600  0.814200  0.181800  1.0
  H  H541  1  0.738600  0.685800  0.318200  1.0
  H  H542  1  0.261400  0.314200  0.318200  1.0
  H  H543  1  0.261400  0.685800  0.681800  1.0
  H  H544  1  0.738600  0.314200  0.681800  1.0
  H  H545  1  0.761400  0.814200  0.681800  1.0
  H  H546  1  0.238600  0.185800  0.681800  1.0
  H  H547  1  0.238600  0.814200  0.318200  1.0
  H  H548  1  0.761400  0.185800  0.318200  1.0
  H  H549  1  0.761400  0.314200  0.181800  1.0
  H  H550  1  0.238600  0.685800  0.181800  1.0
  H  H551  1  0.238600  0.314200  0.818200  1.0
  H  H552  1  0.761400  0.685800  0.818200  1.0
  H  H553  1  0.261400  0.814200  0.181800  1.0
  H  H554  1  0.738600  0.185800  0.181800  1.0
  H  H555  1  0.738600  0.814200  0.818200  1.0
  H  H556  1  0.261400  0.185800  0.818200  1.0
  H  H557  1  0.261400  0.314200  0.681800  1.0
  H  H558  1  0.738600  0.685800  0.681800  1.0
  H  H559  1  0.738600  0.314200  0.318200  1.0
  H  H560  1  0.261400  0.685800  0.318200  1.0
  H  H561  1  0.213500  0.203800  0.358800  1.0
  H  H562  1  0.786500  0.796200  0.358800  1.0
  H  H563  1  0.786500  0.203800  0.641200  1.0
  H  H564  1  0.213500  0.796200  0.641200  1.0
  H  H565  1  0.213500  0.703800  0.858800  1.0
  H  H566  1  0.786500  0.296200  0.858800  1.0
  H  H567  1  0.786500  0.703800  0.141200  1.0
  H  H568  1  0.213500  0.296200  0.141200  1.0
  H  H569  1  0.713500  0.203800  0.858800  1.0
  H  H570  1  0.286500  0.796200  0.858800  1.0
  H  H571  1  0.286500  0.203800  0.141200  1.0
  H  H572  1  0.713500  0.796200  0.141200  1.0
  H  H573  1  0.713500  0.703800  0.358800  1.0
  H  H574  1  0.286500  0.296200  0.358800  1.0
  H  H575  1  0.286500  0.703800  0.641200  1.0
  H  H576  1  0.713500  0.296200  0.641200  1.0
  H  H577  1  0.786500  0.796200  0.641200  1.0
  H  H578  1  0.213500  0.203800  0.641200  1.0
  H  H579  1  0.213500  0.796200  0.358800  1.0
  H  H580  1  0.786500  0.203800  0.358800  1.0
  H  H581  1  0.786500  0.296200  0.141200  1.0
  H  H582  1  0.213500  0.703800  0.141200  1.0
  H  H583  1  0.213500  0.296200  0.858800  1.0
  H  H584  1  0.786500  0.703800  0.858800  1.0
  H  H585  1  0.286500  0.796200  0.141200  1.0
  H  H586  1  0.713500  0.203800  0.141200  1.0
  H  H587  1  0.713500  0.796200  0.858800  1.0
  H  H588  1  0.286500  0.203800  0.858800  1.0
  H  H589  1  0.286500  0.296200  0.641200  1.0
  H  H590  1  0.713500  0.703800  0.641200  1.0
  H  H591  1  0.713500  0.296200  0.358800  1.0
  H  H592  1  0.286500  0.703800  0.358800  1.0
  H  H593  1  0.135600  0.138300  0.287900  1.0
  H  H594  1  0.864400  0.861700  0.287900  1.0
  H  H595  1  0.864400  0.138300  0.712100  1.0
  H  H596  1  0.135600  0.861700  0.712100  1.0
  H  H597  1  0.135600  0.638300  0.787900  1.0
  H  H598  1  0.864400  0.361700  0.787900  1.0
  H  H599  1  0.864400  0.638300  0.212100  1.0
  H  H600  1  0.135600  0.361700  0.212100  1.0
  H  H601  1  0.635600  0.138300  0.787900  1.0
  H  H602  1  0.364400  0.861700  0.787900  1.0
  H  H603  1  0.364400  0.138300  0.212100  1.0
  H  H604  1  0.635600  0.861700  0.212100  1.0
  H  H605  1  0.635600  0.638300  0.287900  1.0
  H  H606  1  0.364400  0.361700  0.287900  1.0
  H  H607  1  0.364400  0.638300  0.712100  1.0
  H  H608  1  0.635600  0.361700  0.712100  1.0
  H  H609  1  0.864400  0.861700  0.712100  1.0
  H  H610  1  0.135600  0.138300  0.712100  1.0
  H  H611  1  0.135600  0.861700  0.287900  1.0
  H  H612  1  0.864400  0.138300  0.287900  1.0
  H  H613  1  0.864400  0.361700  0.212100  1.0
  H  H614  1  0.135600  0.638300  0.212100  1.0
  H  H615  1  0.135600  0.361700  0.787900  1.0
  H  H616  1  0.864400  0.638300  0.787900  1.0
  H  H617  1  0.364400  0.861700  0.212100  1.0
  H  H618  1  0.635600  0.138300  0.212100  1.0
  H  H619  1  0.635600  0.861700  0.787900  1.0
  H  H620  1  0.364400  0.138300  0.787900  1.0
  H  H621  1  0.364400  0.361700  0.712100  1.0
  H  H622  1  0.635600  0.638300  0.712100  1.0
  H  H623  1  0.635600  0.361700  0.287900  1.0
  H  H624  1  0.364400  0.638300  0.287900  1.0
  H  H625  1  0.107400  0.077300  0.259700  1.0
  H  H626  1  0.892600  0.922700  0.259700  1.0
  H  H627  1  0.892600  0.077300  0.740300  1.0
  H  H628  1  0.107400  0.922700  0.740300  1.0
  H  H629  1  0.107400  0.577300  0.759700  1.0
  H  H630  1  0.892600  0.422700  0.759700  1.0
  H  H631  1  0.892600  0.577300  0.240300  1.0
  H  H632  1  0.107400  0.422700  0.240300  1.0
  H  H633  1  0.607400  0.077300  0.759700  1.0
  H  H634  1  0.392600  0.922700  0.759700  1.0
  H  H635  1  0.392600  0.077300  0.240300  1.0
  H  H636  1  0.607400  0.922700  0.240300  1.0
  H  H637  1  0.607400  0.577300  0.259700  1.0
  H  H638  1  0.392600  0.422700  0.259700  1.0
  H  H639  1  0.392600  0.577300  0.740300  1.0
  H  H640  1  0.607400  0.422700  0.740300  1.0
  H  H641  1  0.892600  0.922700  0.740300  1.0
  H  H642  1  0.107400  0.077300  0.740300  1.0
  H  H643  1  0.107400  0.922700  0.259700  1.0
  H  H644  1  0.892600  0.077300  0.259700  1.0
  H  H645  1  0.892600  0.422700  0.240300  1.0
  H  H646  1  0.107400  0.577300  0.240300  1.0
  H  H647  1  0.107400  0.422700  0.759700  1.0
  H  H648  1  0.892600  0.577300  0.759700  1.0
  H  H649  1  0.392600  0.922700  0.240300  1.0
  H  H650  1  0.607400  0.077300  0.240300  1.0
  H  H651  1  0.607400  0.922700  0.759700  1.0
  H  H652  1  0.392600  0.077300  0.759700  1.0
  H  H653  1  0.392600  0.422700  0.740300  1.0
  H  H654  1  0.607400  0.577300  0.740300  1.0
  H  H655  1  0.607400  0.422700  0.259700  1.0
  H  H656  1  0.392600  0.577300  0.259700  1.0
  H  H657  1  0.179900  0.145400  0.204500  1.0
  H  H658  1  0.820100  0.854600  0.204500  1.0
  H  H659  1  0.820100  0.145400  0.795500  1.0
  H  H660  1  0.179900  0.854600  0.795500  1.0
  H  H661  1  0.179900  0.645400  0.704500  1.0
  H  H662  1  0.820100  0.354600  0.704500  1.0
  H  H663  1  0.820100  0.645400  0.295500  1.0
  H  H664  1  0.179900  0.354600  0.295500  1.0
  H  H665  1  0.679900  0.145400  0.704500  1.0
  H  H666  1  0.320100  0.854600  0.704500  1.0
  H  H667  1  0.320100  0.145400  0.295500  1.0
  H  H668  1  0.679900  0.854600  0.295500  1.0
  H  H669  1  0.679900  0.645400  0.204500  1.0
  H  H670  1  0.320100  0.354600  0.204500  1.0
  H  H671  1  0.320100  0.645400  0.795500  1.0
  H  H672  1  0.679900  0.354600  0.795500  1.0
  H  H673  1  0.820100  0.854600  0.795500  1.0
  H  H674  1  0.179900  0.145400  0.795500  1.0
  H  H675  1  0.179900  0.854600  0.204500  1.0
  H  H676  1  0.820100  0.145400  0.204500  1.0
  H  H677  1  0.820100  0.354600  0.295500  1.0
  H  H678  1  0.179900  0.645400  0.295500  1.0
  H  H679  1  0.179900  0.354600  0.704500  1.0
  H  H680  1  0.820100  0.645400  0.704500  1.0
  H  H681  1  0.320100  0.854600  0.295500  1.0
  H  H682  1  0.679900  0.145400  0.295500  1.0
  H  H683  1  0.679900  0.854600  0.704500  1.0
  H  H684  1  0.320100  0.145400  0.704500  1.0
  H  H685  1  0.320100  0.354600  0.795500  1.0
  H  H686  1  0.679900  0.645400  0.795500  1.0
  H  H687  1  0.679900  0.354600  0.204500  1.0
  H  H688  1  0.320100  0.645400  0.204500  1.0
  H  H689  1  0.203200  0.204700  0.231500  1.0
  H  H690  1  0.796800  0.795300  0.231500  1.0
  H  H691  1  0.796800  0.204700  0.768500  1.0
  H  H692  1  0.203200  0.795300  0.768500  1.0
  H  H693  1  0.203200  0.704700  0.731500  1.0
  H  H694  1  0.796800  0.295300  0.731500  1.0
  H  H695  1  0.796800  0.704700  0.268500  1.0
  H  H696  1  0.203200  0.295300  0.268500  1.0
  H  H697  1  0.703200  0.204700  0.731500  1.0
  H  H698  1  0.296800  0.795300  0.731500  1.0
  H  H699  1  0.296800  0.204700  0.268500  1.0
  H  H700  1  0.703200  0.795300  0.268500  1.0
  H  H701  1  0.703200  0.704700  0.231500  1.0
  H  H702  1  0.296800  0.295300  0.231500  1.0
  H  H703  1  0.296800  0.704700  0.768500  1.0
  H  H704  1  0.703200  0.295300  0.768500  1.0
  H  H705  1  0.796800  0.795300  0.768500  1.0
  H  H706  1  0.203200  0.204700  0.768500  1.0
  H  H707  1  0.203200  0.795300  0.231500  1.0
  H  H708  1  0.796800  0.204700  0.231500  1.0
  H  H709  1  0.796800  0.295300  0.268500  1.0
  H  H710  1  0.203200  0.704700  0.268500  1.0
  H  H711  1  0.203200  0.295300  0.731500  1.0
  H  H712  1  0.796800  0.704700  0.731500  1.0
  H  H713  1  0.296800  0.795300  0.268500  1.0
  H  H714  1  0.703200  0.204700  0.268500  1.0
  H  H715  1  0.703200  0.795300  0.731500  1.0
  H  H716  1  0.296800  0.204700  0.731500  1.0
  H  H717  1  0.296800  0.295300  0.768500  1.0
  H  H718  1  0.703200  0.704700  0.768500  1.0
  H  H719  1  0.703200  0.295300  0.231500  1.0
  H  H720  1  0.296800  0.704700  0.231500  1.0
  H  H721  1  0.099200  0.114600  0.187200  1.0
  H  H722  1  0.900800  0.885400  0.187200  1.0
  H  H723  1  0.900800  0.114600  0.812800  1.0
  H  H724  1  0.099200  0.885400  0.812800  1.0
  H  H725  1  0.099200  0.614600  0.687200  1.0
  H  H726  1  0.900800  0.385400  0.687200  1.0
  H  H727  1  0.900800  0.614600  0.312800  1.0
  H  H728  1  0.099200  0.385400  0.312800  1.0
  H  H729  1  0.599200  0.114600  0.687200  1.0
  H  H730  1  0.400800  0.885400  0.687200  1.0
  H  H731  1  0.400800  0.114600  0.312800  1.0
  H  H732  1  0.599200  0.885400  0.312800  1.0
  H  H733  1  0.599200  0.614600  0.187200  1.0
  H  H734  1  0.400800  0.385400  0.187200  1.0
  H  H735  1  0.400800  0.614600  0.812800  1.0
  H  H736  1  0.599200  0.385400  0.812800  1.0
  H  H737  1  0.900800  0.885400  0.812800  1.0
  H  H738  1  0.099200  0.114600  0.812800  1.0
  H  H739  1  0.099200  0.885400  0.187200  1.0
  H  H740  1  0.900800  0.114600  0.187200  1.0
  H  H741  1  0.900800  0.385400  0.312800  1.0
  H  H742  1  0.099200  0.614600  0.312800  1.0
  H  H743  1  0.099200  0.385400  0.687200  1.0
  H  H744  1  0.900800  0.614600  0.687200  1.0
  H  H745  1  0.400800  0.885400  0.312800  1.0
  H  H746  1  0.599200  0.114600  0.312800  1.0
  H  H747  1  0.599200  0.885400  0.687200  1.0
  H  H748  1  0.400800  0.114600  0.687200  1.0
  H  H749  1  0.400800  0.385400  0.812800  1.0
  H  H750  1  0.599200  0.614600  0.812800  1.0
  H  H751  1  0.599200  0.385400  0.187200  1.0
  H  H752  1  0.400800  0.614600  0.187200  1.0
  H  H753  1  0.064800  0.072000  0.143700  1.0
  H  H754  1  0.935200  0.928000  0.143700  1.0
  H  H755  1  0.935200  0.072000  0.856300  1.0
  H  H756  1  0.064800  0.928000  0.856300  1.0
  H  H757  1  0.064800  0.572000  0.643700  1.0
  H  H758  1  0.935200  0.428000  0.643700  1.0
  H  H759  1  0.935200  0.572000  0.356300  1.0
  H  H760  1  0.064800  0.428000  0.356300  1.0
  H  H761  1  0.564800  0.072000  0.643700  1.0
  H  H762  1  0.435200  0.928000  0.643700  1.0
  H  H763  1  0.435200  0.072000  0.356300  1.0
  H  H764  1  0.564800  0.928000  0.356300  1.0
  H  H765  1  0.564800  0.572000  0.143700  1.0
  H  H766  1  0.435200  0.428000  0.143700  1.0
  H  H767  1  0.435200  0.572000  0.856300  1.0
  H  H768  1  0.564800  0.428000  0.856300  1.0
  H  H769  1  0.935200  0.928000  0.856300  1.0
  H  H770  1  0.064800  0.072000  0.856300  1.0
  H  H771  1  0.064800  0.928000  0.143700  1.0
  H  H772  1  0.935200  0.072000  0.143700  1.0
  H  H773  1  0.935200  0.428000  0.356300  1.0
  H  H774  1  0.064800  0.572000  0.356300  1.0
  H  H775  1  0.064800  0.428000  0.643700  1.0
  H  H776  1  0.935200  0.572000  0.643700  1.0
  H  H777  1  0.435200  0.928000  0.356300  1.0
  H  H778  1  0.564800  0.072000  0.356300  1.0
  H  H779  1  0.564800  0.928000  0.643700  1.0
  H  H780  1  0.435200  0.072000  0.643700  1.0
  H  H781  1  0.435200  0.428000  0.856300  1.0
  H  H782  1  0.564800  0.572000  0.856300  1.0
  H  H783  1  0.564800  0.428000  0.143700  1.0
  H  H784  1  0.435200  0.572000  0.143700  1.0
  H  H785  1  0.099100  0.093500  0.420100  1.0
  H  H786  1  0.900900  0.906500  0.420100  1.0
  H  H787  1  0.900900  0.093500  0.579900  1.0
  H  H788  1  0.099100  0.906500  0.579900  1.0
  H  H789  1  0.099100  0.593500  0.920100  1.0
  H  H790  1  0.900900  0.406500  0.920100  1.0
  H  H791  1  0.900900  0.593500  0.079900  1.0
  H  H792  1  0.099100  0.406500  0.079900  1.0
  H  H793  1  0.599100  0.093500  0.920100  1.0
  H  H794  1  0.400900  0.906500  0.920100  1.0
  H  H795  1  0.400900  0.093500  0.079900  1.0
  H  H796  1  0.599100  0.906500  0.079900  1.0
  H  H797  1  0.599100  0.593500  0.420100  1.0
  H  H798  1  0.400900  0.406500  0.420100  1.0
  H  H799  1  0.400900  0.593500  0.579900  1.0
  H  H800  1  0.599100  0.406500  0.579900  1.0
  H  H801  1  0.900900  0.906500  0.579900  1.0
  H  H802  1  0.099100  0.093500  0.579900  1.0
  H  H803  1  0.099100  0.906500  0.420100  1.0
  H  H804  1  0.900900  0.093500  0.420100  1.0
  H  H805  1  0.900900  0.406500  0.079900  1.0
  H  H806  1  0.099100  0.593500  0.079900  1.0
  H  H807  1  0.099100  0.406500  0.920100  1.0
  H  H808  1  0.900900  0.593500  0.920100  1.0
  H  H809  1  0.400900  0.906500  0.079900  1.0
  H  H810  1  0.599100  0.093500  0.079900  1.0
  H  H811  1  0.599100  0.906500  0.920100  1.0
  H  H812  1  0.400900  0.093500  0.920100  1.0
  H  H813  1  0.400900  0.406500  0.579900  1.0
  H  H814  1  0.599100  0.593500  0.579900  1.0
  H  H815  1  0.599100  0.406500  0.420100  1.0
  H  H816  1  0.400900  0.593500  0.420100  1.0
  H  H817  1  0.126100  0.019200  0.433200  1.0
  H  H818  1  0.873900  0.980800  0.433200  1.0
  H  H819  1  0.873900  0.019200  0.566800  1.0
  H  H820  1  0.126100  0.980800  0.566800  1.0
  H  H821  1  0.126100  0.519200  0.933200  1.0
  H  H822  1  0.873900  0.480800  0.933200  1.0
  H  H823  1  0.873900  0.519200  0.066800  1.0
  H  H824  1  0.126100  0.480800  0.066800  1.0
  H  H825  1  0.626100  0.019200  0.933200  1.0
  H  H826  1  0.373900  0.980800  0.933200  1.0
  H  H827  1  0.373900  0.019200  0.066800  1.0
  H  H828  1  0.626100  0.980800  0.066800  1.0
  H  H829  1  0.626100  0.519200  0.433200  1.0
  H  H830  1  0.373900  0.480800  0.433200  1.0
  H  H831  1  0.373900  0.519200  0.566800  1.0
  H  H832  1  0.626100  0.480800  0.566800  1.0
  H  H833  1  0.873900  0.980800  0.566800  1.0
  H  H834  1  0.126100  0.019200  0.566800  1.0
  H  H835  1  0.126100  0.980800  0.433200  1.0
  H  H836  1  0.873900  0.019200  0.433200  1.0
  H  H837  1  0.873900  0.480800  0.066800  1.0
  H  H838  1  0.126100  0.519200  0.066800  1.0
  H  H839  1  0.126100  0.480800  0.933200  1.0
  H  H840  1  0.873900  0.519200  0.933200  1.0
  H  H841  1  0.373900  0.980800  0.066800  1.0
  H  H842  1  0.626100  0.019200  0.066800  1.0
  H  H843  1  0.626100  0.980800  0.933200  1.0
  H  H844  1  0.373900  0.019200  0.933200  1.0
  H  H845  1  0.373900  0.480800  0.566800  1.0
  H  H846  1  0.626100  0.519200  0.566800  1.0
  H  H847  1  0.626100  0.480800  0.433200  1.0
  H  H848  1  0.373900  0.519200  0.433200  1.0
  H  H849  1  0.201100  0.077900  0.491600  1.0
  H  H850  1  0.798900  0.922100  0.491600  1.0
  H  H851  1  0.798900  0.077900  0.508400  1.0
  H  H852  1  0.201100  0.922100  0.508400  1.0
  H  H853  1  0.201100  0.577900  0.991600  1.0
  H  H854  1  0.798900  0.422100  0.991600  1.0
  H  H855  1  0.798900  0.577900  0.008400  1.0
  H  H856  1  0.201100  0.422100  0.008400  1.0
  H  H857  1  0.701100  0.077900  0.991600  1.0
  H  H858  1  0.298900  0.922100  0.991600  1.0
  H  H859  1  0.298900  0.077900  0.008400  1.0
  H  H860  1  0.701100  0.922100  0.008400  1.0
  H  H861  1  0.701100  0.577900  0.491600  1.0
  H  H862  1  0.298900  0.422100  0.491600  1.0
  H  H863  1  0.298900  0.577900  0.508400  1.0
  H  H864  1  0.701100  0.422100  0.508400  1.0
  H  H865  1  0.798900  0.922100  0.508400  1.0
  H  H866  1  0.201100  0.077900  0.508400  1.0
  H  H867  1  0.201100  0.922100  0.491600  1.0
  H  H868  1  0.798900  0.077900  0.491600  1.0
  H  H869  1  0.798900  0.422100  0.008400  1.0
  H  H870  1  0.201100  0.577900  0.008400  1.0
  H  H871  1  0.201100  0.422100  0.991600  1.0
  H  H872  1  0.798900  0.577900  0.991600  1.0
  H  H873  1  0.298900  0.922100  0.008400  1.0
  H  H874  1  0.701100  0.077900  0.008400  1.0
  H  H875  1  0.701100  0.922100  0.991600  1.0
  H  H876  1  0.298900  0.077900  0.991600  1.0
  H  H877  1  0.298900  0.422100  0.508400  1.0
  H  H878  1  0.701100  0.577900  0.508400  1.0
  H  H879  1  0.701100  0.422100  0.491600  1.0
  H  H880  1  0.298900  0.577900  0.491600  1.0
  H  H881  1  0.174100  0.152200  0.478500  1.0
  H  H882  1  0.825900  0.847800  0.478500  1.0
  H  H883  1  0.825900  0.152200  0.521500  1.0
  H  H884  1  0.174100  0.847800  0.521500  1.0
  H  H885  1  0.174100  0.652200  0.978500  1.0
  H  H886  1  0.825900  0.347800  0.978500  1.0
  H  H887  1  0.825900  0.652200  0.021500  1.0
  H  H888  1  0.174100  0.347800  0.021500  1.0
  H  H889  1  0.674100  0.152200  0.978500  1.0
  H  H890  1  0.325900  0.847800  0.978500  1.0
  H  H891  1  0.325900  0.152200  0.021500  1.0
  H  H892  1  0.674100  0.847800  0.021500  1.0
  H  H893  1  0.674100  0.652200  0.478500  1.0
  H  H894  1  0.325900  0.347800  0.478500  1.0
  H  H895  1  0.325900  0.652200  0.521500  1.0
  H  H896  1  0.674100  0.347800  0.521500  1.0
  H  H897  1  0.825900  0.847800  0.521500  1.0
  H  H898  1  0.174100  0.152200  0.521500  1.0
  H  H899  1  0.174100  0.847800  0.478500  1.0
  H  H900  1  0.825900  0.152200  0.478500  1.0
  H  H901  1  0.825900  0.347800  0.021500  1.0
  H  H902  1  0.174100  0.652200  0.021500  1.0
  H  H903  1  0.174100  0.347800  0.978500  1.0
  H  H904  1  0.825900  0.652200  0.978500  1.0
  H  H905  1  0.325900  0.847800  0.021500  1.0
  H  H906  1  0.674100  0.152200  0.021500  1.0
  H  H907  1  0.674100  0.847800  0.978500  1.0
  H  H908  1  0.325900  0.152200  0.978500  1.0
  H  H909  1  0.325900  0.347800  0.521500  1.0
  H  H910  1  0.674100  0.652200  0.521500  1.0
  H  H911  1  0.674100  0.347800  0.478500  1.0
  H  H912  1  0.325900  0.652200  0.478500  1.0
  H  H913  1  0.092900  0.200700  0.469600  1.0
  H  H914  1  0.907100  0.799300  0.469600  1.0
  H  H915  1  0.907100  0.200700  0.530400  1.0
  H  H916  1  0.092900  0.799300  0.530400  1.0
  H  H917  1  0.092900  0.700700  0.969600  1.0
  H  H918  1  0.907100  0.299300  0.969600  1.0
  H  H919  1  0.907100  0.700700  0.030400  1.0
  H  H920  1  0.092900  0.299300  0.030400  1.0
  H  H921  1  0.592900  0.200700  0.969600  1.0
  H  H922  1  0.407100  0.799300  0.969600  1.0
  H  H923  1  0.407100  0.200700  0.030400  1.0
  H  H924  1  0.592900  0.799300  0.030400  1.0
  H  H925  1  0.592900  0.700700  0.469600  1.0
  H  H926  1  0.407100  0.299300  0.469600  1.0
  H  H927  1  0.407100  0.700700  0.530400  1.0
  H  H928  1  0.592900  0.299300  0.530400  1.0
  H  H929  1  0.907100  0.799300  0.530400  1.0
  H  H930  1  0.092900  0.200700  0.530400  1.0
  H  H931  1  0.092900  0.799300  0.469600  1.0
  H  H932  1  0.907100  0.200700  0.469600  1.0
  H  H933  1  0.907100  0.299300  0.030400  1.0
  H  H934  1  0.092900  0.700700  0.030400  1.0
  H  H935  1  0.092900  0.299300  0.969600  1.0
  H  H936  1  0.907100  0.700700  0.969600  1.0
  H  H937  1  0.407100  0.799300  0.030400  1.0
  H  H938  1  0.592900  0.200700  0.030400  1.0
  H  H939  1  0.592900  0.799300  0.969600  1.0
  H  H940  1  0.407100  0.200700  0.969600  1.0
  H  H941  1  0.407100  0.299300  0.530400  1.0
  H  H942  1  0.592900  0.700700  0.530400  1.0
  H  H943  1  0.592900  0.299300  0.469600  1.0
  H  H944  1  0.407100  0.700700  0.469600  1.0
  H  H945  1  0.185100  0.071000  0.347500  1.0
  H  H946  1  0.814900  0.929000  0.347500  1.0
  H  H947  1  0.814900  0.071000  0.652500  1.0
  H  H948  1  0.185100  0.929000  0.652500  1.0
  H  H949  1  0.185100  0.571000  0.847500  1.0
  H  H950  1  0.814900  0.429000  0.847500  1.0
  H  H951  1  0.814900  0.571000  0.152500  1.0
  H  H952  1  0.185100  0.429000  0.152500  1.0
  H  H953  1  0.685100  0.071000  0.847500  1.0
  H  H954  1  0.314900  0.929000  0.847500  1.0
  H  H955  1  0.314900  0.071000  0.152500  1.0
  H  H956  1  0.685100  0.929000  0.152500  1.0
  H  H957  1  0.685100  0.571000  0.347500  1.0
  H  H958  1  0.314900  0.429000  0.347500  1.0
  H  H959  1  0.314900  0.571000  0.652500  1.0
  H  H960  1  0.685100  0.429000  0.652500  1.0
  H  H961  1  0.814900  0.929000  0.652500  1.0
  H  H962  1  0.185100  0.071000  0.652500  1.0
  H  H963  1  0.185100  0.929000  0.347500  1.0
  H  H964  1  0.814900  0.071000  0.347500  1.0
  H  H965  1  0.814900  0.429000  0.152500  1.0
  H  H966  1  0.185100  0.571000  0.152500  1.0
  H  H967  1  0.185100  0.429000  0.847500  1.0
  H  H968  1  0.814900  0.571000  0.847500  1.0
  H  H969  1  0.314900  0.929000  0.152500  1.0
  H  H970  1  0.685100  0.071000  0.152500  1.0
  H  H971  1  0.685100  0.929000  0.847500  1.0
  H  H972  1  0.314900  0.071000  0.847500  1.0
  H  H973  1  0.314900  0.429000  0.652500  1.0
  H  H974  1  0.685100  0.571000  0.652500  1.0
  H  H975  1  0.685100  0.429000  0.347500  1.0
  H  H976  1  0.314900  0.571000  0.347500  1.0
  H  H977  1  0.136500  0.047600  0.361500  1.0
  H  H978  1  0.863500  0.952400  0.361500  1.0
  H  H979  1  0.863500  0.047600  0.638500  1.0
  H  H980  1  0.136500  0.952400  0.638500  1.0
  H  H981  1  0.136500  0.547600  0.861500  1.0
  H  H982  1  0.863500  0.452400  0.861500  1.0
  H  H983  1  0.863500  0.547600  0.138500  1.0
  H  H984  1  0.136500  0.452400  0.138500  1.0
  H  H985  1  0.636500  0.047600  0.861500  1.0
  H  H986  1  0.363500  0.952400  0.861500  1.0
  H  H987  1  0.363500  0.047600  0.138500  1.0
  H  H988  1  0.636500  0.952400  0.138500  1.0
  H  H989  1  0.636500  0.547600  0.361500  1.0
  H  H990  1  0.363500  0.452400  0.361500  1.0
  H  H991  1  0.363500  0.547600  0.638500  1.0
  H  H992  1  0.636500  0.452400  0.638500  1.0
  H  H993  1  0.863500  0.952400  0.638500  1.0
  H  H994  1  0.136500  0.047600  0.638500  1.0
  H  H995  1  0.136500  0.952400  0.361500  1.0
  H  H996  1  0.863500  0.047600  0.361500  1.0
  H  H997  1  0.863500  0.452400  0.138500  1.0
  H  H998  1  0.136500  0.547600  0.138500  1.0
  H  H999  1  0.136500  0.452400  0.861500  1.0
  H  H1000  1  0.863500  0.547600  0.861500  1.0
  H  H1001  1  0.363500  0.952400  0.138500  1.0
  H  H1002  1  0.636500  0.047600  0.138500  1.0
  H  H1003  1  0.636500  0.952400  0.861500  1.0
  H  H1004  1  0.363500  0.047600  0.861500  1.0
  H  H1005  1  0.363500  0.452400  0.638500  1.0
  H  H1006  1  0.636500  0.547600  0.638500  1.0
  H  H1007  1  0.636500  0.452400  0.361500  1.0
  H  H1008  1  0.363500  0.547600  0.361500  1.0
  H  H1009  1  0.193400  0.045900  0.373800  1.0
  H  H1010  1  0.806600  0.954100  0.373800  1.0
  H  H1011  1  0.806600  0.045900  0.626200  1.0
  H  H1012  1  0.193400  0.954100  0.626200  1.0
  H  H1013  1  0.193400  0.545900  0.873800  1.0
  H  H1014  1  0.806600  0.454100  0.873800  1.0
  H  H1015  1  0.806600  0.545900  0.126200  1.0
  H  H1016  1  0.193400  0.454100  0.126200  1.0
  H  H1017  1  0.693400  0.045900  0.873800  1.0
  H  H1018  1  0.306600  0.954100  0.873800  1.0
  H  H1019  1  0.306600  0.045900  0.126200  1.0
  H  H1020  1  0.693400  0.954100  0.126200  1.0
  H  H1021  1  0.693400  0.545900  0.373800  1.0
  H  H1022  1  0.306600  0.454100  0.373800  1.0
  H  H1023  1  0.306600  0.545900  0.626200  1.0
  H  H1024  1  0.693400  0.454100  0.626200  1.0
  H  H1025  1  0.806600  0.954100  0.626200  1.0
  H  H1026  1  0.193400  0.045900  0.626200  1.0
  H  H1027  1  0.193400  0.954100  0.373800  1.0
  H  H1028  1  0.806600  0.045900  0.373800  1.0
  H  H1029  1  0.806600  0.454100  0.126200  1.0
  H  H1030  1  0.193400  0.545900  0.126200  1.0
  H  H1031  1  0.193400  0.454100  0.873800  1.0
  H  H1032  1  0.806600  0.545900  0.873800  1.0
  H  H1033  1  0.306600  0.954100  0.126200  1.0
  H  H1034  1  0.693400  0.045900  0.126200  1.0
  H  H1035  1  0.693400  0.954100  0.873800  1.0
  H  H1036  1  0.306600  0.045900  0.873800  1.0
  H  H1037  1  0.306600  0.454100  0.626200  1.0
  H  H1038  1  0.693400  0.545900  0.626200  1.0
  H  H1039  1  0.693400  0.454100  0.373800  1.0
  H  H1040  1  0.306600  0.545900  0.373800  1.0
  Pd  Pd1041  1  0.129770  0.000000  0.219080  1
  Pd  Pd1042  1  0.870230  0.000000  0.219080  1
  Pd  Pd1043  1  0.870230  0.000000  0.780920  1
  Pd  Pd1044  1  0.129770  0.000000  0.780920  1
  Pd  Pd1045  1  0.129770  0.500000  0.719080  1
  Pd  Pd1046  1  0.870230  0.500000  0.719080  1
  Pd  Pd1047  1  0.870230  0.500000  0.280920  1
  Pd  Pd1048  1  0.129770  0.500000  0.280920  1
  Pd  Pd1049  1  0.629770  0.000000  0.719080  1
  Pd  Pd1050  1  0.370230  0.000000  0.719080  1
  Pd  Pd1051  1  0.370230  0.000000  0.280920  1
  Pd  Pd1052  1  0.629770  0.000000  0.280920  1
  Pd  Pd1053  1  0.629770  0.500000  0.219080  1
  Pd  Pd1054  1  0.370230  0.500000  0.219080  1
  Pd  Pd1055  1  0.370230  0.500000  0.780920  1
  Pd  Pd1056  1  0.629770  0.500000  0.780920  1
  Pd  Pd1057  1  0.128350  0.199360  0.402632  1.0
  Pd  Pd1058  1  0.871650  0.800640  0.402632  1.0
  Pd  Pd1059  1  0.871650  0.199360  0.597368  1.0
  Pd  Pd1060  1  0.128350  0.800640  0.597368  1.0
  Pd  Pd1061  1  0.128350  0.699360  0.902632  1.0
  Pd  Pd1062  1  0.871650  0.300640  0.902632  1.0
  Pd  Pd1063  1  0.871650  0.699360  0.097368  1.0
  Pd  Pd1064  1  0.128350  0.300640  0.097368  1.0
  Pd  Pd1065  1  0.628350  0.199360  0.902632  1.0
  Pd  Pd1066  1  0.371650  0.800640  0.902632  1.0
  Pd  Pd1067  1  0.371650  0.199360  0.097368  1.0
  Pd  Pd1068  1  0.628350  0.800640  0.097368  1.0
  Pd  Pd1069  1  0.628350  0.699360  0.402632  1.0
  Pd  Pd1070  1  0.371650  0.300640  0.402632  1.0
  Pd  Pd1071  1  0.371650  0.699360  0.597368  1.0
  Pd  Pd1072  1  0.628350  0.300640  0.597368  1.0
  Pd  Pd1073  1  0.871650  0.800640  0.597368  1.0
  Pd  Pd1074  1  0.128350  0.199360  0.597368  1.0
  Pd  Pd1075  1  0.128350  0.800640  0.402632  1.0
  Pd  Pd1076  1  0.871650  0.199360  0.402632  1.0
  Pd  Pd1077  1  0.871650  0.300640  0.097368  1.0
  Pd  Pd1078  1  0.128350  0.699360  0.097368  1.0
  Pd  Pd1079  1  0.128350  0.300640  0.902632  1.0
  Pd  Pd1080  1  0.871650  0.699360  0.902632  1.0
  Pd  Pd1081  1  0.371650  0.800640  0.097368  1.0
  Pd  Pd1082  1  0.628350  0.199360  0.097368  1.0
  Pd  Pd1083  1  0.628350  0.800640  0.902632  1.0
  Pd  Pd1084  1  0.371650  0.199360  0.902632  1.0
  Pd  Pd1085  1  0.371650  0.300640  0.597368  1.0
  Pd  Pd1086  1  0.628350  0.699360  0.597368  1.0
  Pd  Pd1087  1  0.628350  0.300640  0.402632  1.0
  Pd  Pd1088  1  0.371650  0.699360  0.402632  1.0
  C  C1089  1  0.063600  0.000000  0.139400  1
  C  C1090  1  0.936400  0.000000  0.139400  1
  C  C1091  1  0.936400  0.000000  0.860600  1
  C  C1092  1  0.063600  0.000000  0.860600  1
  C  C1093  1  0.063600  0.500000  0.639400  1
  C  C1094  1  0.936400  0.500000  0.639400  1
  C  C1095  1  0.936400  0.500000  0.360600  1
  C  C1096  1  0.063600  0.500000  0.360600  1
  C  C1097  1  0.563600  0.000000  0.639400  1
  C  C1098  1  0.436400  0.000000  0.639400  1
  C  C1099  1  0.436400  0.000000  0.360600  1
  C  C1100  1  0.563600  0.000000  0.360600  1
  C  C1101  1  0.563600  0.500000  0.139400  1
  C  C1102  1  0.436400  0.500000  0.139400  1
  C  C1103  1  0.436400  0.500000  0.860600  1
  C  C1104  1  0.563600  0.500000  0.860600  1
  C  C1105  1  0.191000  0.000000  0.269700  1
  C  C1106  1  0.809000  0.000000  0.269700  1
  C  C1107  1  0.809000  0.000000  0.730300  1
  C  C1108  1  0.191000  0.000000  0.730300  1
  C  C1109  1  0.191000  0.500000  0.769700  1
  C  C1110  1  0.809000  0.500000  0.769700  1
  C  C1111  1  0.809000  0.500000  0.230300  1
  C  C1112  1  0.191000  0.500000  0.230300  1
  C  C1113  1  0.691000  0.000000  0.769700  1
  C  C1114  1  0.309000  0.000000  0.769700  1
  C  C1115  1  0.309000  0.000000  0.230300  1
  C  C1116  1  0.691000  0.000000  0.230300  1
  C  C1117  1  0.691000  0.500000  0.269700  1
  C  C1118  1  0.309000  0.500000  0.269700  1
  C  C1119  1  0.309000  0.500000  0.730300  1
  C  C1120  1  0.691000  0.500000  0.730300  1
  C  C1121  1  0.221300  0.000000  0.294100  1
  C  C1122  1  0.778700  0.000000  0.294100  1
  C  C1123  1  0.778700  0.000000  0.705900  1
  C  C1124  1  0.221300  0.000000  0.705900  1
  C  C1125  1  0.221300  0.500000  0.794100  1
  C  C1126  1  0.778700  0.500000  0.794100  1
  C  C1127  1  0.778700  0.500000  0.205900  1
  C  C1128  1  0.221300  0.500000  0.205900  1
  C  C1129  1  0.721300  0.000000  0.794100  1
  C  C1130  1  0.278700  0.000000  0.794100  1
  C  C1131  1  0.278700  0.000000  0.205900  1
  C  C1132  1  0.721300  0.000000  0.205900  1
  C  C1133  1  0.721300  0.500000  0.294100  1
  C  C1134  1  0.278700  0.500000  0.294100  1
  C  C1135  1  0.278700  0.500000  0.705900  1
  C  C1136  1  0.721300  0.500000  0.705900  1
  C  C1137  1  0.099600  0.101200  0.461100  1
  C  C1138  1  0.900400  0.898800  0.461100  1
  C  C1139  1  0.900400  0.101200  0.538900  1
  C  C1140  1  0.099600  0.898800  0.538900  1
  C  C1141  1  0.099600  0.601200  0.961100  1
  C  C1142  1  0.900400  0.398800  0.961100  1
  C  C1143  1  0.900400  0.601200  0.038900  1
  C  C1144  1  0.099600  0.398800  0.038900  1
  C  C1145  1  0.599600  0.101200  0.961100  1
  C  C1146  1  0.400400  0.898800  0.961100  1
  C  C1147  1  0.400400  0.101200  0.038900  1
  C  C1148  1  0.599600  0.898800  0.038900  1
  C  C1149  1  0.599600  0.601200  0.461100  1
  C  C1150  1  0.400400  0.398800  0.461100  1
  C  C1151  1  0.400400  0.601200  0.538900  1
  C  C1152  1  0.599600  0.398800  0.538900  1
  C  C1153  1  0.900400  0.898800  0.538900  1
  C  C1154  1  0.099600  0.101200  0.538900  1
  C  C1155  1  0.099600  0.898800  0.461100  1
  C  C1156  1  0.900400  0.101200  0.461100  1
  C  C1157  1  0.900400  0.398800  0.038900  1
  C  C1158  1  0.099600  0.601200  0.038900  1
  C  C1159  1  0.099600  0.398800  0.961100  1
  C  C1160  1  0.900400  0.601200  0.961100  1
  C  C1161  1  0.400400  0.898800  0.038900  1
  C  C1162  1  0.599600  0.101200  0.038900  1
  C  C1163  1  0.599600  0.898800  0.961100  1
  C  C1164  1  0.400400  0.101200  0.961100  1
  C  C1165  1  0.400400  0.398800  0.538900  1
  C  C1166  1  0.599600  0.601200  0.538900  1
  C  C1167  1  0.599600  0.398800  0.461100  1
  C  C1168  1  0.400400  0.601200  0.461100  1
  C  C1169  1  0.115400  0.056600  0.468600  1
  C  C1170  1  0.884600  0.943400  0.468600  1
  C  C1171  1  0.884600  0.056600  0.531400  1
  C  C1172  1  0.115400  0.943400  0.531400  1
  C  C1173  1  0.115400  0.556600  0.968600  1
  C  C1174  1  0.884600  0.443400  0.968600  1
  C  C1175  1  0.884600  0.556600  0.031400  1
  C  C1176  1  0.115400  0.443400  0.031400  1
  C  C1177  1  0.615400  0.056600  0.968600  1
  C  C1178  1  0.384600  0.943400  0.968600  1
  C  C1179  1  0.384600  0.056600  0.031400  1
  C  C1180  1  0.615400  0.943400  0.031400  1
  C  C1181  1  0.615400  0.556600  0.468600  1
  C  C1182  1  0.384600  0.443400  0.468600  1
  C  C1183  1  0.384600  0.556600  0.531400  1
  C  C1184  1  0.615400  0.443400  0.531400  1
  C  C1185  1  0.884600  0.943400  0.531400  1
  C  C1186  1  0.115400  0.056600  0.531400  1
  C  C1187  1  0.115400  0.943400  0.468600  1
  C  C1188  1  0.884600  0.056600  0.468600  1
  C  C1189  1  0.884600  0.443400  0.031400  1
  C  C1190  1  0.115400  0.556600  0.031400  1
  C  C1191  1  0.115400  0.443400  0.968600  1
  C  C1192  1  0.884600  0.556600  0.968600  1
  C  C1193  1  0.384600  0.943400  0.031400  1
  C  C1194  1  0.615400  0.056600  0.031400  1
  C  C1195  1  0.615400  0.943400  0.968600  1
  C  C1196  1  0.384600  0.056600  0.968600  1
  C  C1197  1  0.384600  0.443400  0.531400  1
  C  C1198  1  0.615400  0.556600  0.531400  1
  C  C1199  1  0.615400  0.443400  0.468600  1
  C  C1200  1  0.384600  0.556600  0.468600  1
  C  C1201  1  0.199500  0.068900  0.449300  1
  C  C1202  1  0.800500  0.931100  0.449300  1
  C  C1203  1  0.800500  0.068900  0.550700  1
  C  C1204  1  0.199500  0.931100  0.550700  1
  C  C1205  1  0.199500  0.568900  0.949300  1
  C  C1206  1  0.800500  0.431100  0.949300  1
  C  C1207  1  0.800500  0.568900  0.050700  1
  C  C1208  1  0.199500  0.431100  0.050700  1
  C  C1209  1  0.699500  0.068900  0.949300  1
  C  C1210  1  0.300500  0.931100  0.949300  1
  C  C1211  1  0.300500  0.068900  0.050700  1
  C  C1212  1  0.699500  0.931100  0.050700  1
  C  C1213  1  0.699500  0.568900  0.449300  1
  C  C1214  1  0.300500  0.431100  0.449300  1
  C  C1215  1  0.300500  0.568900  0.550700  1
  C  C1216  1  0.699500  0.431100  0.550700  1
  C  C1217  1  0.800500  0.931100  0.550700  1
  C  C1218  1  0.199500  0.068900  0.550700  1
  C  C1219  1  0.199500  0.931100  0.449300  1
  C  C1220  1  0.800500  0.068900  0.449300  1
  C  C1221  1  0.800500  0.431100  0.050700  1
  C  C1222  1  0.199500  0.568900  0.050700  1
  C  C1223  1  0.199500  0.431100  0.949300  1
  C  C1224  1  0.800500  0.568900  0.949300  1
  C  C1225  1  0.300500  0.931100  0.050700  1
  C  C1226  1  0.699500  0.068900  0.050700  1
  C  C1227  1  0.699500  0.931100  0.949300  1
  C  C1228  1  0.300500  0.068900  0.949300  1
  C  C1229  1  0.300500  0.431100  0.550700  1
  C  C1230  1  0.699500  0.568900  0.550700  1
  C  C1231  1  0.699500  0.431100  0.449300  1
  C  C1232  1  0.300500  0.568900  0.449300  1
  C  C1233  1  0.183800  0.113600  0.441800  1
  C  C1234  1  0.816200  0.886400  0.441800  1
  C  C1235  1  0.816200  0.113600  0.558200  1
  C  C1236  1  0.183800  0.886400  0.558200  1
  C  C1237  1  0.183800  0.613600  0.941800  1
  C  C1238  1  0.816200  0.386400  0.941800  1
  C  C1239  1  0.816200  0.613600  0.058200  1
  C  C1240  1  0.183800  0.386400  0.058200  1
  C  C1241  1  0.683800  0.113600  0.941800  1
  C  C1242  1  0.316200  0.886400  0.941800  1
  C  C1243  1  0.316200  0.113600  0.058200  1
  C  C1244  1  0.683800  0.886400  0.058200  1
  C  C1245  1  0.683800  0.613600  0.441800  1
  C  C1246  1  0.316200  0.386400  0.441800  1
  C  C1247  1  0.316200  0.613600  0.558200  1
  C  C1248  1  0.683800  0.386400  0.558200  1
  C  C1249  1  0.816200  0.886400  0.558200  1
  C  C1250  1  0.183800  0.113600  0.558200  1
  C  C1251  1  0.183800  0.886400  0.441800  1
  C  C1252  1  0.816200  0.113600  0.441800  1
  C  C1253  1  0.816200  0.386400  0.058200  1
  C  C1254  1  0.183800  0.613600  0.058200  1
  C  C1255  1  0.183800  0.386400  0.941800  1
  C  C1256  1  0.816200  0.613600  0.941800  1
  C  C1257  1  0.316200  0.886400  0.058200  1
  C  C1258  1  0.683800  0.113600  0.058200  1
  C  C1259  1  0.683800  0.886400  0.941800  1
  C  C1260  1  0.316200  0.113600  0.941800  1
  C  C1261  1  0.316200  0.386400  0.558200  1
  C  C1262  1  0.683800  0.613600  0.558200  1
  C  C1263  1  0.683800  0.386400  0.441800  1
  C  C1264  1  0.316200  0.613600  0.441800  1
  C  C1265  1  0.092100  0.254200  0.443350  1.0
  C  C1266  1  0.907900  0.745800  0.443350  1.0
  C  C1267  1  0.907900  0.254200  0.556650  1.0
  C  C1268  1  0.092100  0.745800  0.556650  1.0
  C  C1269  1  0.092100  0.754200  0.943350  1.0
  C  C1270  1  0.907900  0.245800  0.943350  1.0
  C  C1271  1  0.907900  0.754200  0.056650  1.0
  C  C1272  1  0.092100  0.245800  0.056650  1.0
  C  C1273  1  0.592100  0.254200  0.943350  1.0
  C  C1274  1  0.407900  0.745800  0.943350  1.0
  C  C1275  1  0.407900  0.254200  0.056650  1.0
  C  C1276  1  0.592100  0.745800  0.056650  1.0
  C  C1277  1  0.592100  0.754200  0.443350  1.0
  C  C1278  1  0.407900  0.245800  0.443350  1.0
  C  C1279  1  0.407900  0.754200  0.556650  1.0
  C  C1280  1  0.592100  0.245800  0.556650  1.0
  C  C1281  1  0.907900  0.745800  0.556650  1.0
  C  C1282  1  0.092100  0.254200  0.556650  1.0
  C  C1283  1  0.092100  0.745800  0.443350  1.0
  C  C1284  1  0.907900  0.254200  0.443350  1.0
  C  C1285  1  0.907900  0.245800  0.056650  1.0
  C  C1286  1  0.092100  0.754200  0.056650  1.0
  C  C1287  1  0.092100  0.245800  0.943350  1.0
  C  C1288  1  0.907900  0.754200  0.943350  1.0
  C  C1289  1  0.407900  0.745800  0.056650  1.0
  C  C1290  1  0.592100  0.254200  0.056650  1.0
  C  C1291  1  0.592100  0.745800  0.943350  1.0
  C  C1292  1  0.407900  0.254200  0.943350  1.0
  C  C1293  1  0.407900  0.245800  0.556650  1.0
  C  C1294  1  0.592100  0.754200  0.556650  1.0
  C  C1295  1  0.592100  0.245800  0.443350  1.0
  C  C1296  1  0.407900  0.754200  0.443350  1.0
  C  C1297  1  0.072800  0.294600  0.454530  1.0
  C  C1298  1  0.927200  0.705400  0.454530  1.0
  C  C1299  1  0.927200  0.294600  0.545470  1.0
  C  C1300  1  0.072800  0.705400  0.545470  1.0
  C  C1301  1  0.072800  0.794600  0.954530  1.0
  C  C1302  1  0.927200  0.205400  0.954530  1.0
  C  C1303  1  0.927200  0.794600  0.045470  1.0
  C  C1304  1  0.072800  0.205400  0.045470  1.0
  C  C1305  1  0.572800  0.294600  0.954530  1.0
  C  C1306  1  0.427200  0.705400  0.954530  1.0
  C  C1307  1  0.427200  0.294600  0.045470  1.0
  C  C1308  1  0.572800  0.705400  0.045470  1.0
  C  C1309  1  0.572800  0.794600  0.454530  1.0
  C  C1310  1  0.427200  0.205400  0.454530  1.0
  C  C1311  1  0.427200  0.794600  0.545470  1.0
  C  C1312  1  0.572800  0.205400  0.545470  1.0
  C  C1313  1  0.927200  0.705400  0.545470  1.0
  C  C1314  1  0.072800  0.294600  0.545470  1.0
  C  C1315  1  0.072800  0.705400  0.454530  1.0
  C  C1316  1  0.927200  0.294600  0.454530  1.0
  C  C1317  1  0.927200  0.205400  0.045470  1.0
  C  C1318  1  0.072800  0.794600  0.045470  1.0
  C  C1319  1  0.072800  0.205400  0.954530  1.0
  C  C1320  1  0.927200  0.794600  0.954530  1.0
  C  C1321  1  0.427200  0.705400  0.045470  1.0
  C  C1322  1  0.572800  0.294600  0.045470  1.0
  C  C1323  1  0.572800  0.705400  0.954530  1.0
  C  C1324  1  0.427200  0.294600  0.954530  1.0
  C  C1325  1  0.427200  0.205400  0.545470  1.0
  C  C1326  1  0.572800  0.794600  0.545470  1.0
  C  C1327  1  0.572800  0.205400  0.454530  1.0
  C  C1328  1  0.427200  0.794600  0.454530  1.0
  C  C1329  1  0.065200  0.334900  0.440530  1.0
  C  C1330  1  0.934800  0.665100  0.440530  1.0
  C  C1331  1  0.934800  0.334900  0.559470  1.0
  C  C1332  1  0.065200  0.665100  0.559470  1.0
  C  C1333  1  0.065200  0.834900  0.940530  1.0
  C  C1334  1  0.934800  0.165100  0.940530  1.0
  C  C1335  1  0.934800  0.834900  0.059470  1.0
  C  C1336  1  0.065200  0.165100  0.059470  1.0
  C  C1337  1  0.565200  0.334900  0.940530  1.0
  C  C1338  1  0.434800  0.665100  0.940530  1.0
  C  C1339  1  0.434800  0.334900  0.059470  1.0
  C  C1340  1  0.565200  0.665100  0.059470  1.0
  C  C1341  1  0.565200  0.834900  0.440530  1.0
  C  C1342  1  0.434800  0.165100  0.440530  1.0
  C  C1343  1  0.434800  0.834900  0.559470  1.0
  C  C1344  1  0.565200  0.165100  0.559470  1.0
  C  C1345  1  0.934800  0.665100  0.559470  1.0
  C  C1346  1  0.065200  0.334900  0.559470  1.0
  C  C1347  1  0.065200  0.665100  0.440530  1.0
  C  C1348  1  0.934800  0.334900  0.440530  1.0
  C  C1349  1  0.934800  0.165100  0.059470  1.0
  C  C1350  1  0.065200  0.834900  0.059470  1.0
  C  C1351  1  0.065200  0.165100  0.940530  1.0
  C  C1352  1  0.934800  0.834900  0.940530  1.0
  C  C1353  1  0.434800  0.665100  0.059470  1.0
  C  C1354  1  0.565200  0.334900  0.059470  1.0
  C  C1355  1  0.565200  0.665100  0.940530  1.0
  C  C1356  1  0.434800  0.334900  0.940530  1.0
  C  C1357  1  0.434800  0.165100  0.559470  1.0
  C  C1358  1  0.565200  0.834900  0.559470  1.0
  C  C1359  1  0.565200  0.165100  0.440530  1.0
  C  C1360  1  0.434800  0.834900  0.440530  1.0
  C  C1361  1  0.076800  0.334900  0.415360  1.0
  C  C1362  1  0.923200  0.665100  0.415360  1.0
  C  C1363  1  0.923200  0.334900  0.584640  1.0
  C  C1364  1  0.076800  0.665100  0.584640  1.0
  C  C1365  1  0.076800  0.834900  0.915360  1.0
  C  C1366  1  0.923200  0.165100  0.915360  1.0
  C  C1367  1  0.923200  0.834900  0.084640  1.0
  C  C1368  1  0.076800  0.165100  0.084640  1.0
  C  C1369  1  0.576800  0.334900  0.915360  1.0
  C  C1370  1  0.423200  0.665100  0.915360  1.0
  C  C1371  1  0.423200  0.334900  0.084640  1.0
  C  C1372  1  0.576800  0.665100  0.084640  1.0
  C  C1373  1  0.576800  0.834900  0.415360  1.0
  C  C1374  1  0.423200  0.165100  0.415360  1.0
  C  C1375  1  0.423200  0.834900  0.584640  1.0
  C  C1376  1  0.576800  0.165100  0.584640  1.0
  C  C1377  1  0.923200  0.665100  0.584640  1.0
  C  C1378  1  0.076800  0.334900  0.584640  1.0
  C  C1379  1  0.076800  0.665100  0.415360  1.0
  C  C1380  1  0.923200  0.334900  0.415360  1.0
  C  C1381  1  0.923200  0.165100  0.084640  1.0
  C  C1382  1  0.076800  0.834900  0.084640  1.0
  C  C1383  1  0.076800  0.165100  0.915360  1.0
  C  C1384  1  0.923200  0.834900  0.915360  1.0
  C  C1385  1  0.423200  0.665100  0.084640  1.0
  C  C1386  1  0.576800  0.334900  0.084640  1.0
  C  C1387  1  0.576800  0.665100  0.915360  1.0
  C  C1388  1  0.423200  0.334900  0.915360  1.0
  C  C1389  1  0.423200  0.165100  0.584640  1.0
  C  C1390  1  0.576800  0.834900  0.584640  1.0
  C  C1391  1  0.576800  0.165100  0.415360  1.0
  C  C1392  1  0.423200  0.834900  0.415360  1.0
  C  C1393  1  0.096100  0.294600  0.404190  1.0
  C  C1394  1  0.903900  0.705400  0.404190  1.0
  C  C1395  1  0.903900  0.294600  0.595810  1.0
  C  C1396  1  0.096100  0.705400  0.595810  1.0
  C  C1397  1  0.096100  0.794600  0.904190  1.0
  C  C1398  1  0.903900  0.205400  0.904190  1.0
  C  C1399  1  0.903900  0.794600  0.095810  1.0
  C  C1400  1  0.096100  0.205400  0.095810  1.0
  C  C1401  1  0.596100  0.294600  0.904190  1.0
  C  C1402  1  0.403900  0.705400  0.904190  1.0
  C  C1403  1  0.403900  0.294600  0.095810  1.0
  C  C1404  1  0.596100  0.705400  0.095810  1.0
  C  C1405  1  0.596100  0.794600  0.404190  1.0
  C  C1406  1  0.403900  0.205400  0.404190  1.0
  C  C1407  1  0.403900  0.794600  0.595810  1.0
  C  C1408  1  0.596100  0.205400  0.595810  1.0
  C  C1409  1  0.903900  0.705400  0.595810  1.0
  C  C1410  1  0.096100  0.294600  0.595810  1.0
  C  C1411  1  0.096100  0.705400  0.404190  1.0
  C  C1412  1  0.903900  0.294600  0.404190  1.0
  C  C1413  1  0.903900  0.205400  0.095810  1.0
  C  C1414  1  0.096100  0.794600  0.095810  1.0
  C  C1415  1  0.096100  0.205400  0.904190  1.0
  C  C1416  1  0.903900  0.794600  0.904190  1.0
  C  C1417  1  0.403900  0.705400  0.095810  1.0
  C  C1418  1  0.596100  0.294600  0.095810  1.0
  C  C1419  1  0.596100  0.705400  0.904190  1.0
  C  C1420  1  0.403900  0.294600  0.904190  1.0
  C  C1421  1  0.403900  0.205400  0.595810  1.0
  C  C1422  1  0.596100  0.794600  0.595810  1.0
  C  C1423  1  0.596100  0.205400  0.404190  1.0
  C  C1424  1  0.403900  0.794600  0.404190  1.0
  C  C1425  1  0.109800  0.283000  0.379000  1.0
  C  C1426  1  0.890200  0.717000  0.379000  1.0
  C  C1427  1  0.890200  0.283000  0.621000  1.0
  C  C1428  1  0.109800  0.717000  0.621000  1.0
  C  C1429  1  0.109800  0.783000  0.879000  1.0
  C  C1430  1  0.890200  0.217000  0.879000  1.0
  C  C1431  1  0.890200  0.783000  0.121000  1.0
  C  C1432  1  0.109800  0.217000  0.121000  1.0
  C  C1433  1  0.609800  0.283000  0.879000  1.0
  C  C1434  1  0.390200  0.717000  0.879000  1.0
  C  C1435  1  0.390200  0.283000  0.121000  1.0
  C  C1436  1  0.609800  0.717000  0.121000  1.0
  C  C1437  1  0.609800  0.783000  0.379000  1.0
  C  C1438  1  0.390200  0.217000  0.379000  1.0
  C  C1439  1  0.390200  0.783000  0.621000  1.0
  C  C1440  1  0.609800  0.217000  0.621000  1.0
  C  C1441  1  0.890200  0.717000  0.621000  1.0
  C  C1442  1  0.109800  0.283000  0.621000  1.0
  C  C1443  1  0.109800  0.717000  0.379000  1.0
  C  C1444  1  0.890200  0.283000  0.379000  1.0
  C  C1445  1  0.890200  0.217000  0.121000  1.0
  C  C1446  1  0.109800  0.783000  0.121000  1.0
  C  C1447  1  0.109800  0.217000  0.879000  1.0
  C  C1448  1  0.890200  0.783000  0.879000  1.0
  C  C1449  1  0.390200  0.717000  0.121000  1.0
  C  C1450  1  0.609800  0.283000  0.121000  1.0
  C  C1451  1  0.609800  0.717000  0.879000  1.0
  C  C1452  1  0.390200  0.283000  0.879000  1.0
  C  C1453  1  0.390200  0.217000  0.621000  1.0
  C  C1454  1  0.609800  0.783000  0.621000  1.0
  C  C1455  1  0.609800  0.217000  0.379000  1.0
  C  C1456  1  0.390200  0.783000  0.379000  1.0
  C  C1457  1  0.144900  0.232900  0.348400  1.0
  C  C1458  1  0.855100  0.767100  0.348400  1.0
  C  C1459  1  0.855100  0.232900  0.651600  1.0
  C  C1460  1  0.144900  0.767100  0.651600  1.0
  C  C1461  1  0.144900  0.732900  0.848400  1.0
  C  C1462  1  0.855100  0.267100  0.848400  1.0
  C  C1463  1  0.855100  0.732900  0.151600  1.0
  C  C1464  1  0.144900  0.267100  0.151600  1.0
  C  C1465  1  0.644900  0.232900  0.848400  1.0
  C  C1466  1  0.355100  0.767100  0.848400  1.0
  C  C1467  1  0.355100  0.232900  0.151600  1.0
  C  C1468  1  0.644900  0.767100  0.151600  1.0
  C  C1469  1  0.644900  0.732900  0.348400  1.0
  C  C1470  1  0.355100  0.267100  0.348400  1.0
  C  C1471  1  0.355100  0.732900  0.651600  1.0
  C  C1472  1  0.644900  0.267100  0.651600  1.0
  C  C1473  1  0.855100  0.767100  0.651600  1.0
  C  C1474  1  0.144900  0.232900  0.651600  1.0
  C  C1475  1  0.144900  0.767100  0.348400  1.0
  C  C1476  1  0.855100  0.232900  0.348400  1.0
  C  C1477  1  0.855100  0.267100  0.151600  1.0
  C  C1478  1  0.144900  0.732900  0.151600  1.0
  C  C1479  1  0.144900  0.267100  0.848400  1.0
  C  C1480  1  0.855100  0.732900  0.848400  1.0
  C  C1481  1  0.355100  0.767100  0.151600  1.0
  C  C1482  1  0.644900  0.232900  0.151600  1.0
  C  C1483  1  0.644900  0.767100  0.848400  1.0
  C  C1484  1  0.355100  0.232900  0.848400  1.0
  C  C1485  1  0.355100  0.267100  0.651600  1.0
  C  C1486  1  0.644900  0.732900  0.651600  1.0
  C  C1487  1  0.644900  0.267100  0.348400  1.0
  C  C1488  1  0.355100  0.732900  0.348400  1.0
  C  C1489  1  0.113700  0.246900  0.328700  1.0
  C  C1490  1  0.886300  0.753100  0.328700  1.0
  C  C1491  1  0.886300  0.246900  0.671300  1.0
  C  C1492  1  0.113700  0.753100  0.671300  1.0
  C  C1493  1  0.113700  0.746900  0.828700  1.0
  C  C1494  1  0.886300  0.253100  0.828700  1.0
  C  C1495  1  0.886300  0.746900  0.171300  1.0
  C  C1496  1  0.113700  0.253100  0.171300  1.0
  C  C1497  1  0.613700  0.246900  0.828700  1.0
  C  C1498  1  0.386300  0.753100  0.828700  1.0
  C  C1499  1  0.386300  0.246900  0.171300  1.0
  C  C1500  1  0.613700  0.753100  0.171300  1.0
  C  C1501  1  0.613700  0.746900  0.328700  1.0
  C  C1502  1  0.386300  0.253100  0.328700  1.0
  C  C1503  1  0.386300  0.746900  0.671300  1.0
  C  C1504  1  0.613700  0.253100  0.671300  1.0
  C  C1505  1  0.886300  0.753100  0.671300  1.0
  C  C1506  1  0.113700  0.246900  0.671300  1.0
  C  C1507  1  0.113700  0.753100  0.328700  1.0
  C  C1508  1  0.886300  0.246900  0.328700  1.0
  C  C1509  1  0.886300  0.253100  0.171300  1.0
  C  C1510  1  0.113700  0.746900  0.171300  1.0
  C  C1511  1  0.113700  0.253100  0.828700  1.0
  C  C1512  1  0.886300  0.746900  0.828700  1.0
  C  C1513  1  0.386300  0.753100  0.171300  1.0
  C  C1514  1  0.613700  0.246900  0.171300  1.0
  C  C1515  1  0.613700  0.753100  0.828700  1.0
  C  C1516  1  0.386300  0.246900  0.828700  1.0
  C  C1517  1  0.386300  0.253100  0.671300  1.0
  C  C1518  1  0.613700  0.746900  0.671300  1.0
  C  C1519  1  0.613700  0.253100  0.328700  1.0
  C  C1520  1  0.386300  0.746900  0.328700  1.0
  C  C1521  1  0.128800  0.236500  0.304400  1.0
  C  C1522  1  0.871200  0.763500  0.304400  1.0
  C  C1523  1  0.871200  0.236500  0.695600  1.0
  C  C1524  1  0.128800  0.763500  0.695600  1.0
  C  C1525  1  0.128800  0.736500  0.804400  1.0
  C  C1526  1  0.871200  0.263500  0.804400  1.0
  C  C1527  1  0.871200  0.736500  0.195600  1.0
  C  C1528  1  0.128800  0.263500  0.195600  1.0
  C  C1529  1  0.628800  0.236500  0.804400  1.0
  C  C1530  1  0.371200  0.763500  0.804400  1.0
  C  C1531  1  0.371200  0.236500  0.195600  1.0
  C  C1532  1  0.628800  0.763500  0.195600  1.0
  C  C1533  1  0.628800  0.736500  0.304400  1.0
  C  C1534  1  0.371200  0.263500  0.304400  1.0
  C  C1535  1  0.371200  0.736500  0.695600  1.0
  C  C1536  1  0.628800  0.263500  0.695600  1.0
  C  C1537  1  0.871200  0.763500  0.695600  1.0
  C  C1538  1  0.128800  0.236500  0.695600  1.0
  C  C1539  1  0.128800  0.763500  0.304400  1.0
  C  C1540  1  0.871200  0.236500  0.304400  1.0
  C  C1541  1  0.871200  0.263500  0.195600  1.0
  C  C1542  1  0.128800  0.736500  0.195600  1.0
  C  C1543  1  0.128800  0.263500  0.804400  1.0
  C  C1544  1  0.871200  0.736500  0.804400  1.0
  C  C1545  1  0.371200  0.763500  0.195600  1.0
  C  C1546  1  0.628800  0.236500  0.195600  1.0
  C  C1547  1  0.628800  0.763500  0.804400  1.0
  C  C1548  1  0.371200  0.236500  0.804400  1.0
  C  C1549  1  0.371200  0.263500  0.695600  1.0
  C  C1550  1  0.628800  0.736500  0.695600  1.0
  C  C1551  1  0.628800  0.263500  0.304400  1.0
  C  C1552  1  0.371200  0.736500  0.304400  1.0
  C  C1553  1  0.178100  0.212900  0.301000  1.0
  C  C1554  1  0.821900  0.787100  0.301000  1.0
  C  C1555  1  0.821900  0.212900  0.699000  1.0
  C  C1556  1  0.178100  0.787100  0.699000  1.0
  C  C1557  1  0.178100  0.712900  0.801000  1.0
  C  C1558  1  0.821900  0.287100  0.801000  1.0
  C  C1559  1  0.821900  0.712900  0.199000  1.0
  C  C1560  1  0.178100  0.287100  0.199000  1.0
  C  C1561  1  0.678100  0.212900  0.801000  1.0
  C  C1562  1  0.321900  0.787100  0.801000  1.0
  C  C1563  1  0.321900  0.212900  0.199000  1.0
  C  C1564  1  0.678100  0.787100  0.199000  1.0
  C  C1565  1  0.678100  0.712900  0.301000  1.0
  C  C1566  1  0.321900  0.287100  0.301000  1.0
  C  C1567  1  0.321900  0.712900  0.699000  1.0
  C  C1568  1  0.678100  0.287100  0.699000  1.0
  C  C1569  1  0.821900  0.787100  0.699000  1.0
  C  C1570  1  0.178100  0.212900  0.699000  1.0
  C  C1571  1  0.178100  0.787100  0.301000  1.0
  C  C1572  1  0.821900  0.212900  0.301000  1.0
  C  C1573  1  0.821900  0.287100  0.199000  1.0
  C  C1574  1  0.178100  0.712900  0.199000  1.0
  C  C1575  1  0.178100  0.287100  0.801000  1.0
  C  C1576  1  0.821900  0.712900  0.801000  1.0
  C  C1577  1  0.321900  0.787100  0.199000  1.0
  C  C1578  1  0.678100  0.212900  0.199000  1.0
  C  C1579  1  0.678100  0.787100  0.801000  1.0
  C  C1580  1  0.321900  0.212900  0.801000  1.0
  C  C1581  1  0.321900  0.287100  0.699000  1.0
  C  C1582  1  0.678100  0.712900  0.699000  1.0
  C  C1583  1  0.678100  0.287100  0.301000  1.0
  C  C1584  1  0.321900  0.712900  0.301000  1.0
  C  C1585  1  0.206400  0.201600  0.320800  1.0
  C  C1586  1  0.793600  0.798400  0.320800  1.0
  C  C1587  1  0.793600  0.201600  0.679200  1.0
  C  C1588  1  0.206400  0.798400  0.679200  1.0
  C  C1589  1  0.206400  0.701600  0.820800  1.0
  C  C1590  1  0.793600  0.298400  0.820800  1.0
  C  C1591  1  0.793600  0.701600  0.179200  1.0
  C  C1592  1  0.206400  0.298400  0.179200  1.0
  C  C1593  1  0.706400  0.201600  0.820800  1.0
  C  C1594  1  0.293600  0.798400  0.820800  1.0
  C  C1595  1  0.293600  0.201600  0.179200  1.0
  C  C1596  1  0.706400  0.798400  0.179200  1.0
  C  C1597  1  0.706400  0.701600  0.320800  1.0
  C  C1598  1  0.293600  0.298400  0.320800  1.0
  C  C1599  1  0.293600  0.701600  0.679200  1.0
  C  C1600  1  0.706400  0.298400  0.679200  1.0
  C  C1601  1  0.793600  0.798400  0.679200  1.0
  C  C1602  1  0.206400  0.201600  0.679200  1.0
  C  C1603  1  0.206400  0.798400  0.320800  1.0
  C  C1604  1  0.793600  0.201600  0.320800  1.0
  C  C1605  1  0.793600  0.298400  0.179200  1.0
  C  C1606  1  0.206400  0.701600  0.179200  1.0
  C  C1607  1  0.206400  0.298400  0.820800  1.0
  C  C1608  1  0.793600  0.701600  0.820800  1.0
  C  C1609  1  0.293600  0.798400  0.179200  1.0
  C  C1610  1  0.706400  0.201600  0.179200  1.0
  C  C1611  1  0.706400  0.798400  0.820800  1.0
  C  C1612  1  0.293600  0.201600  0.820800  1.0
  C  C1613  1  0.293600  0.298400  0.679200  1.0
  C  C1614  1  0.706400  0.701600  0.679200  1.0
  C  C1615  1  0.706400  0.298400  0.320800  1.0
  C  C1616  1  0.293600  0.701600  0.320800  1.0
  C  C1617  1  0.191700  0.211600  0.345100  1.0
  C  C1618  1  0.808300  0.788400  0.345100  1.0
  C  C1619  1  0.808300  0.211600  0.654900  1.0
  C  C1620  1  0.191700  0.788400  0.654900  1.0
  C  C1621  1  0.191700  0.711600  0.845100  1.0
  C  C1622  1  0.808300  0.288400  0.845100  1.0
  C  C1623  1  0.808300  0.711600  0.154900  1.0
  C  C1624  1  0.191700  0.288400  0.154900  1.0
  C  C1625  1  0.691700  0.211600  0.845100  1.0
  C  C1626  1  0.308300  0.788400  0.845100  1.0
  C  C1627  1  0.308300  0.211600  0.154900  1.0
  C  C1628  1  0.691700  0.788400  0.154900  1.0
  C  C1629  1  0.691700  0.711600  0.345100  1.0
  C  C1630  1  0.308300  0.288400  0.345100  1.0
  C  C1631  1  0.308300  0.711600  0.654900  1.0
  C  C1632  1  0.691700  0.288400  0.654900  1.0
  C  C1633  1  0.808300  0.788400  0.654900  1.0
  C  C1634  1  0.191700  0.211600  0.654900  1.0
  C  C1635  1  0.191700  0.788400  0.345100  1.0
  C  C1636  1  0.808300  0.211600  0.345100  1.0
  C  C1637  1  0.808300  0.288400  0.154900  1.0
  C  C1638  1  0.191700  0.711600  0.154900  1.0
  C  C1639  1  0.191700  0.288400  0.845100  1.0
  C  C1640  1  0.808300  0.711600  0.845100  1.0
  C  C1641  1  0.308300  0.788400  0.154900  1.0
  C  C1642  1  0.691700  0.211600  0.154900  1.0
  C  C1643  1  0.691700  0.788400  0.845100  1.0
  C  C1644  1  0.308300  0.211600  0.845100  1.0
  C  C1645  1  0.308300  0.288400  0.654900  1.0
  C  C1646  1  0.691700  0.711600  0.654900  1.0
  C  C1647  1  0.691700  0.288400  0.345100  1.0
  C  C1648  1  0.308300  0.711600  0.345100  1.0
  C  C1649  1  0.173000  0.174200  0.262400  1.0
  C  C1650  1  0.827000  0.825800  0.262400  1.0
  C  C1651  1  0.827000  0.174200  0.737600  1.0
  C  C1652  1  0.173000  0.825800  0.737600  1.0
  C  C1653  1  0.173000  0.674200  0.762400  1.0
  C  C1654  1  0.827000  0.325800  0.762400  1.0
  C  C1655  1  0.827000  0.674200  0.237600  1.0
  C  C1656  1  0.173000  0.325800  0.237600  1.0
  C  C1657  1  0.673000  0.174200  0.762400  1.0
  C  C1658  1  0.327000  0.825800  0.762400  1.0
  C  C1659  1  0.327000  0.174200  0.237600  1.0
  C  C1660  1  0.673000  0.825800  0.237600  1.0
  C  C1661  1  0.673000  0.674200  0.262400  1.0
  C  C1662  1  0.327000  0.325800  0.262400  1.0
  C  C1663  1  0.327000  0.674200  0.737600  1.0
  C  C1664  1  0.673000  0.325800  0.737600  1.0
  C  C1665  1  0.827000  0.825800  0.737600  1.0
  C  C1666  1  0.173000  0.174200  0.737600  1.0
  C  C1667  1  0.173000  0.825800  0.262400  1.0
  C  C1668  1  0.827000  0.174200  0.262400  1.0
  C  C1669  1  0.827000  0.325800  0.237600  1.0
  C  C1670  1  0.173000  0.674200  0.237600  1.0
  C  C1671  1  0.173000  0.325800  0.762400  1.0
  C  C1672  1  0.827000  0.674200  0.762400  1.0
  C  C1673  1  0.327000  0.825800  0.237600  1.0
  C  C1674  1  0.673000  0.174200  0.237600  1.0
  C  C1675  1  0.673000  0.825800  0.762400  1.0
  C  C1676  1  0.327000  0.174200  0.762400  1.0
  C  C1677  1  0.327000  0.325800  0.737600  1.0
  C  C1678  1  0.673000  0.674200  0.737600  1.0
  C  C1679  1  0.673000  0.325800  0.262400  1.0
  C  C1680  1  0.327000  0.674200  0.262400  1.0
  C  C1681  1  0.144700  0.139700  0.270900  1.0
  C  C1682  1  0.855300  0.860300  0.270900  1.0
  C  C1683  1  0.855300  0.139700  0.729100  1.0
  C  C1684  1  0.144700  0.860300  0.729100  1.0
  C  C1685  1  0.144700  0.639700  0.770900  1.0
  C  C1686  1  0.855300  0.360300  0.770900  1.0
  C  C1687  1  0.855300  0.639700  0.229100  1.0
  C  C1688  1  0.144700  0.360300  0.229100  1.0
  C  C1689  1  0.644700  0.139700  0.770900  1.0
  C  C1690  1  0.355300  0.860300  0.770900  1.0
  C  C1691  1  0.355300  0.139700  0.229100  1.0
  C  C1692  1  0.644700  0.860300  0.229100  1.0
  C  C1693  1  0.644700  0.639700  0.270900  1.0
  C  C1694  1  0.355300  0.360300  0.270900  1.0
  C  C1695  1  0.355300  0.639700  0.729100  1.0
  C  C1696  1  0.644700  0.360300  0.729100  1.0
  C  C1697  1  0.855300  0.860300  0.729100  1.0
  C  C1698  1  0.144700  0.139700  0.729100  1.0
  C  C1699  1  0.144700  0.860300  0.270900  1.0
  C  C1700  1  0.855300  0.139700  0.270900  1.0
  C  C1701  1  0.855300  0.360300  0.229100  1.0
  C  C1702  1  0.144700  0.639700  0.229100  1.0
  C  C1703  1  0.144700  0.360300  0.770900  1.0
  C  C1704  1  0.855300  0.639700  0.770900  1.0
  C  C1705  1  0.355300  0.860300  0.229100  1.0
  C  C1706  1  0.644700  0.139700  0.229100  1.0
  C  C1707  1  0.644700  0.860300  0.770900  1.0
  C  C1708  1  0.355300  0.139700  0.770900  1.0
  C  C1709  1  0.355300  0.360300  0.729100  1.0
  C  C1710  1  0.644700  0.639700  0.729100  1.0
  C  C1711  1  0.644700  0.360300  0.270900  1.0
  C  C1712  1  0.355300  0.639700  0.270900  1.0
  C  C1713  1  0.127100  0.103300  0.253900  1.0
  C  C1714  1  0.872900  0.896700  0.253900  1.0
  C  C1715  1  0.872900  0.103300  0.746100  1.0
  C  C1716  1  0.127100  0.896700  0.746100  1.0
  C  C1717  1  0.127100  0.603300  0.753900  1.0
  C  C1718  1  0.872900  0.396700  0.753900  1.0
  C  C1719  1  0.872900  0.603300  0.246100  1.0
  C  C1720  1  0.127100  0.396700  0.246100  1.0
  C  C1721  1  0.627100  0.103300  0.753900  1.0
  C  C1722  1  0.372900  0.896700  0.753900  1.0
  C  C1723  1  0.372900  0.103300  0.246100  1.0
  C  C1724  1  0.627100  0.896700  0.246100  1.0
  C  C1725  1  0.627100  0.603300  0.253900  1.0
  C  C1726  1  0.372900  0.396700  0.253900  1.0
  C  C1727  1  0.372900  0.603300  0.746100  1.0
  C  C1728  1  0.627100  0.396700  0.746100  1.0
  C  C1729  1  0.872900  0.896700  0.746100  1.0
  C  C1730  1  0.127100  0.103300  0.746100  1.0
  C  C1731  1  0.127100  0.896700  0.253900  1.0
  C  C1732  1  0.872900  0.103300  0.253900  1.0
  C  C1733  1  0.872900  0.396700  0.246100  1.0
  C  C1734  1  0.127100  0.603300  0.246100  1.0
  C  C1735  1  0.127100  0.396700  0.753900  1.0
  C  C1736  1  0.872900  0.603300  0.753900  1.0
  C  C1737  1  0.372900  0.896700  0.246100  1.0
  C  C1738  1  0.627100  0.103300  0.246100  1.0
  C  C1739  1  0.627100  0.896700  0.753900  1.0
  C  C1740  1  0.372900  0.103300  0.753900  1.0
  C  C1741  1  0.372900  0.396700  0.746100  1.0
  C  C1742  1  0.627100  0.603300  0.746100  1.0
  C  C1743  1  0.627100  0.396700  0.253900  1.0
  C  C1744  1  0.372900  0.603300  0.253900  1.0
  C  C1745  1  0.139400  0.107400  0.229900  1.0
  C  C1746  1  0.860600  0.892600  0.229900  1.0
  C  C1747  1  0.860600  0.107400  0.770100  1.0
  C  C1748  1  0.139400  0.892600  0.770100  1.0
  C  C1749  1  0.139400  0.607400  0.729900  1.0
  C  C1750  1  0.860600  0.392600  0.729900  1.0
  C  C1751  1  0.860600  0.607400  0.270100  1.0
  C  C1752  1  0.139400  0.392600  0.270100  1.0
  C  C1753  1  0.639400  0.107400  0.729900  1.0
  C  C1754  1  0.360600  0.892600  0.729900  1.0
  C  C1755  1  0.360600  0.107400  0.270100  1.0
  C  C1756  1  0.639400  0.892600  0.270100  1.0
  C  C1757  1  0.639400  0.607400  0.229900  1.0
  C  C1758  1  0.360600  0.392600  0.229900  1.0
  C  C1759  1  0.360600  0.607400  0.770100  1.0
  C  C1760  1  0.639400  0.392600  0.770100  1.0
  C  C1761  1  0.860600  0.892600  0.770100  1.0
  C  C1762  1  0.139400  0.107400  0.770100  1.0
  C  C1763  1  0.139400  0.892600  0.229900  1.0
  C  C1764  1  0.860600  0.107400  0.229900  1.0
  C  C1765  1  0.860600  0.392600  0.270100  1.0
  C  C1766  1  0.139400  0.607400  0.270100  1.0
  C  C1767  1  0.139400  0.392600  0.729900  1.0
  C  C1768  1  0.860600  0.607400  0.729900  1.0
  C  C1769  1  0.360600  0.892600  0.270100  1.0
  C  C1770  1  0.639400  0.107400  0.270100  1.0
  C  C1771  1  0.639400  0.892600  0.729900  1.0
  C  C1772  1  0.360600  0.107400  0.729900  1.0
  C  C1773  1  0.360600  0.392600  0.770100  1.0
  C  C1774  1  0.639400  0.607400  0.770100  1.0
  C  C1775  1  0.639400  0.392600  0.229900  1.0
  C  C1776  1  0.360600  0.607400  0.229900  1.0
  C  C1777  1  0.169700  0.144100  0.221400  1.0
  C  C1778  1  0.830300  0.855900  0.221400  1.0
  C  C1779  1  0.830300  0.144100  0.778600  1.0
  C  C1780  1  0.169700  0.855900  0.778600  1.0
  C  C1781  1  0.169700  0.644100  0.721400  1.0
  C  C1782  1  0.830300  0.355900  0.721400  1.0
  C  C1783  1  0.830300  0.644100  0.278600  1.0
  C  C1784  1  0.169700  0.355900  0.278600  1.0
  C  C1785  1  0.669700  0.144100  0.721400  1.0
  C  C1786  1  0.330300  0.855900  0.721400  1.0
  C  C1787  1  0.330300  0.144100  0.278600  1.0
  C  C1788  1  0.669700  0.855900  0.278600  1.0
  C  C1789  1  0.669700  0.644100  0.221400  1.0
  C  C1790  1  0.330300  0.355900  0.221400  1.0
  C  C1791  1  0.330300  0.644100  0.778600  1.0
  C  C1792  1  0.669700  0.355900  0.778600  1.0
  C  C1793  1  0.830300  0.855900  0.778600  1.0
  C  C1794  1  0.169700  0.144100  0.778600  1.0
  C  C1795  1  0.169700  0.855900  0.221400  1.0
  C  C1796  1  0.830300  0.144100  0.221400  1.0
  C  C1797  1  0.830300  0.355900  0.278600  1.0
  C  C1798  1  0.169700  0.644100  0.278600  1.0
  C  C1799  1  0.169700  0.355900  0.721400  1.0
  C  C1800  1  0.830300  0.644100  0.721400  1.0
  C  C1801  1  0.330300  0.855900  0.278600  1.0
  C  C1802  1  0.669700  0.144100  0.278600  1.0
  C  C1803  1  0.669700  0.855900  0.721400  1.0
  C  C1804  1  0.330300  0.144100  0.721400  1.0
  C  C1805  1  0.330300  0.355900  0.778600  1.0
  C  C1806  1  0.669700  0.644100  0.778600  1.0
  C  C1807  1  0.669700  0.355900  0.221400  1.0
  C  C1808  1  0.330300  0.644100  0.221400  1.0
  C  C1809  1  0.184700  0.178100  0.237400  1.0
  C  C1810  1  0.815300  0.821900  0.237400  1.0
  C  C1811  1  0.815300  0.178100  0.762600  1.0
  C  C1812  1  0.184700  0.821900  0.762600  1.0
  C  C1813  1  0.184700  0.678100  0.737400  1.0
  C  C1814  1  0.815300  0.321900  0.737400  1.0
  C  C1815  1  0.815300  0.678100  0.262600  1.0
  C  C1816  1  0.184700  0.321900  0.262600  1.0
  C  C1817  1  0.684700  0.178100  0.737400  1.0
  C  C1818  1  0.315300  0.821900  0.737400  1.0
  C  C1819  1  0.315300  0.178100  0.262600  1.0
  C  C1820  1  0.684700  0.821900  0.262600  1.0
  C  C1821  1  0.684700  0.678100  0.237400  1.0
  C  C1822  1  0.315300  0.321900  0.237400  1.0
  C  C1823  1  0.315300  0.678100  0.762600  1.0
  C  C1824  1  0.684700  0.321900  0.762600  1.0
  C  C1825  1  0.815300  0.821900  0.762600  1.0
  C  C1826  1  0.184700  0.178100  0.762600  1.0
  C  C1827  1  0.184700  0.821900  0.237400  1.0
  C  C1828  1  0.815300  0.178100  0.237400  1.0
  C  C1829  1  0.815300  0.321900  0.262600  1.0
  C  C1830  1  0.184700  0.678100  0.262600  1.0
  C  C1831  1  0.184700  0.321900  0.737400  1.0
  C  C1832  1  0.815300  0.678100  0.737400  1.0
  C  C1833  1  0.315300  0.821900  0.262600  1.0
  C  C1834  1  0.684700  0.178100  0.262600  1.0
  C  C1835  1  0.684700  0.821900  0.737400  1.0
  C  C1836  1  0.315300  0.178100  0.737400  1.0
  C  C1837  1  0.315300  0.321900  0.762600  1.0
  C  C1838  1  0.684700  0.678100  0.762600  1.0
  C  C1839  1  0.684700  0.321900  0.237400  1.0
  C  C1840  1  0.315300  0.678100  0.237400  1.0
  C  C1841  1  0.103900  0.082800  0.192000  1.0
  C  C1842  1  0.896100  0.917200  0.192000  1.0
  C  C1843  1  0.896100  0.082800  0.808000  1.0
  C  C1844  1  0.103900  0.917200  0.808000  1.0
  C  C1845  1  0.103900  0.582800  0.692000  1.0
  C  C1846  1  0.896100  0.417200  0.692000  1.0
  C  C1847  1  0.896100  0.582800  0.308000  1.0
  C  C1848  1  0.103900  0.417200  0.308000  1.0
  C  C1849  1  0.603900  0.082800  0.692000  1.0
  C  C1850  1  0.396100  0.917200  0.692000  1.0
  C  C1851  1  0.396100  0.082800  0.308000  1.0
  C  C1852  1  0.603900  0.917200  0.308000  1.0
  C  C1853  1  0.603900  0.582800  0.192000  1.0
  C  C1854  1  0.396100  0.417200  0.192000  1.0
  C  C1855  1  0.396100  0.582800  0.808000  1.0
  C  C1856  1  0.603900  0.417200  0.808000  1.0
  C  C1857  1  0.896100  0.917200  0.808000  1.0
  C  C1858  1  0.103900  0.082800  0.808000  1.0
  C  C1859  1  0.103900  0.917200  0.192000  1.0
  C  C1860  1  0.896100  0.082800  0.192000  1.0
  C  C1861  1  0.896100  0.417200  0.308000  1.0
  C  C1862  1  0.103900  0.582800  0.308000  1.0
  C  C1863  1  0.103900  0.417200  0.692000  1.0
  C  C1864  1  0.896100  0.582800  0.692000  1.0
  C  C1865  1  0.396100  0.917200  0.308000  1.0
  C  C1866  1  0.603900  0.082800  0.308000  1.0
  C  C1867  1  0.603900  0.917200  0.692000  1.0
  C  C1868  1  0.396100  0.082800  0.692000  1.0
  C  C1869  1  0.396100  0.417200  0.808000  1.0
  C  C1870  1  0.603900  0.582800  0.808000  1.0
  C  C1871  1  0.603900  0.417200  0.192000  1.0
  C  C1872  1  0.396100  0.582800  0.192000  1.0
  C  C1873  1  0.088500  0.042100  0.175900  1.0
  C  C1874  1  0.911500  0.957900  0.175900  1.0
  C  C1875  1  0.911500  0.042100  0.824100  1.0
  C  C1876  1  0.088500  0.957900  0.824100  1.0
  C  C1877  1  0.088500  0.542100  0.675900  1.0
  C  C1878  1  0.911500  0.457900  0.675900  1.0
  C  C1879  1  0.911500  0.542100  0.324100  1.0
  C  C1880  1  0.088500  0.457900  0.324100  1.0
  C  C1881  1  0.588500  0.042100  0.675900  1.0
  C  C1882  1  0.411500  0.957900  0.675900  1.0
  C  C1883  1  0.411500  0.042100  0.324100  1.0
  C  C1884  1  0.588500  0.957900  0.324100  1.0
  C  C1885  1  0.588500  0.542100  0.175900  1.0
  C  C1886  1  0.411500  0.457900  0.175900  1.0
  C  C1887  1  0.411500  0.542100  0.824100  1.0
  C  C1888  1  0.588500  0.457900  0.824100  1.0
  C  C1889  1  0.911500  0.957900  0.824100  1.0
  C  C1890  1  0.088500  0.042100  0.824100  1.0
  C  C1891  1  0.088500  0.957900  0.175900  1.0
  C  C1892  1  0.911500  0.042100  0.175900  1.0
  C  C1893  1  0.911500  0.457900  0.324100  1.0
  C  C1894  1  0.088500  0.542100  0.324100  1.0
  C  C1895  1  0.088500  0.457900  0.675900  1.0
  C  C1896  1  0.911500  0.542100  0.675900  1.0
  C  C1897  1  0.411500  0.957900  0.324100  1.0
  C  C1898  1  0.588500  0.042100  0.324100  1.0
  C  C1899  1  0.588500  0.957900  0.675900  1.0
  C  C1900  1  0.411500  0.042100  0.675900  1.0
  C  C1901  1  0.411500  0.457900  0.824100  1.0
  C  C1902  1  0.588500  0.542100  0.824100  1.0
  C  C1903  1  0.588500  0.457900  0.175900  1.0
  C  C1904  1  0.411500  0.542100  0.175900  1.0
  C  C1905  1  0.071300  0.043100  0.151800  1.0
  C  C1906  1  0.928700  0.956900  0.151800  1.0
  C  C1907  1  0.928700  0.043100  0.848200  1.0
  C  C1908  1  0.071300  0.956900  0.848200  1.0
  C  C1909  1  0.071300  0.543100  0.651800  1.0
  C  C1910  1  0.928700  0.456900  0.651800  1.0
  C  C1911  1  0.928700  0.543100  0.348200  1.0
  C  C1912  1  0.071300  0.456900  0.348200  1.0
  C  C1913  1  0.571300  0.043100  0.651800  1.0
  C  C1914  1  0.428700  0.956900  0.651800  1.0
  C  C1915  1  0.428700  0.043100  0.348200  1.0
  C  C1916  1  0.571300  0.956900  0.348200  1.0
  C  C1917  1  0.571300  0.543100  0.151800  1.0
  C  C1918  1  0.428700  0.456900  0.151800  1.0
  C  C1919  1  0.428700  0.543100  0.848200  1.0
  C  C1920  1  0.571300  0.456900  0.848200  1.0
  C  C1921  1  0.928700  0.956900  0.848200  1.0
  C  C1922  1  0.071300  0.043100  0.848200  1.0
  C  C1923  1  0.071300  0.956900  0.151800  1.0
  C  C1924  1  0.928700  0.043100  0.151800  1.0
  C  C1925  1  0.928700  0.456900  0.348200  1.0
  C  C1926  1  0.071300  0.543100  0.348200  1.0
  C  C1927  1  0.071300  0.456900  0.651800  1.0
  C  C1928  1  0.928700  0.543100  0.651800  1.0
  C  C1929  1  0.428700  0.956900  0.348200  1.0
  C  C1930  1  0.571300  0.043100  0.348200  1.0
  C  C1931  1  0.571300  0.956900  0.651800  1.0
  C  C1932  1  0.428700  0.043100  0.651800  1.0
  C  C1933  1  0.428700  0.456900  0.848200  1.0
  C  C1934  1  0.571300  0.543100  0.848200  1.0
  C  C1935  1  0.571300  0.456900  0.151800  1.0
  C  C1936  1  0.428700  0.543100  0.151800  1.0
  C  C1937  1  0.134100  0.129900  0.448000  1.0
  C  C1938  1  0.865900  0.870100  0.448000  1.0
  C  C1939  1  0.865900  0.129900  0.552000  1.0
  C  C1940  1  0.134100  0.870100  0.552000  1.0
  C  C1941  1  0.134100  0.629900  0.948000  1.0
  C  C1942  1  0.865900  0.370100  0.948000  1.0
  C  C1943  1  0.865900  0.629900  0.052000  1.0
  C  C1944  1  0.134100  0.370100  0.052000  1.0
  C  C1945  1  0.634100  0.129900  0.948000  1.0
  C  C1946  1  0.365900  0.870100  0.948000  1.0
  C  C1947  1  0.365900  0.129900  0.052000  1.0
  C  C1948  1  0.634100  0.870100  0.052000  1.0
  C  C1949  1  0.634100  0.629900  0.448000  1.0
  C  C1950  1  0.365900  0.370100  0.448000  1.0
  C  C1951  1  0.365900  0.629900  0.552000  1.0
  C  C1952  1  0.634100  0.370100  0.552000  1.0
  C  C1953  1  0.865900  0.870100  0.552000  1.0
  C  C1954  1  0.134100  0.129900  0.552000  1.0
  C  C1955  1  0.134100  0.870100  0.448000  1.0
  C  C1956  1  0.865900  0.129900  0.448000  1.0
  C  C1957  1  0.865900  0.370100  0.052000  1.0
  C  C1958  1  0.134100  0.629900  0.052000  1.0
  C  C1959  1  0.134100  0.370100  0.948000  1.0
  C  C1960  1  0.865900  0.629900  0.948000  1.0
  C  C1961  1  0.365900  0.870100  0.052000  1.0
  C  C1962  1  0.634100  0.129900  0.052000  1.0
  C  C1963  1  0.634100  0.870100  0.948000  1.0
  C  C1964  1  0.365900  0.129900  0.948000  1.0
  C  C1965  1  0.365900  0.370100  0.552000  1.0
  C  C1966  1  0.634100  0.629900  0.552000  1.0
  C  C1967  1  0.634100  0.370100  0.448000  1.0
  C  C1968  1  0.365900  0.629900  0.448000  1.0
  C  C1969  1  0.119800  0.090300  0.434600  1.0
  C  C1970  1  0.880200  0.909700  0.434600  1.0
  C  C1971  1  0.880200  0.090300  0.565400  1.0
  C  C1972  1  0.119800  0.909700  0.565400  1.0
  C  C1973  1  0.119800  0.590300  0.934600  1.0
  C  C1974  1  0.880200  0.409700  0.934600  1.0
  C  C1975  1  0.880200  0.590300  0.065400  1.0
  C  C1976  1  0.119800  0.409700  0.065400  1.0
  C  C1977  1  0.619800  0.090300  0.934600  1.0
  C  C1978  1  0.380200  0.909700  0.934600  1.0
  C  C1979  1  0.380200  0.090300  0.065400  1.0
  C  C1980  1  0.619800  0.909700  0.065400  1.0
  C  C1981  1  0.619800  0.590300  0.434600  1.0
  C  C1982  1  0.380200  0.409700  0.434600  1.0
  C  C1983  1  0.380200  0.590300  0.565400  1.0
  C  C1984  1  0.619800  0.409700  0.565400  1.0
  C  C1985  1  0.880200  0.909700  0.565400  1.0
  C  C1986  1  0.119800  0.090300  0.565400  1.0
  C  C1987  1  0.119800  0.909700  0.434600  1.0
  C  C1988  1  0.880200  0.090300  0.434600  1.0
  C  C1989  1  0.880200  0.409700  0.065400  1.0
  C  C1990  1  0.119800  0.590300  0.065400  1.0
  C  C1991  1  0.119800  0.409700  0.934600  1.0
  C  C1992  1  0.880200  0.590300  0.934600  1.0
  C  C1993  1  0.380200  0.909700  0.065400  1.0
  C  C1994  1  0.619800  0.090300  0.065400  1.0
  C  C1995  1  0.619800  0.909700  0.934600  1.0
  C  C1996  1  0.380200  0.090300  0.934600  1.0
  C  C1997  1  0.380200  0.409700  0.565400  1.0
  C  C1998  1  0.619800  0.590300  0.565400  1.0
  C  C1999  1  0.619800  0.409700  0.434600  1.0
  C  C2000  1  0.380200  0.590300  0.434600  1.0
  C  C2001  1  0.135800  0.046200  0.442400  1.0
  C  C2002  1  0.864200  0.953800  0.442400  1.0
  C  C2003  1  0.864200  0.046200  0.557600  1.0
  C  C2004  1  0.135800  0.953800  0.557600  1.0
  C  C2005  1  0.135800  0.546200  0.942400  1.0
  C  C2006  1  0.864200  0.453800  0.942400  1.0
  C  C2007  1  0.864200  0.546200  0.057600  1.0
  C  C2008  1  0.135800  0.453800  0.057600  1.0
  C  C2009  1  0.635800  0.046200  0.942400  1.0
  C  C2010  1  0.364200  0.953800  0.942400  1.0
  C  C2011  1  0.364200  0.046200  0.057600  1.0
  C  C2012  1  0.635800  0.953800  0.057600  1.0
  C  C2013  1  0.635800  0.546200  0.442400  1.0
  C  C2014  1  0.364200  0.453800  0.442400  1.0
  C  C2015  1  0.364200  0.546200  0.557600  1.0
  C  C2016  1  0.635800  0.453800  0.557600  1.0
  C  C2017  1  0.864200  0.953800  0.557600  1.0
  C  C2018  1  0.135800  0.046200  0.557600  1.0
  C  C2019  1  0.135800  0.953800  0.442400  1.0
  C  C2020  1  0.864200  0.046200  0.442400  1.0
  C  C2021  1  0.864200  0.453800  0.057600  1.0
  C  C2022  1  0.135800  0.546200  0.057600  1.0
  C  C2023  1  0.135800  0.453800  0.942400  1.0
  C  C2024  1  0.864200  0.546200  0.942400  1.0
  C  C2025  1  0.364200  0.953800  0.057600  1.0
  C  C2026  1  0.635800  0.046200  0.057600  1.0
  C  C2027  1  0.635800  0.953800  0.942400  1.0
  C  C2028  1  0.364200  0.046200  0.942400  1.0
  C  C2029  1  0.364200  0.453800  0.557600  1.0
  C  C2030  1  0.635800  0.546200  0.557600  1.0
  C  C2031  1  0.635800  0.453800  0.442400  1.0
  C  C2032  1  0.364200  0.546200  0.442400  1.0
  C  C2033  1  0.166100  0.041500  0.463600  1.0
  C  C2034  1  0.833900  0.958500  0.463600  1.0
  C  C2035  1  0.833900  0.041500  0.536400  1.0
  C  C2036  1  0.166100  0.958500  0.536400  1.0
  C  C2037  1  0.166100  0.541500  0.963600  1.0
  C  C2038  1  0.833900  0.458500  0.963600  1.0
  C  C2039  1  0.833900  0.541500  0.036400  1.0
  C  C2040  1  0.166100  0.458500  0.036400  1.0
  C  C2041  1  0.666100  0.041500  0.963600  1.0
  C  C2042  1  0.333900  0.958500  0.963600  1.0
  C  C2043  1  0.333900  0.041500  0.036400  1.0
  C  C2044  1  0.666100  0.958500  0.036400  1.0
  C  C2045  1  0.666100  0.541500  0.463600  1.0
  C  C2046  1  0.333900  0.458500  0.463600  1.0
  C  C2047  1  0.333900  0.541500  0.536400  1.0
  C  C2048  1  0.666100  0.458500  0.536400  1.0
  C  C2049  1  0.833900  0.958500  0.536400  1.0
  C  C2050  1  0.166100  0.041500  0.536400  1.0
  C  C2051  1  0.166100  0.958500  0.463600  1.0
  C  C2052  1  0.833900  0.041500  0.463600  1.0
  C  C2053  1  0.833900  0.458500  0.036400  1.0
  C  C2054  1  0.166100  0.541500  0.036400  1.0
  C  C2055  1  0.166100  0.458500  0.963600  1.0
  C  C2056  1  0.833900  0.541500  0.963600  1.0
  C  C2057  1  0.333900  0.958500  0.036400  1.0
  C  C2058  1  0.666100  0.041500  0.036400  1.0
  C  C2059  1  0.666100  0.958500  0.963600  1.0
  C  C2060  1  0.333900  0.041500  0.963600  1.0
  C  C2061  1  0.333900  0.458500  0.536400  1.0
  C  C2062  1  0.666100  0.541500  0.536400  1.0
  C  C2063  1  0.666100  0.458500  0.463600  1.0
  C  C2064  1  0.333900  0.541500  0.463600  1.0
  C  C2065  1  0.180400  0.081100  0.477100  1.0
  C  C2066  1  0.819600  0.918900  0.477100  1.0
  C  C2067  1  0.819600  0.081100  0.522900  1.0
  C  C2068  1  0.180400  0.918900  0.522900  1.0
  C  C2069  1  0.180400  0.581100  0.977100  1.0
  C  C2070  1  0.819600  0.418900  0.977100  1.0
  C  C2071  1  0.819600  0.581100  0.022900  1.0
  C  C2072  1  0.180400  0.418900  0.022900  1.0
  C  C2073  1  0.680400  0.081100  0.977100  1.0
  C  C2074  1  0.319600  0.918900  0.977100  1.0
  C  C2075  1  0.319600  0.081100  0.022900  1.0
  C  C2076  1  0.680400  0.918900  0.022900  1.0
  C  C2077  1  0.680400  0.581100  0.477100  1.0
  C  C2078  1  0.319600  0.418900  0.477100  1.0
  C  C2079  1  0.319600  0.581100  0.522900  1.0
  C  C2080  1  0.680400  0.418900  0.522900  1.0
  C  C2081  1  0.819600  0.918900  0.522900  1.0
  C  C2082  1  0.180400  0.081100  0.522900  1.0
  C  C2083  1  0.180400  0.918900  0.477100  1.0
  C  C2084  1  0.819600  0.081100  0.477100  1.0
  C  C2085  1  0.819600  0.418900  0.022900  1.0
  C  C2086  1  0.180400  0.581100  0.022900  1.0
  C  C2087  1  0.180400  0.418900  0.977100  1.0
  C  C2088  1  0.819600  0.581100  0.977100  1.0
  C  C2089  1  0.319600  0.918900  0.022900  1.0
  C  C2090  1  0.680400  0.081100  0.022900  1.0
  C  C2091  1  0.680400  0.918900  0.977100  1.0
  C  C2092  1  0.319600  0.081100  0.977100  1.0
  C  C2093  1  0.319600  0.418900  0.522900  1.0
  C  C2094  1  0.680400  0.581100  0.522900  1.0
  C  C2095  1  0.680400  0.418900  0.477100  1.0
  C  C2096  1  0.319600  0.581100  0.477100  1.0
  C  C2097  1  0.164400  0.125200  0.469300  1.0
  C  C2098  1  0.835600  0.874800  0.469300  1.0
  C  C2099  1  0.835600  0.125200  0.530700  1.0
  C  C2100  1  0.164400  0.874800  0.530700  1.0
  C  C2101  1  0.164400  0.625200  0.969300  1.0
  C  C2102  1  0.835600  0.374800  0.969300  1.0
  C  C2103  1  0.835600  0.625200  0.030700  1.0
  C  C2104  1  0.164400  0.374800  0.030700  1.0
  C  C2105  1  0.664400  0.125200  0.969300  1.0
  C  C2106  1  0.335600  0.874800  0.969300  1.0
  C  C2107  1  0.335600  0.125200  0.030700  1.0
  C  C2108  1  0.664400  0.874800  0.030700  1.0
  C  C2109  1  0.664400  0.625200  0.469300  1.0
  C  C2110  1  0.335600  0.374800  0.469300  1.0
  C  C2111  1  0.335600  0.625200  0.530700  1.0
  C  C2112  1  0.664400  0.374800  0.530700  1.0
  C  C2113  1  0.835600  0.874800  0.530700  1.0
  C  C2114  1  0.164400  0.125200  0.530700  1.0
  C  C2115  1  0.164400  0.874800  0.469300  1.0
  C  C2116  1  0.835600  0.125200  0.469300  1.0
  C  C2117  1  0.835600  0.374800  0.030700  1.0
  C  C2118  1  0.164400  0.625200  0.030700  1.0
  C  C2119  1  0.164400  0.374800  0.969300  1.0
  C  C2120  1  0.835600  0.625200  0.969300  1.0
  C  C2121  1  0.335600  0.874800  0.030700  1.0
  C  C2122  1  0.664400  0.125200  0.030700  1.0
  C  C2123  1  0.664400  0.874800  0.969300  1.0
  C  C2124  1  0.335600  0.125200  0.969300  1.0
  C  C2125  1  0.335600  0.374800  0.530700  1.0
  C  C2126  1  0.664400  0.625200  0.530700  1.0
  C  C2127  1  0.664400  0.374800  0.469300  1.0
  C  C2128  1  0.335600  0.625200  0.469300  1.0
  C  C2129  1  0.101800  0.207500  0.452900  1.0
  C  C2130  1  0.898200  0.792500  0.452900  1.0
  C  C2131  1  0.898200  0.207500  0.547100  1.0
  C  C2132  1  0.101800  0.792500  0.547100  1.0
  C  C2133  1  0.101800  0.707500  0.952900  1.0
  C  C2134  1  0.898200  0.292500  0.952900  1.0
  C  C2135  1  0.898200  0.707500  0.047100  1.0
  C  C2136  1  0.101800  0.292500  0.047100  1.0
  C  C2137  1  0.601800  0.207500  0.952900  1.0
  C  C2138  1  0.398200  0.792500  0.952900  1.0
  C  C2139  1  0.398200  0.207500  0.047100  1.0
  C  C2140  1  0.601800  0.792500  0.047100  1.0
  C  C2141  1  0.601800  0.707500  0.452900  1.0
  C  C2142  1  0.398200  0.292500  0.452900  1.0
  C  C2143  1  0.398200  0.707500  0.547100  1.0
  C  C2144  1  0.601800  0.292500  0.547100  1.0
  C  C2145  1  0.898200  0.792500  0.547100  1.0
  C  C2146  1  0.101800  0.207500  0.547100  1.0
  C  C2147  1  0.101800  0.792500  0.452900  1.0
  C  C2148  1  0.898200  0.207500  0.452900  1.0
  C  C2149  1  0.898200  0.292500  0.047100  1.0
  C  C2150  1  0.101800  0.707500  0.047100  1.0
  C  C2151  1  0.101800  0.292500  0.952900  1.0
  C  C2152  1  0.898200  0.707500  0.952900  1.0
  C  C2153  1  0.398200  0.792500  0.047100  1.0
  C  C2154  1  0.601800  0.207500  0.047100  1.0
  C  C2155  1  0.601800  0.792500  0.952900  1.0
  C  C2156  1  0.398200  0.207500  0.952900  1.0
  C  C2157  1  0.398200  0.292500  0.547100  1.0
  C  C2158  1  0.601800  0.707500  0.547100  1.0
  C  C2159  1  0.601800  0.292500  0.452900  1.0
  C  C2160  1  0.398200  0.707500  0.452900  1.0
  C  C2161  1  0.158900  0.108900  0.376300  1.0
  C  C2162  1  0.841100  0.891100  0.376300  1.0
  C  C2163  1  0.841100  0.108900  0.623700  1.0
  C  C2164  1  0.158900  0.891100  0.623700  1.0
  C  C2165  1  0.158900  0.608900  0.876300  1.0
  C  C2166  1  0.841100  0.391100  0.876300  1.0
  C  C2167  1  0.841100  0.608900  0.123700  1.0
  C  C2168  1  0.158900  0.391100  0.123700  1.0
  C  C2169  1  0.658900  0.108900  0.876300  1.0
  C  C2170  1  0.341100  0.891100  0.876300  1.0
  C  C2171  1  0.341100  0.108900  0.123700  1.0
  C  C2172  1  0.658900  0.891100  0.123700  1.0
  C  C2173  1  0.658900  0.608900  0.376300  1.0
  C  C2174  1  0.341100  0.391100  0.376300  1.0
  C  C2175  1  0.341100  0.608900  0.623700  1.0
  C  C2176  1  0.658900  0.391100  0.623700  1.0
  C  C2177  1  0.841100  0.891100  0.623700  1.0
  C  C2178  1  0.158900  0.108900  0.623700  1.0
  C  C2179  1  0.158900  0.891100  0.376300  1.0
  C  C2180  1  0.841100  0.108900  0.376300  1.0
  C  C2181  1  0.841100  0.391100  0.123700  1.0
  C  C2182  1  0.158900  0.608900  0.123700  1.0
  C  C2183  1  0.158900  0.391100  0.876300  1.0
  C  C2184  1  0.841100  0.608900  0.876300  1.0
  C  C2185  1  0.341100  0.891100  0.123700  1.0
  C  C2186  1  0.658900  0.108900  0.123700  1.0
  C  C2187  1  0.658900  0.891100  0.876300  1.0
  C  C2188  1  0.341100  0.108900  0.876300  1.0
  C  C2189  1  0.341100  0.391100  0.623700  1.0
  C  C2190  1  0.658900  0.608900  0.623700  1.0
  C  C2191  1  0.658900  0.391100  0.376300  1.0
  C  C2192  1  0.341100  0.608900  0.376300  1.0
  C  C2193  1  0.169300  0.064800  0.363700  1.0
  C  C2194  1  0.830700  0.935200  0.363700  1.0
  C  C2195  1  0.830700  0.064800  0.636300  1.0
  C  C2196  1  0.169300  0.935200  0.636300  1.0
  C  C2197  1  0.169300  0.564800  0.863700  1.0
  C  C2198  1  0.830700  0.435200  0.863700  1.0
  C  C2199  1  0.830700  0.564800  0.136300  1.0
  C  C2200  1  0.169300  0.435200  0.136300  1.0
  C  C2201  1  0.669300  0.064800  0.863700  1.0
  C  C2202  1  0.330700  0.935200  0.863700  1.0
  C  C2203  1  0.330700  0.064800  0.136300  1.0
  C  C2204  1  0.669300  0.935200  0.136300  1.0
  C  C2205  1  0.669300  0.564800  0.363700  1.0
  C  C2206  1  0.330700  0.435200  0.363700  1.0
  C  C2207  1  0.330700  0.564800  0.636300  1.0
  C  C2208  1  0.669300  0.435200  0.636300  1.0
  C  C2209  1  0.830700  0.935200  0.636300  1.0
  C  C2210  1  0.169300  0.064800  0.636300  1.0
  C  C2211  1  0.169300  0.935200  0.363700  1.0
  C  C2212  1  0.830700  0.064800  0.363700  1.0
  C  C2213  1  0.830700  0.435200  0.136300  1.0
  C  C2214  1  0.169300  0.564800  0.136300  1.0
  C  C2215  1  0.169300  0.435200  0.863700  1.0
  C  C2216  1  0.830700  0.564800  0.863700  1.0
  C  C2217  1  0.330700  0.935200  0.136300  1.0
  C  C2218  1  0.669300  0.064800  0.136300  1.0
  C  C2219  1  0.669300  0.935200  0.863700  1.0
  C  C2220  1  0.330700  0.064800  0.863700  1.0
  C  C2221  1  0.330700  0.435200  0.636300  1.0
  C  C2222  1  0.669300  0.564800  0.636300  1.0
  C  C2223  1  0.669300  0.435200  0.363700  1.0
  C  C2224  1  0.330700  0.564800  0.363700  1.0
  N  N2225  1  0.097800  0.000000  0.186400  1
  N  N2226  1  0.902200  0.000000  0.186400  1
  N  N2227  1  0.902200  0.000000  0.813600  1
  N  N2228  1  0.097800  0.000000  0.813600  1
  N  N2229  1  0.097800  0.500000  0.686400  1
  N  N2230  1  0.902200  0.500000  0.686400  1
  N  N2231  1  0.902200  0.500000  0.313600  1
  N  N2232  1  0.097800  0.500000  0.313600  1
  N  N2233  1  0.597800  0.000000  0.686400  1
  N  N2234  1  0.402200  0.000000  0.686400  1
  N  N2235  1  0.402200  0.000000  0.313600  1
  N  N2236  1  0.597800  0.000000  0.313600  1
  N  N2237  1  0.597800  0.500000  0.186400  1
  N  N2238  1  0.402200  0.500000  0.186400  1
  N  N2239  1  0.402200  0.500000  0.813600  1
  N  N2240  1  0.597800  0.500000  0.813600  1
  N  N2241  1  0.171600  0.000000  0.251700  1
  N  N2242  1  0.828400  0.000000  0.251700  1
  N  N2243  1  0.828400  0.000000  0.748300  1
  N  N2244  1  0.171600  0.000000  0.748300  1
  N  N2245  1  0.171600  0.500000  0.751700  1
  N  N2246  1  0.828400  0.500000  0.751700  1
  N  N2247  1  0.828400  0.500000  0.248300  1
  N  N2248  1  0.171600  0.500000  0.248300  1
  N  N2249  1  0.671600  0.000000  0.751700  1
  N  N2250  1  0.328400  0.000000  0.751700  1
  N  N2251  1  0.328400  0.000000  0.248300  1
  N  N2252  1  0.671600  0.000000  0.248300  1
  N  N2253  1  0.671600  0.500000  0.251700  1
  N  N2254  1  0.328400  0.500000  0.251700  1
  N  N2255  1  0.328400  0.500000  0.748300  1
  N  N2256  1  0.671600  0.500000  0.748300  1
  N  N2257  1  0.128500  0.241300  0.373390  1.0
  N  N2258  1  0.871500  0.758700  0.373390  1.0
  N  N2259  1  0.871500  0.241300  0.626610  1.0
  N  N2260  1  0.128500  0.758700  0.626610  1.0
  N  N2261  1  0.128500  0.741300  0.873390  1.0
  N  N2262  1  0.871500  0.258700  0.873390  1.0
  N  N2263  1  0.871500  0.741300  0.126610  1.0
  N  N2264  1  0.128500  0.258700  0.126610  1.0
  N  N2265  1  0.628500  0.241300  0.873390  1.0
  N  N2266  1  0.371500  0.758700  0.873390  1.0
  N  N2267  1  0.371500  0.241300  0.126610  1.0
  N  N2268  1  0.628500  0.758700  0.126610  1.0
  N  N2269  1  0.628500  0.741300  0.373390  1.0
  N  N2270  1  0.371500  0.258700  0.373390  1.0
  N  N2271  1  0.371500  0.741300  0.626610  1.0
  N  N2272  1  0.628500  0.258700  0.626610  1.0
  N  N2273  1  0.871500  0.758700  0.626610  1.0
  N  N2274  1  0.128500  0.241300  0.626610  1.0
  N  N2275  1  0.128500  0.758700  0.373390  1.0
  N  N2276  1  0.871500  0.241300  0.373390  1.0
  N  N2277  1  0.871500  0.258700  0.126610  1.0
  N  N2278  1  0.128500  0.741300  0.126610  1.0
  N  N2279  1  0.128500  0.258700  0.873390  1.0
  N  N2280  1  0.871500  0.741300  0.873390  1.0
  N  N2281  1  0.371500  0.758700  0.126610  1.0
  N  N2282  1  0.628500  0.241300  0.126610  1.0
  N  N2283  1  0.628500  0.758700  0.873390  1.0
  N  N2284  1  0.371500  0.241300  0.873390  1.0
  N  N2285  1  0.371500  0.258700  0.626610  1.0
  N  N2286  1  0.628500  0.741300  0.626610  1.0
  N  N2287  1  0.628500  0.258700  0.373390  1.0
  N  N2288  1  0.371500  0.741300  0.373390  1.0
  N  N2289  1  0.122700  0.174000  0.439100  1.0
  N  N2290  1  0.877300  0.826000  0.439100  1.0
  N  N2291  1  0.877300  0.174000  0.560900  1.0
  N  N2292  1  0.122700  0.826000  0.560900  1.0
  N  N2293  1  0.122700  0.674000  0.939100  1.0
  N  N2294  1  0.877300  0.326000  0.939100  1.0
  N  N2295  1  0.877300  0.674000  0.060900  1.0
  N  N2296  1  0.122700  0.326000  0.060900  1.0
  N  N2297  1  0.622700  0.174000  0.939100  1.0
  N  N2298  1  0.377300  0.826000  0.939100  1.0
  N  N2299  1  0.377300  0.174000  0.060900  1.0
  N  N2300  1  0.622700  0.826000  0.060900  1.0
  N  N2301  1  0.622700  0.674000  0.439100  1.0
  N  N2302  1  0.377300  0.326000  0.439100  1.0
  N  N2303  1  0.377300  0.674000  0.560900  1.0
  N  N2304  1  0.622700  0.326000  0.560900  1.0
  N  N2305  1  0.877300  0.826000  0.560900  1.0
  N  N2306  1  0.122700  0.174000  0.560900  1.0
  N  N2307  1  0.122700  0.826000  0.439100  1.0
  N  N2308  1  0.877300  0.174000  0.439100  1.0
  N  N2309  1  0.877300  0.326000  0.060900  1.0
  N  N2310  1  0.122700  0.674000  0.060900  1.0
  N  N2311  1  0.122700  0.326000  0.939100  1.0
  N  N2312  1  0.877300  0.674000  0.939100  1.0
  N  N2313  1  0.377300  0.826000  0.060900  1.0
  N  N2314  1  0.622700  0.174000  0.060900  1.0
  N  N2315  1  0.622700  0.826000  0.939100  1.0
  N  N2316  1  0.377300  0.174000  0.939100  1.0
  N  N2317  1  0.377300  0.326000  0.560900  1.0
  N  N2318  1  0.622700  0.674000  0.560900  1.0
  N  N2319  1  0.622700  0.326000  0.439100  1.0
  N  N2320  1  0.377300  0.674000  0.439100  1.0
  N  N2321  1  0.124000  0.070800  0.213000  1.0
  N  N2322  1  0.876000  0.929200  0.213000  1.0
  N  N2323  1  0.876000  0.070800  0.787000  1.0
  N  N2324  1  0.124000  0.929200  0.787000  1.0
  N  N2325  1  0.124000  0.570800  0.713000  1.0
  N  N2326  1  0.876000  0.429200  0.713000  1.0
  N  N2327  1  0.876000  0.570800  0.287000  1.0
  N  N2328  1  0.124000  0.429200  0.287000  1.0
  N  N2329  1  0.624000  0.070800  0.713000  1.0
  N  N2330  1  0.376000  0.929200  0.713000  1.0
  N  N2331  1  0.376000  0.070800  0.287000  1.0
  N  N2332  1  0.624000  0.929200  0.287000  1.0
  N  N2333  1  0.624000  0.570800  0.213000  1.0
  N  N2334  1  0.376000  0.429200  0.213000  1.0
  N  N2335  1  0.376000  0.570800  0.787000  1.0
  N  N2336  1  0.624000  0.429200  0.787000  1.0
  N  N2337  1  0.876000  0.929200  0.787000  1.0
  N  N2338  1  0.124000  0.070800  0.787000  1.0
  N  N2339  1  0.124000  0.929200  0.213000  1.0
  N  N2340  1  0.876000  0.070800  0.213000  1.0
  N  N2341  1  0.876000  0.429200  0.287000  1.0
  N  N2342  1  0.124000  0.570800  0.287000  1.0
  N  N2343  1  0.124000  0.429200  0.713000  1.0
  N  N2344  1  0.876000  0.570800  0.713000  1.0
  N  N2345  1  0.376000  0.929200  0.287000  1.0
  N  N2346  1  0.624000  0.070800  0.287000  1.0
  N  N2347  1  0.624000  0.929200  0.713000  1.0
  N  N2348  1  0.376000  0.070800  0.713000  1.0
  N  N2349  1  0.376000  0.429200  0.787000  1.0
  N  N2350  1  0.624000  0.570800  0.787000  1.0
  N  N2351  1  0.624000  0.429200  0.213000  1.0
  N  N2352  1  0.376000  0.570800  0.213000  1.0
  N  N2353  1  0.103800  0.254200  0.418180  1.0
  N  N2354  1  0.896200  0.745800  0.418180  1.0
  N  N2355  1  0.896200  0.254200  0.581820  1.0
  N  N2356  1  0.103800  0.745800  0.581820  1.0
  N  N2357  1  0.103800  0.754200  0.918180  1.0
  N  N2358  1  0.896200  0.245800  0.918180  1.0
  N  N2359  1  0.896200  0.754200  0.081820  1.0
  N  N2360  1  0.103800  0.245800  0.081820  1.0
  N  N2361  1  0.603800  0.254200  0.918180  1.0
  N  N2362  1  0.396200  0.745800  0.918180  1.0
  N  N2363  1  0.396200  0.254200  0.081820  1.0
  N  N2364  1  0.603800  0.745800  0.081820  1.0
  N  N2365  1  0.603800  0.754200  0.418180  1.0
  N  N2366  1  0.396200  0.245800  0.418180  1.0
  N  N2367  1  0.396200  0.754200  0.581820  1.0
  N  N2368  1  0.603800  0.245800  0.581820  1.0
  N  N2369  1  0.896200  0.745800  0.581820  1.0
  N  N2370  1  0.103800  0.254200  0.581820  1.0
  N  N2371  1  0.103800  0.745800  0.418180  1.0
  N  N2372  1  0.896200  0.254200  0.418180  1.0
  N  N2373  1  0.896200  0.245800  0.081820  1.0
  N  N2374  1  0.103800  0.754200  0.081820  1.0
  N  N2375  1  0.103800  0.245800  0.918180  1.0
  N  N2376  1  0.896200  0.754200  0.918180  1.0
  N  N2377  1  0.396200  0.745800  0.081820  1.0
  N  N2378  1  0.603800  0.254200  0.081820  1.0
  N  N2379  1  0.603800  0.745800  0.918180  1.0
  N  N2380  1  0.396200  0.254200  0.918180  1.0
  N  N2381  1  0.396200  0.245800  0.581820  1.0
  N  N2382  1  0.603800  0.754200  0.581820  1.0
  N  N2383  1  0.603800  0.245800  0.418180  1.0
  N  N2384  1  0.396200  0.754200  0.418180  1.0
  N  N2385  1  0.150600  0.144100  0.386350  1.0
  N  N2386  1  0.849400  0.855900  0.386350  1.0
  N  N2387  1  0.849400  0.144100  0.613650  1.0
  N  N2388  1  0.150600  0.855900  0.613650  1.0
  N  N2389  1  0.150600  0.644100  0.886350  1.0
  N  N2390  1  0.849400  0.355900  0.886350  1.0
  N  N2391  1  0.849400  0.644100  0.113650  1.0
  N  N2392  1  0.150600  0.355900  0.113650  1.0
  N  N2393  1  0.650600  0.144100  0.886350  1.0
  N  N2394  1  0.349400  0.855900  0.886350  1.0
  N  N2395  1  0.349400  0.144100  0.113650  1.0
  N  N2396  1  0.650600  0.855900  0.113650  1.0
  N  N2397  1  0.650600  0.644100  0.386350  1.0
  N  N2398  1  0.349400  0.355900  0.386350  1.0
  N  N2399  1  0.349400  0.644100  0.613650  1.0
  N  N2400  1  0.650600  0.355900  0.613650  1.0
  N  N2401  1  0.849400  0.855900  0.613650  1.0
  N  N2402  1  0.150600  0.144100  0.613650  1.0
  N  N2403  1  0.150600  0.855900  0.386350  1.0
  N  N2404  1  0.849400  0.144100  0.386350  1.0
  N  N2405  1  0.849400  0.355900  0.113650  1.0
  N  N2406  1  0.150600  0.644100  0.113650  1.0
  N  N2407  1  0.150600  0.355900  0.886350  1.0
  N  N2408  1  0.849400  0.644100  0.886350  1.0
  N  N2409  1  0.349400  0.855900  0.113650  1.0
  N  N2410  1  0.650600  0.144100  0.113650  1.0
  N  N2411  1  0.650600  0.855900  0.886350  1.0
  N  N2412  1  0.349400  0.144100  0.886350  1.0
  N  N2413  1  0.349400  0.355900  0.613650  1.0
  N  N2414  1  0.650600  0.644100  0.613650  1.0
  N  N2415  1  0.650600  0.355900  0.386350  1.0
  N  N2416  1  0.349400  0.644100  0.386350  1.0
  O  O2417  1  0.184300  0.000000  0.473300  1
  O  O2418  1  0.815700  0.000000  0.473300  1
  O  O2419  1  0.815700  0.000000  0.526700  1
  O  O2420  1  0.184300  0.000000  0.526700  1
  O  O2421  1  0.184300  0.500000  0.973300  1
  O  O2422  1  0.815700  0.500000  0.973300  1
  O  O2423  1  0.815700  0.500000  0.026700  1
  O  O2424  1  0.184300  0.500000  0.026700  1
  O  O2425  1  0.684300  0.000000  0.973300  1
  O  O2426  1  0.315700  0.000000  0.973300  1
  O  O2427  1  0.315700  0.000000  0.026700  1
  O  O2428  1  0.684300  0.000000  0.026700  1
  O  O2429  1  0.684300  0.500000  0.473300  1
  O  O2430  1  0.315700  0.500000  0.473300  1
  O  O2431  1  0.315700  0.500000  0.526700  1
  O  O2432  1  0.684300  0.500000  0.526700  1
  O  O2433  1  0.195900  0.207800  0.277590  1.0
  O  O2434  1  0.804100  0.792200  0.277590  1.0
  O  O2435  1  0.804100  0.207800  0.722410  1.0
  O  O2436  1  0.195900  0.792200  0.722410  1.0
  O  O2437  1  0.195900  0.707800  0.777590  1.0
  O  O2438  1  0.804100  0.292200  0.777590  1.0
  O  O2439  1  0.804100  0.707800  0.222410  1.0
  O  O2440  1  0.195900  0.292200  0.222410  1.0
  O  O2441  1  0.695900  0.207800  0.777590  1.0
  O  O2442  1  0.304100  0.792200  0.777590  1.0
  O  O2443  1  0.304100  0.207800  0.222410  1.0
  O  O2444  1  0.695900  0.792200  0.222410  1.0
  O  O2445  1  0.695900  0.707800  0.277590  1.0
  O  O2446  1  0.304100  0.292200  0.277590  1.0
  O  O2447  1  0.304100  0.707800  0.722410  1.0
  O  O2448  1  0.695900  0.292200  0.722410  1.0
  O  O2449  1  0.804100  0.792200  0.722410  1.0
  O  O2450  1  0.195900  0.207800  0.722410  1.0
  O  O2451  1  0.195900  0.792200  0.277590  1.0
  O  O2452  1  0.804100  0.207800  0.277590  1.0
  O  O2453  1  0.804100  0.292200  0.222410  1.0
  O  O2454  1  0.195900  0.707800  0.222410  1.0
  O  O2455  1  0.195900  0.292200  0.777590  1.0
  O  O2456  1  0.804100  0.707800  0.777590  1.0
  O  O2457  1  0.304100  0.792200  0.222410  1.0
  O  O2458  1  0.695900  0.207800  0.222410  1.0
  O  O2459  1  0.695900  0.792200  0.777590  1.0
  O  O2460  1  0.304100  0.207800  0.777590  1.0
  O  O2461  1  0.304100  0.292200  0.722410  1.0
  O  O2462  1  0.695900  0.707800  0.722410  1.0
  O  O2463  1  0.695900  0.292200  0.277590  1.0
  O  O2464  1  0.304100  0.707800  0.277590  1.0
  F  F2465  1  0.202400  0.421300  0.339500  1
  F  F2466  1  0.797600  0.578700  0.339500  1
  F  F2467  1  0.797600  0.421300  0.660500  1
  F  F2468  1  0.202400  0.578700  0.660500  1
  F  F2469  1  0.202400  0.921300  0.839500  1
  F  F2470  1  0.797600  0.078700  0.839500  1
  F  F2471  1  0.797600  0.921300  0.160500  1
  F  F2472  1  0.202400  0.078700  0.160500  1
  F  F2473  1  0.702400  0.421300  0.839500  1
  F  F2474  1  0.297600  0.578700  0.839500  1
  F  F2475  1  0.297600  0.421300  0.160500  1
  F  F2476  1  0.702400  0.578700  0.160500  1
  F  F2477  1  0.702400  0.921300  0.339500  1
  F  F2478  1  0.297600  0.078700  0.339500  1
  F  F2479  1  0.297600  0.921300  0.660500  1
  F  F2480  1  0.702400  0.078700  0.660500  1
  F  F2481  1  0.797600  0.578700  0.660500  1
  F  F2482  1  0.202400  0.421300  0.660500  1
  F  F2483  1  0.202400  0.578700  0.339500  1
  F  F2484  1  0.797600  0.421300  0.339500  1
  F  F2485  1  0.797600  0.078700  0.160500  1
  F  F2486  1  0.202400  0.921300  0.160500  1
  F  F2487  1  0.202400  0.078700  0.839500  1
  F  F2488  1  0.797600  0.921300  0.839500  1
  F  F2489  1  0.297600  0.578700  0.160500  1
  F  F2490  1  0.702400  0.421300  0.160500  1
  F  F2491  1  0.702400  0.578700  0.839500  1
  F  F2492  1  0.297600  0.421300  0.839500  1
  F  F2493  1  0.297600  0.078700  0.660500  1
  F  F2494  1  0.702400  0.921300  0.660500  1
  F  F2495  1  0.702400  0.078700  0.339500  1
  F  F2496  1  0.297600  0.921300  0.339500  1
  F  F2497  1  0.232000  0.372200  0.370000  1
  F  F2498  1  0.768000  0.627800  0.370000  1
  F  F2499  1  0.768000  0.372200  0.630000  1
  F  F2500  1  0.232000  0.627800  0.630000  1
  F  F2501  1  0.232000  0.872200  0.870000  1
  F  F2502  1  0.768000  0.127800  0.870000  1
  F  F2503  1  0.768000  0.872200  0.130000  1
  F  F2504  1  0.232000  0.127800  0.130000  1
  F  F2505  1  0.732000  0.372200  0.870000  1
  F  F2506  1  0.268000  0.627800  0.870000  1
  F  F2507  1  0.268000  0.372200  0.130000  1
  F  F2508  1  0.732000  0.627800  0.130000  1
  F  F2509  1  0.732000  0.872200  0.370000  1
  F  F2510  1  0.268000  0.127800  0.370000  1
  F  F2511  1  0.268000  0.872200  0.630000  1
  F  F2512  1  0.732000  0.127800  0.630000  1
  F  F2513  1  0.768000  0.627800  0.630000  1
  F  F2514  1  0.232000  0.372200  0.630000  1
  F  F2515  1  0.232000  0.627800  0.370000  1
  F  F2516  1  0.768000  0.372200  0.370000  1
  F  F2517  1  0.768000  0.127800  0.130000  1
  F  F2518  1  0.232000  0.872200  0.130000  1
  F  F2519  1  0.232000  0.127800  0.870000  1
  F  F2520  1  0.768000  0.872200  0.870000  1
  F  F2521  1  0.268000  0.627800  0.130000  1
  F  F2522  1  0.732000  0.372200  0.130000  1
  F  F2523  1  0.732000  0.627800  0.870000  1
  F  F2524  1  0.268000  0.372200  0.870000  1
  F  F2525  1  0.268000  0.127800  0.630000  1
  F  F2526  1  0.732000  0.872200  0.630000  1
  F  F2527  1  0.732000  0.127800  0.370000  1
  F  F2528  1  0.268000  0.872200  0.370000  1
  F  F2529  1  0.176800  0.348900  0.340090  1
  F  F2530  1  0.823200  0.651100  0.340090  1
  F  F2531  1  0.823200  0.348900  0.659910  1
  F  F2532  1  0.176800  0.651100  0.659910  1
  F  F2533  1  0.176800  0.848900  0.840090  1
  F  F2534  1  0.823200  0.151100  0.840090  1
  F  F2535  1  0.823200  0.848900  0.159910  1
  F  F2536  1  0.176800  0.151100  0.159910  1
  F  F2537  1  0.676800  0.348900  0.840090  1
  F  F2538  1  0.323200  0.651100  0.840090  1
  F  F2539  1  0.323200  0.348900  0.159910  1
  F  F2540  1  0.676800  0.651100  0.159910  1
  F  F2541  1  0.676800  0.848900  0.340090  1
  F  F2542  1  0.323200  0.151100  0.340090  1
  F  F2543  1  0.323200  0.848900  0.659910  1
  F  F2544  1  0.676800  0.151100  0.659910  1
  F  F2545  1  0.823200  0.651100  0.659910  1
  F  F2546  1  0.176800  0.348900  0.659910  1
  F  F2547  1  0.176800  0.651100  0.340090  1
  F  F2548  1  0.823200  0.348900  0.340090  1
  F  F2549  1  0.823200  0.151100  0.159910  1
  F  F2550  1  0.176800  0.848900  0.159910  1
  F  F2551  1  0.176800  0.151100  0.840090  1
  F  F2552  1  0.823200  0.848900  0.840090  1
  F  F2553  1  0.323200  0.651100  0.159910  1
  F  F2554  1  0.676800  0.348900  0.159910  1
  F  F2555  1  0.676800  0.651100  0.840090  1
  F  F2556  1  0.323200  0.348900  0.840090  1
  F  F2557  1  0.323200  0.151100  0.659910  1
  F  F2558  1  0.676800  0.848900  0.659910  1
  F  F2559  1  0.676800  0.151100  0.340090  1
  F  F2560  1  0.323200  0.848900  0.340090  1
  F  F2561  1  0.146400  0.388600  0.372400  1
  F  F2562  1  0.853600  0.611400  0.372400  1
  F  F2563  1  0.853600  0.388600  0.627600  1
  F  F2564  1  0.146400  0.611400  0.627600  1
  F  F2565  1  0.146400  0.888600  0.872400  1
  F  F2566  1  0.853600  0.111400  0.872400  1
  F  F2567  1  0.853600  0.888600  0.127600  1
  F  F2568  1  0.146400  0.111400  0.127600  1
  F  F2569  1  0.646400  0.388600  0.872400  1
  F  F2570  1  0.353600  0.611400  0.872400  1
  F  F2571  1  0.353600  0.388600  0.127600  1
  F  F2572  1  0.646400  0.611400  0.127600  1
  F  F2573  1  0.646400  0.888600  0.372400  1
  F  F2574  1  0.353600  0.111400  0.372400  1
  F  F2575  1  0.353600  0.888600  0.627600  1
  F  F2576  1  0.646400  0.111400  0.627600  1
  F  F2577  1  0.853600  0.611400  0.627600  1
  F  F2578  1  0.146400  0.388600  0.627600  1
  F  F2579  1  0.146400  0.611400  0.372400  1
  F  F2580  1  0.853600  0.388600  0.372400  1
  F  F2581  1  0.853600  0.111400  0.127600  1
  F  F2582  1  0.146400  0.888600  0.127600  1
  F  F2583  1  0.146400  0.111400  0.872400  1
  F  F2584  1  0.853600  0.888600  0.872400  1
  F  F2585  1  0.353600  0.611400  0.127600  1
  F  F2586  1  0.646400  0.388600  0.127600  1
  F  F2587  1  0.646400  0.611400  0.872400  1
  F  F2588  1  0.353600  0.388600  0.872400  1
  F  F2589  1  0.353600  0.111400  0.627600  1
  F  F2590  1  0.646400  0.888600  0.627600  1
  F  F2591  1  0.646400  0.111400  0.372400  1
  F  F2592  1  0.353600  0.888600  0.372400  1
  F  F2593  1  0.000000  0.133600  0.130000  1
  F  F2594  1  0.000000  0.866400  0.130000  1
  F  F2595  1  0.000000  0.133600  0.870000  1
  F  F2596  1  0.000000  0.866400  0.870000  1
  F  F2597  1  0.000000  0.633600  0.630000  1
  F  F2598  1  0.000000  0.366400  0.630000  1
  F  F2599  1  0.000000  0.633600  0.370000  1
  F  F2600  1  0.000000  0.366400  0.370000  1
  F  F2601  1  0.500000  0.133600  0.630000  1
  F  F2602  1  0.500000  0.866400  0.630000  1
  F  F2603  1  0.500000  0.133600  0.370000  1
  F  F2604  1  0.500000  0.866400  0.370000  1
  F  F2605  1  0.500000  0.633600  0.130000  1
  F  F2606  1  0.500000  0.366400  0.130000  1
  F  F2607  1  0.500000  0.633600  0.870000  1
  F  F2608  1  0.500000  0.366400  0.870000  1
  F  F2609  1  0.000000  0.210400  0.141000  1
  F  F2610  1  0.000000  0.789600  0.141000  1
  F  F2611  1  0.000000  0.210400  0.859000  1
  F  F2612  1  0.000000  0.789600  0.859000  1
  F  F2613  1  0.000000  0.710400  0.641000  1
  F  F2614  1  0.000000  0.289600  0.641000  1
  F  F2615  1  0.000000  0.710400  0.359000  1
  F  F2616  1  0.000000  0.289600  0.359000  1
  F  F2617  1  0.500000  0.210400  0.641000  1
  F  F2618  1  0.500000  0.789600  0.641000  1
  F  F2619  1  0.500000  0.210400  0.359000  1
  F  F2620  1  0.500000  0.789600  0.359000  1
  F  F2621  1  0.500000  0.710400  0.141000  1
  F  F2622  1  0.500000  0.289600  0.141000  1
  F  F2623  1  0.500000  0.710400  0.859000  1
  F  F2624  1  0.500000  0.289600  0.859000  1
  F  F2625  1  0.000000  0.155100  0.429200  1
  F  F2626  1  0.000000  0.844900  0.429200  1
  F  F2627  1  0.000000  0.155100  0.570800  1
  F  F2628  1  0.000000  0.844900  0.570800  1
  F  F2629  1  0.000000  0.655100  0.929200  1
  F  F2630  1  0.000000  0.344900  0.929200  1
  F  F2631  1  0.000000  0.655100  0.070800  1
  F  F2632  1  0.000000  0.344900  0.070800  1
  F  F2633  1  0.500000  0.155100  0.929200  1
  F  F2634  1  0.500000  0.844900  0.929200  1
  F  F2635  1  0.500000  0.155100  0.070800  1
  F  F2636  1  0.500000  0.844900  0.070800  1
  F  F2637  1  0.500000  0.655100  0.429200  1
  F  F2638  1  0.500000  0.344900  0.429200  1
  F  F2639  1  0.500000  0.655100  0.570800  1
  F  F2640  1  0.500000  0.344900  0.570800  1
  F  F2641  1  0.000000  0.206100  0.399200  1
  F  F2642  1  0.000000  0.793900  0.399200  1
  F  F2643  1  0.000000  0.206100  0.600800  1
  F  F2644  1  0.000000  0.793900  0.600800  1
  F  F2645  1  0.000000  0.706100  0.899200  1
  F  F2646  1  0.000000  0.293900  0.899200  1
  F  F2647  1  0.000000  0.706100  0.100800  1
  F  F2648  1  0.000000  0.293900  0.100800  1
  F  F2649  1  0.500000  0.206100  0.899200  1
  F  F2650  1  0.500000  0.793900  0.899200  1
  F  F2651  1  0.500000  0.206100  0.100800  1
  F  F2652  1  0.500000  0.793900  0.100800  1
  F  F2653  1  0.500000  0.706100  0.399200  1
  F  F2654  1  0.500000  0.293900  0.399200  1
  F  F2655  1  0.500000  0.706100  0.600800  1
  F  F2656  1  0.500000  0.293900  0.600800  1
  F  F2657  1  0.000000  0.077600  0.406900  1
  F  F2658  1  0.000000  0.922400  0.406900  1
  F  F2659  1  0.000000  0.077600  0.593100  1
  F  F2660  1  0.000000  0.922400  0.593100  1
  F  F2661  1  0.000000  0.577600  0.906900  1
  F  F2662  1  0.000000  0.422400  0.906900  1
  F  F2663  1  0.000000  0.577600  0.093100  1
  F  F2664  1  0.000000  0.422400  0.093100  1
  F  F2665  1  0.500000  0.077600  0.906900  1
  F  F2666  1  0.500000  0.922400  0.906900  1
  F  F2667  1  0.500000  0.077600  0.093100  1
  F  F2668  1  0.500000  0.922400  0.093100  1
  F  F2669  1  0.500000  0.577600  0.406900  1
  F  F2670  1  0.500000  0.422400  0.406900  1
  F  F2671  1  0.500000  0.577600  0.593100  1
  F  F2672  1  0.500000  0.422400  0.593100  1
  F  F2673  1  0.500000  0.235000  0.000000  1
  F  F2674  1  0.500000  0.765000  0.000000  1
  F  F2675  1  0.500000  0.735000  0.500000  1
  F  F2676  1  0.500000  0.265000  0.500000  1
  F  F2677  1  0.000000  0.235000  0.500000  1
  F  F2678  1  0.000000  0.765000  0.500000  1
  F  F2679  1  0.000000  0.735000  0.000000  1
  F  F2680  1  0.000000  0.265000  0.000000  1
  F  F2681  1  0.044800  0.156800  0.163530  1.0
  F  F2682  1  0.955200  0.843200  0.163530  1.0
  F  F2683  1  0.955200  0.156800  0.836470  1.0
  F  F2684  1  0.044800  0.843200  0.836470  1.0
  F  F2685  1  0.044800  0.656800  0.663530  1.0
  F  F2686  1  0.955200  0.343200  0.663530  1.0
  F  F2687  1  0.955200  0.656800  0.336470  1.0
  F  F2688  1  0.044800  0.343200  0.336470  1.0
  F  F2689  1  0.544800  0.156800  0.663530  1.0
  F  F2690  1  0.455200  0.843200  0.663530  1.0
  F  F2691  1  0.455200  0.156800  0.336470  1.0
  F  F2692  1  0.544800  0.843200  0.336470  1.0
  F  F2693  1  0.544800  0.656800  0.163530  1.0
  F  F2694  1  0.455200  0.343200  0.163530  1.0
  F  F2695  1  0.455200  0.656800  0.836470  1.0
  F  F2696  1  0.544800  0.343200  0.836470  1.0
  F  F2697  1  0.955200  0.843200  0.836470  1.0
  F  F2698  1  0.044800  0.156800  0.836470  1.0
  F  F2699  1  0.044800  0.843200  0.163530  1.0
  F  F2700  1  0.955200  0.156800  0.163530  1.0
  F  F2701  1  0.955200  0.343200  0.336470  1.0
  F  F2702  1  0.044800  0.656800  0.336470  1.0
  F  F2703  1  0.044800  0.343200  0.663530  1.0
  F  F2704  1  0.955200  0.656800  0.663530  1.0
  F  F2705  1  0.455200  0.843200  0.336470  1.0
  F  F2706  1  0.544800  0.156800  0.336470  1.0
  F  F2707  1  0.544800  0.843200  0.663530  1.0
  F  F2708  1  0.455200  0.156800  0.663530  1.0
  F  F2709  1  0.455200  0.343200  0.836470  1.0
  F  F2710  1  0.544800  0.656800  0.836470  1.0
  F  F2711  1  0.544800  0.343200  0.163530  1.0
  F  F2712  1  0.455200  0.656800  0.163530  1.0
  F  F2713  1  0.454400  0.164500  0.000000  1.0
  F  F2714  1  0.545600  0.835500  0.000000  1.0
  F  F2715  1  0.545600  0.164500  0.000000  1.0
  F  F2716  1  0.454400  0.835500  0.000000  1.0
  F  F2717  1  0.454400  0.664500  0.500000  1.0
  F  F2718  1  0.545600  0.335500  0.500000  1.0
  F  F2719  1  0.545600  0.664500  0.500000  1.0
  F  F2720  1  0.454400  0.335500  0.500000  1.0
  F  F2721  1  0.954400  0.164500  0.500000  1.0
  F  F2722  1  0.045600  0.835500  0.500000  1.0
  F  F2723  1  0.045600  0.164500  0.500000  1.0
  F  F2724  1  0.954400  0.835500  0.500000  1.0
  F  F2725  1  0.954400  0.664500  0.000000  1.0
  F  F2726  1  0.045600  0.335500  0.000000  1.0
  F  F2727  1  0.045600  0.664500  0.000000  1.0
  F  F2728  1  0.954400  0.335500  0.000000  1.0
  F  F2729  1  0.500000  0.189900  0.027700  1.0
  F  F2730  1  0.500000  0.810100  0.027700  1.0
  F  F2731  1  0.500000  0.189900  0.972300  1.0
  F  F2732  1  0.500000  0.810100  0.972300  1.0
  F  F2733  1  0.500000  0.689900  0.527700  1.0
  F  F2734  1  0.500000  0.310100  0.527700  1.0
  F  F2735  1  0.500000  0.689900  0.472300  1.0
  F  F2736  1  0.500000  0.310100  0.472300  1.0
  F  F2737  1  0.000000  0.189900  0.527700  1.0
  F  F2738  1  0.000000  0.810100  0.527700  1.0
  F  F2739  1  0.000000  0.189900  0.472300  1.0
  F  F2740  1  0.000000  0.810100  0.472300  1.0
  F  F2741  1  0.000000  0.689900  0.027700  1.0
  F  F2742  1  0.000000  0.310100  0.027700  1.0
  F  F2743  1  0.000000  0.689900  0.972300  1.0
  F  F2744  1  0.000000  0.310100  0.972300  1.0
  F  F2745  1  0.045900  0.000000  0.251240  1.0
  F  F2746  1  0.954100  0.000000  0.251240  1.0
  F  F2747  1  0.954100  0.000000  0.748760  1.0
  F  F2748  1  0.045900  0.000000  0.748760  1.0
  F  F2749  1  0.045900  0.500000  0.751240  1.0
  F  F2750  1  0.954100  0.500000  0.751240  1.0
  F  F2751  1  0.954100  0.500000  0.248760  1.0
  F  F2752  1  0.045900  0.500000  0.248760  1.0
  F  F2753  1  0.545900  0.000000  0.751240  1.0
  F  F2754  1  0.454100  0.000000  0.751240  1.0
  F  F2755  1  0.454100  0.000000  0.248760  1.0
  F  F2756  1  0.545900  0.000000  0.248760  1.0
  F  F2757  1  0.545900  0.500000  0.251240  1.0
  F  F2758  1  0.454100  0.500000  0.251240  1.0
  F  F2759  1  0.454100  0.500000  0.748760  1.0
  F  F2760  1  0.545900  0.500000  0.748760  1.0
  F  F2761  1  0.000000  0.036300  0.220900  1.0
  F  F2762  1  0.000000  0.963700  0.220900  1.0
  F  F2763  1  0.000000  0.036300  0.779100  1.0
  F  F2764  1  0.000000  0.963700  0.779100  1.0
  F  F2765  1  0.000000  0.536300  0.720900  1.0
  F  F2766  1  0.000000  0.463700  0.720900  1.0
  F  F2767  1  0.000000  0.536300  0.279100  1.0
  F  F2768  1  0.000000  0.463700  0.279100  1.0
  F  F2769  1  0.500000  0.036300  0.720900  1.0
  F  F2770  1  0.500000  0.963700  0.720900  1.0
  F  F2771  1  0.500000  0.036300  0.279100  1.0
  F  F2772  1  0.500000  0.963700  0.279100  1.0
  F  F2773  1  0.500000  0.536300  0.220900  1.0
  F  F2774  1  0.500000  0.463700  0.220900  1.0
  F  F2775  1  0.500000  0.536300  0.779100  1.0
  F  F2776  1  0.500000  0.463700  0.779100  1.0
  F  F2777  1  0.951100  0.145900  0.389300  1.0
  F  F2778  1  0.048900  0.854100  0.389300  1.0
  F  F2779  1  0.048900  0.145900  0.610700  1.0
  F  F2780  1  0.951100  0.854100  0.610700  1.0
  F  F2781  1  0.951100  0.645900  0.889300  1.0
  F  F2782  1  0.048900  0.354100  0.889300  1.0
  F  F2783  1  0.048900  0.645900  0.110700  1.0
  F  F2784  1  0.951100  0.354100  0.110700  1.0
  F  F2785  1  0.451100  0.145900  0.889300  1.0
  F  F2786  1  0.548900  0.854100  0.889300  1.0
  F  F2787  1  0.548900  0.145900  0.110700  1.0
  F  F2788  1  0.451100  0.854100  0.110700  1.0
  F  F2789  1  0.451100  0.645900  0.389300  1.0
  F  F2790  1  0.548900  0.354100  0.389300  1.0
  F  F2791  1  0.548900  0.645900  0.610700  1.0
  F  F2792  1  0.451100  0.354100  0.610700  1.0
  F  F2793  1  0.048900  0.854100  0.610700  1.0
  F  F2794  1  0.951100  0.145900  0.610700  1.0
  F  F2795  1  0.951100  0.854100  0.389300  1.0
  F  F2796  1  0.048900  0.145900  0.389300  1.0
  F  F2797  1  0.048900  0.354100  0.110700  1.0
  F  F2798  1  0.951100  0.645900  0.110700  1.0
  F  F2799  1  0.951100  0.354100  0.889300  1.0
  F  F2800  1  0.048900  0.645900  0.889300  1.0
  F  F2801  1  0.548900  0.854100  0.110700  1.0
  F  F2802  1  0.451100  0.145900  0.110700  1.0
  F  F2803  1  0.451100  0.854100  0.889300  1.0
  F  F2804  1  0.548900  0.145900  0.889300  1.0
  F  F2805  1  0.548900  0.354100  0.610700  1.0
  F  F2806  1  0.451100  0.645900  0.610700  1.0
  F  F2807  1  0.451100  0.354100  0.389300  1.0
  F  F2808  1  0.548900  0.645900  0.389300  1.0
