
#######################################################################
#
#                 Cambridge Crystallographic Data Centre
#                                CCDC 
#
#######################################################################
#
# If this CIF has been generated from an entry in the Cambridge 
# Structural Database, then it will include bibliographic, chemical, 
# crystal, experimental, refinement or atomic coordinate data resulting 
# from the CCDC's data processing and validation procedures.
#
#######################################################################

data_VOGXOG
_chemical_formula_moiety         
'C42 H32 N8 O4 Pd2 S2 4+,2.5(C2 H3 N1),4(B1 F4 1-)'
_chemical_name_systematic        
'(\m~2~-2,22-dithia-8,16,28,36,42,45-hexaazaheptacyclo[35.3.1.1^3,7^.1^10,14^.1^17,21^.1^23,27^.1^30,34^]hexatetraconta-1(41),3(46),4,6,8,10(45),11,13,15,17(44),18,20,23(43),24,26,28,30(42),31,33,35,37,39-docosaene 2,2,22,22-tetraoxide)-bis(acetonitrile)-di-palladium(ii) tetrakis(tetrafluoroborate) acetonitrile unknown solvate'
_symmetry_cell_setting           monoclinic
_symmetry_space_group_name_H-M   'C 2/m'
_symmetry_Int_Tables_number      12
_space_group_name_Hall           '-C 2y'
loop_
_symmetry_equiv_pos_site_id
_symmetry_equiv_pos_as_xyz
1 x,y,z
2 -x,y,-z
3 1/2+x,1/2+y,z
4 1/2-x,1/2+y,-z
5 -x,-y,-z
6 x,-y,z
7 1/2-x,1/2-y,-z
8 1/2+x,1/2-y,z
_cell_length_a                   24.8487(11)
_cell_length_b                   13.0932(4)
_cell_length_c                   23.7057(10)
_cell_angle_alpha                90
_cell_angle_beta                 114.602(5)
_cell_angle_gamma                90
_cell_volume                     7012.49
_exptl_crystal_colour            yellow
_exptl_crystal_description       block
_cell_formula_units_Z            4
loop_
_atom_site_label
_atom_site_type_symbol
_atom_site_fract_x
_atom_site_fract_y
_atom_site_fract_z
Pd1 Pd 0.005664(18) 0.24149(3) 0.249945(17)
N1 N 0.0909(3) 0.2334(5) 0.3151(3)
N2 N 0.04530(19) 0.1987(4) 0.1999(2)
N3 N -0.0645(2) 0.2406(3) 0.1637(2)
N4 N -0.0352(2) 0.2790(4) 0.3045(2)
S1 S 0.07798(9) 0.5000 0.46668(9)
S2 S -0.20005(8) 0.5000 0.20239(11)
O1 O 0.0914(3) 0.5000 0.5310(3)
O2 O 0.0174(3) 0.5000 0.4213(3)
O3 O -0.1527(2) 0.5000 0.2635(3)
O4 O -0.2607(2) 0.5000 0.1932(3)
C1 C 0.1111(2) 0.3905(4) 0.4511(2)
C2 C 0.1512(3) 0.3343(5) 0.5002(3)
H1 H 0.1641 0.3577 0.5417
C3 C 0.1718(4) 0.2441(5) 0.4872(3)
H2 H 0.2001 0.2058 0.5203
C4 C 0.1523(3) 0.2080(6) 0.4277(3)
H3 H 0.1660 0.1443 0.4197
C5 C 0.1123(3) 0.2661(5) 0.3792(3)
C6 C 0.0910(2) 0.3565(4) 0.3905(2)
H4 H 0.0629 0.3952 0.3573
C7 C 0.1302(3) 0.2104(5) 0.2931(3)
H5 H 0.1717 0.2107 0.3177
C8 C 0.1032(2) 0.1844(5) 0.2266(3)
C9 C 0.1322(3) 0.1514(6) 0.1906(3)
H6 H 0.1738 0.1408 0.2087
C10 C 0.0993(3) 0.1348(7) 0.1288(3)
H7 H 0.1185 0.1119 0.1038
C11 C 0.0393(3) 0.1504(7) 0.1020(3)
H8 H 0.0169 0.1381 0.0590
C12 C 0.0121(2) 0.1843(5) 0.1388(3)
C13 C -0.0497(3) 0.2093(5) 0.1216(3)
H9 H -0.0782 0.2025 0.0800
C14 C -0.1243(3) 0.2737(5) 0.1487(3)
C15 C -0.1725(3) 0.2229(6) 0.1034(4)
H10 H -0.1664 0.1650 0.0826
C16 C -0.2282(3) 0.2579(7) 0.0896(5)
H11 H -0.2611 0.2234 0.0592
C17 C -0.2377(3) 0.3423(6) 0.1188(3)
H12 H -0.2768 0.3656 0.1089
C18 C -0.1897(2) 0.3929(5) 0.1627(3)
C19 C -0.1323(2) 0.3588(4) 0.1780(3)
H13 H -0.0994 0.3937 0.2082
C20 C -0.0563(3) 0.2985(5) 0.3369(3)
C21 C -0.0843(4) 0.3278(7) 0.3769(4)
H14 H -0.0647 0.3887 0.4006
H15 H -0.0810 0.2718 0.4056
H16 H -0.1261 0.3428 0.3518
N1E N 0.0909(3) 0.7666(5) 0.3151(3)
N2E N 0.04530(19) 0.8013(4) 0.1999(2)
N3E N -0.0645(2) 0.7594(3) 0.1637(2)
C1E C 0.1111(2) 0.6095(4) 0.4511(2)
C2E C 0.1512(3) 0.6657(5) 0.5002(3)
H1E H 0.1641 0.6423 0.5417
C3E C 0.1718(4) 0.7559(5) 0.4872(3)
H2E H 0.2001 0.7942 0.5203
C4E C 0.1523(3) 0.7920(6) 0.4277(3)
H3E H 0.1660 0.8557 0.4197
C5E C 0.1123(3) 0.7339(5) 0.3792(3)
C6E C 0.0910(2) 0.6435(4) 0.3905(2)
H4E H 0.0629 0.6048 0.3573
C7E C 0.1302(3) 0.7896(5) 0.2931(3)
H5E H 0.1717 0.7893 0.3177
C8E C 0.1032(2) 0.8156(5) 0.2266(3)
C9E C 0.1322(3) 0.8486(6) 0.1906(3)
H6E H 0.1738 0.8592 0.2087
C10E C 0.0993(3) 0.8652(7) 0.1288(3)
H7E H 0.1185 0.8881 0.1038
C11E C 0.0393(3) 0.8496(7) 0.1020(3)
H8E H 0.0169 0.8619 0.0590
C12E C 0.0121(2) 0.8157(5) 0.1388(3)
C13E C -0.0497(3) 0.7907(5) 0.1216(3)
H9E H -0.0782 0.7975 0.0800
C14E C -0.1243(3) 0.7263(5) 0.1487(3)
C15E C -0.1725(3) 0.7771(6) 0.1034(4)
H10E H -0.1664 0.8350 0.0826
C16E C -0.2282(3) 0.7421(7) 0.0896(5)
H11E H -0.2611 0.7766 0.0592
C17E C -0.2377(3) 0.6577(6) 0.1188(3)
H12E H -0.2768 0.6344 0.1089
C18E C -0.1897(2) 0.6071(5) 0.1627(3)
C19E C -0.1323(2) 0.6412(4) 0.1780(3)
H13E H -0.0994 0.6063 0.2082
Pd1E Pd 0.005664(18) 0.75851(3) 0.249945(17)
N4E N -0.0352(2) 0.7210(4) 0.3045(2)
C20E C -0.0563(3) 0.7015(5) 0.3369(3)
C21E C -0.0843(4) 0.6722(7) 0.3769(4)
H14E H -0.0647 0.6113 0.4006
H15E H -0.0810 0.7282 0.4056
H16E H -0.1261 0.6572 0.3518
B1 B 0.2774(5) 0.2956(9) 0.3042(5)
F1 F 0.2253(4) 0.3384(8) 0.2695(5)
F2 F 0.2837(8) 0.2155(12) 0.2732(6)
F3 F 0.2773(7) 0.2678(13) 0.3583(5)
F4 F 0.3202(6) 0.3631(11) 0.3142(7)
B2 B 0.0315(4) 0.5000 0.2122(5)
F5 F 0.0190(7) 0.4167(4) 0.1767(6)
F6 F 0.0894(5) 0.5000 0.2499(9)
F7 F 0.0016(4) 0.5000 0.2478(4)
F5E F 0.0190(7) 0.5833(4) 0.1767(6)
B3 B -0.1118(4) 0.0000 0.0175(4)
F8 F -0.0917(4) 0.0000 0.0802(2)
F9 F -0.1420(5) 0.0863(6) -0.0082(4)
F10 F -0.0631(5) 0.0000 0.0026(5)
F9E F -0.1420(5) -0.0863(6) -0.0082(4)
N5 N 0.2596(8) 0.5000 0.4906(8)
C22 C 0.2448(10) 0.5000 0.4383(10)
C23 C 0.2172(10) 0.5000 0.3696(9)
N6 N 0.0000(17) 0.0000 0.2506(17)
C24 C -0.1139(16) 0.0000 0.231(2)
C25 C -0.0459(18) 0.0000 0.249(3)
F11? F 0.2716(14) 0.2069(17) 0.3287(14)
F12? F 0.3093(14) 0.356(2) 0.3524(12)
F13? F 0.3125(14) 0.282(3) 0.2744(14)
F14? F -0.1685(7) 0.0000 0.0143(11)
F15? F -0.1071(9) 0.0949(10) -0.0030(8)
H17? H 0.2419 0.5392 0.3542
H18? H 0.1778 0.5312 0.3546
H19? H 0.2135 0.4296 0.3544
H20? H -0.1215 -0.0200 0.2668
H21? H -0.1332 -0.0486 0.1970
H22? H -0.1298 0.0686 0.2174
F16? F -0.0157(8) 0.4708(13) 0.1612(7)
F17? F 0.0656(6) 0.4209(6) 0.2128(8)
N7? N -0.1106(15) 0.345(3) -0.0140(15)
C26? C -0.1278(16) 0.402(3) 0.0130(18)
C27? C -0.1566(14) 0.5000 0.0301(14)
loop_
_geom_bond_atom_site_label_1
_geom_bond_atom_site_label_2
_geom_bond_site_symmetry_1
_geom_bond_site_symmetry_2
Pd1 N1 1_555 1_555
N1 C5 1_555 1_555
N2 Pd1 1_555 1_555
N3 Pd1 1_555 1_555
N4 Pd1 1_555 1_555
S1 O1 1_555 1_555
S2 O3 1_555 1_555
O2 S1 1_555 1_555
O4 S2 1_555 1_555
C1 S1 1_555 1_555
C2 C1 1_555 1_555
H1 C2 1_555 1_555
C3 C2 1_555 1_555
H2 C3 1_555 1_555
C4 C3 1_555 1_555
H3 C4 1_555 1_555
C5 C4 1_555 1_555
C6 C1 1_555 1_555
H4 C6 1_555 1_555
C7 N1 1_555 1_555
H5 C7 1_555 1_555
C8 N2 1_555 1_555
C9 C8 1_555 1_555
H6 C9 1_555 1_555
C10 C9 1_555 1_555
H7 C10 1_555 1_555
C11 C10 1_555 1_555
H8 C11 1_555 1_555
C12 N2 1_555 1_555
C13 N3 1_555 1_555
H9 C13 1_555 1_555
C14 N3 1_555 1_555
C15 C14 1_555 1_555
H10 C15 1_555 1_555
C16 C15 1_555 1_555
H11 C16 1_555 1_555
C17 C16 1_555 1_555
H12 C17 1_555 1_555
C18 S2 1_555 1_555
C19 C14 1_555 1_555
H13 C19 1_555 1_555
C20 N4 1_555 1_555
C21 C20 1_555 1_555
H14 C21 1_555 1_555
H15 C21 1_555 1_555
H16 C21 1_555 1_555
B1 F1 1_555 1_555
F2 B1 1_555 1_555
F3 B1 1_555 1_555
F4 B1 1_555 1_555
B2 F5 1_555 1_555
F6 B2 1_555 1_555
F7 B2 1_555 1_555
B3 F8 1_555 1_555
F9 B3 1_555 1_555
F10 B3 1_555 1_555
N5 C22 1_555 1_555
C22 C23 1_555 1_555
N6 C25 1_555 1_555
C24 C25 1_555 1_555
N1E C5E 1_555 1_555
N2E C8E 1_555 1_555
N3E C13E 1_555 1_555
C1E S1 1_555 1_555
C2E C1E 1_555 1_555
H1E C2E 1_555 1_555
C3E C2E 1_555 1_555
H2E C3E 1_555 1_555
C4E C3E 1_555 1_555
H3E C4E 1_555 1_555
C5E C4E 1_555 1_555
C6E C1E 1_555 1_555
H4E C6E 1_555 1_555
C7E N1E 1_555 1_555
H5E C7E 1_555 1_555
C8E C7E 1_555 1_555
C9E C8E 1_555 1_555
H6E C9E 1_555 1_555
C10E C9E 1_555 1_555
H7E C10E 1_555 1_555
C11E C10E 1_555 1_555
H8E C11E 1_555 1_555
C12E N2E 1_555 1_555
C13E C12E 1_555 1_555
H9E C13E 1_555 1_555
C14E N3E 1_555 1_555
C15E C14E 1_555 1_555
H10E C15E 1_555 1_555
C16E C15E 1_555 1_555
H11E C16E 1_555 1_555
C17E C16E 1_555 1_555
H12E C17E 1_555 1_555
C18E S2 1_555 1_555
C19E C14E 1_555 1_555
H13E C19E 1_555 1_555
Pd1E N1E 1_555 1_555
N4E Pd1E 1_555 1_555
C20E N4E 1_555 1_555
C21E C20E 1_555 1_555
H14E C21E 1_555 1_555
H15E C21E 1_555 1_555
H16E C21E 1_555 1_555
F5E B2 1_555 1_555
F9E B3 1_555 1_555
C5 C6 1_555 1_555
C7 C8 1_555 1_555
C11 C12 1_555 1_555
C12 C13 1_555 1_555
C17 C18 1_555 1_555
C18 C19 1_555 1_555
N2E Pd1E 1_555 1_555
N3E Pd1E 1_555 1_555
C5E C6E 1_555 1_555
C11E C12E 1_555 1_555
C17E C18E 1_555 1_555
C18E C19E 1_555 1_555

#END
