# generated using pymatgen
data_B8H197Pd4C190N23(O3F4)9
_symmetry_space_group_name_H-M   'P 1'
_cell_length_a   19.45800000
_cell_length_b   20.38900000
_cell_length_c   48.32000000
_cell_angle_alpha   94.97900000
_cell_angle_beta   90.00000000
_cell_angle_gamma   90.00000000
_symmetry_Int_Tables_number   1
_chemical_formula_structural   B8H197Pd4C190N23(O3F4)9
_chemical_formula_sum   'B32 H788 Pd16 C760 N92 O108 F144'
_cell_volume   19097.61673571
_cell_formula_units_Z   4
loop_
 _symmetry_equiv_pos_site_id
 _symmetry_equiv_pos_as_xyz
  1  'x, y, z'
loop_
 _atom_site_type_symbol
 _atom_site_label
 _atom_site_symmetry_multiplicity
 _atom_site_fract_x
 _atom_site_fract_y
 _atom_site_fract_z
 _atom_site_occupancy
  B  B1  1  0.226000  0.554000  0.280100  1
  B  B2  1  0.726000  0.946000  0.719900  1
  B  B3  1  0.774000  0.446000  0.719900  1
  B  B4  1  0.274000  0.054000  0.280100  1
  B  B5  1  0.766900  0.135200  0.035700  1
  B  B6  1  0.266900  0.364800  0.964300  1
  B  B7  1  0.233100  0.864800  0.964300  1
  B  B8  1  0.733100  0.635200  0.035700  1
  B  B9  1  0.415700  0.490700  0.052500  1
  B  B10  1  0.915700  0.009300  0.947500  1
  B  B11  1  0.584300  0.509300  0.947500  1
  B  B12  1  0.084300  0.990700  0.052500  1
  B  B13  1  0.084300  0.461800  0.446600  1
  B  B14  1  0.584300  0.038200  0.553400  1
  B  B15  1  0.915700  0.538200  0.553400  1
  B  B16  1  0.415700  0.961800  0.446600  1
  B  B17  1  0.232800  0.378900  0.532900  1
  B  B18  1  0.732800  0.121100  0.467100  1
  B  B19  1  0.767200  0.621100  0.467100  1
  B  B20  1  0.267200  0.878900  0.532900  1
  B  B21  1  0.844700  0.483000  0.249400  1
  B  B22  1  0.344700  0.017000  0.750600  1
  B  B23  1  0.155300  0.517000  0.750600  1
  B  B24  1  0.655300  0.983000  0.249400  1
  B  B25  1  0.378500  0.247100  0.188400  1
  B  B26  1  0.878500  0.252900  0.811600  1
  B  B27  1  0.621500  0.752900  0.811600  1
  B  B28  1  0.121500  0.747100  0.188400  1
  B  B29  1  0.531000  0.464000  0.291800  1
  B  B30  1  0.031000  0.036000  0.708200  1
  B  B31  1  0.469000  0.536000  0.708200  1
  B  B32  1  0.969000  0.964000  0.291800  1
  H  H33  1  0.346200  0.037800  0.652500  1
  H  H34  1  0.846200  0.462200  0.347500  1
  H  H35  1  0.653800  0.962200  0.347500  1
  H  H36  1  0.153800  0.537800  0.652500  1
  H  H37  1  0.398400  0.975300  0.686500  1
  H  H38  1  0.898400  0.524700  0.313500  1
  H  H39  1  0.601600  0.024700  0.313500  1
  H  H40  1  0.101600  0.475300  0.686500  1
  H  H41  1  0.551900  0.925500  0.632500  1
  H  H42  1  0.051900  0.574500  0.367500  1
  H  H43  1  0.448100  0.074500  0.367500  1
  H  H44  1  0.948100  0.425500  0.632500  1
  H  H45  1  0.500900  0.982300  0.598600  1
  H  H46  1  0.000900  0.517700  0.401400  1
  H  H47  1  0.499100  0.017700  0.401400  1
  H  H48  1  0.999100  0.482300  0.598600  1
  H  H49  1  0.523700  0.896700  0.721500  1
  H  H50  1  0.023700  0.603300  0.278500  1
  H  H51  1  0.476300  0.103300  0.278500  1
  H  H52  1  0.976300  0.396700  0.721500  1
  H  H53  1  0.453300  0.872600  0.706800  1
  H  H54  1  0.953300  0.627400  0.293200  1
  H  H55  1  0.546700  0.127400  0.293200  1
  H  H56  1  0.046700  0.372600  0.706800  1
  H  H57  1  0.465800  0.949300  0.715400  1
  H  H58  1  0.965800  0.550700  0.284600  1
  H  H59  1  0.534200  0.050700  0.284600  1
  H  H60  1  0.034200  0.449300  0.715400  1
  H  H61  1  0.396900  0.982400  0.571600  1
  H  H62  1  0.896900  0.517600  0.428400  1
  H  H63  1  0.603100  0.017600  0.428400  1
  H  H64  1  0.103100  0.482400  0.571600  1
  H  H65  1  0.359100  0.009400  0.519100  1
  H  H66  1  0.859100  0.490600  0.480900  1
  H  H67  1  0.640900  0.990600  0.480900  1
  H  H68  1  0.140900  0.509400  0.519100  1
  H  H69  1  0.319400  0.089100  0.491700  1
  H  H70  1  0.819400  0.410900  0.508300  1
  H  H71  1  0.680600  0.910900  0.508300  1
  H  H72  1  0.180600  0.589100  0.491700  1
  H  H73  1  0.296800  0.199200  0.511600  1
  H  H74  1  0.796800  0.300800  0.488400  1
  H  H75  1  0.703200  0.800800  0.488400  1
  H  H76  1  0.203200  0.699200  0.511600  1
  H  H77  1  0.298000  0.277300  0.560400  1
  H  H78  1  0.798000  0.222700  0.439600  1
  H  H79  1  0.702000  0.722700  0.439600  1
  H  H80  1  0.202000  0.777300  0.560400  1
  H  H81  1  0.394000  0.294500  0.637200  1
  H  H82  1  0.894000  0.205500  0.362800  1
  H  H83  1  0.606000  0.705500  0.362800  1
  H  H84  1  0.106000  0.794500  0.637200  1
  H  H85  1  0.371700  0.389200  0.665000  1
  H  H86  1  0.871700  0.110800  0.335000  1
  H  H87  1  0.628300  0.610800  0.335000  1
  H  H88  1  0.128300  0.889200  0.665000  1
  H  H89  1  0.193500  0.413100  0.622500  1
  H  H90  1  0.693500  0.086900  0.377500  1
  H  H91  1  0.806500  0.586900  0.377500  1
  H  H92  1  0.306500  0.913100  0.622500  1
  H  H93  1  0.217800  0.320200  0.594000  1
  H  H94  1  0.717800  0.179800  0.406000  1
  H  H95  1  0.782200  0.679800  0.406000  1
  H  H96  1  0.282200  0.820200  0.594000  1
  H  H97  1  0.274000  0.521400  0.698500  1
  H  H98  1  0.774000  0.978600  0.301500  1
  H  H99  1  0.726000  0.478600  0.301500  1
  H  H100  1  0.226000  0.021400  0.698500  1
  H  H101  1  0.341100  0.500600  0.680700  1
  H  H102  1  0.841100  0.999400  0.319300  1
  H  H103  1  0.658900  0.499400  0.319300  1
  H  H104  1  0.158900  0.000600  0.680700  1
  H  H105  1  0.305900  0.449400  0.699700  1
  H  H106  1  0.805900  0.050600  0.300300  1
  H  H107  1  0.694100  0.550600  0.300300  1
  H  H108  1  0.194100  0.949400  0.699700  1
  H  H109  1  0.213400  0.265300  0.329000  1
  H  H110  1  0.713400  0.234700  0.671000  1
  H  H111  1  0.786600  0.734700  0.671000  1
  H  H112  1  0.286600  0.765300  0.329000  1
  H  H113  1  0.142700  0.278700  0.290800  1
  H  H114  1  0.642700  0.221300  0.709200  1
  H  H115  1  0.857300  0.721300  0.709200  1
  H  H116  1  0.357300  0.778700  0.290800  1
  H  H117  1  0.094700  0.460600  0.323500  1
  H  H118  1  0.594700  0.039400  0.676500  1
  H  H119  1  0.905300  0.539400  0.676500  1
  H  H120  1  0.405300  0.960600  0.323500  1
  H  H121  1  0.155600  0.444900  0.364500  1
  H  H122  1  0.655600  0.055100  0.635500  1
  H  H123  1  0.844400  0.555100  0.635500  1
  H  H124  1  0.344400  0.944900  0.364500  1
  H  H125  1  0.020700  0.433600  0.258100  1
  H  H126  1  0.520700  0.066400  0.741900  1
  H  H127  1  0.979300  0.566400  0.741900  1
  H  H128  1  0.479300  0.933600  0.258100  1
  H  H129  1  0.069100  0.470700  0.281300  1
  H  H130  1  0.569100  0.029300  0.718700  1
  H  H131  1  0.930900  0.529300  0.718700  1
  H  H132  1  0.430900  0.970700  0.281300  1
  H  H133  1  0.000100  0.435500  0.290200  1
  H  H134  1  0.500100  0.064500  0.709800  1
  H  H135  1  0.999900  0.564500  0.709800  1
  H  H136  1  0.499900  0.935500  0.290200  1
  H  H137  1  0.174300  0.364800  0.403000  1
  H  H138  1  0.674300  0.135200  0.597000  1
  H  H139  1  0.825700  0.635200  0.597000  1
  H  H140  1  0.325700  0.864800  0.403000  1
  H  H141  1  0.220500  0.355200  0.456600  1
  H  H142  1  0.720500  0.144800  0.543400  1
  H  H143  1  0.779500  0.644800  0.543400  1
  H  H144  1  0.279500  0.855200  0.456600  1
  H  H145  1  0.312000  0.321900  0.483700  1
  H  H146  1  0.812000  0.178100  0.516300  1
  H  H147  1  0.688000  0.678100  0.516300  1
  H  H148  1  0.188000  0.821900  0.483700  1
  H  H149  1  0.420000  0.299300  0.462600  1
  H  H150  1  0.920000  0.200700  0.537400  1
  H  H151  1  0.580000  0.700700  0.537400  1
  H  H152  1  0.080000  0.799300  0.462600  1
  H  H153  1  0.489300  0.278200  0.413100  1
  H  H154  1  0.989300  0.221800  0.586900  1
  H  H155  1  0.510700  0.721800  0.586900  1
  H  H156  1  0.010700  0.778200  0.413100  1
  H  H157  1  0.529500  0.200700  0.378800  1
  H  H158  1  0.029500  0.299300  0.621200  1
  H  H159  1  0.470500  0.799300  0.621200  1
  H  H160  1  0.970500  0.700700  0.378800  1
  H  H161  1  0.618700  0.171100  0.348000  1
  H  H162  1  0.118700  0.328900  0.652000  1
  H  H163  1  0.381300  0.828900  0.652000  1
  H  H164  1  0.881300  0.671100  0.348000  1
  H  H165  1  0.571500  0.328200  0.306000  1
  H  H166  1  0.071500  0.171800  0.694000  1
  H  H167  1  0.428500  0.671800  0.694000  1
  H  H168  1  0.928500  0.828200  0.306000  1
  H  H169  1  0.478800  0.353600  0.335300  1
  H  H170  1  0.978800  0.146400  0.664700  1
  H  H171  1  0.521200  0.646400  0.664700  1
  H  H172  1  0.021200  0.853600  0.335300  1
  H  H173  1  0.733200  0.182700  0.292100  1
  H  H174  1  0.233200  0.317300  0.707900  1
  H  H175  1  0.266800  0.817300  0.707900  1
  H  H176  1  0.766800  0.682700  0.292100  1
  H  H177  1  0.675900  0.141300  0.306800  1
  H  H178  1  0.175900  0.358700  0.693200  1
  H  H179  1  0.324100  0.858700  0.693200  1
  H  H180  1  0.824100  0.641300  0.306800  1
  H  H181  1  0.722200  0.193600  0.325000  1
  H  H182  1  0.222200  0.306400  0.675000  1
  H  H183  1  0.277800  0.806400  0.675000  1
  H  H184  1  0.777800  0.693600  0.325000  1
  H  H185  1  0.408900  0.195500  0.332700  1
  H  H186  1  0.908900  0.304500  0.667300  1
  H  H187  1  0.591100  0.804500  0.667300  1
  H  H188  1  0.091100  0.695500  0.332700  1
  H  H189  1  0.360300  0.152300  0.310900  1
  H  H190  1  0.860300  0.347700  0.689100  1
  H  H191  1  0.639700  0.847700  0.689100  1
  H  H192  1  0.139700  0.652300  0.310900  1
  H  H193  1  0.347000  0.117600  0.356400  1
  H  H194  1  0.847000  0.382400  0.643600  1
  H  H195  1  0.653000  0.882400  0.643600  1
  H  H196  1  0.153000  0.617600  0.356400  1
  H  H197  1  0.269600  0.108800  0.345400  1
  H  H198  1  0.769600  0.391200  0.654600  1
  H  H199  1  0.730400  0.891200  0.654600  1
  H  H200  1  0.230400  0.608800  0.345400  1
  H  H201  1  0.363400  0.121300  0.403500  1
  H  H202  1  0.863400  0.378700  0.596500  1
  H  H203  1  0.636600  0.878700  0.596500  1
  H  H204  1  0.136600  0.621300  0.403500  1
  H  H205  1  0.330500  0.151600  0.449700  1
  H  H206  1  0.830500  0.348400  0.550300  1
  H  H207  1  0.669500  0.848400  0.550300  1
  H  H208  1  0.169500  0.651600  0.449700  1
  H  H209  1  0.138900  0.188900  0.422200  1
  H  H210  1  0.638900  0.311100  0.577800  1
  H  H211  1  0.861100  0.811100  0.577800  1
  H  H212  1  0.361100  0.688900  0.422200  1
  H  H213  1  0.177600  0.174800  0.377100  1
  H  H214  1  0.677600  0.325200  0.622900  1
  H  H215  1  0.822400  0.825200  0.622900  1
  H  H216  1  0.322400  0.674800  0.377100  1
  H  H217  1  0.114900  0.149200  0.466000  1
  H  H218  1  0.614900  0.350800  0.534000  1
  H  H219  1  0.885100  0.850800  0.534000  1
  H  H220  1  0.385100  0.649200  0.466000  1
  H  H221  1  0.123400  0.227700  0.468000  1
  H  H222  1  0.623400  0.272300  0.532000  1
  H  H223  1  0.876600  0.772300  0.532000  1
  H  H224  1  0.376600  0.727700  0.468000  1
  H  H225  1  0.161000  0.225000  0.515400  1
  H  H226  1  0.661000  0.275000  0.484600  1
  H  H227  1  0.839000  0.775000  0.484600  1
  H  H228  1  0.339000  0.725000  0.515400  1
  H  H229  1  0.083600  0.198100  0.511200  1
  H  H230  1  0.583600  0.301900  0.488800  1
  H  H231  1  0.916400  0.801900  0.488800  1
  H  H232  1  0.416400  0.698100  0.511200  1
  H  H233  1  0.194100  0.027400  0.535300  1
  H  H234  1  0.694100  0.472600  0.464700  1
  H  H235  1  0.805900  0.972600  0.464700  1
  H  H236  1  0.305900  0.527400  0.535300  1
  H  H237  1  0.205000  0.005800  0.582300  1
  H  H238  1  0.705000  0.494200  0.417700  1
  H  H239  1  0.795000  0.994200  0.417700  1
  H  H240  1  0.295000  0.505800  0.582300  1
  H  H241  1  0.131700  0.187800  0.605700  1
  H  H242  1  0.631700  0.312200  0.394300  1
  H  H243  1  0.868300  0.812200  0.394300  1
  H  H244  1  0.368300  0.687800  0.605700  1
  H  H245  1  0.120700  0.209400  0.557700  1
  H  H246  1  0.620700  0.290600  0.442300  1
  H  H247  1  0.879300  0.790600  0.442300  1
  H  H248  1  0.379300  0.709400  0.557700  1
  H  H249  1  0.134700  0.102100  0.639400  1
  H  H250  1  0.634700  0.397900  0.360600  1
  H  H251  1  0.865300  0.897900  0.360600  1
  H  H252  1  0.365300  0.602100  0.639400  1
  H  H253  1  0.162300  0.029900  0.629700  1
  H  H254  1  0.662300  0.470100  0.370300  1
  H  H255  1  0.837700  0.970100  0.370300  1
  H  H256  1  0.337700  0.529900  0.629700  1
  H  H257  1  0.203200  0.172000  0.663800  1
  H  H258  1  0.703200  0.328000  0.336200  1
  H  H259  1  0.796800  0.828000  0.336200  1
  H  H260  1  0.296800  0.672000  0.663800  1
  H  H261  1  0.237200  0.189700  0.635100  1
  H  H262  1  0.737200  0.310300  0.364900  1
  H  H263  1  0.762800  0.810300  0.364900  1
  H  H264  1  0.262800  0.689700  0.635100  1
  H  H265  1  0.272800  0.184200  0.704200  1
  H  H266  1  0.772800  0.315800  0.295800  1
  H  H267  1  0.727200  0.815800  0.295800  1
  H  H268  1  0.227200  0.684200  0.704200  1
  H  H269  1  0.379300  0.186300  0.726300  1
  H  H270  1  0.879300  0.313700  0.273700  1
  H  H271  1  0.620700  0.813700  0.273700  1
  H  H272  1  0.120700  0.686300  0.726300  1
  H  H273  1  0.479800  0.192300  0.697500  1
  H  H274  1  0.979800  0.307700  0.302500  1
  H  H275  1  0.520200  0.807700  0.302500  1
  H  H276  1  0.020200  0.692300  0.697500  1
  H  H277  1  0.532900  0.186000  0.652000  1
  H  H278  1  0.032900  0.314000  0.348000  1
  H  H279  1  0.467100  0.814000  0.348000  1
  H  H280  1  0.967100  0.686000  0.652000  1
  H  H281  1  0.499100  0.122200  0.635300  1
  H  H282  1  0.999100  0.377800  0.364700  1
  H  H283  1  0.500900  0.877800  0.364700  1
  H  H284  1  0.000900  0.622200  0.635300  1
  H  H285  1  0.540900  0.160000  0.591200  1
  H  H286  1  0.040900  0.340000  0.408800  1
  H  H287  1  0.459100  0.840000  0.408800  1
  H  H288  1  0.959100  0.660000  0.591200  1
  H  H289  1  0.574500  0.224100  0.607800  1
  H  H290  1  0.074500  0.275900  0.392200  1
  H  H291  1  0.425500  0.775900  0.392200  1
  H  H292  1  0.925500  0.724100  0.607800  1
  H  H293  1  0.508400  0.332900  0.600500  1
  H  H294  1  0.008400  0.167100  0.399500  1
  H  H295  1  0.491600  0.667100  0.399500  1
  H  H296  1  0.991600  0.832900  0.600500  1
  H  H297  1  0.468300  0.398400  0.567000  1
  H  H298  1  0.968300  0.101600  0.433000  1
  H  H299  1  0.531700  0.601600  0.433000  1
  H  H300  1  0.031700  0.898400  0.567000  1
  H  H301  1  0.456000  0.238000  0.513000  1
  H  H302  1  0.956000  0.262000  0.487000  1
  H  H303  1  0.544000  0.762000  0.487000  1
  H  H304  1  0.044000  0.738000  0.513000  1
  H  H305  1  0.494600  0.171600  0.546100  1
  H  H306  1  0.994600  0.328400  0.453900  1
  H  H307  1  0.505400  0.828400  0.453900  1
  H  H308  1  0.005400  0.671600  0.546100  1
  H  H309  1  0.483900  0.447200  0.523800  1
  H  H310  1  0.983900  0.052800  0.476200  1
  H  H311  1  0.516100  0.552800  0.476200  1
  H  H312  1  0.016100  0.947200  0.523800  1
  H  H313  1  0.408100  0.445600  0.536900  1
  H  H314  1  0.908100  0.054400  0.463100  1
  H  H315  1  0.591900  0.554400  0.463100  1
  H  H316  1  0.091900  0.945600  0.536900  1
  H  H317  1  0.361000  0.442100  0.490100  1
  H  H318  1  0.861000  0.057900  0.509900  1
  H  H319  1  0.639000  0.557900  0.509900  1
  H  H320  1  0.139000  0.942100  0.490100  1
  H  H321  1  0.402600  0.509300  0.498200  1
  H  H322  1  0.902600  0.990700  0.501800  1
  H  H323  1  0.597400  0.490700  0.501800  1
  H  H324  1  0.097400  0.009300  0.498200  1
  H  H325  1  0.525200  0.430900  0.429800  1
  H  H326  1  0.025200  0.069100  0.570200  1
  H  H327  1  0.474800  0.569100  0.570200  1
  H  H328  1  0.974800  0.930900  0.429800  1
  H  H329  1  0.503100  0.463200  0.385500  1
  H  H330  1  0.003100  0.036800  0.614500  1
  H  H331  1  0.496900  0.536800  0.614500  1
  H  H332  1  0.996900  0.963200  0.385500  1
  H  H333  1  0.312700  0.522600  0.410700  1
  H  H334  1  0.812700  0.977400  0.589300  1
  H  H335  1  0.687300  0.477400  0.589300  1
  H  H336  1  0.187300  0.022600  0.410700  1
  H  H337  1  0.339400  0.501800  0.456500  1
  H  H338  1  0.839400  0.998200  0.543500  1
  H  H339  1  0.660600  0.498200  0.543500  1
  H  H340  1  0.160600  0.001800  0.456500  1
  H  H341  1  0.420300  0.525000  0.354600  1
  H  H342  1  0.920300  0.975000  0.645400  1
  H  H343  1  0.579700  0.475000  0.645400  1
  H  H344  1  0.079700  0.025000  0.354600  1
  H  H345  1  0.341400  0.530900  0.364500  1
  H  H346  1  0.841400  0.969100  0.635500  1
  H  H347  1  0.658600  0.469100  0.635500  1
  H  H348  1  0.158600  0.030900  0.364500  1
  H  H349  1  0.360100  0.466800  0.313200  1
  H  H350  1  0.860100  0.033200  0.686800  1
  H  H351  1  0.639900  0.533200  0.686800  1
  H  H352  1  0.139900  0.966800  0.313200  1
  H  H353  1  0.288400  0.449200  0.327000  1
  H  H354  1  0.788400  0.050800  0.673000  1
  H  H355  1  0.711600  0.550800  0.673000  1
  H  H356  1  0.211600  0.949200  0.327000  1
  H  H357  1  0.321900  0.400800  0.271100  1
  H  H358  1  0.821900  0.099200  0.728900  1
  H  H359  1  0.678100  0.599200  0.728900  1
  H  H360  1  0.178100  0.900800  0.271100  1
  H  H361  1  0.322800  0.296800  0.247800  1
  H  H362  1  0.822800  0.203200  0.752200  1
  H  H363  1  0.677200  0.703200  0.752200  1
  H  H364  1  0.177200  0.796800  0.247800  1
  H  H365  1  0.338800  0.204700  0.270700  1
  H  H366  1  0.838800  0.295300  0.729300  1
  H  H367  1  0.661200  0.795300  0.729300  1
  H  H368  1  0.161200  0.704700  0.270700  1
  H  H369  1  0.297400  0.364300  0.169300  1
  H  H370  1  0.797400  0.135700  0.830700  1
  H  H371  1  0.702600  0.635700  0.830700  1
  H  H372  1  0.202600  0.864300  0.169300  1
  H  H373  1  0.363100  0.414400  0.205100  1
  H  H374  1  0.863100  0.085600  0.794900  1
  H  H375  1  0.636900  0.585600  0.794900  1
  H  H376  1  0.136900  0.914400  0.205100  1
  H  H377  1  0.387900  0.573800  0.161000  1
  H  H378  1  0.887900  0.926200  0.839000  1
  H  H379  1  0.612100  0.426200  0.839000  1
  H  H380  1  0.112100  0.073800  0.161000  1
  H  H381  1  0.322600  0.521400  0.125300  1
  H  H382  1  0.822600  0.978600  0.874700  1
  H  H383  1  0.677400  0.478600  0.874700  1
  H  H384  1  0.177400  0.021400  0.125300  1
  H  H385  1  0.455200  0.537700  0.244600  1
  H  H386  1  0.955200  0.962300  0.755400  1
  H  H387  1  0.544800  0.462300  0.755400  1
  H  H388  1  0.044800  0.037700  0.244600  1
  H  H389  1  0.448900  0.465100  0.229300  1
  H  H390  1  0.948900  0.034900  0.770700  1
  H  H391  1  0.551100  0.534900  0.770700  1
  H  H392  1  0.051100  0.965100  0.229300  1
  H  H393  1  0.381500  0.503200  0.240900  1
  H  H394  1  0.881500  0.996800  0.759100  1
  H  H395  1  0.618500  0.496800  0.759100  1
  H  H396  1  0.118500  0.003200  0.240900  1
  H  H397  1  0.321400  0.417800  0.091000  1
  H  H398  1  0.821400  0.082200  0.909000  1
  H  H399  1  0.678600  0.582200  0.909000  1
  H  H400  1  0.178600  0.917800  0.091000  1
  H  H401  1  0.275300  0.372900  0.039000  1
  H  H402  1  0.775300  0.127100  0.961000  1
  H  H403  1  0.724700  0.627100  0.961000  1
  H  H404  1  0.224700  0.872900  0.039000  1
  H  H405  1  0.183400  0.321800  0.013900  1
  H  H406  1  0.683400  0.178200  0.986100  1
  H  H407  1  0.816600  0.678200  0.986100  1
  H  H408  1  0.316600  0.821800  0.013900  1
  H  H409  1  0.080100  0.307700  0.035100  1
  H  H410  1  0.580100  0.192300  0.964900  1
  H  H411  1  0.919900  0.692300  0.964900  1
  H  H412  1  0.419900  0.807700  0.035100  1
  H  H413  1  0.010400  0.314300  0.084800  1
  H  H414  1  0.510400  0.185700  0.915200  1
  H  H415  1  0.989600  0.685700  0.915200  1
  H  H416  1  0.489600  0.814300  0.084800  1
  H  H417  1  0.023400  0.425000  0.162700  1
  H  H418  1  0.523400  0.075000  0.837300  1
  H  H419  1  0.976600  0.575000  0.837300  1
  H  H420  1  0.476600  0.925000  0.162700  1
  H  H421  1  0.937700  0.409100  0.195500  1
  H  H422  1  0.437700  0.090900  0.804500  1
  H  H423  1  0.062300  0.590900  0.804500  1
  H  H424  1  0.562300  0.909100  0.195500  1
  H  H425  1  0.882100  0.237800  0.154100  1
  H  H426  1  0.382100  0.262200  0.845900  1
  H  H427  1  0.117900  0.762200  0.845900  1
  H  H428  1  0.617900  0.737800  0.154100  1
  H  H429  1  0.969400  0.251000  0.118400  1
  H  H430  1  0.469400  0.249000  0.881600  1
  H  H431  1  0.030600  0.749000  0.881600  1
  H  H432  1  0.530600  0.751000  0.118400  1
  H  H433  1  0.784700  0.271300  0.178400  1
  H  H434  1  0.284700  0.228700  0.821600  1
  H  H435  1  0.215300  0.728700  0.821600  1
  H  H436  1  0.715300  0.771300  0.178400  1
  H  H437  1  0.775800  0.279400  0.211500  1
  H  H438  1  0.275800  0.220600  0.788500  1
  H  H439  1  0.224200  0.720600  0.788500  1
  H  H440  1  0.724200  0.779400  0.211500  1
  H  H441  1  0.830100  0.227700  0.197500  1
  H  H442  1  0.330100  0.272300  0.802500  1
  H  H443  1  0.169900  0.772300  0.802500  1
  H  H444  1  0.669900  0.727700  0.197500  1
  H  H445  1  0.104900  0.233200  0.858800  1
  H  H446  1  0.604900  0.266800  0.141200  1
  H  H447  1  0.895100  0.766800  0.141200  1
  H  H448  1  0.395100  0.733200  0.858800  1
  H  H449  1  0.129200  0.319200  0.829300  1
  H  H450  1  0.629200  0.180800  0.170700  1
  H  H451  1  0.870800  0.680800  0.170700  1
  H  H452  1  0.370800  0.819200  0.829300  1
  H  H453  1  0.303500  0.361600  0.873100  1
  H  H454  1  0.803500  0.138400  0.126900  1
  H  H455  1  0.696500  0.638400  0.126900  1
  H  H456  1  0.196500  0.861600  0.873100  1
  H  H457  1  0.280000  0.279000  0.902000  1
  H  H458  1  0.780000  0.221000  0.098000  1
  H  H459  1  0.720000  0.721000  0.098000  1
  H  H460  1  0.220000  0.779000  0.902000  1
  H  H461  1  0.223000  0.434600  0.796600  1
  H  H462  1  0.723000  0.065400  0.203400  1
  H  H463  1  0.777000  0.565400  0.203400  1
  H  H464  1  0.277000  0.934600  0.796600  1
  H  H465  1  0.157900  0.427800  0.816400  1
  H  H466  1  0.657900  0.072200  0.183600  1
  H  H467  1  0.842100  0.572200  0.183600  1
  H  H468  1  0.342100  0.927800  0.816400  1
  H  H469  1  0.185400  0.365000  0.797500  1
  H  H470  1  0.685400  0.135000  0.202500  1
  H  H471  1  0.814600  0.635000  0.202500  1
  H  H472  1  0.314600  0.865000  0.797500  1
  H  H473  1  0.198900  0.252100  0.936000  1
  H  H474  1  0.698900  0.247900  0.064000  1
  H  H475  1  0.801100  0.747900  0.064000  1
  H  H476  1  0.301100  0.752100  0.936000  1
  H  H477  1  0.202400  0.197000  0.984400  1
  H  H478  1  0.702400  0.303000  0.015600  1
  H  H479  1  0.797600  0.803000  0.015600  1
  H  H480  1  0.297600  0.697000  0.984400  1
  H  H481  1  0.180600  0.096100  0.005600  1
  H  H482  1  0.680600  0.403900  0.994400  1
  H  H483  1  0.819400  0.903900  0.994400  1
  H  H484  1  0.319400  0.596100  0.005600  1
  H  H485  1  0.140900  0.003900  0.978800  1
  H  H486  1  0.640900  0.496100  0.021200  1
  H  H487  1  0.859100  0.996100  0.021200  1
  H  H488  1  0.359100  0.503900  0.978800  1
  H  H489  1  0.105800  0.952100  0.926900  1
  H  H490  1  0.605800  0.547900  0.073100  1
  H  H491  1  0.894200  0.047900  0.073100  1
  H  H492  1  0.394200  0.452100  0.926900  1
  H  H493  1  0.148600  0.973500  0.844300  1
  H  H494  1  0.648600  0.526500  0.155700  1
  H  H495  1  0.851400  0.026500  0.155700  1
  H  H496  1  0.351400  0.473500  0.844300  1
  H  H497  1  0.095500  0.901400  0.811200  1
  H  H498  1  0.595500  0.598600  0.188800  1
  H  H499  1  0.904500  0.098600  0.188800  1
  H  H500  1  0.404500  0.401400  0.811200  1
  H  H501  1  0.956600  0.854900  0.868500  1
  H  H502  1  0.456600  0.645100  0.131500  1
  H  H503  1  0.043400  0.145100  0.131500  1
  H  H504  1  0.543400  0.354900  0.868500  1
  H  H505  1  0.007800  0.930400  0.901600  1
  H  H506  1  0.507800  0.569600  0.098400  1
  H  H507  1  0.992200  0.069600  0.098400  1
  H  H508  1  0.492200  0.430400  0.901600  1
  H  H509  1  0.974600  0.784700  0.781300  1
  H  H510  1  0.474600  0.715300  0.218700  1
  H  H511  1  0.025400  0.215300  0.218700  1
  H  H512  1  0.525400  0.284700  0.781300  1
  H  H513  1  0.052700  0.796700  0.790800  1
  H  H514  1  0.552700  0.703300  0.209200  1
  H  H515  1  0.947300  0.203300  0.209200  1
  H  H516  1  0.447300  0.296700  0.790800  1
  H  H517  1  0.007000  0.857000  0.782300  1
  H  H518  1  0.507000  0.643000  0.217700  1
  H  H519  1  0.993000  0.143000  0.217700  1
  H  H520  1  0.493000  0.357000  0.782300  1
  H  H521  1  0.223100  0.095600  0.791800  1
  H  H522  1  0.723100  0.404400  0.208200  1
  H  H523  1  0.776900  0.904400  0.208200  1
  H  H524  1  0.276900  0.595600  0.791800  1
  H  H525  1  0.117600  0.099900  0.771400  1
  H  H526  1  0.617600  0.400100  0.228600  1
  H  H527  1  0.882400  0.900100  0.228600  1
  H  H528  1  0.382400  0.599900  0.771400  1
  H  H529  1  0.019100  0.110400  0.798400  1
  H  H530  1  0.519100  0.389600  0.201600  1
  H  H531  1  0.980900  0.889600  0.201600  1
  H  H532  1  0.480900  0.610400  0.798400  1
  H  H533  1  0.965100  0.122100  0.843200  1
  H  H534  1  0.465100  0.377900  0.156800  1
  H  H535  1  0.034900  0.877900  0.156800  1
  H  H536  1  0.534900  0.622100  0.843200  1
  H  H537  1  0.996800  0.063500  0.859500  1
  H  H538  1  0.496800  0.436500  0.140500  1
  H  H539  1  0.003200  0.936500  0.140500  1
  H  H540  1  0.503200  0.563500  0.859500  1
  H  H541  1  0.956700  0.118600  0.904200  1
  H  H542  1  0.456700  0.381400  0.095800  1
  H  H543  1  0.043300  0.881400  0.095800  1
  H  H544  1  0.543300  0.618600  0.904200  1
  H  H545  1  0.924200  0.176500  0.887800  1
  H  H546  1  0.424200  0.323500  0.112200  1
  H  H547  1  0.075800  0.823500  0.112200  1
  H  H548  1  0.575800  0.676500  0.887800  1
  H  H549  1  0.004800  0.147100  0.950400  1
  H  H550  1  0.504800  0.352900  0.049600  1
  H  H551  1  0.995200  0.852900  0.049600  1
  H  H552  1  0.495200  0.647100  0.950400  1
  H  H553  1  0.039400  0.228100  0.984500  1
  H  H554  1  0.539400  0.271900  0.015500  1
  H  H555  1  0.960600  0.771900  0.015500  1
  H  H556  1  0.460600  0.728100  0.984500  1
  H  H557  1  0.024700  0.367700  0.930100  1
  H  H558  1  0.524700  0.132300  0.069900  1
  H  H559  1  0.975300  0.632300  0.069900  1
  H  H560  1  0.475300  0.867700  0.930100  1
  H  H561  1  0.986200  0.286700  0.896200  1
  H  H562  1  0.486200  0.213300  0.103800  1
  H  H563  1  0.013800  0.713300  0.103800  1
  H  H564  1  0.513800  0.786700  0.896200  1
  H  H565  1  0.011400  0.432400  0.973700  1
  H  H566  1  0.511400  0.067600  0.026300  1
  H  H567  1  0.988600  0.567600  0.026300  1
  H  H568  1  0.488600  0.932400  0.973700  1
  H  H569  1  0.085800  0.425000  0.959300  1
  H  H570  1  0.585800  0.075000  0.040700  1
  H  H571  1  0.914200  0.575000  0.040700  1
  H  H572  1  0.414200  0.925000  0.959300  1
  H  H573  1  0.136100  0.437500  0.004400  1
  H  H574  1  0.636100  0.062500  0.995600  1
  H  H575  1  0.863900  0.562500  0.995600  1
  H  H576  1  0.363900  0.937500  0.004400  1
  H  H577  1  0.095900  0.502200  0.996700  1
  H  H578  1  0.595900  0.997800  0.003300  1
  H  H579  1  0.904100  0.497800  0.003300  1
  H  H580  1  0.404100  0.002200  0.996700  1
  H  H581  1  0.157500  0.518400  0.037400  1
  H  H582  1  0.657500  0.981600  0.962600  1
  H  H583  1  0.842500  0.481600  0.962600  1
  H  H584  1  0.342500  0.018400  0.037400  1
  H  H585  1  0.191600  0.561800  0.081300  1
  H  H586  1  0.691600  0.938200  0.918700  1
  H  H587  1  0.808400  0.438200  0.918700  1
  H  H588  1  0.308400  0.061800  0.081300  1
  H  H589  1  0.004100  0.513800  0.111200  1
  H  H590  1  0.504100  0.986200  0.888800  1
  H  H591  1  0.995900  0.486200  0.888800  1
  H  H592  1  0.495900  0.013800  0.111200  1
  H  H593  1  0.974600  0.459800  0.067200  1
  H  H594  1  0.474600  0.040200  0.932800  1
  H  H595  1  0.025400  0.540200  0.932800  1
  H  H596  1  0.525400  0.959800  0.067200  1
  H  H597  1  0.086300  0.595100  0.138000  1
  H  H598  1  0.586300  0.904900  0.862000  1
  H  H599  1  0.913700  0.404900  0.862000  1
  H  H600  1  0.413700  0.095100  0.138000  1
  H  H601  1  0.166000  0.590900  0.129100  1
  H  H602  1  0.666000  0.909100  0.870900  1
  H  H603  1  0.834000  0.409100  0.870900  1
  H  H604  1  0.334000  0.090900  0.129100  1
  H  H605  1  0.140200  0.551400  0.181500  1
  H  H606  1  0.640200  0.948600  0.818500  1
  H  H607  1  0.859800  0.448600  0.818500  1
  H  H608  1  0.359800  0.051400  0.181500  1
  H  H609  1  0.211300  0.527400  0.167400  1
  H  H610  1  0.711300  0.972600  0.832600  1
  H  H611  1  0.788700  0.472600  0.832600  1
  H  H612  1  0.288700  0.027400  0.167400  1
  H  H613  1  0.167900  0.514500  0.223200  1
  H  H614  1  0.667900  0.985500  0.776800  1
  H  H615  1  0.832100  0.485500  0.776800  1
  H  H616  1  0.332100  0.014500  0.223200  1
  H  H617  1  0.181000  0.422700  0.248300  1
  H  H618  1  0.681000  0.077300  0.751700  1
  H  H619  1  0.819000  0.577300  0.751700  1
  H  H620  1  0.319000  0.922700  0.248300  1
  H  H621  1  0.162100  0.318100  0.227400  1
  H  H622  1  0.662100  0.181900  0.772600  1
  H  H623  1  0.837900  0.681900  0.772600  1
  H  H624  1  0.337900  0.818100  0.227400  1
  H  H625  1  0.095700  0.272700  0.169100  1
  H  H626  1  0.595700  0.227300  0.830900  1
  H  H627  1  0.904300  0.727300  0.830900  1
  H  H628  1  0.404300  0.772700  0.169100  1
  H  H629  1  0.156000  0.247000  0.188400  1
  H  H630  1  0.656000  0.253000  0.811600  1
  H  H631  1  0.844000  0.753000  0.811600  1
  H  H632  1  0.344000  0.747000  0.188400  1
  H  H633  1  0.159400  0.180500  0.143300  1
  H  H634  1  0.659400  0.319500  0.856700  1
  H  H635  1  0.840600  0.819500  0.856700  1
  H  H636  1  0.340600  0.680500  0.143300  1
  H  H637  1  0.237700  0.187100  0.153800  1
  H  H638  1  0.737700  0.312900  0.846200  1
  H  H639  1  0.762300  0.812900  0.846200  1
  H  H640  1  0.262300  0.687100  0.153800  1
  H  H641  1  0.323300  0.233800  0.120500  1
  H  H642  1  0.823300  0.266200  0.879500  1
  H  H643  1  0.676700  0.766200  0.879500  1
  H  H644  1  0.176700  0.733800  0.120500  1
  H  H645  1  0.361800  0.225400  0.073300  1
  H  H646  1  0.861800  0.274600  0.926700  1
  H  H647  1  0.638200  0.774600  0.926700  1
  H  H648  1  0.138200  0.725400  0.073300  1
  H  H649  1  0.171400  0.163700  0.048500  1
  H  H650  1  0.671400  0.336300  0.951500  1
  H  H651  1  0.828600  0.836300  0.951500  1
  H  H652  1  0.328600  0.663700  0.048500  1
  H  H653  1  0.135500  0.165800  0.095300  1
  H  H654  1  0.635500  0.334200  0.904700  1
  H  H655  1  0.864500  0.834200  0.904700  1
  H  H656  1  0.364500  0.665800  0.095300  1
  H  H657  1  0.383100  0.159000  0.031700  1
  H  H658  1  0.883100  0.341000  0.968300  1
  H  H659  1  0.616900  0.841000  0.968300  1
  H  H660  1  0.116900  0.659000  0.031700  1
  H  H661  1  0.375400  0.236800  0.029600  1
  H  H662  1  0.875400  0.263200  0.970400  1
  H  H663  1  0.624600  0.763200  0.970400  1
  H  H664  1  0.124600  0.736800  0.029600  1
  H  H665  1  0.335400  0.213800  0.982400  1
  H  H666  1  0.835400  0.286200  0.017600  1
  H  H667  1  0.664600  0.786200  0.017600  1
  H  H668  1  0.164600  0.713800  0.982400  1
  H  H669  1  0.413200  0.189900  0.986200  1
  H  H670  1  0.913200  0.310100  0.013800  1
  H  H671  1  0.586800  0.810100  0.013800  1
  H  H672  1  0.086800  0.689900  0.986200  1
  H  H673  1  0.374200  0.183200  0.938700  1
  H  H674  1  0.874200  0.316800  0.061300  1
  H  H675  1  0.625800  0.816800  0.061300  1
  H  H676  1  0.125800  0.683200  0.938700  1
  H  H677  1  0.372000  0.136700  0.893800  1
  H  H678  1  0.872000  0.363300  0.106200  1
  H  H679  1  0.628000  0.863300  0.106200  1
  H  H680  1  0.128000  0.636700  0.893800  1
  H  H681  1  0.294700  0.966300  0.915900  1
  H  H682  1  0.794700  0.533700  0.084100  1
  H  H683  1  0.705300  0.033700  0.084100  1
  H  H684  1  0.205300  0.466300  0.915900  1
  H  H685  1  0.308500  0.006000  0.962800  1
  H  H686  1  0.808500  0.494000  0.037200  1
  H  H687  1  0.691500  0.994000  0.037200  1
  H  H688  1  0.191500  0.506000  0.962800  1
  H  H689  1  0.364800  0.043300  0.859100  1
  H  H690  1  0.864800  0.456700  0.140900  1
  H  H691  1  0.635200  0.956700  0.140900  1
  H  H692  1  0.135200  0.543300  0.859100  1
  H  H693  1  0.337800  0.973500  0.867500  1
  H  H694  1  0.837800  0.526500  0.132500  1
  H  H695  1  0.662200  0.026500  0.132500  1
  H  H696  1  0.162200  0.473500  0.867500  1
  H  H697  1  0.295000  0.098500  0.831700  1
  H  H698  1  0.795000  0.401500  0.168300  1
  H  H699  1  0.705000  0.901500  0.168300  1
  H  H700  1  0.205000  0.598500  0.831700  1
  H  H701  1  0.262200  0.132400  0.859800  1
  H  H702  1  0.762200  0.367600  0.140200  1
  H  H703  1  0.737800  0.867600  0.140200  1
  H  H704  1  0.237800  0.632400  0.859800  1
  H  H705  1  0.488300  0.264900  0.235200  1
  H  H706  1  0.988300  0.235100  0.764800  1
  H  H707  1  0.511700  0.735100  0.764800  1
  H  H708  1  0.011700  0.764900  0.235200  1
  H  H709  1  0.528500  0.321400  0.253800  1
  H  H710  1  0.028500  0.178600  0.746200  1
  H  H711  1  0.471500  0.678600  0.746200  1
  H  H712  1  0.971500  0.821400  0.253800  1
  H  H713  1  0.513800  0.252100  0.265800  1
  H  H714  1  0.013800  0.247900  0.734200  1
  H  H715  1  0.486200  0.747900  0.734200  1
  H  H716  1  0.986200  0.752100  0.265800  1
  H  H717  1  0.957500  0.073500  0.025000  1
  H  H718  1  0.457500  0.426500  0.975000  1
  H  H719  1  0.042500  0.926500  0.975000  1
  H  H720  1  0.542500  0.573500  0.025000  1
  H  H721  1  0.005800  0.105800  0.003100  1
  H  H722  1  0.505800  0.394200  0.996900  1
  H  H723  1  0.994200  0.894200  0.996900  1
  H  H724  1  0.494200  0.605800  0.003100  1
  H  H725  1  0.925600  0.123200  0.004600  1
  H  H726  1  0.425600  0.376800  0.995400  1
  H  H727  1  0.074400  0.876800  0.995400  1
  H  H728  1  0.574400  0.623200  0.004600  1
  H  H729  1  0.070900  0.387500  0.506600  1
  H  H730  1  0.570900  0.112500  0.493400  1
  H  H731  1  0.929100  0.612500  0.493400  1
  H  H732  1  0.429100  0.887500  0.506600  1
  H  H733  1  0.025700  0.439400  0.525500  1
  H  H734  1  0.525700  0.060600  0.474500  1
  H  H735  1  0.974300  0.560600  0.474500  1
  H  H736  1  0.474300  0.939400  0.525500  1
  H  H737  1  0.989500  0.390300  0.502300  1
  H  H738  1  0.489500  0.109700  0.497700  1
  H  H739  1  0.010500  0.609700  0.497700  1
  H  H740  1  0.510500  0.890300  0.502300  1
  H  H741  1  0.617400  0.363500  0.708600  1
  H  H742  1  0.117400  0.136500  0.291400  1
  H  H743  1  0.382600  0.636500  0.291400  1
  H  H744  1  0.882600  0.863500  0.708600  1
  H  H745  1  0.539800  0.342800  0.714600  1
  H  H746  1  0.039800  0.157200  0.285400  1
  H  H747  1  0.460200  0.657200  0.285400  1
  H  H748  1  0.960200  0.842800  0.714600  1
  H  H749  1  0.556000  0.414300  0.705000  1
  H  H750  1  0.056000  0.085700  0.295000  1
  H  H751  1  0.444000  0.585700  0.295000  1
  H  H752  1  0.944000  0.914300  0.705000  1
  H  H753  1  0.690500  0.693500  0.256700  1
  H  H754  1  0.190500  0.806500  0.743300  1
  H  H755  1  0.309500  0.306500  0.743300  1
  H  H756  1  0.809500  0.193500  0.256700  1
  H  H757  1  0.614100  0.685400  0.268200  1
  H  H758  1  0.114100  0.814600  0.731800  1
  H  H759  1  0.385900  0.314600  0.731800  1
  H  H760  1  0.885900  0.185400  0.268200  1
  H  H761  1  0.626400  0.692200  0.235900  1
  H  H762  1  0.126400  0.807800  0.764100  1
  H  H763  1  0.373600  0.307800  0.764100  1
  H  H764  1  0.873600  0.192200  0.235900  1
  H  H765  1  0.227800  0.651100  0.209700  1
  H  H766  1  0.727800  0.848900  0.790300  1
  H  H767  1  0.772200  0.348900  0.790300  1
  H  H768  1  0.272200  0.151100  0.209700  1
  H  H769  1  0.247600  0.595400  0.229700  1
  H  H770  1  0.747600  0.904600  0.770300  1
  H  H771  1  0.752400  0.404600  0.770300  1
  H  H772  1  0.252400  0.095400  0.229700  1
  H  H773  1  0.290800  0.602500  0.202000  1
  H  H774  1  0.790800  0.897500  0.798000  1
  H  H775  1  0.709200  0.397500  0.798000  1
  H  H776  1  0.209200  0.102500  0.202000  1
  H  H777  1  0.009700  0.544300  0.227800  1
  H  H778  1  0.509700  0.955700  0.772200  1
  H  H779  1  0.990300  0.455700  0.772200  1
  H  H780  1  0.490300  0.044300  0.227800  1
  H  H781  1  0.956100  0.603800  0.227900  1
  H  H782  1  0.456100  0.896200  0.772100  1
  H  H783  1  0.043900  0.396200  0.772100  1
  H  H784  1  0.543900  0.103800  0.227900  1
  H  H785  1  0.035500  0.615800  0.221200  1
  H  H786  1  0.535500  0.884200  0.778800  1
  H  H787  1  0.964500  0.384200  0.778800  1
  H  H788  1  0.464500  0.115800  0.221200  1
  H  H789  1  0.336900  0.156600  0.313600  1
  H  H790  1  0.836900  0.343400  0.686400  1
  H  H791  1  0.663100  0.843400  0.686400  1
  H  H792  1  0.163100  0.656600  0.313600  1
  H  H793  1  0.412200  0.183100  0.320000  1
  H  H794  1  0.912200  0.316900  0.680000  1
  H  H795  1  0.587800  0.816900  0.680000  1
  H  H796  1  0.087800  0.683100  0.320000  1
  H  H797  1  0.319000  0.093300  0.352900  1
  H  H798  1  0.819000  0.406700  0.647100  1
  H  H799  1  0.681000  0.906700  0.647100  1
  H  H800  1  0.181000  0.593300  0.352900  1
  H  H801  1  0.262800  0.144500  0.343500  1
  H  H802  1  0.762800  0.355500  0.656500  1
  H  H803  1  0.737200  0.855500  0.656500  1
  H  H804  1  0.237200  0.644500  0.343500  1
  H  H805  1  0.098500  0.266600  0.181900  1
  H  H806  1  0.598500  0.233400  0.818100  1
  H  H807  1  0.901500  0.733400  0.818100  1
  H  H808  1  0.401500  0.766600  0.181900  1
  H  H809  1  0.178200  0.252200  0.184000  1
  H  H810  1  0.678200  0.247800  0.816000  1
  H  H811  1  0.821800  0.747800  0.816000  1
  H  H812  1  0.321800  0.752200  0.184000  1
  H  H813  1  0.241100  0.219000  0.154600  1
  H  H814  1  0.741100  0.281000  0.845400  1
  H  H815  1  0.758900  0.781000  0.845400  1
  H  H816  1  0.258900  0.719000  0.154600  1
  H  H817  1  0.185700  0.162300  0.146500  1
  H  H818  1  0.685700  0.337700  0.853500  1
  H  H819  1  0.814300  0.837700  0.853500  1
  H  H820  1  0.314300  0.662300  0.146500  1
  Pd  Pd821  1  0.356700  0.148870  0.605960  1
  Pd  Pd822  1  0.856700  0.351130  0.394040  1
  Pd  Pd823  1  0.643300  0.851130  0.394040  1
  Pd  Pd824  1  0.143300  0.648870  0.605960  1
  Pd  Pd825  1  0.340440  0.319770  0.367690  1
  Pd  Pd826  1  0.840440  0.180230  0.632310  1
  Pd  Pd827  1  0.659560  0.680230  0.632310  1
  Pd  Pd828  1  0.159560  0.819770  0.367690  1
  Pd  Pd829  1  0.141810  0.102900  0.890620  1
  Pd  Pd830  1  0.641810  0.397100  0.109380  1
  Pd  Pd831  1  0.858190  0.897100  0.109380  1
  Pd  Pd832  1  0.358190  0.602900  0.890620  1
  Pd  Pd833  1  0.158730  0.381140  0.128660  1
  Pd  Pd834  1  0.658730  0.118860  0.871340  1
  Pd  Pd835  1  0.841270  0.618860  0.871340  1
  Pd  Pd836  1  0.341270  0.881140  0.128660  1
  C  C837  1  0.417000  0.014700  0.622300  1
  C  C838  1  0.917000  0.485300  0.377700  1
  C  C839  1  0.583000  0.985300  0.377700  1
  C  C840  1  0.083000  0.514700  0.622300  1
  C  C841  1  0.387500  0.014100  0.648400  1
  C  C842  1  0.887500  0.485900  0.351600  1
  C  C843  1  0.612500  0.985900  0.351600  1
  C  C844  1  0.112500  0.514100  0.648400  1
  C  C845  1  0.419100  0.978100  0.668800  1
  C  C846  1  0.919100  0.521900  0.331200  1
  C  C847  1  0.580900  0.021900  0.331200  1
  C  C848  1  0.080900  0.478100  0.668800  1
  C  C849  1  0.480100  0.947800  0.662100  1
  C  C850  1  0.980100  0.552200  0.337900  1
  C  C851  1  0.519900  0.052200  0.337900  1
  C  C852  1  0.019900  0.447800  0.662100  1
  C  C853  1  0.509900  0.948400  0.636400  1
  C  C854  1  0.009900  0.551600  0.363600  1
  C  C855  1  0.490100  0.051600  0.363600  1
  C  C856  1  0.990100  0.448400  0.636400  1
  C  C857  1  0.480000  0.981500  0.616400  1
  C  C858  1  0.980000  0.518500  0.383600  1
  C  C859  1  0.520000  0.018500  0.383600  1
  C  C860  1  0.020000  0.481500  0.616400  1
  C  C861  1  0.487700  0.907800  0.708500  1
  C  C862  1  0.987700  0.592200  0.291500  1
  C  C863  1  0.512300  0.092200  0.291500  1
  C  C864  1  0.012300  0.407800  0.708500  1
  C  C865  1  0.383300  0.026700  0.576400  1
  C  C866  1  0.883300  0.473300  0.423600  1
  C  C867  1  0.616700  0.973300  0.423600  1
  C  C868  1  0.116700  0.526700  0.576400  1
  C  C869  1  0.358000  0.066900  0.555000  1
  C  C870  1  0.858000  0.433100  0.445000  1
  C  C871  1  0.642000  0.933100  0.445000  1
  C  C872  1  0.142000  0.566900  0.555000  1
  C  C873  1  0.349200  0.052400  0.527200  1
  C  C874  1  0.849200  0.447600  0.472800  1
  C  C875  1  0.650800  0.947600  0.472800  1
  C  C876  1  0.150800  0.552400  0.527200  1
  C  C877  1  0.326100  0.099900  0.511100  1
  C  C878  1  0.826100  0.400100  0.488900  1
  C  C879  1  0.673900  0.900100  0.488900  1
  C  C880  1  0.173900  0.599900  0.511100  1
  C  C881  1  0.311600  0.165600  0.522700  1
  C  C882  1  0.811600  0.334400  0.477300  1
  C  C883  1  0.688400  0.834400  0.477300  1
  C  C884  1  0.188400  0.665600  0.522700  1
  C  C885  1  0.320700  0.176800  0.550800  1
  C  C886  1  0.820700  0.323200  0.449200  1
  C  C887  1  0.679300  0.823200  0.449200  1
  C  C888  1  0.179300  0.676800  0.550800  1
  C  C889  1  0.312400  0.238500  0.568300  1
  C  C890  1  0.812400  0.261500  0.431700  1
  C  C891  1  0.687600  0.761500  0.431700  1
  C  C892  1  0.187600  0.738500  0.568300  1
  C  C893  1  0.310100  0.297200  0.611800  1
  C  C894  1  0.810100  0.202800  0.388200  1
  C  C895  1  0.689900  0.702800  0.388200  1
  C  C896  1  0.189900  0.797200  0.611800  1
  C  C897  1  0.353700  0.319100  0.634000  1
  C  C898  1  0.853700  0.180900  0.366000  1
  C  C899  1  0.646300  0.680900  0.366000  1
  C  C900  1  0.146300  0.819100  0.634000  1
  C  C901  1  0.340000  0.373800  0.650900  1
  C  C902  1  0.840000  0.126200  0.349100  1
  C  C903  1  0.660000  0.626200  0.349100  1
  C  C904  1  0.160000  0.873800  0.650900  1
  C  C905  1  0.277100  0.408200  0.647300  1
  C  C906  1  0.777100  0.091800  0.352700  1
  C  C907  1  0.722900  0.591800  0.352700  1
  C  C908  1  0.222900  0.908200  0.647300  1
  C  C909  1  0.233900  0.388400  0.625500  1
  C  C910  1  0.733900  0.111600  0.374500  1
  C  C911  1  0.766100  0.611600  0.374500  1
  C  C912  1  0.266100  0.888400  0.625500  1
  C  C913  1  0.248800  0.334100  0.608500  1
  C  C914  1  0.748800  0.165900  0.391500  1
  C  C915  1  0.751200  0.665900  0.391500  1
  C  C916  1  0.251200  0.834100  0.608500  1
  C  C917  1  0.297300  0.485000  0.687700  1
  C  C918  1  0.797300  0.015000  0.312300  1
  C  C919  1  0.702700  0.515000  0.312300  1
  C  C920  1  0.202700  0.985000  0.687700  1
  C  C921  1  0.190900  0.352900  0.350100  1
  C  C922  1  0.690900  0.147100  0.649900  1
  C  C923  1  0.809100  0.647100  0.649900  1
  C  C924  1  0.309100  0.852900  0.350100  1
  C  C925  1  0.187500  0.304600  0.328300  1
  C  C926  1  0.687500  0.195400  0.671700  1
  C  C927  1  0.812500  0.695400  0.671700  1
  C  C928  1  0.312500  0.804600  0.328300  1
  C  C929  1  0.146600  0.312900  0.305300  1
  C  C930  1  0.646600  0.187100  0.694700  1
  C  C931  1  0.853400  0.687100  0.694700  1
  C  C932  1  0.353400  0.812900  0.305300  1
  C  C933  1  0.113900  0.367500  0.304000  1
  C  C934  1  0.613900  0.132500  0.696000  1
  C  C935  1  0.886100  0.632500  0.696000  1
  C  C936  1  0.386100  0.867500  0.304000  1
  C  C937  1  0.117600  0.420200  0.325600  1
  C  C938  1  0.617600  0.079800  0.674400  1
  C  C939  1  0.882400  0.579800  0.674400  1
  C  C940  1  0.382400  0.920200  0.325600  1
  C  C941  1  0.154700  0.411900  0.349300  1
  C  C942  1  0.654700  0.088100  0.650700  1
  C  C943  1  0.845300  0.588100  0.650700  1
  C  C944  1  0.345300  0.911900  0.349300  1
  C  C945  1  0.038500  0.433000  0.277100  1
  C  C946  1  0.538500  0.067000  0.722900  1
  C  C947  1  0.961500  0.567000  0.722900  1
  C  C948  1  0.461500  0.933000  0.277100  1
  C  C949  1  0.219900  0.351800  0.398100  1
  C  C950  1  0.719900  0.148200  0.601900  1
  C  C951  1  0.780100  0.648200  0.601900  1
  C  C952  1  0.280100  0.851800  0.398100  1
  C  C953  1  0.269400  0.341700  0.419700  1
  C  C954  1  0.769400  0.158300  0.580300  1
  C  C955  1  0.730600  0.658300  0.580300  1
  C  C956  1  0.230600  0.841700  0.419700  1
  C  C957  1  0.262900  0.342300  0.448000  1
  C  C958  1  0.762900  0.157700  0.552000  1
  C  C959  1  0.737100  0.657700  0.552000  1
  C  C960  1  0.237100  0.842300  0.448000  1
  C  C961  1  0.317700  0.324100  0.464300  1
  C  C962  1  0.817700  0.175900  0.535700  1
  C  C963  1  0.682300  0.675900  0.535700  1
  C  C964  1  0.182300  0.824100  0.464300  1
  C  C965  1  0.381100  0.309100  0.451800  1
  C  C966  1  0.881100  0.190900  0.548200  1
  C  C967  1  0.618900  0.690900  0.548200  1
  C  C968  1  0.118900  0.809100  0.451800  1
  C  C969  1  0.385600  0.308800  0.422900  1
  C  C970  1  0.885600  0.191200  0.577100  1
  C  C971  1  0.614400  0.691200  0.577100  1
  C  C972  1  0.114400  0.808800  0.422900  1
  C  C973  1  0.447200  0.291500  0.405400  1
  C  C974  1  0.947200  0.208500  0.594600  1
  C  C975  1  0.552800  0.708500  0.594600  1
  C  C976  1  0.052800  0.791500  0.405400  1
  C  C977  1  0.495700  0.278800  0.360900  1
  C  C978  1  0.995700  0.221200  0.639100  1
  C  C979  1  0.504300  0.721200  0.639100  1
  C  C980  1  0.004300  0.778800  0.360900  1
  C  C981  1  0.537200  0.226300  0.363500  1
  C  C982  1  0.037200  0.273700  0.636500  1
  C  C983  1  0.462800  0.773700  0.636500  1
  C  C984  1  0.962800  0.726300  0.363500  1
  C  C985  1  0.589900  0.207800  0.345400  1
  C  C986  1  0.089900  0.292200  0.654600  1
  C  C987  1  0.410100  0.792200  0.654600  1
  C  C988  1  0.910100  0.707800  0.345400  1
  C  C989  1  0.598100  0.245900  0.323400  1
  C  C990  1  0.098100  0.254100  0.676600  1
  C  C991  1  0.401900  0.754100  0.676600  1
  C  C992  1  0.901900  0.745900  0.323400  1
  C  C993  1  0.560700  0.300900  0.320400  1
  C  C994  1  0.060700  0.199100  0.679600  1
  C  C995  1  0.439300  0.699100  0.679600  1
  C  C996  1  0.939300  0.800900  0.320400  1
  C  C997  1  0.507500  0.317200  0.338100  1
  C  C998  1  0.007500  0.182800  0.661900  1
  C  C999  1  0.492500  0.682800  0.661900  1
  C  C1000  1  0.992500  0.817200  0.338100  1
  C  C1001  1  0.699100  0.184000  0.307100  1
  C  C1002  1  0.199100  0.316000  0.692900  1
  C  C1003  1  0.300900  0.816000  0.692900  1
  C  C1004  1  0.800900  0.684000  0.307100  1
  C  C1005  1  0.363000  0.192700  0.323800  1
  C  C1006  1  0.863000  0.307300  0.676200  1
  C  C1007  1  0.637000  0.807300  0.676200  1
  C  C1008  1  0.137000  0.692700  0.323800  1
  C  C1009  1  0.301100  0.138600  0.356600  1
  C  C1010  1  0.801100  0.361400  0.643400  1
  C  C1011  1  0.698900  0.861400  0.643400  1
  C  C1012  1  0.198900  0.638600  0.356600  1
  C  C1013  1  0.275500  0.148200  0.385400  1
  C  C1014  1  0.775500  0.351800  0.614600  1
  C  C1015  1  0.724500  0.851800  0.614600  1
  C  C1016  1  0.224500  0.648200  0.385400  1
  C  C1017  1  0.318700  0.138400  0.407200  1
  C  C1018  1  0.818700  0.361600  0.592800  1
  C  C1019  1  0.681300  0.861600  0.592800  1
  C  C1020  1  0.181300  0.638400  0.407200  1
  C  C1021  1  0.297900  0.153300  0.435100  1
  C  C1022  1  0.797900  0.346700  0.564900  1
  C  C1023  1  0.702100  0.846700  0.564900  1
  C  C1024  1  0.202100  0.653300  0.435100  1
  C  C1025  1  0.230900  0.170300  0.441200  1
  C  C1026  1  0.730900  0.329700  0.558800  1
  C  C1027  1  0.769100  0.829700  0.558800  1
  C  C1028  1  0.269100  0.670300  0.441200  1
  C  C1029  1  0.185500  0.177400  0.418600  1
  C  C1030  1  0.685500  0.322600  0.581400  1
  C  C1031  1  0.814500  0.822600  0.581400  1
  C  C1032  1  0.314500  0.677400  0.418600  1
  C  C1033  1  0.208400  0.167900  0.391800  1
  C  C1034  1  0.708400  0.332100  0.608200  1
  C  C1035  1  0.791600  0.832100  0.608200  1
  C  C1036  1  0.291600  0.667900  0.391800  1
  C  C1037  1  0.141100  0.186800  0.475100  1
  C  C1038  1  0.641100  0.313200  0.524900  1
  C  C1039  1  0.858900  0.813200  0.524900  1
  C  C1040  1  0.358900  0.686800  0.475100  1
  C  C1041  1  0.132300  0.189600  0.506100  1
  C  C1042  1  0.632300  0.310400  0.493900  1
  C  C1043  1  0.867700  0.810400  0.493900  1
  C  C1044  1  0.367700  0.689600  0.506100  1
  C  C1045  1  0.156300  0.118500  0.542200  1
  C  C1046  1  0.656300  0.381500  0.457800  1
  C  C1047  1  0.843700  0.881500  0.457800  1
  C  C1048  1  0.343700  0.618500  0.542200  1
  C  C1049  1  0.180400  0.060000  0.549500  1
  C  C1050  1  0.680400  0.440000  0.450500  1
  C  C1051  1  0.819600  0.940000  0.450500  1
  C  C1052  1  0.319600  0.560000  0.549500  1
  C  C1053  1  0.185600  0.046200  0.577700  1
  C  C1054  1  0.685600  0.453800  0.422300  1
  C  C1055  1  0.814400  0.953800  0.422300  1
  C  C1056  1  0.314400  0.546200  0.577700  1
  C  C1057  1  0.162700  0.091600  0.598200  1
  C  C1058  1  0.662700  0.408400  0.401800  1
  C  C1059  1  0.837300  0.908400  0.401800  1
  C  C1060  1  0.337300  0.591600  0.598200  1
  C  C1061  1  0.142100  0.154300  0.591400  1
  C  C1062  1  0.642100  0.345700  0.408600  1
  C  C1063  1  0.857900  0.845700  0.408600  1
  C  C1064  1  0.357900  0.654300  0.591400  1
  C  C1065  1  0.136900  0.168000  0.562600  1
  C  C1066  1  0.636900  0.332000  0.437400  1
  C  C1067  1  0.863100  0.832000  0.437400  1
  C  C1068  1  0.363100  0.668000  0.562600  1
  C  C1069  1  0.170500  0.077400  0.628300  1
  C  C1070  1  0.670500  0.422600  0.371700  1
  C  C1071  1  0.829500  0.922600  0.371700  1
  C  C1072  1  0.329500  0.577400  0.628300  1
  C  C1073  1  0.241100  0.161000  0.650600  1
  C  C1074  1  0.741100  0.339000  0.349400  1
  C  C1075  1  0.758900  0.839000  0.349400  1
  C  C1076  1  0.258900  0.661000  0.650600  1
  C  C1077  1  0.309200  0.171800  0.664900  1
  C  C1078  1  0.809200  0.328200  0.335100  1
  C  C1079  1  0.690800  0.828200  0.335100  1
  C  C1080  1  0.190800  0.671800  0.664900  1
  C  C1081  1  0.313700  0.180600  0.693400  1
  C  C1082  1  0.813700  0.319400  0.306600  1
  C  C1083  1  0.686300  0.819400  0.306600  1
  C  C1084  1  0.186300  0.680600  0.693400  1
  C  C1085  1  0.375900  0.184400  0.706600  1
  C  C1086  1  0.875900  0.315600  0.293400  1
  C  C1087  1  0.624100  0.815600  0.293400  1
  C  C1088  1  0.124100  0.684400  0.706600  1
  C  C1089  1  0.435700  0.185300  0.689300  1
  C  C1090  1  0.935700  0.314700  0.310700  1
  C  C1091  1  0.564300  0.814700  0.310700  1
  C  C1092  1  0.064300  0.685300  0.689300  1
  C  C1093  1  0.429000  0.175900  0.660400  1
  C  C1094  1  0.929000  0.324100  0.339600  1
  C  C1095  1  0.571000  0.824100  0.339600  1
  C  C1096  1  0.071000  0.675900  0.660400  1
  C  C1097  1  0.491400  0.168900  0.642000  1
  C  C1098  1  0.991400  0.331100  0.358000  1
  C  C1099  1  0.508600  0.831100  0.358000  1
  C  C1100  1  0.008600  0.668900  0.642000  1
  C  C1101  1  0.531900  0.205700  0.599000  1
  C  C1102  1  0.031900  0.294300  0.401000  1
  C  C1103  1  0.468100  0.794300  0.401000  1
  C  C1104  1  0.968100  0.705700  0.599000  1
  C  C1105  1  0.506800  0.248200  0.576300  1
  C  C1106  1  0.006800  0.251800  0.423700  1
  C  C1107  1  0.493200  0.751800  0.423700  1
  C  C1108  1  0.993200  0.748200  0.576300  1
  C  C1109  1  0.498100  0.313600  0.582400  1
  C  C1110  1  0.998100  0.186400  0.417600  1
  C  C1111  1  0.501900  0.686400  0.417600  1
  C  C1112  1  0.001900  0.813600  0.582400  1
  C  C1113  1  0.474400  0.352500  0.562500  1
  C  C1114  1  0.974400  0.147500  0.437500  1
  C  C1115  1  0.525600  0.647500  0.437500  1
  C  C1116  1  0.025600  0.852500  0.562500  1
  C  C1117  1  0.459600  0.324900  0.536400  1
  C  C1118  1  0.959600  0.175100  0.463600  1
  C  C1119  1  0.540400  0.675100  0.463600  1
  C  C1120  1  0.040400  0.824900  0.536400  1
  C  C1121  1  0.467300  0.257500  0.531000  1
  C  C1122  1  0.967300  0.242500  0.469000  1
  C  C1123  1  0.532700  0.742500  0.469000  1
  C  C1124  1  0.032700  0.757500  0.531000  1
  C  C1125  1  0.490200  0.217900  0.550200  1
  C  C1126  1  0.990200  0.282100  0.449800  1
  C  C1127  1  0.509800  0.782100  0.449800  1
  C  C1128  1  0.009800  0.717900  0.550200  1
  C  C1129  1  0.436200  0.431700  0.520400  1
  C  C1130  1  0.936200  0.068300  0.479600  1
  C  C1131  1  0.563800  0.568300  0.479600  1
  C  C1132  1  0.063800  0.931700  0.520400  1
  C  C1133  1  0.407000  0.460900  0.494800  1
  C  C1134  1  0.907000  0.039100  0.505200  1
  C  C1135  1  0.593000  0.539100  0.505200  1
  C  C1136  1  0.093000  0.960900  0.494800  1
  C  C1137  1  0.432900  0.464100  0.446600  1
  C  C1138  1  0.932900  0.035900  0.553400  1
  C  C1139  1  0.567100  0.535900  0.553400  1
  C  C1140  1  0.067100  0.964100  0.446600  1
  C  C1141  1  0.482700  0.451100  0.425700  1
  C  C1142  1  0.982700  0.048900  0.574300  1
  C  C1143  1  0.517300  0.548900  0.574300  1
  C  C1144  1  0.017300  0.951100  0.425700  1
  C  C1145  1  0.468700  0.468200  0.399500  1
  C  C1146  1  0.968700  0.031800  0.600500  1
  C  C1147  1  0.531300  0.531800  0.600500  1
  C  C1148  1  0.031300  0.968200  0.399500  1
  C  C1149  1  0.404400  0.492600  0.393300  1
  C  C1150  1  0.904400  0.007400  0.606700  1
  C  C1151  1  0.595600  0.507400  0.606700  1
  C  C1152  1  0.095600  0.992600  0.393300  1
  C  C1153  1  0.356400  0.504900  0.414800  1
  C  C1154  1  0.856400  0.995100  0.585200  1
  C  C1155  1  0.643600  0.495100  0.585200  1
  C  C1156  1  0.143600  0.004900  0.414800  1
  C  C1157  1  0.371300  0.491700  0.441800  1
  C  C1158  1  0.871300  0.008300  0.558200  1
  C  C1159  1  0.628700  0.508300  0.558200  1
  C  C1160  1  0.128700  0.991700  0.441800  1
  C  C1161  1  0.383100  0.503100  0.364400  1
  C  C1162  1  0.883100  0.996900  0.635600  1
  C  C1163  1  0.616900  0.496900  0.635600  1
  C  C1164  1  0.116900  0.003100  0.364400  1
  C  C1165  1  0.336800  0.435100  0.324400  1
  C  C1166  1  0.836800  0.064900  0.675600  1
  C  C1167  1  0.663200  0.564900  0.675600  1
  C  C1168  1  0.163200  0.935100  0.324400  1
  C  C1169  1  0.338800  0.369400  0.309400  1
  C  C1170  1  0.838800  0.130600  0.690600  1
  C  C1171  1  0.661200  0.630600  0.690600  1
  C  C1172  1  0.161200  0.869400  0.309400  1
  C  C1173  1  0.328800  0.363000  0.281000  1
  C  C1174  1  0.828800  0.137000  0.719000  1
  C  C1175  1  0.671200  0.637000  0.719000  1
  C  C1176  1  0.171200  0.863000  0.281000  1
  C  C1177  1  0.329200  0.301200  0.267400  1
  C  C1178  1  0.829200  0.198800  0.732600  1
  C  C1179  1  0.670800  0.698800  0.732600  1
  C  C1180  1  0.170800  0.801200  0.267400  1
  C  C1181  1  0.338300  0.247000  0.280600  1
  C  C1182  1  0.838300  0.253000  0.719400  1
  C  C1183  1  0.661700  0.753000  0.719400  1
  C  C1184  1  0.161700  0.747000  0.280600  1
  C  C1185  1  0.347000  0.254000  0.309100  1
  C  C1186  1  0.847000  0.246000  0.690900  1
  C  C1187  1  0.653000  0.746000  0.690900  1
  C  C1188  1  0.153000  0.754000  0.309100  1
  C  C1189  1  0.304400  0.437700  0.143900  1
  C  C1190  1  0.804400  0.062300  0.856100  1
  C  C1191  1  0.695600  0.562300  0.856100  1
  C  C1192  1  0.195600  0.937700  0.143900  1
  C  C1193  1  0.316200  0.406800  0.167600  1
  C  C1194  1  0.816200  0.093200  0.832400  1
  C  C1195  1  0.683800  0.593200  0.832400  1
  C  C1196  1  0.183800  0.906800  0.167600  1
  C  C1197  1  0.354500  0.436400  0.188900  1
  C  C1198  1  0.854500  0.063600  0.811100  1
  C  C1199  1  0.645500  0.563600  0.811100  1
  C  C1200  1  0.145500  0.936400  0.188900  1
  C  C1201  1  0.380500  0.498700  0.186500  1
  C  C1202  1  0.880500  0.001300  0.813500  1
  C  C1203  1  0.619500  0.501300  0.813500  1
  C  C1204  1  0.119500  0.998700  0.186500  1
  C  C1205  1  0.369400  0.531200  0.162700  1
  C  C1206  1  0.869400  0.968800  0.837300  1
  C  C1207  1  0.630600  0.468800  0.837300  1
  C  C1208  1  0.130600  0.031200  0.162700  1
  C  C1209  1  0.331000  0.500000  0.141600  1
  C  C1210  1  0.831000  0.000000  0.858400  1
  C  C1211  1  0.669000  0.500000  0.858400  1
  C  C1212  1  0.169000  0.000000  0.141600  1
  C  C1213  1  0.426600  0.508200  0.232300  1
  C  C1214  1  0.926600  0.991800  0.767700  1
  C  C1215  1  0.573400  0.491800  0.767700  1
  C  C1216  1  0.073400  0.008200  0.232300  1
  C  C1217  1  0.277700  0.403600  0.096900  1
  C  C1218  1  0.777700  0.096400  0.903100  1
  C  C1219  1  0.722300  0.596400  0.903100  1
  C  C1220  1  0.222300  0.903600  0.096900  1
  C  C1221  1  0.226700  0.376300  0.076500  1
  C  C1222  1  0.726700  0.123700  0.923500  1
  C  C1223  1  0.773300  0.623700  0.923500  1
  C  C1224  1  0.273300  0.876300  0.076500  1
  C  C1225  1  0.233800  0.362900  0.048100  1
  C  C1226  1  0.733800  0.137100  0.951900  1
  C  C1227  1  0.766200  0.637100  0.951900  1
  C  C1228  1  0.266200  0.862900  0.048100  1
  C  C1229  1  0.178400  0.334300  0.033200  1
  C  C1230  1  0.678400  0.165700  0.966800  1
  C  C1231  1  0.821600  0.665700  0.966800  1
  C  C1232  1  0.321600  0.834300  0.033200  1
  C  C1233  1  0.118400  0.324500  0.045700  1
  C  C1234  1  0.618400  0.175500  0.954300  1
  C  C1235  1  0.881600  0.675500  0.954300  1
  C  C1236  1  0.381600  0.824500  0.045700  1
  C  C1237  1  0.112300  0.338800  0.074000  1
  C  C1238  1  0.612300  0.161200  0.926000  1
  C  C1239  1  0.887700  0.661200  0.926000  1
  C  C1240  1  0.387700  0.838800  0.074000  1
  C  C1241  1  0.052900  0.330900  0.092100  1
  C  C1242  1  0.552900  0.169100  0.907900  1
  C  C1243  1  0.947100  0.669100  0.907900  1
  C  C1244  1  0.447100  0.830900  0.092100  1
  C  C1245  1  0.006000  0.340500  0.137900  1
  C  C1246  1  0.506000  0.159500  0.862100  1
  C  C1247  1  0.994000  0.659500  0.862100  1
  C  C1248  1  0.494000  0.840500  0.137900  1
  C  C1249  1  0.995500  0.386700  0.160600  1
  C  C1250  1  0.495500  0.113300  0.839400  1
  C  C1251  1  0.004500  0.613300  0.839400  1
  C  C1252  1  0.504500  0.886700  0.160600  1
  C  C1253  1  0.944500  0.377300  0.180200  1
  C  C1254  1  0.444500  0.122700  0.819800  1
  C  C1255  1  0.055500  0.622700  0.819800  1
  C  C1256  1  0.555500  0.877300  0.180200  1
  C  C1257  1  0.903700  0.321000  0.177100  1
  C  C1258  1  0.403700  0.179000  0.822900  1
  C  C1259  1  0.096300  0.679000  0.822900  1
  C  C1260  1  0.596300  0.821000  0.177100  1
  C  C1261  1  0.911200  0.275400  0.155500  1
  C  C1262  1  0.411200  0.224600  0.844500  1
  C  C1263  1  0.088800  0.724600  0.844500  1
  C  C1264  1  0.588800  0.775400  0.155500  1
  C  C1265  1  0.963800  0.282500  0.133900  1
  C  C1266  1  0.463800  0.217500  0.866100  1
  C  C1267  1  0.036200  0.717500  0.866100  1
  C  C1268  1  0.536200  0.782500  0.133900  1
  C  C1269  1  0.808700  0.270900  0.196300  1
  C  C1270  1  0.308700  0.229100  0.803700  1
  C  C1271  1  0.191300  0.729100  0.803700  1
  C  C1272  1  0.691300  0.770900  0.196300  1
  C  C1273  1  0.190700  0.249200  0.883500  1
  C  C1274  1  0.690700  0.250800  0.116500  1
  C  C1275  1  0.809300  0.750800  0.116500  1
  C  C1276  1  0.309300  0.749200  0.883500  1
  C  C1277  1  0.145100  0.259400  0.861500  1
  C  C1278  1  0.645100  0.240600  0.138500  1
  C  C1279  1  0.854900  0.740600  0.138500  1
  C  C1280  1  0.354900  0.759400  0.861500  1
  C  C1281  1  0.160000  0.309200  0.843600  1
  C  C1282  1  0.660000  0.190800  0.156400  1
  C  C1283  1  0.840000  0.690800  0.156400  1
  C  C1284  1  0.340000  0.809200  0.843600  1
  C  C1285  1  0.221500  0.342400  0.848000  1
  C  C1286  1  0.721500  0.157600  0.152000  1
  C  C1287  1  0.778500  0.657600  0.152000  1
  C  C1288  1  0.278500  0.842400  0.848000  1
  C  C1289  1  0.264200  0.334400  0.869900  1
  C  C1290  1  0.764200  0.165600  0.130100  1
  C  C1291  1  0.735800  0.665600  0.130100  1
  C  C1292  1  0.235800  0.834400  0.869900  1
  C  C1293  1  0.249500  0.286500  0.887300  1
  C  C1294  1  0.749500  0.213500  0.112700  1
  C  C1295  1  0.750500  0.713500  0.112700  1
  C  C1296  1  0.250500  0.786500  0.887300  1
  C  C1297  1  0.198900  0.405500  0.808500  1
  C  C1298  1  0.698900  0.094500  0.191500  1
  C  C1299  1  0.801100  0.594500  0.191500  1
  C  C1300  1  0.301100  0.905500  0.808500  1
  C  C1301  1  0.185000  0.210000  0.928000  1
  C  C1302  1  0.685000  0.290000  0.072000  1
  C  C1303  1  0.815000  0.790000  0.072000  1
  C  C1304  1  0.315000  0.710000  0.928000  1
  C  C1305  1  0.175900  0.157500  0.945200  1
  C  C1306  1  0.675900  0.342500  0.054800  1
  C  C1307  1  0.824100  0.842500  0.054800  1
  C  C1308  1  0.324100  0.657500  0.945200  1
  C  C1309  1  0.186900  0.158500  0.973700  1
  C  C1310  1  0.686900  0.341500  0.026300  1
  C  C1311  1  0.813100  0.841500  0.026300  1
  C  C1312  1  0.313100  0.658500  0.973700  1
  C  C1313  1  0.173600  0.098000  0.986300  1
  C  C1314  1  0.673600  0.402000  0.013700  1
  C  C1315  1  0.826400  0.902000  0.013700  1
  C  C1316  1  0.326400  0.598000  0.986300  1
  C  C1317  1  0.150800  0.043300  0.970400  1
  C  C1318  1  0.650800  0.456700  0.029600  1
  C  C1319  1  0.849200  0.956700  0.029600  1
  C  C1320  1  0.349200  0.543300  0.970400  1
  C  C1321  1  0.142400  0.046200  0.941900  1
  C  C1322  1  0.642400  0.453800  0.058100  1
  C  C1323  1  0.857600  0.953800  0.058100  1
  C  C1324  1  0.357600  0.546200  0.941900  1
  C  C1325  1  0.117700  0.994200  0.921400  1
  C  C1326  1  0.617700  0.505800  0.078600  1
  C  C1327  1  0.882300  0.005800  0.078600  1
  C  C1328  1  0.382300  0.494200  0.921400  1
  C  C1329  1  0.082700  0.958300  0.875700  1
  C  C1330  1  0.582700  0.541700  0.124300  1
  C  C1331  1  0.917300  0.041700  0.124300  1
  C  C1332  1  0.417300  0.458300  0.875700  1
  C  C1333  1  0.108900  0.949800  0.849100  1
  C  C1334  1  0.608900  0.550200  0.150900  1
  C  C1335  1  0.891100  0.050200  0.150900  1
  C  C1336  1  0.391100  0.449800  0.849100  1
  C  C1337  1  0.077500  0.906800  0.829600  1
  C  C1338  1  0.577500  0.593200  0.170400  1
  C  C1339  1  0.922500  0.093200  0.170400  1
  C  C1340  1  0.422500  0.406800  0.829600  1
  C  C1341  1  0.021200  0.872100  0.836000  1
  C  C1342  1  0.521200  0.627900  0.164000  1
  C  C1343  1  0.978800  0.127900  0.164000  1
  C  C1344  1  0.478800  0.372100  0.836000  1
  C  C1345  1  0.995200  0.880000  0.863500  1
  C  C1346  1  0.495200  0.620000  0.136500  1
  C  C1347  1  0.004800  0.120000  0.136500  1
  C  C1348  1  0.504800  0.380000  0.863500  1
  C  C1349  1  0.025700  0.924000  0.883200  1
  C  C1350  1  0.525700  0.576000  0.116800  1
  C  C1351  1  0.974300  0.076000  0.116800  1
  C  C1352  1  0.474300  0.424000  0.883200  1
  C  C1353  1  0.006400  0.815700  0.791200  1
  C  C1354  1  0.506400  0.684300  0.208800  1
  C  C1355  1  0.993600  0.184300  0.208800  1
  C  C1356  1  0.493600  0.315700  0.791200  1
  C  C1357  1  0.190300  0.100800  0.831000  1
  C  C1358  1  0.690300  0.399200  0.169000  1
  C  C1359  1  0.809700  0.899200  0.169000  1
  C  C1360  1  0.309700  0.600800  0.831000  1
  C  C1361  1  0.183200  0.098900  0.803200  1
  C  C1362  1  0.683200  0.401100  0.196800  1
  C  C1363  1  0.816800  0.901100  0.196800  1
  C  C1364  1  0.316800  0.598900  0.803200  1
  C  C1365  1  0.120900  0.101700  0.791100  1
  C  C1366  1  0.620900  0.398300  0.208900  1
  C  C1367  1  0.879100  0.898300  0.208900  1
  C  C1368  1  0.379100  0.601700  0.791100  1
  C  C1369  1  0.063100  0.107000  0.806700  1
  C  C1370  1  0.563100  0.393000  0.193300  1
  C  C1371  1  0.936900  0.893000  0.193300  1
  C  C1372  1  0.436900  0.607000  0.806700  1
  C  C1373  1  0.070700  0.107300  0.835100  1
  C  C1374  1  0.570700  0.392700  0.164900  1
  C  C1375  1  0.929300  0.892700  0.164900  1
  C  C1376  1  0.429300  0.607300  0.835100  1
  C  C1377  1  0.005700  0.108000  0.853500  1
  C  C1378  1  0.505700  0.392000  0.146500  1
  C  C1379  1  0.994300  0.892000  0.146500  1
  C  C1380  1  0.494300  0.608000  0.853500  1
  C  C1381  1  0.966500  0.161200  0.896600  1
  C  C1382  1  0.466500  0.338800  0.103400  1
  C  C1383  1  0.033500  0.838800  0.103400  1
  C  C1384  1  0.533500  0.661200  0.896600  1
  C  C1385  1  0.989000  0.211300  0.919700  1
  C  C1386  1  0.489000  0.288700  0.080300  1
  C  C1387  1  0.011000  0.788700  0.080300  1
  C  C1388  1  0.511000  0.711300  0.919700  1
  C  C1389  1  0.007500  0.191800  0.946500  1
  C  C1390  1  0.507500  0.308200  0.053500  1
  C  C1391  1  0.992500  0.808200  0.053500  1
  C  C1392  1  0.492500  0.691800  0.946500  1
  C  C1393  1  0.029200  0.239700  0.966300  1
  C  C1394  1  0.529200  0.260300  0.033700  1
  C  C1395  1  0.970800  0.760300  0.033700  1
  C  C1396  1  0.470800  0.739700  0.966300  1
  C  C1397  1  0.036600  0.304600  0.960300  1
  C  C1398  1  0.536600  0.195400  0.039700  1
  C  C1399  1  0.963400  0.695400  0.039700  1
  C  C1400  1  0.463400  0.804600  0.960300  1
  C  C1401  1  0.020300  0.323200  0.934200  1
  C  C1402  1  0.520300  0.176800  0.065800  1
  C  C1403  1  0.979700  0.676800  0.065800  1
  C  C1404  1  0.479700  0.823200  0.934200  1
  C  C1405  1  0.996900  0.274700  0.914300  1
  C  C1406  1  0.496900  0.225300  0.085700  1
  C  C1407  1  0.003100  0.725300  0.085700  1
  C  C1408  1  0.503100  0.774700  0.914300  1
  C  C1409  1  0.059400  0.418000  0.976300  1
  C  C1410  1  0.559400  0.082000  0.023700  1
  C  C1411  1  0.940600  0.582000  0.023700  1
  C  C1412  1  0.440600  0.918000  0.976300  1
  C  C1413  1  0.090200  0.455600  0.000600  1
  C  C1414  1  0.590200  0.044400  0.999400  1
  C  C1415  1  0.909800  0.544400  0.999400  1
  C  C1416  1  0.409800  0.955600  0.000600  1
  C  C1417  1  0.068700  0.482700  0.049000  1
  C  C1418  1  0.568700  0.017300  0.951000  1
  C  C1419  1  0.931300  0.517300  0.951000  1
  C  C1420  1  0.431300  0.982700  0.049000  1
  C  C1421  1  0.128000  0.514500  0.052800  1
  C  C1422  1  0.628000  0.985500  0.947200  1
  C  C1423  1  0.872000  0.485500  0.947200  1
  C  C1424  1  0.372000  0.014500  0.052800  1
  C  C1425  1  0.147800  0.541800  0.078700  1
  C  C1426  1  0.647800  0.958200  0.921300  1
  C  C1427  1  0.852200  0.458200  0.921300  1
  C  C1428  1  0.352200  0.041800  0.078700  1
  C  C1429  1  0.102200  0.539600  0.100800  1
  C  C1430  1  0.602200  0.960400  0.899200  1
  C  C1431  1  0.897800  0.460400  0.899200  1
  C  C1432  1  0.397800  0.039600  0.100800  1
  C  C1433  1  0.036300  0.511700  0.096400  1
  C  C1434  1  0.536300  0.988300  0.903600  1
  C  C1435  1  0.963700  0.488300  0.903600  1
  C  C1436  1  0.463700  0.011700  0.096400  1
  C  C1437  1  0.017800  0.480700  0.070400  1
  C  C1438  1  0.517800  0.019300  0.929600  1
  C  C1439  1  0.982200  0.519300  0.929600  1
  C  C1440  1  0.482200  0.980700  0.070400  1
  C  C1441  1  0.122500  0.565900  0.129400  1
  C  C1442  1  0.622500  0.934100  0.870600  1
  C  C1443  1  0.877500  0.434100  0.870600  1
  C  C1444  1  0.377500  0.065900  0.129400  1
  C  C1445  1  0.162900  0.514600  0.170300  1
  C  C1446  1  0.662900  0.985400  0.829700  1
  C  C1447  1  0.837100  0.485400  0.829700  1
  C  C1448  1  0.337100  0.014600  0.170300  1
  C  C1449  1  0.162000  0.458300  0.185300  1
  C  C1450  1  0.662000  0.041700  0.814700  1
  C  C1451  1  0.838000  0.541700  0.814700  1
  C  C1452  1  0.338000  0.958300  0.185300  1
  C  C1453  1  0.167300  0.471100  0.214400  1
  C  C1454  1  0.667300  0.028900  0.785600  1
  C  C1455  1  0.832700  0.528900  0.785600  1
  C  C1456  1  0.332700  0.971100  0.214400  1
  C  C1457  1  0.171600  0.417000  0.228900  1
  C  C1458  1  0.671600  0.083000  0.771100  1
  C  C1459  1  0.828400  0.583000  0.771100  1
  C  C1460  1  0.328400  0.917000  0.228900  1
  C  C1461  1  0.162900  0.354600  0.216400  1
  C  C1462  1  0.662900  0.145400  0.783600  1
  C  C1463  1  0.837100  0.645400  0.783600  1
  C  C1464  1  0.337100  0.854600  0.216400  1
  C  C1465  1  0.154900  0.344300  0.186700  1
  C  C1466  1  0.654900  0.155700  0.813300  1
  C  C1467  1  0.845100  0.655700  0.813300  1
  C  C1468  1  0.345100  0.844300  0.186700  1
  C  C1469  1  0.144100  0.279400  0.175000  1
  C  C1470  1  0.644100  0.220600  0.825000  1
  C  C1471  1  0.855900  0.720600  0.825000  1
  C  C1472  1  0.355900  0.779400  0.175000  1
  C  C1473  1  0.202400  0.205900  0.141900  1
  C  C1474  1  0.702400  0.294100  0.858100  1
  C  C1475  1  0.797600  0.794100  0.858100  1
  C  C1476  1  0.297600  0.705900  0.141900  1
  C  C1477  1  0.226500  0.202100  0.112300  1
  C  C1478  1  0.726500  0.297900  0.887700  1
  C  C1479  1  0.773500  0.797900  0.887700  1
  C  C1480  1  0.273500  0.702100  0.112300  1
  C  C1481  1  0.292600  0.219000  0.106000  1
  C  C1482  1  0.792600  0.281000  0.894000  1
  C  C1483  1  0.707400  0.781000  0.894000  1
  C  C1484  1  0.207400  0.719000  0.106000  1
  C  C1485  1  0.315900  0.214700  0.077800  1
  C  C1486  1  0.815900  0.285300  0.922200  1
  C  C1487  1  0.684100  0.785300  0.922200  1
  C  C1488  1  0.184100  0.714700  0.077800  1
  C  C1489  1  0.267800  0.193900  0.057100  1
  C  C1490  1  0.767800  0.306100  0.942900  1
  C  C1491  1  0.732200  0.806100  0.942900  1
  C  C1492  1  0.232200  0.693900  0.057100  1
  C  C1493  1  0.202500  0.177100  0.063100  1
  C  C1494  1  0.702500  0.322900  0.936900  1
  C  C1495  1  0.797500  0.822900  0.936900  1
  C  C1496  1  0.297500  0.677100  0.063100  1
  C  C1497  1  0.180700  0.179400  0.090900  1
  C  C1498  1  0.680700  0.320600  0.909100  1
  C  C1499  1  0.819300  0.820600  0.909100  1
  C  C1500  1  0.319300  0.679400  0.090900  1
  C  C1501  1  0.357200  0.193100  0.022700  1
  C  C1502  1  0.857200  0.306900  0.977300  1
  C  C1503  1  0.642800  0.806900  0.977300  1
  C  C1504  1  0.142800  0.693100  0.022700  1
  C  C1505  1  0.364900  0.182600  0.991600  1
  C  C1506  1  0.864900  0.317400  0.008400  1
  C  C1507  1  0.635100  0.817400  0.008400  1
  C  C1508  1  0.135100  0.682600  0.991600  1
  C  C1509  1  0.340500  0.096100  0.954700  1
  C  C1510  1  0.840500  0.403900  0.045300  1
  C  C1511  1  0.659500  0.903900  0.045300  1
  C  C1512  1  0.159500  0.596100  0.954700  1
  C  C1513  1  0.360000  0.139000  0.934200  1
  C  C1514  1  0.860000  0.361000  0.065800  1
  C  C1515  1  0.640000  0.861000  0.065800  1
  C  C1516  1  0.140000  0.639000  0.934200  1
  C  C1517  1  0.356400  0.110900  0.908000  1
  C  C1518  1  0.856400  0.389100  0.092000  1
  C  C1519  1  0.643600  0.889100  0.092000  1
  C  C1520  1  0.143600  0.610900  0.908000  1
  C  C1521  1  0.331600  0.045900  0.899200  1
  C  C1522  1  0.831600  0.454100  0.100800  1
  C  C1523  1  0.668400  0.954100  0.100800  1
  C  C1524  1  0.168400  0.545900  0.899200  1
  C  C1525  1  0.312700  0.009200  0.920300  1
  C  C1526  1  0.812700  0.490800  0.079700  1
  C  C1527  1  0.687300  0.990800  0.079700  1
  C  C1528  1  0.187300  0.509200  0.920300  1
  C  C1529  1  0.319100  0.033300  0.948400  1
  C  C1530  1  0.819100  0.466700  0.051600  1
  C  C1531  1  0.680900  0.966700  0.051600  1
  C  C1532  1  0.180900  0.533300  0.948400  1
  C  C1533  1  0.328700  0.021400  0.869400  1
  C  C1534  1  0.828700  0.478600  0.130600  1
  C  C1535  1  0.671300  0.978600  0.130600  1
  C  C1536  1  0.171300  0.521400  0.869400  1
  C  C1537  1  0.257200  0.095600  0.845200  1
  C  C1538  1  0.757200  0.404400  0.154800  1
  C  C1539  1  0.742800  0.904400  0.154800  1
  C  C1540  1  0.242800  0.595600  0.845200  1
  C  C1541  1  0.594000  0.247000  0.236800  1
  C  C1542  1  0.094000  0.253000  0.763200  1
  C  C1543  1  0.406000  0.753000  0.763200  1
  C  C1544  1  0.906000  0.747000  0.236800  1
  C  C1545  1  0.525000  0.273800  0.249000  1
  C  C1546  1  0.025000  0.226200  0.751000  1
  C  C1547  1  0.475000  0.726200  0.751000  1
  C  C1548  1  0.975000  0.773800  0.249000  1
  C  C1549  1  0.980100  0.166900  0.035400  1
  C  C1550  1  0.480100  0.333100  0.964600  1
  C  C1551  1  0.019900  0.833100  0.964600  1
  C  C1552  1  0.519900  0.666900  0.035400  1
  C  C1553  1  0.966200  0.113200  0.015500  1
  C  C1554  1  0.466200  0.386800  0.984500  1
  C  C1555  1  0.033800  0.886800  0.984500  1
  C  C1556  1  0.533800  0.613200  0.015500  1
  C  C1557  1  0.017400  0.346000  0.536500  1
  C  C1558  1  0.517400  0.154000  0.463500  1
  C  C1559  1  0.982600  0.654000  0.463500  1
  C  C1560  1  0.482600  0.846000  0.536500  1
  C  C1561  1  0.026700  0.394900  0.516000  1
  C  C1562  1  0.526700  0.105100  0.484000  1
  C  C1563  1  0.973300  0.605100  0.484000  1
  C  C1564  1  0.473300  0.894900  0.516000  1
  C  C1565  1  0.561800  0.342400  0.674100  1
  C  C1566  1  0.061800  0.157600  0.325900  1
  C  C1567  1  0.438200  0.657600  0.325900  1
  C  C1568  1  0.938200  0.842400  0.674100  1
  C  C1569  1  0.569400  0.367800  0.702900  1
  C  C1570  1  0.069400  0.132200  0.297100  1
  C  C1571  1  0.430600  0.632200  0.297100  1
  C  C1572  1  0.930600  0.867800  0.702900  1
  C  C1573  1  0.645000  0.674000  0.252500  1
  C  C1574  1  0.145000  0.826000  0.747500  1
  C  C1575  1  0.355000  0.326000  0.747500  1
  C  C1576  1  0.855000  0.174000  0.252500  1
  C  C1577  1  0.650000  0.611000  0.248100  1
  C  C1578  1  0.150000  0.889000  0.751900  1
  C  C1579  1  0.350000  0.389000  0.751900  1
  C  C1580  1  0.850000  0.111000  0.248100  1
  C  C1581  1  0.313900  0.673900  0.233100  1
  C  C1582  1  0.813900  0.826100  0.766900  1
  C  C1583  1  0.686100  0.326100  0.766900  1
  C  C1584  1  0.186100  0.173900  0.233100  1
  C  C1585  1  0.265800  0.626600  0.217200  1
  C  C1586  1  0.765800  0.873400  0.782800  1
  C  C1587  1  0.734200  0.373400  0.782800  1
  C  C1588  1  0.234200  0.126600  0.217200  1
  C  C1589  1  0.984200  0.567800  0.189800  1
  C  C1590  1  0.484200  0.932200  0.810200  1
  C  C1591  1  0.015800  0.432200  0.810200  1
  C  C1592  1  0.515800  0.067800  0.189800  1
  C  C1593  1  0.997400  0.584300  0.219000  1
  C  C1594  1  0.497400  0.915700  0.781000  1
  C  C1595  1  0.002600  0.415700  0.781000  1
  C  C1596  1  0.502600  0.084300  0.219000  1
  N  N1597  1  0.368300  0.168700  0.649100  1
  N  N1598  1  0.868300  0.331300  0.350900  1
  N  N1599  1  0.631700  0.831300  0.350900  1
  N  N1600  1  0.131700  0.668700  0.649100  1
  N  N1601  1  0.387200  0.051600  0.601600  1
  N  N1602  1  0.887200  0.448400  0.398400  1
  N  N1603  1  0.612800  0.948400  0.398400  1
  N  N1604  1  0.112800  0.551600  0.601600  1
  N  N1605  1  0.345300  0.129800  0.566100  1
  N  N1606  1  0.845300  0.370200  0.433900  1
  N  N1607  1  0.654700  0.870200  0.433900  1
  N  N1608  1  0.154700  0.629800  0.566100  1
  N  N1609  1  0.325000  0.239900  0.595000  1
  N  N1610  1  0.825000  0.260100  0.405000  1
  N  N1611  1  0.675000  0.760100  0.405000  1
  N  N1612  1  0.175000  0.739900  0.595000  1
  N  N1613  1  0.237100  0.343300  0.372200  1
  N  N1614  1  0.737100  0.156700  0.627800  1
  N  N1615  1  0.762900  0.656700  0.627800  1
  N  N1616  1  0.262900  0.843300  0.372200  1
  N  N1617  1  0.330200  0.321600  0.407200  1
  N  N1618  1  0.830200  0.178400  0.592800  1
  N  N1619  1  0.669800  0.678400  0.592800  1
  N  N1620  1  0.169800  0.821600  0.407200  1
  N  N1621  1  0.439700  0.295900  0.378900  1
  N  N1622  1  0.939700  0.204100  0.621100  1
  N  N1623  1  0.560300  0.704100  0.621100  1
  N  N1624  1  0.060300  0.795900  0.378900  1
  N  N1625  1  0.344900  0.313500  0.324000  1
  N  N1626  1  0.844900  0.186500  0.676000  1
  N  N1627  1  0.655100  0.686500  0.676000  1
  N  N1628  1  0.155100  0.813500  0.324000  1
  N  N1629  1  0.112600  0.006600  0.895900  1
  N  N1630  1  0.612600  0.493400  0.104100  1
  N  N1631  1  0.887400  0.993400  0.104100  1
  N  N1632  1  0.387400  0.506600  0.895900  1
  N  N1633  1  0.154300  0.103100  0.930200  1
  N  N1634  1  0.654300  0.396900  0.069800  1
  N  N1635  1  0.845700  0.896900  0.069800  1
  N  N1636  1  0.345700  0.603100  0.930200  1
  N  N1637  1  0.174400  0.200300  0.901100  1
  N  N1638  1  0.674400  0.299700  0.098900  1
  N  N1639  1  0.825600  0.799700  0.098900  1
  N  N1640  1  0.325600  0.700300  0.901100  1
  N  N1641  1  0.132300  0.106200  0.848800  1
  N  N1642  1  0.632300  0.393800  0.151200  1
  N  N1643  1  0.867700  0.893800  0.151200  1
  N  N1644  1  0.367700  0.606200  0.848800  1
  N  N1645  1  0.167100  0.364000  0.089700  1
  N  N1646  1  0.667100  0.136000  0.910300  1
  N  N1647  1  0.832900  0.636000  0.910300  1
  N  N1648  1  0.332900  0.864000  0.089700  1
  N  N1649  1  0.261400  0.407700  0.123100  1
  N  N1650  1  0.761400  0.092300  0.876900  1
  N  N1651  1  0.738600  0.592300  0.876900  1
  N  N1652  1  0.238600  0.907700  0.123100  1
  N  N1653  1  0.060600  0.347900  0.119300  1
  N  N1654  1  0.560600  0.152100  0.880700  1
  N  N1655  1  0.939400  0.652100  0.880700  1
  N  N1656  1  0.439400  0.847900  0.119300  1
  N  N1657  1  0.155300  0.397800  0.171700  1
  N  N1658  1  0.655300  0.102200  0.828300  1
  N  N1659  1  0.844700  0.602200  0.828300  1
  N  N1660  1  0.344700  0.897800  0.171700  1
  N  N1661  1  0.655000  0.245000  0.234900  1
  N  N1662  1  0.155000  0.255000  0.765100  1
  N  N1663  1  0.345000  0.755000  0.765100  1
  N  N1664  1  0.845000  0.745000  0.234900  1
  N  N1665  1  0.986900  0.210400  0.051200  1
  N  N1666  1  0.486900  0.289600  0.948800  1
  N  N1667  1  0.013100  0.789600  0.948800  1
  N  N1668  1  0.513100  0.710400  0.051200  1
  N  N1669  1  0.008900  0.309900  0.552600  1
  N  N1670  1  0.508900  0.190100  0.447400  1
  N  N1671  1  0.991100  0.690100  0.447400  1
  N  N1672  1  0.491100  0.809900  0.552600  1
  N  N1673  1  0.560300  0.327400  0.651800  1
  N  N1674  1  0.060300  0.172600  0.348200  1
  N  N1675  1  0.439700  0.672600  0.348200  1
  N  N1676  1  0.939700  0.827400  0.651800  1
  N  N1677  1  0.662400  0.552900  0.240800  1
  N  N1678  1  0.162400  0.947100  0.759200  1
  N  N1679  1  0.337600  0.447100  0.759200  1
  N  N1680  1  0.837600  0.052900  0.240800  1
  N  N1681  1  0.351900  0.704100  0.245400  1
  N  N1682  1  0.851900  0.795900  0.754600  1
  N  N1683  1  0.648100  0.295900  0.754600  1
  N  N1684  1  0.148100  0.204100  0.245400  1
  N  N1685  1  0.975500  0.553800  0.166200  1
  N  N1686  1  0.475500  0.946200  0.833800  1
  N  N1687  1  0.024500  0.446200  0.833800  1
  N  N1688  1  0.524500  0.053800  0.166200  1
  O  O1689  1  0.518000  0.915000  0.681400  1
  O  O1690  1  0.018000  0.585000  0.318600  1
  O  O1691  1  0.482000  0.085000  0.318600  1
  O  O1692  1  0.982000  0.415000  0.681400  1
  O  O1693  1  0.254000  0.460800  0.664400  1
  O  O1694  1  0.754000  0.039200  0.335600  1
  O  O1695  1  0.746000  0.539200  0.335600  1
  O  O1696  1  0.246000  0.960800  0.664400  1
  O  O1697  1  0.649700  0.234300  0.303200  1
  O  O1698  1  0.149700  0.265700  0.696800  1
  O  O1699  1  0.350300  0.765700  0.696800  1
  O  O1700  1  0.850300  0.734300  0.303200  1
  O  O1701  1  0.075300  0.374100  0.279400  1
  O  O1702  1  0.575300  0.125900  0.720600  1
  O  O1703  1  0.924700  0.625900  0.720600  1
  O  O1704  1  0.424700  0.874100  0.279400  1
  O  O1705  1  0.475800  0.207600  0.619000  1
  O  O1706  1  0.975800  0.292400  0.381000  1
  O  O1707  1  0.524200  0.792400  0.381000  1
  O  O1708  1  0.024200  0.707600  0.619000  1
  O  O1709  1  0.236800  0.094400  0.640200  1
  O  O1710  1  0.736800  0.405600  0.359800  1
  O  O1711  1  0.763200  0.905600  0.359800  1
  O  O1712  1  0.263200  0.594400  0.640200  1
  O  O1713  1  0.214400  0.179100  0.468500  1
  O  O1714  1  0.714400  0.320900  0.531500  1
  O  O1715  1  0.785600  0.820900  0.531500  1
  O  O1716  1  0.285600  0.679100  0.468500  1
  O  O1717  1  0.154100  0.125300  0.514200  1
  O  O1718  1  0.654100  0.374700  0.485800  1
  O  O1719  1  0.845900  0.874700  0.485800  1
  O  O1720  1  0.345900  0.625300  0.514200  1
  O  O1721  1  0.434900  0.359000  0.514900  1
  O  O1722  1  0.934900  0.141000  0.485100  1
  O  O1723  1  0.565100  0.641000  0.485100  1
  O  O1724  1  0.065100  0.859000  0.514900  1
  O  O1725  1  0.454000  0.444200  0.472700  1
  O  O1726  1  0.954000  0.055800  0.527300  1
  O  O1727  1  0.546000  0.555800  0.527300  1
  O  O1728  1  0.046000  0.944200  0.472700  1
  O  O1729  1  0.368900  0.436000  0.350500  1
  O  O1730  1  0.868900  0.064000  0.649500  1
  O  O1731  1  0.631100  0.564000  0.649500  1
  O  O1732  1  0.131100  0.936000  0.350500  1
  O  O1733  1  0.305300  0.195300  0.345500  1
  O  O1734  1  0.805300  0.304700  0.654500  1
  O  O1735  1  0.694700  0.804700  0.654500  1
  O  O1736  1  0.194700  0.695300  0.345500  1
  O  O1737  1  0.418200  0.535300  0.206500  1
  O  O1738  1  0.918200  0.964700  0.793500  1
  O  O1739  1  0.581800  0.464700  0.793500  1
  O  O1740  1  0.081800  0.035300  0.206500  1
  O  O1741  1  0.857000  0.317300  0.198000  1
  O  O1742  1  0.357000  0.182700  0.802000  1
  O  O1743  1  0.143000  0.682700  0.802000  1
  O  O1744  1  0.643000  0.817300  0.198000  1
  O  O1745  1  0.244500  0.389300  0.831000  1
  O  O1746  1  0.744500  0.110700  0.169000  1
  O  O1747  1  0.755500  0.610700  0.169000  1
  O  O1748  1  0.255500  0.889300  0.831000  1
  O  O1749  1  0.984500  0.828100  0.819200  1
  O  O1750  1  0.484500  0.671900  0.180800  1
  O  O1751  1  0.015500  0.171900  0.180800  1
  O  O1752  1  0.515500  0.328100  0.819200  1
  O  O1753  1  0.190800  0.274000  0.151100  1
  O  O1754  1  0.690800  0.226000  0.848900  1
  O  O1755  1  0.809200  0.726000  0.848900  1
  O  O1756  1  0.309200  0.774000  0.151100  1
  O  O1757  1  0.131200  0.505600  0.145300  1
  O  O1758  1  0.631200  0.994400  0.854700  1
  O  O1759  1  0.868800  0.494400  0.854700  1
  O  O1760  1  0.368800  0.005600  0.145300  1
  O  O1761  1  0.046400  0.451700  0.024400  1
  O  O1762  1  0.546400  0.048300  0.975600  1
  O  O1763  1  0.953600  0.548300  0.975600  1
  O  O1764  1  0.453600  0.951700  0.024400  1
  O  O1765  1  0.061100  0.349000  0.981600  1
  O  O1766  1  0.561100  0.151000  0.018400  1
  O  O1767  1  0.938900  0.651000  0.018400  1
  O  O1768  1  0.438900  0.849000  0.981600  1
  O  O1769  1  0.285200  0.189000  0.029300  1
  O  O1770  1  0.785200  0.311000  0.970700  1
  O  O1771  1  0.714800  0.811000  0.970700  1
  O  O1772  1  0.214800  0.689000  0.029300  1
  O  O1773  1  0.344600  0.115400  0.983200  1
  O  O1774  1  0.844600  0.384600  0.016800  1
  O  O1775  1  0.655400  0.884600  0.016800  1
  O  O1776  1  0.155400  0.615400  0.983200  1
  O  O1777  1  0.261000  0.034300  0.857300  1
  O  O1778  1  0.761000  0.465700  0.142700  1
  O  O1779  1  0.739000  0.965700  0.142700  1
  O  O1780  1  0.239000  0.534300  0.857300  1
  O  O1781  1  0.019400  0.153900  0.877200  1
  O  O1782  1  0.519400  0.346100  0.122800  1
  O  O1783  1  0.980600  0.846100  0.122800  1
  O  O1784  1  0.480600  0.653900  0.877200  1
  O  O1785  1  0.158000  0.251000  0.367200  1
  O  O1786  1  0.658000  0.249000  0.632800  1
  O  O1787  1  0.842000  0.749000  0.632800  1
  O  O1788  1  0.342000  0.751000  0.367200  1
  O  O1789  1  0.354000  0.184200  0.352400  1
  O  O1790  1  0.854000  0.315800  0.647600  1
  O  O1791  1  0.646000  0.815800  0.647600  1
  O  O1792  1  0.146000  0.684200  0.352400  1
  O  O1793  1  0.145000  0.256000  0.145900  1
  O  O1794  1  0.645000  0.244000  0.854100  1
  O  O1795  1  0.855000  0.744000  0.854100  1
  O  O1796  1  0.355000  0.756000  0.145900  1
  F  F1797  1  0.171200  0.576400  0.266600  1
  F  F1798  1  0.671200  0.923600  0.733400  1
  F  F1799  1  0.828800  0.423600  0.733400  1
  F  F1800  1  0.328800  0.076400  0.266600  1
  F  F1801  1  0.271800  0.515800  0.264200  1
  F  F1802  1  0.771800  0.984200  0.735800  1
  F  F1803  1  0.728200  0.484200  0.735800  1
  F  F1804  1  0.228200  0.015800  0.264200  1
  F  F1805  1  0.208100  0.520100  0.302400  1
  F  F1806  1  0.708100  0.979900  0.697600  1
  F  F1807  1  0.791900  0.479900  0.697600  1
  F  F1808  1  0.291900  0.020100  0.302400  1
  F  F1809  1  0.264500  0.608200  0.291800  1
  F  F1810  1  0.764500  0.891800  0.708200  1
  F  F1811  1  0.735500  0.391800  0.708200  1
  F  F1812  1  0.235500  0.108200  0.291800  1
  F  F1813  1  0.767800  0.195400  0.025600  1
  F  F1814  1  0.267800  0.304600  0.974400  1
  F  F1815  1  0.232200  0.804600  0.974400  1
  F  F1816  1  0.732200  0.695400  0.025600  1
  F  F1817  1  0.763800  0.084300  0.013200  1
  F  F1818  1  0.263800  0.415700  0.986800  1
  F  F1819  1  0.236200  0.915700  0.986800  1
  F  F1820  1  0.736200  0.584300  0.013200  1
  F  F1821  1  0.822300  0.122900  0.051500  1
  F  F1822  1  0.322300  0.377100  0.948500  1
  F  F1823  1  0.177700  0.877100  0.948500  1
  F  F1824  1  0.677700  0.622900  0.051500  1
  F  F1825  1  0.708000  0.131300  0.050600  1
  F  F1826  1  0.208000  0.368700  0.949400  1
  F  F1827  1  0.292000  0.868700  0.949400  1
  F  F1828  1  0.792000  0.631300  0.050600  1
  F  F1829  1  0.391500  0.516800  0.077900  1
  F  F1830  1  0.891500  0.983200  0.922100  1
  F  F1831  1  0.608500  0.483200  0.922100  1
  F  F1832  1  0.108500  0.016800  0.077900  1
  F  F1833  1  0.386000  0.425800  0.047900  1
  F  F1834  1  0.886000  0.074200  0.952100  1
  F  F1835  1  0.614000  0.574200  0.952100  1
  F  F1836  1  0.114000  0.925800  0.047900  1
  F  F1837  1  0.395100  0.527200  0.032100  1
  F  F1838  1  0.895100  0.972800  0.967900  1
  F  F1839  1  0.604900  0.472800  0.967900  1
  F  F1840  1  0.104900  0.027200  0.032100  1
  F  F1841  1  0.486200  0.483700  0.053100  1
  F  F1842  1  0.986200  0.016300  0.946900  1
  F  F1843  1  0.513800  0.516300  0.946900  1
  F  F1844  1  0.013800  0.983700  0.053100  1
  F  F1845  1  0.015200  0.456900  0.447000  1
  F  F1846  1  0.515200  0.043100  0.553000  1
  F  F1847  1  0.984800  0.543100  0.553000  1
  F  F1848  1  0.484800  0.956900  0.447000  1
  F  F1849  1  0.109300  0.464000  0.419500  1
  F  F1850  1  0.609300  0.036000  0.580500  1
  F  F1851  1  0.890700  0.536000  0.580500  1
  F  F1852  1  0.390700  0.964000  0.419500  1
  F  F1853  1  0.108600  0.511800  0.463300  1
  F  F1854  1  0.608600  0.988200  0.536700  1
  F  F1855  1  0.891400  0.488200  0.536700  1
  F  F1856  1  0.391400  0.011800  0.463300  1
  F  F1857  1  0.112600  0.399700  0.453900  1
  F  F1858  1  0.612600  0.100300  0.546100  1
  F  F1859  1  0.887400  0.600300  0.546100  1
  F  F1860  1  0.387400  0.899700  0.453900  1
  F  F1861  1  0.239000  0.422200  0.510700  1
  F  F1862  1  0.739000  0.077800  0.489300  1
  F  F1863  1  0.761000  0.577800  0.489300  1
  F  F1864  1  0.261000  0.922200  0.510700  1
  F  F1865  1  0.291100  0.394200  0.549900  1
  F  F1866  1  0.791100  0.105800  0.450100  1
  F  F1867  1  0.708900  0.605800  0.450100  1
  F  F1868  1  0.208900  0.894200  0.549900  1
  F  F1869  1  0.175800  0.400300  0.548200  1
  F  F1870  1  0.675800  0.099700  0.451800  1
  F  F1871  1  0.824200  0.599700  0.451800  1
  F  F1872  1  0.324200  0.900300  0.548200  1
  F  F1873  1  0.233400  0.316200  0.523500  1
  F  F1874  1  0.733400  0.183800  0.476500  1
  F  F1875  1  0.766600  0.683800  0.476500  1
  F  F1876  1  0.266600  0.816200  0.523500  1
  F  F1877  1  0.838700  0.553800  0.260200  1
  F  F1878  1  0.338700  0.946200  0.739800  1
  F  F1879  1  0.161300  0.446200  0.739800  1
  F  F1880  1  0.661300  0.053800  0.260200  1
  F  F1881  1  0.781400  0.475300  0.238300  1
  F  F1882  1  0.281400  0.024700  0.761700  1
  F  F1883  1  0.218600  0.524700  0.761700  1
  F  F1884  1  0.718600  0.975300  0.238300  1
  F  F1885  1  0.899900  0.484400  0.232200  1
  F  F1886  1  0.399900  0.015600  0.767800  1
  F  F1887  1  0.100100  0.515600  0.767800  1
  F  F1888  1  0.600100  0.984400  0.232200  1
  F  F1889  1  0.861800  0.456700  0.273400  1
  F  F1890  1  0.361800  0.043300  0.726600  1
  F  F1891  1  0.138200  0.543300  0.726600  1
  F  F1892  1  0.638200  0.956700  0.273400  1
  F  F1893  1  0.390200  0.244200  0.160700  1
  F  F1894  1  0.890200  0.255800  0.839300  1
  F  F1895  1  0.609800  0.755800  0.839300  1
  F  F1896  1  0.109800  0.744200  0.160700  1
  F  F1897  1  0.423100  0.293000  0.200000  1
  F  F1898  1  0.923100  0.207000  0.800000  1
  F  F1899  1  0.576900  0.707000  0.800000  1
  F  F1900  1  0.076900  0.793000  0.200000  1
  F  F1901  1  0.313000  0.264900  0.195400  1
  F  F1902  1  0.813000  0.235100  0.804600  1
  F  F1903  1  0.687000  0.735100  0.804600  1
  F  F1904  1  0.187000  0.764900  0.195400  1
  F  F1905  1  0.391700  0.188100  0.198300  1
  F  F1906  1  0.891700  0.311900  0.801700  1
  F  F1907  1  0.608300  0.811900  0.801700  1
  F  F1908  1  0.108300  0.688100  0.198300  1
  F  F1909  1  0.469600  0.440800  0.283000  1
  F  F1910  1  0.969600  0.059200  0.717000  1
  F  F1911  1  0.530400  0.559200  0.717000  1
  F  F1912  1  0.030400  0.940800  0.283000  1
  F  F1913  1  0.546600  0.525300  0.282300  1
  F  F1914  1  0.046600  0.974700  0.717700  1
  F  F1915  1  0.453400  0.474700  0.717700  1
  F  F1916  1  0.953400  0.025300  0.282300  1
  F  F1917  1  0.586400  0.422700  0.279400  1
  F  F1918  1  0.086400  0.077300  0.720600  1
  F  F1919  1  0.413600  0.577300  0.720600  1
  F  F1920  1  0.913600  0.922700  0.279400  1
  F  F1921  1  0.537600  0.465100  0.320400  1
  F  F1922  1  0.037600  0.034900  0.679600  1
  F  F1923  1  0.462400  0.534900  0.679600  1
  F  F1924  1  0.962400  0.965100  0.320400  1
  F  F1925  1  0.905200  0.452000  0.254500  1
  F  F1926  1  0.405200  0.048000  0.745500  1
  F  F1927  1  0.094800  0.548000  0.745500  1
  F  F1928  1  0.594800  0.952000  0.254500  1
  F  F1929  1  0.835000  0.477000  0.221200  1
  F  F1930  1  0.335000  0.023000  0.778800  1
  F  F1931  1  0.165000  0.523000  0.778800  1
  F  F1932  1  0.665000  0.977000  0.221200  1
  F  F1933  1  0.792400  0.439000  0.253900  1
  F  F1934  1  0.292400  0.061000  0.746100  1
  F  F1935  1  0.207600  0.561000  0.746100  1
  F  F1936  1  0.707600  0.939000  0.253900  1
  F  F1937  1  0.489000  0.222000  0.182300  1
  F  F1938  1  0.989000  0.278000  0.817700  1
  F  F1939  1  0.511000  0.778000  0.817700  1
  F  F1940  1  0.011000  0.722000  0.182300  1
