
#######################################################################
#
#                 Cambridge Crystallographic Data Centre
#                                CCDC 
#
#######################################################################
#
# If this CIF has been generated from an entry in the Cambridge 
# Structural Database, then it will include bibliographic, chemical, 
# crystal, experimental, refinement or atomic coordinate data resulting 
# from the CCDC's data processing and validation procedures.
#
#######################################################################

data_VOGYAT
_chemical_formula_moiety         
'C88 H84 N8 O12 Pd2 4+,3.5(C2 H3 N1),4(B1 F4 1-),0.25(H2 O1)'
_chemical_name_systematic        
'(\m~2~-3,11,17,20,26,34,40,43-octaoxa-51,56-diazaheptacyclo[42.2.2.2^13,16^.2^21,24^.2^36,39^.1^5,9^.1^28,32^]hexapentaconta-1(46),5(56),6,8,13,15,21,23,28(51),29,31,36,38,44,47,49,52,54-octadecaene-bis((pyridine-2,6-diyl)bis(N-(4-methoxyphenyl)methanimine)))-di-palladium tetrakis(tetrafluoroborate) acetonitrile solvate hydrate'
_symmetry_cell_setting           monoclinic
_symmetry_space_group_name_H-M   'P 21/c'
_symmetry_Int_Tables_number      14
_space_group_name_Hall           '-P 2ybc'
loop_
_symmetry_equiv_pos_site_id
_symmetry_equiv_pos_as_xyz
1 x,y,z
2 -x,1/2+y,1/2-z
3 -x,-y,-z
4 x,1/2-y,1/2+z
_cell_length_a                   48.32(3)
_cell_length_b                   19.458(14)
_cell_length_c                   20.389(15)
_cell_angle_alpha                90
_cell_angle_beta                 94.979(13)
_cell_angle_gamma                90
_cell_volume                     19097.6
_exptl_crystal_colour            orange
_exptl_crystal_description       Plate
_cell_formula_units_Z            8
loop_
_atom_site_label
_atom_site_type_symbol
_atom_site_fract_x
_atom_site_fract_y
_atom_site_fract_z
Pd1 Pd 0.60596(3) 0.35670(7) 0.14887(7)
Pd2 Pd 0.36769(3) 0.34044(7) 0.31977(7)
N1 N 0.6491(3) 0.3683(8) 0.1687(8)
N2 N 0.6016(3) 0.3872(7) 0.0516(7)
N3 N 0.5661(3) 0.3453(7) 0.1298(7)
N4 N 0.5950(3) 0.3250(7) 0.2399(7)
N5 N 0.3722(3) 0.2371(8) 0.3433(8)
N6 N 0.4072(3) 0.3302(8) 0.3216(8)
N7 N 0.3789(3) 0.4397(7) 0.2959(7)
N8 N 0.3240(3) 0.3449(7) 0.3135(7)
O1 O 0.6814(3) 0.5180(7) -0.0850(7)
O2 O 0.6644(3) 0.2540(7) 0.4608(7)
O3 O 0.3032(3) 0.6497(7) 0.2343(7)
O4 O 0.2794(3) 0.0753(7) 0.3741(8)
O5 O 0.6190(2) 0.4758(6) 0.2076(6)
O6 O 0.6402(2) 0.2368(6) 0.0944(6)
O7 O 0.4685(2) 0.2144(6) 0.1791(6)
O8 O 0.5142(2) 0.1541(6) 0.1253(6)
O9 O 0.5149(2) 0.4349(6) 0.3590(6)
O10 O 0.4727(2) 0.4540(6) 0.4442(6)
O11 O 0.3505(3) 0.3689(7) 0.4360(6)
O12 O 0.3455(4) 0.3053(12) 0.1953(10)
C1 C 0.6223(4) 0.4170(9) 0.0147(9)
C2 C 0.6484(3) 0.3875(9) 0.0141(8)
H1 H 0.6525 0.3462 0.0378
C3 C 0.6688(4) 0.4191(9) -0.0219(9)
H2 H 0.6865 0.3984 -0.0247
C4 C 0.6621(4) 0.4801(10) -0.0522(10)
C5 C 0.6364(4) 0.5099(10) -0.0516(10)
H3 H 0.6325 0.5519 -0.0745
C6 C 0.6164(4) 0.4800(9) -0.0185(10)
H4 H 0.5986 0.5009 -0.0177
C7 C 0.7085(4) 0.4877(13) -0.0922(12)
H5 H 0.7215 0.5237 -0.1033
H6 H 0.7068 0.4533 -0.1274
H7 H 0.7154 0.4658 -0.0507
C8 C 0.5764(4) 0.3833(9) 0.0267(10)
H8 H 0.5716 0.3969 -0.0176
C9 C 0.5550(4) 0.3580(8) 0.0669(9)
C10 C 0.5272(4) 0.3492(8) 0.0524(9)
H9 H 0.5191 0.3591 0.0094
C11 C 0.5111(4) 0.3261(8) 0.0999(9)
H10 H 0.4917 0.3194 0.0891
C12 C 0.5227(4) 0.3116(8) 0.1656(9)
H11 H 0.5116 0.2968 0.1992
C13 C 0.5508(4) 0.3207(8) 0.1768(9)
C14 C 0.5683(3) 0.3124(8) 0.2385(9)
H12 H 0.5604 0.2980 0.2773
C15 C 0.6118(4) 0.3101(9) 0.2972(9)
C16 C 0.6340(4) 0.3537(9) 0.3191(9)
H13 H 0.6372 0.3940 0.2945
C17 C 0.6509(4) 0.3400(9) 0.3738(9)
H14 H 0.6650 0.3717 0.3892
C18 C 0.6473(4) 0.2771(10) 0.4082(10)
C19 C 0.6255(4) 0.2339(10) 0.3884(10)
H15 H 0.6225 0.1935 0.4131
C20 C 0.6085(4) 0.2488(9) 0.3341(9)
H16 H 0.5940 0.2178 0.3202
C21 C 0.6877(4) 0.2973(11) 0.4850(10)
H17 H 0.6985 0.2740 0.5214
H18 H 0.6807 0.3411 0.5006
H19 H 0.6997 0.3059 0.4494
C22 C 0.3501(4) 0.1909(9) 0.3529(10)
C23 C 0.3283(4) 0.1875(10) 0.3046(11)
H20 H 0.3290 0.2134 0.2653
C24 C 0.3053(4) 0.1466(10) 0.3129(12)
H21 H 0.2908 0.1427 0.2787
C25 C 0.3040(4) 0.1139(10) 0.3675(12)
C26 C 0.3256(4) 0.1176(10) 0.4202(12)
H22 H 0.3235 0.0947 0.4606
C27 C 0.3493(4) 0.1547(10) 0.4119(11)
H23 H 0.3645 0.1556 0.4449
C28 C 0.2771(5) 0.0385(13) 0.4330(13)
H24 H 0.2581 0.0207 0.4336
H25 H 0.2813 0.0691 0.4707
H26 H 0.2902 0.0001 0.4355
C29 C 0.3981(4) 0.2199(10) 0.3518(10)
H27 H 0.4030 0.1743 0.3648
C30 C 0.4197(4) 0.2694(10) 0.3417(9)
C31 C 0.4480(4) 0.2629(10) 0.3423(8)
H28 H 0.4566 0.2205 0.3552
C32 C 0.4643(4) 0.3177(10) 0.3241(9)
H29 H 0.4837 0.3120 0.3219
C33 C 0.4518(4) 0.3811(10) 0.3091(9)
H30 H 0.4626 0.4200 0.2993
C34 C 0.4229(4) 0.3856(9) 0.3088(9)
C35 C 0.4054(4) 0.4472(10) 0.2915(9)
H31 H 0.4131 0.4893 0.2782
C36 C 0.3609(4) 0.4957(9) 0.2788(9)
C37 C 0.3635(4) 0.5372(9) 0.2263(9)
H32 H 0.3788 0.5295 0.2007
C38 C 0.3454(4) 0.5899(9) 0.2078(9)
H33 H 0.3480 0.6187 0.1711
C39 C 0.3234(4) 0.5981(9) 0.2459(9)
C40 C 0.3204(4) 0.5607(9) 0.3009(9)
H34 H 0.3060 0.5715 0.3282
C41 C 0.3381(4) 0.5075(9) 0.3172(9)
H35 H 0.3353 0.4788 0.3536
C42 C 0.3071(5) 0.6991(12) 0.1840(12)
H36 H 0.2921 0.7332 0.1827
H37 H 0.3068 0.6759 0.1413
H38 H 0.3250 0.7222 0.1936
C43 C 0.3238(4) 0.3630(10) 0.1927(10)
H39 H 0.3327 0.4089 0.1955
H40 H 0.3109 0.3603 0.1523
C44 C 0.3566(4) 0.3011(11) 0.1386(11)
H41 H 0.3564 0.3470 0.1176
H42 H 0.3454 0.2696 0.1088
C45 C 0.3854(4) 0.2755(10) 0.1482(11)
C46 C 0.4072(4) 0.3187(11) 0.1384(11)
H43 H 0.4035 0.3634 0.1213
C47 C 0.4351(4) 0.2979(10) 0.1533(10)
H44 H 0.4497 0.3305 0.1516
C48 C 0.4412(4) 0.2309(9) 0.1703(9)
C49 C 0.4186(4) 0.1855(10) 0.1774(9)
H45 H 0.4222 0.1389 0.1889
C50 C 0.3918(4) 0.2084(10) 0.1679(9)
H46 H 0.3771 0.1776 0.1748
C51 C 0.4751(4) 0.1411(9) 0.1868(11)
H47 H 0.4660 0.1149 0.1492
H48 H 0.4680 0.1234 0.2277
C52 C 0.5061(4) 0.1323(10) 0.1896(10)
H49 H 0.5154 0.1610 0.2250
H50 H 0.5112 0.0836 0.1981
C53 C 0.5422(3) 0.1563(8) 0.1185(9)
C54 C 0.5495(4) 0.1804(9) 0.0600(10)
H51 H 0.5353 0.1941 0.0274
C55 C 0.5777(4) 0.1856(8) 0.0462(10)
H52 H 0.5823 0.2050 0.0058
C56 C 0.5982(4) 0.1627(9) 0.0916(10)
C57 C 0.5914(3) 0.1421(8) 0.1543(9)
H53 H 0.6057 0.1317 0.1878
C58 C 0.5626(3) 0.1369(9) 0.1680(10)
H54 H 0.5577 0.1207 0.2094
C59 C 0.6283(4) 0.1705(9) 0.0774(10)
H55 H 0.6394 0.1347 0.1021
H56 H 0.6297 0.1623 0.0299
C60 C 0.6506(4) 0.2411(9) 0.1610(9)
H57 H 0.6638 0.2032 0.1720
H58 H 0.6351 0.2372 0.1897
C61 C 0.6649(4) 0.3092(9) 0.1718(10)
C62 C 0.6934(4) 0.3137(11) 0.1806(11)
H59 H 0.7042 0.2728 0.1842
C63 C 0.7066(4) 0.3759(11) 0.1844(11)
H60 H 0.7263 0.3793 0.1863
C64 C 0.6893(4) 0.4357(11) 0.1853(10)
H61 H 0.6975 0.4798 0.1923
C65 C 0.6604(4) 0.4290(9) 0.1759(9)
C66 C 0.6420(4) 0.4914(9) 0.1689(10)
H62 H 0.6520 0.5329 0.1860
H63 H 0.6353 0.4991 0.1222
C67 C 0.5990(4) 0.5319(9) 0.2057(10)
H64 H 0.5912 0.5409 0.1600
H65 H 0.6078 0.5745 0.2241
C68 C 0.5763(4) 0.5068(9) 0.2482(9)
C69 C 0.5824(4) 0.4981(8) 0.3136(9)
H66 H 0.6005 0.5084 0.3329
C70 C 0.5625(4) 0.4744(8) 0.3525(10)
H67 H 0.5670 0.4683 0.3984
C71 C 0.5364(4) 0.4596(8) 0.3249(9)
C72 C 0.5310(4) 0.4673(9) 0.2575(9)
H68 H 0.5130 0.4560 0.2380
C73 C 0.5502(4) 0.4902(8) 0.2179(9)
H69 H 0.5461 0.4946 0.1716
C74 C 0.5204(4) 0.4362(10) 0.4317(9)
H70 H 0.5238 0.4839 0.4472
H71 H 0.5369 0.4081 0.4456
C75 C 0.4948(3) 0.4070(9) 0.4609(9)
H72 H 0.4901 0.3610 0.4421
H73 H 0.4982 0.4026 0.5093
C76 C 0.4466(4) 0.4329(9) 0.4641(9)
C77 C 0.4257(4) 0.4827(9) 0.4511(9)
H74 H 0.4298 0.5252 0.4309
C78 C 0.3995(4) 0.4687(10) 0.4682(10)
H75 H 0.3855 0.5031 0.4632
C79 C 0.3933(4) 0.4044(10) 0.4926(9)
C80 C 0.4148(4) 0.3564(10) 0.5049(10)
H76 H 0.4107 0.3127 0.5226
C81 C 0.4418(4) 0.3713(9) 0.4917(9)
H77 H 0.4565 0.3394 0.5018
C82 C 0.3644(4) 0.3831(11) 0.5031(10)
H78 H 0.3546 0.4203 0.5250
H79 H 0.3645 0.3414 0.5309
C83 C 0.3244(4) 0.3368(11) 0.4351(10)
H80 H 0.3132 0.3601 0.4668
H81 H 0.3270 0.2884 0.4492
C84 C 0.3094(4) 0.3388(10) 0.3694(10)
C85 C 0.2810(4) 0.3288(12) 0.3630(11)
H82 H 0.2711 0.3219 0.4008
C86 C 0.2674(5) 0.3292(13) 0.3012(11)
H83 H 0.2478 0.3228 0.2968
C87 C 0.2806(4) 0.3383(11) 0.2470(11)
H84 H 0.2707 0.3388 0.2047
C88 C 0.3091(4) 0.3470(9) 0.2540(9)
Pd3 Pd -0.10938(3) 0.14181(7) 0.10290(8)
Pd4 Pd 0.12866(3) 0.15873(7) 0.38114(8)
N9 N -0.1041(3) 0.1126(7) 0.0066(7)
N10 N -0.0698(3) 0.1543(6) 0.1031(7)
N11 N -0.0989(3) 0.1744(7) 0.2003(7)
N12 N -0.1512(3) 0.1323(8) 0.1062(8)
N13 N 0.0897(3) 0.1671(8) 0.3640(9)
N14 N 0.1231(3) 0.2614(8) 0.4077(8)
N15 N 0.1193(3) 0.0606(8) 0.3479(7)
N16 N 0.1717(3) 0.1553(7) 0.3978(9)
O13 O 0.2065(3) 0.4182(8) 0.5353(8)
O14 O 0.1980(4) -0.1430(8) 0.3173(8)
O15 O -0.1690(3) 0.2445(8) 0.3893(7)
O16 O -0.1808(3) -0.0155(8) -0.1719(8)
O17 O 0.1511(4) 0.1908(15) 0.2740(12)
O18 O 0.1453(3) 0.1312(8) 0.5056(8)
O19 O 0.0244(2) 0.0464(6) 0.4517(6)
O20 O -0.0184(3) 0.0611(6) 0.3490(6)
O21 O 0.0293(2) 0.2852(6) 0.1890(6)
O22 O -0.0168(2) 0.3446(6) 0.1154(6)
O23 O -0.1427(3) 0.2610(6) 0.0343(6)
O24 O -0.1228(2) 0.0194(6) 0.1539(6)
C89 C 0.1439(4) 0.3044(9) 0.4377(11)
C90 C 0.1676(4) 0.3162(10) 0.4068(11)
H85 H 0.1693 0.2974 0.3643
C91 C 0.1889(4) 0.3545(10) 0.4364(11)
H86 H 0.2051 0.3631 0.4144
C92 C 0.1865(4) 0.3805(10) 0.4987(12)
C93 C 0.1627(4) 0.3694(11) 0.5312(12)
H87 H 0.1610 0.3879 0.5738
C94 C 0.1416(5) 0.3310(11) 0.5000(12)
H88 H 0.1253 0.3226 0.5214
C95 C 0.2323(4) 0.4266(12) 0.5082(12)
H89 H 0.2446 0.4552 0.5377
H90 H 0.2293 0.4489 0.4651
H91 H 0.2409 0.3815 0.5032
C96 C 0.0969(4) 0.2777(10) 0.4036(10)
H92 H 0.0910 0.3214 0.4178
C97 C 0.0765(4) 0.2267(10) 0.3763(10)
C98 C 0.0481(4) 0.2338(11) 0.3629(10)
H93 H 0.0390 0.2753 0.3729
C99 C 0.0332(4) 0.1784(10) 0.3343(9)
H94 H 0.0139 0.1834 0.3218
C100 C 0.0457(4) 0.1184(10) 0.3245(9)
H95 H 0.0351 0.0801 0.3077
C101 C 0.0740(4) 0.1123(10) 0.3388(9)
C102 C 0.0921(4) 0.0529(10) 0.3309(10)
H96 H 0.0848 0.0104 0.3143
C103 C 0.1379(4) 0.0060(10) 0.3405(11)
C104 C 0.1606(4) -0.0045(9) 0.3867(11)
H97 H 0.1627 0.0234 0.4250
C105 C 0.1802(4) -0.0555(9) 0.3773(11)
H98 H 0.1955 -0.0623 0.4091
C106 C 0.1771(5) -0.0963(10) 0.3210(11)
C107 C 0.1555(4) -0.0888(9) 0.2754(11)
H99 H 0.1541 -0.1179 0.2378
C108 C 0.1339(4) -0.0362(9) 0.2825(10)
H100 H 0.1184 -0.0306 0.2510
C109 C 0.1963(6) -0.1913(14) 0.2709(14)
H101 H 0.1784 -0.2153 0.2713
H102 H 0.2115 -0.2242 0.2794
H103 H 0.1975 -0.1699 0.2277
C110 C -0.1165(4) 0.1907(9) 0.2492(9)
C111 C -0.1385(4) 0.1451(10) 0.2594(9)
H104 H -0.1412 0.1049 0.2332
C112 C -0.1564(4) 0.1600(9) 0.3092(8)
H105 H -0.1707 0.1292 0.3192
C113 C -0.1520(4) 0.2215(11) 0.3424(10)
C114 C -0.1301(4) 0.2642(11) 0.3344(10)
H106 H -0.1269 0.3035 0.3616
C115 C -0.1127(4) 0.2495(10) 0.2865(10)
H107 H -0.0980 0.2800 0.2790
C116 C -0.1915(5) 0.1989(13) 0.4055(11)
H108 H -0.2034 0.2230 0.4346
H109 H -0.1836 0.1579 0.4278
H110 H -0.2025 0.1854 0.3650
C117 C -0.0720(4) 0.1850(8) 0.2100(9)
H111 H -0.0640 0.1989 0.2521
C118 C -0.0548(4) 0.1759(9) 0.1575(9)
C119 C -0.0263(4) 0.1869(9) 0.1585(10)
H112 H -0.0156 0.2024 0.1970
C120 C -0.0137(4) 0.1736(9) 0.0980(9)
H113 H 0.0056 0.1806 0.0961
C121 C -0.0296(4) 0.1508(9) 0.0433(10)
H114 H -0.0212 0.1409 0.0039
C122 C -0.0581(4) 0.1424(9) 0.0462(9)
C123 C -0.0786(4) 0.1177(9) -0.0058(10)
H115 H -0.0731 0.1058 -0.0479
C124 C -0.1243(4) 0.0827(8) -0.0417(9)
C125 C -0.1509(4) 0.1089(9) -0.0502(9)
H116 H -0.1557 0.1486 -0.0265
C126 C -0.1704(4) 0.0775(10) -0.0932(10)
H117 H -0.1888 0.0955 -0.0986
C127 C -0.1640(4) 0.0212(10) -0.1279(10)
C128 C -0.1365(4) -0.0048(10) -0.1200(10)
H118 H -0.1315 -0.0434 -0.1451
C129 C -0.1168(4) 0.0257(9) -0.0760(10)
H119 H -0.0984 0.0078 -0.0696
C130 C -0.2088(5) 0.0064(13) -0.1843(12)
H120 H -0.2187 -0.0254 -0.2153
H121 H -0.2092 0.0527 -0.2033
H122 H -0.2177 0.0070 -0.1430
C131 C -0.1690(4) 0.1903(10) 0.1008(10)
C132 C -0.1968(4) 0.1832(11) 0.0989(11)
H123 H -0.2082 0.2231 0.0956
C133 C -0.2089(5) 0.1209(11) 0.1017(11)
H124 H -0.2286 0.1176 0.0999
C134 C -0.1933(4) 0.0631(11) 0.1070(11)
H125 H -0.2016 0.0191 0.1104
C135 C -0.1649(4) 0.0707(10) 0.1073(10)
C136 C -0.1465(4) 0.0057(9) 0.1080(10)
H126 H -0.1568 -0.0349 0.1221
H127 H -0.1405 -0.0032 0.0635
C137 C -0.1034(4) -0.0335(9) 0.1612(10)
H128 H -0.0958 -0.0433 0.1186
H129 H -0.1122 -0.0758 0.1765
C138 C -0.0803(4) -0.0110(9) 0.2113(10)
C139 C -0.0535(4) 0.0075(8) 0.1918(10)
H130 H -0.0496 0.0048 0.1471
C140 C -0.0337(4) 0.0292(9) 0.2397(9)
H131 H -0.0155 0.0394 0.2281
C141 C -0.0397(4) 0.0366(9) 0.3046(10)
C142 C -0.0658(4) 0.0203(10) 0.3232(11)
H132 H -0.0699 0.0247 0.3677
C143 C -0.0857(4) -0.0031(9) 0.2747(10)
H133 H -0.1038 -0.0138 0.2867
C144 C -0.0237(4) 0.0594(10) 0.4180(9)
H134 H -0.0263 0.0114 0.4324
H135 H -0.0407 0.0858 0.4250
C145 C 0.0006(4) 0.0902(9) 0.4556(9)
H136 H 0.0044 0.1361 0.4375
H137 H -0.0033 0.0959 0.5022
C146 C 0.0490(4) 0.0687(10) 0.4827(9)
C147 C 0.0528(4) 0.1280(10) 0.5145(10)
H138 H 0.0374 0.1575 0.5184
C148 C 0.0787(4) 0.1478(12) 0.5418(11)
H139 H 0.0813 0.1916 0.5618
C149 C 0.1008(5) 0.1022(12) 0.5396(11)
C150 C 0.0964(4) 0.0363(11) 0.5117(9)
H140 H 0.1112 0.0041 0.5138
C151 C 0.0704(4) 0.0178(10) 0.4807(9)
H141 H 0.0672 -0.0254 0.4598
C152 C 0.1294(5) 0.1225(14) 0.5659(12)
H142 H 0.1380 0.0863 0.5951
H143 H 0.1291 0.1660 0.5909
C153 C 0.1703(4) 0.1629(12) 0.5146(11)
H144 H 0.1815 0.1402 0.5514
H145 H 0.1674 0.2113 0.5274
C154 C 0.1853(4) 0.1620(11) 0.4583(12)
C155 C 0.2144(5) 0.1673(12) 0.4711(13)
H146 H 0.2232 0.1679 0.5145
C156 C 0.2289(5) 0.1716(14) 0.4170(14)
H147 H 0.2483 0.1810 0.4227
C157 C 0.2164(4) 0.1629(12) 0.3546(13)
H148 H 0.2274 0.1621 0.3181
C158 C 0.1867(4) 0.1549(10) 0.3443(12)
C159 C 0.1750(4) 0.1441(13) 0.2794(12)
H149 H 0.1691 0.0957 0.2727
H150 H 0.1884 0.1560 0.2470
C160 C 0.1419(4) 0.2024(13) 0.2059(12)
H151 H 0.1433 0.1594 0.1805
H152 H 0.1538 0.2377 0.1871
C161 C 0.1123(4) 0.2265(11) 0.2021(11)
C162 C 0.1060(4) 0.2926(11) 0.2190(10)
H153 H 0.1205 0.3233 0.2338
C163 C 0.0778(4) 0.3159(10) 0.2147(10)
H154 H 0.0733 0.3618 0.2254
C164 C 0.0571(4) 0.2678(9) 0.1939(9)
C165 C 0.0631(4) 0.2025(10) 0.1771(10)
H155 H 0.0485 0.1714 0.1637
C166 C 0.0909(4) 0.1807(11) 0.1794(11)
H156 H 0.0953 0.1355 0.1658
C167 C 0.0227(4) 0.3572(9) 0.1931(10)
H157 H 0.0317 0.3831 0.1590
H158 H 0.0296 0.3754 0.2368
C168 C -0.0084(4) 0.3649(10) 0.1826(10)
H159 H -0.0176 0.3354 0.2138
H160 H -0.0138 0.4132 0.1899
C169 C -0.0453(4) 0.3405(8) 0.0961(9)
C170 C -0.0658(4) 0.3600(10) 0.1390(11)
H161 H -0.0613 0.3742 0.1832
C171 C -0.0920(4) 0.3564(10) 0.1109(11)
H162 H -0.1062 0.3720 0.1367
C172 C -0.1008(4) 0.3316(10) 0.0459(11)
C173 C -0.0797(4) 0.3127(9) 0.0092(10)
H163 H -0.0841 0.2947 -0.0337
C174 C -0.0516(4) 0.3191(8) 0.0333(10)
H164 H -0.0372 0.3085 0.0060
C175 C -0.1306(4) 0.3287(9) 0.0214(11)
H165 H -0.1409 0.3648 0.0433
H166 H -0.1325 0.3378 -0.0265
C176 C -0.1548(4) 0.2572(9) 0.0956(10)
H167 H -0.1683 0.2950 0.0985
H168 H -0.1402 0.2622 0.1324
B1 B 0.2801(8) 0.226(2) 0.554(2)
F1 F 0.2666(3) 0.1712(8) 0.5764(8)
F2 F 0.2642(3) 0.2718(9) 0.5158(8)
F3 F 0.3024(4) 0.2081(10) 0.5201(10)
F4 F 0.2918(3) 0.2645(9) 0.6082(9)
B2 B 0.0357(6) 0.7669(14) 0.1352(15)
F5 F 0.0256(3) 0.7678(7) 0.1954(6)
F6 F 0.0132(2) 0.7638(7) 0.0843(6)
F7 F 0.0515(3) 0.8223(7) 0.1229(7)
F8 F 0.0506(3) 0.7080(6) 0.1313(6)
B3 B 0.0525(5) 0.4157(12) 0.4907(15)
F9 F 0.0779(3) 0.3915(7) 0.5168(7)
F10 F 0.0479(3) 0.3860(6) 0.4258(7)
F11 F 0.0321(3) 0.3951(6) 0.5272(7)
F12 F 0.0531(2) 0.4862(6) 0.4837(6)
B4 B 0.4466(6) 0.0843(13) 0.4618(16)
F13 F 0.4470(2) 0.0152(6) 0.4569(6)
F14 F 0.4195(3) 0.1093(6) 0.4640(7)
F15 F 0.4633(3) 0.1086(7) 0.5118(8)
F16 F 0.4539(3) 0.1126(6) 0.3997(7)
B5 B 0.5329(5) 0.2328(13) 0.3789(14)
F17 F 0.5107(2) 0.2390(6) 0.4222(6)
F18 F 0.5499(3) 0.2911(6) 0.3942(6)
F19 F 0.5482(3) 0.1758(6) 0.4003(7)
F20 F 0.5235(2) 0.2334(6) 0.3162(6)
B6 B 0.2494(5) 0.8447(10) 0.483(2)
F21 F 0.2602(3) 0.8387(9) 0.5538(10)
F22 F 0.2383(6) 0.7814(13) 0.4753(17)
F23 F 0.2322(6) 0.8999(14) 0.4844(15)
F24 F 0.2734(5) 0.8618(13) 0.4567(15)
B7 B 0.1884(3) 0.3785(9) 0.2471(8)
F25 F 0.1607(4) 0.3902(10) 0.2442(11)
F26 F 0.2000(4) 0.4231(9) 0.2930(9)
F27 F 0.1954(4) 0.3130(9) 0.2649(9)
F28 F 0.1983(5) 0.3917(10) 0.1881(9)
B8 B 0.2918(9) 0.531(2) 0.464(2)
F29 F 0.2830(4) 0.4696(10) 0.4408(11)
F30 F 0.2823(4) 0.5466(9) 0.5253(9)
F31 F 0.2794(3) 0.5864(9) 0.4227(8)
F32 F 0.3204(4) 0.5376(8) 0.4651(8)
C177 C 0.2368(9) 0.594(3) 0.247(2)
C178 C 0.2490(7) 0.525(2) 0.2738(19)
H169 H 0.2352 0.4883 0.2649
H170 H 0.2538 0.5285 0.3214
H171 H 0.2658 0.5138 0.2521
N17 N 0.2349(10) 0.655(3) 0.245(2)
N18 N 0.0512(5) 0.9869(12) 0.2104(13)
C179 C 0.0354(5) 0.9801(13) 0.1669(14)
C180 C 0.0155(4) 0.9662(12) 0.1132(11)
H172 H 0.0250 0.9575 0.0735
H173 H 0.0031 1.0058 0.1058
H174 H 0.0046 0.9256 0.1232
C181 C 0.5365(5) 0.0174(11) 0.3460(11)
C182 C 0.5160(4) 0.0267(13) 0.3949(10)
H175 H 0.5066 0.0709 0.3875
H176 H 0.5255 0.0257 0.4394
H177 H 0.5023 -0.0105 0.3903
N19 N 0.5526(5) 0.0089(12) 0.3099(12)
N20 N 0.6518(4) 0.5603(11) 0.3274(10)
C183 C 0.6741(5) 0.5618(12) 0.3424(12)
C184 C 0.7029(5) 0.5694(15) 0.3678(16)
H178 H 0.7086 0.6174 0.3635
H179 H 0.7146 0.5398 0.3428
H180 H 0.7050 0.5560 0.4143
C185 C 0.2525(8) 0.645(2) 0.674(2)
H181 H 0.2567 0.6905 0.6935
H182 H 0.2682 0.6141 0.6854
H183 H 0.2359 0.6264 0.6922
N21 N 0.2408(6) 0.6624(19) 0.5529(18)
C186 C 0.2481(9) 0.650(2) 0.611(3)
N22 N 0.2454(5) 0.3519(15) 0.7041(13)
C187 C 0.2331(5) 0.3139(13) 0.6739(12)
C188 C 0.2172(5) 0.2658(15) 0.6266(14)
H184 H 0.2097 0.2278 0.6511
H185 H 0.2297 0.2476 0.5954
H186 H 0.2020 0.2908 0.6025
C189 C 0.1898(6) 0.9842(14) 0.5678(15)
C190 C 0.2190(6) 0.9974(19) 0.5843(17)
H187 H 0.2278 1.0097 0.5443
H188 H 0.2279 0.9561 0.6038
H189 H 0.2212 1.0355 0.6158
N23 N 0.1662(5) 0.9755(12) 0.5538(14)
O25 O 0.3672(12) 0.158(3) 0.251(3)
loop_
_geom_bond_atom_site_label_1
_geom_bond_atom_site_label_2
_geom_bond_site_symmetry_1
_geom_bond_site_symmetry_2
Pd1 N1 1_555 1_555
Pd2 N5 1_555 1_555
N1 C61 1_555 1_555
N2 Pd1 1_555 1_555
N3 Pd1 1_555 1_555
N4 Pd1 1_555 1_555
N5 C22 1_555 1_555
N6 Pd2 1_555 1_555
N7 Pd2 1_555 1_555
N8 Pd2 1_555 1_555
O1 C4 1_555 1_555
O2 C18 1_555 1_555
O3 C39 1_555 1_555
O4 C25 1_555 1_555
O5 C66 1_555 1_555
O6 C59 1_555 1_555
O7 C48 1_555 1_555
O8 C52 1_555 1_555
O9 C71 1_555 1_555
O10 C75 1_555 1_555
O11 C82 1_555 1_555
O12 C43 1_555 1_555
C1 N2 1_555 1_555
C2 C1 1_555 1_555
H1 C2 1_555 1_555
C3 C2 1_555 1_555
H2 C3 1_555 1_555
C4 C3 1_555 1_555
C5 C4 1_555 1_555
H3 C5 1_555 1_555
C6 C1 1_555 1_555
H4 C6 1_555 1_555
C7 O1 1_555 1_555
H5 C7 1_555 1_555
H6 C7 1_555 1_555
H7 C7 1_555 1_555
C8 N2 1_555 1_555
H8 C8 1_555 1_555
C9 N3 1_555 1_555
C10 C9 1_555 1_555
H9 C10 1_555 1_555
C11 C10 1_555 1_555
H10 C11 1_555 1_555
C12 C11 1_555 1_555
H11 C12 1_555 1_555
C13 N3 1_555 1_555
C14 N4 1_555 1_555
H12 C14 1_555 1_555
C15 N4 1_555 1_555
C16 C15 1_555 1_555
H13 C16 1_555 1_555
C17 C16 1_555 1_555
H14 C17 1_555 1_555
C18 C17 1_555 1_555
C19 C18 1_555 1_555
H15 C19 1_555 1_555
C20 C15 1_555 1_555
H16 C20 1_555 1_555
C21 O2 1_555 1_555
H17 C21 1_555 1_555
H18 C21 1_555 1_555
H19 C21 1_555 1_555
C22 C23 1_555 1_555
C23 H20 1_555 1_555
C24 C23 1_555 1_555
H21 C24 1_555 1_555
C25 C24 1_555 1_555
C26 C25 1_555 1_555
H22 C26 1_555 1_555
C27 C22 1_555 1_555
H23 C27 1_555 1_555
C28 O4 1_555 1_555
H24 C28 1_555 1_555
H25 C28 1_555 1_555
H26 C28 1_555 1_555
C29 N5 1_555 1_555
H27 C29 1_555 1_555
C30 N6 1_555 1_555
C31 C30 1_555 1_555
H28 C31 1_555 1_555
C32 C31 1_555 1_555
H29 C32 1_555 1_555
C33 C32 1_555 1_555
H30 C33 1_555 1_555
C34 N6 1_555 1_555
C35 N7 1_555 1_555
H31 C35 1_555 1_555
C36 N7 1_555 1_555
C37 C36 1_555 1_555
H32 C37 1_555 1_555
C38 C37 1_555 1_555
H33 C38 1_555 1_555
C39 C38 1_555 1_555
C40 C39 1_555 1_555
H34 C40 1_555 1_555
C41 C36 1_555 1_555
H35 C41 1_555 1_555
C42 O3 1_555 1_555
H36 C42 1_555 1_555
H37 C42 1_555 1_555
H38 C42 1_555 1_555
C43 H39 1_555 1_555
H40 C43 1_555 1_555
C44 O12 1_555 1_555
H41 C44 1_555 1_555
H42 C44 1_555 1_555
C45 C44 1_555 1_555
C46 C45 1_555 1_555
H43 C46 1_555 1_555
C47 C46 1_555 1_555
H44 C47 1_555 1_555
C48 C47 1_555 1_555
C49 C48 1_555 1_555
H45 C49 1_555 1_555
C50 C45 1_555 1_555
H46 C50 1_555 1_555
C51 O7 1_555 1_555
H47 C51 1_555 1_555
H48 C51 1_555 1_555
C52 C51 1_555 1_555
H49 C52 1_555 1_555
H50 C52 1_555 1_555
C53 O8 1_555 1_555
C54 C53 1_555 1_555
H51 C54 1_555 1_555
C55 C54 1_555 1_555
H52 C55 1_555 1_555
C56 C55 1_555 1_555
C57 C56 1_555 1_555
H53 C57 1_555 1_555
C58 C53 1_555 1_555
H54 C58 1_555 1_555
C59 C56 1_555 1_555
H55 C59 1_555 1_555
H56 C59 1_555 1_555
C60 O6 1_555 1_555
H57 C60 1_555 1_555
H58 C60 1_555 1_555
C61 C60 1_555 1_555
C62 C61 1_555 1_555
H59 C62 1_555 1_555
C63 C62 1_555 1_555
H60 C63 1_555 1_555
C64 C63 1_555 1_555
H61 C64 1_555 1_555
C65 N1 1_555 1_555
C66 C65 1_555 1_555
H62 C66 1_555 1_555
H63 C66 1_555 1_555
C67 O5 1_555 1_555
H64 C67 1_555 1_555
H65 C67 1_555 1_555
C68 C67 1_555 1_555
C69 C68 1_555 1_555
H66 C69 1_555 1_555
C70 C69 1_555 1_555
H67 C70 1_555 1_555
C71 C70 1_555 1_555
C72 C71 1_555 1_555
H68 C72 1_555 1_555
C73 C68 1_555 1_555
H69 C73 1_555 1_555
C74 O9 1_555 1_555
H70 C74 1_555 1_555
H71 C74 1_555 1_555
C75 C74 1_555 1_555
H72 C75 1_555 1_555
H73 C75 1_555 1_555
C76 O10 1_555 1_555
C77 C76 1_555 1_555
H74 C77 1_555 1_555
C78 C77 1_555 1_555
H75 C78 1_555 1_555
C79 C78 1_555 1_555
C80 C79 1_555 1_555
H76 C80 1_555 1_555
C81 C76 1_555 1_555
H77 C81 1_555 1_555
C82 C79 1_555 1_555
H78 C82 1_555 1_555
H79 C82 1_555 1_555
C83 O11 1_555 1_555
H80 C83 1_555 1_555
H81 C83 1_555 1_555
C84 N8 1_555 1_555
C85 C84 1_555 1_555
H82 C85 1_555 1_555
C86 C85 1_555 1_555
H83 C86 1_555 1_555
C87 C86 1_555 1_555
H84 C87 1_555 1_555
C88 N8 1_555 1_555
Pd3 N9 1_555 1_555
Pd4 N13 1_555 1_555
N9 C123 1_555 1_555
N10 Pd3 1_555 1_555
N11 Pd3 1_555 1_555
N12 Pd3 1_555 1_555
N13 C97 1_555 1_555
N14 Pd4 1_555 1_555
N15 Pd4 1_555 1_555
N16 Pd4 1_555 1_555
O13 C92 1_555 1_555
O14 C106 1_555 1_555
O15 C113 1_555 1_555
O16 C127 1_555 1_555
O17 C159 1_555 1_555
O18 C152 1_555 1_555
O19 C145 1_555 1_555
O20 C141 1_555 1_555
O21 C164 1_555 1_555
O22 C168 1_555 1_555
O23 C175 1_555 1_555
O24 C136 1_555 1_555
C89 N14 1_555 1_555
C90 C89 1_555 1_555
H85 C90 1_555 1_555
C91 C90 1_555 1_555
H86 C91 1_555 1_555
C92 C91 1_555 1_555
C93 C92 1_555 1_555
H87 C93 1_555 1_555
C94 C89 1_555 1_555
H88 C94 1_555 1_555
C95 O13 1_555 1_555
H89 C95 1_555 1_555
H90 C95 1_555 1_555
H91 C95 1_555 1_555
C96 N14 1_555 1_555
H92 C96 1_555 1_555
C97 C96 1_555 1_555
C98 C97 1_555 1_555
H93 C98 1_555 1_555
C99 C98 1_555 1_555
H94 C99 1_555 1_555
C100 C99 1_555 1_555
H95 C100 1_555 1_555
C101 N13 1_555 1_555
C102 N15 1_555 1_555
H96 C102 1_555 1_555
C103 N15 1_555 1_555
C104 C103 1_555 1_555
H97 C104 1_555 1_555
C105 C104 1_555 1_555
H98 C105 1_555 1_555
C106 C105 1_555 1_555
C107 C106 1_555 1_555
H99 C107 1_555 1_555
C108 C103 1_555 1_555
H100 C108 1_555 1_555
C109 O14 1_555 1_555
H101 C109 1_555 1_555
H102 C109 1_555 1_555
H103 C109 1_555 1_555
C110 N11 1_555 1_555
C111 C110 1_555 1_555
H104 C111 1_555 1_555
C112 C111 1_555 1_555
H105 C112 1_555 1_555
C113 C112 1_555 1_555
C114 C113 1_555 1_555
H106 C114 1_555 1_555
C115 C110 1_555 1_555
H107 C115 1_555 1_555
C116 O15 1_555 1_555
H108 C116 1_555 1_555
H109 C116 1_555 1_555
H110 C116 1_555 1_555
C117 N11 1_555 1_555
H111 C117 1_555 1_555
C118 N10 1_555 1_555
C119 C118 1_555 1_555
H112 C119 1_555 1_555
C120 C119 1_555 1_555
H113 C120 1_555 1_555
C121 C120 1_555 1_555
H114 C121 1_555 1_555
C122 N10 1_555 1_555
C123 C122 1_555 1_555
H115 C123 1_555 1_555
C124 N9 1_555 1_555
C125 C124 1_555 1_555
H116 C125 1_555 1_555
C126 C125 1_555 1_555
H117 C126 1_555 1_555
C127 C126 1_555 1_555
C128 C127 1_555 1_555
H118 C128 1_555 1_555
C129 C124 1_555 1_555
H119 C129 1_555 1_555
C130 O16 1_555 1_555
H120 C130 1_555 1_555
H121 C130 1_555 1_555
H122 C130 1_555 1_555
C131 N12 1_555 1_555
C132 C131 1_555 1_555
H123 C132 1_555 1_555
C133 C132 1_555 1_555
H124 C133 1_555 1_555
C134 C133 1_555 1_555
H125 C134 1_555 1_555
C135 N12 1_555 1_555
C136 C135 1_555 1_555
H126 C136 1_555 1_555
H127 C136 1_555 1_555
C137 O24 1_555 1_555
H128 C137 1_555 1_555
H129 C137 1_555 1_555
C138 C137 1_555 1_555
C139 C138 1_555 1_555
H130 C139 1_555 1_555
C140 C139 1_555 1_555
H131 C140 1_555 1_555
C141 C140 1_555 1_555
C142 C141 1_555 1_555
H132 C142 1_555 1_555
C143 C138 1_555 1_555
H133 C143 1_555 1_555
C144 O20 1_555 1_555
H134 C144 1_555 1_555
H135 C144 1_555 1_555
C145 C144 1_555 1_555
H136 C145 1_555 1_555
H137 C145 1_555 1_555
C146 O19 1_555 1_555
C147 C146 1_555 1_555
H138 C147 1_555 1_555
C148 C147 1_555 1_555
H139 C148 1_555 1_555
C149 C148 1_555 1_555
C150 C149 1_555 1_555
H140 C150 1_555 1_555
C151 C146 1_555 1_555
H141 C151 1_555 1_555
C152 C149 1_555 1_555
H142 C152 1_555 1_555
H143 C152 1_555 1_555
C153 O18 1_555 1_555
H144 C153 1_555 1_555
H145 C153 1_555 1_555
C154 N16 1_555 1_555
C155 C154 1_555 1_555
H146 C155 1_555 1_555
C156 C155 1_555 1_555
H147 C156 1_555 1_555
C157 C156 1_555 1_555
H148 C157 1_555 1_555
C158 N16 1_555 1_555
C159 C158 1_555 1_555
H149 C159 1_555 1_555
H150 C159 1_555 1_555
C160 O17 1_555 1_555
H151 C160 1_555 1_555
H152 C160 1_555 1_555
C161 C160 1_555 1_555
C162 C161 1_555 1_555
H153 C162 1_555 1_555
C163 C162 1_555 1_555
H154 C163 1_555 1_555
C164 C163 1_555 1_555
C165 C164 1_555 1_555
H155 C165 1_555 1_555
C166 C161 1_555 1_555
H156 C166 1_555 1_555
C167 O21 1_555 1_555
H157 C167 1_555 1_555
H158 C167 1_555 1_555
C168 C167 1_555 1_555
H159 C168 1_555 1_555
H160 C168 1_555 1_555
C169 O22 1_555 1_555
C170 C169 1_555 1_555
H161 C170 1_555 1_555
C171 C170 1_555 1_555
H162 C171 1_555 1_555
C172 C171 1_555 1_555
C173 C172 1_555 1_555
H163 C173 1_555 1_555
C174 C169 1_555 1_555
H164 C174 1_555 1_555
C175 C172 1_555 1_555
H165 C175 1_555 1_555
H166 C175 1_555 1_555
C176 O23 1_555 1_555
H167 C176 1_555 1_555
H168 C176 1_555 1_555
B1 F1 1_555 1_555
F2 B1 1_555 1_555
F3 B1 1_555 1_555
F4 B1 1_555 1_555
B2 F5 1_555 1_555
F6 B2 1_555 1_555
F7 B2 1_555 1_555
F8 B2 1_555 1_555
B3 F9 1_555 1_555
F10 B3 1_555 1_555
F11 B3 1_555 1_555
F12 B3 1_555 1_555
B4 F13 1_555 1_555
F14 B4 1_555 1_555
F15 B4 1_555 1_555
F16 B4 1_555 1_555
B5 F17 1_555 1_555
F18 B5 1_555 1_555
F19 B5 1_555 1_555
F20 B5 1_555 1_555
B6 F21 1_555 1_555
F22 B6 1_555 1_555
F23 B6 1_555 1_555
F24 B6 1_555 1_555
B7 F25 1_555 1_555
F26 B7 1_555 1_555
F27 B7 1_555 1_555
F28 B7 1_555 1_555
B8 F29 1_555 1_555
F30 B8 1_555 1_555
F31 B8 1_555 1_555
F32 B8 1_555 1_555
C177 C178 1_555 1_555
C178 H169 1_555 1_555
H170 C178 1_555 1_555
H171 C178 1_555 1_555
N17 C177 1_555 1_555
N18 C179 1_555 1_555
C179 C180 1_555 1_555
C180 H172 1_555 1_555
H173 C180 1_555 1_555
H174 C180 1_555 1_555
C181 C182 1_555 1_555
C182 H175 1_555 1_555
H176 C182 1_555 1_555
H177 C182 1_555 1_555
N19 C181 1_555 1_555
N20 C183 1_555 1_555
C183 C184 1_555 1_555
C184 H178 1_555 1_555
H179 C184 1_555 1_555
H180 C184 1_555 1_555
C185 H181 1_555 1_555
H182 C185 1_555 1_555
H183 C185 1_555 1_555
N21 C186 1_555 1_555
C186 C185 1_555 1_555
N22 C187 1_555 1_555
C187 C188 1_555 1_555
C188 H184 1_555 1_555
H185 C188 1_555 1_555
H186 C188 1_555 1_555
C189 C190 1_555 1_555
C190 H187 1_555 1_555
H188 C190 1_555 1_555
H189 C190 1_555 1_555
N23 C189 1_555 1_555
C5 C6 1_555 1_555
C8 C9 1_555 1_555
C12 C13 1_555 1_555
C13 C14 1_555 1_555
C19 C20 1_555 1_555
C26 C27 1_555 1_555
C29 C30 1_555 1_555
C33 C34 1_555 1_555
C34 C35 1_555 1_555
C40 C41 1_555 1_555
C43 C88 1_555 1_555
C49 C50 1_555 1_555
C57 C58 1_555 1_555
C64 C65 1_555 1_555
C72 C73 1_555 1_555
C80 C81 1_555 1_555
C83 C84 1_555 1_555
C87 C88 1_555 1_555
C93 C94 1_555 1_555
C100 C101 1_555 1_555
C101 C102 1_555 1_555
C107 C108 1_555 1_555
C114 C115 1_555 1_555
C117 C118 1_555 1_555
C121 C122 1_555 1_555
C128 C129 1_555 1_555
C131 C176 1_555 1_555
C134 C135 1_555 1_555
C142 C143 1_555 1_555
C150 C151 1_555 1_555
C153 C154 1_555 1_555
C157 C158 1_555 1_555
C165 C166 1_555 1_555
C173 C174 1_555 1_555

#END
