
#######################################################################
#
#                 Cambridge Crystallographic Data Centre
#                                CCDC 
#
#######################################################################
#
# If this CIF has been generated from an entry in the Cambridge 
# Structural Database, then it will include bibliographic, chemical, 
# crystal, experimental, refinement or atomic coordinate data resulting 
# from the CCDC's data processing and validation procedures.
#
#######################################################################

data_VUGQUK
_chemical_formula_moiety         
'C108 H144 N36 Pd6 12+,C28 H18,12(N1 O3 1-),49.64(H2 O1)'
_chemical_name_systematic        
"tetrakis(\m~3~-2,4,6-tris(4-Pyridyl)-1,3,5-triazine)-hexakis(N,N,N',N'-tetramethylethylenediamine-N,N')-hexa-palladium dodecanitrate 9,9'-bianthracene clathrate hydrate"
_symmetry_cell_setting           tetragonal
_symmetry_space_group_name_H-M   'I 41/a'
_symmetry_Int_Tables_number      88
_space_group_name_Hall           '-I 4ad'
loop_
_symmetry_equiv_pos_site_id
_symmetry_equiv_pos_as_xyz
1 x,y,z
2 1/2-x,-y,1/2+z
3 3/4-y,1/4+x,1/4+z
4 3/4+y,3/4-x,3/4+z
5 1/2+x,1/2+y,1/2+z
6 -x,1/2-y,z
7 1/4-y,3/4+x,3/4+z
8 1/4+y,1/4-x,1/4+z
9 -x,-y,-z
10 1/2+x,y,1/2-z
11 1/4+y,3/4-x,3/4-z
12 1/4-y,1/4+x,1/4-z
13 1/2-x,1/2-y,1/2-z
14 x,1/2+y,-z
15 3/4+y,1/4-x,1/4-z
16 3/4-y,3/4+x,3/4-z
_cell_length_a                   25.993(6)
_cell_length_b                   25.993(6)
_cell_length_c                   31.681(7)
_cell_angle_alpha                90
_cell_angle_beta                 90
_cell_angle_gamma                90
_cell_volume                     21404.8
_exptl_crystal_colour            red-orange
_exptl_crystal_description       octahedron
_cell_formula_units_Z            4
_exptl_crystal_recrystallization_method 'dideuterium oxide'
loop_
_atom_site_label
_atom_site_type_symbol
_atom_site_fract_x
_atom_site_fract_y
_atom_site_fract_z
N1 N 0.1946(4) 0.1341(4) -0.2326(3)
O1 O 0.2074(4) 0.1082(4) -0.2627(3)
O2 O 0.1605(5) 0.1222(5) -0.2046(4)
O3 O 0.2197(12) 0.1755(10) -0.2265(10)
O4 O 0.0922(7) 0.2188(8) 0.0991(6)
O5 O 0.0758(9) -0.1308(9) -0.0746(7)
O6 O 0.1717(15) -0.1722(15) 0.0904(12)
O7 O 0.1709(14) -0.0753(15) 0.0394(11)
O49 O 0.5000 0.7500 0.6250
C1 C 0.4541(10) 0.7506(6) 0.2163(5)
C2 C 0.4054(11) 0.7501(8) 0.2370(7)
H1 H 0.4049 0.7496 0.2670
C3 C 0.3603(18) 0.7502(12) 0.2166(12)
H2 H 0.3292 0.7494 0.2324
C4 C 0.3581(13) 0.7515(15) 0.1723(8)
H3 H 0.3254 0.7518 0.1590
C5 C 0.4023(12) 0.7524(13) 0.1470(8)
H4 H 0.4012 0.7526 0.1171
C6 C 0.4528(12) 0.7531(10) 0.1722(7)
C7 C 0.5000 0.7500 0.1496(8)
C8 C 0.5000 0.7500 0.2356(6)
H5 H 0.5000 0.7500 0.2656
C1E C 0.5459(10) 0.7494(6) 0.2163(5)
C1K C 0.4994(6) 0.7041(10) 0.0337(5)
C1N C 0.5006(6) 0.7959(10) 0.0337(5)
C2E C 0.5946(11) 0.7499(8) 0.2370(7)
C2K C 0.4999(8) 0.6554(11) 0.0130(7)
C2N C 0.5001(8) 0.8446(11) 0.0130(7)
H1E H 0.5951 0.7504 0.2670
H1K H 0.5004 0.6549 -0.0170
H1N H 0.4996 0.8451 -0.0170
C3E C 0.6397(18) 0.7498(12) 0.2166(12)
C3K C 0.4998(12) 0.6103(18) 0.0334(12)
C3N C 0.5002(12) 0.8897(18) 0.0334(12)
H2E H 0.6708 0.7506 0.2324
H2K H 0.5006 0.5792 0.0176
H2N H 0.4994 0.9208 0.0176
C4E C 0.6419(13) 0.7485(15) 0.1723(8)
C4K C 0.4985(15) 0.6081(13) 0.0777(8)
C4N C 0.5015(15) 0.8919(13) 0.0777(8)
H3E H 0.6746 0.7482 0.1590
H3K H 0.4982 0.5754 0.0910
H3N H 0.5018 0.9246 0.0910
C5E C 0.5977(12) 0.7476(13) 0.1470(8)
C5K C 0.4976(13) 0.6523(12) 0.1030(8)
C5N C 0.5024(13) 0.8477(12) 0.1030(8)
H4E H 0.5988 0.7474 0.1171
H4K H 0.4974 0.6512 0.1329
H4N H 0.5026 0.8488 0.1329
C6E C 0.5472(12) 0.7469(10) 0.1722(7)
C6K C 0.4969(10) 0.7028(12) 0.0778(7)
C6N C 0.5031(10) 0.7972(12) 0.0778(7)
C7K C 0.5000 0.7500 0.1004(8)
C8K C 0.5000 0.7500 0.0144(6)
H5K H 0.5000 0.7500 -0.0156
Pd1 Pd 0.286282(17) 1.036322(16) 0.123719(12)
Pd2 Pd 0.5000 0.7500 0.41499(2)
C23 C 0.3962(3) 1.0180(3) 0.1358(2)
H15 H 0.3987 1.0387 0.1112
C24 C 0.4402(3) 0.9956(3) 0.1520(2)
H16 H 0.4726 1.0016 0.1390
C25 C 0.4368(2) 0.9644(2) 0.1872(2)
C26 C 0.3889(2) 0.9574(3) 0.20587(19)
H17 H 0.3855 0.9367 0.2304
C27 C 0.3463(2) 0.9811(3) 0.18832(19)
H18 H 0.3135 0.9759 0.2008
C28 C 0.4657(2) 0.8213(2) 0.3485(2)
H19 H 0.4330 0.8147 0.3607
C29 C 0.4682(2) 0.8502(2) 0.3125(2)
H20 H 0.4377 0.8633 0.2999
C30 C 0.5161(2) 0.8603(2) 0.2945(2)
C31 C 0.5596(2) 0.8403(3) 0.3136(3)
H21 H 0.5927 0.8465 0.3020
C32 C 0.5539(2) 0.8111(3) 0.3496(3)
H22 H 0.5838 0.7970 0.3624
C33 C 0.7116(2) 0.9353(3) 0.1911(2)
H23 H 0.7417 0.9244 0.2057
C34 C 0.6638(2) 0.9236(3) 0.2080(2)
H24 H 0.6614 0.9047 0.2335
C35 C 0.6202(2) 0.9395(3) 0.1876(2)
C36 C 0.6253(3) 0.9676(3) 0.1510(2)
H25 H 0.5958 0.9802 0.1366
C37 C 0.6744(2) 0.9773(3) 0.1355(2)
H26 H 0.6778 0.9962 0.1099
C38 C 0.4831(2) 0.9399(3) 0.2052(2)
C39 C 0.5204(2) 0.8918(2) 0.2556(2)
C40 C 0.5684(2) 0.9286(3) 0.2055(2)
C41 C 0.3300(3) 1.1381(3) 0.1371(3)
H27 H 0.3296 1.1718 0.1509
H28 H 0.3275 1.1426 0.1064
H29 H 0.3621 1.1202 0.1439
N9 N 0.2862(2) 1.1075(2) 0.15204(19)
C42 C 0.2370(4) 1.1307(4) 0.1420(4)
H30 H 0.2117 1.1205 0.1638
H31 H 0.2407 1.1685 0.1432
N10 N 0.2224(2) 1.0618(2) 0.09209(17)
C43 C 0.2284(4) 1.0601(4) 0.0461(2)
H32 H 0.1968 1.0726 0.0327
H33 H 0.2350 1.0246 0.0372
H34 H 0.2573 1.0820 0.0377
C44 C 0.1769(3) 1.0327(5) 0.1061(4)
H35 H 0.1464 1.0450 0.0909
H36 H 0.1720 1.0376 0.1365
H37 H 0.1820 0.9960 0.1001
N11 N 0.5097(2) 0.8031(2) 0.4627(2)
C45 C 0.2919(6) 1.1036(4) 0.1991(3)
H38 H 0.2915 1.1382 0.2114
H39 H 0.3246 1.0867 0.2058
H40 H 0.2634 1.0834 0.2107
C46 C 0.2176(5) 1.1175(4) 0.1032(3)
H41 H 0.2357 1.1380 0.0814
H42 H 0.1808 1.1271 0.1023
C47 C 0.4907(4) 0.7774(3) 0.5029(3)
H43 H 0.5041 0.7958 0.5280
H44 H 0.4526 0.7782 0.5039
C48 C 0.5645(3) 0.8175(3) 0.4655(3)
H45 H 0.5692 0.8424 0.4884
H46 H 0.5754 0.8329 0.4388
H47 H 0.5852 0.7867 0.4712
C49 C 0.4786(3) 0.8500(3) 0.4561(3)
H48 H 0.4840 0.8738 0.4797
H49 H 0.4421 0.8407 0.4546
H50 H 0.4890 0.8666 0.4297
N12 N 0.35017(18) 1.01119(19) 0.15407(16)
N13 N 0.50796(18) 0.80176(19) 0.36725(18)
N14 N 0.7167(2) 0.96140(18) 0.15492(15)
N15 N 0.5280(2) 0.9492(2) 0.18641(18)
N16 N 0.5674(2) 0.8994(2) 0.24026(18)
N17 N 0.47681(19) 0.9111(2) 0.23980(18)
Pd1E Pd 0.713718(17) 0.463678(16) 0.123719(12)
Pd1K Pd 0.213678(16) 0.536282(17) 0.126281(12)
Pd1N Pd 0.786322(16) 0.963718(17) 0.126281(12)
Pd2K Pd 0.5000 0.7500 -0.16499(2)
C23E C 0.6038(3) 0.4820(3) 0.1358(2)
C23K C 0.2320(3) 0.6462(3) 0.1142(2)
C23N C 0.7680(3) 0.8538(3) 0.1142(2)
H15E H 0.6013 0.4613 0.1112
H15K H 0.2113 0.6487 0.1388
H15N H 0.7887 0.8513 0.1388
C24E C 0.5598(3) 0.5044(3) 0.1520(2)
C24K C 0.2544(3) 0.6902(3) 0.0980(2)
C24N C 0.7456(3) 0.8098(3) 0.0980(2)
H16E H 0.5274 0.4984 0.1390
H16K H 0.2484 0.7226 0.1110
H16N H 0.7516 0.7774 0.1110
C25E C 0.5632(2) 0.5356(2) 0.1872(2)
C25K C 0.2856(2) 0.6868(2) 0.0628(2)
C25N C 0.7144(2) 0.8132(2) 0.0628(2)
C26E C 0.6111(2) 0.5426(3) 0.20587(19)
C26K C 0.2926(3) 0.6389(2) 0.04413(19)
C26N C 0.7074(3) 0.8611(2) 0.04413(19)
H17E H 0.6145 0.5633 0.2304
H17K H 0.3133 0.6355 0.0196
H17N H 0.6867 0.8645 0.0196
C27E C 0.6537(2) 0.5189(3) 0.18832(19)
C27K C 0.2689(3) 0.5963(2) 0.06168(19)
C27N C 0.7311(3) 0.9037(2) 0.06168(19)
H18E H 0.6865 0.5241 0.2008
H18K H 0.2741 0.5635 0.0492
H18N H 0.7259 0.9365 0.0492
C28E C 0.5343(2) 0.6787(2) 0.3485(2)
C28K C 0.4287(2) 0.7157(2) -0.0985(2)
C28N C 0.5713(2) 0.7843(2) -0.0985(2)
H19E H 0.5670 0.6853 0.3607
H19K H 0.4353 0.6830 -0.1107
H19N H 0.5647 0.8170 -0.1107
C29E C 0.5318(2) 0.6498(2) 0.3125(2)
C29K C 0.3998(2) 0.7182(2) -0.0625(2)
C29N C 0.6002(2) 0.7818(2) -0.0625(2)
H20E H 0.5623 0.6367 0.2999
H20K H 0.3867 0.6877 -0.0499
H20N H 0.6133 0.8123 -0.0499
C30E C 0.4839(2) 0.6397(2) 0.2945(2)
C30K C 0.3897(2) 0.7661(2) -0.0445(2)
C30N C 0.6103(2) 0.7339(2) -0.0445(2)
C31E C 0.4404(2) 0.6597(3) 0.3136(3)
C31K C 0.4097(3) 0.8096(2) -0.0636(3)
C31N C 0.5903(3) 0.6904(2) -0.0636(3)
H21E H 0.4073 0.6535 0.3020
H21K H 0.4035 0.8427 -0.0520
H21N H 0.5965 0.6573 -0.0520
C32E C 0.4461(2) 0.6889(3) 0.3496(3)
C32K C 0.4389(3) 0.8039(2) -0.0996(3)
C32N C 0.5611(3) 0.6961(2) -0.0996(3)
H22E H 0.4162 0.7030 0.3624
H22K H 0.4530 0.8338 -0.1124
H22N H 0.5470 0.6662 -0.1124
C33E C 0.2884(2) 0.5647(3) 0.1911(2)
C33K C 0.3147(3) 0.9616(2) 0.0589(2)
C33N C 0.6853(3) 0.5384(2) 0.0589(2)
H23E H 0.2583 0.5756 0.2057
H23K H 0.3256 0.9917 0.0443
H23N H 0.6744 0.5083 0.0443
C34E C 0.3362(2) 0.5764(3) 0.2080(2)
C34K C 0.3264(3) 0.9138(2) 0.0420(2)
C34N C 0.6736(3) 0.5862(2) 0.0420(2)
H24E H 0.3386 0.5953 0.2335
H24K H 0.3453 0.9114 0.0165
H24N H 0.6547 0.5886 0.0165
C35E C 0.3798(2) 0.5605(3) 0.1876(2)
C35K C 0.3105(3) 0.8702(2) 0.0624(2)
C35N C 0.6895(3) 0.6298(2) 0.0624(2)
C36E C 0.3747(3) 0.5324(3) 0.1510(2)
C36K C 0.2824(3) 0.8753(3) 0.0990(2)
C36N C 0.7176(3) 0.6247(3) 0.0990(2)
H25E H 0.4042 0.5198 0.1366
H25K H 0.2698 0.8458 0.1134
H25N H 0.7302 0.6542 0.1134
C37E C 0.3256(2) 0.5227(3) 0.1355(2)
C37K C 0.2727(3) 0.9244(2) 0.1145(2)
C37N C 0.7273(3) 0.5756(2) 0.1145(2)
H26E H 0.3222 0.5038 0.1099
H26K H 0.2538 0.9278 0.1401
H26N H 0.7462 0.5722 0.1401
C38E C 0.5169(2) 0.5601(3) 0.2052(2)
C38K C 0.3101(3) 0.7331(2) 0.0448(2)
C38N C 0.6899(3) 0.7669(2) 0.0448(2)
C39E C 0.4796(2) 0.6082(2) 0.2556(2)
C39K C 0.3582(2) 0.7704(2) -0.0056(2)
C39N C 0.6418(2) 0.7296(2) -0.0056(2)
C40E C 0.4316(2) 0.5714(3) 0.2055(2)
C40K C 0.3214(3) 0.8184(2) 0.0445(2)
C40N C 0.6786(3) 0.6816(2) 0.0445(2)
C41E C 0.6700(3) 0.3619(3) 0.1371(3)
C41K C 0.1119(3) 0.5800(3) 0.1129(3)
C41N C 0.8881(3) 0.9200(3) 0.1129(3)
H27E H 0.6704 0.3282 0.1509
H27K H 0.0782 0.5796 0.0991
H27N H 0.9218 0.9204 0.0991
H28E H 0.6725 0.3574 0.1064
H28K H 0.1074 0.5775 0.1436
H28N H 0.8926 0.9225 0.1436
H29E H 0.6379 0.3798 0.1439
H29K H 0.1298 0.6121 0.1061
H29N H 0.8702 0.8879 0.1061
N9E N 0.7138(2) 0.3925(2) 0.15204(19)
N9K N 0.1425(2) 0.5362(2) 0.09796(19)
N9N N 0.8575(2) 0.9638(2) 0.09796(19)
C42E C 0.7630(4) 0.3693(4) 0.1420(4)
C42K C 0.1193(4) 0.4870(4) 0.1080(4)
C42N C 0.8807(4) 1.0130(4) 0.1080(4)
H30E H 0.7883 0.3795 0.1638
H30K H 0.1295 0.4617 0.0862
H30N H 0.8705 1.0383 0.0862
H31E H 0.7593 0.3315 0.1432
H31K H 0.0815 0.4907 0.1068
H31N H 0.9185 1.0093 0.1068
N10E N 0.7776(2) 0.4382(2) 0.09209(17)
N10K N 0.1882(2) 0.4724(2) 0.15791(17)
N10N N 0.8118(2) 1.0276(2) 0.15791(17)
C43E C 0.7716(4) 0.4399(4) 0.0461(2)
C43K C 0.1899(4) 0.4784(4) 0.2039(2)
C43N C 0.8101(4) 1.0216(4) 0.2039(2)
H32E H 0.8032 0.4274 0.0327
H32K H 0.1774 0.4468 0.2173
H32N H 0.8226 1.0532 0.2173
H33E H 0.7650 0.4754 0.0372
H33K H 0.2254 0.4850 0.2128
H33N H 0.7746 1.0150 0.2128
H34E H 0.7427 0.4180 0.0377
H34K H 0.1680 0.5073 0.2123
H34N H 0.8320 0.9927 0.2123
C44E C 0.8231(3) 0.4673(5) 0.1061(4)
C44K C 0.2173(5) 0.4269(3) 0.1439(4)
C44N C 0.7827(5) 1.0731(3) 0.1439(4)
H35E H 0.8536 0.4550 0.0909
H35K H 0.2050 0.3964 0.1591
H35N H 0.7950 1.1036 0.1591
H36E H 0.8280 0.4624 0.1365
H36K H 0.2124 0.4220 0.1135
H36N H 0.7876 1.0780 0.1135
H37E H 0.8180 0.5040 0.1001
H37K H 0.2540 0.4320 0.1499
H37N H 0.7460 1.0680 0.1499
N11E N 0.4903(2) 0.6969(2) 0.4627(2)
N11K N 0.4469(2) 0.7597(2) -0.2127(2)
N11N N 0.5531(2) 0.7403(2) -0.2127(2)
C45E C 0.7081(6) 0.3964(4) 0.1991(3)
C45K C 0.1464(4) 0.5419(6) 0.0509(3)
C45N C 0.8536(4) 0.9581(6) 0.0509(3)
H38E H 0.7085 0.3618 0.2114
H38K H 0.1118 0.5415 0.0386
H38N H 0.8882 0.9585 0.0386
H39E H 0.6754 0.4133 0.2058
H39K H 0.1633 0.5746 0.0442
H39N H 0.8367 0.9254 0.0442
H40E H 0.7366 0.4166 0.2107
H40K H 0.1666 0.5134 0.0393
H40N H 0.8334 0.9866 0.0393
C46E C 0.7824(5) 0.3825(4) 0.1032(3)
C46K C 0.1325(4) 0.4676(5) 0.1468(3)
C46N C 0.8675(4) 1.0324(5) 0.1468(3)
H41E H 0.7643 0.3620 0.0814
H41K H 0.1120 0.4857 0.1686
H41N H 0.8880 1.0143 0.1686
H42E H 0.8192 0.3729 0.1023
H42K H 0.1229 0.4308 0.1477
H42N H 0.8771 1.0692 0.1477
C47E C 0.5093(4) 0.7226(3) 0.5029(3)
C47K C 0.4726(3) 0.7407(4) -0.2529(3)
C47N C 0.5274(3) 0.7593(4) -0.2529(3)
H43E H 0.4959 0.7042 0.5280
H43K H 0.4542 0.7541 -0.2780
H43N H 0.5458 0.7459 -0.2780
H44E H 0.5474 0.7218 0.5039
H44K H 0.4718 0.7026 -0.2539
H44N H 0.5282 0.7974 -0.2539
C48E C 0.4355(3) 0.6825(3) 0.4655(3)
C48K C 0.4325(3) 0.8145(3) -0.2155(3)
C48N C 0.5675(3) 0.6855(3) -0.2155(3)
H45E H 0.4308 0.6576 0.4884
H45K H 0.4076 0.8192 -0.2384
H45N H 0.5924 0.6808 -0.2384
H46E H 0.4246 0.6671 0.4388
H46K H 0.4171 0.8254 -0.1888
H46N H 0.5829 0.6746 -0.1888
H47E H 0.4148 0.7133 0.4712
H47K H 0.4633 0.8352 -0.2212
H47N H 0.5367 0.6648 -0.2212
C49E C 0.5214(3) 0.6500(3) 0.4561(3)
C49K C 0.4000(3) 0.7286(3) -0.2061(3)
C49N C 0.6000(3) 0.7714(3) -0.2061(3)
H48E H 0.5160 0.6262 0.4797
H48K H 0.3762 0.7340 -0.2297
H48N H 0.6238 0.7660 -0.2297
H49E H 0.5579 0.6593 0.4546
H49K H 0.4093 0.6921 -0.2046
H49N H 0.5907 0.8079 -0.2046
H50E H 0.5110 0.6334 0.4297
H50K H 0.3834 0.7390 -0.1797
H50N H 0.6166 0.7610 -0.1797
N12E N 0.64983(18) 0.48881(19) 0.15407(16)
N12K N 0.23881(19) 0.60017(18) 0.09593(16)
N12N N 0.76119(19) 0.89983(18) 0.09593(16)
N13E N 0.49204(18) 0.69824(19) 0.36725(18)
N13K N 0.44824(19) 0.75796(18) -0.11725(18)
N13N N 0.55176(19) 0.74204(18) -0.11725(18)
N14E N 0.2833(2) 0.53860(18) 0.15492(15)
N14K N 0.28860(18) 0.9667(2) 0.09508(15)
N14N N 0.71140(18) 0.5333(2) 0.09508(15)
N15E N 0.4720(2) 0.5508(2) 0.18641(18)
N15K N 0.3008(2) 0.7780(2) 0.06359(18)
N15N N 0.6992(2) 0.7220(2) 0.06359(18)
N16E N 0.4326(2) 0.6006(2) 0.24026(18)
N16K N 0.3506(2) 0.8174(2) 0.00974(18)
N16N N 0.6494(2) 0.6826(2) 0.00974(18)
N17E N 0.52319(19) 0.5889(2) 0.23980(18)
N17K N 0.3389(2) 0.72681(19) 0.01020(18)
N17N N 0.6611(2) 0.77319(19) 0.01020(18)
loop_
_geom_bond_atom_site_label_1
_geom_bond_atom_site_label_2
_geom_bond_site_symmetry_1
_geom_bond_site_symmetry_2
N1 O1 1_555 1_555
O2 N1 1_555 1_555
O3 N1 1_555 1_555
C1 C2 1_555 1_555
C2 H1 1_555 1_555
C3 C2 1_555 1_555
H2 C3 1_555 1_555
C4 C3 1_555 1_555
H3 C4 1_555 1_555
C5 C4 1_555 1_555
H4 C5 1_555 1_555
C6 C1 1_555 1_555
C7 C6 1_555 1_555
C8 C1 1_555 1_555
H5 C8 1_555 1_555
Pd1 N9 1_555 1_555
Pd2 N11 1_555 1_555
C23 H15 1_555 1_555
C24 C23 1_555 1_555
H16 C24 1_555 1_555
C25 C24 1_555 1_555
C26 C25 1_555 1_555
H17 C26 1_555 1_555
C27 C26 1_555 1_555
H18 C27 1_555 1_555
C28 H19 1_555 1_555
C29 C28 1_555 1_555
H20 C29 1_555 1_555
C30 C29 1_555 1_555
C31 C30 1_555 1_555
H21 C31 1_555 1_555
C32 C31 1_555 1_555
H22 C32 1_555 1_555
C33 H23 1_555 1_555
C34 C33 1_555 1_555
H24 C34 1_555 1_555
C35 C34 1_555 1_555
C36 C35 1_555 1_555
H25 C36 1_555 1_555
C37 C36 1_555 1_555
H26 C37 1_555 1_555
C38 C25 1_555 1_555
C39 C30 1_555 1_555
C40 C35 1_555 1_555
C41 H27 1_555 1_555
H28 C41 1_555 1_555
H29 C41 1_555 1_555
N9 C41 1_555 1_555
C42 N9 1_555 1_555
H30 C42 1_555 1_555
H31 C42 1_555 1_555
N10 Pd1 1_555 1_555
C43 N10 1_555 1_555
H32 C43 1_555 1_555
H33 C43 1_555 1_555
H34 C43 1_555 1_555
C44 N10 1_555 1_555
H35 C44 1_555 1_555
H36 C44 1_555 1_555
H37 C44 1_555 1_555
N11 C47 1_555 1_555
C45 N9 1_555 1_555
H38 C45 1_555 1_555
H39 C45 1_555 1_555
H40 C45 1_555 1_555
C46 C42 1_555 1_555
H41 C46 1_555 1_555
H42 C46 1_555 1_555
C47 H43 1_555 1_555
H44 C47 1_555 1_555
C48 N11 1_555 1_555
H45 C48 1_555 1_555
H46 C48 1_555 1_555
H47 C48 1_555 1_555
C49 N11 1_555 1_555
H48 C49 1_555 1_555
H49 C49 1_555 1_555
H50 C49 1_555 1_555
N12 Pd1 1_555 1_555
N13 Pd2 1_555 1_555
N14 C33 1_555 1_555
N15 C38 1_555 1_555
N16 C39 1_555 1_555
N17 C38 1_555 1_555
C1E C8 1_555 1_555
C1K C2K 1_555 1_555
C1N C2N 1_555 1_555
C2E C1E 1_555 1_555
C2K H1K 1_555 1_555
C2N H1N 1_555 1_555
H1E C2E 1_555 1_555
C3E C2E 1_555 1_555
C3K C2K 1_555 1_555
C3N C2N 1_555 1_555
H2E C3E 1_555 1_555
H2K C3K 1_555 1_555
H2N C3N 1_555 1_555
C4E C3E 1_555 1_555
C4K C3K 1_555 1_555
C4N C3N 1_555 1_555
H3E C4E 1_555 1_555
H3K C4K 1_555 1_555
H3N C4N 1_555 1_555
C5E C4E 1_555 1_555
C5K C4K 1_555 1_555
C5N C4N 1_555 1_555
H4E C5E 1_555 1_555
H4K C5K 1_555 1_555
H4N C5N 1_555 1_555
C6E C7 1_555 1_555
C6K C1K 1_555 1_555
C6N C1N 1_555 1_555
C7K C7 1_555 1_555
C8K C1K 1_555 1_555
H5K C8K 1_555 1_555
Pd1E N9E 1_555 1_555
Pd1K N9K 1_555 1_555
Pd1N N14 1_555 1_555
Pd2K N11K 1_555 1_555
C23E H15E 1_555 1_555
C23K H15K 1_555 1_555
C23N H15N 1_555 1_555
C24E C23E 1_555 1_555
C24K C23K 1_555 1_555
C24N C23N 1_555 1_555
H16E C24E 1_555 1_555
H16K C24K 1_555 1_555
H16N C24N 1_555 1_555
C25E C24E 1_555 1_555
C25K C24K 1_555 1_555
C25N C24N 1_555 1_555
C26E C25E 1_555 1_555
C26K C25K 1_555 1_555
C26N C25N 1_555 1_555
H17E C26E 1_555 1_555
H17K C26K 1_555 1_555
H17N C26N 1_555 1_555
C27E C26E 1_555 1_555
C27K C26K 1_555 1_555
C27N C26N 1_555 1_555
H18E C27E 1_555 1_555
H18K C27K 1_555 1_555
H18N C27N 1_555 1_555
C28E H19E 1_555 1_555
C28K H19K 1_555 1_555
C28N H19N 1_555 1_555
C29E C28E 1_555 1_555
C29K C28K 1_555 1_555
C29N C28N 1_555 1_555
H20E C29E 1_555 1_555
H20K C29K 1_555 1_555
H20N C29N 1_555 1_555
C30E C29E 1_555 1_555
C30K C29K 1_555 1_555
C30N C29N 1_555 1_555
C31E C30E 1_555 1_555
C31K C30K 1_555 1_555
C31N C30N 1_555 1_555
H21E C31E 1_555 1_555
H21K C31K 1_555 1_555
H21N C31N 1_555 1_555
C32E C31E 1_555 1_555
C32K C31K 1_555 1_555
C32N C31N 1_555 1_555
H22E C32E 1_555 1_555
H22K C32K 1_555 1_555
H22N C32N 1_555 1_555
C33E H23E 1_555 1_555
C33K H23K 1_555 1_555
C33N H23N 1_555 1_555
C34E C33E 1_555 1_555
C34K C33K 1_555 1_555
C34N C33N 1_555 1_555
H24E C34E 1_555 1_555
H24K C34K 1_555 1_555
H24N C34N 1_555 1_555
C35E C34E 1_555 1_555
C35K C34K 1_555 1_555
C35N C34N 1_555 1_555
C36E C35E 1_555 1_555
C36K C35K 1_555 1_555
C36N C35N 1_555 1_555
H25E C36E 1_555 1_555
H25K C36K 1_555 1_555
H25N C36N 1_555 1_555
C37E C36E 1_555 1_555
C37K C36K 1_555 1_555
C37N C36N 1_555 1_555
H26E C37E 1_555 1_555
H26K C37K 1_555 1_555
H26N C37N 1_555 1_555
C38E C25E 1_555 1_555
C38K C25K 1_555 1_555
C38N C25N 1_555 1_555
C39E C30E 1_555 1_555
C39K C30K 1_555 1_555
C39N C30N 1_555 1_555
C40E C35E 1_555 1_555
C40K C35K 1_555 1_555
C40N C35N 1_555 1_555
C41E H27E 1_555 1_555
C41K H27K 1_555 1_555
C41N H27N 1_555 1_555
H28E C41E 1_555 1_555
H28K C41K 1_555 1_555
H28N C41N 1_555 1_555
H29E C41E 1_555 1_555
H29K C41K 1_555 1_555
H29N C41N 1_555 1_555
N9E C41E 1_555 1_555
N9K C41K 1_555 1_555
N9N Pd1N 1_555 1_555
C42E N9E 1_555 1_555
C42K N9K 1_555 1_555
C42N N9N 1_555 1_555
H30E C42E 1_555 1_555
H30K C42K 1_555 1_555
H30N C42N 1_555 1_555
H31E C42E 1_555 1_555
H31K C42K 1_555 1_555
H31N C42N 1_555 1_555
N10E Pd1E 1_555 1_555
N10K Pd1K 1_555 1_555
N10N Pd1N 1_555 1_555
C43E N10E 1_555 1_555
C43K N10K 1_555 1_555
C43N N10N 1_555 1_555
H32E C43E 1_555 1_555
H32K C43K 1_555 1_555
H32N C43N 1_555 1_555
H33E C43E 1_555 1_555
H33K C43K 1_555 1_555
H33N C43N 1_555 1_555
H34E C43E 1_555 1_555
H34K C43K 1_555 1_555
H34N C43N 1_555 1_555
C44E N10E 1_555 1_555
C44K N10K 1_555 1_555
C44N N10N 1_555 1_555
H35E C44E 1_555 1_555
H35K C44K 1_555 1_555
H35N C44N 1_555 1_555
H36E C44E 1_555 1_555
H36K C44K 1_555 1_555
H36N C44N 1_555 1_555
H37E C44E 1_555 1_555
H37K C44K 1_555 1_555
H37N C44N 1_555 1_555
N11E Pd2 1_555 1_555
N11K C47K 1_555 1_555
N11N Pd2K 1_555 1_555
C45E N9E 1_555 1_555
C45K N9K 1_555 1_555
C45N N9N 1_555 1_555
H38E C45E 1_555 1_555
H38K C45K 1_555 1_555
H38N C45N 1_555 1_555
H39E C45E 1_555 1_555
H39K C45K 1_555 1_555
H39N C45N 1_555 1_555
H40E C45E 1_555 1_555
H40K C45K 1_555 1_555
H40N C45N 1_555 1_555
C46E C42E 1_555 1_555
C46K C42K 1_555 1_555
C46N C42N 1_555 1_555
H41E C46E 1_555 1_555
H41K C46K 1_555 1_555
H41N C46N 1_555 1_555
H42E C46E 1_555 1_555
H42K C46K 1_555 1_555
H42N C46N 1_555 1_555
C47E C47 1_555 1_555
C47K C47N 1_555 1_555
C47N N11N 1_555 1_555
H43E C47E 1_555 1_555
H43K C47K 1_555 1_555
H43N C47N 1_555 1_555
H44E C47E 1_555 1_555
H44K C47K 1_555 1_555
H44N C47N 1_555 1_555
C48E N11E 1_555 1_555
C48K N11K 1_555 1_555
C48N N11N 1_555 1_555
H45E C48E 1_555 1_555
H45K C48K 1_555 1_555
H45N C48N 1_555 1_555
H46E C48E 1_555 1_555
H46K C48K 1_555 1_555
H46N C48N 1_555 1_555
H47E C48E 1_555 1_555
H47K C48K 1_555 1_555
H47N C48N 1_555 1_555
C49E N11E 1_555 1_555
C49K N11K 1_555 1_555
C49N N11N 1_555 1_555
H48E C49E 1_555 1_555
H48K C49K 1_555 1_555
H48N C49N 1_555 1_555
H49E C49E 1_555 1_555
H49K C49K 1_555 1_555
H49N C49N 1_555 1_555
H50E C49E 1_555 1_555
H50K C49K 1_555 1_555
H50N C49N 1_555 1_555
N12E Pd1E 1_555 1_555
N12K Pd1K 1_555 1_555
N12N Pd1N 1_555 1_555
N13E Pd2 1_555 1_555
N13K Pd2K 1_555 1_555
N13N Pd2K 1_555 1_555
N14E Pd1K 1_555 1_555
N14K Pd1 1_555 1_555
N14N Pd1E 1_555 1_555
N15E C38E 1_555 1_555
N15K C38K 1_555 1_555
N15N C38N 1_555 1_555
N16E C39E 1_555 1_555
N16K C39K 1_555 1_555
N16N C39N 1_555 1_555
N17E C38E 1_555 1_555
N17K C38K 1_555 1_555
N17N C38N 1_555 1_555
C5 C6 1_555 1_555
C23 N12 1_555 1_555
C27 N12 1_555 1_555
C28 N13 1_555 1_555
C32 N13 1_555 1_555
C37 N14 1_555 1_555
C39 N17 1_555 1_555
C40 N15 1_555 1_555
C40 N16 1_555 1_555
N10 C46 1_555 1_555
C1E C6E 1_555 1_555
C1N C8K 1_555 1_555
C5E C6E 1_555 1_555
C5K C6K 1_555 1_555
C5N C6N 1_555 1_555
C6K C7K 1_555 1_555
C6N C7K 1_555 1_555
C23E N12E 1_555 1_555
C23K N12K 1_555 1_555
C23N N12N 1_555 1_555
C27E N12E 1_555 1_555
C27K N12K 1_555 1_555
C27N N12N 1_555 1_555
C28E N13E 1_555 1_555
C28K N13K 1_555 1_555
C28N N13N 1_555 1_555
C32E N13E 1_555 1_555
C32K N13K 1_555 1_555
C32N N13N 1_555 1_555
C33E N14E 1_555 1_555
C33K N14K 1_555 1_555
C33N N14N 1_555 1_555
C37E N14E 1_555 1_555
C37K N14K 1_555 1_555
C37N N14N 1_555 1_555
C39E N17E 1_555 1_555
C39K N17K 1_555 1_555
C39N N17N 1_555 1_555
C40E N15E 1_555 1_555
C40E N16E 1_555 1_555
C40K N15K 1_555 1_555
C40K N16K 1_555 1_555
C40N N15N 1_555 1_555
C40N N16N 1_555 1_555
C41N N9N 1_555 1_555
N10E C46E 1_555 1_555
N10K C46K 1_555 1_555
N10N C46N 1_555 1_555
N11E C47E 1_555 1_555

#END
