# generated using pymatgen
data_H198Pd6C192N68O193
_symmetry_space_group_name_H-M   'P 1'
_cell_length_a   25.99300000
_cell_length_b   25.99300000
_cell_length_c   31.68100000
_cell_angle_alpha   90.00000000
_cell_angle_beta   90.00000000
_cell_angle_gamma   90.00000000
_symmetry_Int_Tables_number   1
_chemical_formula_structural   H198Pd6C192N68O193
_chemical_formula_sum   'H792 Pd24 C768 N272 O772'
_cell_volume   21404.82566837
_cell_formula_units_Z   4
loop_
 _symmetry_equiv_pos_site_id
 _symmetry_equiv_pos_as_xyz
  1  'x, y, z'
loop_
 _atom_site_type_symbol
 _atom_site_label
 _atom_site_symmetry_multiplicity
 _atom_site_fract_x
 _atom_site_fract_y
 _atom_site_fract_z
 _atom_site_occupancy
  H  H1  1  0.369800  0.636100  0.125500  1
  H  H2  1  0.130200  0.363900  0.625500  1
  H  H3  1  0.113900  0.619800  0.375500  1
  H  H4  1  0.386100  0.380200  0.875500  1
  H  H5  1  0.869800  0.136100  0.625500  1
  H  H6  1  0.630200  0.863900  0.125500  1
  H  H7  1  0.613900  0.119800  0.875500  1
  H  H8  1  0.886100  0.880200  0.375500  1
  H  H9  1  0.630200  0.363900  0.874500  1
  H  H10  1  0.869800  0.636100  0.374500  1
  H  H11  1  0.886100  0.380200  0.624500  1
  H  H12  1  0.613900  0.619800  0.124500  1
  H  H13  1  0.130200  0.863900  0.374500  1
  H  H14  1  0.369800  0.136100  0.874500  1
  H  H15  1  0.386100  0.880200  0.124500  1
  H  H16  1  0.113900  0.119800  0.624500  1
  H  H17  1  0.414600  0.584600  0.072100  1
  H  H18  1  0.085400  0.415400  0.572100  1
  H  H19  1  0.165400  0.664600  0.322100  1
  H  H20  1  0.334600  0.335400  0.822100  1
  H  H21  1  0.914600  0.084600  0.572100  1
  H  H22  1  0.585400  0.915400  0.072100  1
  H  H23  1  0.665400  0.164600  0.822100  1
  H  H24  1  0.834600  0.835400  0.322100  1
  H  H25  1  0.585400  0.415400  0.927900  1
  H  H26  1  0.914600  0.584600  0.427900  1
  H  H27  1  0.834600  0.335400  0.677900  1
  H  H28  1  0.665400  0.664600  0.177900  1
  H  H29  1  0.085400  0.915400  0.427900  1
  H  H30  1  0.414600  0.084600  0.927900  1
  H  H31  1  0.334600  0.835400  0.177900  1
  H  H32  1  0.165400  0.164600  0.677900  1
  H  H33  1  0.489100  0.569400  0.031500  1
  H  H34  1  0.010900  0.430600  0.531500  1
  H  H35  1  0.180600  0.739100  0.281500  1
  H  H36  1  0.319400  0.260900  0.781500  1
  H  H37  1  0.989100  0.069400  0.531500  1
  H  H38  1  0.510900  0.930600  0.031500  1
  H  H39  1  0.680600  0.239100  0.781500  1
  H  H40  1  0.819400  0.760900  0.281500  1
  H  H41  1  0.510900  0.430600  0.968500  1
  H  H42  1  0.989100  0.569400  0.468500  1
  H  H43  1  0.819400  0.260900  0.718500  1
  H  H44  1  0.680600  0.739100  0.218500  1
  H  H45  1  0.010900  0.930600  0.468500  1
  H  H46  1  0.489100  0.069400  0.968500  1
  H  H47  1  0.319400  0.760900  0.218500  1
  H  H48  1  0.180600  0.239100  0.718500  1
  H  H49  1  0.558900  0.627300  0.034300  1
  H  H50  1  0.941100  0.372700  0.534300  1
  H  H51  1  0.122700  0.808900  0.284300  1
  H  H52  1  0.377300  0.191100  0.784300  1
  H  H53  1  0.058900  0.127300  0.534300  1
  H  H54  1  0.441100  0.872700  0.034300  1
  H  H55  1  0.622700  0.308900  0.784300  1
  H  H56  1  0.877300  0.691100  0.284300  1
  H  H57  1  0.441100  0.372700  0.965700  1
  H  H58  1  0.058900  0.627300  0.465700  1
  H  H59  1  0.877300  0.191100  0.715700  1
  H  H60  1  0.622700  0.808900  0.215700  1
  H  H61  1  0.941100  0.872700  0.465700  1
  H  H62  1  0.558900  0.127300  0.965700  1
  H  H63  1  0.377300  0.691100  0.215700  1
  H  H64  1  0.122700  0.308900  0.715700  1
  H  H65  1  0.553700  0.702200  0.077200  1
  H  H66  1  0.946300  0.297800  0.577200  1
  H  H67  1  0.047800  0.803700  0.327200  1
  H  H68  1  0.452200  0.196300  0.827200  1
  H  H69  1  0.053700  0.202200  0.577200  1
  H  H70  1  0.446300  0.797800  0.077200  1
  H  H71  1  0.547800  0.303700  0.827200  1
  H  H72  1  0.952200  0.696300  0.327200  1
  H  H73  1  0.446300  0.297800  0.922800  1
  H  H74  1  0.053700  0.702200  0.422800  1
  H  H75  1  0.952200  0.196300  0.672800  1
  H  H76  1  0.547800  0.803700  0.172800  1
  H  H77  1  0.946300  0.797800  0.422800  1
  H  H78  1  0.553700  0.202200  0.922800  1
  H  H79  1  0.452200  0.696300  0.172800  1
  H  H80  1  0.047800  0.303700  0.672800  1
  H  H81  1  0.457200  0.803100  0.182900  1
  H  H82  1  0.042800  0.196900  0.682900  1
  H  H83  1  0.946900  0.707200  0.432900  1
  H  H84  1  0.553100  0.292800  0.932900  1
  H  H85  1  0.957200  0.303100  0.682900  1
  H  H86  1  0.542800  0.696900  0.182900  1
  H  H87  1  0.446900  0.207200  0.932900  1
  H  H88  1  0.053100  0.792800  0.432900  1
  H  H89  1  0.542800  0.196900  0.817100  1
  H  H90  1  0.957200  0.803100  0.317100  1
  H  H91  1  0.053100  0.292800  0.567100  1
  H  H92  1  0.446900  0.707200  0.067100  1
  H  H93  1  0.042800  0.696900  0.317100  1
  H  H94  1  0.457200  0.303100  0.817100  1
  H  H95  1  0.553100  0.792800  0.067100  1
  H  H96  1  0.946900  0.207200  0.567100  1
  H  H97  1  0.384600  0.819800  0.224100  1
  H  H98  1  0.115400  0.180200  0.724100  1
  H  H99  1  0.930200  0.634600  0.474100  1
  H  H100  1  0.569800  0.365400  0.974100  1
  H  H101  1  0.884600  0.319800  0.724100  1
  H  H102  1  0.615400  0.680200  0.224100  1
  H  H103  1  0.430200  0.134600  0.974100  1
  H  H104  1  0.069800  0.865400  0.474100  1
  H  H105  1  0.615400  0.180200  0.775900  1
  H  H106  1  0.884600  0.819800  0.275900  1
  H  H107  1  0.069800  0.365400  0.525900  1
  H  H108  1  0.430200  0.634600  0.025900  1
  H  H109  1  0.115400  0.680200  0.275900  1
  H  H110  1  0.384600  0.319800  0.775900  1
  H  H111  1  0.569800  0.865400  0.025900  1
  H  H112  1  0.930200  0.134600  0.525900  1
  H  H113  1  0.316800  0.758400  0.222200  1
  H  H114  1  0.183200  0.241600  0.722200  1
  H  H115  1  0.991600  0.566800  0.472200  1
  H  H116  1  0.508400  0.433200  0.972200  1
  H  H117  1  0.816800  0.258400  0.722200  1
  H  H118  1  0.683200  0.741600  0.222200  1
  H  H119  1  0.491600  0.066800  0.972200  1
  H  H120  1  0.008400  0.933200  0.472200  1
  H  H121  1  0.683200  0.241600  0.777800  1
  H  H122  1  0.816800  0.758400  0.277800  1
  H  H123  1  0.008400  0.433200  0.527800  1
  H  H124  1  0.491600  0.566800  0.027800  1
  H  H125  1  0.183200  0.741600  0.277800  1
  H  H126  1  0.316800  0.258400  0.777800  1
  H  H127  1  0.508400  0.933200  0.027800  1
  H  H128  1  0.991600  0.066800  0.527800  1
  H  H129  1  0.321000  0.686600  0.177400  1
  H  H130  1  0.179000  0.313400  0.677400  1
  H  H131  1  0.063400  0.571000  0.427400  1
  H  H132  1  0.436600  0.429000  0.927400  1
  H  H133  1  0.821000  0.186600  0.677400  1
  H  H134  1  0.679000  0.813400  0.177400  1
  H  H135  1  0.563400  0.071000  0.927400  1
  H  H136  1  0.936600  0.929000  0.427400  1
  H  H137  1  0.679000  0.313400  0.822600  1
  H  H138  1  0.821000  0.686600  0.322600  1
  H  H139  1  0.936600  0.429000  0.572600  1
  H  H140  1  0.563400  0.571000  0.072600  1
  H  H141  1  0.179000  0.813400  0.322600  1
  H  H142  1  0.321000  0.186600  0.822600  1
  H  H143  1  0.436600  0.929000  0.072600  1
  H  H144  1  0.063400  0.071000  0.572600  1
  H  H145  1  0.500000  0.750000  0.265600  1.0
  H  H146  1  0.000000  0.250000  0.765600  1.0
  H  H147  1  0.000000  0.750000  0.515600  1.0
  H  H148  1  0.500000  0.250000  0.015600  1.0
  H  H149  1  0.500000  0.250000  0.734400  1.0
  H  H150  1  0.000000  0.750000  0.234400  1.0
  H  H151  1  0.000000  0.250000  0.484400  1.0
  H  H152  1  0.500000  0.750000  0.984400  1.0
  H  H153  1  0.404900  0.749600  0.267000  1.0
  H  H154  1  0.095100  0.250400  0.767000  1.0
  H  H155  1  0.000400  0.654900  0.517000  1.0
  H  H156  1  0.499600  0.345100  0.017000  1.0
  H  H157  1  0.904900  0.249600  0.767000  1.0
  H  H158  1  0.595100  0.750400  0.267000  1.0
  H  H159  1  0.500400  0.154900  0.017000  1.0
  H  H160  1  0.999600  0.845100  0.517000  1.0
  H  H161  1  0.595100  0.250400  0.733000  1.0
  H  H162  1  0.904900  0.749600  0.233000  1.0
  H  H163  1  0.999600  0.345100  0.483000  1.0
  H  H164  1  0.500400  0.654900  0.983000  1.0
  H  H165  1  0.095100  0.750400  0.233000  1.0
  H  H166  1  0.404900  0.249600  0.733000  1.0
  H  H167  1  0.499600  0.845100  0.983000  1.0
  H  H168  1  0.000400  0.154900  0.483000  1.0
  H  H169  1  0.329200  0.749400  0.232400  1.0
  H  H170  1  0.170800  0.250600  0.732400  1.0
  H  H171  1  0.000600  0.579200  0.482400  1.0
  H  H172  1  0.499400  0.420800  0.982400  1.0
  H  H173  1  0.829200  0.249400  0.732400  1.0
  H  H174  1  0.670800  0.750600  0.232400  1.0
  H  H175  1  0.500600  0.079200  0.982400  1.0
  H  H176  1  0.999400  0.920800  0.482400  1.0
  H  H177  1  0.670800  0.250600  0.767600  1.0
  H  H178  1  0.829200  0.749400  0.267600  1.0
  H  H179  1  0.999400  0.420800  0.517600  1.0
  H  H180  1  0.500600  0.579200  0.017600  1.0
  H  H181  1  0.170800  0.750600  0.267600  1.0
  H  H182  1  0.329200  0.249400  0.767600  1.0
  H  H183  1  0.499400  0.920800  0.017600  1.0
  H  H184  1  0.000600  0.079200  0.517600  1.0
  H  H185  1  0.325400  0.751800  0.159000  1.0
  H  H186  1  0.174600  0.248200  0.659000  1.0
  H  H187  1  0.998200  0.575400  0.409000  1.0
  H  H188  1  0.501800  0.424600  0.909000  1.0
  H  H189  1  0.825400  0.251800  0.659000  1.0
  H  H190  1  0.674600  0.748200  0.159000  1.0
  H  H191  1  0.498200  0.075400  0.909000  1.0
  H  H192  1  0.001800  0.924600  0.409000  1.0
  H  H193  1  0.674600  0.248200  0.841000  1.0
  H  H194  1  0.825400  0.751800  0.341000  1.0
  H  H195  1  0.001800  0.424600  0.591000  1.0
  H  H196  1  0.498200  0.575400  0.091000  1.0
  H  H197  1  0.174600  0.748200  0.341000  1.0
  H  H198  1  0.325400  0.251800  0.841000  1.0
  H  H199  1  0.501800  0.924600  0.091000  1.0
  H  H200  1  0.998200  0.075400  0.591000  1.0
  H  H201  1  0.401200  0.752600  0.117100  1.0
  H  H202  1  0.098800  0.247400  0.617100  1.0
  H  H203  1  0.997400  0.651200  0.367100  1.0
  H  H204  1  0.502600  0.348800  0.867100  1.0
  H  H205  1  0.901200  0.252600  0.617100  1.0
  H  H206  1  0.598800  0.747400  0.117100  1.0
  H  H207  1  0.497400  0.151200  0.867100  1.0
  H  H208  1  0.002600  0.848800  0.367100  1.0
  H  H209  1  0.598800  0.247400  0.882900  1.0
  H  H210  1  0.901200  0.752600  0.382900  1.0
  H  H211  1  0.002600  0.348800  0.632900  1.0
  H  H212  1  0.497400  0.651200  0.132900  1.0
  H  H213  1  0.098800  0.747400  0.382900  1.0
  H  H214  1  0.401200  0.252600  0.882900  1.0
  H  H215  1  0.502600  0.848800  0.132900  1.0
  H  H216  1  0.997400  0.151200  0.632900  1.0
  H  H217  1  0.398700  0.038700  0.111200  1.0
  H  H218  1  0.101300  0.961300  0.611200  1.0
  H  H219  1  0.711300  0.648700  0.361200  1.0
  H  H220  1  0.788700  0.351300  0.861200  1.0
  H  H221  1  0.898700  0.538700  0.611200  1.0
  H  H222  1  0.601300  0.461300  0.111200  1.0
  H  H223  1  0.211300  0.148700  0.861200  1.0
  H  H224  1  0.288700  0.851300  0.361200  1.0
  H  H225  1  0.601300  0.961300  0.888800  1.0
  H  H226  1  0.898700  0.038700  0.388800  1.0
  H  H227  1  0.288700  0.351300  0.638800  1.0
  H  H228  1  0.211300  0.648700  0.138800  1.0
  H  H229  1  0.101300  0.461300  0.388800  1.0
  H  H230  1  0.398700  0.538700  0.888800  1.0
  H  H231  1  0.788700  0.851300  0.138800  1.0
  H  H232  1  0.711300  0.148700  0.638800  1.0
  H  H233  1  0.472600  0.001600  0.139000  1.0
  H  H234  1  0.027400  0.998400  0.639000  1.0
  H  H235  1  0.748400  0.722600  0.389000  1.0
  H  H236  1  0.751600  0.277400  0.889000  1.0
  H  H237  1  0.972600  0.501600  0.639000  1.0
  H  H238  1  0.527400  0.498400  0.139000  1.0
  H  H239  1  0.248400  0.222600  0.889000  1.0
  H  H240  1  0.251600  0.777400  0.389000  1.0
  H  H241  1  0.527400  0.998400  0.861000  1.0
  H  H242  1  0.972600  0.001600  0.361000  1.0
  H  H243  1  0.251600  0.277400  0.611000  1.0
  H  H244  1  0.248400  0.722600  0.111000  1.0
  H  H245  1  0.027400  0.498400  0.361000  1.0
  H  H246  1  0.472600  0.501600  0.861000  1.0
  H  H247  1  0.751600  0.777400  0.111000  1.0
  H  H248  1  0.748400  0.222600  0.611000  1.0
  H  H249  1  0.385500  0.936700  0.230400  1.0
  H  H250  1  0.114500  0.063300  0.730400  1.0
  H  H251  1  0.813300  0.635500  0.480400  1.0
  H  H252  1  0.686700  0.364500  0.980400  1.0
  H  H253  1  0.885500  0.436700  0.730400  1.0
  H  H254  1  0.614500  0.563300  0.230400  1.0
  H  H255  1  0.313300  0.135500  0.980400  1.0
  H  H256  1  0.186700  0.864500  0.480400  1.0
  H  H257  1  0.614500  0.063300  0.769600  1.0
  H  H258  1  0.885500  0.936700  0.269600  1.0
  H  H259  1  0.186700  0.364500  0.519600  1.0
  H  H260  1  0.313300  0.635500  0.019600  1.0
  H  H261  1  0.114500  0.563300  0.269600  1.0
  H  H262  1  0.385500  0.436700  0.769600  1.0
  H  H263  1  0.686700  0.864500  0.019600  1.0
  H  H264  1  0.813300  0.135500  0.519600  1.0
  H  H265  1  0.313500  0.975900  0.200800  1.0
  H  H266  1  0.186500  0.024100  0.700800  1.0
  H  H267  1  0.774100  0.563500  0.450800  1.0
  H  H268  1  0.725900  0.436500  0.950800  1.0
  H  H269  1  0.813500  0.475900  0.700800  1.0
  H  H270  1  0.686500  0.524100  0.200800  1.0
  H  H271  1  0.274100  0.063500  0.950800  1.0
  H  H272  1  0.225900  0.936500  0.450800  1.0
  H  H273  1  0.686500  0.024100  0.799200  1.0
  H  H274  1  0.813500  0.975900  0.299200  1.0
  H  H275  1  0.225900  0.436500  0.549200  1.0
  H  H276  1  0.274100  0.563500  0.049200  1.0
  H  H277  1  0.186500  0.524100  0.299200  1.0
  H  H278  1  0.313500  0.475900  0.799200  1.0
  H  H279  1  0.725900  0.936500  0.049200  1.0
  H  H280  1  0.774100  0.063500  0.549200  1.0
  H  H281  1  0.433000  0.814700  0.360700  1.0
  H  H282  1  0.067000  0.185300  0.860700  1.0
  H  H283  1  0.935300  0.683000  0.610700  1.0
  H  H284  1  0.564700  0.317000  0.110700  1.0
  H  H285  1  0.933000  0.314700  0.860700  1.0
  H  H286  1  0.567000  0.685300  0.360700  1.0
  H  H287  1  0.435300  0.183000  0.110700  1.0
  H  H288  1  0.064700  0.817000  0.610700  1.0
  H  H289  1  0.567000  0.185300  0.639300  1.0
  H  H290  1  0.933000  0.814700  0.139300  1.0
  H  H291  1  0.064700  0.317000  0.389300  1.0
  H  H292  1  0.435300  0.683000  0.889300  1.0
  H  H293  1  0.067000  0.685300  0.139300  1.0
  H  H294  1  0.433000  0.314700  0.639300  1.0
  H  H295  1  0.564700  0.817000  0.889300  1.0
  H  H296  1  0.935300  0.183000  0.389300  1.0
  H  H297  1  0.437700  0.863300  0.299900  1.0
  H  H298  1  0.062300  0.136700  0.799900  1.0
  H  H299  1  0.886700  0.687700  0.549900  1.0
  H  H300  1  0.613300  0.312300  0.049900  1.0
  H  H301  1  0.937700  0.363300  0.799900  1.0
  H  H302  1  0.562300  0.636700  0.299900  1.0
  H  H303  1  0.386700  0.187700  0.049900  1.0
  H  H304  1  0.113300  0.812300  0.549900  1.0
  H  H305  1  0.562300  0.136700  0.700100  1.0
  H  H306  1  0.937700  0.863300  0.200100  1.0
  H  H307  1  0.113300  0.312300  0.450100  1.0
  H  H308  1  0.386700  0.687700  0.950100  1.0
  H  H309  1  0.062300  0.636700  0.200100  1.0
  H  H310  1  0.437700  0.363300  0.700100  1.0
  H  H311  1  0.613300  0.812300  0.950100  1.0
  H  H312  1  0.886700  0.187700  0.450100  1.0
  H  H313  1  0.592700  0.846500  0.302000  1.0
  H  H314  1  0.907300  0.153500  0.802000  1.0
  H  H315  1  0.903500  0.842700  0.552000  1.0
  H  H316  1  0.596500  0.157300  0.052000  1.0
  H  H317  1  0.092700  0.346500  0.802000  1.0
  H  H318  1  0.407300  0.653500  0.302000  1.0
  H  H319  1  0.403500  0.342700  0.052000  1.0
  H  H320  1  0.096500  0.657300  0.552000  1.0
  H  H321  1  0.407300  0.153500  0.698000  1.0
  H  H322  1  0.092700  0.846500  0.198000  1.0
  H  H323  1  0.096500  0.157300  0.448000  1.0
  H  H324  1  0.403500  0.842700  0.948000  1.0
  H  H325  1  0.907300  0.653500  0.198000  1.0
  H  H326  1  0.592700  0.346500  0.698000  1.0
  H  H327  1  0.596500  0.657300  0.948000  1.0
  H  H328  1  0.903500  0.342700  0.448000  1.0
  H  H329  1  0.583800  0.797000  0.362400  1.0
  H  H330  1  0.916200  0.203000  0.862400  1.0
  H  H331  1  0.953000  0.833800  0.612400  1.0
  H  H332  1  0.547000  0.166200  0.112400  1.0
  H  H333  1  0.083800  0.297000  0.862400  1.0
  H  H334  1  0.416200  0.703000  0.362400  1.0
  H  H335  1  0.453000  0.333800  0.112400  1.0
  H  H336  1  0.047000  0.666200  0.612400  1.0
  H  H337  1  0.416200  0.203000  0.637600  1.0
  H  H338  1  0.083800  0.797000  0.137600  1.0
  H  H339  1  0.047000  0.166200  0.387600  1.0
  H  H340  1  0.453000  0.833800  0.887600  1.0
  H  H341  1  0.916200  0.703000  0.137600  1.0
  H  H342  1  0.583800  0.297000  0.637600  1.0
  H  H343  1  0.547000  0.666200  0.887600  1.0
  H  H344  1  0.953000  0.333800  0.387600  1.0
  H  H345  1  0.741700  0.924400  0.205700  1.0
  H  H346  1  0.758300  0.075600  0.705700  1.0
  H  H347  1  0.825600  0.991700  0.455700  1.0
  H  H348  1  0.674400  0.008300  0.955700  1.0
  H  H349  1  0.241700  0.424400  0.705700  1.0
  H  H350  1  0.258300  0.575600  0.205700  1.0
  H  H351  1  0.325600  0.491700  0.955700  1.0
  H  H352  1  0.174400  0.508300  0.455700  1.0
  H  H353  1  0.258300  0.075600  0.794300  1.0
  H  H354  1  0.241700  0.924400  0.294300  1.0
  H  H355  1  0.174400  0.008300  0.544300  1.0
  H  H356  1  0.325600  0.991700  0.044300  1.0
  H  H357  1  0.758300  0.575600  0.294300  1.0
  H  H358  1  0.741700  0.424400  0.794300  1.0
  H  H359  1  0.674400  0.508300  0.044300  1.0
  H  H360  1  0.825600  0.491700  0.544300  1.0
  H  H361  1  0.661400  0.904700  0.233500  1.0
  H  H362  1  0.838600  0.095300  0.733500  1.0
  H  H363  1  0.845300  0.911400  0.483500  1.0
  H  H364  1  0.654700  0.088600  0.983500  1.0
  H  H365  1  0.161400  0.404700  0.733500  1.0
  H  H366  1  0.338600  0.595300  0.233500  1.0
  H  H367  1  0.345300  0.411400  0.983500  1.0
  H  H368  1  0.154700  0.588600  0.483500  1.0
  H  H369  1  0.338600  0.095300  0.766500  1.0
  H  H370  1  0.161400  0.904700  0.266500  1.0
  H  H371  1  0.154700  0.088600  0.516500  1.0
  H  H372  1  0.345300  0.911400  0.016500  1.0
  H  H373  1  0.838600  0.595300  0.266500  1.0
  H  H374  1  0.661400  0.404700  0.766500  1.0
  H  H375  1  0.654700  0.588600  0.016500  1.0
  H  H376  1  0.845300  0.411400  0.516500  1.0
  H  H377  1  0.595800  0.980200  0.136600  1.0
  H  H378  1  0.904200  0.019800  0.636600  1.0
  H  H379  1  0.769800  0.845800  0.386600  1.0
  H  H380  1  0.730200  0.154200  0.886600  1.0
  H  H381  1  0.095800  0.480200  0.636600  1.0
  H  H382  1  0.404200  0.519800  0.136600  1.0
  H  H383  1  0.269800  0.345800  0.886600  1.0
  H  H384  1  0.230200  0.654200  0.386600  1.0
  H  H385  1  0.404200  0.019800  0.863400  1.0
  H  H386  1  0.095800  0.980200  0.363400  1.0
  H  H387  1  0.230200  0.154200  0.613400  1.0
  H  H388  1  0.269800  0.845800  0.113400  1.0
  H  H389  1  0.904200  0.519800  0.363400  1.0
  H  H390  1  0.595800  0.480200  0.863400  1.0
  H  H391  1  0.730200  0.654200  0.113400  1.0
  H  H392  1  0.769800  0.345800  0.613400  1.0
  H  H393  1  0.677800  0.996200  0.109900  1.0
  H  H394  1  0.822200  0.003800  0.609900  1.0
  H  H395  1  0.753800  0.927800  0.359900  1.0
  H  H396  1  0.746200  0.072200  0.859900  1.0
  H  H397  1  0.177800  0.496200  0.609900  1.0
  H  H398  1  0.322200  0.503800  0.109900  1.0
  H  H399  1  0.253800  0.427800  0.859900  1.0
  H  H400  1  0.246200  0.572200  0.359900  1.0
  H  H401  1  0.322200  0.003800  0.890100  1.0
  H  H402  1  0.177800  0.996200  0.390100  1.0
  H  H403  1  0.246200  0.072200  0.640100  1.0
  H  H404  1  0.253800  0.927800  0.140100  1.0
  H  H405  1  0.822200  0.503800  0.390100  1.0
  H  H406  1  0.677800  0.496200  0.890100  1.0
  H  H407  1  0.746200  0.572200  0.140100  1.0
  H  H408  1  0.753800  0.427800  0.640100  1.0
  H  H409  1  0.329600  0.171800  0.150900  1.0
  H  H410  1  0.170400  0.828200  0.650900  1.0
  H  H411  1  0.578200  0.579600  0.400900  1.0
  H  H412  1  0.921800  0.420400  0.900900  1.0
  H  H413  1  0.829600  0.671800  0.650900  1.0
  H  H414  1  0.670400  0.328200  0.150900  1.0
  H  H415  1  0.078200  0.079600  0.900900  1.0
  H  H416  1  0.421800  0.920400  0.400900  1.0
  H  H417  1  0.670400  0.828200  0.849100  1.0
  H  H418  1  0.829600  0.171800  0.349100  1.0
  H  H419  1  0.421800  0.420400  0.599100  1.0
  H  H420  1  0.078200  0.579600  0.099100  1.0
  H  H421  1  0.170400  0.328200  0.349100  1.0
  H  H422  1  0.329600  0.671800  0.849100  1.0
  H  H423  1  0.921800  0.920400  0.099100  1.0
  H  H424  1  0.578200  0.079600  0.599100  1.0
  H  H425  1  0.327500  0.142600  0.106400  1.0
  H  H426  1  0.172500  0.857400  0.606400  1.0
  H  H427  1  0.607400  0.577500  0.356400  1.0
  H  H428  1  0.892600  0.422500  0.856400  1.0
  H  H429  1  0.827500  0.642600  0.606400  1.0
  H  H430  1  0.672500  0.357400  0.106400  1.0
  H  H431  1  0.107400  0.077500  0.856400  1.0
  H  H432  1  0.392600  0.922500  0.356400  1.0
  H  H433  1  0.672500  0.857400  0.893600  1.0
  H  H434  1  0.827500  0.142600  0.393600  1.0
  H  H435  1  0.392600  0.422500  0.643600  1.0
  H  H436  1  0.107400  0.577500  0.143600  1.0
  H  H437  1  0.172500  0.357400  0.393600  1.0
  H  H438  1  0.327500  0.642600  0.893600  1.0
  H  H439  1  0.892600  0.922500  0.143600  1.0
  H  H440  1  0.607400  0.077500  0.643600  1.0
  H  H441  1  0.362100  0.120200  0.143900  1.0
  H  H442  1  0.137900  0.879800  0.643900  1.0
  H  H443  1  0.629800  0.612100  0.393900  1.0
  H  H444  1  0.870200  0.387900  0.893900  1.0
  H  H445  1  0.862100  0.620200  0.643900  1.0
  H  H446  1  0.637900  0.379800  0.143900  1.0
  H  H447  1  0.129800  0.112100  0.893900  1.0
  H  H448  1  0.370200  0.887900  0.393900  1.0
  H  H449  1  0.637900  0.879800  0.856100  1.0
  H  H450  1  0.862100  0.120200  0.356100  1.0
  H  H451  1  0.370200  0.387900  0.606100  1.0
  H  H452  1  0.129800  0.612100  0.106100  1.0
  H  H453  1  0.137900  0.379800  0.356100  1.0
  H  H454  1  0.362100  0.620200  0.856100  1.0
  H  H455  1  0.870200  0.887900  0.106100  1.0
  H  H456  1  0.629800  0.112100  0.606100  1.0
  H  H457  1  0.211700  0.120500  0.163800  1.0
  H  H458  1  0.288300  0.879500  0.663800  1.0
  H  H459  1  0.629500  0.461700  0.413800  1.0
  H  H460  1  0.870500  0.538300  0.913800  1.0
  H  H461  1  0.711700  0.620500  0.663800  1.0
  H  H462  1  0.788300  0.379500  0.163800  1.0
  H  H463  1  0.129500  0.961700  0.913800  1.0
  H  H464  1  0.370500  0.038300  0.413800  1.0
  H  H465  1  0.788300  0.879500  0.836200  1.0
  H  H466  1  0.711700  0.120500  0.336200  1.0
  H  H467  1  0.370500  0.538300  0.586200  1.0
  H  H468  1  0.129500  0.461700  0.086200  1.0
  H  H469  1  0.288300  0.379500  0.336200  1.0
  H  H470  1  0.211700  0.620500  0.836200  1.0
  H  H471  1  0.870500  0.038300  0.086200  1.0
  H  H472  1  0.629500  0.961700  0.586200  1.0
  H  H473  1  0.240700  0.168500  0.143200  1.0
  H  H474  1  0.259300  0.831500  0.643200  1.0
  H  H475  1  0.581500  0.490700  0.393200  1.0
  H  H476  1  0.918500  0.509300  0.893200  1.0
  H  H477  1  0.740700  0.668500  0.643200  1.0
  H  H478  1  0.759300  0.331500  0.143200  1.0
  H  H479  1  0.081500  0.990700  0.893200  1.0
  H  H480  1  0.418500  0.009300  0.393200  1.0
  H  H481  1  0.759300  0.831500  0.856800  1.0
  H  H482  1  0.740700  0.168500  0.356800  1.0
  H  H483  1  0.418500  0.509300  0.606800  1.0
  H  H484  1  0.081500  0.490700  0.106800  1.0
  H  H485  1  0.259300  0.331500  0.356800  1.0
  H  H486  1  0.240700  0.668500  0.856800  1.0
  H  H487  1  0.918500  0.009300  0.106800  1.0
  H  H488  1  0.581500  0.990700  0.606800  1.0
  H  H489  1  0.196800  0.072600  0.032700  1.0
  H  H490  1  0.303200  0.927400  0.532700  1.0
  H  H491  1  0.677400  0.446800  0.282700  1.0
  H  H492  1  0.822600  0.553200  0.782700  1.0
  H  H493  1  0.696800  0.572600  0.532700  1.0
  H  H494  1  0.803200  0.427400  0.032700  1.0
  H  H495  1  0.177400  0.946800  0.782700  1.0
  H  H496  1  0.322600  0.053200  0.282700  1.0
  H  H497  1  0.803200  0.927400  0.967300  1.0
  H  H498  1  0.696800  0.072600  0.467300  1.0
  H  H499  1  0.322600  0.553200  0.717300  1.0
  H  H500  1  0.177400  0.446800  0.217300  1.0
  H  H501  1  0.303200  0.427400  0.467300  1.0
  H  H502  1  0.196800  0.572600  0.967300  1.0
  H  H503  1  0.822600  0.053200  0.217300  1.0
  H  H504  1  0.677400  0.946800  0.717300  1.0
  H  H505  1  0.235000  0.024600  0.037200  1.0
  H  H506  1  0.265000  0.975400  0.537200  1.0
  H  H507  1  0.725400  0.485000  0.287200  1.0
  H  H508  1  0.774600  0.515000  0.787200  1.0
  H  H509  1  0.735000  0.524600  0.537200  1.0
  H  H510  1  0.765000  0.475400  0.037200  1.0
  H  H511  1  0.225400  0.985000  0.787200  1.0
  H  H512  1  0.274600  0.015000  0.287200  1.0
  H  H513  1  0.765000  0.975400  0.962800  1.0
  H  H514  1  0.735000  0.024600  0.462800  1.0
  H  H515  1  0.274600  0.515000  0.712800  1.0
  H  H516  1  0.225400  0.485000  0.212800  1.0
  H  H517  1  0.265000  0.475400  0.462800  1.0
  H  H518  1  0.235000  0.524600  0.962800  1.0
  H  H519  1  0.774600  0.015000  0.212800  1.0
  H  H520  1  0.725400  0.985000  0.712800  1.0
  H  H521  1  0.257300  0.082000  0.037700  1.0
  H  H522  1  0.242700  0.918000  0.537700  1.0
  H  H523  1  0.668000  0.507300  0.287700  1.0
  H  H524  1  0.832000  0.492700  0.787700  1.0
  H  H525  1  0.757300  0.582000  0.537700  1.0
  H  H526  1  0.742700  0.418000  0.037700  1.0
  H  H527  1  0.168000  0.007300  0.787700  1.0
  H  H528  1  0.332000  0.992700  0.287700  1.0
  H  H529  1  0.742700  0.918000  0.962300  1.0
  H  H530  1  0.757300  0.082000  0.462300  1.0
  H  H531  1  0.332000  0.492700  0.712300  1.0
  H  H532  1  0.168000  0.507300  0.212300  1.0
  H  H533  1  0.242700  0.418000  0.462300  1.0
  H  H534  1  0.257300  0.582000  0.962300  1.0
  H  H535  1  0.832000  0.992700  0.212300  1.0
  H  H536  1  0.668000  0.007300  0.712300  1.0
  H  H537  1  0.146400  0.045000  0.090900  1.0
  H  H538  1  0.353600  0.955000  0.590900  1.0
  H  H539  1  0.705000  0.396400  0.340900  1.0
  H  H540  1  0.795000  0.603600  0.840900  1.0
  H  H541  1  0.646400  0.545000  0.590900  1.0
  H  H542  1  0.853600  0.455000  0.090900  1.0
  H  H543  1  0.205000  0.896400  0.840900  1.0
  H  H544  1  0.295000  0.103600  0.340900  1.0
  H  H545  1  0.853600  0.955000  0.909100  1.0
  H  H546  1  0.646400  0.045000  0.409100  1.0
  H  H547  1  0.295000  0.603600  0.659100  1.0
  H  H548  1  0.205000  0.396400  0.159100  1.0
  H  H549  1  0.353600  0.455000  0.409100  1.0
  H  H550  1  0.146400  0.545000  0.909100  1.0
  H  H551  1  0.795000  0.103600  0.159100  1.0
  H  H552  1  0.705000  0.896400  0.659100  1.0
  H  H553  1  0.172000  0.037600  0.136500  1.0
  H  H554  1  0.328000  0.962400  0.636500  1.0
  H  H555  1  0.712400  0.422000  0.386500  1.0
  H  H556  1  0.787600  0.578000  0.886500  1.0
  H  H557  1  0.672000  0.537600  0.636500  1.0
  H  H558  1  0.828000  0.462400  0.136500  1.0
  H  H559  1  0.212400  0.922000  0.886500  1.0
  H  H560  1  0.287600  0.078000  0.386500  1.0
  H  H561  1  0.828000  0.962400  0.863500  1.0
  H  H562  1  0.672000  0.037600  0.363500  1.0
  H  H563  1  0.287600  0.578000  0.613500  1.0
  H  H564  1  0.212400  0.422000  0.113500  1.0
  H  H565  1  0.328000  0.462400  0.363500  1.0
  H  H566  1  0.172000  0.537600  0.863500  1.0
  H  H567  1  0.787600  0.078000  0.113500  1.0
  H  H568  1  0.712400  0.922000  0.613500  1.0
  H  H569  1  0.182000  0.996000  0.100100  1.0
  H  H570  1  0.318000  0.004000  0.600100  1.0
  H  H571  1  0.754000  0.432000  0.350100  1.0
  H  H572  1  0.746000  0.568000  0.850100  1.0
  H  H573  1  0.682000  0.496000  0.600100  1.0
  H  H574  1  0.818000  0.504000  0.100100  1.0
  H  H575  1  0.254000  0.932000  0.850100  1.0
  H  H576  1  0.246000  0.068000  0.350100  1.0
  H  H577  1  0.818000  0.004000  0.899900  1.0
  H  H578  1  0.682000  0.996000  0.399900  1.0
  H  H579  1  0.246000  0.568000  0.649900  1.0
  H  H580  1  0.254000  0.432000  0.149900  1.0
  H  H581  1  0.318000  0.504000  0.399900  1.0
  H  H582  1  0.182000  0.496000  0.899900  1.0
  H  H583  1  0.746000  0.068000  0.149900  1.0
  H  H584  1  0.754000  0.932000  0.649900  1.0
  H  H585  1  0.291500  0.138200  0.211400  1.0
  H  H586  1  0.208500  0.861800  0.711400  1.0
  H  H587  1  0.611800  0.541500  0.461400  1.0
  H  H588  1  0.888200  0.458500  0.961400  1.0
  H  H589  1  0.791500  0.638200  0.711400  1.0
  H  H590  1  0.708500  0.361800  0.211400  1.0
  H  H591  1  0.111800  0.041500  0.961400  1.0
  H  H592  1  0.388200  0.958500  0.461400  1.0
  H  H593  1  0.708500  0.861800  0.788600  1.0
  H  H594  1  0.791500  0.138200  0.288600  1.0
  H  H595  1  0.388200  0.458500  0.538600  1.0
  H  H596  1  0.111800  0.541500  0.038600  1.0
  H  H597  1  0.208500  0.361800  0.288600  1.0
  H  H598  1  0.291500  0.638200  0.788600  1.0
  H  H599  1  0.888200  0.958500  0.038600  1.0
  H  H600  1  0.611800  0.041500  0.538600  1.0
  H  H601  1  0.324600  0.086700  0.205800  1.0
  H  H602  1  0.175400  0.913300  0.705800  1.0
  H  H603  1  0.663300  0.574600  0.455800  1.0
  H  H604  1  0.836700  0.425400  0.955800  1.0
  H  H605  1  0.824600  0.586700  0.705800  1.0
  H  H606  1  0.675400  0.413300  0.205800  1.0
  H  H607  1  0.163300  0.074600  0.955800  1.0
  H  H608  1  0.336700  0.925400  0.455800  1.0
  H  H609  1  0.675400  0.913300  0.794200  1.0
  H  H610  1  0.824600  0.086700  0.294200  1.0
  H  H611  1  0.336700  0.425400  0.544200  1.0
  H  H612  1  0.163300  0.574600  0.044200  1.0
  H  H613  1  0.175400  0.413300  0.294200  1.0
  H  H614  1  0.324600  0.586700  0.794200  1.0
  H  H615  1  0.836700  0.925400  0.044200  1.0
  H  H616  1  0.663300  0.074600  0.544200  1.0
  H  H617  1  0.263400  0.083400  0.210700  1.0
  H  H618  1  0.236600  0.916600  0.710700  1.0
  H  H619  1  0.666600  0.513400  0.460700  1.0
  H  H620  1  0.833400  0.486600  0.960700  1.0
  H  H621  1  0.763400  0.583400  0.710700  1.0
  H  H622  1  0.736600  0.416600  0.210700  1.0
  H  H623  1  0.166600  0.013400  0.960700  1.0
  H  H624  1  0.333400  0.986600  0.460700  1.0
  H  H625  1  0.736600  0.916600  0.789300  1.0
  H  H626  1  0.763400  0.083400  0.289300  1.0
  H  H627  1  0.333400  0.486600  0.539300  1.0
  H  H628  1  0.166600  0.513400  0.039300  1.0
  H  H629  1  0.236600  0.416600  0.289300  1.0
  H  H630  1  0.263400  0.583400  0.789300  1.0
  H  H631  1  0.833400  0.986600  0.039300  1.0
  H  H632  1  0.666600  0.013400  0.539300  1.0
  H  H633  1  0.235700  0.138000  0.081400  1.0
  H  H634  1  0.264300  0.862000  0.581400  1.0
  H  H635  1  0.612000  0.485700  0.331400  1.0
  H  H636  1  0.888000  0.514300  0.831400  1.0
  H  H637  1  0.735700  0.638000  0.581400  1.0
  H  H638  1  0.764300  0.362000  0.081400  1.0
  H  H639  1  0.112000  0.985700  0.831400  1.0
  H  H640  1  0.388000  0.014300  0.331400  1.0
  H  H641  1  0.764300  0.862000  0.918600  1.0
  H  H642  1  0.735700  0.138000  0.418600  1.0
  H  H643  1  0.388000  0.514300  0.668600  1.0
  H  H644  1  0.112000  0.485700  0.168600  1.0
  H  H645  1  0.264300  0.362000  0.418600  1.0
  H  H646  1  0.235700  0.638000  0.918600  1.0
  H  H647  1  0.888000  0.014300  0.168600  1.0
  H  H648  1  0.612000  0.985700  0.668600  1.0
  H  H649  1  0.180800  0.127100  0.102300  1.0
  H  H650  1  0.319200  0.872900  0.602300  1.0
  H  H651  1  0.622900  0.430800  0.352300  1.0
  H  H652  1  0.877100  0.569200  0.852300  1.0
  H  H653  1  0.680800  0.627100  0.602300  1.0
  H  H654  1  0.819200  0.372900  0.102300  1.0
  H  H655  1  0.122900  0.930800  0.852300  1.0
  H  H656  1  0.377100  0.069200  0.352300  1.0
  H  H657  1  0.819200  0.872900  0.897700  1.0
  H  H658  1  0.680800  0.127100  0.397700  1.0
  H  H659  1  0.377100  0.569200  0.647700  1.0
  H  H660  1  0.122900  0.430800  0.147700  1.0
  H  H661  1  0.319200  0.372900  0.397700  1.0
  H  H662  1  0.180800  0.627100  0.897700  1.0
  H  H663  1  0.877100  0.069200  0.147700  1.0
  H  H664  1  0.622900  0.930800  0.647700  1.0
  H  H665  1  0.504100  0.795800  0.528000  1.0
  H  H666  1  0.995900  0.204200  0.028000  1.0
  H  H667  1  0.954200  0.754100  0.778000  1.0
  H  H668  1  0.545800  0.245900  0.278000  1.0
  H  H669  1  0.004100  0.295800  0.028000  1.0
  H  H670  1  0.495900  0.704200  0.528000  1.0
  H  H671  1  0.454200  0.254100  0.278000  1.0
  H  H672  1  0.045800  0.745900  0.778000  1.0
  H  H673  1  0.495900  0.204200  0.472000  1.0
  H  H674  1  0.004100  0.795800  0.972000  1.0
  H  H675  1  0.045800  0.245900  0.222000  1.0
  H  H676  1  0.454200  0.754100  0.722000  1.0
  H  H677  1  0.995900  0.704200  0.972000  1.0
  H  H678  1  0.504100  0.295800  0.472000  1.0
  H  H679  1  0.545800  0.745900  0.722000  1.0
  H  H680  1  0.954200  0.254100  0.222000  1.0
  H  H681  1  0.452600  0.778200  0.503900  1.0
  H  H682  1  0.047400  0.221800  0.003900  1.0
  H  H683  1  0.971800  0.702600  0.753900  1.0
  H  H684  1  0.528200  0.297400  0.253900  1.0
  H  H685  1  0.952600  0.278200  0.003900  1.0
  H  H686  1  0.547400  0.721800  0.503900  1.0
  H  H687  1  0.471800  0.202600  0.253900  1.0
  H  H688  1  0.028200  0.797400  0.753900  1.0
  H  H689  1  0.547400  0.221800  0.496100  1.0
  H  H690  1  0.952600  0.778200  0.996100  1.0
  H  H691  1  0.028200  0.297400  0.246100  1.0
  H  H692  1  0.471800  0.702600  0.746100  1.0
  H  H693  1  0.047400  0.721800  0.996100  1.0
  H  H694  1  0.452600  0.278200  0.496100  1.0
  H  H695  1  0.528200  0.797400  0.746100  1.0
  H  H696  1  0.971800  0.202600  0.246100  1.0
  H  H697  1  0.569200  0.842400  0.488400  1.0
  H  H698  1  0.930800  0.157600  0.988400  1.0
  H  H699  1  0.907600  0.819200  0.738400  1.0
  H  H700  1  0.592400  0.180800  0.238400  1.0
  H  H701  1  0.069200  0.342400  0.988400  1.0
  H  H702  1  0.430800  0.657600  0.488400  1.0
  H  H703  1  0.407600  0.319200  0.238400  1.0
  H  H704  1  0.092400  0.680800  0.738400  1.0
  H  H705  1  0.430800  0.157600  0.511600  1.0
  H  H706  1  0.069200  0.842400  0.011600  1.0
  H  H707  1  0.092400  0.180800  0.261600  1.0
  H  H708  1  0.407600  0.819200  0.761600  1.0
  H  H709  1  0.930800  0.657600  0.011600  1.0
  H  H710  1  0.569200  0.342400  0.511600  1.0
  H  H711  1  0.592400  0.680800  0.761600  1.0
  H  H712  1  0.907600  0.319200  0.261600  1.0
  H  H713  1  0.575400  0.832900  0.438800  1.0
  H  H714  1  0.924600  0.167100  0.938800  1.0
  H  H715  1  0.917100  0.825400  0.688800  1.0
  H  H716  1  0.582900  0.174600  0.188800  1.0
  H  H717  1  0.075400  0.332900  0.938800  1.0
  H  H718  1  0.424600  0.667100  0.438800  1.0
  H  H719  1  0.417100  0.325400  0.188800  1.0
  H  H720  1  0.082900  0.674600  0.688800  1.0
  H  H721  1  0.424600  0.167100  0.561200  1.0
  H  H722  1  0.075400  0.832900  0.061200  1.0
  H  H723  1  0.082900  0.174600  0.311200  1.0
  H  H724  1  0.417100  0.825400  0.811200  1.0
  H  H725  1  0.924600  0.667100  0.061200  1.0
  H  H726  1  0.575400  0.332900  0.561200  1.0
  H  H727  1  0.582900  0.674600  0.811200  1.0
  H  H728  1  0.917100  0.325400  0.311200  1.0
  H  H729  1  0.585200  0.786700  0.471200  1.0
  H  H730  1  0.914800  0.213300  0.971200  1.0
  H  H731  1  0.963300  0.835200  0.721200  1.0
  H  H732  1  0.536700  0.164800  0.221200  1.0
  H  H733  1  0.085200  0.286700  0.971200  1.0
  H  H734  1  0.414800  0.713300  0.471200  1.0
  H  H735  1  0.463300  0.335200  0.221200  1.0
  H  H736  1  0.036700  0.664800  0.721200  1.0
  H  H737  1  0.414800  0.213300  0.528800  1.0
  H  H738  1  0.085200  0.786700  0.028800  1.0
  H  H739  1  0.036700  0.164800  0.278800  1.0
  H  H740  1  0.463300  0.835200  0.778800  1.0
  H  H741  1  0.914800  0.713300  0.028800  1.0
  H  H742  1  0.585200  0.286700  0.528800  1.0
  H  H743  1  0.536700  0.664800  0.778800  1.0
  H  H744  1  0.963300  0.335200  0.278800  1.0
  H  H745  1  0.484000  0.873800  0.479700  1.0
  H  H746  1  0.016000  0.126200  0.979700  1.0
  H  H747  1  0.876200  0.734000  0.729700  1.0
  H  H748  1  0.623800  0.266000  0.229700  1.0
  H  H749  1  0.984000  0.373800  0.979700  1.0
  H  H750  1  0.516000  0.626200  0.479700  1.0
  H  H751  1  0.376200  0.234000  0.229700  1.0
  H  H752  1  0.123800  0.766000  0.729700  1.0
  H  H753  1  0.516000  0.126200  0.520300  1.0
  H  H754  1  0.984000  0.873800  0.020300  1.0
  H  H755  1  0.123800  0.266000  0.270300  1.0
  H  H756  1  0.376200  0.734000  0.770300  1.0
  H  H757  1  0.016000  0.626200  0.020300  1.0
  H  H758  1  0.484000  0.373800  0.520300  1.0
  H  H759  1  0.623800  0.766000  0.770300  1.0
  H  H760  1  0.876200  0.234000  0.270300  1.0
  H  H761  1  0.442100  0.840700  0.454600  1.0
  H  H762  1  0.057900  0.159300  0.954600  1.0
  H  H763  1  0.909300  0.692100  0.704600  1.0
  H  H764  1  0.590700  0.307900  0.204600  1.0
  H  H765  1  0.942100  0.340700  0.954600  1.0
  H  H766  1  0.557900  0.659300  0.454600  1.0
  H  H767  1  0.409300  0.192100  0.204600  1.0
  H  H768  1  0.090700  0.807900  0.704600  1.0
  H  H769  1  0.557900  0.159300  0.545400  1.0
  H  H770  1  0.942100  0.840700  0.045400  1.0
  H  H771  1  0.090700  0.307900  0.295400  1.0
  H  H772  1  0.409300  0.692100  0.795400  1.0
  H  H773  1  0.057900  0.659300  0.045400  1.0
  H  H774  1  0.442100  0.340700  0.545400  1.0
  H  H775  1  0.590700  0.807900  0.795400  1.0
  H  H776  1  0.909300  0.192100  0.295400  1.0
  H  H777  1  0.489000  0.866600  0.429700  1.0
  H  H778  1  0.011000  0.133400  0.929700  1.0
  H  H779  1  0.883400  0.739000  0.679700  1.0
  H  H780  1  0.616600  0.261000  0.179700  1.0
  H  H781  1  0.989000  0.366600  0.929700  1.0
  H  H782  1  0.511000  0.633400  0.429700  1.0
  H  H783  1  0.383400  0.239000  0.179700  1.0
  H  H784  1  0.116600  0.761000  0.679700  1.0
  H  H785  1  0.511000  0.133400  0.570300  1.0
  H  H786  1  0.989000  0.866600  0.070300  1.0
  H  H787  1  0.116600  0.261000  0.320300  1.0
  H  H788  1  0.383400  0.739000  0.820300  1.0
  H  H789  1  0.011000  0.633400  0.070300  1.0
  H  H790  1  0.489000  0.366600  0.570300  1.0
  H  H791  1  0.616600  0.761000  0.820300  1.0
  H  H792  1  0.883400  0.239000  0.320300  1.0
  Pd  Pd793  1  0.500000  0.750000  0.414990  1.0
  Pd  Pd794  1  0.000000  0.250000  0.914990  1.0
  Pd  Pd795  1  0.000000  0.750000  0.664990  1.0
  Pd  Pd796  1  0.500000  0.250000  0.164990  1.0
  Pd  Pd797  1  0.500000  0.250000  0.585010  1.0
  Pd  Pd798  1  0.000000  0.750000  0.085010  1.0
  Pd  Pd799  1  0.000000  0.250000  0.335010  1.0
  Pd  Pd800  1  0.500000  0.750000  0.835010  1.0
  Pd  Pd801  1  0.286282  0.036322  0.123719  1.0
  Pd  Pd802  1  0.213718  0.963678  0.623719  1.0
  Pd  Pd803  1  0.713678  0.536282  0.373719  1.0
  Pd  Pd804  1  0.786322  0.463718  0.873719  1.0
  Pd  Pd805  1  0.786282  0.536322  0.623719  1.0
  Pd  Pd806  1  0.713718  0.463678  0.123719  1.0
  Pd  Pd807  1  0.213678  0.036282  0.873719  1.0
  Pd  Pd808  1  0.286322  0.963718  0.373719  1.0
  Pd  Pd809  1  0.713718  0.963678  0.876281  1.0
  Pd  Pd810  1  0.786282  0.036322  0.376281  1.0
  Pd  Pd811  1  0.286322  0.463718  0.626281  1.0
  Pd  Pd812  1  0.213678  0.536282  0.126281  1.0
  Pd  Pd813  1  0.213718  0.463678  0.376281  1.0
  Pd  Pd814  1  0.286282  0.536322  0.876281  1.0
  Pd  Pd815  1  0.786322  0.963718  0.126281  1.0
  Pd  Pd816  1  0.713678  0.036282  0.626281  1.0
  C  C817  1  0.478500  0.730400  0.128000  1
  C  C818  1  0.021500  0.269600  0.628000  1
  C  C819  1  0.019600  0.728500  0.378000  1
  C  C820  1  0.480400  0.271500  0.878000  1
  C  C821  1  0.978500  0.230400  0.628000  1
  C  C822  1  0.521500  0.769600  0.128000  1
  C  C823  1  0.519600  0.228500  0.878000  1
  C  C824  1  0.980400  0.771500  0.378000  1
  C  C825  1  0.521500  0.269600  0.872000  1
  C  C826  1  0.978500  0.730400  0.372000  1
  C  C827  1  0.980400  0.271500  0.622000  1
  C  C828  1  0.519600  0.728500  0.122000  1
  C  C829  1  0.021500  0.769600  0.372000  1
  C  C830  1  0.478500  0.230400  0.872000  1
  C  C831  1  0.480400  0.771500  0.122000  1
  C  C832  1  0.019600  0.228500  0.622000  1
  C  C833  1  0.434200  0.738000  0.153500  1
  C  C834  1  0.065800  0.262000  0.653500  1
  C  C835  1  0.012000  0.684200  0.403500  1
  C  C836  1  0.488000  0.315800  0.903500  1
  C  C837  1  0.934200  0.238000  0.653500  1
  C  C838  1  0.565800  0.762000  0.153500  1
  C  C839  1  0.512000  0.184200  0.903500  1
  C  C840  1  0.988000  0.815800  0.403500  1
  C  C841  1  0.565800  0.262000  0.846500  1
  C  C842  1  0.934200  0.738000  0.346500  1
  C  C843  1  0.988000  0.315800  0.596500  1
  C  C844  1  0.512000  0.684200  0.096500  1
  C  C845  1  0.065800  0.762000  0.346500  1
  C  C846  1  0.434200  0.238000  0.846500  1
  C  C847  1  0.488000  0.815800  0.096500  1
  C  C848  1  0.012000  0.184200  0.596500  1
  C  C849  1  0.392600  0.702800  0.153000  1
  C  C850  1  0.107400  0.297200  0.653000  1
  C  C851  1  0.047200  0.642600  0.403000  1
  C  C852  1  0.452800  0.357400  0.903000  1
  C  C853  1  0.892600  0.202800  0.653000  1
  C  C854  1  0.607400  0.797200  0.153000  1
  C  C855  1  0.547200  0.142600  0.903000  1
  C  C856  1  0.952800  0.857400  0.403000  1
  C  C857  1  0.607400  0.297200  0.847000  1
  C  C858  1  0.892600  0.702800  0.347000  1
  C  C859  1  0.952800  0.357400  0.597000  1
  C  C860  1  0.547200  0.642600  0.097000  1
  C  C861  1  0.107400  0.797200  0.347000  1
  C  C862  1  0.392600  0.202800  0.847000  1
  C  C863  1  0.452800  0.857400  0.097000  1
  C  C864  1  0.047200  0.142600  0.597000  1
  C  C865  1  0.397100  0.660400  0.126000  1
  C  C866  1  0.102900  0.339600  0.626000  1
  C  C867  1  0.089600  0.647100  0.376000  1
  C  C868  1  0.410400  0.352900  0.876000  1
  C  C869  1  0.897100  0.160400  0.626000  1
  C  C870  1  0.602900  0.839600  0.126000  1
  C  C871  1  0.589600  0.147100  0.876000  1
  C  C872  1  0.910400  0.852900  0.376000  1
  C  C873  1  0.602900  0.339600  0.874000  1
  C  C874  1  0.897100  0.660400  0.374000  1
  C  C875  1  0.910400  0.352900  0.624000  1
  C  C876  1  0.589600  0.647100  0.124000  1
  C  C877  1  0.102900  0.839600  0.374000  1
  C  C878  1  0.397100  0.160400  0.874000  1
  C  C879  1  0.410400  0.852900  0.124000  1
  C  C880  1  0.089600  0.147100  0.624000  1
  C  C881  1  0.439700  0.651600  0.099500  1
  C  C882  1  0.060300  0.348400  0.599500  1
  C  C883  1  0.098400  0.689700  0.349500  1
  C  C884  1  0.401600  0.310300  0.849500  1
  C  C885  1  0.939700  0.151600  0.599500  1
  C  C886  1  0.560300  0.848400  0.099500  1
  C  C887  1  0.598400  0.189700  0.849500  1
  C  C888  1  0.901600  0.810300  0.349500  1
  C  C889  1  0.560300  0.348400  0.900500  1
  C  C890  1  0.939700  0.651600  0.400500  1
  C  C891  1  0.901600  0.310300  0.650500  1
  C  C892  1  0.598400  0.689700  0.150500  1
  C  C893  1  0.060300  0.848400  0.400500  1
  C  C894  1  0.439700  0.151600  0.900500  1
  C  C895  1  0.401600  0.810300  0.150500  1
  C  C896  1  0.098400  0.189700  0.650500  1
  C  C897  1  0.480900  0.686700  0.101500  1
  C  C898  1  0.019100  0.313300  0.601500  1
  C  C899  1  0.063300  0.730900  0.351500  1
  C  C900  1  0.436700  0.269100  0.851500  1
  C  C901  1  0.980900  0.186700  0.601500  1
  C  C902  1  0.519100  0.813300  0.101500  1
  C  C903  1  0.563300  0.230900  0.851500  1
  C  C904  1  0.936700  0.769100  0.351500  1
  C  C905  1  0.519100  0.313300  0.898500  1
  C  C906  1  0.980900  0.686700  0.398500  1
  C  C907  1  0.936700  0.269100  0.648500  1
  C  C908  1  0.563300  0.730900  0.148500  1
  C  C909  1  0.019100  0.813300  0.398500  1
  C  C910  1  0.480900  0.186700  0.898500  1
  C  C911  1  0.436700  0.769100  0.148500  1
  C  C912  1  0.063300  0.230900  0.648500  1
  C  C913  1  0.442600  0.608000  0.073400  1
  C  C914  1  0.057400  0.392000  0.573400  1
  C  C915  1  0.142000  0.692600  0.323400  1
  C  C916  1  0.358000  0.307400  0.823400  1
  C  C917  1  0.942600  0.108000  0.573400  1
  C  C918  1  0.557400  0.892000  0.073400  1
  C  C919  1  0.642000  0.192600  0.823400  1
  C  C920  1  0.858000  0.807400  0.323400  1
  C  C921  1  0.557400  0.392000  0.926600  1
  C  C922  1  0.942600  0.608000  0.426600  1
  C  C923  1  0.858000  0.307400  0.676600  1
  C  C924  1  0.642000  0.692600  0.176600  1
  C  C925  1  0.057400  0.892000  0.426600  1
  C  C926  1  0.442600  0.108000  0.926600  1
  C  C927  1  0.358000  0.807400  0.176600  1
  C  C928  1  0.142000  0.192600  0.676600  1
  C  C929  1  0.487200  0.599000  0.049100  1
  C  C930  1  0.012800  0.401000  0.549100  1
  C  C931  1  0.151000  0.737200  0.299100  1
  C  C932  1  0.349000  0.262800  0.799100  1
  C  C933  1  0.987200  0.099000  0.549100  1
  C  C934  1  0.512800  0.901000  0.049100  1
  C  C935  1  0.651000  0.237200  0.799100  1
  C  C936  1  0.849000  0.762800  0.299100  1
  C  C937  1  0.512800  0.401000  0.950900  1
  C  C938  1  0.987200  0.599000  0.450900  1
  C  C939  1  0.849000  0.262800  0.700900  1
  C  C940  1  0.651000  0.737200  0.200900  1
  C  C941  1  0.012800  0.901000  0.450900  1
  C  C942  1  0.487200  0.099000  0.950900  1
  C  C943  1  0.349000  0.762800  0.200900  1
  C  C944  1  0.151000  0.237200  0.700900  1
  C  C945  1  0.528900  0.633700  0.050600  1
  C  C946  1  0.971100  0.366300  0.550600  1
  C  C947  1  0.116300  0.778900  0.300600  1
  C  C948  1  0.383700  0.221100  0.800600  1
  C  C949  1  0.028900  0.133700  0.550600  1
  C  C950  1  0.471100  0.866300  0.050600  1
  C  C951  1  0.616300  0.278900  0.800600  1
  C  C952  1  0.883700  0.721100  0.300600  1
  C  C953  1  0.471100  0.366300  0.949400  1
  C  C954  1  0.028900  0.633700  0.449400  1
  C  C955  1  0.883700  0.221100  0.699400  1
  C  C956  1  0.616300  0.778900  0.199400  1
  C  C957  1  0.971100  0.866300  0.449400  1
  C  C958  1  0.528900  0.133700  0.949400  1
  C  C959  1  0.383700  0.721100  0.199400  1
  C  C960  1  0.116300  0.278900  0.699400  1
  C  C961  1  0.526000  0.678300  0.076500  1
  C  C962  1  0.974000  0.321700  0.576500  1
  C  C963  1  0.071700  0.776000  0.326500  1
  C  C964  1  0.428300  0.224000  0.826500  1
  C  C965  1  0.026000  0.178300  0.576500  1
  C  C966  1  0.474000  0.821700  0.076500  1
  C  C967  1  0.571700  0.276000  0.826500  1
  C  C968  1  0.928300  0.724000  0.326500  1
  C  C969  1  0.474000  0.321700  0.923500  1
  C  C970  1  0.026000  0.678300  0.423500  1
  C  C971  1  0.928300  0.224000  0.673500  1
  C  C972  1  0.571700  0.776000  0.173500  1
  C  C973  1  0.974000  0.821700  0.423500  1
  C  C974  1  0.526000  0.178300  0.923500  1
  C  C975  1  0.428300  0.724000  0.173500  1
  C  C976  1  0.071700  0.276000  0.673500  1
  C  C977  1  0.429100  0.779700  0.181200  1
  C  C978  1  0.070900  0.220300  0.681200  1
  C  C979  1  0.970300  0.679100  0.431200  1
  C  C980  1  0.529700  0.320900  0.931200  1
  C  C981  1  0.929100  0.279700  0.681200  1
  C  C982  1  0.570900  0.720300  0.181200  1
  C  C983  1  0.470300  0.179100  0.931200  1
  C  C984  1  0.029700  0.820900  0.431200  1
  C  C985  1  0.570900  0.220300  0.818800  1
  C  C986  1  0.929100  0.779700  0.318800  1
  C  C987  1  0.029700  0.320900  0.568800  1
  C  C988  1  0.470300  0.679100  0.068800  1
  C  C989  1  0.070900  0.720300  0.318800  1
  C  C990  1  0.429100  0.279700  0.818800  1
  C  C991  1  0.529700  0.820900  0.068800  1
  C  C992  1  0.970300  0.179100  0.568800  1
  C  C993  1  0.386400  0.790100  0.206700  1
  C  C994  1  0.113600  0.209900  0.706700  1
  C  C995  1  0.959900  0.636400  0.456700  1
  C  C996  1  0.540100  0.363600  0.956700  1
  C  C997  1  0.886400  0.290100  0.706700  1
  C  C998  1  0.613600  0.709900  0.206700  1
  C  C999  1  0.459900  0.136400  0.956700  1
  C  C1000  1  0.040100  0.863600  0.456700  1
  C  C1001  1  0.613600  0.209900  0.793300  1
  C  C1002  1  0.886400  0.790100  0.293300  1
  C  C1003  1  0.040100  0.363600  0.543300  1
  C  C1004  1  0.459900  0.636400  0.043300  1
  C  C1005  1  0.113600  0.709900  0.293300  1
  C  C1006  1  0.386400  0.290100  0.793300  1
  C  C1007  1  0.540100  0.863600  0.043300  1
  C  C1008  1  0.959900  0.136400  0.543300  1
  C  C1009  1  0.346300  0.753600  0.204900  1
  C  C1010  1  0.153700  0.246400  0.704900  1
  C  C1011  1  0.996400  0.596300  0.454900  1
  C  C1012  1  0.503600  0.403700  0.954900  1
  C  C1013  1  0.846300  0.253600  0.704900  1
  C  C1014  1  0.653700  0.746400  0.204900  1
  C  C1015  1  0.496400  0.096300  0.954900  1
  C  C1016  1  0.003600  0.903700  0.454900  1
  C  C1017  1  0.653700  0.246400  0.795100  1
  C  C1018  1  0.846300  0.753600  0.295100  1
  C  C1019  1  0.003600  0.403700  0.545100  1
  C  C1020  1  0.496400  0.596300  0.045100  1
  C  C1021  1  0.153700  0.746400  0.295100  1
  C  C1022  1  0.346300  0.253600  0.795100  1
  C  C1023  1  0.503600  0.903700  0.045100  1
  C  C1024  1  0.996400  0.096300  0.545100  1
  C  C1025  1  0.348700  0.710400  0.178300  1
  C  C1026  1  0.151300  0.289600  0.678300  1
  C  C1027  1  0.039600  0.598700  0.428300  1
  C  C1028  1  0.460400  0.401300  0.928300  1
  C  C1029  1  0.848700  0.210400  0.678300  1
  C  C1030  1  0.651300  0.789600  0.178300  1
  C  C1031  1  0.539600  0.098700  0.928300  1
  C  C1032  1  0.960400  0.901300  0.428300  1
  C  C1033  1  0.651300  0.289600  0.821700  1
  C  C1034  1  0.848700  0.710400  0.321700  1
  C  C1035  1  0.960400  0.401300  0.571700  1
  C  C1036  1  0.539600  0.598700  0.071700  1
  C  C1037  1  0.151300  0.789600  0.321700  1
  C  C1038  1  0.348700  0.210400  0.821700  1
  C  C1039  1  0.460400  0.901300  0.071700  1
  C  C1040  1  0.039600  0.098700  0.571700  1
  C  C1041  1  0.500000  0.750000  0.149600  1.0
  C  C1042  1  0.000000  0.250000  0.649600  1.0
  C  C1043  1  0.000000  0.750000  0.399600  1.0
  C  C1044  1  0.500000  0.250000  0.899600  1.0
  C  C1045  1  0.500000  0.250000  0.850400  1.0
  C  C1046  1  0.000000  0.750000  0.350400  1.0
  C  C1047  1  0.000000  0.250000  0.600400  1.0
  C  C1048  1  0.500000  0.750000  0.100400  1.0
  C  C1049  1  0.500000  0.750000  0.235600  1.0
  C  C1050  1  0.000000  0.250000  0.735600  1.0
  C  C1051  1  0.000000  0.750000  0.485600  1.0
  C  C1052  1  0.500000  0.250000  0.985600  1.0
  C  C1053  1  0.500000  0.250000  0.764400  1.0
  C  C1054  1  0.000000  0.750000  0.264400  1.0
  C  C1055  1  0.000000  0.250000  0.514400  1.0
  C  C1056  1  0.500000  0.750000  0.014400  1.0
  C  C1057  1  0.454100  0.750600  0.216300  1.0
  C  C1058  1  0.045900  0.249400  0.716300  1.0
  C  C1059  1  0.999400  0.704100  0.466300  1.0
  C  C1060  1  0.500600  0.295900  0.966300  1.0
  C  C1061  1  0.954100  0.250600  0.716300  1.0
  C  C1062  1  0.545900  0.749400  0.216300  1.0
  C  C1063  1  0.499400  0.204100  0.966300  1.0
  C  C1064  1  0.000600  0.795900  0.466300  1.0
  C  C1065  1  0.545900  0.249400  0.783700  1.0
  C  C1066  1  0.954100  0.750600  0.283700  1.0
  C  C1067  1  0.000600  0.295900  0.533700  1.0
  C  C1068  1  0.499400  0.704100  0.033700  1.0
  C  C1069  1  0.045900  0.749400  0.283700  1.0
  C  C1070  1  0.454100  0.250600  0.783700  1.0
  C  C1071  1  0.500600  0.795900  0.033700  1.0
  C  C1072  1  0.999400  0.204100  0.533700  1.0
  C  C1073  1  0.405400  0.750100  0.237000  1.0
  C  C1074  1  0.094600  0.249900  0.737000  1.0
  C  C1075  1  0.999900  0.655400  0.487000  1.0
  C  C1076  1  0.500100  0.344600  0.987000  1.0
  C  C1077  1  0.905400  0.250100  0.737000  1.0
  C  C1078  1  0.594600  0.749900  0.237000  1.0
  C  C1079  1  0.499900  0.155400  0.987000  1.0
  C  C1080  1  0.000100  0.844600  0.487000  1.0
  C  C1081  1  0.594600  0.249900  0.763000  1.0
  C  C1082  1  0.905400  0.750100  0.263000  1.0
  C  C1083  1  0.000100  0.344600  0.513000  1.0
  C  C1084  1  0.499900  0.655400  0.013000  1.0
  C  C1085  1  0.094600  0.749900  0.263000  1.0
  C  C1086  1  0.405400  0.250100  0.763000  1.0
  C  C1087  1  0.500100  0.844600  0.013000  1.0
  C  C1088  1  0.999900  0.155400  0.513000  1.0
  C  C1089  1  0.360300  0.750200  0.216600  1.0
  C  C1090  1  0.139700  0.249800  0.716600  1.0
  C  C1091  1  0.999800  0.610300  0.466600  1.0
  C  C1092  1  0.500200  0.389700  0.966600  1.0
  C  C1093  1  0.860300  0.250200  0.716600  1.0
  C  C1094  1  0.639700  0.749800  0.216600  1.0
  C  C1095  1  0.499800  0.110300  0.966600  1.0
  C  C1096  1  0.000200  0.889700  0.466600  1.0
  C  C1097  1  0.639700  0.249800  0.783400  1.0
  C  C1098  1  0.860300  0.750200  0.283400  1.0
  C  C1099  1  0.000200  0.389700  0.533400  1.0
  C  C1100  1  0.499800  0.610300  0.033400  1.0
  C  C1101  1  0.139700  0.749800  0.283400  1.0
  C  C1102  1  0.360300  0.250200  0.783400  1.0
  C  C1103  1  0.500200  0.889700  0.033400  1.0
  C  C1104  1  0.999800  0.110300  0.533400  1.0
  C  C1105  1  0.358100  0.751500  0.172300  1.0
  C  C1106  1  0.141900  0.248500  0.672300  1.0
  C  C1107  1  0.998500  0.608100  0.422300  1.0
  C  C1108  1  0.501500  0.391900  0.922300  1.0
  C  C1109  1  0.858100  0.251500  0.672300  1.0
  C  C1110  1  0.641900  0.748500  0.172300  1.0
  C  C1111  1  0.498500  0.108100  0.922300  1.0
  C  C1112  1  0.001500  0.891900  0.422300  1.0
  C  C1113  1  0.641900  0.248500  0.827700  1.0
  C  C1114  1  0.858100  0.751500  0.327700  1.0
  C  C1115  1  0.001500  0.391900  0.577700  1.0
  C  C1116  1  0.498500  0.608100  0.077700  1.0
  C  C1117  1  0.141900  0.748500  0.327700  1.0
  C  C1118  1  0.358100  0.251500  0.827700  1.0
  C  C1119  1  0.501500  0.891900  0.077700  1.0
  C  C1120  1  0.998500  0.108100  0.577700  1.0
  C  C1121  1  0.402300  0.752400  0.147000  1.0
  C  C1122  1  0.097700  0.247600  0.647000  1.0
  C  C1123  1  0.997600  0.652300  0.397000  1.0
  C  C1124  1  0.502400  0.347700  0.897000  1.0
  C  C1125  1  0.902300  0.252400  0.647000  1.0
  C  C1126  1  0.597700  0.747600  0.147000  1.0
  C  C1127  1  0.497600  0.152300  0.897000  1.0
  C  C1128  1  0.002400  0.847700  0.397000  1.0
  C  C1129  1  0.597700  0.247600  0.853000  1.0
  C  C1130  1  0.902300  0.752400  0.353000  1.0
  C  C1131  1  0.002400  0.347700  0.603000  1.0
  C  C1132  1  0.497600  0.652300  0.103000  1.0
  C  C1133  1  0.097700  0.747600  0.353000  1.0
  C  C1134  1  0.402300  0.252400  0.853000  1.0
  C  C1135  1  0.502400  0.847700  0.103000  1.0
  C  C1136  1  0.997600  0.152300  0.603000  1.0
  C  C1137  1  0.452800  0.753100  0.172200  1.0
  C  C1138  1  0.047200  0.246900  0.672200  1.0
  C  C1139  1  0.996900  0.702800  0.422200  1.0
  C  C1140  1  0.503100  0.297200  0.922200  1.0
  C  C1141  1  0.952800  0.253100  0.672200  1.0
  C  C1142  1  0.547200  0.746900  0.172200  1.0
  C  C1143  1  0.496900  0.202800  0.922200  1.0
  C  C1144  1  0.003100  0.797200  0.422200  1.0
  C  C1145  1  0.547200  0.246900  0.827800  1.0
  C  C1146  1  0.952800  0.753100  0.327800  1.0
  C  C1147  1  0.003100  0.297200  0.577800  1.0
  C  C1148  1  0.496900  0.702800  0.077800  1.0
  C  C1149  1  0.047200  0.746900  0.327800  1.0
  C  C1150  1  0.452800  0.253100  0.827800  1.0
  C  C1151  1  0.503100  0.797200  0.077800  1.0
  C  C1152  1  0.996900  0.202800  0.577800  1.0
  C  C1153  1  0.396200  0.018000  0.135800  1.0
  C  C1154  1  0.103800  0.982000  0.635800  1.0
  C  C1155  1  0.732000  0.646200  0.385800  1.0
  C  C1156  1  0.768000  0.353800  0.885800  1.0
  C  C1157  1  0.896200  0.518000  0.635800  1.0
  C  C1158  1  0.603800  0.482000  0.135800  1.0
  C  C1159  1  0.232000  0.146200  0.885800  1.0
  C  C1160  1  0.268000  0.853800  0.385800  1.0
  C  C1161  1  0.603800  0.982000  0.864200  1.0
  C  C1162  1  0.896200  0.018000  0.364200  1.0
  C  C1163  1  0.268000  0.353800  0.614200  1.0
  C  C1164  1  0.232000  0.646200  0.114200  1.0
  C  C1165  1  0.103800  0.482000  0.364200  1.0
  C  C1166  1  0.396200  0.518000  0.864200  1.0
  C  C1167  1  0.768000  0.853800  0.114200  1.0
  C  C1168  1  0.732000  0.146200  0.614200  1.0
  C  C1169  1  0.440200  0.995600  0.152000  1.0
  C  C1170  1  0.059800  0.004400  0.652000  1.0
  C  C1171  1  0.754400  0.690200  0.402000  1.0
  C  C1172  1  0.745600  0.309800  0.902000  1.0
  C  C1173  1  0.940200  0.495600  0.652000  1.0
  C  C1174  1  0.559800  0.504400  0.152000  1.0
  C  C1175  1  0.254400  0.190200  0.902000  1.0
  C  C1176  1  0.245600  0.809800  0.402000  1.0
  C  C1177  1  0.559800  0.004400  0.848000  1.0
  C  C1178  1  0.940200  0.995600  0.348000  1.0
  C  C1179  1  0.245600  0.309800  0.598000  1.0
  C  C1180  1  0.254400  0.690200  0.098000  1.0
  C  C1181  1  0.059800  0.504400  0.348000  1.0
  C  C1182  1  0.440200  0.495600  0.848000  1.0
  C  C1183  1  0.745600  0.809800  0.098000  1.0
  C  C1184  1  0.754400  0.190200  0.598000  1.0
  C  C1185  1  0.436800  0.964400  0.187200  1.0
  C  C1186  1  0.063200  0.035600  0.687200  1.0
  C  C1187  1  0.785600  0.686800  0.437200  1.0
  C  C1188  1  0.714400  0.313200  0.937200  1.0
  C  C1189  1  0.936800  0.464400  0.687200  1.0
  C  C1190  1  0.563200  0.535600  0.187200  1.0
  C  C1191  1  0.285600  0.186800  0.937200  1.0
  C  C1192  1  0.214400  0.813200  0.437200  1.0
  C  C1193  1  0.563200  0.035600  0.812800  1.0
  C  C1194  1  0.936800  0.964400  0.312800  1.0
  C  C1195  1  0.214400  0.313200  0.562800  1.0
  C  C1196  1  0.285600  0.686800  0.062800  1.0
  C  C1197  1  0.063200  0.535600  0.312800  1.0
  C  C1198  1  0.436800  0.464400  0.812800  1.0
  C  C1199  1  0.714400  0.813200  0.062800  1.0
  C  C1200  1  0.785600  0.186800  0.562800  1.0
  C  C1201  1  0.388900  0.957400  0.205870  1.0
  C  C1202  1  0.111100  0.042600  0.705870  1.0
  C  C1203  1  0.792600  0.638900  0.455870  1.0
  C  C1204  1  0.707400  0.361100  0.955870  1.0
  C  C1205  1  0.888900  0.457400  0.705870  1.0
  C  C1206  1  0.611100  0.542600  0.205870  1.0
  C  C1207  1  0.292600  0.138900  0.955870  1.0
  C  C1208  1  0.207400  0.861100  0.455870  1.0
  C  C1209  1  0.611100  0.042600  0.794130  1.0
  C  C1210  1  0.888900  0.957400  0.294130  1.0
  C  C1211  1  0.207400  0.361100  0.544130  1.0
  C  C1212  1  0.292600  0.638900  0.044130  1.0
  C  C1213  1  0.111100  0.542600  0.294130  1.0
  C  C1214  1  0.388900  0.457400  0.794130  1.0
  C  C1215  1  0.707400  0.861100  0.044130  1.0
  C  C1216  1  0.792600  0.138900  0.544130  1.0
  C  C1217  1  0.346300  0.981100  0.188320  1.0
  C  C1218  1  0.153700  0.018900  0.688320  1.0
  C  C1219  1  0.768900  0.596300  0.438320  1.0
  C  C1220  1  0.731100  0.403700  0.938320  1.0
  C  C1221  1  0.846300  0.481100  0.688320  1.0
  C  C1222  1  0.653700  0.518900  0.188320  1.0
  C  C1223  1  0.268900  0.096300  0.938320  1.0
  C  C1224  1  0.231100  0.903700  0.438320  1.0
  C  C1225  1  0.653700  0.018900  0.811680  1.0
  C  C1226  1  0.846300  0.981100  0.311680  1.0
  C  C1227  1  0.231100  0.403700  0.561680  1.0
  C  C1228  1  0.268900  0.596300  0.061680  1.0
  C  C1229  1  0.153700  0.518900  0.311680  1.0
  C  C1230  1  0.346300  0.481100  0.811680  1.0
  C  C1231  1  0.731100  0.903700  0.061680  1.0
  C  C1232  1  0.768900  0.096300  0.561680  1.0
  C  C1233  1  0.465700  0.821300  0.348500  1.0
  C  C1234  1  0.034300  0.178700  0.848500  1.0
  C  C1235  1  0.928700  0.715700  0.598500  1.0
  C  C1236  1  0.571300  0.284300  0.098500  1.0
  C  C1237  1  0.965700  0.321300  0.848500  1.0
  C  C1238  1  0.534300  0.678700  0.348500  1.0
  C  C1239  1  0.428700  0.215700  0.098500  1.0
  C  C1240  1  0.071300  0.784300  0.598500  1.0
  C  C1241  1  0.534300  0.178700  0.651500  1.0
  C  C1242  1  0.965700  0.821300  0.151500  1.0
  C  C1243  1  0.071300  0.284300  0.401500  1.0
  C  C1244  1  0.428700  0.715700  0.901500  1.0
  C  C1245  1  0.034300  0.678700  0.151500  1.0
  C  C1246  1  0.465700  0.321300  0.651500  1.0
  C  C1247  1  0.571300  0.784300  0.901500  1.0
  C  C1248  1  0.928700  0.215700  0.401500  1.0
  C  C1249  1  0.468200  0.850200  0.312500  1.0
  C  C1250  1  0.031800  0.149800  0.812500  1.0
  C  C1251  1  0.899800  0.718200  0.562500  1.0
  C  C1252  1  0.600200  0.281800  0.062500  1.0
  C  C1253  1  0.968200  0.350200  0.812500  1.0
  C  C1254  1  0.531800  0.649800  0.312500  1.0
  C  C1255  1  0.399800  0.218200  0.062500  1.0
  C  C1256  1  0.100200  0.781800  0.562500  1.0
  C  C1257  1  0.531800  0.149800  0.687500  1.0
  C  C1258  1  0.968200  0.850200  0.187500  1.0
  C  C1259  1  0.100200  0.281800  0.437500  1.0
  C  C1260  1  0.399800  0.718200  0.937500  1.0
  C  C1261  1  0.031800  0.649800  0.187500  1.0
  C  C1262  1  0.468200  0.350200  0.687500  1.0
  C  C1263  1  0.600200  0.781800  0.937500  1.0
  C  C1264  1  0.899800  0.218200  0.437500  1.0
  C  C1265  1  0.516100  0.860300  0.294500  1.0
  C  C1266  1  0.983900  0.139700  0.794500  1.0
  C  C1267  1  0.889700  0.766100  0.544500  1.0
  C  C1268  1  0.610300  0.233900  0.044500  1.0
  C  C1269  1  0.016100  0.360300  0.794500  1.0
  C  C1270  1  0.483900  0.639700  0.294500  1.0
  C  C1271  1  0.389700  0.266100  0.044500  1.0
  C  C1272  1  0.110300  0.733900  0.544500  1.0
  C  C1273  1  0.483900  0.139700  0.705500  1.0
  C  C1274  1  0.016100  0.860300  0.205500  1.0
  C  C1275  1  0.110300  0.233900  0.455500  1.0
  C  C1276  1  0.389700  0.766100  0.955500  1.0
  C  C1277  1  0.983900  0.639700  0.205500  1.0
  C  C1278  1  0.516100  0.360300  0.705500  1.0
  C  C1279  1  0.610300  0.733900  0.955500  1.0
  C  C1280  1  0.889700  0.266100  0.455500  1.0
  C  C1281  1  0.559600  0.840300  0.313600  1.0
  C  C1282  1  0.940400  0.159700  0.813600  1.0
  C  C1283  1  0.909700  0.809600  0.563600  1.0
  C  C1284  1  0.590300  0.190400  0.063600  1.0
  C  C1285  1  0.059600  0.340300  0.813600  1.0
  C  C1286  1  0.440400  0.659700  0.313600  1.0
  C  C1287  1  0.409700  0.309600  0.063600  1.0
  C  C1288  1  0.090300  0.690400  0.563600  1.0
  C  C1289  1  0.440400  0.159700  0.686400  1.0
  C  C1290  1  0.059600  0.840300  0.186400  1.0
  C  C1291  1  0.090300  0.190400  0.436400  1.0
  C  C1292  1  0.409700  0.809600  0.936400  1.0
  C  C1293  1  0.940400  0.659700  0.186400  1.0
  C  C1294  1  0.559600  0.340300  0.686400  1.0
  C  C1295  1  0.590300  0.690400  0.936400  1.0
  C  C1296  1  0.909700  0.309600  0.436400  1.0
  C  C1297  1  0.553900  0.811100  0.349600  1.0
  C  C1298  1  0.946100  0.188900  0.849600  1.0
  C  C1299  1  0.938900  0.803900  0.599600  1.0
  C  C1300  1  0.561100  0.196100  0.099600  1.0
  C  C1301  1  0.053900  0.311100  0.849600  1.0
  C  C1302  1  0.446100  0.688900  0.349600  1.0
  C  C1303  1  0.438900  0.303900  0.099600  1.0
  C  C1304  1  0.061100  0.696100  0.599600  1.0
  C  C1305  1  0.446100  0.188900  0.650400  1.0
  C  C1306  1  0.053900  0.811100  0.150400  1.0
  C  C1307  1  0.061100  0.196100  0.400400  1.0
  C  C1308  1  0.438900  0.803900  0.900400  1.0
  C  C1309  1  0.946100  0.688900  0.150400  1.0
  C  C1310  1  0.553900  0.311100  0.650400  1.0
  C  C1311  1  0.561100  0.696100  0.900400  1.0
  C  C1312  1  0.938900  0.303900  0.400400  1.0
  C  C1313  1  0.711600  0.935300  0.191100  1.0
  C  C1314  1  0.788400  0.064700  0.691100  1.0
  C  C1315  1  0.814700  0.961600  0.441100  1.0
  C  C1316  1  0.685300  0.038400  0.941100  1.0
  C  C1317  1  0.211600  0.435300  0.691100  1.0
  C  C1318  1  0.288400  0.564700  0.191100  1.0
  C  C1319  1  0.314700  0.461600  0.941100  1.0
  C  C1320  1  0.185300  0.538400  0.441100  1.0
  C  C1321  1  0.288400  0.064700  0.808900  1.0
  C  C1322  1  0.211600  0.935300  0.308900  1.0
  C  C1323  1  0.185300  0.038400  0.558900  1.0
  C  C1324  1  0.314700  0.961600  0.058900  1.0
  C  C1325  1  0.788400  0.564700  0.308900  1.0
  C  C1326  1  0.711600  0.435300  0.808900  1.0
  C  C1327  1  0.685300  0.538400  0.058900  1.0
  C  C1328  1  0.814700  0.461600  0.558900  1.0
  C  C1329  1  0.663800  0.923600  0.208000  1.0
  C  C1330  1  0.836200  0.076400  0.708000  1.0
  C  C1331  1  0.826400  0.913800  0.458000  1.0
  C  C1332  1  0.673600  0.086200  0.958000  1.0
  C  C1333  1  0.163800  0.423600  0.708000  1.0
  C  C1334  1  0.336200  0.576400  0.208000  1.0
  C  C1335  1  0.326400  0.413800  0.958000  1.0
  C  C1336  1  0.173600  0.586200  0.458000  1.0
  C  C1337  1  0.336200  0.076400  0.792000  1.0
  C  C1338  1  0.163800  0.923600  0.292000  1.0
  C  C1339  1  0.173600  0.086200  0.542000  1.0
  C  C1340  1  0.326400  0.913800  0.042000  1.0
  C  C1341  1  0.836200  0.576400  0.292000  1.0
  C  C1342  1  0.663800  0.423600  0.792000  1.0
  C  C1343  1  0.673600  0.586200  0.042000  1.0
  C  C1344  1  0.826400  0.413800  0.542000  1.0
  C  C1345  1  0.620200  0.939500  0.187600  1.0
  C  C1346  1  0.879800  0.060500  0.687600  1.0
  C  C1347  1  0.810500  0.870200  0.437600  1.0
  C  C1348  1  0.689500  0.129800  0.937600  1.0
  C  C1349  1  0.120200  0.439500  0.687600  1.0
  C  C1350  1  0.379800  0.560500  0.187600  1.0
  C  C1351  1  0.310500  0.370200  0.937600  1.0
  C  C1352  1  0.189500  0.629800  0.437600  1.0
  C  C1353  1  0.379800  0.060500  0.812400  1.0
  C  C1354  1  0.120200  0.939500  0.312400  1.0
  C  C1355  1  0.189500  0.129800  0.562400  1.0
  C  C1356  1  0.310500  0.870200  0.062400  1.0
  C  C1357  1  0.879800  0.560500  0.312400  1.0
  C  C1358  1  0.620200  0.439500  0.812400  1.0
  C  C1359  1  0.689500  0.629800  0.062400  1.0
  C  C1360  1  0.810500  0.370200  0.562400  1.0
  C  C1361  1  0.625300  0.967600  0.151000  1.0
  C  C1362  1  0.874700  0.032400  0.651000  1.0
  C  C1363  1  0.782400  0.875300  0.401000  1.0
  C  C1364  1  0.717600  0.124700  0.901000  1.0
  C  C1365  1  0.125300  0.467600  0.651000  1.0
  C  C1366  1  0.374700  0.532400  0.151000  1.0
  C  C1367  1  0.282400  0.375300  0.901000  1.0
  C  C1368  1  0.217600  0.624700  0.401000  1.0
  C  C1369  1  0.374700  0.032400  0.849000  1.0
  C  C1370  1  0.125300  0.967600  0.349000  1.0
  C  C1371  1  0.217600  0.124700  0.599000  1.0
  C  C1372  1  0.282400  0.875300  0.099000  1.0
  C  C1373  1  0.874700  0.532400  0.349000  1.0
  C  C1374  1  0.625300  0.467600  0.849000  1.0
  C  C1375  1  0.717600  0.624700  0.099000  1.0
  C  C1376  1  0.782400  0.375300  0.599000  1.0
  C  C1377  1  0.674400  0.977300  0.135500  1.0
  C  C1378  1  0.825600  0.022700  0.635500  1.0
  C  C1379  1  0.772700  0.924400  0.385500  1.0
  C  C1380  1  0.727300  0.075600  0.885500  1.0
  C  C1381  1  0.174400  0.477300  0.635500  1.0
  C  C1382  1  0.325600  0.522700  0.135500  1.0
  C  C1383  1  0.272700  0.424400  0.885500  1.0
  C  C1384  1  0.227300  0.575600  0.385500  1.0
  C  C1385  1  0.325600  0.022700  0.864500  1.0
  C  C1386  1  0.174400  0.977300  0.364500  1.0
  C  C1387  1  0.227300  0.075600  0.614500  1.0
  C  C1388  1  0.272700  0.924400  0.114500  1.0
  C  C1389  1  0.825600  0.522700  0.364500  1.0
  C  C1390  1  0.674400  0.477300  0.864500  1.0
  C  C1391  1  0.727300  0.575600  0.114500  1.0
  C  C1392  1  0.772700  0.424400  0.614500  1.0
  C  C1393  1  0.483100  0.939900  0.205200  1.0
  C  C1394  1  0.016900  0.060100  0.705200  1.0
  C  C1395  1  0.810100  0.733100  0.455200  1.0
  C  C1396  1  0.689900  0.266900  0.955200  1.0
  C  C1397  1  0.983100  0.439900  0.705200  1.0
  C  C1398  1  0.516900  0.560100  0.205200  1.0
  C  C1399  1  0.310100  0.233100  0.955200  1.0
  C  C1400  1  0.189900  0.766900  0.455200  1.0
  C  C1401  1  0.516900  0.060100  0.794800  1.0
  C  C1402  1  0.983100  0.939900  0.294800  1.0
  C  C1403  1  0.189900  0.266900  0.544800  1.0
  C  C1404  1  0.310100  0.733100  0.044800  1.0
  C  C1405  1  0.016900  0.560100  0.294800  1.0
  C  C1406  1  0.483100  0.439900  0.794800  1.0
  C  C1407  1  0.689900  0.766900  0.044800  1.0
  C  C1408  1  0.810100  0.233100  0.544800  1.0
  C  C1409  1  0.520400  0.891800  0.255600  1.0
  C  C1410  1  0.979600  0.108200  0.755600  1.0
  C  C1411  1  0.858200  0.770400  0.505600  1.0
  C  C1412  1  0.641800  0.229600  0.005600  1.0
  C  C1413  1  0.020400  0.391800  0.755600  1.0
  C  C1414  1  0.479600  0.608200  0.255600  1.0
  C  C1415  1  0.358200  0.270400  0.005600  1.0
  C  C1416  1  0.141800  0.729600  0.505600  1.0
  C  C1417  1  0.479600  0.108200  0.744400  1.0
  C  C1418  1  0.020400  0.891800  0.244400  1.0
  C  C1419  1  0.141800  0.229600  0.494400  1.0
  C  C1420  1  0.358200  0.770400  0.994400  1.0
  C  C1421  1  0.979600  0.608200  0.244400  1.0
  C  C1422  1  0.520400  0.391800  0.744400  1.0
  C  C1423  1  0.641800  0.729600  0.994400  1.0
  C  C1424  1  0.858200  0.270400  0.494400  1.0
  C  C1425  1  0.568400  0.928600  0.205500  1.0
  C  C1426  1  0.931600  0.071400  0.705500  1.0
  C  C1427  1  0.821400  0.818400  0.455500  1.0
  C  C1428  1  0.678600  0.181600  0.955500  1.0
  C  C1429  1  0.068400  0.428600  0.705500  1.0
  C  C1430  1  0.431600  0.571400  0.205500  1.0
  C  C1431  1  0.321400  0.318400  0.955500  1.0
  C  C1432  1  0.178600  0.681600  0.455500  1.0
  C  C1433  1  0.431600  0.071400  0.794500  1.0
  C  C1434  1  0.068400  0.928600  0.294500  1.0
  C  C1435  1  0.178600  0.181600  0.544500  1.0
  C  C1436  1  0.321400  0.818400  0.044500  1.0
  C  C1437  1  0.931600  0.571400  0.294500  1.0
  C  C1438  1  0.568400  0.428600  0.794500  1.0
  C  C1439  1  0.678600  0.681600  0.044500  1.0
  C  C1440  1  0.821400  0.318400  0.544500  1.0
  C  C1441  1  0.330000  0.138100  0.137100  1.0
  C  C1442  1  0.170000  0.861900  0.637100  1.0
  C  C1443  1  0.611900  0.580000  0.387100  1.0
  C  C1444  1  0.888100  0.420000  0.887100  1.0
  C  C1445  1  0.830000  0.638100  0.637100  1.0
  C  C1446  1  0.670000  0.361900  0.137100  1.0
  C  C1447  1  0.111900  0.080000  0.887100  1.0
  C  C1448  1  0.388100  0.920000  0.387100  1.0
  C  C1449  1  0.670000  0.861900  0.862900  1.0
  C  C1450  1  0.830000  0.138100  0.362900  1.0
  C  C1451  1  0.388100  0.420000  0.612900  1.0
  C  C1452  1  0.111900  0.580000  0.112900  1.0
  C  C1453  1  0.170000  0.361900  0.362900  1.0
  C  C1454  1  0.330000  0.638100  0.862900  1.0
  C  C1455  1  0.888100  0.920000  0.112900  1.0
  C  C1456  1  0.611900  0.080000  0.612900  1.0
  C  C1457  1  0.237000  0.130700  0.142000  1.0
  C  C1458  1  0.263000  0.869300  0.642000  1.0
  C  C1459  1  0.619300  0.487000  0.392000  1.0
  C  C1460  1  0.880700  0.513000  0.892000  1.0
  C  C1461  1  0.737000  0.630700  0.642000  1.0
  C  C1462  1  0.763000  0.369300  0.142000  1.0
  C  C1463  1  0.119300  0.987000  0.892000  1.0
  C  C1464  1  0.380700  0.013000  0.392000  1.0
  C  C1465  1  0.763000  0.869300  0.858000  1.0
  C  C1466  1  0.737000  0.130700  0.358000  1.0
  C  C1467  1  0.380700  0.513000  0.608000  1.0
  C  C1468  1  0.119300  0.487000  0.108000  1.0
  C  C1469  1  0.263000  0.369300  0.358000  1.0
  C  C1470  1  0.237000  0.630700  0.858000  1.0
  C  C1471  1  0.880700  0.013000  0.108000  1.0
  C  C1472  1  0.619300  0.987000  0.608000  1.0
  C  C1473  1  0.228400  0.060100  0.046100  1.0
  C  C1474  1  0.271600  0.939900  0.546100  1.0
  C  C1475  1  0.689900  0.478400  0.296100  1.0
  C  C1476  1  0.810100  0.521600  0.796100  1.0
  C  C1477  1  0.728400  0.560100  0.546100  1.0
  C  C1478  1  0.771600  0.439900  0.046100  1.0
  C  C1479  1  0.189900  0.978400  0.796100  1.0
  C  C1480  1  0.310100  0.021600  0.296100  1.0
  C  C1481  1  0.771600  0.939900  0.953900  1.0
  C  C1482  1  0.728400  0.060100  0.453900  1.0
  C  C1483  1  0.310100  0.521600  0.703900  1.0
  C  C1484  1  0.189900  0.478400  0.203900  1.0
  C  C1485  1  0.271600  0.439900  0.453900  1.0
  C  C1486  1  0.228400  0.560100  0.953900  1.0
  C  C1487  1  0.810100  0.021600  0.203900  1.0
  C  C1488  1  0.689900  0.978400  0.703900  1.0
  C  C1489  1  0.176900  0.032700  0.106100  1.0
  C  C1490  1  0.323100  0.967300  0.606100  1.0
  C  C1491  1  0.717300  0.426900  0.356100  1.0
  C  C1492  1  0.782700  0.573100  0.856100  1.0
  C  C1493  1  0.676900  0.532700  0.606100  1.0
  C  C1494  1  0.823100  0.467300  0.106100  1.0
  C  C1495  1  0.217300  0.926900  0.856100  1.0
  C  C1496  1  0.282700  0.073100  0.356100  1.0
  C  C1497  1  0.823100  0.967300  0.893900  1.0
  C  C1498  1  0.676900  0.032700  0.393900  1.0
  C  C1499  1  0.282700  0.573100  0.643900  1.0
  C  C1500  1  0.217300  0.426900  0.143900  1.0
  C  C1501  1  0.323100  0.467300  0.393900  1.0
  C  C1502  1  0.176900  0.532700  0.893900  1.0
  C  C1503  1  0.782700  0.073100  0.143900  1.0
  C  C1504  1  0.717300  0.926900  0.643900  1.0
  C  C1505  1  0.291900  0.103600  0.199100  1.0
  C  C1506  1  0.208100  0.896400  0.699100  1.0
  C  C1507  1  0.646400  0.541900  0.449100  1.0
  C  C1508  1  0.853600  0.458100  0.949100  1.0
  C  C1509  1  0.791900  0.603600  0.699100  1.0
  C  C1510  1  0.708100  0.396400  0.199100  1.0
  C  C1511  1  0.146400  0.041900  0.949100  1.0
  C  C1512  1  0.353600  0.958100  0.449100  1.0
  C  C1513  1  0.708100  0.896400  0.800900  1.0
  C  C1514  1  0.791900  0.103600  0.300900  1.0
  C  C1515  1  0.353600  0.458100  0.550900  1.0
  C  C1516  1  0.146400  0.541900  0.050900  1.0
  C  C1517  1  0.208100  0.396400  0.300900  1.0
  C  C1518  1  0.291900  0.603600  0.800900  1.0
  C  C1519  1  0.853600  0.958100  0.050900  1.0
  C  C1520  1  0.646400  0.041900  0.550900  1.0
  C  C1521  1  0.217600  0.117500  0.103200  1.0
  C  C1522  1  0.282400  0.882500  0.603200  1.0
  C  C1523  1  0.632500  0.467600  0.353200  1.0
  C  C1524  1  0.867500  0.532400  0.853200  1.0
  C  C1525  1  0.717600  0.617500  0.603200  1.0
  C  C1526  1  0.782400  0.382500  0.103200  1.0
  C  C1527  1  0.132500  0.967600  0.853200  1.0
  C  C1528  1  0.367500  0.032400  0.353200  1.0
  C  C1529  1  0.782400  0.882500  0.896800  1.0
  C  C1530  1  0.717600  0.117500  0.396800  1.0
  C  C1531  1  0.367500  0.532400  0.646800  1.0
  C  C1532  1  0.132500  0.467600  0.146800  1.0
  C  C1533  1  0.282400  0.382500  0.396800  1.0
  C  C1534  1  0.217600  0.617500  0.896800  1.0
  C  C1535  1  0.867500  0.032400  0.146800  1.0
  C  C1536  1  0.632500  0.967600  0.646800  1.0
  C  C1537  1  0.490700  0.777400  0.502900  1.0
  C  C1538  1  0.009300  0.222600  0.002900  1.0
  C  C1539  1  0.972600  0.740700  0.752900  1.0
  C  C1540  1  0.527400  0.259300  0.252900  1.0
  C  C1541  1  0.990700  0.277400  0.002900  1.0
  C  C1542  1  0.509300  0.722600  0.502900  1.0
  C  C1543  1  0.472600  0.240700  0.252900  1.0
  C  C1544  1  0.027400  0.759300  0.752900  1.0
  C  C1545  1  0.509300  0.222600  0.497100  1.0
  C  C1546  1  0.990700  0.777400  0.997100  1.0
  C  C1547  1  0.027400  0.259300  0.247100  1.0
  C  C1548  1  0.472600  0.740700  0.747100  1.0
  C  C1549  1  0.009300  0.722600  0.997100  1.0
  C  C1550  1  0.490700  0.277400  0.497100  1.0
  C  C1551  1  0.527400  0.759300  0.747100  1.0
  C  C1552  1  0.972600  0.240700  0.247100  1.0
  C  C1553  1  0.564500  0.817500  0.465500  1.0
  C  C1554  1  0.935500  0.182500  0.965500  1.0
  C  C1555  1  0.932500  0.814500  0.715500  1.0
  C  C1556  1  0.567500  0.185500  0.215500  1.0
  C  C1557  1  0.064500  0.317500  0.965500  1.0
  C  C1558  1  0.435500  0.682500  0.465500  1.0
  C  C1559  1  0.432500  0.314500  0.215500  1.0
  C  C1560  1  0.067500  0.685500  0.715500  1.0
  C  C1561  1  0.435500  0.182500  0.534500  1.0
  C  C1562  1  0.064500  0.817500  0.034500  1.0
  C  C1563  1  0.067500  0.185500  0.284500  1.0
  C  C1564  1  0.432500  0.814500  0.784500  1.0
  C  C1565  1  0.935500  0.682500  0.034500  1.0
  C  C1566  1  0.564500  0.317500  0.534500  1.0
  C  C1567  1  0.567500  0.685500  0.784500  1.0
  C  C1568  1  0.932500  0.314500  0.284500  1.0
  C  C1569  1  0.478600  0.850000  0.456100  1.0
  C  C1570  1  0.021400  0.150000  0.956100  1.0
  C  C1571  1  0.900000  0.728600  0.706100  1.0
  C  C1572  1  0.600000  0.271400  0.206100  1.0
  C  C1573  1  0.978600  0.350000  0.956100  1.0
  C  C1574  1  0.521400  0.650000  0.456100  1.0
  C  C1575  1  0.400000  0.228600  0.206100  1.0
  C  C1576  1  0.100000  0.771400  0.706100  1.0
  C  C1577  1  0.521400  0.150000  0.543900  1.0
  C  C1578  1  0.978600  0.850000  0.043900  1.0
  C  C1579  1  0.100000  0.271400  0.293900  1.0
  C  C1580  1  0.400000  0.728600  0.793900  1.0
  C  C1581  1  0.021400  0.650000  0.043900  1.0
  C  C1582  1  0.478600  0.350000  0.543900  1.0
  C  C1583  1  0.600000  0.771400  0.793900  1.0
  C  C1584  1  0.900000  0.228600  0.293900  1.0
  N  N1585  1  0.194600  0.134100  0.767400  1
  N  N1586  1  0.305400  0.865900  0.267400  1
  N  N1587  1  0.615900  0.444600  0.017400  1
  N  N1588  1  0.884100  0.555400  0.517400  1
  N  N1589  1  0.694600  0.634100  0.267400  1
  N  N1590  1  0.805400  0.365900  0.767400  1
  N  N1591  1  0.115900  0.944600  0.517400  1
  N  N1592  1  0.384100  0.055400  0.017400  1
  N  N1593  1  0.805400  0.865900  0.232600  1
  N  N1594  1  0.694600  0.134100  0.732600  1
  N  N1595  1  0.384100  0.555400  0.982600  1
  N  N1596  1  0.115900  0.444600  0.482600  1
  N  N1597  1  0.305400  0.365900  0.732600  1
  N  N1598  1  0.194600  0.634100  0.232600  1
  N  N1599  1  0.884100  0.055400  0.482600  1
  N  N1600  1  0.615900  0.944600  0.982600  1
  N  N1601  1  0.174900  0.157400  0.794400  1
  N  N1602  1  0.325100  0.842600  0.294400  1
  N  N1603  1  0.592600  0.424900  0.044400  1
  N  N1604  1  0.907400  0.575100  0.544400  1
  N  N1605  1  0.674900  0.657400  0.294400  1
  N  N1606  1  0.825100  0.342600  0.794400  1
  N  N1607  1  0.092600  0.924900  0.544400  1
  N  N1608  1  0.407400  0.075100  0.044400  1
  N  N1609  1  0.825100  0.842600  0.205600  1
  N  N1610  1  0.674900  0.157400  0.705600  1
  N  N1611  1  0.407400  0.575100  0.955600  1
  N  N1612  1  0.092600  0.424900  0.455600  1
  N  N1613  1  0.325100  0.342600  0.705600  1
  N  N1614  1  0.174900  0.657400  0.205600  1
  N  N1615  1  0.907400  0.075100  0.455600  1
  N  N1616  1  0.592600  0.924900  0.955600  1
  N  N1617  1  0.827100  0.596000  0.994900  1
  N  N1618  1  0.672900  0.404000  0.494900  1
  N  N1619  1  0.154000  0.077100  0.244900  1
  N  N1620  1  0.346000  0.922900  0.744900  1
  N  N1621  1  0.327100  0.096000  0.494900  1
  N  N1622  1  0.172900  0.904000  0.994900  1
  N  N1623  1  0.654000  0.577100  0.744900  1
  N  N1624  1  0.846000  0.422900  0.244900  1
  N  N1625  1  0.172900  0.404000  0.005100  1
  N  N1626  1  0.327100  0.596000  0.505100  1
  N  N1627  1  0.846000  0.922900  0.755100  1
  N  N1628  1  0.654000  0.077100  0.255100  1
  N  N1629  1  0.672900  0.904000  0.505100  1
  N  N1630  1  0.827100  0.096000  0.005100  1
  N  N1631  1  0.346000  0.422900  0.255100  1
  N  N1632  1  0.154000  0.577100  0.755100  1
  N  N1633  1  0.943200  0.929900  0.944500  1
  N  N1634  1  0.556800  0.070100  0.444500  1
  N  N1635  1  0.820100  0.193200  0.194500  1
  N  N1636  1  0.679900  0.806800  0.694500  1
  N  N1637  1  0.443200  0.429900  0.444500  1
  N  N1638  1  0.056800  0.570100  0.944500  1
  N  N1639  1  0.320100  0.693200  0.694500  1
  N  N1640  1  0.179900  0.306800  0.194500  1
  N  N1641  1  0.056800  0.070100  0.055500  1
  N  N1642  1  0.443200  0.929900  0.555500  1
  N  N1643  1  0.179900  0.806800  0.805500  1
  N  N1644  1  0.320100  0.193200  0.305500  1
  N  N1645  1  0.556800  0.570100  0.555500  1
  N  N1646  1  0.943200  0.429900  0.055500  1
  N  N1647  1  0.679900  0.306800  0.305500  1
  N  N1648  1  0.820100  0.693200  0.805500  1
  N  N1649  1  0.186000  0.709500  0.001700  1
  N  N1650  1  0.314000  0.290500  0.501700  1
  N  N1651  1  0.040500  0.436000  0.251700  1
  N  N1652  1  0.459500  0.564000  0.751700  1
  N  N1653  1  0.686000  0.209500  0.501700  1
  N  N1654  1  0.814000  0.790500  0.001700  1
  N  N1655  1  0.540500  0.936000  0.751700  1
  N  N1656  1  0.959500  0.064000  0.251700  1
  N  N1657  1  0.814000  0.290500  0.998300  1
  N  N1658  1  0.686000  0.709500  0.498300  1
  N  N1659  1  0.959500  0.564000  0.748300  1
  N  N1660  1  0.540500  0.436000  0.248300  1
  N  N1661  1  0.314000  0.790500  0.498300  1
  N  N1662  1  0.186000  0.209500  0.998300  1
  N  N1663  1  0.459500  0.064000  0.248300  1
  N  N1664  1  0.040500  0.936000  0.748300  1
  N  N1665  1  0.271600  0.925000  0.952000  1
  N  N1666  1  0.228400  0.075000  0.452000  1
  N  N1667  1  0.825000  0.521600  0.202000  1
  N  N1668  1  0.675000  0.478400  0.702000  1
  N  N1669  1  0.771600  0.425000  0.452000  1
  N  N1670  1  0.728400  0.575000  0.952000  1
  N  N1671  1  0.325000  0.021600  0.702000  1
  N  N1672  1  0.175000  0.978400  0.202000  1
  N  N1673  1  0.728400  0.075000  0.048000  1
  N  N1674  1  0.771600  0.925000  0.548000  1
  N  N1675  1  0.175000  0.478400  0.798000  1
  N  N1676  1  0.325000  0.521600  0.298000  1
  N  N1677  1  0.228400  0.575000  0.548000  1
  N  N1678  1  0.271600  0.425000  0.048000  1
  N  N1679  1  0.675000  0.978400  0.298000  1
  N  N1680  1  0.825000  0.021600  0.798000  1
  N  N1681  1  0.285700  0.778300  0.891000  1
  N  N1682  1  0.214300  0.221700  0.391000  1
  N  N1683  1  0.971700  0.535700  0.141000  1
  N  N1684  1  0.528300  0.464300  0.641000  1
  N  N1685  1  0.785700  0.278300  0.391000  1
  N  N1686  1  0.714300  0.721700  0.891000  1
  N  N1687  1  0.471700  0.035700  0.641000  1
  N  N1688  1  0.028300  0.964300  0.141000  1
  N  N1689  1  0.714300  0.221700  0.109000  1
  N  N1690  1  0.785700  0.778300  0.609000  1
  N  N1691  1  0.028300  0.464300  0.859000  1
  N  N1692  1  0.471700  0.535700  0.359000  1
  N  N1693  1  0.214300  0.721700  0.609000  1
  N  N1694  1  0.285700  0.278300  0.109000  1
  N  N1695  1  0.528300  0.964300  0.359000  1
  N  N1696  1  0.971700  0.035700  0.859000  1
  N  N1697  1  0.147300  0.672600  0.995500  1
  N  N1698  1  0.352700  0.327400  0.495500  1
  N  N1699  1  0.077400  0.397300  0.245500  1
  N  N1700  1  0.422600  0.602700  0.745500  1
  N  N1701  1  0.647300  0.172600  0.495500  1
  N  N1702  1  0.852700  0.827400  0.995500  1
  N  N1703  1  0.577400  0.897300  0.745500  1
  N  N1704  1  0.922600  0.102700  0.245500  1
  N  N1705  1  0.852700  0.327400  0.004500  1
  N  N1706  1  0.647300  0.672600  0.504500  1
  N  N1707  1  0.922600  0.602700  0.754500  1
  N  N1708  1  0.577400  0.397300  0.254500  1
  N  N1709  1  0.352700  0.827400  0.504500  1
  N  N1710  1  0.147300  0.172600  0.004500  1
  N  N1711  1  0.422600  0.102700  0.254500  1
  N  N1712  1  0.077400  0.897300  0.754500  1
  N  N1713  1  0.286200  0.107500  0.152040  1.0
  N  N1714  1  0.213800  0.892500  0.652040  1.0
  N  N1715  1  0.642500  0.536200  0.402040  1.0
  N  N1716  1  0.857500  0.463800  0.902040  1.0
  N  N1717  1  0.786200  0.607500  0.652040  1.0
  N  N1718  1  0.713800  0.392500  0.152040  1.0
  N  N1719  1  0.142500  0.036200  0.902040  1.0
  N  N1720  1  0.357500  0.963800  0.402040  1.0
  N  N1721  1  0.713800  0.892500  0.847960  1.0
  N  N1722  1  0.786200  0.107500  0.347960  1.0
  N  N1723  1  0.357500  0.463800  0.597960  1.0
  N  N1724  1  0.142500  0.536200  0.097960  1.0
  N  N1725  1  0.213800  0.392500  0.347960  1.0
  N  N1726  1  0.286200  0.607500  0.847960  1.0
  N  N1727  1  0.857500  0.963800  0.097960  1.0
  N  N1728  1  0.642500  0.036200  0.597960  1.0
  N  N1729  1  0.222400  0.061800  0.092090  1.0
  N  N1730  1  0.277600  0.938200  0.592090  1.0
  N  N1731  1  0.688200  0.472400  0.342090  1.0
  N  N1732  1  0.811800  0.527600  0.842090  1.0
  N  N1733  1  0.722400  0.561800  0.592090  1.0
  N  N1734  1  0.777600  0.438200  0.092090  1.0
  N  N1735  1  0.188200  0.972400  0.842090  1.0
  N  N1736  1  0.311800  0.027600  0.342090  1.0
  N  N1737  1  0.777600  0.938200  0.907910  1.0
  N  N1738  1  0.722400  0.061800  0.407910  1.0
  N  N1739  1  0.311800  0.527600  0.657910  1.0
  N  N1740  1  0.188200  0.472400  0.157910  1.0
  N  N1741  1  0.277600  0.438200  0.407910  1.0
  N  N1742  1  0.222400  0.561800  0.907910  1.0
  N  N1743  1  0.811800  0.027600  0.157910  1.0
  N  N1744  1  0.688200  0.972400  0.657910  1.0
  N  N1745  1  0.509700  0.803100  0.462700  1.0
  N  N1746  1  0.990300  0.196900  0.962700  1.0
  N  N1747  1  0.946900  0.759700  0.712700  1.0
  N  N1748  1  0.553100  0.240300  0.212700  1.0
  N  N1749  1  0.009700  0.303100  0.962700  1.0
  N  N1750  1  0.490300  0.696900  0.462700  1.0
  N  N1751  1  0.446900  0.259700  0.212700  1.0
  N  N1752  1  0.053100  0.740300  0.712700  1.0
  N  N1753  1  0.490300  0.196900  0.537300  1.0
  N  N1754  1  0.009700  0.803100  0.037300  1.0
  N  N1755  1  0.053100  0.240300  0.287300  1.0
  N  N1756  1  0.446900  0.759700  0.787300  1.0
  N  N1757  1  0.990300  0.696900  0.037300  1.0
  N  N1758  1  0.509700  0.303100  0.537300  1.0
  N  N1759  1  0.553100  0.740300  0.787300  1.0
  N  N1760  1  0.946900  0.259700  0.287300  1.0
  N  N1761  1  0.350170  0.011190  0.154070  1.0
  N  N1762  1  0.149830  0.988810  0.654070  1.0
  N  N1763  1  0.738810  0.600170  0.404070  1.0
  N  N1764  1  0.761190  0.399830  0.904070  1.0
  N  N1765  1  0.850170  0.511190  0.654070  1.0
  N  N1766  1  0.649830  0.488810  0.154070  1.0
  N  N1767  1  0.238810  0.100170  0.904070  1.0
  N  N1768  1  0.261190  0.899830  0.404070  1.0
  N  N1769  1  0.649830  0.988810  0.845930  1.0
  N  N1770  1  0.850170  0.011190  0.345930  1.0
  N  N1771  1  0.261190  0.399830  0.595930  1.0
  N  N1772  1  0.238810  0.600170  0.095930  1.0
  N  N1773  1  0.149830  0.488810  0.345930  1.0
  N  N1774  1  0.350170  0.511190  0.845930  1.0
  N  N1775  1  0.761190  0.899830  0.095930  1.0
  N  N1776  1  0.738810  0.100170  0.595930  1.0
  N  N1777  1  0.507960  0.801760  0.367250  1.0
  N  N1778  1  0.992040  0.198240  0.867250  1.0
  N  N1779  1  0.948240  0.757960  0.617250  1.0
  N  N1780  1  0.551760  0.242040  0.117250  1.0
  N  N1781  1  0.007960  0.301760  0.867250  1.0
  N  N1782  1  0.492040  0.698240  0.367250  1.0
  N  N1783  1  0.448240  0.257960  0.117250  1.0
  N  N1784  1  0.051760  0.742040  0.617250  1.0
  N  N1785  1  0.492040  0.198240  0.632750  1.0
  N  N1786  1  0.007960  0.801760  0.132750  1.0
  N  N1787  1  0.051760  0.242040  0.382750  1.0
  N  N1788  1  0.448240  0.757960  0.882750  1.0
  N  N1789  1  0.992040  0.698240  0.132750  1.0
  N  N1790  1  0.507960  0.301760  0.632750  1.0
  N  N1791  1  0.551760  0.742040  0.882750  1.0
  N  N1792  1  0.948240  0.257960  0.382750  1.0
  N  N1793  1  0.716700  0.961400  0.154920  1.0
  N  N1794  1  0.783300  0.038600  0.654920  1.0
  N  N1795  1  0.788600  0.966700  0.404920  1.0
  N  N1796  1  0.711400  0.033300  0.904920  1.0
  N  N1797  1  0.216700  0.461400  0.654920  1.0
  N  N1798  1  0.283300  0.538600  0.154920  1.0
  N  N1799  1  0.288600  0.466700  0.904920  1.0
  N  N1800  1  0.211400  0.533300  0.404920  1.0
  N  N1801  1  0.283300  0.038600  0.845080  1.0
  N  N1802  1  0.216700  0.961400  0.345080  1.0
  N  N1803  1  0.211400  0.033300  0.595080  1.0
  N  N1804  1  0.288600  0.966700  0.095080  1.0
  N  N1805  1  0.783300  0.538600  0.345080  1.0
  N  N1806  1  0.716700  0.461400  0.845080  1.0
  N  N1807  1  0.711400  0.533300  0.095080  1.0
  N  N1808  1  0.788600  0.466700  0.595080  1.0
  N  N1809  1  0.528000  0.949200  0.186410  1.0
  N  N1810  1  0.972000  0.050800  0.686410  1.0
  N  N1811  1  0.800800  0.778000  0.436410  1.0
  N  N1812  1  0.699200  0.222000  0.936410  1.0
  N  N1813  1  0.028000  0.449200  0.686410  1.0
  N  N1814  1  0.472000  0.550800  0.186410  1.0
  N  N1815  1  0.300800  0.278000  0.936410  1.0
  N  N1816  1  0.199200  0.722000  0.436410  1.0
  N  N1817  1  0.472000  0.050800  0.813590  1.0
  N  N1818  1  0.028000  0.949200  0.313590  1.0
  N  N1819  1  0.199200  0.222000  0.563590  1.0
  N  N1820  1  0.300800  0.778000  0.063590  1.0
  N  N1821  1  0.972000  0.550800  0.313590  1.0
  N  N1822  1  0.528000  0.449200  0.813590  1.0
  N  N1823  1  0.699200  0.722000  0.063590  1.0
  N  N1824  1  0.800800  0.278000  0.563590  1.0
  N  N1825  1  0.567400  0.899400  0.240260  1.0
  N  N1826  1  0.932600  0.100600  0.740260  1.0
  N  N1827  1  0.850600  0.817400  0.490260  1.0
  N  N1828  1  0.649400  0.182600  0.990260  1.0
  N  N1829  1  0.067400  0.399400  0.740260  1.0
  N  N1830  1  0.432600  0.600600  0.240260  1.0
  N  N1831  1  0.350600  0.317400  0.990260  1.0
  N  N1832  1  0.149400  0.682600  0.490260  1.0
  N  N1833  1  0.432600  0.100600  0.759740  1.0
  N  N1834  1  0.067400  0.899400  0.259740  1.0
  N  N1835  1  0.149400  0.182600  0.509740  1.0
  N  N1836  1  0.350600  0.817400  0.009740  1.0
  N  N1837  1  0.932600  0.600600  0.259740  1.0
  N  N1838  1  0.567400  0.399400  0.759740  1.0
  N  N1839  1  0.649400  0.682600  0.009740  1.0
  N  N1840  1  0.850600  0.317400  0.509740  1.0
  N  N1841  1  0.476810  0.911100  0.239800  1.0
  N  N1842  1  0.023190  0.088900  0.739800  1.0
  N  N1843  1  0.838900  0.726810  0.489800  1.0
  N  N1844  1  0.661100  0.273190  0.989800  1.0
  N  N1845  1  0.976810  0.411100  0.739800  1.0
  N  N1846  1  0.523190  0.588900  0.239800  1.0
  N  N1847  1  0.338900  0.226810  0.989800  1.0
  N  N1848  1  0.161100  0.773190  0.489800  1.0
  N  N1849  1  0.523190  0.088900  0.760200  1.0
  N  N1850  1  0.976810  0.911100  0.260200  1.0
  N  N1851  1  0.161100  0.273190  0.510200  1.0
  N  N1852  1  0.338900  0.726810  0.010200  1.0
  N  N1853  1  0.023190  0.588900  0.260200  1.0
  N  N1854  1  0.476810  0.411100  0.760200  1.0
  N  N1855  1  0.661100  0.773190  0.010200  1.0
  N  N1856  1  0.838900  0.226810  0.510200  1.0
  O  O1857  1  0.207400  0.108200  0.737300  1
  O  O1858  1  0.292600  0.891800  0.237300  1
  O  O1859  1  0.641800  0.457400  0.987300  1
  O  O1860  1  0.858200  0.542600  0.487300  1
  O  O1861  1  0.707400  0.608200  0.237300  1
  O  O1862  1  0.792600  0.391800  0.737300  1
  O  O1863  1  0.141800  0.957400  0.487300  1
  O  O1864  1  0.358200  0.042600  0.987300  1
  O  O1865  1  0.792600  0.891800  0.262700  1
  O  O1866  1  0.707400  0.108200  0.762700  1
  O  O1867  1  0.358200  0.542600  0.012700  1
  O  O1868  1  0.141800  0.457400  0.512700  1
  O  O1869  1  0.292600  0.391800  0.762700  1
  O  O1870  1  0.207400  0.608200  0.262700  1
  O  O1871  1  0.858200  0.042600  0.512700  1
  O  O1872  1  0.641800  0.957400  0.012700  1
  O  O1873  1  0.160500  0.122200  0.795400  1
  O  O1874  1  0.339500  0.877800  0.295400  1
  O  O1875  1  0.627800  0.410500  0.045400  1
  O  O1876  1  0.872200  0.589500  0.545400  1
  O  O1877  1  0.660500  0.622200  0.295400  1
  O  O1878  1  0.839500  0.377800  0.795400  1
  O  O1879  1  0.127800  0.910500  0.545400  1
  O  O1880  1  0.372200  0.089500  0.045400  1
  O  O1881  1  0.839500  0.877800  0.204600  1
  O  O1882  1  0.660500  0.122200  0.704600  1
  O  O1883  1  0.372200  0.589500  0.954600  1
  O  O1884  1  0.127800  0.410500  0.454600  1
  O  O1885  1  0.339500  0.377800  0.704600  1
  O  O1886  1  0.160500  0.622200  0.204600  1
  O  O1887  1  0.872200  0.089500  0.454600  1
  O  O1888  1  0.627800  0.910500  0.954600  1
  O  O1889  1  0.219700  0.175500  0.773500  1
  O  O1890  1  0.280300  0.824500  0.273500  1
  O  O1891  1  0.574500  0.469700  0.023500  1
  O  O1892  1  0.925500  0.530300  0.523500  1
  O  O1893  1  0.719700  0.675500  0.273500  1
  O  O1894  1  0.780300  0.324500  0.773500  1
  O  O1895  1  0.074500  0.969700  0.523500  1
  O  O1896  1  0.425500  0.030300  0.023500  1
  O  O1897  1  0.780300  0.824500  0.226500  1
  O  O1898  1  0.719700  0.175500  0.726500  1
  O  O1899  1  0.425500  0.530300  0.976500  1
  O  O1900  1  0.074500  0.469700  0.476500  1
  O  O1901  1  0.280300  0.324500  0.726500  1
  O  O1902  1  0.219700  0.675500  0.226500  1
  O  O1903  1  0.925500  0.030300  0.476500  1
  O  O1904  1  0.574500  0.969700  0.976500  1
  O  O1905  1  0.092200  0.218800  0.099100  1
  O  O1906  1  0.407800  0.781200  0.599100  1
  O  O1907  1  0.531200  0.342200  0.349100  1
  O  O1908  1  0.968800  0.657800  0.849100  1
  O  O1909  1  0.592200  0.718800  0.599100  1
  O  O1910  1  0.907800  0.281200  0.099100  1
  O  O1911  1  0.031200  0.842200  0.849100  1
  O  O1912  1  0.468800  0.157800  0.349100  1
  O  O1913  1  0.907800  0.781200  0.900900  1
  O  O1914  1  0.592200  0.218800  0.400900  1
  O  O1915  1  0.468800  0.657800  0.650900  1
  O  O1916  1  0.031200  0.342200  0.150900  1
  O  O1917  1  0.407800  0.281200  0.400900  1
  O  O1918  1  0.092200  0.718800  0.900900  1
  O  O1919  1  0.968800  0.157800  0.150900  1
  O  O1920  1  0.531200  0.842200  0.650900  1
  O  O1921  1  0.075800  0.869200  0.925400  1
  O  O1922  1  0.424200  0.130800  0.425400  1
  O  O1923  1  0.880800  0.325800  0.175400  1
  O  O1924  1  0.619200  0.674200  0.675400  1
  O  O1925  1  0.575800  0.369200  0.425400  1
  O  O1926  1  0.924200  0.630800  0.925400  1
  O  O1927  1  0.380800  0.825800  0.675400  1
  O  O1928  1  0.119200  0.174200  0.175400  1
  O  O1929  1  0.924200  0.130800  0.074600  1
  O  O1930  1  0.575800  0.869200  0.574600  1
  O  O1931  1  0.119200  0.674200  0.824600  1
  O  O1932  1  0.380800  0.325800  0.324600  1
  O  O1933  1  0.424200  0.630800  0.574600  1
  O  O1934  1  0.075800  0.369200  0.074600  1
  O  O1935  1  0.619200  0.174200  0.324600  1
  O  O1936  1  0.880800  0.825800  0.824600  1
  O  O1937  1  0.171700  0.827800  0.090400  1
  O  O1938  1  0.328300  0.172200  0.590400  1
  O  O1939  1  0.922200  0.421700  0.340400  1
  O  O1940  1  0.577800  0.578300  0.840400  1
  O  O1941  1  0.671700  0.327800  0.590400  1
  O  O1942  1  0.828300  0.672200  0.090400  1
  O  O1943  1  0.422200  0.921700  0.840400  1
  O  O1944  1  0.077800  0.078300  0.340400  1
  O  O1945  1  0.828300  0.172200  0.909600  1
  O  O1946  1  0.671700  0.827800  0.409600  1
  O  O1947  1  0.077800  0.578300  0.659600  1
  O  O1948  1  0.422200  0.421700  0.159600  1
  O  O1949  1  0.328300  0.672200  0.409600  1
  O  O1950  1  0.171700  0.327800  0.909600  1
  O  O1951  1  0.577800  0.078300  0.159600  1
  O  O1952  1  0.922200  0.921700  0.659600  1
  O  O1953  1  0.170900  0.924700  0.039400  1
  O  O1954  1  0.329100  0.075300  0.539400  1
  O  O1955  1  0.825300  0.420900  0.289400  1
  O  O1956  1  0.674700  0.579100  0.789400  1
  O  O1957  1  0.670900  0.424700  0.539400  1
  O  O1958  1  0.829100  0.575300  0.039400  1
  O  O1959  1  0.325300  0.920900  0.789400  1
  O  O1960  1  0.174700  0.079100  0.289400  1
  O  O1961  1  0.829100  0.075300  0.960600  1
  O  O1962  1  0.670900  0.924700  0.460600  1
  O  O1963  1  0.174700  0.579100  0.710600  1
  O  O1964  1  0.325300  0.420900  0.210600  1
  O  O1965  1  0.329100  0.575300  0.460600  1
  O  O1966  1  0.170900  0.424700  0.960600  1
  O  O1967  1  0.674700  0.079100  0.210600  1
  O  O1968  1  0.825300  0.920900  0.710600  1
  O  O1969  1  0.500000  0.750000  0.625000  1
  O  O1970  1  0.000000  0.250000  0.125000  1
  O  O1971  1  0.000000  0.750000  0.875000  1
  O  O1972  1  0.500000  0.250000  0.375000  1
  O  O1973  1  0.166300  0.112400  0.787300  1
  O  O1974  1  0.333700  0.887600  0.287300  1
  O  O1975  1  0.637600  0.416300  0.037300  1
  O  O1976  1  0.862400  0.583700  0.537300  1
  O  O1977  1  0.666300  0.612400  0.287300  1
  O  O1978  1  0.833700  0.387600  0.787300  1
  O  O1979  1  0.137600  0.916300  0.537300  1
  O  O1980  1  0.362400  0.083700  0.037300  1
  O  O1981  1  0.833700  0.887600  0.212700  1
  O  O1982  1  0.666300  0.112400  0.712700  1
  O  O1983  1  0.362400  0.583700  0.962700  1
  O  O1984  1  0.137600  0.416300  0.462700  1
  O  O1985  1  0.333700  0.387600  0.712700  1
  O  O1986  1  0.166300  0.612400  0.212700  1
  O  O1987  1  0.862400  0.083700  0.462700  1
  O  O1988  1  0.637600  0.916300  0.962700  1
  O  O1989  1  0.217300  0.176400  0.777600  1
  O  O1990  1  0.282700  0.823600  0.277600  1
  O  O1991  1  0.573600  0.467300  0.027600  1
  O  O1992  1  0.926400  0.532700  0.527600  1
  O  O1993  1  0.717300  0.676400  0.277600  1
  O  O1994  1  0.782700  0.323600  0.777600  1
  O  O1995  1  0.073600  0.967300  0.527600  1
  O  O1996  1  0.426400  0.032700  0.027600  1
  O  O1997  1  0.782700  0.823600  0.222400  1
  O  O1998  1  0.717300  0.176400  0.722400  1
  O  O1999  1  0.426400  0.532700  0.972400  1
  O  O2000  1  0.073600  0.467300  0.472400  1
  O  O2001  1  0.282700  0.323600  0.722400  1
  O  O2002  1  0.217300  0.676400  0.222400  1
  O  O2003  1  0.926400  0.032700  0.472400  1
  O  O2004  1  0.573600  0.967300  0.972400  1
  O  O2005  1  0.150600  0.188100  0.818800  1
  O  O2006  1  0.349400  0.811900  0.318800  1
  O  O2007  1  0.561900  0.400600  0.068800  1
  O  O2008  1  0.938100  0.599400  0.568800  1
  O  O2009  1  0.650600  0.688100  0.318800  1
  O  O2010  1  0.849400  0.311900  0.818800  1
  O  O2011  1  0.061900  0.900600  0.568800  1
  O  O2012  1  0.438100  0.099400  0.068800  1
  O  O2013  1  0.849400  0.811900  0.181200  1
  O  O2014  1  0.650600  0.188100  0.681200  1
  O  O2015  1  0.438100  0.599400  0.931200  1
  O  O2016  1  0.061900  0.400600  0.431200  1
  O  O2017  1  0.349400  0.311900  0.681200  1
  O  O2018  1  0.150600  0.688100  0.181200  1
  O  O2019  1  0.938100  0.099400  0.431200  1
  O  O2020  1  0.561900  0.900600  0.931200  1
  O  O2021  1  0.794400  0.607900  0.969100  1
  O  O2022  1  0.705600  0.392100  0.469100  1
  O  O2023  1  0.142100  0.044400  0.219100  1
  O  O2024  1  0.357900  0.955600  0.719100  1
  O  O2025  1  0.294400  0.107900  0.469100  1
  O  O2026  1  0.205600  0.892100  0.969100  1
  O  O2027  1  0.642100  0.544400  0.719100  1
  O  O2028  1  0.857900  0.455600  0.219100  1
  O  O2029  1  0.205600  0.392100  0.030900  1
  O  O2030  1  0.294400  0.607900  0.530900  1
  O  O2031  1  0.857900  0.955600  0.780900  1
  O  O2032  1  0.642100  0.044400  0.280900  1
  O  O2033  1  0.705600  0.892100  0.530900  1
  O  O2034  1  0.794400  0.107900  0.030900  1
  O  O2035  1  0.357900  0.455600  0.280900  1
  O  O2036  1  0.142100  0.544400  0.780900  1
  O  O2037  1  0.812700  0.573700  0.029300  1
  O  O2038  1  0.687300  0.426300  0.529300  1
  O  O2039  1  0.176300  0.062700  0.279300  1
  O  O2040  1  0.323700  0.937300  0.779300  1
  O  O2041  1  0.312700  0.073700  0.529300  1
  O  O2042  1  0.187300  0.926300  0.029300  1
  O  O2043  1  0.676300  0.562700  0.779300  1
  O  O2044  1  0.823700  0.437300  0.279300  1
  O  O2045  1  0.187300  0.426300  0.970700  1
  O  O2046  1  0.312700  0.573700  0.470700  1
  O  O2047  1  0.823700  0.937300  0.720700  1
  O  O2048  1  0.676300  0.062700  0.220700  1
  O  O2049  1  0.687300  0.926300  0.470700  1
  O  O2050  1  0.812700  0.073700  0.970700  1
  O  O2051  1  0.323700  0.437300  0.220700  1
  O  O2052  1  0.176300  0.562700  0.720700  1
  O  O2053  1  0.873000  0.587000  0.984000  1
  O  O2054  1  0.627000  0.413000  0.484000  1
  O  O2055  1  0.163000  0.123000  0.234000  1
  O  O2056  1  0.337000  0.877000  0.734000  1
  O  O2057  1  0.373000  0.087000  0.484000  1
  O  O2058  1  0.127000  0.913000  0.984000  1
  O  O2059  1  0.663000  0.623000  0.734000  1
  O  O2060  1  0.837000  0.377000  0.234000  1
  O  O2061  1  0.127000  0.413000  0.016000  1
  O  O2062  1  0.373000  0.587000  0.516000  1
  O  O2063  1  0.837000  0.877000  0.766000  1
  O  O2064  1  0.663000  0.123000  0.266000  1
  O  O2065  1  0.627000  0.913000  0.516000  1
  O  O2066  1  0.873000  0.087000  0.016000  1
  O  O2067  1  0.337000  0.377000  0.266000  1
  O  O2068  1  0.163000  0.623000  0.766000  1
  O  O2069  1  0.984100  0.919000  0.927000  1
  O  O2070  1  0.515900  0.081000  0.427000  1
  O  O2071  1  0.831000  0.234100  0.177000  1
  O  O2072  1  0.669000  0.765900  0.677000  1
  O  O2073  1  0.484100  0.419000  0.427000  1
  O  O2074  1  0.015900  0.581000  0.927000  1
  O  O2075  1  0.331000  0.734100  0.677000  1
  O  O2076  1  0.169000  0.265900  0.177000  1
  O  O2077  1  0.015900  0.081000  0.073000  1
  O  O2078  1  0.484100  0.919000  0.573000  1
  O  O2079  1  0.169000  0.765900  0.823000  1
  O  O2080  1  0.331000  0.234100  0.323000  1
  O  O2081  1  0.515900  0.581000  0.573000  1
  O  O2082  1  0.984100  0.419000  0.073000  1
  O  O2083  1  0.669000  0.265900  0.323000  1
  O  O2084  1  0.831000  0.734100  0.823000  1
  O  O2085  1  0.945000  0.970900  0.967200  1
  O  O2086  1  0.555000  0.029100  0.467200  1
  O  O2087  1  0.779100  0.195000  0.217200  1
  O  O2088  1  0.720900  0.805000  0.717200  1
  O  O2089  1  0.445000  0.470900  0.467200  1
  O  O2090  1  0.055000  0.529100  0.967200  1
  O  O2091  1  0.279100  0.695000  0.717200  1
  O  O2092  1  0.220900  0.305000  0.217200  1
  O  O2093  1  0.055000  0.029100  0.032800  1
  O  O2094  1  0.445000  0.970900  0.532800  1
  O  O2095  1  0.220900  0.805000  0.782800  1
  O  O2096  1  0.279100  0.195000  0.282800  1
  O  O2097  1  0.555000  0.529100  0.532800  1
  O  O2098  1  0.945000  0.470900  0.032800  1
  O  O2099  1  0.720900  0.305000  0.282800  1
  O  O2100  1  0.779100  0.695000  0.782800  1
  O  O2101  1  0.913500  0.892200  0.951800  1
  O  O2102  1  0.586500  0.107800  0.451800  1
  O  O2103  1  0.857800  0.163500  0.201800  1
  O  O2104  1  0.642200  0.836500  0.701800  1
  O  O2105  1  0.413500  0.392200  0.451800  1
  O  O2106  1  0.086500  0.607800  0.951800  1
  O  O2107  1  0.357800  0.663500  0.701800  1
  O  O2108  1  0.142200  0.336500  0.201800  1
  O  O2109  1  0.086500  0.107800  0.048200  1
  O  O2110  1  0.413500  0.892200  0.548200  1
  O  O2111  1  0.142200  0.836500  0.798200  1
  O  O2112  1  0.357800  0.163500  0.298200  1
  O  O2113  1  0.586500  0.607800  0.548200  1
  O  O2114  1  0.913500  0.392200  0.048200  1
  O  O2115  1  0.642200  0.336500  0.298200  1
  O  O2116  1  0.857800  0.663500  0.798200  1
  O  O2117  1  0.093600  0.245100  0.080900  1
  O  O2118  1  0.406400  0.754900  0.580900  1
  O  O2119  1  0.504900  0.343600  0.330900  1
  O  O2120  1  0.995100  0.656400  0.830900  1
  O  O2121  1  0.593600  0.745100  0.580900  1
  O  O2122  1  0.906400  0.254900  0.080900  1
  O  O2123  1  0.004900  0.843600  0.830900  1
  O  O2124  1  0.495100  0.156400  0.330900  1
  O  O2125  1  0.906400  0.754900  0.919100  1
  O  O2126  1  0.593600  0.245100  0.419100  1
  O  O2127  1  0.495100  0.656400  0.669100  1
  O  O2128  1  0.004900  0.343600  0.169100  1
  O  O2129  1  0.406400  0.254900  0.419100  1
  O  O2130  1  0.093600  0.745100  0.919100  1
  O  O2131  1  0.995100  0.156400  0.169100  1
  O  O2132  1  0.504900  0.843600  0.669100  1
  O  O2133  1  0.302000  0.157900  0.705400  1
  O  O2134  1  0.198000  0.842100  0.205400  1
  O  O2135  1  0.592100  0.552000  0.955400  1
  O  O2136  1  0.907900  0.448000  0.455400  1
  O  O2137  1  0.802000  0.657900  0.205400  1
  O  O2138  1  0.698000  0.342100  0.705400  1
  O  O2139  1  0.092100  0.052000  0.455400  1
  O  O2140  1  0.407900  0.948000  0.955400  1
  O  O2141  1  0.698000  0.842100  0.294600  1
  O  O2142  1  0.802000  0.157900  0.794600  1
  O  O2143  1  0.407900  0.448000  0.044600  1
  O  O2144  1  0.092100  0.552000  0.544600  1
  O  O2145  1  0.198000  0.342100  0.794600  1
  O  O2146  1  0.302000  0.657900  0.294600  1
  O  O2147  1  0.907900  0.948000  0.544600  1
  O  O2148  1  0.592100  0.052000  0.044600  1
  O  O2149  1  0.104300  0.860200  0.928100  1
  O  O2150  1  0.395700  0.139800  0.428100  1
  O  O2151  1  0.889800  0.354300  0.178100  1
  O  O2152  1  0.610200  0.645700  0.678100  1
  O  O2153  1  0.604300  0.360200  0.428100  1
  O  O2154  1  0.895700  0.639800  0.928100  1
  O  O2155  1  0.389800  0.854300  0.678100  1
  O  O2156  1  0.110200  0.145700  0.178100  1
  O  O2157  1  0.895700  0.139800  0.071900  1
  O  O2158  1  0.604300  0.860200  0.571900  1
  O  O2159  1  0.110200  0.645700  0.821900  1
  O  O2160  1  0.389800  0.354300  0.321900  1
  O  O2161  1  0.395700  0.639800  0.571900  1
  O  O2162  1  0.104300  0.360200  0.071900  1
  O  O2163  1  0.610200  0.145700  0.321900  1
  O  O2164  1  0.889800  0.854300  0.821900  1
  O  O2165  1  0.147200  0.713200  0.051600  1
  O  O2166  1  0.352800  0.286800  0.551600  1
  O  O2167  1  0.036800  0.397200  0.301600  1
  O  O2168  1  0.463200  0.602800  0.801600  1
  O  O2169  1  0.647200  0.213200  0.551600  1
  O  O2170  1  0.852800  0.786800  0.051600  1
  O  O2171  1  0.536800  0.897200  0.801600  1
  O  O2172  1  0.963200  0.102800  0.301600  1
  O  O2173  1  0.852800  0.286800  0.948400  1
  O  O2174  1  0.647200  0.713200  0.448400  1
  O  O2175  1  0.963200  0.602800  0.698400  1
  O  O2176  1  0.536800  0.397200  0.198400  1
  O  O2177  1  0.352800  0.786800  0.448400  1
  O  O2178  1  0.147200  0.213200  0.948400  1
  O  O2179  1  0.463200  0.102800  0.198400  1
  O  O2180  1  0.036800  0.897200  0.698400  1
  O  O2181  1  0.192100  0.750700  0.019200  1
  O  O2182  1  0.307900  0.249300  0.519200  1
  O  O2183  1  0.999300  0.442100  0.269200  1
  O  O2184  1  0.500700  0.557900  0.769200  1
  O  O2185  1  0.692100  0.250700  0.519200  1
  O  O2186  1  0.807900  0.749300  0.019200  1
  O  O2187  1  0.499300  0.942100  0.769200  1
  O  O2188  1  0.000700  0.057900  0.269200  1
  O  O2189  1  0.807900  0.249300  0.980800  1
  O  O2190  1  0.692100  0.750700  0.480800  1
  O  O2191  1  0.000700  0.557900  0.730800  1
  O  O2192  1  0.499300  0.442100  0.230800  1
  O  O2193  1  0.307900  0.749300  0.480800  1
  O  O2194  1  0.192100  0.250700  0.980800  1
  O  O2195  1  0.500700  0.057900  0.230800  1
  O  O2196  1  0.999300  0.942100  0.730800  1
  O  O2197  1  0.210400  0.700300  0.967000  1
  O  O2198  1  0.289600  0.299700  0.467000  1
  O  O2199  1  0.049700  0.460400  0.217000  1
  O  O2200  1  0.450300  0.539600  0.717000  1
  O  O2201  1  0.710400  0.200300  0.467000  1
  O  O2202  1  0.789600  0.799700  0.967000  1
  O  O2203  1  0.549700  0.960400  0.717000  1
  O  O2204  1  0.950300  0.039600  0.217000  1
  O  O2205  1  0.789600  0.299700  0.033000  1
  O  O2206  1  0.710400  0.700300  0.533000  1
  O  O2207  1  0.950300  0.539600  0.783000  1
  O  O2208  1  0.549700  0.460400  0.283000  1
  O  O2209  1  0.289600  0.799700  0.533000  1
  O  O2210  1  0.210400  0.200300  0.033000  1
  O  O2211  1  0.450300  0.039600  0.283000  1
  O  O2212  1  0.049700  0.960400  0.783000  1
  O  O2213  1  0.161300  0.673500  0.020000  1
  O  O2214  1  0.338700  0.326500  0.520000  1
  O  O2215  1  0.076500  0.411300  0.270000  1
  O  O2216  1  0.423500  0.588700  0.770000  1
  O  O2217  1  0.661300  0.173500  0.520000  1
  O  O2218  1  0.838700  0.826500  0.020000  1
  O  O2219  1  0.576500  0.911300  0.770000  1
  O  O2220  1  0.923500  0.088700  0.270000  1
  O  O2221  1  0.838700  0.326500  0.980000  1
  O  O2222  1  0.661300  0.673500  0.480000  1
  O  O2223  1  0.923500  0.588700  0.730000  1
  O  O2224  1  0.576500  0.411300  0.230000  1
  O  O2225  1  0.338700  0.826500  0.480000  1
  O  O2226  1  0.161300  0.173500  0.980000  1
  O  O2227  1  0.423500  0.088700  0.230000  1
  O  O2228  1  0.076500  0.911300  0.730000  1
  O  O2229  1  0.290600  0.150200  0.690400  1
  O  O2230  1  0.209400  0.849800  0.190400  1
  O  O2231  1  0.599800  0.540600  0.940400  1
  O  O2232  1  0.900200  0.459400  0.440400  1
  O  O2233  1  0.790600  0.650200  0.190400  1
  O  O2234  1  0.709400  0.349800  0.690400  1
  O  O2235  1  0.099800  0.040600  0.440400  1
  O  O2236  1  0.400200  0.959400  0.940400  1
  O  O2237  1  0.709400  0.849800  0.309600  1
  O  O2238  1  0.790600  0.150200  0.809600  1
  O  O2239  1  0.400200  0.459400  0.059600  1
  O  O2240  1  0.099800  0.540600  0.559600  1
  O  O2241  1  0.209400  0.349800  0.809600  1
  O  O2242  1  0.290600  0.650200  0.309600  1
  O  O2243  1  0.900200  0.959400  0.559600  1
  O  O2244  1  0.599800  0.040600  0.059600  1
  O  O2245  1  0.044700  0.934300  0.965700  1
  O  O2246  1  0.455300  0.065700  0.465700  1
  O  O2247  1  0.815700  0.294700  0.215700  1
  O  O2248  1  0.684300  0.705300  0.715700  1
  O  O2249  1  0.544700  0.434300  0.465700  1
  O  O2250  1  0.955300  0.565700  0.965700  1
  O  O2251  1  0.315700  0.794700  0.715700  1
  O  O2252  1  0.184300  0.205300  0.215700  1
  O  O2253  1  0.955300  0.065700  0.034300  1
  O  O2254  1  0.544700  0.934300  0.534300  1
  O  O2255  1  0.184300  0.705300  0.784300  1
  O  O2256  1  0.315700  0.294700  0.284300  1
  O  O2257  1  0.455300  0.565700  0.534300  1
  O  O2258  1  0.044700  0.434300  0.034300  1
  O  O2259  1  0.684300  0.205300  0.284300  1
  O  O2260  1  0.815700  0.794700  0.784300  1
  O  O2261  1  0.169400  0.243100  0.827900  1
  O  O2262  1  0.330600  0.756900  0.327900  1
  O  O2263  1  0.506900  0.419400  0.077900  1
  O  O2264  1  0.993100  0.580600  0.577900  1
  O  O2265  1  0.669400  0.743100  0.327900  1
  O  O2266  1  0.830600  0.256900  0.827900  1
  O  O2267  1  0.006900  0.919400  0.577900  1
  O  O2268  1  0.493100  0.080600  0.077900  1
  O  O2269  1  0.830600  0.756900  0.172100  1
  O  O2270  1  0.669400  0.243100  0.672100  1
  O  O2271  1  0.493100  0.580600  0.922100  1
  O  O2272  1  0.006900  0.419400  0.422100  1
  O  O2273  1  0.330600  0.256900  0.672100  1
  O  O2274  1  0.169400  0.743100  0.172100  1
  O  O2275  1  0.993100  0.080600  0.422100  1
  O  O2276  1  0.506900  0.919400  0.922100  1
  O  O2277  1  0.125200  0.722900  0.093800  1
  O  O2278  1  0.374800  0.277100  0.593800  1
  O  O2279  1  0.027100  0.375200  0.343800  1
  O  O2280  1  0.472900  0.624800  0.843800  1
  O  O2281  1  0.625200  0.222900  0.593800  1
  O  O2282  1  0.874800  0.777100  0.093800  1
  O  O2283  1  0.527100  0.875200  0.843800  1
  O  O2284  1  0.972900  0.124800  0.343800  1
  O  O2285  1  0.874800  0.277100  0.906200  1
  O  O2286  1  0.625200  0.722900  0.406200  1
  O  O2287  1  0.972900  0.624800  0.656200  1
  O  O2288  1  0.527100  0.375200  0.156200  1
  O  O2289  1  0.374800  0.777100  0.406200  1
  O  O2290  1  0.125200  0.222900  0.906200  1
  O  O2291  1  0.472900  0.124800  0.156200  1
  O  O2292  1  0.027100  0.875200  0.656200  1
  O  O2293  1  0.240700  0.893200  0.964000  1
  O  O2294  1  0.259300  0.106800  0.464000  1
  O  O2295  1  0.856800  0.490700  0.214000  1
  O  O2296  1  0.643200  0.509300  0.714000  1
  O  O2297  1  0.740700  0.393200  0.464000  1
  O  O2298  1  0.759300  0.606800  0.964000  1
  O  O2299  1  0.356800  0.990700  0.714000  1
  O  O2300  1  0.143200  0.009300  0.214000  1
  O  O2301  1  0.759300  0.106800  0.036000  1
  O  O2302  1  0.740700  0.893200  0.536000  1
  O  O2303  1  0.143200  0.509300  0.786000  1
  O  O2304  1  0.356800  0.490700  0.286000  1
  O  O2305  1  0.259300  0.606800  0.536000  1
  O  O2306  1  0.240700  0.393200  0.036000  1
  O  O2307  1  0.643200  0.009300  0.286000  1
  O  O2308  1  0.856800  0.990700  0.786000  1
  O  O2309  1  0.313300  0.910600  0.932300  1
  O  O2310  1  0.186700  0.089400  0.432300  1
  O  O2311  1  0.839400  0.563300  0.182300  1
  O  O2312  1  0.660600  0.436700  0.682300  1
  O  O2313  1  0.813300  0.410600  0.432300  1
  O  O2314  1  0.686700  0.589400  0.932300  1
  O  O2315  1  0.339400  0.063300  0.682300  1
  O  O2316  1  0.160600  0.936700  0.182300  1
  O  O2317  1  0.686700  0.089400  0.067700  1
  O  O2318  1  0.813300  0.910600  0.567700  1
  O  O2319  1  0.160600  0.436700  0.817700  1
  O  O2320  1  0.339400  0.563300  0.317700  1
  O  O2321  1  0.186700  0.589400  0.567700  1
  O  O2322  1  0.313300  0.410600  0.067700  1
  O  O2323  1  0.660600  0.936700  0.317700  1
  O  O2324  1  0.839400  0.063300  0.817700  1
  O  O2325  1  0.266000  0.972600  0.952100  1
  O  O2326  1  0.234000  0.027400  0.452100  1
  O  O2327  1  0.777400  0.516000  0.202100  1
  O  O2328  1  0.722600  0.484000  0.702100  1
  O  O2329  1  0.766000  0.472600  0.452100  1
  O  O2330  1  0.734000  0.527400  0.952100  1
  O  O2331  1  0.277400  0.016000  0.702100  1
  O  O2332  1  0.222600  0.984000  0.202100  1
  O  O2333  1  0.734000  0.027400  0.047900  1
  O  O2334  1  0.766000  0.972600  0.547900  1
  O  O2335  1  0.222600  0.484000  0.797900  1
  O  O2336  1  0.277400  0.516000  0.297900  1
  O  O2337  1  0.234000  0.527400  0.547900  1
  O  O2338  1  0.266000  0.472600  0.047900  1
  O  O2339  1  0.722600  0.984000  0.297900  1
  O  O2340  1  0.777400  0.016000  0.797900  1
  O  O2341  1  0.253800  0.135700  0.710000  1
  O  O2342  1  0.246200  0.864300  0.210000  1
  O  O2343  1  0.614300  0.503800  0.960000  1
  O  O2344  1  0.885700  0.496200  0.460000  1
  O  O2345  1  0.753800  0.635700  0.210000  1
  O  O2346  1  0.746200  0.364300  0.710000  1
  O  O2347  1  0.114300  0.003800  0.460000  1
  O  O2348  1  0.385700  0.996200  0.960000  1
  O  O2349  1  0.746200  0.864300  0.290000  1
  O  O2350  1  0.753800  0.135700  0.790000  1
  O  O2351  1  0.385700  0.496200  0.040000  1
  O  O2352  1  0.114300  0.503800  0.540000  1
  O  O2353  1  0.246200  0.364300  0.790000  1
  O  O2354  1  0.253800  0.635700  0.290000  1
  O  O2355  1  0.885700  0.996200  0.540000  1
  O  O2356  1  0.614300  0.003800  0.040000  1
  O  O2357  1  0.228900  0.786800  0.977600  1
  O  O2358  1  0.271100  0.213200  0.477600  1
  O  O2359  1  0.963200  0.478900  0.227600  1
  O  O2360  1  0.536800  0.521100  0.727600  1
  O  O2361  1  0.728900  0.286800  0.477600  1
  O  O2362  1  0.771100  0.713200  0.977600  1
  O  O2363  1  0.463200  0.978900  0.727600  1
  O  O2364  1  0.036800  0.021100  0.227600  1
  O  O2365  1  0.771100  0.213200  0.022400  1
  O  O2366  1  0.728900  0.786800  0.522400  1
  O  O2367  1  0.036800  0.521100  0.772400  1
  O  O2368  1  0.463200  0.478900  0.272400  1
  O  O2369  1  0.271100  0.713200  0.522400  1
  O  O2370  1  0.228900  0.286800  0.022400  1
  O  O2371  1  0.536800  0.021100  0.272400  1
  O  O2372  1  0.963200  0.978900  0.772400  1
  O  O2373  1  0.106900  0.640700  0.955300  1
  O  O2374  1  0.393100  0.359300  0.455300  1
  O  O2375  1  0.109300  0.356900  0.205300  1
  O  O2376  1  0.390700  0.643100  0.705300  1
  O  O2377  1  0.606900  0.140700  0.455300  1
  O  O2378  1  0.893100  0.859300  0.955300  1
  O  O2379  1  0.609300  0.856900  0.705300  1
  O  O2380  1  0.890700  0.143100  0.205300  1
  O  O2381  1  0.893100  0.359300  0.044700  1
  O  O2382  1  0.606900  0.640700  0.544700  1
  O  O2383  1  0.890700  0.643100  0.794700  1
  O  O2384  1  0.609300  0.356900  0.294700  1
  O  O2385  1  0.393100  0.859300  0.544700  1
  O  O2386  1  0.106900  0.140700  0.044700  1
  O  O2387  1  0.390700  0.143100  0.294700  1
  O  O2388  1  0.109300  0.856900  0.794700  1
  O  O2389  1  0.310500  0.775200  0.858600  1
  O  O2390  1  0.189500  0.224800  0.358600  1
  O  O2391  1  0.974800  0.560500  0.108600  1
  O  O2392  1  0.525200  0.439500  0.608600  1
  O  O2393  1  0.810500  0.275200  0.358600  1
  O  O2394  1  0.689500  0.724800  0.858600  1
  O  O2395  1  0.474800  0.060500  0.608600  1
  O  O2396  1  0.025200  0.939500  0.108600  1
  O  O2397  1  0.689500  0.224800  0.141400  1
  O  O2398  1  0.810500  0.775200  0.641400  1
  O  O2399  1  0.025200  0.439500  0.891400  1
  O  O2400  1  0.474800  0.560500  0.391400  1
  O  O2401  1  0.189500  0.724800  0.641400  1
  O  O2402  1  0.310500  0.275200  0.141400  1
  O  O2403  1  0.525200  0.939500  0.391400  1
  O  O2404  1  0.974800  0.060500  0.891400  1
  O  O2405  1  0.262700  0.739800  0.908300  1
  O  O2406  1  0.237300  0.260200  0.408300  1
  O  O2407  1  0.010200  0.512700  0.158300  1
  O  O2408  1  0.489800  0.487300  0.658300  1
  O  O2409  1  0.762700  0.239800  0.408300  1
  O  O2410  1  0.737300  0.760200  0.908300  1
  O  O2411  1  0.510200  0.012700  0.658300  1
  O  O2412  1  0.989800  0.987300  0.158300  1
  O  O2413  1  0.737300  0.260200  0.091700  1
  O  O2414  1  0.762700  0.739800  0.591700  1
  O  O2415  1  0.989800  0.487300  0.841700  1
  O  O2416  1  0.510200  0.512700  0.341700  1
  O  O2417  1  0.237300  0.760200  0.591700  1
  O  O2418  1  0.262700  0.239800  0.091700  1
  O  O2419  1  0.489800  0.987300  0.341700  1
  O  O2420  1  0.010200  0.012700  0.841700  1
  O  O2421  1  0.277100  0.819900  0.911400  1
  O  O2422  1  0.222900  0.180100  0.411400  1
  O  O2423  1  0.930100  0.527100  0.161400  1
  O  O2424  1  0.569900  0.472900  0.661400  1
  O  O2425  1  0.777100  0.319900  0.411400  1
  O  O2426  1  0.722900  0.680100  0.911400  1
  O  O2427  1  0.430100  0.027100  0.661400  1
  O  O2428  1  0.069900  0.972900  0.161400  1
  O  O2429  1  0.722900  0.180100  0.088600  1
  O  O2430  1  0.777100  0.819900  0.588600  1
  O  O2431  1  0.069900  0.472900  0.838600  1
  O  O2432  1  0.430100  0.527100  0.338600  1
  O  O2433  1  0.222900  0.680100  0.588600  1
  O  O2434  1  0.277100  0.319900  0.088600  1
  O  O2435  1  0.569900  0.972900  0.338600  1
  O  O2436  1  0.930100  0.027100  0.838600  1
  O  O2437  1  0.246100  0.972000  0.960500  1
  O  O2438  1  0.253900  0.028000  0.460500  1
  O  O2439  1  0.778000  0.496100  0.210500  1
  O  O2440  1  0.722000  0.503900  0.710500  1
  O  O2441  1  0.746100  0.472000  0.460500  1
  O  O2442  1  0.753900  0.528000  0.960500  1
  O  O2443  1  0.278000  0.996100  0.710500  1
  O  O2444  1  0.222000  0.003900  0.210500  1
  O  O2445  1  0.753900  0.028000  0.039500  1
  O  O2446  1  0.746100  0.972000  0.539500  1
  O  O2447  1  0.222000  0.503900  0.789500  1
  O  O2448  1  0.278000  0.496100  0.289500  1
  O  O2449  1  0.253900  0.528000  0.539500  1
  O  O2450  1  0.246100  0.472000  0.039500  1
  O  O2451  1  0.722000  0.003900  0.289500  1
  O  O2452  1  0.778000  0.996100  0.789500  1
  O  O2453  1  0.334400  0.901100  0.900300  1
  O  O2454  1  0.165600  0.098900  0.400300  1
  O  O2455  1  0.848900  0.584400  0.150300  1
  O  O2456  1  0.651100  0.415600  0.650300  1
  O  O2457  1  0.834400  0.401100  0.400300  1
  O  O2458  1  0.665600  0.598900  0.900300  1
  O  O2459  1  0.348900  0.084400  0.650300  1
  O  O2460  1  0.151100  0.915600  0.150300  1
  O  O2461  1  0.665600  0.098900  0.099700  1
  O  O2462  1  0.834400  0.901100  0.599700  1
  O  O2463  1  0.151100  0.415600  0.849700  1
  O  O2464  1  0.348900  0.584400  0.349700  1
  O  O2465  1  0.165600  0.598900  0.599700  1
  O  O2466  1  0.334400  0.401100  0.099700  1
  O  O2467  1  0.651100  0.915600  0.349700  1
  O  O2468  1  0.848900  0.084400  0.849700  1
  O  O2469  1  0.155700  0.638500  0.019800  1
  O  O2470  1  0.344300  0.361500  0.519800  1
  O  O2471  1  0.111500  0.405700  0.269800  1
  O  O2472  1  0.388500  0.594300  0.769800  1
  O  O2473  1  0.655700  0.138500  0.519800  1
  O  O2474  1  0.844300  0.861500  0.019800  1
  O  O2475  1  0.611500  0.905700  0.769800  1
  O  O2476  1  0.888500  0.094300  0.269800  1
  O  O2477  1  0.844300  0.361500  0.980200  1
  O  O2478  1  0.655700  0.638500  0.480200  1
  O  O2479  1  0.888500  0.594300  0.730200  1
  O  O2480  1  0.611500  0.405700  0.230200  1
  O  O2481  1  0.344300  0.861500  0.480200  1
  O  O2482  1  0.155700  0.138500  0.980200  1
  O  O2483  1  0.388500  0.094300  0.230200  1
  O  O2484  1  0.111500  0.905700  0.730200  1
  O  O2485  1  0.155000  0.719600  0.007900  1
  O  O2486  1  0.345000  0.280400  0.507900  1
  O  O2487  1  0.030400  0.405000  0.257900  1
  O  O2488  1  0.469600  0.595000  0.757900  1
  O  O2489  1  0.655000  0.219600  0.507900  1
  O  O2490  1  0.845000  0.780400  0.007900  1
  O  O2491  1  0.530400  0.905000  0.757900  1
  O  O2492  1  0.969600  0.095000  0.257900  1
  O  O2493  1  0.845000  0.280400  0.992100  1
  O  O2494  1  0.655000  0.719600  0.492100  1
  O  O2495  1  0.969600  0.595000  0.742100  1
  O  O2496  1  0.530400  0.405000  0.242100  1
  O  O2497  1  0.345000  0.780400  0.492100  1
  O  O2498  1  0.155000  0.219600  0.992100  1
  O  O2499  1  0.469600  0.095000  0.242100  1
  O  O2500  1  0.030400  0.905000  0.742100  1
  O  O2501  1  0.125200  0.663900  0.960700  1
  O  O2502  1  0.374800  0.336100  0.460700  1
  O  O2503  1  0.086100  0.375200  0.210700  1
  O  O2504  1  0.413900  0.624800  0.710700  1
  O  O2505  1  0.625200  0.163900  0.460700  1
  O  O2506  1  0.874800  0.836100  0.960700  1
  O  O2507  1  0.586100  0.875200  0.710700  1
  O  O2508  1  0.913900  0.124800  0.210700  1
  O  O2509  1  0.874800  0.336100  0.039300  1
  O  O2510  1  0.625200  0.663900  0.539300  1
  O  O2511  1  0.913900  0.624800  0.789300  1
  O  O2512  1  0.586100  0.375200  0.289300  1
  O  O2513  1  0.374800  0.836100  0.539300  1
  O  O2514  1  0.125200  0.163900  0.039300  1
  O  O2515  1  0.413900  0.124800  0.289300  1
  O  O2516  1  0.086100  0.875200  0.789300  1
  O  O2517  1  0.084900  0.465400  0.962200  1
  O  O2518  1  0.415100  0.534600  0.462200  1
  O  O2519  1  0.284600  0.334900  0.212200  1
  O  O2520  1  0.215400  0.665100  0.712200  1
  O  O2521  1  0.584900  0.965400  0.462200  1
  O  O2522  1  0.915100  0.034600  0.962200  1
  O  O2523  1  0.784600  0.834900  0.712200  1
  O  O2524  1  0.715400  0.165100  0.212200  1
  O  O2525  1  0.915100  0.534600  0.037800  1
  O  O2526  1  0.584900  0.465400  0.537800  1
  O  O2527  1  0.715400  0.665100  0.787800  1
  O  O2528  1  0.784600  0.334900  0.287800  1
  O  O2529  1  0.415100  0.034600  0.537800  1
  O  O2530  1  0.084900  0.965400  0.037800  1
  O  O2531  1  0.215400  0.165100  0.287800  1
  O  O2532  1  0.284600  0.834900  0.787800  1
  O  O2533  1  0.840100  0.201800  0.107000  1
  O  O2534  1  0.659900  0.798200  0.607000  1
  O  O2535  1  0.548200  0.090100  0.357000  1
  O  O2536  1  0.951800  0.909900  0.857000  1
  O  O2537  1  0.340100  0.701800  0.607000  1
  O  O2538  1  0.159900  0.298200  0.107000  1
  O  O2539  1  0.048200  0.590100  0.857000  1
  O  O2540  1  0.451800  0.409900  0.357000  1
  O  O2541  1  0.159900  0.798200  0.893000  1
  O  O2542  1  0.340100  0.201800  0.393000  1
  O  O2543  1  0.451800  0.909900  0.643000  1
  O  O2544  1  0.048200  0.090100  0.143000  1
  O  O2545  1  0.659900  0.298200  0.393000  1
  O  O2546  1  0.840100  0.701800  0.893000  1
  O  O2547  1  0.951800  0.409900  0.143000  1
  O  O2548  1  0.548200  0.590100  0.643000  1
  O  O2549  1  0.320900  0.807300  0.859400  1
  O  O2550  1  0.179100  0.192700  0.359400  1
  O  O2551  1  0.942700  0.570900  0.109400  1
  O  O2552  1  0.557300  0.429100  0.609400  1
  O  O2553  1  0.820900  0.307300  0.359400  1
  O  O2554  1  0.679100  0.692700  0.859400  1
  O  O2555  1  0.442700  0.070900  0.609400  1
  O  O2556  1  0.057300  0.929100  0.109400  1
  O  O2557  1  0.679100  0.192700  0.140600  1
  O  O2558  1  0.820900  0.807300  0.640600  1
  O  O2559  1  0.057300  0.429100  0.890600  1
  O  O2560  1  0.442700  0.570900  0.390600  1
  O  O2561  1  0.179100  0.692700  0.640600  1
  O  O2562  1  0.320900  0.307300  0.140600  1
  O  O2563  1  0.557300  0.929100  0.390600  1
  O  O2564  1  0.942700  0.070900  0.890600  1
  O  O2565  1  0.255800  0.790900  0.933900  1
  O  O2566  1  0.244200  0.209100  0.433900  1
  O  O2567  1  0.959100  0.505800  0.183900  1
  O  O2568  1  0.540900  0.494200  0.683900  1
  O  O2569  1  0.755800  0.290900  0.433900  1
  O  O2570  1  0.744200  0.709100  0.933900  1
  O  O2571  1  0.459100  0.005800  0.683900  1
  O  O2572  1  0.040900  0.994200  0.183900  1
  O  O2573  1  0.744200  0.209100  0.066100  1
  O  O2574  1  0.755800  0.790900  0.566100  1
  O  O2575  1  0.040900  0.494200  0.816100  1
  O  O2576  1  0.459100  0.505800  0.316100  1
  O  O2577  1  0.244200  0.709100  0.566100  1
  O  O2578  1  0.255800  0.290900  0.066100  1
  O  O2579  1  0.540900  0.994200  0.316100  1
  O  O2580  1  0.959100  0.005800  0.816100  1
  O  O2581  1  0.200000  0.840000  0.007700  1
  O  O2582  1  0.300000  0.160000  0.507700  1
  O  O2583  1  0.910000  0.450000  0.257700  1
  O  O2584  1  0.590000  0.550000  0.757700  1
  O  O2585  1  0.700000  0.340000  0.507700  1
  O  O2586  1  0.800000  0.660000  0.007700  1
  O  O2587  1  0.410000  0.950000  0.757700  1
  O  O2588  1  0.090000  0.050000  0.257700  1
  O  O2589  1  0.800000  0.160000  0.992300  1
  O  O2590  1  0.700000  0.840000  0.492300  1
  O  O2591  1  0.090000  0.550000  0.742300  1
  O  O2592  1  0.410000  0.450000  0.242300  1
  O  O2593  1  0.300000  0.660000  0.492300  1
  O  O2594  1  0.200000  0.340000  0.992300  1
  O  O2595  1  0.590000  0.050000  0.242300  1
  O  O2596  1  0.910000  0.950000  0.742300  1
  O  O2597  1  0.353200  0.887300  0.858600  1
  O  O2598  1  0.146800  0.112700  0.358600  1
  O  O2599  1  0.862700  0.603200  0.108600  1
  O  O2600  1  0.637300  0.396800  0.608600  1
  O  O2601  1  0.853200  0.387300  0.358600  1
  O  O2602  1  0.646800  0.612700  0.858600  1
  O  O2603  1  0.362700  0.103200  0.608600  1
  O  O2604  1  0.137300  0.896800  0.108600  1
  O  O2605  1  0.646800  0.112700  0.141400  1
  O  O2606  1  0.853200  0.887300  0.641400  1
  O  O2607  1  0.137300  0.396800  0.891400  1
  O  O2608  1  0.362700  0.603200  0.391400  1
  O  O2609  1  0.146800  0.612700  0.641400  1
  O  O2610  1  0.353200  0.387300  0.141400  1
  O  O2611  1  0.637300  0.896800  0.391400  1
  O  O2612  1  0.862700  0.103200  0.891400  1
  O  O2613  1  0.183300  0.258300  0.830900  1
  O  O2614  1  0.316700  0.741700  0.330900  1
  O  O2615  1  0.491700  0.433300  0.080900  1
  O  O2616  1  0.008300  0.566700  0.580900  1
  O  O2617  1  0.683300  0.758300  0.330900  1
  O  O2618  1  0.816700  0.241700  0.830900  1
  O  O2619  1  0.991700  0.933300  0.580900  1
  O  O2620  1  0.508300  0.066700  0.080900  1
  O  O2621  1  0.816700  0.741700  0.169100  1
  O  O2622  1  0.683300  0.258300  0.669100  1
  O  O2623  1  0.508300  0.566700  0.919100  1
  O  O2624  1  0.991700  0.433300  0.419100  1
  O  O2625  1  0.316700  0.241700  0.669100  1
  O  O2626  1  0.183300  0.758300  0.169100  1
  O  O2627  1  0.008300  0.066700  0.419100  1
  O  O2628  1  0.491700  0.933300  0.919100  1
