
#######################################################################
#
#                 Cambridge Crystallographic Data Centre
#                                CCDC 
#
#######################################################################
#
# If this CIF has been generated from an entry in the Cambridge 
# Structural Database, then it will include bibliographic, chemical, 
# crystal, experimental, refinement or atomic coordinate data resulting 
# from the CCDC's data processing and validation procedures.
#
#######################################################################

data_VULZUY
_chemical_formula_moiety         'C60 H12 In8 N24 O48 1-,H4 N1 1+'
_chemical_name_systematic        
'Ammonium dodecakis(\m~2~-4,5-imidazoledicarboxylato)-octa-indium(iii)'
_symmetry_cell_setting           cubic
_symmetry_space_group_name_H-M   'F m -3'
_symmetry_Int_Tables_number      202
_space_group_name_Hall           '-F 2 2 3'
loop_
_symmetry_equiv_pos_site_id
_symmetry_equiv_pos_as_xyz
1 x,y,z
2 -x,-y,z
3 -x,y,-z
4 x,-y,-z
5 z,x,y
6 z,-x,-y
7 -z,-x,y
8 -z,x,-y
9 y,z,x
10 -y,z,-x
11 y,-z,-x
12 -y,-z,x
13 x,1/2+y,1/2+z
14 -x,1/2-y,1/2+z
15 -x,1/2+y,1/2-z
16 x,1/2-y,1/2-z
17 z,1/2+x,1/2+y
18 z,1/2-x,1/2-y
19 -z,1/2-x,1/2+y
20 -z,1/2+x,1/2-y
21 y,1/2+z,1/2+x
22 -y,1/2+z,1/2-x
23 y,1/2-z,1/2-x
24 -y,1/2-z,1/2+x
25 1/2+x,y,1/2+z
26 1/2-x,-y,1/2+z
27 1/2-x,y,1/2-z
28 1/2+x,-y,1/2-z
29 1/2+z,x,1/2+y
30 1/2+z,-x,1/2-y
31 1/2-z,-x,1/2+y
32 1/2-z,x,1/2-y
33 1/2+y,z,1/2+x
34 1/2-y,z,1/2-x
35 1/2+y,-z,1/2-x
36 1/2-y,-z,1/2+x
37 1/2+x,1/2+y,z
38 1/2-x,1/2-y,z
39 1/2-x,1/2+y,-z
40 1/2+x,1/2-y,-z
41 1/2+z,1/2+x,y
42 1/2+z,1/2-x,-y
43 1/2-z,1/2-x,y
44 1/2-z,1/2+x,-y
45 1/2+y,1/2+z,x
46 1/2-y,1/2+z,-x
47 1/2+y,1/2-z,-x
48 1/2-y,1/2-z,x
49 -x,-y,-z
50 x,y,-z
51 x,-y,z
52 -x,y,z
53 -z,-x,-y
54 -z,x,y
55 z,x,-y
56 z,-x,y
57 -y,-z,-x
58 y,-z,x
59 -y,z,x
60 y,z,-x
61 -x,1/2-y,1/2-z
62 x,1/2+y,1/2-z
63 x,1/2-y,1/2+z
64 -x,1/2+y,1/2+z
65 -z,1/2-x,1/2-y
66 -z,1/2+x,1/2+y
67 z,1/2+x,1/2-y
68 z,1/2-x,1/2+y
69 -y,1/2-z,1/2-x
70 y,1/2-z,1/2+x
71 -y,1/2+z,1/2+x
72 y,1/2+z,1/2-x
73 1/2-x,-y,1/2-z
74 1/2+x,y,1/2-z
75 1/2+x,-y,1/2+z
76 1/2-x,y,1/2+z
77 1/2-z,-x,1/2-y
78 1/2-z,x,1/2+y
79 1/2+z,x,1/2-y
80 1/2+z,-x,1/2+y
81 1/2-y,-z,1/2-x
82 1/2+y,-z,1/2+x
83 1/2-y,z,1/2+x
84 1/2+y,z,1/2-x
85 1/2-x,1/2-y,-z
86 1/2+x,1/2+y,-z
87 1/2+x,1/2-y,z
88 1/2-x,1/2+y,z
89 1/2-z,1/2-x,-y
90 1/2-z,1/2+x,y
91 1/2+z,1/2+x,-y
92 1/2+z,1/2-x,y
93 1/2-y,1/2-z,-x
94 1/2+y,1/2-z,x
95 1/2-y,1/2+z,x
96 1/2+y,1/2+z,-x
_cell_length_a                   22.418(6)
_cell_length_b                   22.418(6)
_cell_length_c                   22.418(6)
_cell_angle_alpha                90
_cell_angle_beta                 90
_cell_angle_gamma                90
_cell_volume                     11266.5
_cell_formula_units_Z            4
loop_
_atom_site_label
_atom_site_type_symbol
_atom_site_fract_x
_atom_site_fract_y
_atom_site_fract_z
In1 In 0.14667(4) 0.14667(4) 0.14667(4)
N1 N 0.1550(4) 0.1498(4) 0.0497(4)
O1 O 0.2399(4) 0.1697(4) 0.1316(4)
O2 O 0.3093(5) 0.1882(5) 0.0630(5)
C1 C 0.2570(6) 0.1743(6) 0.0794(7)
C2 C 0.2125(5) 0.1631(5) 0.0296(5)
C3 C 0.1209(9) 0.1398(7) 0.0000
H2 H 0.0820 0.1275 0.0000
In1XA In 0.14667(4) -0.14667(4) 0.14667(4)
In1A In -0.14667(4) -0.14667(4) 0.14667(4)
In1VA In -0.14667(4) -0.14667(4) -0.14667(4)
In1B In -0.14667(4) 0.14667(4) -0.14667(4)
In1WA In 0.14667(4) 0.14667(4) -0.14667(4)
In1C In 0.14667(4) -0.14667(4) -0.14667(4)
In1YA In -0.14667(4) 0.14667(4) 0.14667(4)
N1D N 0.0497(4) 0.1550(4) 0.1498(4)
N1H N 0.1498(4) 0.0497(4) 0.1550(4)
N1EB N 0.1498(4) -0.0497(4) 0.1550(4)
N1XA N 0.1550(4) -0.1498(4) 0.0497(4)
N1CB N 0.0497(4) -0.1550(4) 0.1498(4)
N1F N -0.0497(4) -0.1550(4) 0.1498(4)
N1K N -0.1498(4) -0.0497(4) 0.1550(4)
N1A N -0.1550(4) -0.1498(4) 0.0497(4)
N1VA N -0.1550(4) -0.1498(4) -0.0497(4)
N1ZA N -0.0497(4) -0.1550(4) -0.1498(4)
N1DB N -0.1498(4) -0.0497(4) -0.1550(4)
N1I N -0.1498(4) 0.0497(4) -0.1550(4)
N1B N -0.1550(4) 0.1498(4) -0.0497(4)
N1G N -0.0497(4) 0.1550(4) -0.1498(4)
N1BB N 0.0497(4) 0.1550(4) -0.1498(4)
N1GB N 0.1498(4) 0.0497(4) -0.1550(4)
N1WA N 0.1550(4) 0.1498(4) -0.0497(4)
N1J N 0.1498(4) -0.0497(4) -0.1550(4)
N1C N 0.1550(4) -0.1498(4) -0.0497(4)
N1E N 0.0497(4) -0.1550(4) -0.1498(4)
N1YA N -0.1550(4) 0.1498(4) 0.0497(4)
N1AB N -0.0497(4) 0.1550(4) 0.1498(4)
N1FB N -0.1498(4) 0.0497(4) 0.1550(4)
O1D O 0.1316(4) 0.2399(4) 0.1697(4)
O1H O 0.1697(4) 0.1316(4) 0.2399(4)
O1XA O 0.2399(4) -0.1697(4) 0.1316(4)
O1CB O 0.1316(4) -0.2399(4) 0.1697(4)
O1EB O 0.1697(4) -0.1316(4) 0.2399(4)
O1K O -0.1697(4) -0.1316(4) 0.2399(4)
O1A O -0.2399(4) -0.1697(4) 0.1316(4)
O1F O -0.1316(4) -0.2399(4) 0.1697(4)
O1ZA O -0.1316(4) -0.2399(4) -0.1697(4)
O1DB O -0.1697(4) -0.1316(4) -0.2399(4)
O1VA O -0.2399(4) -0.1697(4) -0.1316(4)
O1B O -0.2399(4) 0.1697(4) -0.1316(4)
O1G O -0.1316(4) 0.2399(4) -0.1697(4)
O1I O -0.1697(4) 0.1316(4) -0.2399(4)
O1GB O 0.1697(4) 0.1316(4) -0.2399(4)
O1WA O 0.2399(4) 0.1697(4) -0.1316(4)
O1BB O 0.1316(4) 0.2399(4) -0.1697(4)
O1C O 0.2399(4) -0.1697(4) -0.1316(4)
O1E O 0.1316(4) -0.2399(4) -0.1697(4)
O1J O 0.1697(4) -0.1316(4) -0.2399(4)
O1AB O -0.1316(4) 0.2399(4) 0.1697(4)
O1FB O -0.1697(4) 0.1316(4) 0.2399(4)
O1YA O -0.2399(4) 0.1697(4) 0.1316(4)
O2H O 0.1882(5) 0.0630(5) 0.3093(5)
O2EB O 0.1882(5) -0.0630(5) 0.3093(5)
O2CB O 0.0630(5) -0.3093(5) 0.1882(5)
O2F O -0.0630(5) -0.3093(5) 0.1882(5)
O2A O -0.3093(5) -0.1882(5) 0.0630(5)
O2VA O -0.3093(5) -0.1882(5) -0.0630(5)
O2DB O -0.1882(5) -0.0630(5) -0.3093(5)
O2I O -0.1882(5) 0.0630(5) -0.3093(5)
O2G O -0.0630(5) 0.3093(5) -0.1882(5)
O2BB O 0.0630(5) 0.3093(5) -0.1882(5)
O2WA O 0.3093(5) 0.1882(5) -0.0630(5)
O2GB O 0.1882(5) 0.0630(5) -0.3093(5)
O2J O 0.1882(5) -0.0630(5) -0.3093(5)
O2E O 0.0630(5) -0.3093(5) -0.1882(5)
O2C O 0.3093(5) -0.1882(5) -0.0630(5)
O2B O -0.3093(5) 0.1882(5) -0.0630(5)
O2YA O -0.3093(5) 0.1882(5) 0.0630(5)
O2FB O -0.1882(5) 0.0630(5) 0.3093(5)
O2AB O -0.0630(5) 0.3093(5) 0.1882(5)
O2ZA O -0.0630(5) -0.3093(5) -0.1882(5)
O2K O -0.1882(5) -0.0630(5) 0.3093(5)
O2XA O 0.3093(5) -0.1882(5) 0.0630(5)
O2D O 0.0630(5) 0.3093(5) 0.1882(5)
C1D C 0.0794(7) 0.2570(6) 0.1743(6)
C1H C 0.1743(6) 0.0794(7) 0.2570(6)
C1XA C 0.2570(6) -0.1743(6) 0.0794(7)
C1CB C 0.0794(7) -0.2570(6) 0.1743(6)
C1EB C 0.1743(6) -0.0794(7) 0.2570(6)
C1K C -0.1743(6) -0.0794(7) 0.2570(6)
C1A C -0.2570(6) -0.1743(6) 0.0794(7)
C1F C -0.0794(7) -0.2570(6) 0.1743(6)
C1ZA C -0.0794(7) -0.2570(6) -0.1743(6)
C1DB C -0.1743(6) -0.0794(7) -0.2570(6)
C1VA C -0.2570(6) -0.1743(6) -0.0794(7)
C1B C -0.2570(6) 0.1743(6) -0.0794(7)
C1G C -0.0794(7) 0.2570(6) -0.1743(6)
C1I C -0.1743(6) 0.0794(7) -0.2570(6)
C1GB C 0.1743(6) 0.0794(7) -0.2570(6)
C1WA C 0.2570(6) 0.1743(6) -0.0794(7)
C1BB C 0.0794(7) 0.2570(6) -0.1743(6)
C1C C 0.2570(6) -0.1743(6) -0.0794(7)
C1E C 0.0794(7) -0.2570(6) -0.1743(6)
C1J C 0.1743(6) -0.0794(7) -0.2570(6)
C1AB C -0.0794(7) 0.2570(6) 0.1743(6)
C1FB C -0.1743(6) 0.0794(7) 0.2570(6)
C1YA C -0.2570(6) 0.1743(6) 0.0794(7)
C2D C 0.0296(5) 0.2125(5) 0.1631(5)
C2H C 0.1631(5) 0.0296(5) 0.2125(5)
C2EB C 0.1631(5) -0.0296(5) 0.2125(5)
C2XA C 0.2125(5) -0.1631(5) 0.0296(5)
C2CB C 0.0296(5) -0.2125(5) 0.1631(5)
C2F C -0.0296(5) -0.2125(5) 0.1631(5)
C2K C -0.1631(5) -0.0296(5) 0.2125(5)
C2A C -0.2125(5) -0.1631(5) 0.0296(5)
C2VA C -0.2125(5) -0.1631(5) -0.0296(5)
C2ZA C -0.0296(5) -0.2125(5) -0.1631(5)
C2DB C -0.1631(5) -0.0296(5) -0.2125(5)
C2I C -0.1631(5) 0.0296(5) -0.2125(5)
C2B C -0.2125(5) 0.1631(5) -0.0296(5)
C2G C -0.0296(5) 0.2125(5) -0.1631(5)
C2BB C 0.0296(5) 0.2125(5) -0.1631(5)
C2GB C 0.1631(5) 0.0296(5) -0.2125(5)
C2WA C 0.2125(5) 0.1631(5) -0.0296(5)
C2J C 0.1631(5) -0.0296(5) -0.2125(5)
C2C C 0.2125(5) -0.1631(5) -0.0296(5)
C2E C 0.0296(5) -0.2125(5) -0.1631(5)
C2YA C -0.2125(5) 0.1631(5) 0.0296(5)
C2AB C -0.0296(5) 0.2125(5) 0.1631(5)
C2FB C -0.1631(5) 0.0296(5) 0.2125(5)
C3J C 0.1398(7) 0.0000 -0.1209(9)
C3E C 0.0000 -0.1209(9) -0.1398(7)
C3C C 0.1209(9) -0.1398(7) 0.0000
C3G C 0.0000 0.1209(9) -0.1398(7)
C3B C -0.1209(9) 0.1398(7) 0.0000
C3K C -0.1398(7) 0.0000 0.1209(9)
C3D C 0.0000 0.1209(9) 0.1398(7)
C3I C -0.1398(7) 0.0000 -0.1209(9)
C3A C -0.1209(9) -0.1398(7) 0.0000
C3F C 0.0000 -0.1209(9) 0.1398(7)
C3H C 0.1398(7) 0.0000 0.1209(9)
H2E H 0.0000 -0.0820 -0.1275
H2C H 0.0820 -0.1275 0.0000
H2J H 0.1275 0.0000 -0.0820
H2G H 0.0000 0.0820 -0.1275
H2K H -0.1275 0.0000 0.0820
H2D H 0.0000 0.0820 0.1275
H2B H -0.0820 0.1275 0.0000
H2I H -0.1275 0.0000 -0.0820
H2A H -0.0820 -0.1275 0.0000
H2F H 0.0000 -0.0820 0.1275
H2H H 0.1275 0.0000 0.0820
N2 N 0.2500 0.2500 0.2500
H3 H 0.2768 0.2768 0.2232
H3D H 0.2232 0.2768 0.2768
H3H H 0.2768 0.2232 0.2768
H3Q H 0.2232 0.2232 0.2232
loop_
_geom_bond_atom_site_label_1
_geom_bond_atom_site_label_2
_geom_bond_site_symmetry_1
_geom_bond_site_symmetry_2
In1 N1 1_555 1_555
N1 C2 1_555 1_555
O1 In1 1_555 1_555
O2 C1 1_555 1_555
C1 O1 1_555 1_555
C2 C1 1_555 1_555
C3 N1 1_555 1_555
H2 C3 1_555 1_555
N2 H3 1_555 1_555
In1XA N1EB 1_555 1_555
In1A N1F 1_555 1_555
In1VA N1VA 1_555 1_555
In1B N1I 1_555 1_555
In1WA N1BB 1_555 1_555
In1C N1J 1_555 1_555
In1YA N1YA 1_555 1_555
N1D In1 1_555 1_555
N1H In1 1_555 1_555
N1EB C2EB 1_555 1_555
N1XA In1XA 1_555 1_555
N1CB In1XA 1_555 1_555
N1F C2F 1_555 1_555
N1K In1A 1_555 1_555
N1A In1A 1_555 1_555
N1VA C2VA 1_555 1_555
N1ZA In1VA 1_555 1_555
N1DB In1VA 1_555 1_555
N1I C2I 1_555 1_555
N1B In1B 1_555 1_555
N1G In1B 1_555 1_555
N1BB C2BB 1_555 1_555
N1GB In1WA 1_555 1_555
N1WA C3 1_555 1_555
N1J C2J 1_555 1_555
N1C In1C 1_555 1_555
N1E In1C 1_555 1_555
N1YA C2YA 1_555 1_555
N1AB In1YA 1_555 1_555
N1FB In1YA 1_555 1_555
O1D In1 1_555 1_555
O1H In1 1_555 1_555
O1XA In1XA 1_555 1_555
O1CB In1XA 1_555 1_555
O1EB In1XA 1_555 1_555
O1K In1A 1_555 1_555
O1A In1A 1_555 1_555
O1F In1A 1_555 1_555
O1ZA In1VA 1_555 1_555
O1DB In1VA 1_555 1_555
O1VA In1VA 1_555 1_555
O1B In1B 1_555 1_555
O1G In1B 1_555 1_555
O1I In1B 1_555 1_555
O1GB In1WA 1_555 1_555
O1WA In1WA 1_555 1_555
O1BB In1WA 1_555 1_555
O1C In1C 1_555 1_555
O1E In1C 1_555 1_555
O1J In1C 1_555 1_555
O1AB In1YA 1_555 1_555
O1FB In1YA 1_555 1_555
O1YA In1YA 1_555 1_555
O2H C1H 1_555 1_555
O2EB C1EB 1_555 1_555
O2CB C1CB 1_555 1_555
O2F C1F 1_555 1_555
O2A C1A 1_555 1_555
O2VA C1VA 1_555 1_555
O2DB C1DB 1_555 1_555
O2I C1I 1_555 1_555
O2G C1G 1_555 1_555
O2BB C1BB 1_555 1_555
O2WA C1WA 1_555 1_555
O2GB C1GB 1_555 1_555
O2J C1J 1_555 1_555
O2E C1E 1_555 1_555
O2C C1C 1_555 1_555
O2B C1B 1_555 1_555
O2YA C1YA 1_555 1_555
O2FB C1FB 1_555 1_555
O2AB C1AB 1_555 1_555
O2ZA C1ZA 1_555 1_555
O2K C1K 1_555 1_555
O2XA C1XA 1_555 1_555
O2D C1D 1_555 1_555
C1D O1D 1_555 1_555
C1H O1H 1_555 1_555
C1XA O1XA 1_555 1_555
C1CB O1CB 1_555 1_555
C1EB O1EB 1_555 1_555
C1K O1K 1_555 1_555
C1A O1A 1_555 1_555
C1F O1F 1_555 1_555
C1ZA O1ZA 1_555 1_555
C1DB O1DB 1_555 1_555
C1VA O1VA 1_555 1_555
C1B O1B 1_555 1_555
C1G O1G 1_555 1_555
C1I O1I 1_555 1_555
C1GB O1GB 1_555 1_555
C1WA O1WA 1_555 1_555
C1BB O1BB 1_555 1_555
C1C O1C 1_555 1_555
C1E O1E 1_555 1_555
C1J O1J 1_555 1_555
C1AB O1AB 1_555 1_555
C1FB O1FB 1_555 1_555
C1YA O1YA 1_555 1_555
C2D N1D 1_555 1_555
C2H N1H 1_555 1_555
C2EB C1EB 1_555 1_555
C2XA N1XA 1_555 1_555
C2CB N1CB 1_555 1_555
C2F C1F 1_555 1_555
C2K N1K 1_555 1_555
C2A N1A 1_555 1_555
C2VA C1VA 1_555 1_555
C2ZA N1ZA 1_555 1_555
C2DB N1DB 1_555 1_555
C2I C1I 1_555 1_555
C2B N1B 1_555 1_555
C2G N1G 1_555 1_555
C2BB C1BB 1_555 1_555
C2GB N1GB 1_555 1_555
C2WA C2 1_555 1_555
C2J C1J 1_555 1_555
C2C N1C 1_555 1_555
C2E N1E 1_555 1_555
C2YA C1YA 1_555 1_555
C2AB N1AB 1_555 1_555
C2FB N1FB 1_555 1_555
C3J N1GB 1_555 1_555
C3E N1ZA 1_555 1_555
C3C N1XA 1_555 1_555
C3G N1G 1_555 1_555
C3B N1B 1_555 1_555
C3K N1K 1_555 1_555
C3D N1D 1_555 1_555
C3I N1DB 1_555 1_555
C3A N1A 1_555 1_555
C3F N1CB 1_555 1_555
C3H N1H 1_555 1_555
H2E C3E 1_555 1_555
H2C C3C 1_555 1_555
H2J C3J 1_555 1_555
H2G C3G 1_555 1_555
H2K C3K 1_555 1_555
H2D C3D 1_555 1_555
H2B C3B 1_555 1_555
H2I C3I 1_555 1_555
H2A C3A 1_555 1_555
H2F C3F 1_555 1_555
H2H C3H 1_555 1_555
H3D N2 1_555 1_555
H3H N2 1_555 1_555
H3Q N2 1_555 1_555
In1WA N1WA 1_555 1_555
N1EB C3H 1_555 1_555
N1F C3F 1_555 1_555
N1VA C3A 1_555 1_555
N1I C3I 1_555 1_555
N1BB C3G 1_555 1_555
N1WA C2WA 1_555 1_555
N1J C3J 1_555 1_555
N1C C3C 1_555 1_555
N1E C3E 1_555 1_555
N1YA C3B 1_555 1_555
N1AB C3D 1_555 1_555
N1FB C3K 1_555 1_555
C1D C2D 1_555 1_555
C1H C2H 1_555 1_555
C1XA C2XA 1_555 1_555
C1CB C2CB 1_555 1_555
C1K C2K 1_555 1_555
C1A C2A 1_555 1_555
C1ZA C2ZA 1_555 1_555
C1DB C2DB 1_555 1_555
C1B C2B 1_555 1_555
C1G C2G 1_555 1_555
C1GB C2GB 1_555 1_555
C1WA C2WA 1_555 1_555
C1C C2C 1_555 1_555
C1E C2E 1_555 1_555
C1AB C2AB 1_555 1_555
C1FB C2FB 1_555 1_555
C2D C2AB 1_555 1_555
C2H C2EB 1_555 1_555
C2XA C2C 1_555 1_555
C2CB C2F 1_555 1_555
C2K C2FB 1_555 1_555
C2A C2VA 1_555 1_555
C2ZA C2E 1_555 1_555
C2DB C2I 1_555 1_555
C2B C2YA 1_555 1_555
C2G C2BB 1_555 1_555
C2GB C2J 1_555 1_555

#END
