
#######################################################################
#
#                 Cambridge Crystallographic Data Centre
#                                CCDC 
#
#######################################################################
#
# If this CIF has been generated from an entry in the Cambridge 
# Structural Database, then it will include bibliographic, chemical, 
# crystal, experimental, refinement or atomic coordinate data resulting 
# from the CCDC's data processing and validation procedures.
#
#######################################################################

data_VULZOS
_chemical_formula_moiety         'C60 H12 In8 N24 O48,2(C3 H7 N1 O1)'
_chemical_name_systematic        
'dodecakis(\m~2~-4,5-Imidazoledicarboxylato)-octa-indium(iii) dimethylformamide solvate'
_symmetry_cell_setting           cubic
_symmetry_space_group_name_H-M   'P m -3 n'
_symmetry_Int_Tables_number      223
_space_group_name_Hall           '-P 4n 2 3'
loop_
_symmetry_equiv_pos_site_id
_symmetry_equiv_pos_as_xyz
1 x,y,z
2 -x,-y,z
3 -x,y,-z
4 x,-y,-z
5 z,x,y
6 z,-x,-y
7 -z,-x,y
8 -z,x,-y
9 y,z,x
10 -y,z,-x
11 y,-z,-x
12 -y,-z,x
13 1/2+y,1/2+x,1/2-z
14 1/2-y,1/2-x,1/2-z
15 1/2+y,1/2-x,1/2+z
16 1/2-y,1/2+x,1/2+z
17 1/2+x,1/2+z,1/2-y
18 1/2-x,1/2+z,1/2+y
19 1/2-x,1/2-z,1/2-y
20 1/2+x,1/2-z,1/2+y
21 1/2+z,1/2+y,1/2-x
22 1/2+z,1/2-y,1/2+x
23 1/2-z,1/2+y,1/2+x
24 1/2-z,1/2-y,1/2-x
25 -x,-y,-z
26 x,y,-z
27 x,-y,z
28 -x,y,z
29 -z,-x,-y
30 -z,x,y
31 z,x,-y
32 z,-x,y
33 -y,-z,-x
34 y,-z,x
35 -y,z,x
36 y,z,-x
37 1/2-y,1/2-x,1/2+z
38 1/2+y,1/2+x,1/2+z
39 1/2-y,1/2+x,1/2-z
40 1/2+y,1/2-x,1/2-z
41 1/2-x,1/2-z,1/2+y
42 1/2+x,1/2-z,1/2-y
43 1/2+x,1/2+z,1/2+y
44 1/2-x,1/2+z,1/2-y
45 1/2-z,1/2-y,1/2+x
46 1/2-z,1/2+y,1/2-x
47 1/2+z,1/2-y,1/2-x
48 1/2+z,1/2+y,1/2+x
_cell_length_a                   20.195(3)
_cell_length_b                   20.195(3)
_cell_length_c                   20.195(3)
_cell_angle_alpha                90
_cell_angle_beta                 90
_cell_angle_gamma                90
_cell_volume                     8236.29
_cell_formula_units_Z            2
loop_
_atom_site_label
_atom_site_type_symbol
_atom_site_fract_x
_atom_site_fract_y
_atom_site_fract_z
In1 In 0.33471(2) 0.33471(2) 0.33471(2)
N1 N 0.3260(4) 0.3352(4) 0.4438(3)
O1 O 0.2321(3) 0.3063(3) 0.3538(3)
O2 O 0.1569(3) 0.2766(4) 0.4331(3)
C1 C 0.2154(5) 0.2983(5) 0.4147(5)
C2 C 0.2652(4) 0.3154(4) 0.4656(4)
C3 C 0.3609(7) 0.3459(8) 0.5000
H1 H 0.4049 0.3595 0.5000
In1Z In 0.33471(2) 0.66529(2) 0.33471(2)
In1A In 0.66529(2) 0.66529(2) 0.33471(2)
In1X In 0.66529(2) 0.66529(2) 0.66529(2)
In1B In 0.66529(2) 0.33471(2) 0.66529(2)
In1Y In 0.33471(2) 0.33471(2) 0.66529(2)
In1C In 0.33471(2) 0.66529(2) 0.66529(2)
In1AA In 0.66529(2) 0.33471(2) 0.33471(2)
N1D N 0.4438(3) 0.3260(4) 0.3352(4)
N1H N 0.3352(4) 0.4438(3) 0.3260(4)
N1GA N 0.3352(4) 0.5562(3) 0.3260(4)
N1Z N 0.3260(4) 0.6648(4) 0.4438(3)
N1EA N 0.4438(3) 0.6740(4) 0.3352(4)
N1F N 0.5562(3) 0.6740(4) 0.3352(4)
N1K N 0.6648(4) 0.5562(3) 0.3260(4)
N1A N 0.6740(4) 0.6648(4) 0.4438(3)
N1X N 0.6740(4) 0.6648(4) 0.5562(3)
N1BA N 0.5562(3) 0.6740(4) 0.6648(4)
N1FA N 0.6648(4) 0.5562(3) 0.6740(4)
N1I N 0.6648(4) 0.4438(3) 0.6740(4)
N1B N 0.6740(4) 0.3352(4) 0.5562(3)
N1G N 0.5562(3) 0.3260(4) 0.6648(4)
N1DA N 0.4438(3) 0.3260(4) 0.6648(4)
N1IA N 0.3352(4) 0.4438(3) 0.6740(4)
N1Y N 0.3260(4) 0.3352(4) 0.5562(3)
N1J N 0.3352(4) 0.5562(3) 0.6740(4)
N1C N 0.3260(4) 0.6648(4) 0.5562(3)
N1E N 0.4438(3) 0.6740(4) 0.6648(4)
N1AA N 0.6740(4) 0.3352(4) 0.4438(3)
N1CA N 0.5562(3) 0.3260(4) 0.3352(4)
N1HA N 0.6648(4) 0.4438(3) 0.3260(4)
O1D O 0.3538(3) 0.2321(3) 0.3063(3)
O1H O 0.3063(3) 0.3538(3) 0.2321(3)
O1Z O 0.2321(3) 0.6937(3) 0.3538(3)
O1EA O 0.3538(3) 0.7679(3) 0.3063(3)
O1GA O 0.3063(3) 0.6462(3) 0.2321(3)
O1K O 0.6937(3) 0.6462(3) 0.2321(3)
O1A O 0.7679(3) 0.6937(3) 0.3538(3)
O1F O 0.6462(3) 0.7679(3) 0.3063(3)
O1BA O 0.6462(3) 0.7679(3) 0.6937(3)
O1FA O 0.6937(3) 0.6462(3) 0.7679(3)
O1X O 0.7679(3) 0.6937(3) 0.6462(3)
O1B O 0.7679(3) 0.3063(3) 0.6462(3)
O1G O 0.6462(3) 0.2321(3) 0.6937(3)
O1I O 0.6937(3) 0.3538(3) 0.7679(3)
O1IA O 0.3063(3) 0.3538(3) 0.7679(3)
O1Y O 0.2321(3) 0.3063(3) 0.6462(3)
O1DA O 0.3538(3) 0.2321(3) 0.6937(3)
O1C O 0.2321(3) 0.6937(3) 0.6462(3)
O1E O 0.3538(3) 0.7679(3) 0.6937(3)
O1J O 0.3063(3) 0.6462(3) 0.7679(3)
O1CA O 0.6462(3) 0.2321(3) 0.3063(3)
O1HA O 0.6937(3) 0.3538(3) 0.2321(3)
O1AA O 0.7679(3) 0.3063(3) 0.3538(3)
O2H O 0.2766(4) 0.4331(3) 0.1569(3)
O2GA O 0.2766(4) 0.5669(3) 0.1569(3)
O2EA O 0.4331(3) 0.8431(3) 0.2766(4)
O2F O 0.5669(3) 0.8431(3) 0.2766(4)
O2A O 0.8431(3) 0.7234(4) 0.4331(3)
O2X O 0.8431(3) 0.7234(4) 0.5669(3)
O2FA O 0.7234(4) 0.5669(3) 0.8431(3)
O2I O 0.7234(4) 0.4331(3) 0.8431(3)
O2G O 0.5669(3) 0.1569(3) 0.7234(4)
O2DA O 0.4331(3) 0.1569(3) 0.7234(4)
O2Y O 0.1569(3) 0.2766(4) 0.5669(3)
O2IA O 0.2766(4) 0.4331(3) 0.8431(3)
O2J O 0.2766(4) 0.5669(3) 0.8431(3)
O2E O 0.4331(3) 0.8431(3) 0.7234(4)
O2C O 0.1569(3) 0.7234(4) 0.5669(3)
O2B O 0.8431(3) 0.2766(4) 0.5669(3)
O2AA O 0.8431(3) 0.2766(4) 0.4331(3)
O2HA O 0.7234(4) 0.4331(3) 0.1569(3)
O2CA O 0.5669(3) 0.1569(3) 0.2766(4)
O2BA O 0.5669(3) 0.8431(3) 0.7234(4)
O2K O 0.7234(4) 0.5669(3) 0.1569(3)
O2Z O 0.1569(3) 0.7234(4) 0.4331(3)
O2D O 0.4331(3) 0.1569(3) 0.2766(4)
C1D C 0.4147(5) 0.2154(5) 0.2983(5)
C1H C 0.2983(5) 0.4147(5) 0.2154(5)
C1Z C 0.2154(5) 0.7017(5) 0.4147(5)
C1EA C 0.4147(5) 0.7846(5) 0.2983(5)
C1GA C 0.2983(5) 0.5853(5) 0.2154(5)
C1K C 0.7017(5) 0.5853(5) 0.2154(5)
C1A C 0.7846(5) 0.7017(5) 0.4147(5)
C1F C 0.5853(5) 0.7846(5) 0.2983(5)
C1BA C 0.5853(5) 0.7846(5) 0.7017(5)
C1FA C 0.7017(5) 0.5853(5) 0.7846(5)
C1X C 0.7846(5) 0.7017(5) 0.5853(5)
C1B C 0.7846(5) 0.2983(5) 0.5853(5)
C1G C 0.5853(5) 0.2154(5) 0.7017(5)
C1I C 0.7017(5) 0.4147(5) 0.7846(5)
C1IA C 0.2983(5) 0.4147(5) 0.7846(5)
C1Y C 0.2154(5) 0.2983(5) 0.5853(5)
C1DA C 0.4147(5) 0.2154(5) 0.7017(5)
C1C C 0.2154(5) 0.7017(5) 0.5853(5)
C1E C 0.4147(5) 0.7846(5) 0.7017(5)
C1J C 0.2983(5) 0.5853(5) 0.7846(5)
C1CA C 0.5853(5) 0.2154(5) 0.2983(5)
C1HA C 0.7017(5) 0.4147(5) 0.2154(5)
C1AA C 0.7846(5) 0.2983(5) 0.4147(5)
C2D C 0.4656(4) 0.2652(4) 0.3154(4)
C2H C 0.3154(4) 0.4656(4) 0.2652(4)
C2GA C 0.3154(4) 0.5344(4) 0.2652(4)
C2Z C 0.2652(4) 0.6846(4) 0.4656(4)
C2EA C 0.4656(4) 0.7348(4) 0.3154(4)
C2F C 0.5344(4) 0.7348(4) 0.3154(4)
C2K C 0.6846(4) 0.5344(4) 0.2652(4)
C2A C 0.7348(4) 0.6846(4) 0.4656(4)
C2X C 0.7348(4) 0.6846(4) 0.5344(4)
C2BA C 0.5344(4) 0.7348(4) 0.6846(4)
C2FA C 0.6846(4) 0.5344(4) 0.7348(4)
C2I C 0.6846(4) 0.4656(4) 0.7348(4)
C2B C 0.7348(4) 0.3154(4) 0.5344(4)
C2G C 0.5344(4) 0.2652(4) 0.6846(4)
C2DA C 0.4656(4) 0.2652(4) 0.6846(4)
C2IA C 0.3154(4) 0.4656(4) 0.7348(4)
C2Y C 0.2652(4) 0.3154(4) 0.5344(4)
C2J C 0.3154(4) 0.5344(4) 0.7348(4)
C2C C 0.2652(4) 0.6846(4) 0.5344(4)
C2E C 0.4656(4) 0.7348(4) 0.6846(4)
C2AA C 0.7348(4) 0.3154(4) 0.4656(4)
C2CA C 0.5344(4) 0.2652(4) 0.3154(4)
C2HA C 0.6846(4) 0.4656(4) 0.2652(4)
C3J C 0.3459(8) 0.5000 0.6391(7)
C3E C 0.5000 0.6391(7) 0.6541(8)
C3C C 0.3609(7) 0.6541(8) 0.5000
C3G C 0.5000 0.3609(7) 0.6541(8)
C3B C 0.6391(7) 0.3459(8) 0.5000
C3K C 0.6541(8) 0.5000 0.3609(7)
C3D C 0.5000 0.3609(7) 0.3459(8)
C3I C 0.6541(8) 0.5000 0.6391(7)
C3A C 0.6391(7) 0.6541(8) 0.5000
C3F C 0.5000 0.6391(7) 0.3459(8)
C3H C 0.3459(8) 0.5000 0.3609(7)
H1E H 0.5000 0.5951 0.6405
H1C H 0.4049 0.6405 0.5000
H1J H 0.3595 0.5000 0.5951
H1G H 0.5000 0.4049 0.6405
H1K H 0.6405 0.5000 0.4049
H1D H 0.5000 0.4049 0.3595
H1B H 0.5951 0.3595 0.5000
H1I H 0.6405 0.5000 0.5951
H1A H 0.5951 0.6405 0.5000
H1F H 0.5000 0.5951 0.3595
H1H H 0.3595 0.5000 0.4049
loop_
_geom_bond_atom_site_label_1
_geom_bond_atom_site_label_2
_geom_bond_site_symmetry_1
_geom_bond_site_symmetry_2
In1 N1 1_555 1_555
N1 C2 1_555 1_555
O1 In1 1_555 1_555
O2 C1 1_555 1_555
C1 O1 1_555 1_555
C2 C1 1_555 1_555
C3 N1 1_555 1_555
H1 C3 1_555 1_555
In1Z N1GA 1_555 1_555
In1A N1F 1_555 1_555
In1X N1X 1_555 1_555
In1B N1I 1_555 1_555
In1Y N1DA 1_555 1_555
In1C N1J 1_555 1_555
In1AA N1AA 1_555 1_555
N1D In1 1_555 1_555
N1H In1 1_555 1_555
N1GA C2GA 1_555 1_555
N1Z In1Z 1_555 1_555
N1EA In1Z 1_555 1_555
N1F C2F 1_555 1_555
N1K In1A 1_555 1_555
N1A In1A 1_555 1_555
N1X C2X 1_555 1_555
N1BA In1X 1_555 1_555
N1FA In1X 1_555 1_555
N1I C2I 1_555 1_555
N1B In1B 1_555 1_555
N1G In1B 1_555 1_555
N1DA C2DA 1_555 1_555
N1IA In1Y 1_555 1_555
N1Y C3 1_555 1_555
N1J C2J 1_555 1_555
N1C In1C 1_555 1_555
N1E In1C 1_555 1_555
N1AA C2AA 1_555 1_555
N1CA In1AA 1_555 1_555
N1HA In1AA 1_555 1_555
O1D In1 1_555 1_555
O1H In1 1_555 1_555
O1Z In1Z 1_555 1_555
O1EA In1Z 1_555 1_555
O1GA In1Z 1_555 1_555
O1K In1A 1_555 1_555
O1A In1A 1_555 1_555
O1F In1A 1_555 1_555
O1BA In1X 1_555 1_555
O1FA In1X 1_555 1_555
O1X In1X 1_555 1_555
O1B In1B 1_555 1_555
O1G In1B 1_555 1_555
O1I In1B 1_555 1_555
O1IA In1Y 1_555 1_555
O1Y In1Y 1_555 1_555
O1DA In1Y 1_555 1_555
O1C In1C 1_555 1_555
O1E In1C 1_555 1_555
O1J In1C 1_555 1_555
O1CA In1AA 1_555 1_555
O1HA In1AA 1_555 1_555
O1AA In1AA 1_555 1_555
O2H C1H 1_555 1_555
O2GA C1GA 1_555 1_555
O2EA C1EA 1_555 1_555
O2F C1F 1_555 1_555
O2A C1A 1_555 1_555
O2X C1X 1_555 1_555
O2FA C1FA 1_555 1_555
O2I C1I 1_555 1_555
O2G C1G 1_555 1_555
O2DA C1DA 1_555 1_555
O2Y C1Y 1_555 1_555
O2IA C1IA 1_555 1_555
O2J C1J 1_555 1_555
O2E C1E 1_555 1_555
O2C C1C 1_555 1_555
O2B C1B 1_555 1_555
O2AA C1AA 1_555 1_555
O2HA C1HA 1_555 1_555
O2CA C1CA 1_555 1_555
O2BA C1BA 1_555 1_555
O2K C1K 1_555 1_555
O2Z C1Z 1_555 1_555
O2D C1D 1_555 1_555
C1D O1D 1_555 1_555
C1H O1H 1_555 1_555
C1Z O1Z 1_555 1_555
C1EA O1EA 1_555 1_555
C1GA O1GA 1_555 1_555
C1K O1K 1_555 1_555
C1A O1A 1_555 1_555
C1F O1F 1_555 1_555
C1BA O1BA 1_555 1_555
C1FA O1FA 1_555 1_555
C1X O1X 1_555 1_555
C1B O1B 1_555 1_555
C1G O1G 1_555 1_555
C1I O1I 1_555 1_555
C1IA O1IA 1_555 1_555
C1Y O1Y 1_555 1_555
C1DA O1DA 1_555 1_555
C1C O1C 1_555 1_555
C1E O1E 1_555 1_555
C1J O1J 1_555 1_555
C1CA O1CA 1_555 1_555
C1HA O1HA 1_555 1_555
C1AA O1AA 1_555 1_555
C2D N1D 1_555 1_555
C2H N1H 1_555 1_555
C2GA C1GA 1_555 1_555
C2Z N1Z 1_555 1_555
C2EA N1EA 1_555 1_555
C2F C1F 1_555 1_555
C2K N1K 1_555 1_555
C2A N1A 1_555 1_555
C2X C1X 1_555 1_555
C2BA N1BA 1_555 1_555
C2FA N1FA 1_555 1_555
C2I C1I 1_555 1_555
C2B N1B 1_555 1_555
C2G N1G 1_555 1_555
C2DA C1DA 1_555 1_555
C2IA N1IA 1_555 1_555
C2Y C2 1_555 1_555
C2J C1J 1_555 1_555
C2C N1C 1_555 1_555
C2E N1E 1_555 1_555
C2AA C1AA 1_555 1_555
C2CA N1CA 1_555 1_555
C2HA N1HA 1_555 1_555
C3J N1IA 1_555 1_555
C3E N1BA 1_555 1_555
C3C N1Z 1_555 1_555
C3G N1G 1_555 1_555
C3B N1B 1_555 1_555
C3K N1K 1_555 1_555
C3D N1D 1_555 1_555
C3I N1FA 1_555 1_555
C3A N1A 1_555 1_555
C3F N1EA 1_555 1_555
C3H N1H 1_555 1_555
H1E C3E 1_555 1_555
H1C C3C 1_555 1_555
H1J C3J 1_555 1_555
H1G C3G 1_555 1_555
H1K C3K 1_555 1_555
H1D C3D 1_555 1_555
H1B C3B 1_555 1_555
H1I C3I 1_555 1_555
H1A C3A 1_555 1_555
H1F C3F 1_555 1_555
H1H C3H 1_555 1_555
In1Y N1Y 1_555 1_555
N1GA C3H 1_555 1_555
N1F C3F 1_555 1_555
N1X C3A 1_555 1_555
N1I C3I 1_555 1_555
N1DA C3G 1_555 1_555
N1Y C2Y 1_555 1_555
N1J C3J 1_555 1_555
N1C C3C 1_555 1_555
N1E C3E 1_555 1_555
N1AA C3B 1_555 1_555
N1CA C3D 1_555 1_555
N1HA C3K 1_555 1_555
C1D C2D 1_555 1_555
C1H C2H 1_555 1_555
C1Z C2Z 1_555 1_555
C1EA C2EA 1_555 1_555
C1K C2K 1_555 1_555
C1A C2A 1_555 1_555
C1BA C2BA 1_555 1_555
C1FA C2FA 1_555 1_555
C1B C2B 1_555 1_555
C1G C2G 1_555 1_555
C1IA C2IA 1_555 1_555
C1Y C2Y 1_555 1_555
C1C C2C 1_555 1_555
C1E C2E 1_555 1_555
C1CA C2CA 1_555 1_555
C1HA C2HA 1_555 1_555
C2D C2CA 1_555 1_555
C2H C2GA 1_555 1_555
C2Z C2C 1_555 1_555
C2EA C2F 1_555 1_555
C2K C2HA 1_555 1_555
C2A C2X 1_555 1_555
C2BA C2E 1_555 1_555
C2FA C2I 1_555 1_555
C2B C2AA 1_555 1_555
C2G C2DA 1_555 1_555
C2IA C2J 1_555 1_555

#END
