# generated using pymatgen
data_In8H180C132(N35O24)3
_symmetry_space_group_name_H-M   'P 1'
_cell_length_a   20.19500000
_cell_length_b   20.19500000
_cell_length_c   20.19500000
_cell_angle_alpha   90.00000000
_cell_angle_beta   90.00000000
_cell_angle_gamma   90.00000000
_symmetry_Int_Tables_number   1
_chemical_formula_structural   In8H180C132(N35O24)3
_chemical_formula_sum   'In16 H360 C264 N210 O144'
_cell_volume   8236.28891488
_cell_formula_units_Z   2
loop_
 _symmetry_equiv_pos_site_id
 _symmetry_equiv_pos_as_xyz
  1  'x, y, z'
loop_
 _atom_site_type_symbol
 _atom_site_label
 _atom_site_symmetry_multiplicity
 _atom_site_fract_x
 _atom_site_fract_y
 _atom_site_fract_z
 _atom_site_occupancy
  In  In1  1  0.334710  0.334710  0.334710  1.0
  In  In2  1  0.665290  0.665290  0.334710  1.0
  In  In3  1  0.665290  0.334710  0.665290  1.0
  In  In4  1  0.334710  0.665290  0.665290  1.0
  In  In5  1  0.834710  0.834710  0.165290  1.0
  In  In6  1  0.165290  0.165290  0.165290  1.0
  In  In7  1  0.834710  0.165290  0.834710  1.0
  In  In8  1  0.165290  0.834710  0.834710  1.0
  In  In9  1  0.665290  0.665290  0.665290  1.0
  In  In10  1  0.334710  0.334710  0.665290  1.0
  In  In11  1  0.334710  0.665290  0.334710  1.0
  In  In12  1  0.665290  0.334710  0.334710  1.0
  In  In13  1  0.165290  0.165290  0.834710  1.0
  In  In14  1  0.834710  0.834710  0.834710  1.0
  In  In15  1  0.165290  0.834710  0.165290  1.0
  In  In16  1  0.834710  0.165290  0.165290  1.0
  H  H17  1  0.830200  0.519500  0.441000  1
  H  H18  1  0.169800  0.480500  0.441000  1
  H  H19  1  0.169800  0.519500  0.559000  1
  H  H20  1  0.830200  0.480500  0.559000  1
  H  H21  1  0.441000  0.830200  0.519500  1
  H  H22  1  0.441000  0.169800  0.480500  1
  H  H23  1  0.559000  0.169800  0.519500  1
  H  H24  1  0.559000  0.830200  0.480500  1
  H  H25  1  0.519500  0.441000  0.830200  1
  H  H26  1  0.480500  0.441000  0.169800  1
  H  H27  1  0.519500  0.559000  0.169800  1
  H  H28  1  0.480500  0.559000  0.830200  1
  H  H29  1  0.019500  0.330200  0.059000  1
  H  H30  1  0.980500  0.669800  0.059000  1
  H  H31  1  0.019500  0.669800  0.941000  1
  H  H32  1  0.980500  0.330200  0.941000  1
  H  H33  1  0.330200  0.941000  0.980500  1
  H  H34  1  0.669800  0.941000  0.019500  1
  H  H35  1  0.669800  0.059000  0.980500  1
  H  H36  1  0.330200  0.059000  0.019500  1
  H  H37  1  0.941000  0.019500  0.669800  1
  H  H38  1  0.941000  0.980500  0.330200  1
  H  H39  1  0.059000  0.019500  0.330200  1
  H  H40  1  0.059000  0.980500  0.669800  1
  H  H41  1  0.169800  0.480500  0.559000  1
  H  H42  1  0.830200  0.519500  0.559000  1
  H  H43  1  0.830200  0.480500  0.441000  1
  H  H44  1  0.169800  0.519500  0.441000  1
  H  H45  1  0.559000  0.169800  0.480500  1
  H  H46  1  0.559000  0.830200  0.519500  1
  H  H47  1  0.441000  0.830200  0.480500  1
  H  H48  1  0.441000  0.169800  0.519500  1
  H  H49  1  0.480500  0.559000  0.169800  1
  H  H50  1  0.519500  0.559000  0.830200  1
  H  H51  1  0.480500  0.441000  0.830200  1
  H  H52  1  0.519500  0.441000  0.169800  1
  H  H53  1  0.980500  0.669800  0.941000  1
  H  H54  1  0.019500  0.330200  0.941000  1
  H  H55  1  0.980500  0.330200  0.059000  1
  H  H56  1  0.019500  0.669800  0.059000  1
  H  H57  1  0.669800  0.059000  0.019500  1
  H  H58  1  0.330200  0.059000  0.980500  1
  H  H59  1  0.330200  0.941000  0.019500  1
  H  H60  1  0.669800  0.941000  0.980500  1
  H  H61  1  0.059000  0.980500  0.330200  1
  H  H62  1  0.059000  0.019500  0.669800  1
  H  H63  1  0.941000  0.980500  0.669800  1
  H  H64  1  0.941000  0.019500  0.330200  1
  H  H65  1  0.958100  0.505500  0.517200  1
  H  H66  1  0.041900  0.494500  0.517200  1
  H  H67  1  0.041900  0.505500  0.482800  1
  H  H68  1  0.958100  0.494500  0.482800  1
  H  H69  1  0.517200  0.958100  0.505500  1
  H  H70  1  0.517200  0.041900  0.494500  1
  H  H71  1  0.482800  0.041900  0.505500  1
  H  H72  1  0.482800  0.958100  0.494500  1
  H  H73  1  0.505500  0.517200  0.958100  1
  H  H74  1  0.494500  0.517200  0.041900  1
  H  H75  1  0.505500  0.482800  0.041900  1
  H  H76  1  0.494500  0.482800  0.958100  1
  H  H77  1  0.005500  0.458100  0.982800  1
  H  H78  1  0.994500  0.541900  0.982800  1
  H  H79  1  0.005500  0.541900  0.017200  1
  H  H80  1  0.994500  0.458100  0.017200  1
  H  H81  1  0.458100  0.017200  0.994500  1
  H  H82  1  0.541900  0.017200  0.005500  1
  H  H83  1  0.541900  0.982800  0.994500  1
  H  H84  1  0.458100  0.982800  0.005500  1
  H  H85  1  0.017200  0.005500  0.541900  1
  H  H86  1  0.017200  0.994500  0.458100  1
  H  H87  1  0.982800  0.005500  0.458100  1
  H  H88  1  0.982800  0.994500  0.541900  1
  H  H89  1  0.041900  0.494500  0.482800  1
  H  H90  1  0.958100  0.505500  0.482800  1
  H  H91  1  0.958100  0.494500  0.517200  1
  H  H92  1  0.041900  0.505500  0.517200  1
  H  H93  1  0.482800  0.041900  0.494500  1
  H  H94  1  0.482800  0.958100  0.505500  1
  H  H95  1  0.517200  0.958100  0.494500  1
  H  H96  1  0.517200  0.041900  0.505500  1
  H  H97  1  0.494500  0.482800  0.041900  1
  H  H98  1  0.505500  0.482800  0.958100  1
  H  H99  1  0.494500  0.517200  0.958100  1
  H  H100  1  0.505500  0.517200  0.041900  1
  H  H101  1  0.994500  0.541900  0.017200  1
  H  H102  1  0.005500  0.458100  0.017200  1
  H  H103  1  0.994500  0.458100  0.982800  1
  H  H104  1  0.005500  0.541900  0.982800  1
  H  H105  1  0.541900  0.982800  0.005500  1
  H  H106  1  0.458100  0.982800  0.994500  1
  H  H107  1  0.458100  0.017200  0.005500  1
  H  H108  1  0.541900  0.017200  0.994500  1
  H  H109  1  0.982800  0.994500  0.458100  1
  H  H110  1  0.982800  0.005500  0.541900  1
  H  H111  1  0.017200  0.994500  0.541900  1
  H  H112  1  0.017200  0.005500  0.458100  1
  H  H113  1  0.936500  0.433000  0.559400  1
  H  H114  1  0.063500  0.567000  0.559400  1
  H  H115  1  0.063500  0.433000  0.440600  1
  H  H116  1  0.936500  0.567000  0.440600  1
  H  H117  1  0.559400  0.936500  0.433000  1
  H  H118  1  0.559400  0.063500  0.567000  1
  H  H119  1  0.440600  0.063500  0.433000  1
  H  H120  1  0.440600  0.936500  0.567000  1
  H  H121  1  0.433000  0.559400  0.936500  1
  H  H122  1  0.567000  0.559400  0.063500  1
  H  H123  1  0.433000  0.440600  0.063500  1
  H  H124  1  0.567000  0.440600  0.936500  1
  H  H125  1  0.933000  0.436500  0.940600  1
  H  H126  1  0.067000  0.563500  0.940600  1
  H  H127  1  0.933000  0.563500  0.059400  1
  H  H128  1  0.067000  0.436500  0.059400  1
  H  H129  1  0.436500  0.059400  0.067000  1
  H  H130  1  0.563500  0.059400  0.933000  1
  H  H131  1  0.563500  0.940600  0.067000  1
  H  H132  1  0.436500  0.940600  0.933000  1
  H  H133  1  0.059400  0.933000  0.563500  1
  H  H134  1  0.059400  0.067000  0.436500  1
  H  H135  1  0.940600  0.933000  0.436500  1
  H  H136  1  0.940600  0.067000  0.563500  1
  H  H137  1  0.063500  0.567000  0.440600  1
  H  H138  1  0.936500  0.433000  0.440600  1
  H  H139  1  0.936500  0.567000  0.559400  1
  H  H140  1  0.063500  0.433000  0.559400  1
  H  H141  1  0.440600  0.063500  0.567000  1
  H  H142  1  0.440600  0.936500  0.433000  1
  H  H143  1  0.559400  0.936500  0.567000  1
  H  H144  1  0.559400  0.063500  0.433000  1
  H  H145  1  0.567000  0.440600  0.063500  1
  H  H146  1  0.433000  0.440600  0.936500  1
  H  H147  1  0.567000  0.559400  0.936500  1
  H  H148  1  0.433000  0.559400  0.063500  1
  H  H149  1  0.067000  0.563500  0.059400  1
  H  H150  1  0.933000  0.436500  0.059400  1
  H  H151  1  0.067000  0.436500  0.940600  1
  H  H152  1  0.933000  0.563500  0.940600  1
  H  H153  1  0.563500  0.940600  0.933000  1
  H  H154  1  0.436500  0.940600  0.067000  1
  H  H155  1  0.436500  0.059400  0.933000  1
  H  H156  1  0.563500  0.059400  0.067000  1
  H  H157  1  0.940600  0.067000  0.436500  1
  H  H158  1  0.940600  0.933000  0.563500  1
  H  H159  1  0.059400  0.067000  0.563500  1
  H  H160  1  0.059400  0.933000  0.436500  1
  H  H161  1  0.925200  0.433300  0.482600  1
  H  H162  1  0.074800  0.566700  0.482600  1
  H  H163  1  0.074800  0.433300  0.517400  1
  H  H164  1  0.925200  0.566700  0.517400  1
  H  H165  1  0.482600  0.925200  0.433300  1
  H  H166  1  0.482600  0.074800  0.566700  1
  H  H167  1  0.517400  0.074800  0.433300  1
  H  H168  1  0.517400  0.925200  0.566700  1
  H  H169  1  0.433300  0.482600  0.925200  1
  H  H170  1  0.566700  0.482600  0.074800  1
  H  H171  1  0.433300  0.517400  0.074800  1
  H  H172  1  0.566700  0.517400  0.925200  1
  H  H173  1  0.933300  0.425200  0.017400  1
  H  H174  1  0.066700  0.574800  0.017400  1
  H  H175  1  0.933300  0.574800  0.982600  1
  H  H176  1  0.066700  0.425200  0.982600  1
  H  H177  1  0.425200  0.982600  0.066700  1
  H  H178  1  0.574800  0.982600  0.933300  1
  H  H179  1  0.574800  0.017400  0.066700  1
  H  H180  1  0.425200  0.017400  0.933300  1
  H  H181  1  0.982600  0.933300  0.574800  1
  H  H182  1  0.982600  0.066700  0.425200  1
  H  H183  1  0.017400  0.933300  0.425200  1
  H  H184  1  0.017400  0.066700  0.574800  1
  H  H185  1  0.074800  0.566700  0.517400  1
  H  H186  1  0.925200  0.433300  0.517400  1
  H  H187  1  0.925200  0.566700  0.482600  1
  H  H188  1  0.074800  0.433300  0.482600  1
  H  H189  1  0.517400  0.074800  0.566700  1
  H  H190  1  0.517400  0.925200  0.433300  1
  H  H191  1  0.482600  0.925200  0.566700  1
  H  H192  1  0.482600  0.074800  0.433300  1
  H  H193  1  0.566700  0.517400  0.074800  1
  H  H194  1  0.433300  0.517400  0.925200  1
  H  H195  1  0.566700  0.482600  0.925200  1
  H  H196  1  0.433300  0.482600  0.074800  1
  H  H197  1  0.066700  0.574800  0.982600  1
  H  H198  1  0.933300  0.425200  0.982600  1
  H  H199  1  0.066700  0.425200  0.017400  1
  H  H200  1  0.933300  0.574800  0.017400  1
  H  H201  1  0.574800  0.017400  0.933300  1
  H  H202  1  0.425200  0.017400  0.066700  1
  H  H203  1  0.425200  0.982600  0.933300  1
  H  H204  1  0.574800  0.982600  0.066700  1
  H  H205  1  0.017400  0.066700  0.425200  1
  H  H206  1  0.017400  0.933300  0.574800  1
  H  H207  1  0.982600  0.066700  0.574800  1
  H  H208  1  0.982600  0.933300  0.425200  1
  H  H209  1  0.798000  0.527500  0.402000  1
  H  H210  1  0.202000  0.472500  0.402000  1
  H  H211  1  0.202000  0.527500  0.598000  1
  H  H212  1  0.798000  0.472500  0.598000  1
  H  H213  1  0.402000  0.798000  0.527500  1
  H  H214  1  0.402000  0.202000  0.472500  1
  H  H215  1  0.598000  0.202000  0.527500  1
  H  H216  1  0.598000  0.798000  0.472500  1
  H  H217  1  0.527500  0.402000  0.798000  1
  H  H218  1  0.472500  0.402000  0.202000  1
  H  H219  1  0.527500  0.598000  0.202000  1
  H  H220  1  0.472500  0.598000  0.798000  1
  H  H221  1  0.027500  0.298000  0.098000  1
  H  H222  1  0.972500  0.702000  0.098000  1
  H  H223  1  0.027500  0.702000  0.902000  1
  H  H224  1  0.972500  0.298000  0.902000  1
  H  H225  1  0.298000  0.902000  0.972500  1
  H  H226  1  0.702000  0.902000  0.027500  1
  H  H227  1  0.702000  0.098000  0.972500  1
  H  H228  1  0.298000  0.098000  0.027500  1
  H  H229  1  0.902000  0.027500  0.702000  1
  H  H230  1  0.902000  0.972500  0.298000  1
  H  H231  1  0.098000  0.027500  0.298000  1
  H  H232  1  0.098000  0.972500  0.702000  1
  H  H233  1  0.202000  0.472500  0.598000  1
  H  H234  1  0.798000  0.527500  0.598000  1
  H  H235  1  0.798000  0.472500  0.402000  1
  H  H236  1  0.202000  0.527500  0.402000  1
  H  H237  1  0.598000  0.202000  0.472500  1
  H  H238  1  0.598000  0.798000  0.527500  1
  H  H239  1  0.402000  0.798000  0.472500  1
  H  H240  1  0.402000  0.202000  0.527500  1
  H  H241  1  0.472500  0.598000  0.202000  1
  H  H242  1  0.527500  0.598000  0.798000  1
  H  H243  1  0.472500  0.402000  0.798000  1
  H  H244  1  0.527500  0.402000  0.202000  1
  H  H245  1  0.972500  0.702000  0.902000  1
  H  H246  1  0.027500  0.298000  0.902000  1
  H  H247  1  0.972500  0.298000  0.098000  1
  H  H248  1  0.027500  0.702000  0.098000  1
  H  H249  1  0.702000  0.098000  0.027500  1
  H  H250  1  0.298000  0.098000  0.972500  1
  H  H251  1  0.298000  0.902000  0.027500  1
  H  H252  1  0.702000  0.902000  0.972500  1
  H  H253  1  0.098000  0.972500  0.298000  1
  H  H254  1  0.098000  0.027500  0.702000  1
  H  H255  1  0.902000  0.972500  0.702000  1
  H  H256  1  0.902000  0.027500  0.298000  1
  H  H257  1  0.842200  0.470500  0.373400  1
  H  H258  1  0.157800  0.529500  0.373400  1
  H  H259  1  0.157800  0.470500  0.626600  1
  H  H260  1  0.842200  0.529500  0.626600  1
  H  H261  1  0.373400  0.842200  0.470500  1
  H  H262  1  0.373400  0.157800  0.529500  1
  H  H263  1  0.626600  0.157800  0.470500  1
  H  H264  1  0.626600  0.842200  0.529500  1
  H  H265  1  0.470500  0.373400  0.842200  1
  H  H266  1  0.529500  0.373400  0.157800  1
  H  H267  1  0.470500  0.626600  0.157800  1
  H  H268  1  0.529500  0.626600  0.842200  1
  H  H269  1  0.970500  0.342200  0.126600  1
  H  H270  1  0.029500  0.657800  0.126600  1
  H  H271  1  0.970500  0.657800  0.873400  1
  H  H272  1  0.029500  0.342200  0.873400  1
  H  H273  1  0.342200  0.873400  0.029500  1
  H  H274  1  0.657800  0.873400  0.970500  1
  H  H275  1  0.657800  0.126600  0.029500  1
  H  H276  1  0.342200  0.126600  0.970500  1
  H  H277  1  0.873400  0.970500  0.657800  1
  H  H278  1  0.873400  0.029500  0.342200  1
  H  H279  1  0.126600  0.970500  0.342200  1
  H  H280  1  0.126600  0.029500  0.657800  1
  H  H281  1  0.157800  0.529500  0.626600  1
  H  H282  1  0.842200  0.470500  0.626600  1
  H  H283  1  0.842200  0.529500  0.373400  1
  H  H284  1  0.157800  0.470500  0.373400  1
  H  H285  1  0.626600  0.157800  0.529500  1
  H  H286  1  0.626600  0.842200  0.470500  1
  H  H287  1  0.373400  0.842200  0.529500  1
  H  H288  1  0.373400  0.157800  0.470500  1
  H  H289  1  0.529500  0.626600  0.157800  1
  H  H290  1  0.470500  0.626600  0.842200  1
  H  H291  1  0.529500  0.373400  0.842200  1
  H  H292  1  0.470500  0.373400  0.157800  1
  H  H293  1  0.029500  0.657800  0.873400  1
  H  H294  1  0.970500  0.342200  0.873400  1
  H  H295  1  0.029500  0.342200  0.126600  1
  H  H296  1  0.970500  0.657800  0.126600  1
  H  H297  1  0.657800  0.126600  0.970500  1
  H  H298  1  0.342200  0.126600  0.029500  1
  H  H299  1  0.342200  0.873400  0.970500  1
  H  H300  1  0.657800  0.873400  0.029500  1
  H  H301  1  0.126600  0.029500  0.342200  1
  H  H302  1  0.126600  0.970500  0.657800  1
  H  H303  1  0.873400  0.029500  0.657800  1
  H  H304  1  0.873400  0.970500  0.342200  1
  H  H305  1  0.872600  0.540900  0.385100  1
  H  H306  1  0.127400  0.459100  0.385100  1
  H  H307  1  0.127400  0.540900  0.614900  1
  H  H308  1  0.872600  0.459100  0.614900  1
  H  H309  1  0.385100  0.872600  0.540900  1
  H  H310  1  0.385100  0.127400  0.459100  1
  H  H311  1  0.614900  0.127400  0.540900  1
  H  H312  1  0.614900  0.872600  0.459100  1
  H  H313  1  0.540900  0.385100  0.872600  1
  H  H314  1  0.459100  0.385100  0.127400  1
  H  H315  1  0.540900  0.614900  0.127400  1
  H  H316  1  0.459100  0.614900  0.872600  1
  H  H317  1  0.040900  0.372600  0.114900  1
  H  H318  1  0.959100  0.627400  0.114900  1
  H  H319  1  0.040900  0.627400  0.885100  1
  H  H320  1  0.959100  0.372600  0.885100  1
  H  H321  1  0.372600  0.885100  0.959100  1
  H  H322  1  0.627400  0.885100  0.040900  1
  H  H323  1  0.627400  0.114900  0.959100  1
  H  H324  1  0.372600  0.114900  0.040900  1
  H  H325  1  0.885100  0.040900  0.627400  1
  H  H326  1  0.885100  0.959100  0.372600  1
  H  H327  1  0.114900  0.040900  0.372600  1
  H  H328  1  0.114900  0.959100  0.627400  1
  H  H329  1  0.127400  0.459100  0.614900  1
  H  H330  1  0.872600  0.540900  0.614900  1
  H  H331  1  0.872600  0.459100  0.385100  1
  H  H332  1  0.127400  0.540900  0.385100  1
  H  H333  1  0.614900  0.127400  0.459100  1
  H  H334  1  0.614900  0.872600  0.540900  1
  H  H335  1  0.385100  0.872600  0.459100  1
  H  H336  1  0.385100  0.127400  0.540900  1
  H  H337  1  0.459100  0.614900  0.127400  1
  H  H338  1  0.540900  0.614900  0.872600  1
  H  H339  1  0.459100  0.385100  0.872600  1
  H  H340  1  0.540900  0.385100  0.127400  1
  H  H341  1  0.959100  0.627400  0.885100  1
  H  H342  1  0.040900  0.372600  0.885100  1
  H  H343  1  0.959100  0.372600  0.114900  1
  H  H344  1  0.040900  0.627400  0.114900  1
  H  H345  1  0.627400  0.114900  0.040900  1
  H  H346  1  0.372600  0.114900  0.959100  1
  H  H347  1  0.372600  0.885100  0.040900  1
  H  H348  1  0.627400  0.885100  0.959100  1
  H  H349  1  0.114900  0.959100  0.372600  1
  H  H350  1  0.114900  0.040900  0.627400  1
  H  H351  1  0.885100  0.959100  0.627400  1
  H  H352  1  0.885100  0.040900  0.372600  1
  H  H353  1  0.404900  0.359500  0.500000  1.0
  H  H354  1  0.595100  0.640500  0.500000  1.0
  H  H355  1  0.595100  0.359500  0.500000  1.0
  H  H356  1  0.404900  0.640500  0.500000  1.0
  H  H357  1  0.500000  0.404900  0.359500  1.0
  H  H358  1  0.500000  0.595100  0.640500  1.0
  H  H359  1  0.500000  0.595100  0.359500  1.0
  H  H360  1  0.500000  0.404900  0.640500  1.0
  H  H361  1  0.359500  0.500000  0.404900  1.0
  H  H362  1  0.640500  0.500000  0.595100  1.0
  H  H363  1  0.359500  0.500000  0.595100  1.0
  H  H364  1  0.640500  0.500000  0.404900  1.0
  H  H365  1  0.859500  0.904900  0.000000  1.0
  H  H366  1  0.140500  0.095100  0.000000  1.0
  H  H367  1  0.859500  0.095100  0.000000  1.0
  H  H368  1  0.140500  0.904900  0.000000  1.0
  H  H369  1  0.904900  0.000000  0.140500  1.0
  H  H370  1  0.095100  0.000000  0.859500  1.0
  H  H371  1  0.095100  0.000000  0.140500  1.0
  H  H372  1  0.904900  0.000000  0.859500  1.0
  H  H373  1  0.000000  0.859500  0.095100  1.0
  H  H374  1  0.000000  0.140500  0.904900  1.0
  H  H375  1  0.000000  0.859500  0.904900  1.0
  H  H376  1  0.000000  0.140500  0.095100  1.0
  C  C377  1  0.817400  0.495000  0.483000  1
  C  C378  1  0.182600  0.505000  0.483000  1
  C  C379  1  0.182600  0.495000  0.517000  1
  C  C380  1  0.817400  0.505000  0.517000  1
  C  C381  1  0.483000  0.817400  0.495000  1
  C  C382  1  0.483000  0.182600  0.505000  1
  C  C383  1  0.517000  0.182600  0.495000  1
  C  C384  1  0.517000  0.817400  0.505000  1
  C  C385  1  0.495000  0.483000  0.817400  1
  C  C386  1  0.505000  0.483000  0.182600  1
  C  C387  1  0.495000  0.517000  0.182600  1
  C  C388  1  0.505000  0.517000  0.817400  1
  C  C389  1  0.995000  0.317400  0.017000  1
  C  C390  1  0.005000  0.682600  0.017000  1
  C  C391  1  0.995000  0.682600  0.983000  1
  C  C392  1  0.005000  0.317400  0.983000  1
  C  C393  1  0.317400  0.983000  0.005000  1
  C  C394  1  0.682600  0.983000  0.995000  1
  C  C395  1  0.682600  0.017000  0.005000  1
  C  C396  1  0.317400  0.017000  0.995000  1
  C  C397  1  0.983000  0.995000  0.682600  1
  C  C398  1  0.983000  0.005000  0.317400  1
  C  C399  1  0.017000  0.995000  0.317400  1
  C  C400  1  0.017000  0.005000  0.682600  1
  C  C401  1  0.182600  0.505000  0.517000  1
  C  C402  1  0.817400  0.495000  0.517000  1
  C  C403  1  0.817400  0.505000  0.483000  1
  C  C404  1  0.182600  0.495000  0.483000  1
  C  C405  1  0.517000  0.182600  0.505000  1
  C  C406  1  0.517000  0.817400  0.495000  1
  C  C407  1  0.483000  0.817400  0.505000  1
  C  C408  1  0.483000  0.182600  0.495000  1
  C  C409  1  0.505000  0.517000  0.182600  1
  C  C410  1  0.495000  0.517000  0.817400  1
  C  C411  1  0.505000  0.483000  0.817400  1
  C  C412  1  0.495000  0.483000  0.182600  1
  C  C413  1  0.005000  0.682600  0.983000  1
  C  C414  1  0.995000  0.317400  0.983000  1
  C  C415  1  0.005000  0.317400  0.017000  1
  C  C416  1  0.995000  0.682600  0.017000  1
  C  C417  1  0.682600  0.017000  0.995000  1
  C  C418  1  0.317400  0.017000  0.005000  1
  C  C419  1  0.317400  0.983000  0.995000  1
  C  C420  1  0.682600  0.983000  0.005000  1
  C  C421  1  0.017000  0.005000  0.317400  1
  C  C422  1  0.017000  0.995000  0.682600  1
  C  C423  1  0.983000  0.005000  0.682600  1
  C  C424  1  0.983000  0.995000  0.317400  1
  C  C425  1  0.925600  0.460000  0.522000  1
  C  C426  1  0.074400  0.540000  0.522000  1
  C  C427  1  0.074400  0.460000  0.478000  1
  C  C428  1  0.925600  0.540000  0.478000  1
  C  C429  1  0.522000  0.925600  0.460000  1
  C  C430  1  0.522000  0.074400  0.540000  1
  C  C431  1  0.478000  0.074400  0.460000  1
  C  C432  1  0.478000  0.925600  0.540000  1
  C  C433  1  0.460000  0.522000  0.925600  1
  C  C434  1  0.540000  0.522000  0.074400  1
  C  C435  1  0.460000  0.478000  0.074400  1
  C  C436  1  0.540000  0.478000  0.925600  1
  C  C437  1  0.960000  0.425600  0.978000  1
  C  C438  1  0.040000  0.574400  0.978000  1
  C  C439  1  0.960000  0.574400  0.022000  1
  C  C440  1  0.040000  0.425600  0.022000  1
  C  C441  1  0.425600  0.022000  0.040000  1
  C  C442  1  0.574400  0.022000  0.960000  1
  C  C443  1  0.574400  0.978000  0.040000  1
  C  C444  1  0.425600  0.978000  0.960000  1
  C  C445  1  0.022000  0.960000  0.574400  1
  C  C446  1  0.022000  0.040000  0.425600  1
  C  C447  1  0.978000  0.960000  0.425600  1
  C  C448  1  0.978000  0.040000  0.574400  1
  C  C449  1  0.074400  0.540000  0.478000  1
  C  C450  1  0.925600  0.460000  0.478000  1
  C  C451  1  0.925600  0.540000  0.522000  1
  C  C452  1  0.074400  0.460000  0.522000  1
  C  C453  1  0.478000  0.074400  0.540000  1
  C  C454  1  0.478000  0.925600  0.460000  1
  C  C455  1  0.522000  0.925600  0.540000  1
  C  C456  1  0.522000  0.074400  0.460000  1
  C  C457  1  0.540000  0.478000  0.074400  1
  C  C458  1  0.460000  0.478000  0.925600  1
  C  C459  1  0.540000  0.522000  0.925600  1
  C  C460  1  0.460000  0.522000  0.074400  1
  C  C461  1  0.040000  0.574400  0.022000  1
  C  C462  1  0.960000  0.425600  0.022000  1
  C  C463  1  0.040000  0.425600  0.978000  1
  C  C464  1  0.960000  0.574400  0.978000  1
  C  C465  1  0.574400  0.978000  0.960000  1
  C  C466  1  0.425600  0.978000  0.040000  1
  C  C467  1  0.425600  0.022000  0.960000  1
  C  C468  1  0.574400  0.022000  0.040000  1
  C  C469  1  0.978000  0.040000  0.425600  1
  C  C470  1  0.978000  0.960000  0.574400  1
  C  C471  1  0.022000  0.040000  0.574400  1
  C  C472  1  0.022000  0.960000  0.425600  1
  C  C473  1  0.841700  0.491000  0.402000  1
  C  C474  1  0.158300  0.509000  0.402000  1
  C  C475  1  0.158300  0.491000  0.598000  1
  C  C476  1  0.841700  0.509000  0.598000  1
  C  C477  1  0.402000  0.841700  0.491000  1
  C  C478  1  0.402000  0.158300  0.509000  1
  C  C479  1  0.598000  0.158300  0.491000  1
  C  C480  1  0.598000  0.841700  0.509000  1
  C  C481  1  0.491000  0.402000  0.841700  1
  C  C482  1  0.509000  0.402000  0.158300  1
  C  C483  1  0.491000  0.598000  0.158300  1
  C  C484  1  0.509000  0.598000  0.841700  1
  C  C485  1  0.991000  0.341700  0.098000  1
  C  C486  1  0.009000  0.658300  0.098000  1
  C  C487  1  0.991000  0.658300  0.902000  1
  C  C488  1  0.009000  0.341700  0.902000  1
  C  C489  1  0.341700  0.902000  0.009000  1
  C  C490  1  0.658300  0.902000  0.991000  1
  C  C491  1  0.658300  0.098000  0.009000  1
  C  C492  1  0.341700  0.098000  0.991000  1
  C  C493  1  0.902000  0.991000  0.658300  1
  C  C494  1  0.902000  0.009000  0.341700  1
  C  C495  1  0.098000  0.991000  0.341700  1
  C  C496  1  0.098000  0.009000  0.658300  1
  C  C497  1  0.158300  0.509000  0.598000  1
  C  C498  1  0.841700  0.491000  0.598000  1
  C  C499  1  0.841700  0.509000  0.402000  1
  C  C500  1  0.158300  0.491000  0.402000  1
  C  C501  1  0.598000  0.158300  0.509000  1
  C  C502  1  0.598000  0.841700  0.491000  1
  C  C503  1  0.402000  0.841700  0.509000  1
  C  C504  1  0.402000  0.158300  0.491000  1
  C  C505  1  0.509000  0.598000  0.158300  1
  C  C506  1  0.491000  0.598000  0.841700  1
  C  C507  1  0.509000  0.402000  0.841700  1
  C  C508  1  0.491000  0.402000  0.158300  1
  C  C509  1  0.009000  0.658300  0.902000  1
  C  C510  1  0.991000  0.341700  0.902000  1
  C  C511  1  0.009000  0.341700  0.098000  1
  C  C512  1  0.991000  0.658300  0.098000  1
  C  C513  1  0.658300  0.098000  0.991000  1
  C  C514  1  0.341700  0.098000  0.009000  1
  C  C515  1  0.341700  0.902000  0.991000  1
  C  C516  1  0.658300  0.902000  0.009000  1
  C  C517  1  0.098000  0.009000  0.341700  1
  C  C518  1  0.098000  0.991000  0.658300  1
  C  C519  1  0.902000  0.009000  0.658300  1
  C  C520  1  0.902000  0.991000  0.341700  1
  C  C521  1  0.360900  0.345900  0.500000  1.0
  C  C522  1  0.639100  0.654100  0.500000  1.0
  C  C523  1  0.639100  0.345900  0.500000  1.0
  C  C524  1  0.360900  0.654100  0.500000  1.0
  C  C525  1  0.500000  0.360900  0.345900  1.0
  C  C526  1  0.500000  0.639100  0.654100  1.0
  C  C527  1  0.500000  0.639100  0.345900  1.0
  C  C528  1  0.500000  0.360900  0.654100  1.0
  C  C529  1  0.345900  0.500000  0.360900  1.0
  C  C530  1  0.654100  0.500000  0.639100  1.0
  C  C531  1  0.345900  0.500000  0.639100  1.0
  C  C532  1  0.654100  0.500000  0.360900  1.0
  C  C533  1  0.845900  0.860900  0.000000  1.0
  C  C534  1  0.154100  0.139100  0.000000  1.0
  C  C535  1  0.845900  0.139100  0.000000  1.0
  C  C536  1  0.154100  0.860900  0.000000  1.0
  C  C537  1  0.860900  0.000000  0.154100  1.0
  C  C538  1  0.139100  0.000000  0.845900  1.0
  C  C539  1  0.139100  0.000000  0.154100  1.0
  C  C540  1  0.860900  0.000000  0.845900  1.0
  C  C541  1  0.000000  0.845900  0.139100  1.0
  C  C542  1  0.000000  0.154100  0.860900  1.0
  C  C543  1  0.000000  0.845900  0.860900  1.0
  C  C544  1  0.000000  0.154100  0.139100  1.0
  C  C545  1  0.215400  0.298300  0.414700  1.0
  C  C546  1  0.784600  0.701700  0.414700  1.0
  C  C547  1  0.784600  0.298300  0.585300  1.0
  C  C548  1  0.215400  0.701700  0.585300  1.0
  C  C549  1  0.414700  0.215400  0.298300  1.0
  C  C550  1  0.414700  0.784600  0.701700  1.0
  C  C551  1  0.585300  0.784600  0.298300  1.0
  C  C552  1  0.585300  0.215400  0.701700  1.0
  C  C553  1  0.298300  0.414700  0.215400  1.0
  C  C554  1  0.701700  0.414700  0.784600  1.0
  C  C555  1  0.298300  0.585300  0.784600  1.0
  C  C556  1  0.701700  0.585300  0.215400  1.0
  C  C557  1  0.798300  0.715400  0.085300  1.0
  C  C558  1  0.201700  0.284600  0.085300  1.0
  C  C559  1  0.798300  0.284600  0.914700  1.0
  C  C560  1  0.201700  0.715400  0.914700  1.0
  C  C561  1  0.715400  0.914700  0.201700  1.0
  C  C562  1  0.284600  0.914700  0.798300  1.0
  C  C563  1  0.284600  0.085300  0.201700  1.0
  C  C564  1  0.715400  0.085300  0.798300  1.0
  C  C565  1  0.914700  0.798300  0.284600  1.0
  C  C566  1  0.914700  0.201700  0.715400  1.0
  C  C567  1  0.085300  0.798300  0.715400  1.0
  C  C568  1  0.085300  0.201700  0.284600  1.0
  C  C569  1  0.784600  0.701700  0.585300  1.0
  C  C570  1  0.215400  0.298300  0.585300  1.0
  C  C571  1  0.215400  0.701700  0.414700  1.0
  C  C572  1  0.784600  0.298300  0.414700  1.0
  C  C573  1  0.585300  0.784600  0.701700  1.0
  C  C574  1  0.585300  0.215400  0.298300  1.0
  C  C575  1  0.414700  0.215400  0.701700  1.0
  C  C576  1  0.414700  0.784600  0.298300  1.0
  C  C577  1  0.701700  0.585300  0.784600  1.0
  C  C578  1  0.298300  0.585300  0.215400  1.0
  C  C579  1  0.701700  0.414700  0.215400  1.0
  C  C580  1  0.298300  0.414700  0.784600  1.0
  C  C581  1  0.201700  0.284600  0.914700  1.0
  C  C582  1  0.798300  0.715400  0.914700  1.0
  C  C583  1  0.201700  0.715400  0.085300  1.0
  C  C584  1  0.798300  0.284600  0.085300  1.0
  C  C585  1  0.284600  0.085300  0.798300  1.0
  C  C586  1  0.715400  0.085300  0.201700  1.0
  C  C587  1  0.715400  0.914700  0.798300  1.0
  C  C588  1  0.284600  0.914700  0.201700  1.0
  C  C589  1  0.085300  0.201700  0.715400  1.0
  C  C590  1  0.085300  0.798300  0.284600  1.0
  C  C591  1  0.914700  0.201700  0.284600  1.0
  C  C592  1  0.914700  0.798300  0.715400  1.0
  C  C593  1  0.265200  0.315400  0.465600  1.0
  C  C594  1  0.734800  0.684600  0.465600  1.0
  C  C595  1  0.734800  0.315400  0.534400  1.0
  C  C596  1  0.265200  0.684600  0.534400  1.0
  C  C597  1  0.465600  0.265200  0.315400  1.0
  C  C598  1  0.465600  0.734800  0.684600  1.0
  C  C599  1  0.534400  0.734800  0.315400  1.0
  C  C600  1  0.534400  0.265200  0.684600  1.0
  C  C601  1  0.315400  0.465600  0.265200  1.0
  C  C602  1  0.684600  0.465600  0.734800  1.0
  C  C603  1  0.315400  0.534400  0.734800  1.0
  C  C604  1  0.684600  0.534400  0.265200  1.0
  C  C605  1  0.815400  0.765200  0.034400  1.0
  C  C606  1  0.184600  0.234800  0.034400  1.0
  C  C607  1  0.815400  0.234800  0.965600  1.0
  C  C608  1  0.184600  0.765200  0.965600  1.0
  C  C609  1  0.765200  0.965600  0.184600  1.0
  C  C610  1  0.234800  0.965600  0.815400  1.0
  C  C611  1  0.234800  0.034400  0.184600  1.0
  C  C612  1  0.765200  0.034400  0.815400  1.0
  C  C613  1  0.965600  0.815400  0.234800  1.0
  C  C614  1  0.965600  0.184600  0.765200  1.0
  C  C615  1  0.034400  0.815400  0.765200  1.0
  C  C616  1  0.034400  0.184600  0.234800  1.0
  C  C617  1  0.734800  0.684600  0.534400  1.0
  C  C618  1  0.265200  0.315400  0.534400  1.0
  C  C619  1  0.265200  0.684600  0.465600  1.0
  C  C620  1  0.734800  0.315400  0.465600  1.0
  C  C621  1  0.534400  0.734800  0.684600  1.0
  C  C622  1  0.534400  0.265200  0.315400  1.0
  C  C623  1  0.465600  0.265200  0.684600  1.0
  C  C624  1  0.465600  0.734800  0.315400  1.0
  C  C625  1  0.684600  0.534400  0.734800  1.0
  C  C626  1  0.315400  0.534400  0.265200  1.0
  C  C627  1  0.684600  0.465600  0.265200  1.0
  C  C628  1  0.315400  0.465600  0.734800  1.0
  C  C629  1  0.184600  0.234800  0.965600  1.0
  C  C630  1  0.815400  0.765200  0.965600  1.0
  C  C631  1  0.184600  0.765200  0.034400  1.0
  C  C632  1  0.815400  0.234800  0.034400  1.0
  C  C633  1  0.234800  0.034400  0.815400  1.0
  C  C634  1  0.765200  0.034400  0.184600  1.0
  C  C635  1  0.765200  0.965600  0.815400  1.0
  C  C636  1  0.234800  0.965600  0.184600  1.0
  C  C637  1  0.034400  0.184600  0.765200  1.0
  C  C638  1  0.034400  0.815400  0.234800  1.0
  C  C639  1  0.965600  0.184600  0.234800  1.0
  C  C640  1  0.965600  0.815400  0.765200  1.0
  N  N641  1  0.500000  0.500000  0.500000  1
  N  N642  1  0.000000  0.000000  0.000000  1
  N  N643  1  0.500000  0.564000  0.500000  1
  N  N644  1  0.500000  0.436000  0.500000  1
  N  N645  1  0.500000  0.500000  0.564000  1
  N  N646  1  0.500000  0.500000  0.436000  1
  N  N647  1  0.564000  0.500000  0.500000  1
  N  N648  1  0.436000  0.500000  0.500000  1
  N  N649  1  0.064000  0.000000  0.000000  1
  N  N650  1  0.936000  0.000000  0.000000  1
  N  N651  1  0.000000  0.000000  0.936000  1
  N  N652  1  0.000000  0.000000  0.064000  1
  N  N653  1  0.000000  0.064000  0.000000  1
  N  N654  1  0.000000  0.936000  0.000000  1
  N  N655  1  0.528800  0.528800  0.528800  1
  N  N656  1  0.471200  0.471200  0.528800  1
  N  N657  1  0.471200  0.528800  0.471200  1
  N  N658  1  0.528800  0.471200  0.471200  1
  N  N659  1  0.028800  0.028800  0.971200  1
  N  N660  1  0.971200  0.971200  0.971200  1
  N  N661  1  0.028800  0.971200  0.028800  1
  N  N662  1  0.971200  0.028800  0.028800  1
  N  N663  1  0.471200  0.471200  0.471200  1
  N  N664  1  0.528800  0.528800  0.471200  1
  N  N665  1  0.528800  0.471200  0.528800  1
  N  N666  1  0.471200  0.528800  0.528800  1
  N  N667  1  0.971200  0.971200  0.028800  1
  N  N668  1  0.028800  0.028800  0.028800  1
  N  N669  1  0.971200  0.028800  0.971200  1
  N  N670  1  0.028800  0.971200  0.971200  1
  N  N671  1  0.702000  0.865000  0.500000  1
  N  N672  1  0.298000  0.135000  0.500000  1
  N  N673  1  0.298000  0.865000  0.500000  1
  N  N674  1  0.702000  0.135000  0.500000  1
  N  N675  1  0.500000  0.702000  0.865000  1
  N  N676  1  0.500000  0.298000  0.135000  1
  N  N677  1  0.500000  0.298000  0.865000  1
  N  N678  1  0.500000  0.702000  0.135000  1
  N  N679  1  0.865000  0.500000  0.702000  1
  N  N680  1  0.135000  0.500000  0.298000  1
  N  N681  1  0.865000  0.500000  0.298000  1
  N  N682  1  0.135000  0.500000  0.702000  1
  N  N683  1  0.365000  0.202000  0.000000  1
  N  N684  1  0.635000  0.798000  0.000000  1
  N  N685  1  0.365000  0.798000  0.000000  1
  N  N686  1  0.635000  0.202000  0.000000  1
  N  N687  1  0.202000  0.000000  0.635000  1
  N  N688  1  0.798000  0.000000  0.365000  1
  N  N689  1  0.798000  0.000000  0.635000  1
  N  N690  1  0.202000  0.000000  0.365000  1
  N  N691  1  0.000000  0.365000  0.798000  1
  N  N692  1  0.000000  0.635000  0.202000  1
  N  N693  1  0.000000  0.365000  0.202000  1
  N  N694  1  0.000000  0.635000  0.798000  1
  N  N695  1  0.760000  0.876000  0.500000  1
  N  N696  1  0.240000  0.124000  0.500000  1
  N  N697  1  0.240000  0.876000  0.500000  1
  N  N698  1  0.760000  0.124000  0.500000  1
  N  N699  1  0.500000  0.760000  0.876000  1
  N  N700  1  0.500000  0.240000  0.124000  1
  N  N701  1  0.500000  0.240000  0.876000  1
  N  N702  1  0.500000  0.760000  0.124000  1
  N  N703  1  0.876000  0.500000  0.760000  1
  N  N704  1  0.124000  0.500000  0.240000  1
  N  N705  1  0.876000  0.500000  0.240000  1
  N  N706  1  0.124000  0.500000  0.760000  1
  N  N707  1  0.376000  0.260000  0.000000  1
  N  N708  1  0.624000  0.740000  0.000000  1
  N  N709  1  0.376000  0.740000  0.000000  1
  N  N710  1  0.624000  0.260000  0.000000  1
  N  N711  1  0.260000  0.000000  0.624000  1
  N  N712  1  0.740000  0.000000  0.376000  1
  N  N713  1  0.740000  0.000000  0.624000  1
  N  N714  1  0.260000  0.000000  0.376000  1
  N  N715  1  0.000000  0.376000  0.740000  1
  N  N716  1  0.000000  0.624000  0.260000  1
  N  N717  1  0.000000  0.376000  0.260000  1
  N  N718  1  0.000000  0.624000  0.740000  1
  N  N719  1  0.000000  0.759000  0.500000  1
  N  N720  1  0.000000  0.241000  0.500000  1
  N  N721  1  0.500000  0.000000  0.759000  1
  N  N722  1  0.500000  0.000000  0.241000  1
  N  N723  1  0.759000  0.500000  0.000000  1
  N  N724  1  0.241000  0.500000  0.000000  1
  N  N725  1  0.259000  0.500000  0.000000  1
  N  N726  1  0.741000  0.500000  0.000000  1
  N  N727  1  0.500000  0.000000  0.741000  1
  N  N728  1  0.500000  0.000000  0.259000  1
  N  N729  1  0.000000  0.259000  0.500000  1
  N  N730  1  0.000000  0.741000  0.500000  1
  N  N731  1  0.952000  0.794000  0.500000  1
  N  N732  1  0.048000  0.206000  0.500000  1
  N  N733  1  0.048000  0.794000  0.500000  1
  N  N734  1  0.952000  0.206000  0.500000  1
  N  N735  1  0.500000  0.952000  0.794000  1
  N  N736  1  0.500000  0.048000  0.206000  1
  N  N737  1  0.500000  0.048000  0.794000  1
  N  N738  1  0.500000  0.952000  0.206000  1
  N  N739  1  0.794000  0.500000  0.952000  1
  N  N740  1  0.206000  0.500000  0.048000  1
  N  N741  1  0.794000  0.500000  0.048000  1
  N  N742  1  0.206000  0.500000  0.952000  1
  N  N743  1  0.294000  0.452000  0.000000  1
  N  N744  1  0.706000  0.548000  0.000000  1
  N  N745  1  0.294000  0.548000  0.000000  1
  N  N746  1  0.706000  0.452000  0.000000  1
  N  N747  1  0.452000  0.000000  0.706000  1
  N  N748  1  0.548000  0.000000  0.294000  1
  N  N749  1  0.548000  0.000000  0.706000  1
  N  N750  1  0.452000  0.000000  0.294000  1
  N  N751  1  0.000000  0.294000  0.548000  1
  N  N752  1  0.000000  0.706000  0.452000  1
  N  N753  1  0.000000  0.294000  0.452000  1
  N  N754  1  0.000000  0.706000  0.548000  1
  N  N755  1  0.860300  0.510000  0.468000  1
  N  N756  1  0.139700  0.490000  0.468000  1
  N  N757  1  0.139700  0.510000  0.532000  1
  N  N758  1  0.860300  0.490000  0.532000  1
  N  N759  1  0.468000  0.860300  0.510000  1
  N  N760  1  0.468000  0.139700  0.490000  1
  N  N761  1  0.532000  0.139700  0.510000  1
  N  N762  1  0.532000  0.860300  0.490000  1
  N  N763  1  0.510000  0.468000  0.860300  1
  N  N764  1  0.490000  0.468000  0.139700  1
  N  N765  1  0.510000  0.532000  0.139700  1
  N  N766  1  0.490000  0.532000  0.860300  1
  N  N767  1  0.010000  0.360300  0.032000  1
  N  N768  1  0.990000  0.639700  0.032000  1
  N  N769  1  0.010000  0.639700  0.968000  1
  N  N770  1  0.990000  0.360300  0.968000  1
  N  N771  1  0.360300  0.968000  0.990000  1
  N  N772  1  0.639700  0.968000  0.010000  1
  N  N773  1  0.639700  0.032000  0.990000  1
  N  N774  1  0.360300  0.032000  0.010000  1
  N  N775  1  0.968000  0.010000  0.639700  1
  N  N776  1  0.968000  0.990000  0.360300  1
  N  N777  1  0.032000  0.010000  0.360300  1
  N  N778  1  0.032000  0.990000  0.639700  1
  N  N779  1  0.139700  0.490000  0.532000  1
  N  N780  1  0.860300  0.510000  0.532000  1
  N  N781  1  0.860300  0.490000  0.468000  1
  N  N782  1  0.139700  0.510000  0.468000  1
  N  N783  1  0.532000  0.139700  0.490000  1
  N  N784  1  0.532000  0.860300  0.510000  1
  N  N785  1  0.468000  0.860300  0.490000  1
  N  N786  1  0.468000  0.139700  0.510000  1
  N  N787  1  0.490000  0.532000  0.139700  1
  N  N788  1  0.510000  0.532000  0.860300  1
  N  N789  1  0.490000  0.468000  0.860300  1
  N  N790  1  0.510000  0.468000  0.139700  1
  N  N791  1  0.990000  0.639700  0.968000  1
  N  N792  1  0.010000  0.360300  0.968000  1
  N  N793  1  0.990000  0.360300  0.032000  1
  N  N794  1  0.010000  0.639700  0.032000  1
  N  N795  1  0.639700  0.032000  0.010000  1
  N  N796  1  0.360300  0.032000  0.990000  1
  N  N797  1  0.360300  0.968000  0.010000  1
  N  N798  1  0.639700  0.968000  0.990000  1
  N  N799  1  0.032000  0.990000  0.360300  1
  N  N800  1  0.032000  0.010000  0.639700  1
  N  N801  1  0.968000  0.990000  0.639700  1
  N  N802  1  0.968000  0.010000  0.360300  1
  N  N803  1  0.326000  0.335200  0.443800  1.0
  N  N804  1  0.674000  0.664800  0.443800  1.0
  N  N805  1  0.674000  0.335200  0.556200  1.0
  N  N806  1  0.326000  0.664800  0.556200  1.0
  N  N807  1  0.443800  0.326000  0.335200  1.0
  N  N808  1  0.443800  0.674000  0.664800  1.0
  N  N809  1  0.556200  0.674000  0.335200  1.0
  N  N810  1  0.556200  0.326000  0.664800  1.0
  N  N811  1  0.335200  0.443800  0.326000  1.0
  N  N812  1  0.664800  0.443800  0.674000  1.0
  N  N813  1  0.335200  0.556200  0.674000  1.0
  N  N814  1  0.664800  0.556200  0.326000  1.0
  N  N815  1  0.835200  0.826000  0.056200  1.0
  N  N816  1  0.164800  0.174000  0.056200  1.0
  N  N817  1  0.835200  0.174000  0.943800  1.0
  N  N818  1  0.164800  0.826000  0.943800  1.0
  N  N819  1  0.826000  0.943800  0.164800  1.0
  N  N820  1  0.174000  0.943800  0.835200  1.0
  N  N821  1  0.174000  0.056200  0.164800  1.0
  N  N822  1  0.826000  0.056200  0.835200  1.0
  N  N823  1  0.943800  0.835200  0.174000  1.0
  N  N824  1  0.943800  0.164800  0.826000  1.0
  N  N825  1  0.056200  0.835200  0.826000  1.0
  N  N826  1  0.056200  0.164800  0.174000  1.0
  N  N827  1  0.674000  0.664800  0.556200  1.0
  N  N828  1  0.326000  0.335200  0.556200  1.0
  N  N829  1  0.326000  0.664800  0.443800  1.0
  N  N830  1  0.674000  0.335200  0.443800  1.0
  N  N831  1  0.556200  0.674000  0.664800  1.0
  N  N832  1  0.556200  0.326000  0.335200  1.0
  N  N833  1  0.443800  0.326000  0.664800  1.0
  N  N834  1  0.443800  0.674000  0.335200  1.0
  N  N835  1  0.664800  0.556200  0.674000  1.0
  N  N836  1  0.335200  0.556200  0.326000  1.0
  N  N837  1  0.664800  0.443800  0.326000  1.0
  N  N838  1  0.335200  0.443800  0.674000  1.0
  N  N839  1  0.164800  0.174000  0.943800  1.0
  N  N840  1  0.835200  0.826000  0.943800  1.0
  N  N841  1  0.164800  0.826000  0.056200  1.0
  N  N842  1  0.835200  0.174000  0.056200  1.0
  N  N843  1  0.174000  0.056200  0.835200  1.0
  N  N844  1  0.826000  0.056200  0.164800  1.0
  N  N845  1  0.826000  0.943800  0.835200  1.0
  N  N846  1  0.174000  0.943800  0.164800  1.0
  N  N847  1  0.056200  0.164800  0.826000  1.0
  N  N848  1  0.056200  0.835200  0.174000  1.0
  N  N849  1  0.943800  0.164800  0.174000  1.0
  N  N850  1  0.943800  0.835200  0.826000  1.0
  O  O851  1  0.760500  0.482000  0.489000  1
  O  O852  1  0.239500  0.518000  0.489000  1
  O  O853  1  0.239500  0.482000  0.511000  1
  O  O854  1  0.760500  0.518000  0.511000  1
  O  O855  1  0.489000  0.760500  0.482000  1
  O  O856  1  0.489000  0.239500  0.518000  1
  O  O857  1  0.511000  0.239500  0.482000  1
  O  O858  1  0.511000  0.760500  0.518000  1
  O  O859  1  0.482000  0.489000  0.760500  1
  O  O860  1  0.518000  0.489000  0.239500  1
  O  O861  1  0.482000  0.511000  0.239500  1
  O  O862  1  0.518000  0.511000  0.760500  1
  O  O863  1  0.982000  0.260500  0.011000  1
  O  O864  1  0.018000  0.739500  0.011000  1
  O  O865  1  0.982000  0.739500  0.989000  1
  O  O866  1  0.018000  0.260500  0.989000  1
  O  O867  1  0.260500  0.989000  0.018000  1
  O  O868  1  0.739500  0.989000  0.982000  1
  O  O869  1  0.739500  0.011000  0.018000  1
  O  O870  1  0.260500  0.011000  0.982000  1
  O  O871  1  0.989000  0.982000  0.739500  1
  O  O872  1  0.989000  0.018000  0.260500  1
  O  O873  1  0.011000  0.982000  0.260500  1
  O  O874  1  0.011000  0.018000  0.739500  1
  O  O875  1  0.239500  0.518000  0.511000  1
  O  O876  1  0.760500  0.482000  0.511000  1
  O  O877  1  0.760500  0.518000  0.489000  1
  O  O878  1  0.239500  0.482000  0.489000  1
  O  O879  1  0.511000  0.239500  0.518000  1
  O  O880  1  0.511000  0.760500  0.482000  1
  O  O881  1  0.489000  0.760500  0.518000  1
  O  O882  1  0.489000  0.239500  0.482000  1
  O  O883  1  0.518000  0.511000  0.239500  1
  O  O884  1  0.482000  0.511000  0.760500  1
  O  O885  1  0.518000  0.489000  0.760500  1
  O  O886  1  0.482000  0.489000  0.239500  1
  O  O887  1  0.018000  0.739500  0.989000  1
  O  O888  1  0.982000  0.260500  0.989000  1
  O  O889  1  0.018000  0.260500  0.011000  1
  O  O890  1  0.982000  0.739500  0.011000  1
  O  O891  1  0.739500  0.011000  0.982000  1
  O  O892  1  0.260500  0.011000  0.018000  1
  O  O893  1  0.260500  0.989000  0.982000  1
  O  O894  1  0.739500  0.989000  0.018000  1
  O  O895  1  0.011000  0.018000  0.260500  1
  O  O896  1  0.011000  0.982000  0.739500  1
  O  O897  1  0.989000  0.018000  0.739500  1
  O  O898  1  0.989000  0.982000  0.260500  1
  O  O899  1  0.232100  0.306300  0.353800  1.0
  O  O900  1  0.767900  0.693700  0.353800  1.0
  O  O901  1  0.767900  0.306300  0.646200  1.0
  O  O902  1  0.232100  0.693700  0.646200  1.0
  O  O903  1  0.353800  0.232100  0.306300  1.0
  O  O904  1  0.353800  0.767900  0.693700  1.0
  O  O905  1  0.646200  0.767900  0.306300  1.0
  O  O906  1  0.646200  0.232100  0.693700  1.0
  O  O907  1  0.306300  0.353800  0.232100  1.0
  O  O908  1  0.693700  0.353800  0.767900  1.0
  O  O909  1  0.306300  0.646200  0.767900  1.0
  O  O910  1  0.693700  0.646200  0.232100  1.0
  O  O911  1  0.806300  0.732100  0.146200  1.0
  O  O912  1  0.193700  0.267900  0.146200  1.0
  O  O913  1  0.806300  0.267900  0.853800  1.0
  O  O914  1  0.193700  0.732100  0.853800  1.0
  O  O915  1  0.732100  0.853800  0.193700  1.0
  O  O916  1  0.267900  0.853800  0.806300  1.0
  O  O917  1  0.267900  0.146200  0.193700  1.0
  O  O918  1  0.732100  0.146200  0.806300  1.0
  O  O919  1  0.853800  0.806300  0.267900  1.0
  O  O920  1  0.853800  0.193700  0.732100  1.0
  O  O921  1  0.146200  0.806300  0.732100  1.0
  O  O922  1  0.146200  0.193700  0.267900  1.0
  O  O923  1  0.767900  0.693700  0.646200  1.0
  O  O924  1  0.232100  0.306300  0.646200  1.0
  O  O925  1  0.232100  0.693700  0.353800  1.0
  O  O926  1  0.767900  0.306300  0.353800  1.0
  O  O927  1  0.646200  0.767900  0.693700  1.0
  O  O928  1  0.646200  0.232100  0.306300  1.0
  O  O929  1  0.353800  0.232100  0.693700  1.0
  O  O930  1  0.353800  0.767900  0.306300  1.0
  O  O931  1  0.693700  0.646200  0.767900  1.0
  O  O932  1  0.306300  0.646200  0.232100  1.0
  O  O933  1  0.693700  0.353800  0.232100  1.0
  O  O934  1  0.306300  0.353800  0.767900  1.0
  O  O935  1  0.193700  0.267900  0.853800  1.0
  O  O936  1  0.806300  0.732100  0.853800  1.0
  O  O937  1  0.193700  0.732100  0.146200  1.0
  O  O938  1  0.806300  0.267900  0.146200  1.0
  O  O939  1  0.267900  0.146200  0.806300  1.0
  O  O940  1  0.732100  0.146200  0.193700  1.0
  O  O941  1  0.732100  0.853800  0.806300  1.0
  O  O942  1  0.267900  0.853800  0.193700  1.0
  O  O943  1  0.146200  0.193700  0.732100  1.0
  O  O944  1  0.146200  0.806300  0.267900  1.0
  O  O945  1  0.853800  0.193700  0.267900  1.0
  O  O946  1  0.853800  0.806300  0.732100  1.0
  O  O947  1  0.156900  0.276600  0.433100  1.0
  O  O948  1  0.843100  0.723400  0.433100  1.0
  O  O949  1  0.843100  0.276600  0.566900  1.0
  O  O950  1  0.156900  0.723400  0.566900  1.0
  O  O951  1  0.433100  0.156900  0.276600  1.0
  O  O952  1  0.433100  0.843100  0.723400  1.0
  O  O953  1  0.566900  0.843100  0.276600  1.0
  O  O954  1  0.566900  0.156900  0.723400  1.0
  O  O955  1  0.276600  0.433100  0.156900  1.0
  O  O956  1  0.723400  0.433100  0.843100  1.0
  O  O957  1  0.276600  0.566900  0.843100  1.0
  O  O958  1  0.723400  0.566900  0.156900  1.0
  O  O959  1  0.776600  0.656900  0.066900  1.0
  O  O960  1  0.223400  0.343100  0.066900  1.0
  O  O961  1  0.776600  0.343100  0.933100  1.0
  O  O962  1  0.223400  0.656900  0.933100  1.0
  O  O963  1  0.656900  0.933100  0.223400  1.0
  O  O964  1  0.343100  0.933100  0.776600  1.0
  O  O965  1  0.343100  0.066900  0.223400  1.0
  O  O966  1  0.656900  0.066900  0.776600  1.0
  O  O967  1  0.933100  0.776600  0.343100  1.0
  O  O968  1  0.933100  0.223400  0.656900  1.0
  O  O969  1  0.066900  0.776600  0.656900  1.0
  O  O970  1  0.066900  0.223400  0.343100  1.0
  O  O971  1  0.843100  0.723400  0.566900  1.0
  O  O972  1  0.156900  0.276600  0.566900  1.0
  O  O973  1  0.156900  0.723400  0.433100  1.0
  O  O974  1  0.843100  0.276600  0.433100  1.0
  O  O975  1  0.566900  0.843100  0.723400  1.0
  O  O976  1  0.566900  0.156900  0.276600  1.0
  O  O977  1  0.433100  0.156900  0.723400  1.0
  O  O978  1  0.433100  0.843100  0.276600  1.0
  O  O979  1  0.723400  0.566900  0.843100  1.0
  O  O980  1  0.276600  0.566900  0.156900  1.0
  O  O981  1  0.723400  0.433100  0.156900  1.0
  O  O982  1  0.276600  0.433100  0.843100  1.0
  O  O983  1  0.223400  0.343100  0.933100  1.0
  O  O984  1  0.776600  0.656900  0.933100  1.0
  O  O985  1  0.223400  0.656900  0.066900  1.0
  O  O986  1  0.776600  0.343100  0.066900  1.0
  O  O987  1  0.343100  0.066900  0.776600  1.0
  O  O988  1  0.656900  0.066900  0.223400  1.0
  O  O989  1  0.656900  0.933100  0.776600  1.0
  O  O990  1  0.343100  0.933100  0.223400  1.0
  O  O991  1  0.066900  0.223400  0.656900  1.0
  O  O992  1  0.066900  0.776600  0.343100  1.0
  O  O993  1  0.933100  0.223400  0.343100  1.0
  O  O994  1  0.933100  0.776600  0.656900  1.0
