
#######################################################################
#
#                 Cambridge Crystallographic Data Centre
#                                CCDC 
#
#######################################################################
#
# If this CIF has been generated from an entry in the Cambridge 
# Structural Database, then it will include bibliographic, chemical, 
# crystal, experimental, refinement or atomic coordinate data resulting 
# from the CCDC's data processing and validation procedures.
#
#######################################################################

data_VUMMAT
_chemical_formula_moiety         
'C52 H62 N6 Rh2 2+,2(B1 F4 1-),0.62(H2 O1),2(C1 H2 Cl2)'
_chemical_name_systematic        
'bis(\m-1-mesityl-3-((pyridin-3-yl)methyl)imidazol-2-ylidene)-bis(cycloocta-1,5-diene)-di-rhodium bis(tetrafluoroborate) dichloromethane solvate hydrate'
_symmetry_cell_setting           orthorhombic
_symmetry_space_group_name_H-M   'P b c n'
_symmetry_Int_Tables_number      60
_space_group_name_Hall           '-P 2n 2ab'
loop_
_symmetry_equiv_pos_site_id
_symmetry_equiv_pos_as_xyz
1 x,y,z
2 1/2-x,1/2-y,1/2+z
3 1/2+x,1/2-y,-z
4 -x,y,1/2-z
5 -x,-y,-z
6 1/2+x,1/2+y,1/2-z
7 1/2-x,1/2+y,z
8 x,-y,1/2+z
_cell_length_a                   20.1293(5)
_cell_length_b                   10.0566(1)
_cell_length_c                   27.6491(3)
_cell_angle_alpha                90
_cell_angle_beta                 90
_cell_angle_gamma                90
_cell_volume                     5597.07
_exptl_crystal_colour            yellow
_exptl_crystal_description       block
_cell_formula_units_Z            4
_exptl_crystal_recrystallization_method dichloromethane
loop_
_atom_site_label
_atom_site_type_symbol
_atom_site_fract_x
_atom_site_fract_y
_atom_site_fract_z
Rh1 Rh -0.076475(19) 0.15152(4) 0.358708(15)
C1 C -0.0422(3) -0.0530(5) 0.3704(2)
H1 H -0.0043 -0.0365 0.3507
C2 C -0.0947(3) -0.1437(6) 0.3500(3)
H2 H -0.085(3) -0.234(3) 0.3628(19)
H3 H -0.087(3) -0.151(6) 0.3143(8)
C3 C -0.1660(3) -0.0965(6) 0.3583(2)
H4 H -0.1951 -0.1350 0.3330
H5 H -0.1816 -0.1295 0.3900
C4 C -0.1722(3) 0.0544(6) 0.3572(2)
H6 H -0.1798 0.0955 0.3267
C5 C -0.1674(3) 0.1360(6) 0.3974(2)
H7 H -0.1739 0.2286 0.3926
C6 C -0.1529(3) 0.0903(7) 0.4478(2)
H8 H -0.1940 0.0527 0.4620
H9 H -0.1400 0.1682 0.4676
C7 C -0.0975(3) -0.0147(6) 0.4510(2)
H10 H -0.0776 -0.0122 0.4838
H11 H -0.1170 -0.1041 0.4462
C8 C -0.0440(3) 0.0072(6) 0.4142(2)
H12 H -0.0092 0.0672 0.4221
C9 C 0.0547(3) 0.2751(7) 0.3830(2)
H13 H 0.0316 0.2952 0.4121
C10 C 0.1199(3) 0.3133(8) 0.3788(2)
H14 H 0.1413 0.3576 0.4048
C11 C 0.1540(3) 0.2876(8) 0.3374(2)
H15 H 0.1991 0.3141 0.3340
C12 C 0.1215(3) 0.2220(6) 0.3000(2)
C13 C 0.0562(3) 0.1851(5) 0.30721(19)
H16 H 0.0340 0.1390 0.2820
C14 C 0.1543(3) 0.1956(6) 0.2524(2)
H17 H 0.2021 0.1768 0.2576
H18 H 0.1340 0.1163 0.2372
C15 C 0.1695(3) 0.4374(6) 0.2319(2)
H19 H 0.1951 0.4611 0.2595
C16 C 0.1483(3) 0.5191(6) 0.1976(2)
H20 H 0.1557 0.6122 0.1957
C17 C 0.1124(3) 0.3117(5) 0.17874(19)
C18 C 0.0741(2) 0.5001(5) 0.12669(19)
C19 C 0.0111(3) 0.5497(6) 0.1393(2)
C20 C -0.0253(3) 0.6158(5) 0.1044(2)
H21 H -0.0686 0.6470 0.1120
C21 C 0.0001(3) 0.6374(6) 0.0589(2)
C22 C 0.0631(3) 0.5912(6) 0.0484(2)
H22 H 0.0807 0.6058 0.0170
C23 C 0.1019(3) 0.5238(5) 0.0824(2)
C24 C -0.0157(3) 0.5391(7) 0.1892(2)
H23 H 0.0060 0.6050 0.2100
H24 H -0.0071 0.4497 0.2019
H25 H -0.0637 0.5555 0.1887
C25 C -0.0395(3) 0.7137(7) 0.0221(2)
H26 H -0.0824 0.7393 0.0362
H27 H -0.0471 0.6579 -0.0064
H28 H -0.0150 0.7938 0.0127
C26 C 0.1716(3) 0.4850(7) 0.0700(2)
H29 H 0.1968 0.4698 0.0998
H30 H 0.1926 0.5565 0.0514
H31 H 0.1711 0.4033 0.0507
N1 N 0.0226(2) 0.2109(4) 0.34790(16)
N2 N 0.1472(2) 0.3104(4) 0.22001(16)
N3 N 0.1133(2) 0.4417(4) 0.16509(16)
Rh1C Rh 0.076475(19) 0.15152(4) 0.141292(15)
C1C C 0.0422(3) -0.0530(5) 0.1296(2)
H1C H 0.0043 -0.0365 0.1493
C2C C 0.0947(3) -0.1437(6) 0.1500(3)
H2C H 0.085(3) -0.234(3) 0.1372(19)
H3C H 0.087(3) -0.151(6) 0.1857(8)
C3C C 0.1660(3) -0.0965(6) 0.1417(2)
H4C H 0.1951 -0.1350 0.1670
H5C H 0.1816 -0.1295 0.1100
C4C C 0.1722(3) 0.0544(6) 0.1428(2)
H6C H 0.1798 0.0955 0.1733
C5C C 0.1674(3) 0.1360(6) 0.1026(2)
H7C H 0.1739 0.2286 0.1074
C6C C 0.1529(3) 0.0903(7) 0.0522(2)
H8C H 0.1940 0.0527 0.0380
H9C H 0.1400 0.1682 0.0324
C7C C 0.0975(3) -0.0147(6) 0.0490(2)
H10C H 0.0776 -0.0122 0.0162
H11C H 0.1170 -0.1041 0.0538
C8C C 0.0440(3) 0.0072(6) 0.0858(2)
H12C H 0.0092 0.0672 0.0779
C9C C -0.0547(3) 0.2751(7) 0.1170(2)
H13C H -0.0316 0.2952 0.0879
C10C C -0.1199(3) 0.3133(8) 0.1212(2)
H14C H -0.1413 0.3576 0.0952
C11C C -0.1540(3) 0.2876(8) 0.1626(2)
H15C H -0.1991 0.3141 0.1660
C12C C -0.1215(3) 0.2220(6) 0.2000(2)
C13C C -0.0562(3) 0.1851(5) 0.19279(19)
H16C H -0.0340 0.1390 0.2180
C14C C -0.1543(3) 0.1956(6) 0.2476(2)
H17C H -0.2021 0.1768 0.2424
H18C H -0.1340 0.1163 0.2628
C15C C -0.1695(3) 0.4374(6) 0.2681(2)
H19C H -0.1951 0.4611 0.2405
C16C C -0.1483(3) 0.5191(6) 0.3024(2)
H20C H -0.1557 0.6122 0.3043
C17C C -0.1124(3) 0.3117(5) 0.32126(19)
C18C C -0.0741(2) 0.5001(5) 0.37331(19)
C19C C -0.0111(3) 0.5497(6) 0.3607(2)
C20C C 0.0253(3) 0.6158(5) 0.3956(2)
H21C H 0.0686 0.6470 0.3880
C21C C -0.0001(3) 0.6374(6) 0.4411(2)
C22C C -0.0631(3) 0.5912(6) 0.4516(2)
H22C H -0.0807 0.6058 0.4830
C23C C -0.1019(3) 0.5238(5) 0.4176(2)
C24C C 0.0157(3) 0.5391(7) 0.3108(2)
H23C H -0.0060 0.6050 0.2900
H24C H 0.0071 0.4497 0.2981
H25C H 0.0637 0.5555 0.3113
C25C C 0.0395(3) 0.7137(7) 0.4779(2)
H26C H 0.0824 0.7393 0.4638
H27C H 0.0471 0.6579 0.5064
H28C H 0.0150 0.7938 0.4873
C26C C -0.1716(3) 0.4850(7) 0.4300(2)
H29C H -0.1968 0.4698 0.4002
H30C H -0.1926 0.5565 0.4486
H31C H -0.1711 0.4033 0.4493
N1C N -0.0226(2) 0.2109(4) 0.15210(16)
N2C N -0.1472(2) 0.3104(4) 0.27999(16)
N3C N -0.1133(2) 0.4417(4) 0.33491(16)
B1 B 0.3363(6) 0.3125(12) 0.2995(5)
F1 F 0.4029(5) 0.3290(12) 0.3065(6)
F2 F 0.3137(6) 0.2074(12) 0.3250(5)
F3 F 0.3230(9) 0.2886(18) 0.2512(4)
F4 F 0.3025(8) 0.4271(13) 0.3112(7)
C27 C 0.2239(16) 0.021(4) 0.4027(6)
H32 H 0.2250 0.0899 0.3773
H33 H 0.2407 -0.0630 0.3883
Cl1 Cl 0.1427(2) -0.0031(6) 0.42079(18)
Cl2 Cl 0.2774(5) 0.0688(12) 0.4507(3)
O1 O 0.0000 -0.0611(11) 0.2500
H34 H 0.027(5) -0.112(10) 0.264(4)
H34C H -0.027(5) -0.112(10) 0.236(4)
loop_
_geom_bond_atom_site_label_1
_geom_bond_atom_site_label_2
_geom_bond_site_symmetry_1
_geom_bond_site_symmetry_2
Rh1 C1 1_555 1_555
C1 H1 1_555 1_555
C2 C1 1_555 1_555
H2 C2 1_555 1_555
H3 C2 1_555 1_555
C3 C2 1_555 1_555
H4 C3 1_555 1_555
H5 C3 1_555 1_555
C4 Rh1 1_555 1_555
H6 C4 1_555 1_555
C5 Rh1 1_555 1_555
H7 C5 1_555 1_555
C6 C5 1_555 1_555
H8 C6 1_555 1_555
H9 C6 1_555 1_555
C7 C6 1_555 1_555
H10 C7 1_555 1_555
H11 C7 1_555 1_555
C8 Rh1 1_555 1_555
H12 C8 1_555 1_555
C9 H13 1_555 1_555
C10 C9 1_555 1_555
H14 C10 1_555 1_555
C11 C10 1_555 1_555
H15 C11 1_555 1_555
C12 C11 1_555 1_555
C13 C12 1_555 1_555
H16 C13 1_555 1_555
C14 C12 1_555 1_555
H17 C14 1_555 1_555
H18 C14 1_555 1_555
C15 H19 1_555 1_555
C16 C15 1_555 1_555
H20 C16 1_555 1_555
C17 N2 1_555 1_555
C18 C19 1_555 1_555
C19 C20 1_555 1_555
C20 H21 1_555 1_555
C21 C20 1_555 1_555
C22 C21 1_555 1_555
H22 C22 1_555 1_555
C23 C18 1_555 1_555
C24 C19 1_555 1_555
H23 C24 1_555 1_555
H24 C24 1_555 1_555
H25 C24 1_555 1_555
C25 C21 1_555 1_555
H26 C25 1_555 1_555
H27 C25 1_555 1_555
H28 C25 1_555 1_555
C26 C23 1_555 1_555
H29 C26 1_555 1_555
H30 C26 1_555 1_555
H31 C26 1_555 1_555
N1 Rh1 1_555 1_555
N2 C14 1_555 1_555
N3 C16 1_555 1_555
B1 F1 1_555 1_555
F2 B1 1_555 1_555
F3 B1 1_555 1_555
F4 B1 1_555 1_555
C27 H32 1_555 1_555
H33 C27 1_555 1_555
Cl1 C27 1_555 1_555
Cl2 C27 1_555 1_555
O1 H34 1_555 1_555
Rh1C C17 1_555 1_555
C1C Rh1C 1_555 1_555
H1C C1C 1_555 1_555
C2C C1C 1_555 1_555
H2C C2C 1_555 1_555
H3C C2C 1_555 1_555
C3C C2C 1_555 1_555
H4C C3C 1_555 1_555
H5C C3C 1_555 1_555
C4C Rh1C 1_555 1_555
H6C C4C 1_555 1_555
C5C Rh1C 1_555 1_555
H7C C5C 1_555 1_555
C6C C5C 1_555 1_555
H8C C6C 1_555 1_555
H9C C6C 1_555 1_555
C7C C6C 1_555 1_555
H10C C7C 1_555 1_555
H11C C7C 1_555 1_555
C8C Rh1C 1_555 1_555
H12C C8C 1_555 1_555
C9C H13C 1_555 1_555
C10C C9C 1_555 1_555
H14C C10C 1_555 1_555
C11C C10C 1_555 1_555
H15C C11C 1_555 1_555
C12C C11C 1_555 1_555
C13C C12C 1_555 1_555
H16C C13C 1_555 1_555
C14C C12C 1_555 1_555
H17C C14C 1_555 1_555
H18C C14C 1_555 1_555
C15C H19C 1_555 1_555
C16C C15C 1_555 1_555
H20C C16C 1_555 1_555
C17C Rh1 1_555 1_555
C18C C19C 1_555 1_555
C19C C20C 1_555 1_555
C20C H21C 1_555 1_555
C21C C20C 1_555 1_555
C22C C21C 1_555 1_555
H22C C22C 1_555 1_555
C23C C18C 1_555 1_555
C24C C19C 1_555 1_555
H23C C24C 1_555 1_555
H24C C24C 1_555 1_555
H25C C24C 1_555 1_555
C25C C21C 1_555 1_555
H26C C25C 1_555 1_555
H27C C25C 1_555 1_555
H28C C25C 1_555 1_555
C26C C23C 1_555 1_555
H29C C26C 1_555 1_555
H30C C26C 1_555 1_555
H31C C26C 1_555 1_555
N1C Rh1C 1_555 1_555
N2C C14C 1_555 1_555
N3C C16C 1_555 1_555
H34C O1 1_555 1_555
C1 C8 1_555 1_555
C3 C4 1_555 1_555
C4 C5 1_555 1_555
C7 C8 1_555 1_555
C9 N1 1_555 1_555
C13 N1 1_555 1_555
C15 N2 1_555 1_555
C17 N3 1_555 1_555
C18 N3 1_555 1_555
C22 C23 1_555 1_555
C1C C8C 1_555 1_555
C3C C4C 1_555 1_555
C4C C5C 1_555 1_555
C7C C8C 1_555 1_555
C9C N1C 1_555 1_555
C13C N1C 1_555 1_555
C15C N2C 1_555 1_555
C17C N2C 1_555 1_555
C17C N3C 1_555 1_555
C18C N3C 1_555 1_555
C22C C23C 1_555 1_555

#END
