
#######################################################################
#
#                 Cambridge Crystallographic Data Centre
#                                CCDC 
#
#######################################################################
#
# If this CIF has been generated from an entry in the Cambridge 
# Structural Database, then it will include bibliographic, chemical, 
# crystal, experimental, refinement or atomic coordinate data resulting 
# from the CCDC's data processing and validation procedures.
#
#######################################################################

data_VUNHES
_chemical_formula_moiety         
'C24 H28 Cl4 N4 Pd2 Si2,0.5(C3 H6 O1),0.5(H2 O1)'
_chemical_name_systematic        
'bis(\m~2~-bis(3-pyridyl)dimethylsilane)-tetrachloro-di-palladium(ii) acetone solvate hemihydrate'
_symmetry_cell_setting           monoclinic
_symmetry_space_group_name_H-M   'P 21/n'
_symmetry_Int_Tables_number      14
_space_group_name_Hall           '-P 2yn'
loop_
_symmetry_equiv_pos_site_id
_symmetry_equiv_pos_as_xyz
1 x,y,z
2 1/2-x,1/2+y,1/2-z
3 -x,-y,-z
4 1/2+x,1/2-y,1/2+z
_cell_length_a                   10.8832(4)
_cell_length_b                   17.2258(7)
_cell_length_c                   26.7098(10)
_cell_angle_alpha                90
_cell_angle_beta                 99.1410(10)
_cell_angle_gamma                90
_cell_volume                     4943.74
_exptl_crystal_colour            yellow
_exptl_crystal_description       block
_cell_formula_units_Z            6
loop_
_atom_site_label
_atom_site_type_symbol
_atom_site_fract_x
_atom_site_fract_y
_atom_site_fract_z
Pd1 Pd 0.81241(5) 0.50018(3) 0.36701(2)
Pd2 Pd 0.25640(5) 0.49237(3) 0.31543(2)
Cl1 Cl 0.8022(2) 0.40166(12) 0.30897(8)
Cl2 Cl 0.83959(19) 0.59851(12) 0.42657(8)
Cl3 Cl 0.20322(19) 0.58654(12) 0.36951(7)
Cl4 Cl 0.2961(2) 0.39721(12) 0.26042(8)
Si1 Si 0.52352(18) 0.25843(11) 0.44009(7)
Si2 Si 0.55837(19) 0.62135(12) 0.17991(8)
N1 N 0.7942(5) 0.4222(3) 0.4219(2)
N2 N 0.2565(5) 0.4121(3) 0.3700(2)
N3 N 0.2773(5) 0.5741(3) 0.2635(2)
N4 N 0.8096(5) 0.5792(3) 0.3110(2)
C1 C 0.8697(6) 0.4207(4) 0.4665(3)
H1 H 0.9396 0.4526 0.4714
C2 C 0.8474(7) 0.3742(5) 0.5051(3)
H2 H 0.9016 0.3742 0.5357
C3 C 0.7430(7) 0.3263(5) 0.4986(3)
H3 H 0.7267 0.2951 0.5252
C4 C 0.6633(6) 0.3251(4) 0.4527(2)
C5 C 0.6949(6) 0.3738(4) 0.4158(3)
H4 H 0.6440 0.3734 0.3844
C6 C 0.5407(7) 0.1974(4) 0.3845(3)
H5 H 0.4708 0.1630 0.3773
H6 H 0.6160 0.1676 0.3918
H7 H 0.5443 0.2301 0.3557
C7 C 0.5158(7) 0.2009(4) 0.4983(3)
H8 H 0.4455 0.1666 0.4924
H9 H 0.5071 0.2354 0.5257
H10 H 0.5907 0.1711 0.5067
C8 C 0.3592(6) 0.3694(4) 0.3839(2)
H11 H 0.4237 0.3753 0.3651
C9 C 0.3771(6) 0.3177(4) 0.4236(2)
C10 C 0.2784(7) 0.3092(4) 0.4502(3)
H12 H 0.2852 0.2760 0.4780
C11 C 0.1700(8) 0.3502(5) 0.4351(3)
H13 H 0.1025 0.3432 0.4520
C12 C 0.1612(7) 0.4017(5) 0.3952(3)
H14 H 0.0880 0.4295 0.3857
C13 C 0.1990(7) 0.6344(4) 0.2525(3)
H15 H 0.1267 0.6365 0.2669
C14 C 0.2226(7) 0.6922(4) 0.2210(3)
H16 H 0.1670 0.7333 0.2144
C15 C 0.3284(7) 0.6906(4) 0.1985(3)
H17 H 0.3432 0.7300 0.1764
C16 C 0.4122(6) 0.6304(4) 0.2091(2)
C17 C 0.3813(6) 0.5736(4) 0.2411(2)
H18 H 0.4354 0.5317 0.2479
C18 C 0.5653(8) 0.5234(4) 0.1517(3)
H19 H 0.4966 0.5170 0.1247
H20 H 0.5608 0.4847 0.1773
H21 H 0.6420 0.5178 0.1387
C19 C 0.5655(8) 0.6998(4) 0.1335(3)
H22 H 0.4965 0.6951 0.1064
H23 H 0.6420 0.6960 0.1200
H24 H 0.5618 0.7492 0.1498
C20 C 0.7157(7) 0.5769(4) 0.2720(3)
H25 H 0.6599 0.5358 0.2710
C21 C 0.6946(6) 0.6315(4) 0.2325(3)
C22 C 0.7797(7) 0.6918(4) 0.2369(3)
H26 H 0.7704 0.7312 0.2127
C23 C 0.8779(7) 0.6946(5) 0.2763(3)
H27 H 0.9362 0.7343 0.2779
C24 C 0.8895(7) 0.6381(4) 0.3136(3)
H28 H 0.9541 0.6413 0.3409
Pd3 Pd 0.27511(5) 0.49863(3) 0.02549(2)
Cl5 Cl 0.3103(2) 0.39840(12) -0.02689(7)
Cl6 Cl 0.2512(2) 0.60034(12) 0.07836(8)
Si3 Si -0.03157(19) 0.39057(12) 0.16527(7)
N5 N 0.2523(5) 0.4231(3) 0.0810(2)
N6 N -0.2760(5) 0.4257(3) 0.0323(2)
C25 C 0.3263(7) 0.3614(4) 0.0934(3)
H29 H 0.3963 0.3554 0.0778
C26 C 0.3030(7) 0.3074(4) 0.1277(3)
H30 H 0.3589 0.2671 0.1368
C27 C 0.1953(7) 0.3127(4) 0.1488(3)
H31 H 0.1765 0.2744 0.1709
C28 C 0.1151(6) 0.3752(4) 0.1372(2)
C29 C 0.1503(6) 0.4286(4) 0.1030(2)
H32 H 0.0991 0.4714 0.0949
C30 C -0.0328(8) 0.4910(4) 0.1900(3)
H33 H -0.1072 0.4991 0.2043
H34 H -0.0302 0.5271 0.1628
H35 H 0.0386 0.4987 0.2157
C31 C -0.0421(7) 0.3173(4) 0.2148(3)
H36 H -0.1168 0.3256 0.2290
H37 H 0.0288 0.3219 0.2411
H38 H -0.0438 0.2663 0.2002
C32 C -0.1869(6) 0.4315(4) 0.0724(2)
H39 H -0.1347 0.4744 0.0739
C33 C -0.1653(6) 0.3788(4) 0.1120(3)
C34 C -0.2498(7) 0.3166(4) 0.1080(3)
H40 H -0.2416 0.2789 0.1333
C35 C -0.3448(7) 0.3104(5) 0.0673(3)
H41 H -0.4009 0.2694 0.0653
C36 C -0.3554(7) 0.3657(4) 0.0296(3)
H42 H -0.4186 0.3614 0.0019
Pd3B Pd -0.27511(5) 0.50137(3) -0.02549(2)
Cl5B Cl -0.3103(2) 0.60160(12) 0.02689(7)
Cl6B Cl -0.2512(2) 0.39966(12) -0.07836(8)
Si3B Si 0.03157(19) 0.60943(12) -0.16527(7)
N5B N -0.2523(5) 0.5769(3) -0.0810(2)
N6B N 0.2760(5) 0.5743(3) -0.0323(2)
C25B C -0.3263(7) 0.6386(4) -0.0934(3)
H29B H -0.3963 0.6446 -0.0778
C26B C -0.3030(7) 0.6926(4) -0.1277(3)
H30B H -0.3589 0.7329 -0.1368
C27B C -0.1953(7) 0.6873(4) -0.1488(3)
H31B H -0.1765 0.7256 -0.1709
C28B C -0.1151(6) 0.6248(4) -0.1372(2)
C29B C -0.1503(6) 0.5714(4) -0.1030(2)
H32B H -0.0991 0.5286 -0.0949
C30B C 0.0328(8) 0.5090(4) -0.1900(3)
H33B H 0.1072 0.5009 -0.2043
H34B H 0.0302 0.4729 -0.1628
H35B H -0.0386 0.5013 -0.2157
C31B C 0.0421(7) 0.6827(4) -0.2148(3)
H36B H 0.1168 0.6744 -0.2290
H37B H -0.0288 0.6781 -0.2411
H38B H 0.0438 0.7337 -0.2002
C32B C 0.1869(6) 0.5685(4) -0.0724(2)
H39B H 0.1347 0.5256 -0.0739
C33B C 0.1653(6) 0.6212(4) -0.1120(3)
C34B C 0.2498(7) 0.6834(4) -0.1080(3)
H40B H 0.2416 0.7211 -0.1333
C35B C 0.3448(7) 0.6896(5) -0.0673(3)
H41B H 0.4009 0.7306 -0.0653
C36B C 0.3554(7) 0.6343(4) -0.0296(3)
H42B H 0.4186 0.6386 -0.0019
O1 O 0.5316(5) 0.5155(3) 0.3593(2)
C37 C 0.5151(8) 0.5467(5) 0.4433(3)
H43 H 0.5155 0.4914 0.4476
H44 H 0.4392 0.5677 0.4516
H45 H 0.5847 0.5689 0.4652
C38 C 0.5242(7) 0.5654(5) 0.3900(3)
C39 C 0.5233(8) 0.6488(5) 0.3753(4)
H46 H 0.5298 0.6530 0.3400
H47 H 0.5925 0.6748 0.3952
H48 H 0.4471 0.6724 0.3814
O2 O 0.953(2) 0.8461(13) 0.2278(14)
loop_
_geom_bond_atom_site_label_1
_geom_bond_atom_site_label_2
_geom_bond_site_symmetry_1
_geom_bond_site_symmetry_2
Pd1 Cl1 1_555 1_555
Pd2 Cl3 1_555 1_555
Pd3 Cl5 1_555 1_555
Cl2 Pd1 1_555 1_555
Cl4 Pd2 1_555 1_555
Cl6 Pd3 1_555 1_555
Si1 C4 1_555 1_555
Si2 C16 1_555 1_555
Si3 C28 1_555 1_555
O1 C38 1_555 1_555
N1 Pd1 1_555 1_555
N2 Pd2 1_555 1_555
N3 Pd2 1_555 1_555
N4 Pd1 1_555 1_555
N5 Pd3 1_555 1_555
N6 C32 1_555 1_555
C1 N1 1_555 1_555
H1 C1 1_555 1_555
C2 C1 1_555 1_555
H2 C2 1_555 1_555
C3 C2 1_555 1_555
H3 C3 1_555 1_555
C4 C3 1_555 1_555
C5 N1 1_555 1_555
H4 C5 1_555 1_555
C6 Si1 1_555 1_555
H5 C6 1_555 1_555
H6 C6 1_555 1_555
H7 C6 1_555 1_555
C7 Si1 1_555 1_555
H8 C7 1_555 1_555
H9 C7 1_555 1_555
H10 C7 1_555 1_555
C8 N2 1_555 1_555
H11 C8 1_555 1_555
C9 Si1 1_555 1_555
C10 C9 1_555 1_555
H12 C10 1_555 1_555
C11 C10 1_555 1_555
H13 C11 1_555 1_555
C12 N2 1_555 1_555
H14 C12 1_555 1_555
C13 N3 1_555 1_555
H15 C13 1_555 1_555
C14 C13 1_555 1_555
H16 C14 1_555 1_555
C15 C14 1_555 1_555
H17 C15 1_555 1_555
C16 C15 1_555 1_555
C17 N3 1_555 1_555
H18 C17 1_555 1_555
C18 Si2 1_555 1_555
H19 C18 1_555 1_555
H20 C18 1_555 1_555
H21 C18 1_555 1_555
C19 Si2 1_555 1_555
H22 C19 1_555 1_555
H23 C19 1_555 1_555
H24 C19 1_555 1_555
C20 N4 1_555 1_555
H25 C20 1_555 1_555
C21 Si2 1_555 1_555
C22 C21 1_555 1_555
H26 C22 1_555 1_555
C23 C22 1_555 1_555
H27 C23 1_555 1_555
C24 N4 1_555 1_555
H28 C24 1_555 1_555
C25 N5 1_555 1_555
H29 C25 1_555 1_555
C26 C25 1_555 1_555
H30 C26 1_555 1_555
C27 C26 1_555 1_555
H31 C27 1_555 1_555
C28 C27 1_555 1_555
C29 N5 1_555 1_555
H32 C29 1_555 1_555
C30 Si3 1_555 1_555
H33 C30 1_555 1_555
H34 C30 1_555 1_555
H35 C30 1_555 1_555
C31 Si3 1_555 1_555
H36 C31 1_555 1_555
H37 C31 1_555 1_555
H38 C31 1_555 1_555
C32 H39 1_555 1_555
C33 Si3 1_555 1_555
C34 C33 1_555 1_555
H40 C34 1_555 1_555
C35 C34 1_555 1_555
H41 C35 1_555 1_555
C36 N6 1_555 1_555
H42 C36 1_555 1_555
C37 H43 1_555 1_555
H44 C37 1_555 1_555
H45 C37 1_555 1_555
C38 C37 1_555 1_555
C39 C38 1_555 1_555
H46 C39 1_555 1_555
H47 C39 1_555 1_555
H48 C39 1_555 1_555
Pd3B N6 1_555 1_555
Cl5B Pd3B 1_555 1_555
Cl6B Pd3B 1_555 1_555
Si3B C28B 1_555 1_555
N5B Pd3B 1_555 1_555
N6B Pd3 1_555 1_555
C25B N5B 1_555 1_555
H29B C25B 1_555 1_555
C26B C25B 1_555 1_555
H30B C26B 1_555 1_555
C27B C26B 1_555 1_555
H31B C27B 1_555 1_555
C28B C27B 1_555 1_555
C29B N5B 1_555 1_555
H32B C29B 1_555 1_555
C30B Si3B 1_555 1_555
H33B C30B 1_555 1_555
H34B C30B 1_555 1_555
H35B C30B 1_555 1_555
C31B Si3B 1_555 1_555
H36B C31B 1_555 1_555
H37B C31B 1_555 1_555
H38B C31B 1_555 1_555
C32B N6B 1_555 1_555
H39B C32B 1_555 1_555
C33B Si3B 1_555 1_555
C34B C33B 1_555 1_555
H40B C34B 1_555 1_555
C35B C34B 1_555 1_555
H41B C35B 1_555 1_555
C36B N6B 1_555 1_555
H42B C36B 1_555 1_555
C4 C5 1_555 1_555
C8 C9 1_555 1_555
C11 C12 1_555 1_555
C16 C17 1_555 1_555
C20 C21 1_555 1_555
C23 C24 1_555 1_555
C28 C29 1_555 1_555
C32 C33 1_555 1_555
C35 C36 1_555 1_555
C28B C29B 1_555 1_555
C32B C33B 1_555 1_555
C35B C36B 1_555 1_555

#END
