
#######################################################################
#
#                 Cambridge Crystallographic Data Centre
#                                CCDC 
#
#######################################################################
#
# If this CIF has been generated from an entry in the Cambridge 
# Structural Database, then it will include bibliographic, chemical, 
# crystal, experimental, refinement or atomic coordinate data resulting 
# from the CCDC's data processing and validation procedures.
#
#######################################################################

data_VUVKII
_chemical_formula_moiety         
'C160 H220 N10 O50 Tb10,4(C2 H3 N1),8(C1 H1 Cl3)'
_chemical_name_systematic        
"decakis(\m~3~-2-((2-Oxyethyl)carbonoimidoyl)-6-(hydroxymethyl)-4-methylphenolato)-decakis(pivalato-O,O')-deca-terbium acetonitrile chloroform solvate"
_symmetry_cell_setting           triclinic
_symmetry_space_group_name_H-M   'P -1'
_symmetry_Int_Tables_number      2
_space_group_name_Hall           '-P 1'
loop_
_symmetry_equiv_pos_site_id
_symmetry_equiv_pos_as_xyz
1 x,y,z
2 -x,-y,-z
_cell_length_a                   22.0256(15)
_cell_length_b                   23.0524(15)
_cell_length_c                   24.7831(17)
_cell_angle_alpha                63.3580(10)
_cell_angle_beta                 83.503(2)
_cell_angle_gamma                82.659(2)
_cell_volume                     11133.1
_exptl_crystal_colour            colorless
_exptl_crystal_description       Block
_cell_formula_units_Z            2
loop_
_atom_site_label
_atom_site_type_symbol
_atom_site_fract_x
_atom_site_fract_y
_atom_site_fract_z
Tb1 Tb 0.87000(2) 0.26257(2) 0.06013(2)
Tb2 Tb 0.76618(2) 0.37608(2) 0.11359(2)
Tb3 Tb 0.80724(2) 0.47526(2) 0.19177(2)
Tb4 Tb 0.86690(2) 0.64391(2) 0.12736(2)
Tb5 Tb 1.03204(2) 0.69327(2) 0.08714(2)
O1 O 0.8627(3) 0.3341(3) 0.1027(3)
O2 O 0.9573(3) 0.2234(3) 0.0165(3)
O3 O 1.0203(3) 0.2082(3) -0.0879(3)
H1 H 1.049(3) 0.2015(16) -0.109(3)
O4 O 0.8067(3) 0.4685(3) 0.1038(3)
O5 O 0.7730(3) 0.3304(3) 0.0441(3)
O6 O 0.8086(3) 0.2224(3) 0.0108(3)
H2 H 0.8165(15) 0.206(5) -0.013(4)
O7 O 0.8901(3) 0.5370(3) 0.1503(3)
O8 O 0.7971(3) 0.3662(3) 0.2086(3)
O9 O 0.7398(3) 0.2695(3) 0.1852(3)
H3 H 0.738(5) 0.2342(16) 0.1851(18)
O10 O 0.9511(3) 0.6654(3) 0.0582(3)
O11 O 0.7782(3) 0.5903(3) 0.1347(3)
O12 O 0.6964(3) 0.4887(3) 0.2062(3)
H4 H 0.6697(13) 0.464(2) 0.213(5)
O13 O 1.0925(3) 0.6563(3) 0.0248(3)
O14 O 0.9638(3) 0.6376(3) 0.1707(3)
O15 O 0.8409(3) 0.6280(3) 0.2293(3)
H5 H 0.813(3) 0.610(5) 0.254(2)
O16 O 0.8205(3) 0.1929(3) 0.1608(3)
O17 O 0.8786(3) 0.1408(3) 0.1167(3)
O18 O 0.6565(3) 0.3710(3) 0.0986(3)
O19 O 0.6731(3) 0.4288(3) 0.1451(3)
O20 O 0.7837(3) 0.4117(3) 0.3014(3)
O21 O 0.8157(3) 0.5074(3) 0.2737(3)
O22 O 0.7779(3) 0.7229(3) 0.1180(3)
O23 O 0.8678(3) 0.7612(3) 0.1003(3)
O24 O 1.1331(3) 0.7255(4) 0.0930(3)
O25 O 1.0722(3) 0.7002(3) 0.1747(3)
N1 N 0.9536(4) 0.2370(4) 0.1270(4)
N2 N 0.7474(4) 0.4675(4) 0.0130(4)
N3 N 0.9035(4) 0.4103(4) 0.2326(4)
N4 N 0.8347(4) 0.6826(4) 0.0227(4)
N5 N 1.0841(4) 0.5837(4) 0.1475(4)
C1 C 0.9166(5) 0.3382(5) 0.1262(5)
H6 H 0.9071 0.3625 0.1500
H7 H 0.9461 0.3609 0.0933
C2 C 0.9435(5) 0.2705(5) 0.1652(5)
H8 H 0.9819 0.2720 0.1801
H9 H 0.9154 0.2484 0.1996
C3 C 0.9975(5) 0.1929(5) 0.1374(5)
H10 H 1.0200 0.1832 0.1704
C4 C 1.0161(5) 0.1556(5) 0.1028(5)
C5 C 1.0578(5) 0.0996(5) 0.1302(5)
H11 H 1.0715 0.0903 0.1676
C6 C 1.0787(5) 0.0585(5) 0.1046(5)
C7 C 1.1246(5) 0.0010(5) 0.1346(6)
H12 H 1.1525 0.0120 0.1550
H13 H 1.1471 -0.0101 0.1045
H14 H 1.1033 -0.0355 0.1634
C8 C 1.0583(5) 0.0750(5) 0.0484(5)
H15 H 1.0722 0.0486 0.0294
C9 C 1.0178(5) 0.1296(5) 0.0190(5)
C10 C 0.9960(5) 0.1713(5) 0.0458(4)
C11 C 0.9999(5) 0.1470(5) -0.0431(5)
H16 H 0.9556 0.1490 -0.0426
H17 H 1.0170 0.1129 -0.0545
C12 C 0.8189(5) 0.5166(5) 0.0440(4)
H18 H 0.8539 0.5012 0.0250
H19 H 0.8284 0.5561 0.0448
C13 C 0.7630(5) 0.5303(5) 0.0086(5)
H20 H 0.7289 0.5497 0.0252
H21 H 0.7715 0.5604 -0.0334
C14 C 0.7248(5) 0.4660(5) -0.0316(5)
H22 H 0.7192 0.5053 -0.0659
C15 C 0.7069(5) 0.4083(5) -0.0336(5)
C16 C 0.6649(5) 0.4193(5) -0.0758(5)
H23 H 0.6506 0.4621 -0.1002
C17 C 0.6431(5) 0.3696(5) -0.0833(5)
C18 C 0.5974(5) 0.3797(6) -0.1272(5)
H24 H 0.5598 0.3626 -0.1056
H25 H 0.6130 0.3574 -0.1513
H26 H 0.5899 0.4254 -0.1529
C19 C 0.6709(5) 0.3071(5) -0.0500(5)
H27 H 0.6599 0.2728 -0.0559
C20 C 0.7141(5) 0.2937(5) -0.0085(5)
C21 C 0.7329(4) 0.3435(5) 0.0021(4)
C22 C 0.7436(5) 0.2260(5) 0.0247(5)
H28 H 0.7357 0.2119 0.0679
H29 H 0.7254 0.1967 0.0140
C23 C 0.9488(4) 0.5043(5) 0.1547(5)
H30 H 0.9796 0.5346 0.1449
H31 H 0.9552 0.4854 0.1263
C24 C 0.9546(4) 0.4508(5) 0.2190(5)
H32 H 0.9935 0.4247 0.2222
H33 H 0.9526 0.4697 0.2472
C25 C 0.9119(4) 0.3499(5) 0.2693(4)
H34 H 0.9497 0.3354 0.2862
C26 C 0.8670(4) 0.3013(4) 0.2871(4)
C27 C 0.8809(4) 0.2432(5) 0.3367(4)
H35 H 0.9164 0.2385 0.3558
C28 C 0.8445(5) 0.1916(5) 0.3593(4)
C29 C 0.8615(5) 0.1279(5) 0.4122(5)
H36 H 0.8725 0.0948 0.3985
H37 H 0.8271 0.1158 0.4414
H38 H 0.8956 0.1324 0.4305
C30 C 0.7914(5) 0.2015(5) 0.3286(5)
H39 H 0.7653 0.1683 0.3427
C31 C 0.7766(5) 0.2584(4) 0.2786(4)
C32 C 0.8133(4) 0.3109(5) 0.2566(4)
C33 C 0.7218(4) 0.2641(5) 0.2448(5)
H40 H 0.6990 0.2261 0.2673
H41 H 0.6950 0.3022 0.2415
C34 C 0.9431(5) 0.6655(5) 0.0024(4)
H42 H 0.9408 0.6213 0.0082
H43 H 0.9779 0.6832 -0.0258
C35 C 0.8852(5) 0.7063(5) -0.0229(5)
H44 H 0.8894 0.7516 -0.0335
H45 H 0.8772 0.7032 -0.0592
C36 C 0.7815(4) 0.6872(5) 0.0053(5)
H46 H 0.7773 0.7065 -0.0362
C37 C 0.7262(4) 0.6647(4) 0.0447(4)
C38 C 0.6706(5) 0.6909(5) 0.0173(5)
H47 H 0.6716 0.7195 -0.0237
C39 C 0.6145(5) 0.6760(5) 0.0486(5)
C40 C 0.5543(5) 0.7054(6) 0.0169(6)
H48 H 0.5634 0.7339 -0.0249
H49 H 0.5303 0.7297 0.0360
H50 H 0.5317 0.6711 0.0198
C41 C 0.6141(5) 0.6320(5) 0.1108(5)
H51 H 0.5771 0.6230 0.1339
C42 C 0.6685(5) 0.6026(5) 0.1373(5)
C43 C 0.7269(4) 0.6190(4) 0.1064(5)
C44 C 0.6681(5) 0.5507(4) 0.2019(4)
H52 H 0.6898 0.5642 0.2256
H53 H 0.6260 0.5456 0.2188
C45 C 1.1085(5) 0.5870(5) 0.0490(5)
H54 H 1.0728 0.5649 0.0519
H55 H 1.1399 0.5776 0.0225
C46 C 1.1322(5) 0.5635(5) 0.1115(5)
H56 H 1.1404 0.5164 0.1304
H57 H 1.1699 0.5827 0.1085
C47 C 1.0768(5) 0.5482(5) 0.2041(5)
H58 H 1.1027 0.5101 0.2202
C48 C 1.0319(4) 0.5610(5) 0.2463(5)
C49 C 1.0427(5) 0.5253(5) 0.3087(5)
H59 H 1.0769 0.4953 0.3203
C50 C 1.0043(5) 0.5341(5) 0.3519(5)
C51 C 1.0171(6) 0.4951(7) 0.4186(5)
H60 H 0.9862 0.4653 0.4390
H61 H 1.0166 0.5244 0.4366
H62 H 1.0566 0.4711 0.4222
C52 C 0.9521(5) 0.5771(5) 0.3344(5)
H63 H 0.9259 0.5838 0.3636
C53 C 0.9384(4) 0.6102(5) 0.2740(4)
C54 C 0.9778(5) 0.6054(5) 0.2273(5)
C55 C 0.8794(5) 0.6525(5) 0.2562(5)
H64 H 0.8577 0.6544 0.2918
H65 H 0.8884 0.6964 0.2277
C56 C 0.8510(5) 0.1403(5) 0.1637(5)
C57 C 0.8561(5) 0.0805(6) 0.2252(5)
C58 C 0.8900(6) 0.0223(5) 0.2171(6)
H66 H 0.8651 0.0085 0.1964
H67 H 0.8981 -0.0129 0.2560
H68 H 0.9280 0.0349 0.1938
C59 C 0.7922(6) 0.0636(6) 0.2548(6)
H69 H 0.7710 0.1001 0.2598
H70 H 0.7956 0.0266 0.2936
H71 H 0.7698 0.0533 0.2296
C60 C 0.8921(6) 0.0987(6) 0.2646(5)
H72 H 0.9330 0.1069 0.2469
H73 H 0.8936 0.0634 0.3046
H74 H 0.8719 0.1371 0.2668
C61 C 0.6366(5) 0.4105(5) 0.1195(5)
C62 C 0.5713(5) 0.4439(5) 0.1101(5)
C63 C 0.5438(5) 0.4466(7) 0.1684(6)
H75 H 0.5381 0.4032 0.1990
H76 H 0.5049 0.4720 0.1610
H77 H 0.5710 0.4662 0.1817
C64 C 0.5768(5) 0.5127(5) 0.0597(6)
H78 H 0.6042 0.5344 0.0706
H79 H 0.5371 0.5366 0.0541
H80 H 0.5924 0.5106 0.0229
C65 C 0.5304(6) 0.4076(6) 0.0904(7)
H81 H 0.5523 0.3978 0.0593
H82 H 0.4935 0.4346 0.0752
H83 H 0.5202 0.3678 0.1246
C66 C 0.8034(5) 0.4512(5) 0.3144(5)
C67 C 0.8178(5) 0.4316(5) 0.3807(5)
C68 C 0.7879(6) 0.3713(6) 0.4230(5)
H84 H 0.7988 0.3381 0.4095
H85 H 0.7442 0.3808 0.4238
H86 H 0.8016 0.3564 0.4629
C69 C 0.8870(5) 0.4170(6) 0.3832(6)
H87 H 0.8978 0.3997 0.4243
H88 H 0.9065 0.4564 0.3590
H89 H 0.9003 0.3856 0.3678
C70 C 0.7979(7) 0.4873(6) 0.3976(5)
H90 H 0.7540 0.4953 0.3979
H91 H 0.8161 0.5259 0.3685
H92 H 0.8110 0.4759 0.4370
C71 C 0.8094(5) 0.7706(5) 0.0982(4)
C72 C 0.7801(5) 0.8399(5) 0.0635(5)
C73 C 0.7110(5) 0.8420(6) 0.0794(6)
H93 H 0.6944 0.8078 0.0752
H94 H 0.6918 0.8833 0.0527
H95 H 0.7035 0.8360 0.1204
C74 C 0.7913(5) 0.8568(5) -0.0037(5)
H96 H 0.8346 0.8530 -0.0136
H97 H 0.7748 0.9007 -0.0274
H98 H 0.7716 0.8275 -0.0125
C75 C 0.8095(6) 0.8885(6) 0.0763(6)
H99 H 0.8086 0.8742 0.1192
H100 H 0.7872 0.9306 0.0579
H101 H 0.8513 0.8914 0.0599
C76 C 1.1248(5) 0.7091(5) 0.1498(5)
C77 C 1.1811(5) 0.6946(6) 0.1876(5)
C78 C 1.2185(5) 0.6340(6) 0.1870(6)
H102 H 1.2545 0.6247 0.2090
H103 H 1.2304 0.6419 0.1459
H104 H 1.1940 0.5976 0.2056
C79 C 1.1600(6) 0.6811(6) 0.2521(5)
H105 H 1.1311 0.6486 0.2675
H106 H 1.1407 0.7205 0.2530
H107 H 1.1946 0.6658 0.2766
C80 C 1.2195(5) 0.7546(6) 0.1572(5)
H108 H 1.1952 0.7921 0.1575
H109 H 1.2316 0.7625 0.1162
H110 H 1.2554 0.7462 0.1792
Tb1A Tb 1.13000(2) 0.73743(2) -0.06013(2)
Tb2A Tb 1.23382(2) 0.62392(2) -0.11359(2)
Tb3A Tb 1.19276(2) 0.52474(2) -0.19177(2)
Tb4A Tb 1.13310(2) 0.35609(2) -0.12736(2)
Tb5A Tb 0.96796(2) 0.30673(2) -0.08714(2)
O1A O 1.1373(3) 0.6659(3) -0.1027(3)
O2A O 1.0427(3) 0.7766(3) -0.0165(3)
O3A O 0.9797(3) 0.7918(3) 0.0879(3)
H1A H 0.951(3) 0.7985(16) 0.109(3)
O4A O 1.1933(3) 0.5315(3) -0.1038(3)
O5A O 1.2270(3) 0.6696(3) -0.0441(3)
O6A O 1.1914(3) 0.7776(3) -0.0108(3)
H2A H 1.1835(15) 0.794(5) 0.013(4)
O7A O 1.1099(3) 0.4630(3) -0.1503(3)
O8A O 1.2029(3) 0.6338(3) -0.2086(3)
O9A O 1.2602(3) 0.7305(3) -0.1852(3)
H3A H 1.262(5) 0.7658(16) -0.1851(18)
O10A O 1.0489(3) 0.3346(3) -0.0582(3)
O11A O 1.2218(3) 0.4097(3) -0.1347(3)
O12A O 1.3036(3) 0.5113(3) -0.2062(3)
H4A H 1.3303(13) 0.536(2) -0.213(5)
O13A O 0.9075(3) 0.3437(3) -0.0248(3)
O14A O 1.0362(3) 0.3624(3) -0.1707(3)
O15A O 1.1591(3) 0.3720(3) -0.2293(3)
H5A H 1.187(3) 0.390(5) -0.254(2)
O16A O 1.1795(3) 0.8071(3) -0.1608(3)
O17A O 1.1214(3) 0.8592(3) -0.1167(3)
O18A O 1.3435(3) 0.6290(3) -0.0986(3)
O19A O 1.3269(3) 0.5712(3) -0.1451(3)
O20A O 1.2163(3) 0.5883(3) -0.3014(3)
O21A O 1.1843(3) 0.4926(3) -0.2737(3)
O22A O 1.2221(3) 0.2771(3) -0.1180(3)
O23A O 1.1322(3) 0.2388(3) -0.1003(3)
O24A O 0.8669(3) 0.2745(4) -0.0930(3)
O25A O 0.9278(3) 0.2998(3) -0.1747(3)
N1A N 1.0464(4) 0.7630(4) -0.1270(4)
N2A N 1.2526(4) 0.5325(4) -0.0130(4)
N3A N 1.0965(4) 0.5897(4) -0.2326(4)
N4A N 1.1653(4) 0.3174(4) -0.0227(4)
N5A N 0.9159(4) 0.4163(4) -0.1475(4)
C1A C 1.0834(5) 0.6618(5) -0.1262(5)
H6A H 1.0929 0.6375 -0.1500
H7A H 1.0539 0.6391 -0.0933
C2A C 1.0565(5) 0.7295(5) -0.1652(5)
H8A H 1.0181 0.7280 -0.1801
H9A H 1.0846 0.7516 -0.1996
C3A C 1.0025(5) 0.8071(5) -0.1374(5)
H10A H 0.9800 0.8168 -0.1704
C4A C 0.9839(5) 0.8444(5) -0.1028(5)
C5A C 0.9422(5) 0.9004(5) -0.1302(5)
H11A H 0.9285 0.9097 -0.1676
C6A C 0.9213(5) 0.9415(5) -0.1046(5)
C7A C 0.8754(5) 0.9990(5) -0.1346(6)
H12A H 0.8475 0.9880 -0.1550
H13A H 0.8529 1.0101 -0.1045
H14A H 0.8967 1.0355 -0.1634
C8A C 0.9417(5) 0.9250(5) -0.0484(5)
H15A H 0.9278 0.9514 -0.0294
C9A C 0.9822(5) 0.8704(5) -0.0190(5)
C10A C 1.0040(5) 0.8287(5) -0.0458(4)
C11A C 1.0001(5) 0.8530(5) 0.0431(5)
H16A H 1.0444 0.8510 0.0426
H17A H 0.9830 0.8871 0.0545
C12A C 1.1811(5) 0.4834(5) -0.0440(4)
H18A H 1.1461 0.4988 -0.0250
H19A H 1.1716 0.4439 -0.0448
C13A C 1.2370(5) 0.4697(5) -0.0086(5)
H20A H 1.2711 0.4503 -0.0252
H21A H 1.2285 0.4396 0.0334
C14A C 1.2752(5) 0.5340(5) 0.0316(5)
H22A H 1.2808 0.4947 0.0659
C15A C 1.2931(5) 0.5917(5) 0.0336(5)
C16A C 1.3351(5) 0.5807(5) 0.0758(5)
H23A H 1.3494 0.5379 0.1002
C17A C 1.3569(5) 0.6304(5) 0.0833(5)
C18A C 1.4026(5) 0.6203(6) 0.1272(5)
H24A H 1.4402 0.6374 0.1056
H25A H 1.3870 0.6426 0.1513
H26A H 1.4101 0.5746 0.1529
C19A C 1.3291(5) 0.6929(5) 0.0500(5)
H27A H 1.3401 0.7272 0.0559
C20A C 1.2859(5) 0.7063(5) 0.0085(5)
C21A C 1.2671(4) 0.6565(5) -0.0021(4)
C22A C 1.2564(5) 0.7740(5) -0.0247(5)
H28A H 1.2643 0.7881 -0.0679
H29A H 1.2746 0.8033 -0.0140
C23A C 1.0512(4) 0.4957(5) -0.1547(5)
H30A H 1.0204 0.4654 -0.1449
H31A H 1.0448 0.5146 -0.1263
C24A C 1.0454(4) 0.5492(5) -0.2190(5)
H32A H 1.0065 0.5753 -0.2222
H33A H 1.0474 0.5303 -0.2472
C25A C 1.0881(4) 0.6501(5) -0.2693(4)
H34A H 1.0503 0.6646 -0.2862
C26A C 1.1330(4) 0.6987(4) -0.2871(4)
C27A C 1.1191(4) 0.7568(5) -0.3367(4)
H35A H 1.0836 0.7615 -0.3558
C28A C 1.1555(5) 0.8084(5) -0.3593(4)
C29A C 1.1385(5) 0.8721(5) -0.4122(5)
H36A H 1.1275 0.9052 -0.3985
H37A H 1.1729 0.8842 -0.4414
H38A H 1.1044 0.8676 -0.4305
C30A C 1.2086(5) 0.7985(5) -0.3286(5)
H39A H 1.2347 0.8317 -0.3427
C31A C 1.2234(5) 0.7416(4) -0.2786(4)
C32A C 1.1867(4) 0.6891(5) -0.2566(4)
C33A C 1.2782(4) 0.7359(5) -0.2448(5)
H40A H 1.3010 0.7739 -0.2673
H41A H 1.3050 0.6978 -0.2415
C34A C 1.0569(5) 0.3345(5) -0.0024(4)
H42A H 1.0592 0.3787 -0.0082
H43A H 1.0221 0.3168 0.0258
C35A C 1.1148(5) 0.2937(5) 0.0229(5)
H44A H 1.1106 0.2484 0.0335
H45A H 1.1228 0.2968 0.0592
C36A C 1.2185(4) 0.3128(5) -0.0053(5)
H46A H 1.2227 0.2935 0.0362
C37A C 1.2738(4) 0.3353(4) -0.0447(4)
C38A C 1.3294(5) 0.3091(5) -0.0173(5)
H47A H 1.3284 0.2805 0.0237
C39A C 1.3855(5) 0.3240(5) -0.0486(5)
C40A C 1.4457(5) 0.2946(6) -0.0169(6)
H48A H 1.4366 0.2661 0.0249
H49A H 1.4697 0.2703 -0.0360
H50A H 1.4683 0.3289 -0.0198
C41A C 1.3859(5) 0.3680(5) -0.1108(5)
H51A H 1.4229 0.3770 -0.1339
C42A C 1.3315(5) 0.3974(5) -0.1373(5)
C43A C 1.2731(4) 0.3810(4) -0.1064(5)
C44A C 1.3319(5) 0.4493(4) -0.2019(4)
H52A H 1.3102 0.4358 -0.2256
H53A H 1.3740 0.4544 -0.2188
C45A C 0.8915(5) 0.4130(5) -0.0490(5)
H54A H 0.9272 0.4351 -0.0519
H55A H 0.8601 0.4224 -0.0225
C46A C 0.8678(5) 0.4365(5) -0.1115(5)
H56A H 0.8596 0.4836 -0.1304
H57A H 0.8301 0.4173 -0.1085
C47A C 0.9232(5) 0.4518(5) -0.2041(5)
H58A H 0.8973 0.4899 -0.2202
C48A C 0.9681(4) 0.4390(5) -0.2463(5)
C49A C 0.9573(5) 0.4747(5) -0.3087(5)
H59A H 0.9231 0.5047 -0.3203
C50A C 0.9957(5) 0.4659(5) -0.3519(5)
C51A C 0.9829(6) 0.5049(7) -0.4186(5)
H60A H 1.0138 0.5347 -0.4390
H61A H 0.9834 0.4756 -0.4366
H62A H 0.9434 0.5289 -0.4222
C52A C 1.0479(5) 0.4229(5) -0.3344(5)
H63A H 1.0741 0.4162 -0.3636
C53A C 1.0616(4) 0.3898(5) -0.2740(4)
C54A C 1.0222(5) 0.3946(5) -0.2273(5)
C55A C 1.1206(5) 0.3475(5) -0.2562(5)
H64A H 1.1423 0.3456 -0.2918
H65A H 1.1116 0.3036 -0.2277
C56A C 1.1490(5) 0.8597(5) -0.1637(5)
C57A C 1.1439(5) 0.9195(6) -0.2252(5)
C58A C 1.1100(6) 0.9777(5) -0.2171(6)
H66A H 1.1349 0.9915 -0.1964
H67A H 1.1019 1.0129 -0.2560
H68A H 1.0720 0.9651 -0.1938
C59A C 1.2078(6) 0.9364(6) -0.2548(6)
H69A H 1.2290 0.8999 -0.2598
H70A H 1.2044 0.9734 -0.2936
H71A H 1.2302 0.9467 -0.2296
C60A C 1.1079(6) 0.9013(6) -0.2646(5)
H72A H 1.0670 0.8931 -0.2469
H73A H 1.1064 0.9366 -0.3046
H74A H 1.1281 0.8629 -0.2668
C61A C 1.3634(5) 0.5895(5) -0.1195(5)
C62A C 1.4287(5) 0.5561(5) -0.1101(5)
C63A C 1.4562(5) 0.5534(7) -0.1684(6)
H75A H 1.4619 0.5968 -0.1990
H76A H 1.4951 0.5280 -0.1610
H77A H 1.4290 0.5338 -0.1817
C64A C 1.4232(5) 0.4873(5) -0.0597(6)
H78A H 1.3958 0.4656 -0.0706
H79A H 1.4629 0.4634 -0.0541
H80A H 1.4076 0.4894 -0.0229
C65A C 1.4696(6) 0.5924(6) -0.0904(7)
H81A H 1.4477 0.6022 -0.0593
H82A H 1.5065 0.5654 -0.0752
H83A H 1.4798 0.6322 -0.1246
C66A C 1.1966(5) 0.5488(5) -0.3144(5)
C67A C 1.1822(5) 0.5684(5) -0.3807(5)
C68A C 1.2121(6) 0.6287(6) -0.4230(5)
H84A H 1.2012 0.6619 -0.4095
H85A H 1.2558 0.6192 -0.4238
H86A H 1.1984 0.6436 -0.4629
C69A C 1.1130(5) 0.5830(6) -0.3832(6)
H87A H 1.1022 0.6003 -0.4243
H88A H 1.0935 0.5436 -0.3590
H89A H 1.0997 0.6144 -0.3678
C70A C 1.2021(7) 0.5127(6) -0.3976(5)
H90A H 1.2460 0.5047 -0.3979
H91A H 1.1839 0.4741 -0.3685
H92A H 1.1890 0.5241 -0.4370
C71A C 1.1906(5) 0.2294(5) -0.0982(4)
C72A C 1.2199(5) 0.1601(5) -0.0635(5)
C73A C 1.2890(5) 0.1580(6) -0.0794(6)
H93A H 1.3056 0.1922 -0.0752
H94A H 1.3082 0.1167 -0.0527
H95A H 1.2965 0.1640 -0.1204
C74A C 1.2087(5) 0.1432(5) 0.0037(5)
H96A H 1.1654 0.1470 0.0136
H97A H 1.2252 0.0993 0.0274
H98A H 1.2284 0.1725 0.0125
C75A C 1.1905(6) 0.1115(6) -0.0763(6)
H99A H 1.1914 0.1258 -0.1192
H100A H 1.2128 0.0694 -0.0579
H101A H 1.1487 0.1086 -0.0599
C76A C 0.8752(5) 0.2909(5) -0.1498(5)
C77A C 0.8189(5) 0.3054(6) -0.1876(5)
C78A C 0.7815(5) 0.3660(6) -0.1870(6)
H102A H 0.7455 0.3753 -0.2090
H103A H 0.7696 0.3581 -0.1459
H104A H 0.8060 0.4024 -0.2056
C79A C 0.8400(6) 0.3189(6) -0.2521(5)
H105A H 0.8689 0.3514 -0.2675
H106A H 0.8593 0.2795 -0.2530
H107A H 0.8054 0.3342 -0.2766
C80A C 0.7805(5) 0.2454(6) -0.1572(5)
H108A H 0.8048 0.2079 -0.1575
H109A H 0.7684 0.2375 -0.1162
H110A H 0.7446 0.2538 -0.1792
Tb6 Tb 0.26428(2) 1.12615(2) 0.38504(2)
Tb7 Tb 0.34991(2) 1.02448(2) 0.30856(2)
Tb8 Tb 0.43561(2) 0.85486(2) 0.37357(2)
Tb9 Tb 0.60250(2) 0.80245(2) 0.41624(2)
Tb10 Tb 0.67398(2) 0.75983(2) 0.56368(2)
O26 O 0.3245(3) 1.0323(3) 0.3962(3)
O27 O 0.2414(3) 1.1738(3) 0.4531(3)
O28 O 0.2417(3) 1.2835(3) 0.4826(3)
H111 H 0.2399(15) 1.300(5) 0.506(4)
O29 O 0.4372(3) 0.9609(3) 0.3509(3)
O30 O 0.3167(3) 1.1337(3) 0.2906(3)
O31 O 0.2288(3) 1.2322(3) 0.3112(3)
H112 H 0.218(5) 1.2678(16) 0.3106(19)
O32 O 0.5060(3) 0.8326(3) 0.4437(3)
O33 O 0.3341(3) 0.9096(3) 0.3651(3)
O34 O 0.2451(3) 1.0149(3) 0.2938(3)
H113 H 0.2140(15) 1.040(2) 0.287(5)
O35 O 0.6373(3) 0.8399(3) 0.4781(3)
O36 O 0.5419(3) 0.8591(3) 0.3315(3)
O37 O 0.4309(3) 0.8706(3) 0.2711(3)
H114 H 0.405(2) 0.888(5) 0.246(2)
O38 O 0.6521(3) 0.8341(3) 0.6036(3)
O39 O 0.6078(3) 0.7211(3) 0.5209(3)
O40 O 0.5750(3) 0.7041(3) 0.4172(3)
H115 H 0.553(4) 0.6976(16) 0.396(3)
O41 O 0.1910(3) 1.0752(3) 0.3539(3)
O42 O 0.1496(3) 1.1332(3) 0.4011(3)
O43 O 0.3384(3) 1.0875(3) 0.1985(3)
O44 O 0.3883(3) 0.9907(3) 0.2273(3)
O45 O 0.3641(3) 0.7772(3) 0.3798(3)
O46 O 0.4587(3) 0.7373(3) 0.4021(4)
O47 O 0.6656(3) 0.7920(3) 0.3312(3)
O48 O 0.7127(3) 0.7671(4) 0.4130(3)
O49 O 0.7148(3) 0.6922(3) 0.6646(3)
O50 O 0.6800(3) 0.6382(3) 0.6238(3)
N6 N 0.2434(4) 1.0363(4) 0.4862(4)
N7 N 0.4415(4) 1.0871(4) 0.2684(4)
N8 N 0.3859(4) 0.8168(4) 0.4768(4)
N9 N 0.6436(4) 0.9098(4) 0.3554(4)
N10 N 0.5796(4) 0.7373(4) 0.6298(4)
C81 C 0.3345(5) 0.9844(5) 0.4557(4)
H116 H 0.3617 0.9992 0.4742
H117 H 0.3534 0.9444 0.4550
C82 C 0.2727(5) 0.9726(5) 0.4919(5)
H118 H 0.2470 0.9532 0.4762
H119 H 0.2786 0.9431 0.5340
C83 C 0.2103(5) 1.0388(4) 0.5303(5)
H120 H 0.2067 0.9997 0.5649
C84 C 0.1775(5) 1.0962(5) 0.5323(5)
C85 C 0.1278(5) 1.0874(5) 0.5754(4)
H121 H 0.1179 1.0450 0.6002
C86 C 0.0925(5) 1.1378(5) 0.5831(5)
C87 C 0.0385(5) 1.1261(6) 0.6276(5)
H122 H 0.0260 1.0835 0.6394
H123 H 0.0053 1.1582 0.6095
H124 H 0.0494 1.1292 0.6626
C88 C 0.1111(5) 1.2002(5) 0.5463(5)
H125 H 0.0890 1.2353 0.5504
C89 C 0.1603(4) 1.2124(5) 0.5042(4)
C90 C 0.1945(4) 1.1611(5) 0.4957(5)
C91 C 0.1796(5) 1.2807(5) 0.4689(5)
H126 H 0.1513 1.3106 0.4792
H127 H 0.1784 1.2938 0.4259
C92 C 0.4887(5) 0.9932(5) 0.3492(5)
H128 H 0.5248 0.9625 0.3611
H129 H 0.4810 1.0133 0.3766
C93 C 0.4984(4) 1.0452(5) 0.2839(5)
H130 H 0.5319 1.0705 0.2804
H131 H 0.5083 1.0249 0.2568
C94 C 0.4428(4) 1.1471(5) 0.2324(4)
H132 H 0.4814 1.1616 0.2168
C95 C 0.3907(5) 1.1958(4) 0.2126(4)
C96 C 0.4033(4) 1.2540(4) 0.1623(4)
H133 H 0.4427 1.2581 0.1439
C97 C 0.3585(5) 1.3064(5) 0.1384(5)
C98 C 0.3740(5) 1.3679(5) 0.0843(5)
H134 H 0.3434 1.3805 0.0554
H135 H 0.4134 1.3608 0.0663
H136 H 0.3750 1.4019 0.0964
C99 C 0.3005(5) 1.2977(5) 0.1679(5)
H137 H 0.2694 1.3310 0.1528
C100 C 0.2873(5) 1.2415(5) 0.2187(5)
C101 C 0.3323(5) 1.1878(5) 0.2418(5)
C102 C 0.2244(4) 1.2365(5) 0.2507(4)
H138 H 0.1975 1.2744 0.2275
H139 H 0.2072 1.1981 0.2544
C103 C 0.4847(5) 0.8322(5) 0.4984(5)
H140 H 0.4721 0.8764 0.4926
H141 H 0.5173 0.8148 0.5262
C104 C 0.4303(5) 0.7905(6) 0.5249(6)
H142 H 0.4434 0.7452 0.5353
H143 H 0.4120 0.7938 0.5610
C105 C 0.3289(5) 0.8137(5) 0.4943(5)
H144 H 0.3192 0.7951 0.5357
C106 C 0.2783(4) 0.8367(5) 0.4550(4)
C107 C 0.2216(5) 0.8129(5) 0.4819(5)
H145 H 0.2195 0.7842 0.5228
C108 C 0.1685(5) 0.8297(5) 0.4510(5)
C109 C 0.1088(5) 0.8040(6) 0.4823(5)
H146 H 0.1149 0.7743 0.5238
H147 H 0.0934 0.7817 0.4627
H148 H 0.0798 0.8395 0.4805
C110 C 0.1733(5) 0.8724(5) 0.3888(5)
H149 H 0.1402 0.8813 0.3653
C111 C 0.2287(5) 0.9018(5) 0.3619(5)
C112 C 0.2827(4) 0.8831(4) 0.3925(5)
C113 C 0.2312(5) 0.9537(5) 0.2976(5)
H150 H 0.2623 0.9398 0.2738
H151 H 0.1920 0.9595 0.2806
C114 C 0.6429(5) 0.9083(5) 0.4531(5)
H152 H 0.6650 0.9179 0.4794
H153 H 0.6025 0.9319 0.4488
C115 C 0.6775(5) 0.9290(5) 0.3916(5)
H154 H 0.6800 0.9757 0.3720
H155 H 0.7188 0.9077 0.3961
C116 C 0.6416(5) 0.9458(5) 0.2991(5)
H156 H 0.6620 0.9835 0.2833
C117 C 0.6105(5) 0.9340(5) 0.2569(5)
C118 C 0.6281(5) 0.9681(5) 0.1950(5)
H157 H 0.6583 0.9968 0.1839
C119 C 0.6031(5) 0.9610(5) 0.1502(5)
C120 C 0.6237(6) 0.9985(6) 0.0853(5)
H158 H 0.6108 1.0439 0.0724
H159 H 0.6059 0.9829 0.0612
H160 H 0.6676 0.9928 0.0807
C121 C 0.5575(5) 0.9186(6) 0.1690(5)
H161 H 0.5404 0.9123 0.1397
C122 C 0.5362(5) 0.8857(5) 0.2274(5)
C123 C 0.5629(5) 0.8908(5) 0.2750(5)
C124 C 0.4830(5) 0.8448(5) 0.2451(5)
H162 H 0.4710 0.8425 0.2096
H163 H 0.4956 0.8008 0.2742
C125 C 0.5912(5) 0.8425(5) 0.6248(5)
H164 H 0.5887 0.8683 0.6470
H165 H 0.5650 0.8645 0.5911
C126 C 0.5710(5) 0.7733(5) 0.6668(5)
H166 H 0.5960 0.7519 0.7015
H167 H 0.5284 0.7758 0.6811
C127 C 0.5420(5) 0.6943(5) 0.6399(5)
H168 H 0.5117 0.6875 0.6710
C128 C 0.5431(5) 0.6556(5) 0.6069(5)
C129 C 0.5110(5) 0.5996(5) 0.6348(5)
H169 H 0.4915 0.5904 0.6727
C130 C 0.5063(6) 0.5581(5) 0.6112(5)
C131 C 0.4705(7) 0.4985(6) 0.6422(7)
H170 H 0.4811 0.4745 0.6835
H171 H 0.4802 0.4713 0.6217
H172 H 0.4273 0.5118 0.6412
C132 C 0.5369(5) 0.5726(5) 0.5544(5)
H173 H 0.5352 0.5452 0.5364
C133 C 0.5702(5) 0.6276(5) 0.5243(5)
C134 C 0.5743(4) 0.6691(5) 0.5502(5)
C135 C 0.6003(5) 0.6420(5) 0.4625(5)
H174 H 0.6441 0.6431 0.4631
H175 H 0.5941 0.6075 0.4519
C136 C 0.1454(4) 1.0932(4) 0.3806(4)
C137 C 0.0850(5) 1.0612(5) 0.3906(5)
C138 C 0.0969(5) 0.9904(5) 0.4429(5)
H176 H 0.0594 0.9694 0.4550
H177 H 0.1115 0.9928 0.4768
H178 H 0.1271 0.9657 0.4287
C139 C 0.0709(6) 1.0559(7) 0.3346(6)
H179 H 0.0311 1.0404 0.3406
H180 H 0.1012 1.0259 0.3274
H181 H 0.0715 1.0979 0.3005
C140 C 0.0323(6) 1.0970(6) 0.4123(7)
H182 H 0.0106 1.1286 0.3783
H183 H 0.0484 1.1187 0.4322
H184 H 0.0047 1.0663 0.4402
C141 C 0.3730(4) 1.0469(5) 0.1859(5)
C142 C 0.4004(5) 1.0669(6) 0.1210(5)
C143 C 0.3652(6) 1.1287(7) 0.0774(5)
H185 H 0.3241 1.1197 0.0764
H186 H 0.3853 1.1433 0.0376
H187 H 0.3641 1.1620 0.0908
C144 C 0.4666(6) 1.0824(7) 0.1199(6)
H188 H 0.4663 1.1145 0.1346
H189 H 0.4845 1.0990 0.0792
H190 H 0.4903 1.0435 0.1452
C145 C 0.3987(7) 1.0115(8) 0.1032(6)
H191 H 0.4222 0.9734 0.1300
H192 H 0.4157 1.0245 0.0624
H193 H 0.3570 1.0019 0.1058
C146 C 0.4020(5) 0.7297(5) 0.4013(5)
C147 C 0.3810(5) 0.6604(5) 0.4343(6)
C148 C 0.3157(6) 0.6616(6) 0.4205(7)
H194 H 0.3144 0.6714 0.3786
H195 H 0.2906 0.6944 0.4286
H196 H 0.3006 0.6198 0.4454
C149 C 0.3826(6) 0.6408(6) 0.5029(6)
H197 H 0.3744 0.5959 0.5259
H198 H 0.3520 0.6677 0.5141
H199 H 0.4224 0.6466 0.5111
C150 C 0.4237(7) 0.6138(6) 0.4173(7)
H200 H 0.4217 0.6259 0.3750
H201 H 0.4117 0.5703 0.4406
H202 H 0.4649 0.6155 0.4253
C151 C 0.7144(5) 0.7806(5) 0.3562(5)
C152 C 0.7771(5) 0.7894(5) 0.3203(5)
C153 C 0.7709(6) 0.7894(7) 0.2605(5)
H203 H 0.7423 0.8250 0.2377
H204 H 0.7563 0.7491 0.2673
H205 H 0.8101 0.7942 0.2384
C154 C 0.7970(6) 0.8529(7) 0.3121(6)
H206 H 0.8368 0.8594 0.2911
H207 H 0.7987 0.8521 0.3509
H208 H 0.7681 0.8879 0.2888
C155 C 0.8234(5) 0.7333(6) 0.3577(6)
H209 H 0.8626 0.7380 0.3356
H210 H 0.8092 0.6924 0.3654
H211 H 0.8272 0.7344 0.3954
C156 C 0.6969(5) 0.6399(5) 0.6697(5)
C157 C 0.6901(5) 0.5825(5) 0.7321(5)
C158 C 0.7509(6) 0.5637(6) 0.7630(6)
H212 H 0.7830 0.5551 0.7372
H213 H 0.7471 0.5253 0.8006
H214 H 0.7606 0.5987 0.7704
C159 C 0.6393(5) 0.6030(5) 0.7689(5)
H215 H 0.6505 0.6396 0.7730
H216 H 0.6335 0.5674 0.8082
H217 H 0.6018 0.6149 0.7485
C160 C 0.6719(6) 0.5238(5) 0.7264(6)
H218 H 0.6341 0.5353 0.7066
H219 H 0.6666 0.4884 0.7660
H220 H 0.7035 0.5107 0.7031
Tb6A Tb 0.73572(2) 0.87385(2) 0.61496(2)
Tb7A Tb 0.65009(2) 0.97552(2) 0.69144(2)
Tb8A Tb 0.56439(2) 1.14514(2) 0.62643(2)
Tb9A Tb 0.39750(2) 1.19755(2) 0.58376(2)
Tb10A Tb 0.32602(2) 1.24017(2) 0.43632(2)
O26A O 0.6755(3) 0.9677(3) 0.6038(3)
O27A O 0.7586(3) 0.8262(3) 0.5469(3)
O28A O 0.7583(3) 0.7165(3) 0.5174(3)
H111A H 0.7601(15) 0.700(5) 0.494(4)
O29A O 0.5628(3) 1.0391(3) 0.6491(3)
O30A O 0.6833(3) 0.8663(3) 0.7094(3)
O31A O 0.7712(3) 0.7678(3) 0.6888(3)
H112A H 0.782(5) 0.7322(16) 0.6894(19)
O32A O 0.4940(3) 1.1674(3) 0.5563(3)
O33A O 0.6659(3) 1.0904(3) 0.6349(3)
O34A O 0.7549(3) 0.9851(3) 0.7062(3)
H113A H 0.7860(15) 0.960(2) 0.713(5)
O35A O 0.3627(3) 1.1601(3) 0.5219(3)
O36A O 0.4581(3) 1.1409(3) 0.6685(3)
O37A O 0.5691(3) 1.1294(3) 0.7289(3)
H114A H 0.595(2) 1.112(5) 0.754(2)
O38A O 0.3479(3) 1.1659(3) 0.3964(3)
O39A O 0.3922(3) 1.2789(3) 0.4791(3)
O40A O 0.4250(3) 1.2959(3) 0.5828(3)
H115A H 0.447(4) 1.3024(16) 0.604(3)
O41A O 0.8090(3) 0.9248(3) 0.6461(3)
O42A O 0.8504(3) 0.8668(3) 0.5989(3)
O43A O 0.6616(3) 0.9125(3) 0.8015(3)
O44A O 0.6117(3) 1.0093(3) 0.7727(3)
O45A O 0.6359(3) 1.2228(3) 0.6202(3)
O46A O 0.5413(3) 1.2627(3) 0.5979(4)
O47A O 0.3344(3) 1.2080(3) 0.6688(3)
O48A O 0.2873(3) 1.2329(4) 0.5870(3)
O49A O 0.2852(3) 1.3078(3) 0.3354(3)
O50A O 0.3200(3) 1.3618(3) 0.3762(3)
N6A N 0.7566(4) 0.9637(4) 0.5138(4)
N7A N 0.5585(4) 0.9129(4) 0.7316(4)
N8A N 0.6141(4) 1.1832(4) 0.5232(4)
N9A N 0.3564(4) 1.0902(4) 0.6446(4)
N10A N 0.4204(4) 1.2627(4) 0.3702(4)
C81A C 0.6655(5) 1.0156(5) 0.5443(4)
H116A H 0.6383 1.0008 0.5258
H117A H 0.6466 1.0556 0.5450
C82A C 0.7273(5) 1.0274(5) 0.5081(5)
H118A H 0.7530 1.0468 0.5238
H119A H 0.7214 1.0569 0.4660
C83A C 0.7897(5) 0.9612(4) 0.4697(5)
H120A H 0.7933 1.0003 0.4351
C84A C 0.8225(5) 0.9038(5) 0.4677(5)
C85A C 0.8722(5) 0.9126(5) 0.4246(4)
H121A H 0.8821 0.9550 0.3998
C86A C 0.9075(5) 0.8622(5) 0.4169(5)
C87A C 0.9615(5) 0.8739(6) 0.3724(5)
H122A H 0.9740 0.9165 0.3606
H123A H 0.9947 0.8418 0.3905
H124A H 0.9506 0.8708 0.3374
C88A C 0.8889(5) 0.7998(5) 0.4537(5)
H125A H 0.9110 0.7647 0.4496
C89A C 0.8397(4) 0.7876(5) 0.4958(4)
C90A C 0.8055(4) 0.8389(5) 0.5043(5)
C91A C 0.8204(5) 0.7193(5) 0.5311(5)
H126A H 0.8487 0.6894 0.5208
H127A H 0.8216 0.7062 0.5741
C92A C 0.5113(5) 1.0068(5) 0.6508(5)
H128A H 0.4752 1.0375 0.6389
H129A H 0.5190 0.9867 0.6234
C93A C 0.5016(4) 0.9548(5) 0.7161(5)
H130A H 0.4681 0.9295 0.7196
H131A H 0.4917 0.9751 0.7432
C94A C 0.5572(4) 0.8529(5) 0.7676(4)
H132A H 0.5186 0.8384 0.7832
C95A C 0.6093(5) 0.8042(4) 0.7874(4)
C96A C 0.5967(4) 0.7460(4) 0.8377(4)
H133A H 0.5573 0.7419 0.8561
C97A C 0.6415(5) 0.6936(5) 0.8616(5)
C98A C 0.6260(5) 0.6321(5) 0.9157(5)
H134A H 0.6566 0.6195 0.9446
H135A H 0.5866 0.6392 0.9337
H136A H 0.6250 0.5981 0.9036
C99A C 0.6995(5) 0.7023(5) 0.8321(5)
H137A H 0.7306 0.6690 0.8472
C100A C 0.7127(5) 0.7585(5) 0.7813(5)
C101A C 0.6677(5) 0.8122(5) 0.7582(5)
C102A C 0.7756(4) 0.7635(5) 0.7493(4)
H138A H 0.8025 0.7256 0.7725
H139A H 0.7928 0.8019 0.7456
C103A C 0.5153(5) 1.1678(5) 0.5016(5)
H140A H 0.5279 1.1236 0.5074
H141A H 0.4827 1.1852 0.4738
C104A C 0.5697(5) 1.2095(6) 0.4751(6)
H142A H 0.5566 1.2548 0.4647
H143A H 0.5880 1.2062 0.4390
C105A C 0.6711(5) 1.1863(5) 0.5057(5)
H144A H 0.6808 1.2049 0.4643
C106A C 0.7217(4) 1.1633(5) 0.5450(4)
C107A C 0.7784(5) 1.1871(5) 0.5181(5)
H145A H 0.7805 1.2158 0.4772
C108A C 0.8315(5) 1.1703(5) 0.5490(5)
C109A C 0.8912(5) 1.1960(6) 0.5177(5)
H146A H 0.8851 1.2257 0.4762
H147A H 0.9066 1.2183 0.5373
H148A H 0.9202 1.1605 0.5195
C110A C 0.8267(5) 1.1276(5) 0.6112(5)
H149A H 0.8598 1.1187 0.6347
C111A C 0.7713(5) 1.0982(5) 0.6381(5)
C112A C 0.7173(4) 1.1169(4) 0.6075(5)
C113A C 0.7688(5) 1.0463(5) 0.7024(5)
H150A H 0.7377 1.0602 0.7262
H151A H 0.8080 1.0405 0.7194
C114A C 0.3571(5) 1.0917(5) 0.5469(5)
H152A H 0.3350 1.0821 0.5206
H153A H 0.3975 1.0681 0.5512
C115A C 0.3225(5) 1.0710(5) 0.6084(5)
H154A H 0.3200 1.0243 0.6280
H155A H 0.2812 1.0923 0.6039
C116A C 0.3584(5) 1.0542(5) 0.7009(5)
H156A H 0.3380 1.0165 0.7167
C117A C 0.3895(5) 1.0660(5) 0.7431(5)
C118A C 0.3719(5) 1.0319(5) 0.8050(5)
H157A H 0.3417 1.0032 0.8161
C119A C 0.3969(5) 1.0390(5) 0.8498(5)
C120A C 0.3763(6) 1.0015(6) 0.9147(5)
H158A H 0.3892 0.9561 0.9276
H159A H 0.3941 1.0171 0.9388
H160A H 0.3324 1.0072 0.9193
C121A C 0.4425(5) 1.0814(6) 0.8310(5)
H161A H 0.4596 1.0877 0.8603
C122A C 0.4638(5) 1.1143(5) 0.7726(5)
C123A C 0.4371(5) 1.1092(5) 0.7250(5)
C124A C 0.5170(5) 1.1552(5) 0.7549(5)
H162A H 0.5290 1.1575 0.7904
H163A H 0.5044 1.1992 0.7258
C125A C 0.4088(5) 1.1575(5) 0.3752(5)
H164A H 0.4113 1.1317 0.3530
H165A H 0.4350 1.1355 0.4089
C126A C 0.4290(5) 1.2267(5) 0.3332(5)
H166A H 0.4040 1.2481 0.2985
H167A H 0.4716 1.2242 0.3189
C127A C 0.4580(5) 1.3057(5) 0.3601(5)
H168A H 0.4883 1.3125 0.3290
C128A C 0.4569(5) 1.3444(5) 0.3931(5)
C129A C 0.4890(5) 1.4004(5) 0.3652(5)
H169A H 0.5085 1.4096 0.3273
C130A C 0.4937(6) 1.4419(5) 0.3888(5)
C131A C 0.5295(7) 1.5015(6) 0.3578(7)
H170A H 0.5189 1.5255 0.3165
H171A H 0.5198 1.5287 0.3783
H172A H 0.5727 1.4882 0.3588
C132A C 0.4631(5) 1.4274(5) 0.4456(5)
H173A H 0.4648 1.4548 0.4636
C133A C 0.4298(5) 1.3724(5) 0.4757(5)
C134A C 0.4257(4) 1.3309(5) 0.4498(5)
C135A C 0.3997(5) 1.3580(5) 0.5375(5)
H174A H 0.3559 1.3569 0.5369
H175A H 0.4059 1.3925 0.5481
C136A C 0.8546(4) 0.9068(4) 0.6194(4)
C137A C 0.9150(5) 0.9388(5) 0.6094(5)
C138A C 0.9031(5) 1.0096(5) 0.5571(5)
H176A H 0.9406 1.0306 0.5450
H177A H 0.8885 1.0072 0.5232
H178A H 0.8729 1.0343 0.5713
C139A C 0.9291(6) 0.9441(7) 0.6654(6)
H179A H 0.9689 0.9596 0.6594
H180A H 0.8988 0.9741 0.6726
H181A H 0.9285 0.9021 0.6995
C140A C 0.9677(6) 0.9030(6) 0.5877(7)
H182A H 0.9894 0.8714 0.6217
H183A H 0.9516 0.8813 0.5678
H184A H 0.9953 0.9337 0.5598
C141A C 0.6270(4) 0.9531(5) 0.8141(5)
C142A C 0.5996(5) 0.9331(6) 0.8790(5)
C143A C 0.6348(6) 0.8713(7) 0.9226(5)
H185A H 0.6759 0.8803 0.9236
H186A H 0.6147 0.8567 0.9624
H187A H 0.6359 0.8380 0.9092
C144A C 0.5334(6) 0.9176(7) 0.8801(6)
H188A H 0.5337 0.8855 0.8654
H189A H 0.5155 0.9010 0.9208
H190A H 0.5097 0.9565 0.8548
C145A C 0.6013(7) 0.9885(8) 0.8968(6)
H191A H 0.5778 1.0266 0.8700
H192A H 0.5843 0.9755 0.9376
H193A H 0.6430 0.9981 0.8942
C146A C 0.5980(5) 1.2703(5) 0.5987(5)
C147A C 0.6190(5) 1.3396(5) 0.5657(6)
C148A C 0.6843(6) 1.3384(6) 0.5795(7)
H194A H 0.6856 1.3286 0.6214
H195A H 0.7094 1.3056 0.5714
H196A H 0.6994 1.3802 0.5546
C149A C 0.6174(6) 1.3592(6) 0.4971(6)
H197A H 0.6256 1.4041 0.4741
H198A H 0.6480 1.3323 0.4859
H199A H 0.5776 1.3534 0.4889
C150A C 0.5763(7) 1.3862(6) 0.5827(7)
H200A H 0.5783 1.3741 0.6250
H201A H 0.5883 1.4297 0.5594
H202A H 0.5351 1.3845 0.5747
C151A C 0.2856(5) 1.2194(5) 0.6438(5)
C152A C 0.2229(5) 1.2106(5) 0.6797(5)
C153A C 0.2291(6) 1.2106(7) 0.7395(5)
H203A H 0.2577 1.1750 0.7623
H204A H 0.2437 1.2509 0.7327
H205A H 0.1899 1.2058 0.7616
C154A C 0.2030(6) 1.1471(7) 0.6879(6)
H206A H 0.1632 1.1406 0.7089
H207A H 0.2013 1.1479 0.6491
H208A H 0.2319 1.1121 0.7112
C155A C 0.1766(5) 1.2667(6) 0.6423(6)
H209A H 0.1374 1.2620 0.6644
H210A H 0.1908 1.3076 0.6346
H211A H 0.1728 1.2656 0.6046
C156A C 0.3031(5) 1.3601(5) 0.3303(5)
C157A C 0.3099(5) 1.4175(5) 0.2679(5)
C158A C 0.2491(6) 1.4363(6) 0.2370(6)
H212A H 0.2170 1.4449 0.2628
H213A H 0.2529 1.4747 0.1994
H214A H 0.2394 1.4013 0.2296
C159A C 0.3607(5) 1.3970(5) 0.2311(5)
H215A H 0.3495 1.3604 0.2270
H216A H 0.3665 1.4326 0.1918
H217A H 0.3982 1.3851 0.2515
C160A C 0.3281(6) 1.4762(5) 0.2736(6)
H218A H 0.3659 1.4647 0.2934
H219A H 0.3334 1.5116 0.2340
H220A H 0.2965 1.4893 0.2969
Cl1 Cl 0.3315(3) 0.2969(2) 0.78460(17)
Cl2 Cl 0.3194(2) 0.3780(2) 0.65940(19)
Cl3 Cl 0.43999(18) 0.33106(17) 0.70326(18)
C161 C 0.3633(6) 0.3128(6) 0.7120(6)
H221 H 0.3619 0.2743 0.7053
Cl4 Cl 0.6419(3) 0.2521(4) 0.7504(3)
Cl5 Cl 0.6922(5) 0.1182(4) 0.8170(4)
Cl6 Cl 0.7588(3) 0.2037(3) 0.7171(3)
C162 C 0.6935(8) 0.1859(8) 0.7428(8)
H222 H 0.6754 0.1733 0.7157
Cl7 Cl 0.06922(17) 0.14823(19) 0.81181(16)
Cl8 Cl 0.00668(18) 0.24527(18) 0.71003(15)
Cl9 Cl -0.06161(19) 0.1516(2) 0.8111(2)
C163 C 0.0013(5) 0.1981(6) 0.7887(6)
H223 H -0.0042 0.2275 0.8079
Cl10 Cl 0.1338(3) 0.7296(3) 0.3821(3)
Cl11 Cl 0.1398(3) 0.5909(3) 0.4378(3)
Cl12 Cl 0.0264(3) 0.6649(2) 0.4422(2)
C164 C 0.0937(7) 0.6610(8) 0.3998(8)
H224 H 0.0832 0.6618 0.3620
Cl13 Cl 0.02771(14) 0.26969(18) 0.40068(15)
Cl14 Cl 0.06830(13) 0.25945(14) 0.28916(13)
Cl15 Cl 0.11533(16) 0.35407(15) 0.31545(17)
C165 C 0.0891(5) 0.2758(5) 0.3470(5)
H225 H 0.1227 0.2438 0.3675
Cl16 Cl 0.29446(18) 0.5036(2) 0.4181(2)
Cl17 Cl 0.2165(2) 0.41757(19) 0.51180(18)
Cl18 Cl 0.19007(16) 0.4626(2) 0.38771(18)
C166 C 0.2488(6) 0.4400(6) 0.4384(6)
H226 H 0.2745 0.4026 0.4371
Cl19 Cl 0.57975(13) 0.24192(14) 0.20808(13)
Cl20 Cl 0.56953(15) 0.23932(19) 0.09338(15)
Cl21 Cl 0.65641(17) 0.14843(16) 0.17756(18)
C167 C 0.6194(5) 0.2272(5) 0.1482(5)
H227 H 0.6507 0.2582 0.1291
Cl22 Cl 0.90559(14) 0.01074(15) 0.06765(16)
Cl23 Cl 0.82711(19) 0.09211(17) -0.02790(16)
Cl24 Cl 0.77918(15) 0.04562(16) 0.09564(17)
C168 C 0.8443(6) 0.0712(6) 0.0458(6)
H228 H 0.8565 0.1099 0.0470
C169 C 0.4925(6) 0.9027(6) 0.0420(6)
H229 H 0.4485 0.9042 0.0462
H230 H 0.5062 0.9141 0.0006
H231 H 0.5058 0.9330 0.0540
N11 N 0.5208(8) 0.7761(8) 0.1259(8)
C170 C 0.520(3) 0.8337(16) 0.082(3)
N12 N 0.1187(5) 0.2176(6) 0.1803(5)
C171 C 0.1576(6) 0.1835(7) 0.1720(5)
C172 C 0.2078(6) 0.1425(7) 0.1599(6)
H232 H 0.1978 0.1332 0.1280
H233 H 0.2141 0.1025 0.1958
H234 H 0.2445 0.1647 0.1479
N13 N 0.1692(8) 0.4049(8) 0.1358(9)
C173 C 0.1187(8) 0.3920(8) 0.1319(10)
C174 C 0.0569(9) 0.3802(8) 0.1192(8)
H235 H 0.0475 0.4102 0.0785
H236 H 0.0259 0.3865 0.1470
H237 H 0.0581 0.3364 0.1240
N14 N 0.5966(5) 0.2789(6) 0.3204(5)
C175 C 0.6235(6) 0.3147(7) 0.3278(5)
C176 C 0.6586(6) 0.3581(7) 0.3380(6)
H238 H 0.6969 0.3354 0.3541
H239 H 0.6356 0.3719 0.3661
H240 H 0.6662 0.3955 0.3003
loop_
_geom_bond_atom_site_label_1
_geom_bond_atom_site_label_2
_geom_bond_site_symmetry_1
_geom_bond_site_symmetry_2
Tb1 O1 1_555 1_555
Tb2 O1 1_555 1_555
Tb3 O4 1_555 1_555
Tb4 O7 1_555 1_555
Tb5 O10 1_555 1_555
O1 C1 1_555 1_555
O2 Tb1 1_555 1_555
O3 H1 1_555 1_555
O4 Tb2 1_555 1_555
O5 Tb1 1_555 1_555
O6 Tb1 1_555 1_555
H2 O6 1_555 1_555
O7 Tb3 1_555 1_555
O8 Tb2 1_555 1_555
O9 Tb2 1_555 1_555
H3 O9 1_555 1_555
O10 Tb4 1_555 1_555
O11 Tb3 1_555 1_555
O12 Tb3 1_555 1_555
H4 O12 1_555 1_555
O13 Tb5 1_555 1_555
O14 Tb4 1_555 1_555
O15 Tb4 1_555 1_555
H5 O15 1_555 1_555
O16 Tb1 1_555 1_555
O17 Tb1 1_555 1_555
O18 Tb2 1_555 1_555
O19 Tb2 1_555 1_555
O20 Tb3 1_555 1_555
O21 Tb3 1_555 1_555
O22 Tb4 1_555 1_555
O23 Tb4 1_555 1_555
O24 Tb5 1_555 1_555
O25 Tb5 1_555 1_555
N1 Tb1 1_555 1_555
N2 Tb2 1_555 1_555
N3 Tb3 1_555 1_555
N4 Tb4 1_555 1_555
N5 Tb5 1_555 1_555
C1 H6 1_555 1_555
H7 C1 1_555 1_555
C2 N1 1_555 1_555
H8 C2 1_555 1_555
H9 C2 1_555 1_555
C3 N1 1_555 1_555
H10 C3 1_555 1_555
C4 C3 1_555 1_555
C5 C4 1_555 1_555
H11 C5 1_555 1_555
C6 C5 1_555 1_555
C7 C6 1_555 1_555
H12 C7 1_555 1_555
H13 C7 1_555 1_555
H14 C7 1_555 1_555
C8 C6 1_555 1_555
H15 C8 1_555 1_555
C9 C8 1_555 1_555
C10 O2 1_555 1_555
C11 O3 1_555 1_555
H16 C11 1_555 1_555
H17 C11 1_555 1_555
C12 O4 1_555 1_555
H18 C12 1_555 1_555
H19 C12 1_555 1_555
C13 N2 1_555 1_555
H20 C13 1_555 1_555
H21 C13 1_555 1_555
C14 N2 1_555 1_555
H22 C14 1_555 1_555
C15 C14 1_555 1_555
C16 C15 1_555 1_555
H23 C16 1_555 1_555
C17 C16 1_555 1_555
C18 C17 1_555 1_555
H24 C18 1_555 1_555
H25 C18 1_555 1_555
H26 C18 1_555 1_555
C19 C17 1_555 1_555
H27 C19 1_555 1_555
C20 C19 1_555 1_555
C21 O5 1_555 1_555
C22 O6 1_555 1_555
H28 C22 1_555 1_555
H29 C22 1_555 1_555
C23 O7 1_555 1_555
H30 C23 1_555 1_555
H31 C23 1_555 1_555
C24 N3 1_555 1_555
H32 C24 1_555 1_555
H33 C24 1_555 1_555
C25 N3 1_555 1_555
H34 C25 1_555 1_555
C26 C25 1_555 1_555
C27 C26 1_555 1_555
H35 C27 1_555 1_555
C28 C27 1_555 1_555
C29 C28 1_555 1_555
H36 C29 1_555 1_555
H37 C29 1_555 1_555
H38 C29 1_555 1_555
C30 C28 1_555 1_555
H39 C30 1_555 1_555
C31 C30 1_555 1_555
C32 O8 1_555 1_555
C33 O9 1_555 1_555
H40 C33 1_555 1_555
H41 C33 1_555 1_555
C34 O10 1_555 1_555
H42 C34 1_555 1_555
H43 C34 1_555 1_555
C35 N4 1_555 1_555
H44 C35 1_555 1_555
H45 C35 1_555 1_555
C36 N4 1_555 1_555
H46 C36 1_555 1_555
C37 C36 1_555 1_555
C38 C37 1_555 1_555
H47 C38 1_555 1_555
C39 C38 1_555 1_555
C40 C39 1_555 1_555
H48 C40 1_555 1_555
H49 C40 1_555 1_555
H50 C40 1_555 1_555
C41 C39 1_555 1_555
H51 C41 1_555 1_555
C42 C41 1_555 1_555
C43 O11 1_555 1_555
C44 O12 1_555 1_555
H52 C44 1_555 1_555
H53 C44 1_555 1_555
C45 O13 1_555 1_555
H54 C45 1_555 1_555
H55 C45 1_555 1_555
C46 N5 1_555 1_555
H56 C46 1_555 1_555
H57 C46 1_555 1_555
C47 N5 1_555 1_555
H58 C47 1_555 1_555
C48 C47 1_555 1_555
C49 C48 1_555 1_555
H59 C49 1_555 1_555
C50 C49 1_555 1_555
C51 C50 1_555 1_555
H60 C51 1_555 1_555
H61 C51 1_555 1_555
H62 C51 1_555 1_555
C52 C50 1_555 1_555
H63 C52 1_555 1_555
C53 C52 1_555 1_555
C54 O14 1_555 1_555
C55 O15 1_555 1_555
H64 C55 1_555 1_555
H65 C55 1_555 1_555
C56 O16 1_555 1_555
C57 C56 1_555 1_555
C58 C57 1_555 1_555
H66 C58 1_555 1_555
H67 C58 1_555 1_555
H68 C58 1_555 1_555
C59 C57 1_555 1_555
H69 C59 1_555 1_555
H70 C59 1_555 1_555
H71 C59 1_555 1_555
C60 C57 1_555 1_555
H72 C60 1_555 1_555
H73 C60 1_555 1_555
H74 C60 1_555 1_555
C61 O18 1_555 1_555
C62 C61 1_555 1_555
C63 C62 1_555 1_555
H75 C63 1_555 1_555
H76 C63 1_555 1_555
H77 C63 1_555 1_555
C64 C62 1_555 1_555
H78 C64 1_555 1_555
H79 C64 1_555 1_555
H80 C64 1_555 1_555
C65 C62 1_555 1_555
H81 C65 1_555 1_555
H82 C65 1_555 1_555
H83 C65 1_555 1_555
C66 O20 1_555 1_555
C67 C66 1_555 1_555
C68 C67 1_555 1_555
H84 C68 1_555 1_555
H85 C68 1_555 1_555
H86 C68 1_555 1_555
C69 C67 1_555 1_555
H87 C69 1_555 1_555
H88 C69 1_555 1_555
H89 C69 1_555 1_555
C70 C67 1_555 1_555
H90 C70 1_555 1_555
H91 C70 1_555 1_555
H92 C70 1_555 1_555
C71 O22 1_555 1_555
C72 C71 1_555 1_555
C73 C72 1_555 1_555
H93 C73 1_555 1_555
H94 C73 1_555 1_555
H95 C73 1_555 1_555
C74 C72 1_555 1_555
H96 C74 1_555 1_555
H97 C74 1_555 1_555
H98 C74 1_555 1_555
C75 C72 1_555 1_555
H99 C75 1_555 1_555
H100 C75 1_555 1_555
H101 C75 1_555 1_555
C76 O24 1_555 1_555
C77 C76 1_555 1_555
C78 C77 1_555 1_555
H102 C78 1_555 1_555
H103 C78 1_555 1_555
H104 C78 1_555 1_555
C79 C77 1_555 1_555
H105 C79 1_555 1_555
H106 C79 1_555 1_555
H107 C79 1_555 1_555
C80 C77 1_555 1_555
H108 C80 1_555 1_555
H109 C80 1_555 1_555
H110 C80 1_555 1_555
Tb6 O26 1_555 1_555
Tb7 O26 1_555 1_555
Tb8 O29 1_555 1_555
Tb9 O32 1_555 1_555
Tb10 O35 1_555 1_555
O26 C81 1_555 1_555
O27 Tb6 1_555 1_555
O28 H111 1_555 1_555
O29 Tb7 1_555 1_555
O30 Tb6 1_555 1_555
O31 Tb6 1_555 1_555
H112 O31 1_555 1_555
O32 Tb8 1_555 1_555
O33 Tb7 1_555 1_555
O34 Tb7 1_555 1_555
H113 O34 1_555 1_555
O35 Tb9 1_555 1_555
O36 Tb8 1_555 1_555
O37 Tb8 1_555 1_555
H114 O37 1_555 1_555
O38 Tb10 1_555 1_555
O39 Tb9 1_555 1_555
O40 Tb9 1_555 1_555
H115 O40 1_555 1_555
O41 Tb6 1_555 1_555
O42 Tb6 1_555 1_555
O43 Tb7 1_555 1_555
O44 Tb7 1_555 1_555
O45 Tb8 1_555 1_555
O46 Tb8 1_555 1_555
O47 Tb9 1_555 1_555
O48 Tb9 1_555 1_555
O49 Tb10 1_555 1_555
O50 Tb10 1_555 1_555
N6 Tb6 1_555 1_555
N7 Tb7 1_555 1_555
N8 Tb8 1_555 1_555
N9 Tb9 1_555 1_555
N10 Tb10 1_555 1_555
C81 H116 1_555 1_555
H117 C81 1_555 1_555
C82 N6 1_555 1_555
H118 C82 1_555 1_555
H119 C82 1_555 1_555
C83 N6 1_555 1_555
H120 C83 1_555 1_555
C84 C83 1_555 1_555
C85 C84 1_555 1_555
H121 C85 1_555 1_555
C86 C85 1_555 1_555
C87 C86 1_555 1_555
H122 C87 1_555 1_555
H123 C87 1_555 1_555
H124 C87 1_555 1_555
C88 C86 1_555 1_555
H125 C88 1_555 1_555
C89 C88 1_555 1_555
C90 O27 1_555 1_555
C91 O28 1_555 1_555
H126 C91 1_555 1_555
H127 C91 1_555 1_555
C92 O29 1_555 1_555
H128 C92 1_555 1_555
H129 C92 1_555 1_555
C93 N7 1_555 1_555
H130 C93 1_555 1_555
H131 C93 1_555 1_555
C94 N7 1_555 1_555
H132 C94 1_555 1_555
C95 C94 1_555 1_555
C96 C95 1_555 1_555
H133 C96 1_555 1_555
C97 C96 1_555 1_555
C98 C97 1_555 1_555
H134 C98 1_555 1_555
H135 C98 1_555 1_555
H136 C98 1_555 1_555
C99 C97 1_555 1_555
H137 C99 1_555 1_555
C100 C99 1_555 1_555
C101 O30 1_555 1_555
C102 O31 1_555 1_555
H138 C102 1_555 1_555
H139 C102 1_555 1_555
C103 O32 1_555 1_555
H140 C103 1_555 1_555
H141 C103 1_555 1_555
C104 N8 1_555 1_555
H142 C104 1_555 1_555
H143 C104 1_555 1_555
C105 N8 1_555 1_555
H144 C105 1_555 1_555
C106 C105 1_555 1_555
C107 C106 1_555 1_555
H145 C107 1_555 1_555
C108 C107 1_555 1_555
C109 C108 1_555 1_555
H146 C109 1_555 1_555
H147 C109 1_555 1_555
H148 C109 1_555 1_555
C110 C108 1_555 1_555
H149 C110 1_555 1_555
C111 C110 1_555 1_555
C112 O33 1_555 1_555
C113 O34 1_555 1_555
H150 C113 1_555 1_555
H151 C113 1_555 1_555
C114 O35 1_555 1_555
H152 C114 1_555 1_555
H153 C114 1_555 1_555
C115 N9 1_555 1_555
H154 C115 1_555 1_555
H155 C115 1_555 1_555
C116 N9 1_555 1_555
H156 C116 1_555 1_555
C117 C116 1_555 1_555
C118 C117 1_555 1_555
H157 C118 1_555 1_555
C119 C118 1_555 1_555
C120 C119 1_555 1_555
H158 C120 1_555 1_555
H159 C120 1_555 1_555
H160 C120 1_555 1_555
C121 C119 1_555 1_555
H161 C121 1_555 1_555
C122 C121 1_555 1_555
C123 O36 1_555 1_555
C124 O37 1_555 1_555
H162 C124 1_555 1_555
H163 C124 1_555 1_555
C125 O38 1_555 1_555
H164 C125 1_555 1_555
H165 C125 1_555 1_555
C126 N10 1_555 1_555
H166 C126 1_555 1_555
H167 C126 1_555 1_555
C127 N10 1_555 1_555
H168 C127 1_555 1_555
C128 C127 1_555 1_555
C129 C128 1_555 1_555
H169 C129 1_555 1_555
C130 C129 1_555 1_555
C131 C130 1_555 1_555
H170 C131 1_555 1_555
H171 C131 1_555 1_555
H172 C131 1_555 1_555
C132 C130 1_555 1_555
H173 C132 1_555 1_555
C133 C132 1_555 1_555
C134 O39 1_555 1_555
C135 O40 1_555 1_555
H174 C135 1_555 1_555
H175 C135 1_555 1_555
C136 O41 1_555 1_555
C137 C136 1_555 1_555
C138 C137 1_555 1_555
H176 C138 1_555 1_555
H177 C138 1_555 1_555
H178 C138 1_555 1_555
C139 C137 1_555 1_555
H179 C139 1_555 1_555
H180 C139 1_555 1_555
H181 C139 1_555 1_555
C140 C137 1_555 1_555
H182 C140 1_555 1_555
H183 C140 1_555 1_555
H184 C140 1_555 1_555
C141 O43 1_555 1_555
C142 C141 1_555 1_555
C143 C142 1_555 1_555
H185 C143 1_555 1_555
H186 C143 1_555 1_555
H187 C143 1_555 1_555
C144 C142 1_555 1_555
H188 C144 1_555 1_555
H189 C144 1_555 1_555
H190 C144 1_555 1_555
C145 C142 1_555 1_555
H191 C145 1_555 1_555
H192 C145 1_555 1_555
H193 C145 1_555 1_555
C146 O45 1_555 1_555
C147 C146 1_555 1_555
C148 C147 1_555 1_555
H194 C148 1_555 1_555
H195 C148 1_555 1_555
H196 C148 1_555 1_555
C149 C147 1_555 1_555
H197 C149 1_555 1_555
H198 C149 1_555 1_555
H199 C149 1_555 1_555
C150 C147 1_555 1_555
H200 C150 1_555 1_555
H201 C150 1_555 1_555
H202 C150 1_555 1_555
C151 O47 1_555 1_555
C152 C151 1_555 1_555
C153 C152 1_555 1_555
H203 C153 1_555 1_555
H204 C153 1_555 1_555
H205 C153 1_555 1_555
C154 C152 1_555 1_555
H206 C154 1_555 1_555
H207 C154 1_555 1_555
H208 C154 1_555 1_555
C155 C152 1_555 1_555
H209 C155 1_555 1_555
H210 C155 1_555 1_555
H211 C155 1_555 1_555
C156 O49 1_555 1_555
C157 C156 1_555 1_555
C158 C157 1_555 1_555
H212 C158 1_555 1_555
H213 C158 1_555 1_555
H214 C158 1_555 1_555
C159 C157 1_555 1_555
H215 C159 1_555 1_555
H216 C159 1_555 1_555
H217 C159 1_555 1_555
C160 C157 1_555 1_555
H218 C160 1_555 1_555
H219 C160 1_555 1_555
H220 C160 1_555 1_555
Cl1 C161 1_555 1_555
Cl2 C161 1_555 1_555
Cl3 C161 1_555 1_555
C161 H221 1_555 1_555
Cl4 C162 1_555 1_555
Cl5 C162 1_555 1_555
Cl6 C162 1_555 1_555
C162 H222 1_555 1_555
Cl7 C163 1_555 1_555
Cl8 C163 1_555 1_555
Cl9 C163 1_555 1_555
C163 H223 1_555 1_555
Cl10 C164 1_555 1_555
Cl11 C164 1_555 1_555
Cl12 C164 1_555 1_555
C164 H224 1_555 1_555
Cl13 C165 1_555 1_555
Cl14 C165 1_555 1_555
Cl15 C165 1_555 1_555
C165 H225 1_555 1_555
Cl16 C166 1_555 1_555
Cl17 C166 1_555 1_555
Cl18 C166 1_555 1_555
C166 H226 1_555 1_555
Cl19 C167 1_555 1_555
Cl20 C167 1_555 1_555
Cl21 C167 1_555 1_555
C167 H227 1_555 1_555
Cl22 C168 1_555 1_555
Cl23 C168 1_555 1_555
Cl24 C168 1_555 1_555
C168 H228 1_555 1_555
C169 H229 1_555 1_555
H230 C169 1_555 1_555
H231 C169 1_555 1_555
N11 C170 1_555 1_555
C170 C169 1_555 1_555
N12 C171 1_555 1_555
C171 C172 1_555 1_555
C172 H232 1_555 1_555
H233 C172 1_555 1_555
H234 C172 1_555 1_555
N13 C173 1_555 1_555
C173 C174 1_555 1_555
C174 H235 1_555 1_555
H236 C174 1_555 1_555
H237 C174 1_555 1_555
N14 C175 1_555 1_555
C175 C176 1_555 1_555
C176 H238 1_555 1_555
H239 C176 1_555 1_555
H240 C176 1_555 1_555
Tb1A O13 1_555 1_555
Tb2A O1A 1_555 1_555
Tb3A O4A 1_555 1_555
Tb4A O7A 1_555 1_555
Tb5A O2 1_555 1_555
O1A Tb1A 1_555 1_555
O2A Tb5 1_555 1_555
O3A Tb5 1_555 1_555
H1A O3A 1_555 1_555
O4A Tb2A 1_555 1_555
O5A Tb1A 1_555 1_555
O6A Tb1A 1_555 1_555
H2A O6A 1_555 1_555
O7A Tb3A 1_555 1_555
O8A Tb2A 1_555 1_555
O9A Tb2A 1_555 1_555
H3A O9A 1_555 1_555
O10A Tb4A 1_555 1_555
O11A Tb3A 1_555 1_555
O12A Tb3A 1_555 1_555
H4A O12A 1_555 1_555
O13A Tb1 1_555 1_555
O14A Tb4A 1_555 1_555
O15A Tb4A 1_555 1_555
H5A O15A 1_555 1_555
O16A Tb1A 1_555 1_555
O17A Tb1A 1_555 1_555
O18A Tb2A 1_555 1_555
O19A Tb2A 1_555 1_555
O20A Tb3A 1_555 1_555
O21A Tb3A 1_555 1_555
O22A Tb4A 1_555 1_555
O23A Tb4A 1_555 1_555
O24A Tb5A 1_555 1_555
O25A Tb5A 1_555 1_555
N1A Tb1A 1_555 1_555
N2A Tb2A 1_555 1_555
N3A Tb3A 1_555 1_555
N4A Tb4A 1_555 1_555
N5A Tb5A 1_555 1_555
C1A O1A 1_555 1_555
H6A C1A 1_555 1_555
H7A C1A 1_555 1_555
C2A N1A 1_555 1_555
H8A C2A 1_555 1_555
H9A C2A 1_555 1_555
C3A N1A 1_555 1_555
H10A C3A 1_555 1_555
C4A C3A 1_555 1_555
C5A C4A 1_555 1_555
H11A C5A 1_555 1_555
C6A C5A 1_555 1_555
C7A C6A 1_555 1_555
H12A C7A 1_555 1_555
H13A C7A 1_555 1_555
H14A C7A 1_555 1_555
C8A C6A 1_555 1_555
H15A C8A 1_555 1_555
C9A C8A 1_555 1_555
C10A O2A 1_555 1_555
C11A O3A 1_555 1_555
H16A C11A 1_555 1_555
H17A C11A 1_555 1_555
C12A O4A 1_555 1_555
H18A C12A 1_555 1_555
H19A C12A 1_555 1_555
C13A N2A 1_555 1_555
H20A C13A 1_555 1_555
H21A C13A 1_555 1_555
C14A N2A 1_555 1_555
H22A C14A 1_555 1_555
C15A C14A 1_555 1_555
C16A C15A 1_555 1_555
H23A C16A 1_555 1_555
C17A C16A 1_555 1_555
C18A C17A 1_555 1_555
H24A C18A 1_555 1_555
H25A C18A 1_555 1_555
H26A C18A 1_555 1_555
C19A C17A 1_555 1_555
H27A C19A 1_555 1_555
C20A C19A 1_555 1_555
C21A O5A 1_555 1_555
C22A O6A 1_555 1_555
H28A C22A 1_555 1_555
H29A C22A 1_555 1_555
C23A O7A 1_555 1_555
H30A C23A 1_555 1_555
H31A C23A 1_555 1_555
C24A N3A 1_555 1_555
H32A C24A 1_555 1_555
H33A C24A 1_555 1_555
C25A N3A 1_555 1_555
H34A C25A 1_555 1_555
C26A C25A 1_555 1_555
C27A C26A 1_555 1_555
H35A C27A 1_555 1_555
C28A C27A 1_555 1_555
C29A C28A 1_555 1_555
H36A C29A 1_555 1_555
H37A C29A 1_555 1_555
H38A C29A 1_555 1_555
C30A C28A 1_555 1_555
H39A C30A 1_555 1_555
C31A C30A 1_555 1_555
C32A O8A 1_555 1_555
C33A O9A 1_555 1_555
H40A C33A 1_555 1_555
H41A C33A 1_555 1_555
C34A O10A 1_555 1_555
H42A C34A 1_555 1_555
H43A C34A 1_555 1_555
C35A N4A 1_555 1_555
H44A C35A 1_555 1_555
H45A C35A 1_555 1_555
C36A N4A 1_555 1_555
H46A C36A 1_555 1_555
C37A C36A 1_555 1_555
C38A C37A 1_555 1_555
H47A C38A 1_555 1_555
C39A C38A 1_555 1_555
C40A C39A 1_555 1_555
H48A C40A 1_555 1_555
H49A C40A 1_555 1_555
H50A C40A 1_555 1_555
C41A C39A 1_555 1_555
H51A C41A 1_555 1_555
C42A C41A 1_555 1_555
C43A O11A 1_555 1_555
C44A O12A 1_555 1_555
H52A C44A 1_555 1_555
H53A C44A 1_555 1_555
C45A O13A 1_555 1_555
H54A C45A 1_555 1_555
H55A C45A 1_555 1_555
C46A N5A 1_555 1_555
H56A C46A 1_555 1_555
H57A C46A 1_555 1_555
C47A N5A 1_555 1_555
H58A C47A 1_555 1_555
C48A C47A 1_555 1_555
C49A C48A 1_555 1_555
H59A C49A 1_555 1_555
C50A C49A 1_555 1_555
C51A C50A 1_555 1_555
H60A C51A 1_555 1_555
H61A C51A 1_555 1_555
H62A C51A 1_555 1_555
C52A C50A 1_555 1_555
H63A C52A 1_555 1_555
C53A C52A 1_555 1_555
C54A O14A 1_555 1_555
C55A O15A 1_555 1_555
H64A C55A 1_555 1_555
H65A C55A 1_555 1_555
C56A O16A 1_555 1_555
C57A C56A 1_555 1_555
C58A C57A 1_555 1_555
H66A C58A 1_555 1_555
H67A C58A 1_555 1_555
H68A C58A 1_555 1_555
C59A C57A 1_555 1_555
H69A C59A 1_555 1_555
H70A C59A 1_555 1_555
H71A C59A 1_555 1_555
C60A C57A 1_555 1_555
H72A C60A 1_555 1_555
H73A C60A 1_555 1_555
H74A C60A 1_555 1_555
C61A O18A 1_555 1_555
C62A C61A 1_555 1_555
C63A C62A 1_555 1_555
H75A C63A 1_555 1_555
H76A C63A 1_555 1_555
H77A C63A 1_555 1_555
C64A C62A 1_555 1_555
H78A C64A 1_555 1_555
H79A C64A 1_555 1_555
H80A C64A 1_555 1_555
C65A C62A 1_555 1_555
H81A C65A 1_555 1_555
H82A C65A 1_555 1_555
H83A C65A 1_555 1_555
C66A O20A 1_555 1_555
C67A C66A 1_555 1_555
C68A C67A 1_555 1_555
H84A C68A 1_555 1_555
H85A C68A 1_555 1_555
H86A C68A 1_555 1_555
C69A C67A 1_555 1_555
H87A C69A 1_555 1_555
H88A C69A 1_555 1_555
H89A C69A 1_555 1_555
C70A C67A 1_555 1_555
H90A C70A 1_555 1_555
H91A C70A 1_555 1_555
H92A C70A 1_555 1_555
C71A O22A 1_555 1_555
C72A C71A 1_555 1_555
C73A C72A 1_555 1_555
H93A C73A 1_555 1_555
H94A C73A 1_555 1_555
H95A C73A 1_555 1_555
C74A C72A 1_555 1_555
H96A C74A 1_555 1_555
H97A C74A 1_555 1_555
H98A C74A 1_555 1_555
C75A C72A 1_555 1_555
H99A C75A 1_555 1_555
H100A C75A 1_555 1_555
H101A C75A 1_555 1_555
C76A O24A 1_555 1_555
C77A C76A 1_555 1_555
C78A C77A 1_555 1_555
H102A C78A 1_555 1_555
H103A C78A 1_555 1_555
H104A C78A 1_555 1_555
C79A C77A 1_555 1_555
H105A C79A 1_555 1_555
H106A C79A 1_555 1_555
H107A C79A 1_555 1_555
C80A C77A 1_555 1_555
H108A C80A 1_555 1_555
H109A C80A 1_555 1_555
H110A C80A 1_555 1_555
Tb6A O38 1_555 1_555
Tb7A O26A 1_555 1_555
Tb8A O29A 1_555 1_555
Tb9A O32A 1_555 1_555
Tb10A O27 1_555 1_555
O26A Tb6A 1_555 1_555
O27A Tb10 1_555 1_555
O28A Tb10 1_555 1_555
H111A O28A 1_555 1_555
O29A Tb7A 1_555 1_555
O30A Tb6A 1_555 1_555
O31A Tb6A 1_555 1_555
H112A O31A 1_555 1_555
O32A Tb8A 1_555 1_555
O33A Tb7A 1_555 1_555
O34A Tb7A 1_555 1_555
H113A O34A 1_555 1_555
O35A Tb9A 1_555 1_555
O36A Tb8A 1_555 1_555
O37A Tb8A 1_555 1_555
H114A O37A 1_555 1_555
O38A Tb6 1_555 1_555
O39A Tb9A 1_555 1_555
O40A Tb9A 1_555 1_555
H115A O40A 1_555 1_555
O41A Tb6A 1_555 1_555
O42A Tb6A 1_555 1_555
O43A Tb7A 1_555 1_555
O44A Tb7A 1_555 1_555
O45A Tb8A 1_555 1_555
O46A Tb8A 1_555 1_555
O47A Tb9A 1_555 1_555
O48A Tb9A 1_555 1_555
O49A Tb10A 1_555 1_555
O50A Tb10A 1_555 1_555
N6A Tb6A 1_555 1_555
N7A Tb7A 1_555 1_555
N8A Tb8A 1_555 1_555
N9A Tb9A 1_555 1_555
N10A Tb10A 1_555 1_555
C81A O26A 1_555 1_555
H116A C81A 1_555 1_555
H117A C81A 1_555 1_555
C82A N6A 1_555 1_555
H118A C82A 1_555 1_555
H119A C82A 1_555 1_555
C83A N6A 1_555 1_555
H120A C83A 1_555 1_555
C84A C83A 1_555 1_555
C85A C84A 1_555 1_555
H121A C85A 1_555 1_555
C86A C85A 1_555 1_555
C87A C86A 1_555 1_555
H122A C87A 1_555 1_555
H123A C87A 1_555 1_555
H124A C87A 1_555 1_555
C88A C86A 1_555 1_555
H125A C88A 1_555 1_555
C89A C88A 1_555 1_555
C90A O27A 1_555 1_555
C91A O28A 1_555 1_555
H126A C91A 1_555 1_555
H127A C91A 1_555 1_555
C92A O29A 1_555 1_555
H128A C92A 1_555 1_555
H129A C92A 1_555 1_555
C93A N7A 1_555 1_555
H130A C93A 1_555 1_555
H131A C93A 1_555 1_555
C94A N7A 1_555 1_555
H132A C94A 1_555 1_555
C95A C94A 1_555 1_555
C96A C95A 1_555 1_555
H133A C96A 1_555 1_555
C97A C96A 1_555 1_555
C98A C97A 1_555 1_555
H134A C98A 1_555 1_555
H135A C98A 1_555 1_555
H136A C98A 1_555 1_555
C99A C97A 1_555 1_555
H137A C99A 1_555 1_555
C100A C99A 1_555 1_555
C101A O30A 1_555 1_555
C102A O31A 1_555 1_555
H138A C102A 1_555 1_555
H139A C102A 1_555 1_555
C103A O32A 1_555 1_555
H140A C103A 1_555 1_555
H141A C103A 1_555 1_555
C104A N8A 1_555 1_555
H142A C104A 1_555 1_555
H143A C104A 1_555 1_555
C105A N8A 1_555 1_555
H144A C105A 1_555 1_555
C106A C105A 1_555 1_555
C107A C106A 1_555 1_555
H145A C107A 1_555 1_555
C108A C107A 1_555 1_555
C109A C108A 1_555 1_555
H146A C109A 1_555 1_555
H147A C109A 1_555 1_555
H148A C109A 1_555 1_555
C110A C108A 1_555 1_555
H149A C110A 1_555 1_555
C111A C110A 1_555 1_555
C112A O33A 1_555 1_555
C113A O34A 1_555 1_555
H150A C113A 1_555 1_555
H151A C113A 1_555 1_555
C114A O35A 1_555 1_555
H152A C114A 1_555 1_555
H153A C114A 1_555 1_555
C115A N9A 1_555 1_555
H154A C115A 1_555 1_555
H155A C115A 1_555 1_555
C116A N9A 1_555 1_555
H156A C116A 1_555 1_555
C117A C116A 1_555 1_555
C118A C117A 1_555 1_555
H157A C118A 1_555 1_555
C119A C118A 1_555 1_555
C120A C119A 1_555 1_555
H158A C120A 1_555 1_555
H159A C120A 1_555 1_555
H160A C120A 1_555 1_555
C121A C119A 1_555 1_555
H161A C121A 1_555 1_555
C122A C121A 1_555 1_555
C123A O36A 1_555 1_555
C124A O37A 1_555 1_555
H162A C124A 1_555 1_555
H163A C124A 1_555 1_555
C125A O38A 1_555 1_555
H164A C125A 1_555 1_555
H165A C125A 1_555 1_555
C126A N10A 1_555 1_555
H166A C126A 1_555 1_555
H167A C126A 1_555 1_555
C127A N10A 1_555 1_555
H168A C127A 1_555 1_555
C128A C127A 1_555 1_555
C129A C128A 1_555 1_555
H169A C129A 1_555 1_555
C130A C129A 1_555 1_555
C131A C130A 1_555 1_555
H170A C131A 1_555 1_555
H171A C131A 1_555 1_555
H172A C131A 1_555 1_555
C132A C130A 1_555 1_555
H173A C132A 1_555 1_555
C133A C132A 1_555 1_555
C134A O39A 1_555 1_555
C135A O40A 1_555 1_555
H174A C135A 1_555 1_555
H175A C135A 1_555 1_555
C136A O41A 1_555 1_555
C137A C136A 1_555 1_555
C138A C137A 1_555 1_555
H176A C138A 1_555 1_555
H177A C138A 1_555 1_555
H178A C138A 1_555 1_555
C139A C137A 1_555 1_555
H179A C139A 1_555 1_555
H180A C139A 1_555 1_555
H181A C139A 1_555 1_555
C140A C137A 1_555 1_555
H182A C140A 1_555 1_555
H183A C140A 1_555 1_555
H184A C140A 1_555 1_555
C141A O43A 1_555 1_555
C142A C141A 1_555 1_555
C143A C142A 1_555 1_555
H185A C143A 1_555 1_555
H186A C143A 1_555 1_555
H187A C143A 1_555 1_555
C144A C142A 1_555 1_555
H188A C144A 1_555 1_555
H189A C144A 1_555 1_555
H190A C144A 1_555 1_555
C145A C142A 1_555 1_555
H191A C145A 1_555 1_555
H192A C145A 1_555 1_555
H193A C145A 1_555 1_555
C146A O45A 1_555 1_555
C147A C146A 1_555 1_555
C148A C147A 1_555 1_555
H194A C148A 1_555 1_555
H195A C148A 1_555 1_555
H196A C148A 1_555 1_555
C149A C147A 1_555 1_555
H197A C149A 1_555 1_555
H198A C149A 1_555 1_555
H199A C149A 1_555 1_555
C150A C147A 1_555 1_555
H200A C150A 1_555 1_555
H201A C150A 1_555 1_555
H202A C150A 1_555 1_555
C151A O47A 1_555 1_555
C152A C151A 1_555 1_555
C153A C152A 1_555 1_555
H203A C153A 1_555 1_555
H204A C153A 1_555 1_555
H205A C153A 1_555 1_555
C154A C152A 1_555 1_555
H206A C154A 1_555 1_555
H207A C154A 1_555 1_555
H208A C154A 1_555 1_555
C155A C152A 1_555 1_555
H209A C155A 1_555 1_555
H210A C155A 1_555 1_555
H211A C155A 1_555 1_555
C156A O49A 1_555 1_555
C157A C156A 1_555 1_555
C158A C157A 1_555 1_555
H212A C158A 1_555 1_555
H213A C158A 1_555 1_555
H214A C158A 1_555 1_555
C159A C157A 1_555 1_555
H215A C159A 1_555 1_555
H216A C159A 1_555 1_555
H217A C159A 1_555 1_555
C160A C157A 1_555 1_555
H218A C160A 1_555 1_555
H219A C160A 1_555 1_555
H220A C160A 1_555 1_555
Tb2 O5 1_555 1_555
Tb3 O8 1_555 1_555
Tb4 O11 1_555 1_555
Tb5 O14 1_555 1_555
O3 Tb5A 1_555 1_555
O17 C56 1_555 1_555
O19 C61 1_555 1_555
O21 C66 1_555 1_555
O23 C71 1_555 1_555
O25 C76 1_555 1_555
C1 C2 1_555 1_555
C4 C10 1_555 1_555
C9 C10 1_555 1_555
C9 C11 1_555 1_555
C12 C13 1_555 1_555
C15 C21 1_555 1_555
C20 C21 1_555 1_555
C20 C22 1_555 1_555
C23 C24 1_555 1_555
C26 C32 1_555 1_555
C31 C32 1_555 1_555
C31 C33 1_555 1_555
C34 C35 1_555 1_555
C37 C43 1_555 1_555
C42 C43 1_555 1_555
C42 C44 1_555 1_555
C45 C46 1_555 1_555
C48 C54 1_555 1_555
C53 C54 1_555 1_555
C53 C55 1_555 1_555
Tb7 O30 1_555 1_555
Tb8 O33 1_555 1_555
Tb9 O36 1_555 1_555
Tb10 O39 1_555 1_555
O28 Tb10A 1_555 1_555
O42 C136 1_555 1_555
O44 C141 1_555 1_555
O46 C146 1_555 1_555
O48 C151 1_555 1_555
O50 C156 1_555 1_555
C81 C82 1_555 1_555
C84 C90 1_555 1_555
C89 C90 1_555 1_555
C89 C91 1_555 1_555
C92 C93 1_555 1_555
C95 C101 1_555 1_555
C100 C101 1_555 1_555
C100 C102 1_555 1_555
C103 C104 1_555 1_555
C106 C112 1_555 1_555
C111 C112 1_555 1_555
C111 C113 1_555 1_555
C114 C115 1_555 1_555
C117 C123 1_555 1_555
C122 C123 1_555 1_555
C122 C124 1_555 1_555
C125 C126 1_555 1_555
C128 C134 1_555 1_555
C133 C134 1_555 1_555
C133 C135 1_555 1_555
Tb1A O2A 1_555 1_555
Tb2A O5A 1_555 1_555
Tb3A O8A 1_555 1_555
Tb4A O11A 1_555 1_555
Tb5A O10A 1_555 1_555
Tb5A O13A 1_555 1_555
Tb5A O14A 1_555 1_555
O17A C56A 1_555 1_555
O19A C61A 1_555 1_555
O21A C66A 1_555 1_555
O23A C71A 1_555 1_555
O25A C76A 1_555 1_555
C1A C2A 1_555 1_555
C4A C10A 1_555 1_555
C9A C10A 1_555 1_555
C9A C11A 1_555 1_555
C12A C13A 1_555 1_555
C15A C21A 1_555 1_555
C20A C21A 1_555 1_555
C20A C22A 1_555 1_555
C23A C24A 1_555 1_555
C26A C32A 1_555 1_555
C31A C32A 1_555 1_555
C31A C33A 1_555 1_555
C34A C35A 1_555 1_555
C37A C43A 1_555 1_555
C42A C43A 1_555 1_555
C42A C44A 1_555 1_555
C45A C46A 1_555 1_555
C48A C54A 1_555 1_555
C53A C54A 1_555 1_555
C53A C55A 1_555 1_555
Tb6A O27A 1_555 1_555
Tb7A O30A 1_555 1_555
Tb8A O33A 1_555 1_555
Tb9A O36A 1_555 1_555
Tb10A O35A 1_555 1_555
Tb10A O38A 1_555 1_555
Tb10A O39A 1_555 1_555
O42A C136A 1_555 1_555
O44A C141A 1_555 1_555
O46A C146A 1_555 1_555
O48A C151A 1_555 1_555
O50A C156A 1_555 1_555
C81A C82A 1_555 1_555
C84A C90A 1_555 1_555
C89A C90A 1_555 1_555
C89A C91A 1_555 1_555
C92A C93A 1_555 1_555
C95A C101A 1_555 1_555
C100A C101A 1_555 1_555
C100A C102A 1_555 1_555
C103A C104A 1_555 1_555
C106A C112A 1_555 1_555
C111A C112A 1_555 1_555
C111A C113A 1_555 1_555
C114A C115A 1_555 1_555
C117A C123A 1_555 1_555
C122A C123A 1_555 1_555
C122A C124A 1_555 1_555
C125A C126A 1_555 1_555
C128A C134A 1_555 1_555
C133A C134A 1_555 1_555
C133A C135A 1_555 1_555

#END
