
#######################################################################
#
#                 Cambridge Crystallographic Data Centre
#                                CCDC 
#
#######################################################################
#
# If this CIF has been generated from an entry in the Cambridge 
# Structural Database, then it will include bibliographic, chemical, 
# crystal, experimental, refinement or atomic coordinate data resulting 
# from the CCDC's data processing and validation procedures.
#
#######################################################################

data_VUVKEE
_chemical_formula_moiety         
'C160 H220 Dy10 N10 O50,4(C2 H3 N1),9(C1 H1 Cl3)'
_chemical_name_systematic        
'decakis(\m-2-((2-oxidoethyl)carbonoimidoyl)-6-(hydroxymethyl)-4-methylphenolato)-decakis(pivalato)-deca-dysprosium acetonitrile chloroform solvate'
_symmetry_cell_setting           triclinic
_symmetry_space_group_name_H-M   'P -1'
_symmetry_Int_Tables_number      2
_space_group_name_Hall           '-P 1'
loop_
_symmetry_equiv_pos_site_id
_symmetry_equiv_pos_as_xyz
1 x,y,z
2 -x,-y,-z
_cell_length_a                   22.0177(11)
_cell_length_b                   23.0226(11)
_cell_length_c                   24.8075(12)
_cell_angle_alpha                63.2250(10)
_cell_angle_beta                 83.5980(10)
_cell_angle_gamma                82.6300(10)
_cell_volume                     11113.5
_exptl_crystal_colour            colorless
_exptl_crystal_description       block
_cell_formula_units_Z            2
loop_
_atom_site_label
_atom_site_type_symbol
_atom_site_fract_x
_atom_site_fract_y
_atom_site_fract_z
Dy6 Dy 1.191780(13) 1.025250(13) 0.808470(11)
Dy7 Dy 1.132580(13) 0.856480(13) 0.873070(11)
Dy8 Dy 0.967750(13) 0.807250(13) 0.912880(12)
Dy9 Dy 0.870470(13) 0.762950(13) 1.060060(12)
Dy10 Dy 0.766820(13) 0.876080(13) 1.113450(12)
O26 O 1.04796(19) 0.83487(19) 0.94131(17)
O27 O 1.22070(18) 0.91005(18) 0.86559(17)
O28 O 1.30194(19) 1.01207(19) 0.79393(18)
H111 H 1.3284(11) 1.0371(14) 0.787(3)
O29 O 0.90712(19) 0.84406(18) 0.97513(17)
O30 O 1.03593(19) 0.86177(18) 0.83026(16)
O31 O 1.1591(2) 0.8726(2) 0.77178(17)
H112 H 1.1871(18) 0.890(3) 0.7474(14)
O32 O 0.86260(18) 0.83502(18) 1.10190(17)
O33 O 0.95696(18) 0.72382(18) 1.01649(17)
O34 O 1.0206(2) 0.70950(18) 0.91181(17)
H113 H 1.0495(18) 0.7028(14) 0.8909(19)
O35 O 0.80738(19) 0.96768(18) 1.10411(16)
O36 O 0.77367(19) 0.82983(18) 1.04430(17)
O37 O 0.81008(19) 0.72356(19) 1.01072(18)
H114 H 0.8186(13) 0.708(3) 0.986(2)
O38 O 0.89062(18) 1.03711(18) 1.15055(17)
O39 O 0.79768(18) 0.86601(18) 1.20793(16)
O40 O 0.74014(19) 0.77011(19) 1.18437(17)
H115 H 0.738(3) 0.7350(12) 1.1838(14)
O41 O 1.21566(19) 1.08903(19) 0.69902(17)
O42 O 1.1838(2) 0.99295(19) 0.72769(17)
O43 O 1.22194(19) 0.77744(19) 0.88223(18)
O44 O 1.1317(2) 0.74041(19) 0.90032(18)
O45 O 0.9285(2) 0.8002(2) 0.82515(18)
O46 O 0.8675(2) 0.7754(2) 0.90654(17)
O47 O 0.8795(2) 0.64086(19) 1.11675(18)
O48 O 0.8210(2) 0.6944(2) 1.15952(19)
O49 O 0.6568(2) 0.8714(2) 1.09786(18)
O50 O 0.67491(19) 0.9278(2) 1.14466(18)
N6 N 1.1642(2) 0.8173(2) 0.9771(2)
N7 N 0.9153(2) 0.9159(2) 0.8528(2)
N8 N 0.9534(2) 0.7373(2) 1.1269(2)
N9 N 0.7487(2) 0.9669(2) 1.0140(2)
N10 N 0.9040(2) 0.9101(2) 1.2328(2)
C81 C 1.0559(3) 0.8353(3) 0.9970(2)
H116 H 1.0209 0.8186 1.0250
H117 H 1.0591 0.8796 0.9907
C82 C 1.1139(3) 0.7929(3) 1.0231(3)
H118 H 1.1221 0.7954 1.0596
H119 H 1.1094 0.7477 1.0332
C83 C 1.2176(3) 0.8133(3) 0.9943(3)
H120 H 1.2219 0.7945 1.0357
C84 C 1.2725(3) 0.8354(3) 0.9554(3)
C85 C 1.3287(3) 0.8094(3) 0.9823(3)
H121 H 1.3281 0.7803 1.0232
C86 C 1.3850(3) 0.8248(3) 0.9509(3)
C87 C 1.4447(3) 0.7949(3) 0.9817(3)
H122 H 1.4359 0.7655 1.0233
H123 H 1.4674 0.8290 0.9795
H124 H 1.4685 0.7715 0.9618
C88 C 1.3842(3) 0.8693(3) 0.8903(3)
H125 H 1.4213 0.8800 0.8679
C89 C 1.3296(3) 0.8986(3) 0.8618(3)
C90 C 1.2724(3) 0.8812(3) 0.8937(3)
C91 C 1.3307(3) 0.9498(3) 0.7983(3)
H126 H 1.3729 0.9548 0.7819
H127 H 1.3093 0.9363 0.7742
C92 C 0.8912(3) 0.9118(3) 0.9515(3)
H128 H 0.9268 0.9338 0.9493
H129 H 0.8595 0.9209 0.9778
C93 C 0.8681(3) 0.9368(3) 0.8885(3)
H130 H 0.8298 0.9190 0.8909
H131 H 0.8612 0.9841 0.8698
C94 C 0.9231(3) 0.9512(3) 0.7961(3)
H132 H 0.8971 0.9893 0.7796
C95 C 0.9681(3) 0.9387(3) 0.7546(3)
C96 C 0.9570(3) 0.9741(3) 0.6925(3)
H133 H 0.9225 1.0038 0.6812
C97 C 0.9960(3) 0.9660(3) 0.6477(3)
C98 C 0.9834(4) 1.0046(4) 0.5819(3)
H134 H 1.0082 1.0408 0.5637
H135 H 0.9408 1.0205 0.5783
H136 H 0.9931 0.9770 0.5619
C99 C 1.0482(3) 0.9236(3) 0.6661(3)
H137 H 1.0752 0.9176 0.6371
C100 C 1.0618(3) 0.8895(3) 0.7267(3)
C101 C 1.0214(3) 0.8956(3) 0.7723(3)
C102 C 1.1208(3) 0.8476(3) 0.7446(3)
H138 H 1.1121 0.8035 0.7731
H139 H 1.1427 0.8459 0.7091
C103 C 0.9158(3) 0.8400(3) 1.1259(3)
H140 H 0.9054 0.8636 1.1501
H141 H 0.9451 0.8635 1.0934
C104 C 0.9435(3) 0.7718(3) 1.1647(3)
H142 H 0.9820 0.7736 1.1790
H143 H 0.9158 0.7495 1.1994
C105 C 0.9981(3) 0.6931(3) 1.1369(3)
H144 H 1.0216 0.6845 1.1690
C106 C 1.0159(3) 0.6552(3) 1.1035(3)
C107 C 1.0575(3) 0.6002(3) 1.1302(3)
H145 H 1.0716 0.5912 1.1674
C108 C 1.0788(3) 0.5590(3) 1.1046(3)
C109 C 1.1244(3) 0.5006(3) 1.1345(3)
H146 H 1.1650 0.5147 1.1271
H147 H 1.1229 0.4702 1.1181
H148 H 1.1144 0.4797 1.1773
C110 C 1.0582(3) 0.5754(3) 1.0481(3)
H149 H 1.0716 0.5485 1.0294
C111 C 1.0185(3) 0.6303(3) 1.0183(3)
C112 C 0.9957(3) 0.6714(3) 1.0453(3)
C113 C 0.9994(3) 0.6476(3) 0.9563(2)
H150 H 1.0160 0.6135 0.9446
H151 H 0.9550 0.6501 0.9570
C114 C 0.8197(3) 1.0164(3) 1.0444(3)
H152 H 0.8547 1.0014 1.0252
H153 H 0.8289 1.0560 1.0454
C115 C 0.7634(3) 1.0298(3) 1.0095(3)
H154 H 0.7292 1.0487 1.0264
H155 H 0.7713 1.0603 0.9674
C116 C 0.7255(3) 0.9660(3) 0.9694(3)
H156 H 0.7194 1.0058 0.9355
C117 C 0.7079(3) 0.9086(3) 0.9668(3)
C118 C 0.6649(3) 0.9194(3) 0.9250(3)
H157 H 0.6494 0.9621 0.9014
C119 C 0.6444(3) 0.8700(3) 0.9173(3)
C120 C 0.5957(3) 0.8822(4) 0.8740(3)
H158 H 0.5610 0.8588 0.8960
H159 H 0.6121 0.8676 0.8442
H160 H 0.5832 0.9281 0.8542
C121 C 0.6714(3) 0.8072(3) 0.9506(3)
H161 H 0.6597 0.7729 0.9451
C122 C 0.7147(3) 0.7940(3) 0.9916(3)
C123 C 0.7330(3) 0.8446(3) 1.0025(3)
C124 C 0.7447(3) 0.7258(3) 1.0244(3)
H162 H 0.7365 0.7108 1.0677
H163 H 0.7273 0.6967 1.0130
C125 C 0.9493(3) 1.0037(3) 1.1545(3)
H164 H 0.9547 0.9846 1.1263
H165 H 0.9804 1.0339 1.1441
C126 C 0.9556(3) 0.9505(3) 1.2186(3)
H166 H 0.9542 0.9695 1.2466
H167 H 0.9944 0.9242 1.2216
C127 C 0.9121(3) 0.8496(3) 1.2684(3)
H168 H 0.9505 0.8343 1.2842
C128 C 0.8674(3) 0.8019(3) 1.2868(2)
C129 C 0.8814(3) 0.7426(3) 1.3366(3)
H169 H 0.9174 0.7371 1.3554
C130 C 0.8444(3) 0.6913(3) 1.3594(2)
C131 C 0.8613(3) 0.6275(3) 1.4125(3)
H170 H 0.8699 0.5937 1.3995
H171 H 0.8277 0.6169 1.4427
H172 H 0.8969 0.6312 1.4294
C132 C 0.7916(3) 0.7006(3) 1.3287(3)
H173 H 0.7659 0.6671 1.3427
C133 C 0.7763(3) 0.7583(3) 1.2783(2)
C134 C 0.8129(3) 0.8114(3) 1.2562(2)
C135 C 0.7221(3) 0.7638(3) 1.2447(3)
H174 H 0.6998 0.7253 1.2670
H175 H 0.6949 0.8015 1.2418
C136 C 1.1958(3) 1.0486(3) 0.6859(3)
C137 C 1.1819(3) 1.0683(3) 0.6201(3)
C138 C 1.2031(4) 1.0115(4) 0.6046(3)
H176 H 1.1929 1.0230 0.5642
H177 H 1.1830 0.9736 0.6325
H178 H 1.2467 1.0021 0.6074
C139 C 1.2128(4) 1.1286(4) 0.5775(3)
H179 H 1.2564 1.1201 0.5815
H180 H 1.1978 1.1640 0.5872
H181 H 1.2041 1.1401 0.5367
C140 C 1.1123(3) 1.0828(4) 0.6169(3)
H182 H 1.0994 1.1190 0.6261
H183 H 1.0926 1.0451 0.6458
H184 H 1.1012 1.0935 0.5770
C141 C 1.1900(3) 0.7299(3) 0.9030(3)
C142 C 1.2198(3) 0.6607(3) 0.9365(3)
C143 C 1.2883(3) 0.6575(3) 0.9200(3)
H185 H 1.2950 0.6652 0.8785
H186 H 1.3070 0.6151 0.9456
H187 H 1.3061 0.6903 0.9255
C144 C 1.1892(4) 0.6128(3) 0.9231(3)
H188 H 1.1950 0.6244 0.8806
H189 H 1.1462 0.6149 0.9343
H190 H 1.2074 0.5693 0.9457
C145 C 1.2083(3) 0.6436(3) 1.0044(3)
H191 H 1.2241 0.5994 1.0282
H192 H 1.1650 0.6484 1.0138
H193 H 1.2285 0.6726 1.0132
C146 C 0.8760(3) 0.7919(3) 0.8498(3)
C147 C 0.8203(3) 0.8050(3) 0.8126(3)
C148 C 0.8402(3) 0.8179(4) 0.7482(3)
H194 H 0.8649 0.8543 0.7304
H195 H 0.8047 0.8278 0.7254
H196 H 0.8638 0.7799 0.7480
C149 C 0.7819(3) 0.8653(3) 0.8134(3)
H197 H 0.8062 0.9020 0.7957
H198 H 0.7691 0.8567 0.8544
H199 H 0.7464 0.8749 0.7906
C150 C 0.7814(3) 0.7462(3) 0.8426(3)
H200 H 0.7453 0.7554 0.8206
H201 H 0.7695 0.7382 0.8836
H202 H 0.8050 0.7083 0.8422
C151 C 0.8514(3) 0.6411(3) 1.1629(3)
C152 C 0.8554(3) 0.5814(3) 1.2242(3)
C153 C 0.8887(4) 0.5224(3) 1.2174(3)
H203 H 0.8662 0.5120 1.1923
H204 H 0.8916 0.4856 1.2565
H205 H 0.9291 0.5324 1.1990
C154 C 0.8918(4) 0.5985(3) 1.2637(3)
H206 H 0.9329 0.6060 1.2462
H207 H 0.8929 0.5629 1.3036
H208 H 0.8723 0.6372 1.2659
C155 C 0.7918(4) 0.5654(4) 1.2538(3)
H209 H 0.7719 0.6015 1.2604
H210 H 0.7950 0.5272 1.2919
H211 H 0.7682 0.5574 1.2280
C156 C 0.6382(3) 0.9107(3) 1.1189(2)
C157 C 0.5723(3) 0.9436(3) 1.1105(3)
C158 C 0.5770(3) 1.0129(3) 1.0602(3)
H212 H 0.6026 1.0355 1.0719
H213 H 0.5368 1.0357 1.0533
H214 H 0.5946 1.0111 1.0237
C159 C 0.5320(3) 0.9076(4) 1.0915(4)
H215 H 0.5522 0.9012 1.0580
H216 H 0.4934 0.9330 1.0798
H217 H 0.5250 0.8660 1.1248
C160 C 0.5448(3) 0.9456(4) 1.1686(3)
H218 H 0.5466 0.9022 1.2010
H219 H 0.5029 0.9636 1.1635
H220 H 0.5677 0.9724 1.1780
Dy6A Dy 0.808220(13) 0.974750(13) 1.191530(11)
Dy7A Dy 0.867420(13) 1.143520(13) 1.126930(11)
Dy8A Dy 1.032250(13) 1.192750(13) 1.087120(12)
Dy9A Dy 1.129530(13) 1.237050(13) 0.939940(12)
Dy10A Dy 1.233180(13) 1.123920(13) 0.886550(12)
O26A O 0.95204(19) 1.16513(19) 1.05869(17)
O27A O 0.77930(18) 1.08995(18) 1.13441(17)
O28A O 0.69806(19) 0.98793(19) 1.20607(18)
H111A H 0.6716(11) 0.9629(14) 1.213(3)
O29A O 1.09288(19) 1.15594(18) 1.02487(17)
O30A O 0.96407(19) 1.13823(18) 1.16974(16)
O31A O 0.8409(2) 1.1274(2) 1.22822(17)
H112A H 0.8129(18) 1.110(3) 1.2526(14)
O32A O 1.13740(18) 1.16498(18) 0.89810(17)
O33A O 1.04304(18) 1.27618(18) 0.98351(17)
O34A O 0.9794(2) 1.29050(18) 1.08819(17)
H113A H 0.9505(18) 1.2972(14) 1.1091(19)
O35A O 1.19262(19) 1.03232(18) 0.89589(16)
O36A O 1.22633(19) 1.17017(18) 0.95570(17)
O37A O 1.18992(19) 1.27644(19) 0.98928(18)
H114A H 1.1814(13) 1.292(3) 1.014(2)
O38A O 1.10938(18) 0.96289(18) 0.84945(17)
O39A O 1.20232(18) 1.13399(18) 0.79207(16)
O40A O 1.25986(19) 1.22989(19) 0.81563(17)
H115A H 1.262(3) 1.2650(12) 0.8162(14)
O41A O 0.78434(19) 0.91097(19) 1.30098(17)
O42A O 0.8162(2) 1.00705(19) 1.27231(17)
O43A O 0.77806(19) 1.22256(19) 1.11777(18)
O44A O 0.8683(2) 1.25959(19) 1.09968(18)
O45A O 1.0715(2) 1.1998(2) 1.17485(18)
O46A O 1.1325(2) 1.2246(2) 1.09346(17)
O47A O 1.1205(2) 1.35914(19) 0.88325(18)
O48A O 1.1790(2) 1.3056(2) 0.84048(19)
O49A O 1.3432(2) 1.1286(2) 0.90214(18)
O50A O 1.32509(19) 1.0722(2) 0.85534(18)
N6A N 0.8358(2) 1.1827(2) 1.0229(2)
N7A N 1.0847(2) 1.0841(2) 1.1472(2)
N8A N 1.0466(2) 1.2627(2) 0.8731(2)
N9A N 1.2513(2) 1.0331(2) 0.9860(2)
N10A N 1.0960(2) 1.0899(2) 0.7672(2)
C81A C 0.9441(3) 1.1647(3) 1.0030(2)
H116A H 0.9791 1.1814 0.9750
H117A H 0.9409 1.1204 1.0093
C82A C 0.8861(3) 1.2071(3) 0.9769(3)
H118A H 0.8779 1.2046 0.9404
H119A H 0.8906 1.2523 0.9668
C83A C 0.7824(3) 1.1867(3) 1.0057(3)
H120A H 0.7781 1.2055 0.9643
C84A C 0.7275(3) 1.1646(3) 1.0446(3)
C85A C 0.6713(3) 1.1906(3) 1.0177(3)
H121A H 0.6719 1.2197 0.9768
C86A C 0.6150(3) 1.1752(3) 1.0491(3)
C87A C 0.5553(3) 1.2051(3) 1.0183(3)
H122A H 0.5641 1.2345 0.9767
H123A H 0.5326 1.1710 1.0205
H124A H 0.5315 1.2285 1.0382
C88A C 0.6158(3) 1.1307(3) 1.1097(3)
H125A H 0.5787 1.1200 1.1321
C89A C 0.6704(3) 1.1014(3) 1.1382(3)
C90A C 0.7276(3) 1.1188(3) 1.1063(3)
C91A C 0.6693(3) 1.0502(3) 1.2017(3)
H126A H 0.6271 1.0452 1.2181
H127A H 0.6907 1.0637 1.2258
C92A C 1.1088(3) 1.0882(3) 1.0485(3)
H128A H 1.0732 1.0662 1.0507
H129A H 1.1405 1.0791 1.0222
C93A C 1.1319(3) 1.0632(3) 1.1115(3)
H130A H 1.1702 1.0810 1.1091
H131A H 1.1388 1.0159 1.1302
C94A C 1.0769(3) 1.0488(3) 1.2039(3)
H132A H 1.1029 1.0107 1.2204
C95A C 1.0319(3) 1.0613(3) 1.2454(3)
C96A C 1.0430(3) 1.0259(3) 1.3075(3)
H133A H 1.0775 0.9962 1.3188
C97A C 1.0040(3) 1.0340(3) 1.3523(3)
C98A C 1.0166(4) 0.9954(4) 1.4181(3)
H134A H 0.9918 0.9592 1.4363
H135A H 1.0592 0.9795 1.4217
H136A H 1.0069 1.0230 1.4381
C99A C 0.9518(3) 1.0764(3) 1.3339(3)
H137A H 0.9248 1.0824 1.3629
C100A C 0.9382(3) 1.1105(3) 1.2733(3)
C101A C 0.9786(3) 1.1044(3) 1.2277(3)
C102A C 0.8792(3) 1.1524(3) 1.2554(3)
H138A H 0.8879 1.1965 1.2269
H139A H 0.8573 1.1541 1.2909
C103A C 1.0842(3) 1.1600(3) 0.8741(3)
H140A H 1.0946 1.1364 0.8499
H141A H 1.0549 1.1365 0.9066
C104A C 1.0565(3) 1.2282(3) 0.8353(3)
H142A H 1.0180 1.2264 0.8210
H143A H 1.0842 1.2505 0.8006
C105A C 1.0019(3) 1.3069(3) 0.8631(3)
H144A H 0.9784 1.3155 0.8310
C106A C 0.9841(3) 1.3448(3) 0.8965(3)
C107A C 0.9425(3) 1.3998(3) 0.8698(3)
H145A H 0.9284 1.4088 0.8326
C108A C 0.9212(3) 1.4410(3) 0.8954(3)
C109A C 0.8756(3) 1.4994(3) 0.8655(3)
H146A H 0.8350 1.4853 0.8729
H147A H 0.8771 1.5298 0.8819
H148A H 0.8856 1.5203 0.8227
C110A C 0.9418(3) 1.4246(3) 0.9519(3)
H149A H 0.9284 1.4515 0.9706
C111A C 0.9815(3) 1.3697(3) 0.9817(3)
C112A C 1.0043(3) 1.3286(3) 0.9547(3)
C113A C 1.0006(3) 1.3524(3) 1.0437(2)
H150A H 0.9840 1.3865 1.0554
H151A H 1.0450 1.3499 1.0430
C114A C 1.1803(3) 0.9836(3) 0.9556(3)
H152A H 1.1453 0.9986 0.9748
H153A H 1.1711 0.9440 0.9546
C115A C 1.2366(3) 0.9702(3) 0.9905(3)
H154A H 1.2708 0.9513 0.9736
H155A H 1.2287 0.9397 1.0326
C116A C 1.2745(3) 1.0340(3) 1.0306(3)
H156A H 1.2806 0.9942 1.0645
C117A C 1.2921(3) 1.0914(3) 1.0332(3)
C118A C 1.3351(3) 1.0806(3) 1.0750(3)
H157A H 1.3506 1.0379 1.0986
C119A C 1.3556(3) 1.1300(3) 1.0827(3)
C120A C 1.4043(3) 1.1178(4) 1.1260(3)
H158A H 1.4390 1.1412 1.1040
H159A H 1.3879 1.1324 1.1558
H160A H 1.4168 1.0719 1.1458
C121A C 1.3286(3) 1.1928(3) 1.0494(3)
H161A H 1.3403 1.2271 1.0549
C122A C 1.2853(3) 1.2060(3) 1.0084(3)
C123A C 1.2670(3) 1.1554(3) 0.9975(3)
C124A C 1.2553(3) 1.2742(3) 0.9756(3)
H162A H 1.2635 1.2892 0.9323
H163A H 1.2727 1.3033 0.9870
C125A C 1.0507(3) 0.9963(3) 0.8455(3)
H164A H 1.0453 1.0154 0.8737
H165A H 1.0196 0.9661 0.8559
C126A C 1.0444(3) 1.0495(3) 0.7814(3)
H166A H 1.0458 1.0305 0.7534
H167A H 1.0056 1.0758 0.7784
C127A C 1.0879(3) 1.1504(3) 0.7316(3)
H168A H 1.0495 1.1657 0.7158
C128A C 1.1326(3) 1.1981(3) 0.7132(2)
C129A C 1.1186(3) 1.2574(3) 0.6634(3)
H169A H 1.0826 1.2629 0.6446
C130A C 1.1556(3) 1.3087(3) 0.6406(2)
C131A C 1.1387(3) 1.3725(3) 0.5875(3)
H170A H 1.1301 1.4063 0.6005
H171A H 1.1723 1.3831 0.5573
H172A H 1.1031 1.3688 0.5706
C132A C 1.2084(3) 1.2994(3) 0.6713(3)
H173A H 1.2341 1.3329 0.6573
C133A C 1.2237(3) 1.2417(3) 0.7217(2)
C134A C 1.1871(3) 1.1886(3) 0.7438(2)
C135A C 1.2779(3) 1.2362(3) 0.7553(3)
H174A H 1.3002 1.2747 0.7330
H175A H 1.3051 1.1985 0.7582
C136A C 0.8042(3) 0.9514(3) 1.3141(3)
C137A C 0.8181(3) 0.9317(3) 1.3799(3)
C138A C 0.7969(4) 0.9885(4) 1.3954(3)
H176A H 0.8071 0.9770 1.4358
H177A H 0.8170 1.0264 1.3675
H178A H 0.7533 0.9979 1.3926
C139A C 0.7872(4) 0.8714(4) 1.4225(3)
H179A H 0.7436 0.8799 1.4185
H180A H 0.8022 0.8360 1.4128
H181A H 0.7959 0.8599 1.4633
C140A C 0.8877(3) 0.9172(4) 1.3831(3)
H182A H 0.9006 0.8810 1.3739
H183A H 0.9074 0.9549 1.3542
H184A H 0.8988 0.9065 1.4230
C141A C 0.8100(3) 1.2701(3) 1.0970(3)
C142A C 0.7802(3) 1.3393(3) 1.0635(3)
C143A C 0.7117(3) 1.3425(3) 1.0800(3)
H185A H 0.7050 1.3348 1.1215
H186A H 0.6930 1.3849 1.0544
H187A H 0.6939 1.3097 1.0745
C144A C 0.8108(4) 1.3872(3) 1.0769(3)
H188A H 0.8050 1.3756 1.1194
H189A H 0.8538 1.3851 1.0657
H190A H 0.7926 1.4307 1.0543
C145A C 0.7917(3) 1.3564(3) 0.9956(3)
H191A H 0.7759 1.4006 0.9718
H192A H 0.8350 1.3516 0.9862
H193A H 0.7715 1.3274 0.9868
C146A C 1.1240(3) 1.2081(3) 1.1502(3)
C147A C 1.1797(3) 1.1950(3) 1.1874(3)
C148A C 1.1598(3) 1.1821(4) 1.2518(3)
H194A H 1.1351 1.1457 1.2696
H195A H 1.1953 1.1722 1.2746
H196A H 1.1362 1.2201 1.2520
C149A C 1.2181(3) 1.1347(3) 1.1866(3)
H197A H 1.1938 1.0980 1.2043
H198A H 1.2309 1.1433 1.1456
H199A H 1.2536 1.1251 1.2094
C150A C 1.2186(3) 1.2538(3) 1.1574(3)
H200A H 1.2547 1.2446 1.1794
H201A H 1.2305 1.2618 1.1164
H202A H 1.1950 1.2917 1.1578
C151A C 1.1486(3) 1.3589(3) 0.8371(3)
C152A C 1.1446(3) 1.4186(3) 0.7758(3)
C153A C 1.1113(4) 1.4776(3) 0.7826(3)
H203A H 1.1338 1.4880 0.8077
H204A H 1.1084 1.5144 0.7435
H205A H 1.0709 1.4676 0.8010
C154A C 1.1082(4) 1.4015(3) 0.7363(3)
H206A H 1.0671 1.3940 0.7538
H207A H 1.1071 1.4371 0.6964
H208A H 1.1277 1.3628 0.7341
C155A C 1.2082(4) 1.4346(4) 0.7462(3)
H209A H 1.2281 1.3985 0.7396
H210A H 1.2050 1.4728 0.7081
H211A H 1.2318 1.4426 0.7720
C156A C 1.3618(3) 1.0893(3) 0.8811(2)
C157A C 1.4277(3) 1.0564(3) 0.8895(3)
C158A C 1.4230(3) 0.9871(3) 0.9398(3)
H212A H 1.3974 0.9645 0.9281
H213A H 1.4632 0.9643 0.9467
H214A H 1.4054 0.9889 0.9763
C159A C 1.4680(3) 1.0924(4) 0.9085(4)
H215A H 1.4478 1.0988 0.9420
H216A H 1.5066 1.0670 0.9202
H217A H 1.4750 1.1340 0.8752
C160A C 1.4552(3) 1.0544(4) 0.8314(3)
H218A H 1.4534 1.0978 0.7990
H219A H 1.4971 1.0364 0.8365
H220A H 1.4323 1.0276 0.8220
Cl1 Cl 0.8665(2) 0.76995(18) 0.61859(15)
Cl2 Cl 0.97361(15) 0.83492(14) 0.55723(12)
Cl3 Cl 0.86012(17) 0.90933(18) 0.56105(16)
C161 C 0.9055(5) 0.8396(5) 0.5991(4)
H221 H 0.9160 0.8394 0.6365
Cl4 Cl 0.6915(3) 0.6170(2) 0.81684(19)
Cl5 Cl 0.75984(19) 0.70428(19) 0.71671(16)
Cl6 Cl 0.6417(2) 0.7520(2) 0.75012(18)
C162 C 0.6929(5) 0.6843(5) 0.7426(5)
H222 H 0.6750 0.6720 0.7152
Cl7 Cl 0.44141(11) 0.82985(10) 0.70364(10)
Cl8 Cl 0.33213(15) 0.79723(12) 0.78455(9)
Cl9 Cl 0.32067(13) 0.87783(12) 0.65887(11)
C163 C 0.3638(4) 0.8124(4) 0.7126(3)
H223 H 0.3621 0.7736 0.7064
Cl10 Cl 0.29495(12) 1.00557(12) 0.41589(13)
Cl11 Cl 0.19059(10) 0.96316(11) 0.38696(10)
Cl12 Cl 0.21789(14) 0.91878(11) 0.51047(10)
C164 C 0.2496(4) 0.9416(4) 0.4368(3)
H224 H 0.2754 0.9041 0.4356
Cl13 Cl 0.07033(10) 0.64934(11) 0.81179(9)
Cl14 Cl 0.00776(11) 0.74582(11) 0.70979(9)
Cl15 Cl -0.06022(12) 0.65200(12) 0.81110(12)
C165 C 0.0021(3) 0.6993(3) 0.7878(3)
H225 H -0.0037 0.7291 0.8068
Cl16 Cl 0.06911(8) 0.76030(9) 0.28927(7)
Cl17 Cl 0.02789(9) 0.76976(11) 0.40071(8)
Cl18 Cl 0.11531(11) 0.85500(9) 0.31600(10)
C166 C 0.0899(3) 0.7765(3) 0.3477(3)
H226 H 0.1236 0.7446 0.3684
Cl19 Cl 0.58073(8) 0.74094(9) 0.20778(7)
Cl20 Cl 0.56908(9) 0.74040(11) 0.09266(9)
Cl21 Cl 0.65587(11) 0.64827(10) 0.17574(11)
C167 C 0.6198(3) 0.7278(3) 0.1481(3)
H227 H 0.6512 0.7588 0.1293
Cl22 Cl 0.77944(9) 0.54531(10) 0.09553(9)
Cl23 Cl 0.90618(9) 0.51038(9) 0.06827(9)
Cl24 Cl 0.82778(12) 0.59242(10) -0.02846(9)
C168 C 0.8452(3) 0.5713(3) 0.0462(3)
H228 H 0.8573 0.6101 0.0476
Cl25 Cl 0.3962(7) 0.3285(7) 0.0617(9)
Cl26 Cl 0.5155(6) 0.2764(4) 0.1268(4)
C169 C 0.4561(11) 0.3355(12) 0.0966(15)
H229 H 0.44(8) 0.35(9) 0.13(8)
Cl27 Cl 0.4903(3) 0.4023(3) 0.0421(2)
N11 N 0.6832(5) 0.5921(5) 0.3587(5)
C170 C 0.6304(5) 0.6036(5) 0.3675(5)
C171 C 0.5641(5) 0.6157(6) 0.3812(5)
H230 H 0.5408 0.6089 0.3544
H231 H 0.5554 0.6598 0.3758
H232 H 0.5532 0.5861 0.4223
N12 N 0.8297(5) 0.0965(5) 0.8634(5)
C172 C 0.8796(5) 0.1072(5) 0.8695(5)
C173 C 0.9394(5) 0.1185(6) 0.8783(5)
H233 H 0.9488 0.0918 0.9197
H234 H 0.9402 0.1637 0.8688
H235 H 0.9692 0.1074 0.8523
N13 N 0.1198(3) 0.7176(4) 0.1805(3)
C174 C 0.1584(3) 0.6839(4) 0.1718(3)
C175 C 0.2072(4) 0.6431(4) 0.1601(4)
H236 H 0.2432 0.6666 0.1445
H237 H 0.1954 0.6306 0.1310
H238 H 0.2160 0.6047 0.1970
N14 N 0.5977(3) 0.7779(4) 0.3206(3)
C176 C 0.6237(3) 0.8138(4) 0.3277(3)
C177 C 0.6580(4) 0.8576(4) 0.3371(4)
H239 H 0.6952 0.8345 0.3558
H240 H 0.6338 0.8739 0.3627
H241 H 0.6677 0.8934 0.2988
Dy1 Dy 0.564450(13) 0.644950(13) 0.625800(12)
Dy2 Dy 0.397850(13) 0.697470(13) 0.583320(12)
Dy3 Dy 0.326900(13) 0.740130(13) 0.435930(12)
Dy4 Dy 0.264930(13) 0.626430(13) 0.385060(12)
Dy5 Dy 0.350510(13) 0.524970(13) 0.308870(12)
O1 O 0.49313(19) 0.66736(19) 0.55673(16)
O2 O 0.66501(19) 0.58991(18) 0.63505(17)
O3 O 0.7538(2) 0.48408(19) 0.70576(19)
H1 H 0.7848(11) 0.4585(14) 0.713(3)
O4 O 0.36278(19) 0.66015(18) 0.52156(17)
O5 O 0.45854(19) 0.64162(19) 0.66736(17)
O6 O 0.56903(19) 0.6292(2) 0.72783(18)
H2 H 0.5949(14) 0.611(3) 0.7530(14)
O7 O 0.34746(19) 0.66588(19) 0.39655(18)
O8 O 0.39264(19) 0.77914(18) 0.47899(17)
O9 O 0.4256(2) 0.79536(19) 0.58217(19)
H3 H 0.448(3) 0.8016(14) 0.603(2)
O10 O 0.32529(19) 0.53299(18) 0.39552(16)
O11 O 0.24241(18) 0.67432(18) 0.45275(17)
O12 O 0.24418(19) 0.7835(2) 0.48227(18)
H4 H 0.2430(13) 0.801(3) 0.505(2)
O13 O 0.43760(18) 0.46049(18) 0.35154(17)
O14 O 0.31728(18) 0.63403(18) 0.29137(16)
O15 O 0.2294(2) 0.73167(19) 0.31146(17)
H5 H 0.218(3) 0.7670(12) 0.3117(14)
O16 O 0.6362(2) 0.7214(2) 0.61997(19)
O17 O 0.5419(2) 0.76206(19) 0.59674(19)
O18 O 0.33585(19) 0.70863(19) 0.66821(18)
O19 O 0.2890(2) 0.7334(2) 0.58647(18)
O20 O 0.3208(2) 0.8615(2) 0.37632(18)
O21 O 0.2859(2) 0.8070(2) 0.33568(18)
O22 O 0.15026(19) 0.63343(19) 0.40140(17)
O23 O 0.1928(2) 0.5759(2) 0.35451(18)
O24 O 0.3388(2) 0.5876(2) 0.19931(18)
O25 O 0.3885(2) 0.4911(2) 0.22902(18)
N1 N 0.6133(2) 0.6838(2) 0.5226(2)
N2 N 0.3565(2) 0.5904(2) 0.6439(2)
N3 N 0.4210(2) 0.7628(2) 0.3701(2)
N4 N 0.2443(2) 0.5364(2) 0.4859(2)
N5 N 0.4414(2) 0.5868(2) 0.2691(2)
C1 C 0.5149(3) 0.6673(3) 0.5011(3)
H6 H 0.4826 0.6850 0.4729
H7 H 0.5277 0.6230 0.5071
C2 C 0.5689(3) 0.7087(3) 0.4757(3)
H8 H 0.5874 0.7057 0.4396
H9 H 0.5554 0.7541 0.4652
C3 C 0.6700(3) 0.6866(3) 0.5060(3)
H10 H 0.6797 0.7063 0.4645
C4 C 0.7219(3) 0.6622(3) 0.5452(3)
C5 C 0.7782(3) 0.6871(3) 0.5179(3)
H11 H 0.7801 0.7170 0.4773
C6 C 0.8311(3) 0.6688(3) 0.5492(3)
C7 C 0.8908(3) 0.6964(3) 0.5185(3)
H12 H 0.8859 0.7227 0.4760
H13 H 0.9220 0.6613 0.5241
H14 H 0.9026 0.7229 0.5357
C8 C 0.8255(3) 0.6243(3) 0.6097(3)
H15 H 0.8599 0.6118 0.6323
C9 C 0.7707(3) 0.5974(3) 0.6383(3)
C10 C 0.7167(3) 0.6167(3) 0.6071(3)
C11 C 0.7685(3) 0.5453(3) 0.7024(3)
H16 H 0.7378 0.5592 0.7264
H17 H 0.8079 0.5390 0.7191
C12 C 0.3562(3) 0.5921(3) 0.5463(3)
H18 H 0.3962 0.5679 0.5501
H19 H 0.3331 0.5834 0.5200
C13 C 0.3224(3) 0.5710(3) 0.6081(3)
H20 H 0.2809 0.5920 0.6040
H21 H 0.3203 0.5241 0.6277
C14 C 0.3583(3) 0.5547(3) 0.7003(3)
H22 H 0.3380 0.5169 0.7164
C15 C 0.3895(3) 0.5673(3) 0.7425(3)
C16 C 0.3714(3) 0.5328(3) 0.8041(3)
H23 H 0.3411 0.5042 0.8149
C17 C 0.3969(3) 0.5395(3) 0.8490(3)
C18 C 0.3775(3) 0.5010(3) 0.9147(3)
H24 H 0.3345 0.5111 0.9212
H25 H 0.4003 0.5123 0.9390
H26 H 0.3855 0.4552 0.9259
C19 C 0.4435(3) 0.5815(3) 0.8306(3)
H27 H 0.4612 0.5876 0.8598
C20 C 0.4644(3) 0.6142(3) 0.7711(3)
C21 C 0.4372(3) 0.6094(3) 0.7248(3)
C22 C 0.5176(3) 0.6562(3) 0.7533(3)
H28 H 0.5050 0.7001 0.7239
H29 H 0.5297 0.6585 0.7887
C23 C 0.4087(3) 0.6582(3) 0.3747(3)
H30 H 0.4109 0.6331 0.3519
H31 H 0.4350 0.6352 0.4082
C24 C 0.4297(3) 0.7258(3) 0.3342(3)
H32 H 0.4726 0.7224 0.3210
H33 H 0.4058 0.7475 0.2988
C25 C 0.4572(3) 0.8062(3) 0.3597(3)
H34 H 0.4870 0.8134 0.3283
C26 C 0.4562(3) 0.8453(3) 0.3921(3)
C27 C 0.4899(3) 0.9004(3) 0.3639(3)
H35 H 0.5108 0.9084 0.3268
C28 C 0.4935(3) 0.9428(3) 0.3878(3)
C29 C 0.5291(4) 1.0023(4) 0.3552(4)
H36 H 0.5237 1.0211 0.3126
H37 H 0.5719 0.9899 0.3622
H38 H 0.5144 1.0339 0.3700
C30 C 0.4630(3) 0.9273(3) 0.4447(3)
H39 H 0.4646 0.9548 0.4626
C31 C 0.4306(3) 0.8725(3) 0.4753(3)
C32 C 0.4251(3) 0.8309(3) 0.4488(3)
C33 C 0.4006(3) 0.8580(3) 0.5367(3)
H40 H 0.4068 0.8923 0.5474
H41 H 0.3567 0.8571 0.5358
C34 C 0.3350(3) 0.4849(3) 0.4554(3)
H42 H 0.3622 0.4997 0.4739
H43 H 0.3539 0.4447 0.4549
C35 C 0.2737(3) 0.4728(3) 0.4915(3)
H44 H 0.2480 0.4534 0.4759
H45 H 0.2799 0.4432 0.5336
C36 C 0.2109(3) 0.5391(3) 0.5300(3)
H46 H 0.2064 0.4998 0.5645
C37 C 0.1788(3) 0.5977(3) 0.5318(2)
C38 C 0.1291(3) 0.5886(3) 0.5744(3)
H47 H 0.1194 0.5460 0.5992
C39 C 0.0936(3) 0.6384(3) 0.5818(3)
C40 C 0.0400(3) 0.6276(3) 0.6267(3)
H48 H 0.0332 0.5821 0.6463
H49 H 0.0041 0.6527 0.6063
H50 H 0.0481 0.6412 0.6564
C41 C 0.1119(3) 0.7012(3) 0.5459(3)
H51 H 0.0896 0.7363 0.5500
C42 C 0.1621(3) 0.7132(3) 0.5044(3)
C43 C 0.1956(3) 0.6618(3) 0.4952(3)
C44 C 0.1817(3) 0.7811(3) 0.4691(3)
H52 H 0.1800 0.7944 0.4262
H53 H 0.1539 0.8112 0.4796
C45 C 0.4893(3) 0.4928(3) 0.3488(3)
H54 H 0.5253 0.4618 0.3602
H55 H 0.4824 0.5124 0.3766
C46 C 0.4991(3) 0.5452(3) 0.2843(3)
H56 H 0.5322 0.5707 0.2815
H57 H 0.5095 0.5255 0.2568
C47 C 0.4435(3) 0.6473(3) 0.2326(3)
H58 H 0.4822 0.6616 0.2173
C48 C 0.3913(3) 0.6962(3) 0.2127(3)
C49 C 0.4038(3) 0.7551(3) 0.1620(3)
H59 H 0.4434 0.7599 0.1440
C50 C 0.3588(3) 0.8063(3) 0.1381(3)
C51 C 0.3737(3) 0.8684(3) 0.0844(3)
H60 H 0.3464 0.8780 0.0533
H61 H 0.4152 0.8637 0.0695
H62 H 0.3689 0.9034 0.0959
C52 C 0.3010(3) 0.7978(3) 0.1673(3)
H63 H 0.2701 0.8314 0.1518
C53 C 0.2870(3) 0.7412(3) 0.2189(3)
C54 C 0.3322(3) 0.6878(3) 0.2426(2)
C55 C 0.2254(3) 0.7376(3) 0.2509(2)
H64 H 0.1993 0.7767 0.2279
H65 H 0.2068 0.7003 0.2537
C56 C 0.5984(3) 0.7700(3) 0.5971(3)
C57 C 0.6189(3) 0.8393(3) 0.5650(4)
C58 C 0.6849(4) 0.8386(4) 0.5788(4)
H66 H 0.6997 0.8806 0.5537
H67 H 0.7103 0.8058 0.5709
H68 H 0.6862 0.8290 0.6206
C59 C 0.5761(4) 0.8849(4) 0.5824(4)
H69 H 0.5357 0.8865 0.5705
H70 H 0.5902 0.9278 0.5626
H71 H 0.5749 0.8696 0.6255
C60 C 0.6171(4) 0.8594(4) 0.4960(3)
H72 H 0.5770 0.8549 0.4875
H73 H 0.6469 0.8316 0.4850
H74 H 0.6265 0.9040 0.4731
C61 C 0.2864(3) 0.7194(3) 0.6428(3)
C62 C 0.2238(3) 0.7123(3) 0.6785(3)
C63 C 0.2306(4) 0.7117(4) 0.7393(3)
H75 H 0.2443 0.7525 0.7327
H76 H 0.2600 0.6766 0.7616
H77 H 0.1917 0.7057 0.7620
C64 C 0.2024(3) 0.6477(3) 0.6874(3)
H78 H 0.1622 0.6424 0.7075
H79 H 0.2305 0.6122 0.7115
H80 H 0.2011 0.6480 0.6487
C65 C 0.1790(3) 0.7690(4) 0.6412(3)
H81 H 0.1956 0.8095 0.6310
H82 H 0.1406 0.7670 0.6642
H83 H 0.1725 0.7663 0.6047
C66 C 0.3046(3) 0.8595(3) 0.3302(3)
C67 C 0.3104(3) 0.9178(3) 0.2675(3)
C68 C 0.3278(4) 0.9768(3) 0.2728(3)
H84 H 0.2962 0.9894 0.2964
H85 H 0.3324 1.0124 0.2332
H86 H 0.3659 0.9659 0.2921
C69 C 0.3613(3) 0.8967(3) 0.2305(3)
H87 H 0.3995 0.8875 0.2494
H88 H 0.3652 0.9313 0.1903
H89 H 0.3511 0.8583 0.2289
C70 C 0.2500(4) 0.9340(4) 0.2366(3)
H90 H 0.2391 0.8960 0.2346
H91 H 0.2547 0.9686 0.1964
H92 H 0.2182 0.9476 0.2593
C71 C 0.1456(3) 0.5936(3) 0.3810(3)
C72 C 0.0858(3) 0.5614(3) 0.3913(3)
C73 C 0.0323(3) 0.5978(4) 0.4113(4)
H93 H 0.0434 0.6035 0.4449
H94 H -0.0028 0.5731 0.4233
H95 H 0.0227 0.6398 0.3784
C74 C 0.0980(3) 0.4920(3) 0.4425(3)
H96 H 0.1323 0.4695 0.4303
H97 H 0.0624 0.4686 0.4508
H98 H 0.1069 0.4947 0.4783
C75 C 0.0724(4) 0.5581(4) 0.3339(3)
H99 H 0.0680 0.6015 0.3016
H100 H 0.0352 0.5375 0.3406
H101 H 0.1058 0.5332 0.3233
C76 C 0.3728(3) 0.5473(3) 0.1866(3)
C77 C 0.3995(3) 0.5664(4) 0.1217(3)
C78 C 0.3635(4) 0.6276(4) 0.0783(3)
H102 H 0.3829 0.6420 0.0383
H103 H 0.3626 0.6613 0.0912
H104 H 0.3223 0.6182 0.0781
C79 C 0.4663(3) 0.5815(4) 0.1200(3)
H105 H 0.4887 0.5437 0.1490
H106 H 0.4663 0.6173 0.1298
H107 H 0.4854 0.5928 0.0803
C80 C 0.3991(4) 0.5106(4) 0.1055(3)
H108 H 0.4247 0.4737 0.1317
H109 H 0.4144 0.5238 0.0643
H110 H 0.3579 0.4987 0.1103
Dy1A Dy 0.435550(13) 0.355050(13) 0.374200(12)
Dy2A Dy 0.602150(13) 0.302530(13) 0.416680(12)
Dy3A Dy 0.673100(13) 0.259870(13) 0.564070(12)
Dy4A Dy 0.735070(13) 0.373570(13) 0.614940(12)
Dy5A Dy 0.649490(13) 0.475030(13) 0.691130(12)
O1A O 0.50687(19) 0.33264(19) 0.44327(16)
O2A O 0.33499(19) 0.41009(18) 0.36495(17)
O3A O 0.2462(2) 0.51592(19) 0.29424(19)
H1A H 0.2152(11) 0.5415(14) 0.287(3)
O4A O 0.63722(19) 0.33985(18) 0.47844(17)
O5A O 0.54146(19) 0.35838(19) 0.33264(17)
O6A O 0.43097(19) 0.3708(2) 0.27217(18)
H2A H 0.4051(14) 0.389(3) 0.2470(14)
O7A O 0.65254(19) 0.33412(19) 0.60345(18)
O8A O 0.60736(19) 0.22086(18) 0.52101(17)
O9A O 0.5744(2) 0.20464(19) 0.41783(19)
H3A H 0.552(3) 0.1984(14) 0.397(2)
O10A O 0.67471(19) 0.46701(18) 0.60448(16)
O11A O 0.75759(18) 0.32568(18) 0.54725(17)
O12A O 0.75582(19) 0.2165(2) 0.51773(18)
H4A H 0.7570(13) 0.199(3) 0.495(2)
O13A O 0.56240(18) 0.53951(18) 0.64846(17)
O14A O 0.68272(18) 0.36597(18) 0.70863(16)
O15A O 0.7706(2) 0.26833(19) 0.68854(17)
H5A H 0.782(3) 0.2330(12) 0.6883(14)
O16A O 0.3638(2) 0.2786(2) 0.38003(19)
O17A O 0.4581(2) 0.23794(19) 0.40326(19)
O18A O 0.66415(19) 0.29137(19) 0.33179(18)
O19A O 0.7110(2) 0.2666(2) 0.41353(18)
O20A O 0.6792(2) 0.1385(2) 0.62368(18)
O21A O 0.7141(2) 0.1930(2) 0.66432(18)
O22A O 0.84974(19) 0.36657(19) 0.59860(17)
O23A O 0.8072(2) 0.4241(2) 0.64549(18)
O24A O 0.6612(2) 0.4124(2) 0.80069(18)
O25A O 0.6115(2) 0.5089(2) 0.77098(18)
N1A N 0.3867(2) 0.3162(2) 0.4774(2)
N2A N 0.6435(2) 0.4096(2) 0.3561(2)
N3A N 0.5790(2) 0.2372(2) 0.6299(2)
N4A N 0.7557(2) 0.4636(2) 0.5141(2)
N5A N 0.5586(2) 0.4132(2) 0.7309(2)
C1A C 0.4851(3) 0.3327(3) 0.4989(3)
H6A H 0.5174 0.3150 0.5271
H7A H 0.4723 0.3770 0.4929
C2A C 0.4311(3) 0.2913(3) 0.5243(3)
H8A H 0.4126 0.2943 0.5604
H9A H 0.4446 0.2459 0.5348
C3A C 0.3300(3) 0.3134(3) 0.4940(3)
H10A H 0.3203 0.2937 0.5355
C4A C 0.2781(3) 0.3378(3) 0.4548(3)
C5A C 0.2218(3) 0.3129(3) 0.4821(3)
H11A H 0.2199 0.2830 0.5227
C6A C 0.1689(3) 0.3312(3) 0.4508(3)
C7A C 0.1092(3) 0.3036(3) 0.4815(3)
H12A H 0.1141 0.2773 0.5240
H13A H 0.0780 0.3387 0.4759
H14A H 0.0974 0.2771 0.4643
C8A C 0.1745(3) 0.3757(3) 0.3903(3)
H15A H 0.1401 0.3882 0.3677
C9A C 0.2293(3) 0.4026(3) 0.3617(3)
C10A C 0.2833(3) 0.3833(3) 0.3929(3)
C11A C 0.2315(3) 0.4547(3) 0.2976(3)
H16A H 0.2622 0.4408 0.2736
H17A H 0.1921 0.4610 0.2809
C12A C 0.6438(3) 0.4079(3) 0.4537(3)
H18A H 0.6038 0.4321 0.4499
H19A H 0.6669 0.4166 0.4800
C13A C 0.6776(3) 0.4290(3) 0.3919(3)
H20A H 0.7191 0.4080 0.3960
H21A H 0.6797 0.4759 0.3723
C14A C 0.6417(3) 0.4453(3) 0.2997(3)
H22A H 0.6620 0.4831 0.2836
C15A C 0.6105(3) 0.4327(3) 0.2575(3)
C16A C 0.6286(3) 0.4672(3) 0.1959(3)
H23A H 0.6589 0.4958 0.1851
C17A C 0.6031(3) 0.4605(3) 0.1510(3)
C18A C 0.6225(3) 0.4990(3) 0.0853(3)
H24A H 0.6655 0.4889 0.0788
H25A H 0.5997 0.4877 0.0610
H26A H 0.6145 0.5448 0.0741
C19A C 0.5565(3) 0.4185(3) 0.1694(3)
H27A H 0.5388 0.4124 0.1402
C20A C 0.5356(3) 0.3858(3) 0.2289(3)
C21A C 0.5628(3) 0.3906(3) 0.2752(3)
C22A C 0.4824(3) 0.3438(3) 0.2467(3)
H28A H 0.4950 0.2999 0.2761
H29A H 0.4703 0.3415 0.2113
C23A C 0.5913(3) 0.3418(3) 0.6253(3)
H30A H 0.5891 0.3669 0.6481
H31A H 0.5650 0.3648 0.5918
C24A C 0.5703(3) 0.2742(3) 0.6658(3)
H32A H 0.5274 0.2776 0.6790
H33A H 0.5942 0.2525 0.7012
C25A C 0.5428(3) 0.1938(3) 0.6403(3)
H34A H 0.5130 0.1866 0.6717
C26A C 0.5438(3) 0.1547(3) 0.6079(3)
C27A C 0.5101(3) 0.0996(3) 0.6361(3)
H35A H 0.4892 0.0916 0.6732
C28A C 0.5065(3) 0.0572(3) 0.6122(3)
C29A C 0.4709(4) -0.0023(4) 0.6448(4)
H36A H 0.4763 -0.0211 0.6874
H37A H 0.4281 0.0101 0.6378
H38A H 0.4856 -0.0339 0.6300
C30A C 0.5370(3) 0.0727(3) 0.5553(3)
H39A H 0.5354 0.0452 0.5374
C31A C 0.5694(3) 0.1275(3) 0.5247(3)
C32A C 0.5749(3) 0.1691(3) 0.5512(3)
C33A C 0.5994(3) 0.1420(3) 0.4633(3)
H40A H 0.5932 0.1077 0.4526
H41A H 0.6433 0.1429 0.4642
C34A C 0.6650(3) 0.5151(3) 0.5446(3)
H42A H 0.6378 0.5003 0.5261
H43A H 0.6461 0.5553 0.5451
C35A C 0.7263(3) 0.5272(3) 0.5085(3)
H44A H 0.7520 0.5466 0.5241
H45A H 0.7201 0.5568 0.4664
C36A C 0.7891(3) 0.4609(3) 0.4700(3)
H46A H 0.7936 0.5002 0.4355
C37A C 0.8212(3) 0.4023(3) 0.4682(2)
C38A C 0.8709(3) 0.4114(3) 0.4256(3)
H47A H 0.8806 0.4540 0.4008
C39A C 0.9064(3) 0.3616(3) 0.4182(3)
C40A C 0.9600(3) 0.3724(3) 0.3733(3)
H48A H 0.9668 0.4179 0.3537
H49A H 0.9959 0.3473 0.3937
H50A H 0.9519 0.3588 0.3436
C41A C 0.8881(3) 0.2988(3) 0.4541(3)
H51A H 0.9104 0.2637 0.4500
C42A C 0.8379(3) 0.2868(3) 0.4956(3)
C43A C 0.8044(3) 0.3382(3) 0.5048(3)
C44A C 0.8183(3) 0.2189(3) 0.5309(3)
H52A H 0.8200 0.2056 0.5738
H53A H 0.8461 0.1888 0.5204
C45A C 0.5107(3) 0.5072(3) 0.6512(3)
H54A H 0.4747 0.5382 0.6398
H55A H 0.5176 0.4876 0.6234
C46A C 0.5009(3) 0.4548(3) 0.7157(3)
H56A H 0.4678 0.4293 0.7185
H57A H 0.4905 0.4745 0.7432
C47A C 0.5565(3) 0.3527(3) 0.7674(3)
H58A H 0.5178 0.3384 0.7827
C48A C 0.6087(3) 0.3038(3) 0.7873(3)
C49A C 0.5962(3) 0.2449(3) 0.8380(3)
H59A H 0.5566 0.2401 0.8560
C50A C 0.6412(3) 0.1937(3) 0.8619(3)
C51A C 0.6263(3) 0.1316(3) 0.9156(3)
H60A H 0.6536 0.1220 0.9467
H61A H 0.5848 0.1363 0.9305
H62A H 0.6311 0.0966 0.9041
C52A C 0.6990(3) 0.2022(3) 0.8327(3)
H63A H 0.7299 0.1686 0.8482
C53A C 0.7130(3) 0.2588(3) 0.7811(3)
C54A C 0.6678(3) 0.3122(3) 0.7574(2)
C55A C 0.7746(3) 0.2624(3) 0.7491(2)
H64A H 0.8007 0.2233 0.7721
H65A H 0.7932 0.2997 0.7463
C56A C 0.4016(3) 0.2300(3) 0.4029(3)
C57A C 0.3811(3) 0.1607(3) 0.4350(4)
C58A C 0.3151(4) 0.1614(4) 0.4212(4)
H66A H 0.3003 0.1194 0.4463
H67A H 0.2897 0.1942 0.4291
H68A H 0.3138 0.1710 0.3794
C59A C 0.4239(4) 0.1151(4) 0.4176(4)
H69A H 0.4643 0.1135 0.4295
H70A H 0.4098 0.0722 0.4374
H71A H 0.4251 0.1304 0.3745
C60A C 0.3829(4) 0.1406(4) 0.5040(3)
H72A H 0.4230 0.1451 0.5125
H73A H 0.3531 0.1684 0.5150
H74A H 0.3735 0.0960 0.5269
C61A C 0.7136(3) 0.2806(3) 0.3572(3)
C62A C 0.7762(3) 0.2877(3) 0.3215(3)
C63A C 0.7694(4) 0.2883(4) 0.2607(3)
H75A H 0.7557 0.2475 0.2673
H76A H 0.7400 0.3234 0.2384
H77A H 0.8083 0.2943 0.2380
C64A C 0.7976(3) 0.3523(3) 0.3126(3)
H78A H 0.8378 0.3576 0.2925
H79A H 0.7695 0.3878 0.2885
H80A H 0.7989 0.3520 0.3513
C65A C 0.8210(3) 0.2310(4) 0.3588(3)
H81A H 0.8044 0.1905 0.3690
H82A H 0.8594 0.2330 0.3358
H83A H 0.8275 0.2337 0.3953
C66A C 0.6954(3) 0.1405(3) 0.6698(3)
C67A C 0.6896(3) 0.0822(3) 0.7325(3)
C68A C 0.6722(4) 0.0232(3) 0.7272(3)
H84A H 0.7038 0.0106 0.7036
H85A H 0.6676 -0.0124 0.7668
H86A H 0.6341 0.0341 0.7079
C69A C 0.6387(3) 0.1033(3) 0.7695(3)
H87A H 0.6005 0.1125 0.7506
H88A H 0.6348 0.0687 0.8097
H89A H 0.6489 0.1417 0.7711
C70A C 0.7500(4) 0.0660(4) 0.7634(3)
H90A H 0.7609 0.1040 0.7654
H91A H 0.7453 0.0314 0.8036
H92A H 0.7818 0.0524 0.7407
C71A C 0.8544(3) 0.4064(3) 0.6190(3)
C72A C 0.9142(3) 0.4386(3) 0.6087(3)
C73A C 0.9677(3) 0.4022(4) 0.5887(4)
H93A H 0.9566 0.3965 0.5551
H94A H 1.0028 0.4269 0.5767
H95A H 0.9773 0.3602 0.6216
C74A C 0.9020(3) 0.5080(3) 0.5575(3)
H96A H 0.8677 0.5305 0.5697
H97A H 0.9376 0.5314 0.5492
H98A H 0.8931 0.5053 0.5217
C75A C 0.9276(4) 0.4419(4) 0.6661(3)
H99A H 0.9320 0.3985 0.6984
H100A H 0.9648 0.4625 0.6594
H101A H 0.8942 0.4668 0.6767
C76A C 0.6272(3) 0.4527(3) 0.8134(3)
C77A C 0.6005(3) 0.4336(4) 0.8783(3)
C78A C 0.6365(4) 0.3724(4) 0.9217(3)
H102A H 0.6171 0.3580 0.9617
H103A H 0.6374 0.3387 0.9088
H104A H 0.6777 0.3818 0.9219
C79A C 0.5337(3) 0.4185(4) 0.8800(3)
H105A H 0.5113 0.4563 0.8510
H106A H 0.5337 0.3827 0.8702
H107A H 0.5146 0.4072 0.9197
C80A C 0.6009(4) 0.4894(4) 0.8945(3)
H108A H 0.5753 0.5263 0.8683
H109A H 0.5856 0.4762 0.9357
H110A H 0.6421 0.5013 0.8897
loop_
_geom_bond_atom_site_label_1
_geom_bond_atom_site_label_2
_geom_bond_site_symmetry_1
_geom_bond_site_symmetry_2
Dy1 O1 1_555 1_555
Dy2 O1 1_555 1_555
Dy3 O4 1_555 1_555
Dy4 O7 1_555 1_555
Dy5 O10 1_555 1_555
O1 C1 1_555 1_555
O2 Dy1 1_555 1_555
O3 H1 1_555 1_555
O4 Dy2 1_555 1_555
O5 Dy1 1_555 1_555
O6 Dy1 1_555 1_555
H2 O6 1_555 1_555
O7 Dy3 1_555 1_555
O8 Dy2 1_555 1_555
O9 Dy2 1_555 1_555
H3 O9 1_555 1_555
O10 Dy4 1_555 1_555
O11 Dy3 1_555 1_555
O12 Dy3 1_555 1_555
H4 O12 1_555 1_555
O13 Dy5 1_555 1_555
O14 Dy4 1_555 1_555
O15 Dy4 1_555 1_555
H5 O15 1_555 1_555
O16 Dy1 1_555 1_555
O17 Dy1 1_555 1_555
O18 Dy2 1_555 1_555
O19 Dy2 1_555 1_555
O20 Dy3 1_555 1_555
O21 Dy3 1_555 1_555
O22 Dy4 1_555 1_555
O23 Dy4 1_555 1_555
O24 Dy5 1_555 1_555
O25 Dy5 1_555 1_555
N1 Dy1 1_555 1_555
N2 Dy2 1_555 1_555
N3 Dy3 1_555 1_555
N4 Dy4 1_555 1_555
N5 Dy5 1_555 1_555
C1 H6 1_555 1_555
H7 C1 1_555 1_555
C2 N1 1_555 1_555
H8 C2 1_555 1_555
H9 C2 1_555 1_555
C3 N1 1_555 1_555
H10 C3 1_555 1_555
C4 C3 1_555 1_555
C5 C4 1_555 1_555
H11 C5 1_555 1_555
C6 C5 1_555 1_555
C7 C6 1_555 1_555
H12 C7 1_555 1_555
H13 C7 1_555 1_555
H14 C7 1_555 1_555
C8 C6 1_555 1_555
H15 C8 1_555 1_555
C9 C8 1_555 1_555
C10 O2 1_555 1_555
C11 O3 1_555 1_555
H16 C11 1_555 1_555
H17 C11 1_555 1_555
C12 O4 1_555 1_555
H18 C12 1_555 1_555
H19 C12 1_555 1_555
C13 N2 1_555 1_555
H20 C13 1_555 1_555
H21 C13 1_555 1_555
C14 N2 1_555 1_555
H22 C14 1_555 1_555
C15 C14 1_555 1_555
C16 C15 1_555 1_555
H23 C16 1_555 1_555
C17 C16 1_555 1_555
C18 C17 1_555 1_555
H24 C18 1_555 1_555
H25 C18 1_555 1_555
H26 C18 1_555 1_555
C19 C17 1_555 1_555
H27 C19 1_555 1_555
C20 C19 1_555 1_555
C21 O5 1_555 1_555
C22 O6 1_555 1_555
H28 C22 1_555 1_555
H29 C22 1_555 1_555
C23 O7 1_555 1_555
H30 C23 1_555 1_555
H31 C23 1_555 1_555
C24 N3 1_555 1_555
H32 C24 1_555 1_555
H33 C24 1_555 1_555
C25 N3 1_555 1_555
H34 C25 1_555 1_555
C26 C25 1_555 1_555
C27 C26 1_555 1_555
H35 C27 1_555 1_555
C28 C27 1_555 1_555
C29 C28 1_555 1_555
H36 C29 1_555 1_555
H37 C29 1_555 1_555
H38 C29 1_555 1_555
C30 C28 1_555 1_555
H39 C30 1_555 1_555
C31 C30 1_555 1_555
C32 O8 1_555 1_555
C33 O9 1_555 1_555
H40 C33 1_555 1_555
H41 C33 1_555 1_555
C34 O10 1_555 1_555
H42 C34 1_555 1_555
H43 C34 1_555 1_555
C35 N4 1_555 1_555
H44 C35 1_555 1_555
H45 C35 1_555 1_555
C36 N4 1_555 1_555
H46 C36 1_555 1_555
C37 C36 1_555 1_555
C38 C37 1_555 1_555
H47 C38 1_555 1_555
C39 C38 1_555 1_555
C40 C39 1_555 1_555
H48 C40 1_555 1_555
H49 C40 1_555 1_555
H50 C40 1_555 1_555
C41 C39 1_555 1_555
H51 C41 1_555 1_555
C42 C41 1_555 1_555
C43 O11 1_555 1_555
C44 O12 1_555 1_555
H52 C44 1_555 1_555
H53 C44 1_555 1_555
C45 O13 1_555 1_555
H54 C45 1_555 1_555
H55 C45 1_555 1_555
C46 N5 1_555 1_555
H56 C46 1_555 1_555
H57 C46 1_555 1_555
C47 N5 1_555 1_555
H58 C47 1_555 1_555
C48 C47 1_555 1_555
C49 C48 1_555 1_555
H59 C49 1_555 1_555
C50 C49 1_555 1_555
C51 C50 1_555 1_555
H60 C51 1_555 1_555
H61 C51 1_555 1_555
H62 C51 1_555 1_555
C52 C50 1_555 1_555
H63 C52 1_555 1_555
C53 C52 1_555 1_555
C54 O14 1_555 1_555
C55 O15 1_555 1_555
H64 C55 1_555 1_555
H65 C55 1_555 1_555
C56 O16 1_555 1_555
C57 C56 1_555 1_555
C58 C57 1_555 1_555
H66 C58 1_555 1_555
H67 C58 1_555 1_555
H68 C58 1_555 1_555
C59 C57 1_555 1_555
H69 C59 1_555 1_555
H70 C59 1_555 1_555
H71 C59 1_555 1_555
C60 C57 1_555 1_555
H72 C60 1_555 1_555
H73 C60 1_555 1_555
H74 C60 1_555 1_555
C61 O18 1_555 1_555
C62 C61 1_555 1_555
C63 C62 1_555 1_555
H75 C63 1_555 1_555
H76 C63 1_555 1_555
H77 C63 1_555 1_555
C64 C62 1_555 1_555
H78 C64 1_555 1_555
H79 C64 1_555 1_555
H80 C64 1_555 1_555
C65 C62 1_555 1_555
H81 C65 1_555 1_555
H82 C65 1_555 1_555
H83 C65 1_555 1_555
C66 O20 1_555 1_555
C67 C66 1_555 1_555
C68 C67 1_555 1_555
H84 C68 1_555 1_555
H85 C68 1_555 1_555
H86 C68 1_555 1_555
C69 C67 1_555 1_555
H87 C69 1_555 1_555
H88 C69 1_555 1_555
H89 C69 1_555 1_555
C70 C67 1_555 1_555
H90 C70 1_555 1_555
H91 C70 1_555 1_555
H92 C70 1_555 1_555
C71 O22 1_555 1_555
C72 C71 1_555 1_555
C73 C72 1_555 1_555
H93 C73 1_555 1_555
H94 C73 1_555 1_555
H95 C73 1_555 1_555
C74 C72 1_555 1_555
H96 C74 1_555 1_555
H97 C74 1_555 1_555
H98 C74 1_555 1_555
C75 C72 1_555 1_555
H99 C75 1_555 1_555
H100 C75 1_555 1_555
H101 C75 1_555 1_555
C76 O24 1_555 1_555
C77 C76 1_555 1_555
C78 C77 1_555 1_555
H102 C78 1_555 1_555
H103 C78 1_555 1_555
H104 C78 1_555 1_555
C79 C77 1_555 1_555
H105 C79 1_555 1_555
H106 C79 1_555 1_555
H107 C79 1_555 1_555
C80 C77 1_555 1_555
H108 C80 1_555 1_555
H109 C80 1_555 1_555
H110 C80 1_555 1_555
Dy6 O27 1_555 1_555
Dy7 O26 1_555 1_555
Dy8 O26 1_555 1_555
Dy9 O29 1_555 1_555
Dy10 O32 1_555 1_555
O26 C81 1_555 1_555
O27 Dy7 1_555 1_555
O28 Dy6 1_555 1_555
H111 O28 1_555 1_555
O29 Dy8 1_555 1_555
O30 Dy7 1_555 1_555
O31 Dy7 1_555 1_555
H112 O31 1_555 1_555
O32 Dy9 1_555 1_555
O33 Dy8 1_555 1_555
O34 Dy8 1_555 1_555
H113 O34 1_555 1_555
O35 Dy10 1_555 1_555
O36 Dy9 1_555 1_555
O37 Dy9 1_555 1_555
H114 O37 1_555 1_555
O38 C125 1_555 1_555
O39 Dy10 1_555 1_555
O40 Dy10 1_555 1_555
H115 O40 1_555 1_555
O41 Dy6 1_555 1_555
O42 Dy6 1_555 1_555
O43 Dy7 1_555 1_555
O44 Dy7 1_555 1_555
O45 Dy8 1_555 1_555
O46 Dy8 1_555 1_555
O47 Dy9 1_555 1_555
O48 Dy9 1_555 1_555
O49 Dy10 1_555 1_555
O50 Dy10 1_555 1_555
N6 Dy7 1_555 1_555
N7 Dy8 1_555 1_555
N8 Dy9 1_555 1_555
N9 Dy10 1_555 1_555
N10 C126 1_555 1_555
C81 H116 1_555 1_555
H117 C81 1_555 1_555
C82 N6 1_555 1_555
H118 C82 1_555 1_555
H119 C82 1_555 1_555
C83 N6 1_555 1_555
H120 C83 1_555 1_555
C84 C83 1_555 1_555
C85 C84 1_555 1_555
H121 C85 1_555 1_555
C86 C85 1_555 1_555
C87 C86 1_555 1_555
H122 C87 1_555 1_555
H123 C87 1_555 1_555
H124 C87 1_555 1_555
C88 C86 1_555 1_555
H125 C88 1_555 1_555
C89 C88 1_555 1_555
C90 O27 1_555 1_555
C91 O28 1_555 1_555
H126 C91 1_555 1_555
H127 C91 1_555 1_555
C92 O29 1_555 1_555
H128 C92 1_555 1_555
H129 C92 1_555 1_555
C93 N7 1_555 1_555
H130 C93 1_555 1_555
H131 C93 1_555 1_555
C94 N7 1_555 1_555
H132 C94 1_555 1_555
C95 C94 1_555 1_555
C96 C95 1_555 1_555
H133 C96 1_555 1_555
C97 C96 1_555 1_555
C98 C97 1_555 1_555
H134 C98 1_555 1_555
H135 C98 1_555 1_555
H136 C98 1_555 1_555
C99 C97 1_555 1_555
H137 C99 1_555 1_555
C100 C99 1_555 1_555
C101 O30 1_555 1_555
C102 O31 1_555 1_555
H138 C102 1_555 1_555
H139 C102 1_555 1_555
C103 O32 1_555 1_555
H140 C103 1_555 1_555
H141 C103 1_555 1_555
C104 N8 1_555 1_555
H142 C104 1_555 1_555
H143 C104 1_555 1_555
C105 N8 1_555 1_555
H144 C105 1_555 1_555
C106 C105 1_555 1_555
C107 C106 1_555 1_555
H145 C107 1_555 1_555
C108 C107 1_555 1_555
C109 C108 1_555 1_555
H146 C109 1_555 1_555
H147 C109 1_555 1_555
H148 C109 1_555 1_555
C110 C108 1_555 1_555
H149 C110 1_555 1_555
C111 C110 1_555 1_555
C112 O33 1_555 1_555
C113 O34 1_555 1_555
H150 C113 1_555 1_555
H151 C113 1_555 1_555
C114 O35 1_555 1_555
H152 C114 1_555 1_555
H153 C114 1_555 1_555
C115 N9 1_555 1_555
H154 C115 1_555 1_555
H155 C115 1_555 1_555
C116 N9 1_555 1_555
H156 C116 1_555 1_555
C117 C116 1_555 1_555
C118 C117 1_555 1_555
H157 C118 1_555 1_555
C119 C118 1_555 1_555
C120 C119 1_555 1_555
H158 C120 1_555 1_555
H159 C120 1_555 1_555
H160 C120 1_555 1_555
C121 C119 1_555 1_555
H161 C121 1_555 1_555
C122 C121 1_555 1_555
C123 O36 1_555 1_555
C124 O37 1_555 1_555
H162 C124 1_555 1_555
H163 C124 1_555 1_555
C125 H164 1_555 1_555
H165 C125 1_555 1_555
C126 C125 1_555 1_555
H166 C126 1_555 1_555
H167 C126 1_555 1_555
C127 N10 1_555 1_555
H168 C127 1_555 1_555
C128 C127 1_555 1_555
C129 C128 1_555 1_555
H169 C129 1_555 1_555
C130 C129 1_555 1_555
C131 C130 1_555 1_555
H170 C131 1_555 1_555
H171 C131 1_555 1_555
H172 C131 1_555 1_555
C132 C130 1_555 1_555
H173 C132 1_555 1_555
C133 C132 1_555 1_555
C134 O39 1_555 1_555
C135 O40 1_555 1_555
H174 C135 1_555 1_555
H175 C135 1_555 1_555
C136 O41 1_555 1_555
C137 C136 1_555 1_555
C138 C137 1_555 1_555
H176 C138 1_555 1_555
H177 C138 1_555 1_555
H178 C138 1_555 1_555
C139 C137 1_555 1_555
H179 C139 1_555 1_555
H180 C139 1_555 1_555
H181 C139 1_555 1_555
C140 C137 1_555 1_555
H182 C140 1_555 1_555
H183 C140 1_555 1_555
H184 C140 1_555 1_555
C141 O43 1_555 1_555
C142 C141 1_555 1_555
C143 C142 1_555 1_555
H185 C143 1_555 1_555
H186 C143 1_555 1_555
H187 C143 1_555 1_555
C144 C142 1_555 1_555
H188 C144 1_555 1_555
H189 C144 1_555 1_555
H190 C144 1_555 1_555
C145 C142 1_555 1_555
H191 C145 1_555 1_555
H192 C145 1_555 1_555
H193 C145 1_555 1_555
C146 O45 1_555 1_555
C147 C146 1_555 1_555
C148 C147 1_555 1_555
H194 C148 1_555 1_555
H195 C148 1_555 1_555
H196 C148 1_555 1_555
C149 C147 1_555 1_555
H197 C149 1_555 1_555
H198 C149 1_555 1_555
H199 C149 1_555 1_555
C150 C147 1_555 1_555
H200 C150 1_555 1_555
H201 C150 1_555 1_555
H202 C150 1_555 1_555
C151 O47 1_555 1_555
C152 C151 1_555 1_555
C153 C152 1_555 1_555
H203 C153 1_555 1_555
H204 C153 1_555 1_555
H205 C153 1_555 1_555
C154 C152 1_555 1_555
H206 C154 1_555 1_555
H207 C154 1_555 1_555
H208 C154 1_555 1_555
C155 C152 1_555 1_555
H209 C155 1_555 1_555
H210 C155 1_555 1_555
H211 C155 1_555 1_555
C156 O49 1_555 1_555
C157 C156 1_555 1_555
C158 C157 1_555 1_555
H212 C158 1_555 1_555
H213 C158 1_555 1_555
H214 C158 1_555 1_555
C159 C157 1_555 1_555
H215 C159 1_555 1_555
H216 C159 1_555 1_555
H217 C159 1_555 1_555
C160 C157 1_555 1_555
H218 C160 1_555 1_555
H219 C160 1_555 1_555
H220 C160 1_555 1_555
Cl1 C161 1_555 1_555
Cl2 C161 1_555 1_555
Cl3 C161 1_555 1_555
C161 H221 1_555 1_555
Cl4 C162 1_555 1_555
Cl5 C162 1_555 1_555
Cl6 C162 1_555 1_555
C162 H222 1_555 1_555
Cl7 C163 1_555 1_555
Cl8 C163 1_555 1_555
Cl9 C163 1_555 1_555
C163 H223 1_555 1_555
Cl10 C164 1_555 1_555
Cl11 C164 1_555 1_555
Cl12 C164 1_555 1_555
C164 H224 1_555 1_555
Cl13 C165 1_555 1_555
Cl14 C165 1_555 1_555
Cl15 C165 1_555 1_555
C165 H225 1_555 1_555
Cl16 C166 1_555 1_555
Cl17 C166 1_555 1_555
Cl18 C166 1_555 1_555
C166 H226 1_555 1_555
Cl19 C167 1_555 1_555
Cl20 C167 1_555 1_555
Cl21 C167 1_555 1_555
C167 H227 1_555 1_555
Cl22 C168 1_555 1_555
Cl23 C168 1_555 1_555
Cl24 C168 1_555 1_555
C168 H228 1_555 1_555
Cl25 C169 1_555 1_555
Cl26 C169 1_555 1_555
C169 H229 1_555 1_555
Cl27 C169 1_555 1_555
N11 C170 1_555 1_555
C170 C171 1_555 1_555
C171 H230 1_555 1_555
H231 C171 1_555 1_555
H232 C171 1_555 1_555
N12 C172 1_555 1_555
C172 C173 1_555 1_555
C173 H233 1_555 1_555
H234 C173 1_555 1_555
H235 C173 1_555 1_555
N13 C174 1_555 1_555
C174 C175 1_555 1_555
C175 H236 1_555 1_555
H237 C175 1_555 1_555
H238 C175 1_555 1_555
N14 C176 1_555 1_555
C176 C177 1_555 1_555
C177 H239 1_555 1_555
H240 C177 1_555 1_555
H241 C177 1_555 1_555
Dy1A O13 1_555 1_555
Dy2A O1A 1_555 1_555
Dy3A O4A 1_555 1_555
Dy4A O7A 1_555 1_555
Dy5A O2 1_555 1_555
O1A Dy1A 1_555 1_555
O2A Dy5 1_555 1_555
O3A Dy5 1_555 1_555
H1A O3A 1_555 1_555
O4A Dy2A 1_555 1_555
O5A Dy1A 1_555 1_555
O6A Dy1A 1_555 1_555
H2A O6A 1_555 1_555
O7A Dy3A 1_555 1_555
O8A Dy2A 1_555 1_555
O9A Dy2A 1_555 1_555
H3A O9A 1_555 1_555
O10A Dy4A 1_555 1_555
O11A Dy3A 1_555 1_555
O12A Dy3A 1_555 1_555
H4A O12A 1_555 1_555
O13A Dy1 1_555 1_555
O14A Dy4A 1_555 1_555
O15A Dy4A 1_555 1_555
H5A O15A 1_555 1_555
O16A Dy1A 1_555 1_555
O17A Dy1A 1_555 1_555
O18A Dy2A 1_555 1_555
O19A Dy2A 1_555 1_555
O20A Dy3A 1_555 1_555
O21A Dy3A 1_555 1_555
O22A Dy4A 1_555 1_555
O23A Dy4A 1_555 1_555
O24A Dy5A 1_555 1_555
O25A Dy5A 1_555 1_555
N1A Dy1A 1_555 1_555
N2A Dy2A 1_555 1_555
N3A Dy3A 1_555 1_555
N4A Dy4A 1_555 1_555
N5A Dy5A 1_555 1_555
C1A O1A 1_555 1_555
H6A C1A 1_555 1_555
H7A C1A 1_555 1_555
C2A N1A 1_555 1_555
H8A C2A 1_555 1_555
H9A C2A 1_555 1_555
C3A N1A 1_555 1_555
H10A C3A 1_555 1_555
C4A C3A 1_555 1_555
C5A C4A 1_555 1_555
H11A C5A 1_555 1_555
C6A C5A 1_555 1_555
C7A C6A 1_555 1_555
H12A C7A 1_555 1_555
H13A C7A 1_555 1_555
H14A C7A 1_555 1_555
C8A C6A 1_555 1_555
H15A C8A 1_555 1_555
C9A C8A 1_555 1_555
C10A O2A 1_555 1_555
C11A O3A 1_555 1_555
H16A C11A 1_555 1_555
H17A C11A 1_555 1_555
C12A O4A 1_555 1_555
H18A C12A 1_555 1_555
H19A C12A 1_555 1_555
C13A N2A 1_555 1_555
H20A C13A 1_555 1_555
H21A C13A 1_555 1_555
C14A N2A 1_555 1_555
H22A C14A 1_555 1_555
C15A C14A 1_555 1_555
C16A C15A 1_555 1_555
H23A C16A 1_555 1_555
C17A C16A 1_555 1_555
C18A C17A 1_555 1_555
H24A C18A 1_555 1_555
H25A C18A 1_555 1_555
H26A C18A 1_555 1_555
C19A C17A 1_555 1_555
H27A C19A 1_555 1_555
C20A C19A 1_555 1_555
C21A O5A 1_555 1_555
C22A O6A 1_555 1_555
H28A C22A 1_555 1_555
H29A C22A 1_555 1_555
C23A O7A 1_555 1_555
H30A C23A 1_555 1_555
H31A C23A 1_555 1_555
C24A N3A 1_555 1_555
H32A C24A 1_555 1_555
H33A C24A 1_555 1_555
C25A N3A 1_555 1_555
H34A C25A 1_555 1_555
C26A C25A 1_555 1_555
C27A C26A 1_555 1_555
H35A C27A 1_555 1_555
C28A C27A 1_555 1_555
C29A C28A 1_555 1_555
H36A C29A 1_555 1_555
H37A C29A 1_555 1_555
H38A C29A 1_555 1_555
C30A C28A 1_555 1_555
H39A C30A 1_555 1_555
C31A C30A 1_555 1_555
C32A O8A 1_555 1_555
C33A O9A 1_555 1_555
H40A C33A 1_555 1_555
H41A C33A 1_555 1_555
C34A O10A 1_555 1_555
H42A C34A 1_555 1_555
H43A C34A 1_555 1_555
C35A N4A 1_555 1_555
H44A C35A 1_555 1_555
H45A C35A 1_555 1_555
C36A N4A 1_555 1_555
H46A C36A 1_555 1_555
C37A C36A 1_555 1_555
C38A C37A 1_555 1_555
H47A C38A 1_555 1_555
C39A C38A 1_555 1_555
C40A C39A 1_555 1_555
H48A C40A 1_555 1_555
H49A C40A 1_555 1_555
H50A C40A 1_555 1_555
C41A C39A 1_555 1_555
H51A C41A 1_555 1_555
C42A C41A 1_555 1_555
C43A O11A 1_555 1_555
C44A O12A 1_555 1_555
H52A C44A 1_555 1_555
H53A C44A 1_555 1_555
C45A O13A 1_555 1_555
H54A C45A 1_555 1_555
H55A C45A 1_555 1_555
C46A N5A 1_555 1_555
H56A C46A 1_555 1_555
H57A C46A 1_555 1_555
C47A N5A 1_555 1_555
H58A C47A 1_555 1_555
C48A C47A 1_555 1_555
C49A C48A 1_555 1_555
H59A C49A 1_555 1_555
C50A C49A 1_555 1_555
C51A C50A 1_555 1_555
H60A C51A 1_555 1_555
H61A C51A 1_555 1_555
H62A C51A 1_555 1_555
C52A C50A 1_555 1_555
H63A C52A 1_555 1_555
C53A C52A 1_555 1_555
C54A O14A 1_555 1_555
C55A O15A 1_555 1_555
H64A C55A 1_555 1_555
H65A C55A 1_555 1_555
C56A O16A 1_555 1_555
C57A C56A 1_555 1_555
C58A C57A 1_555 1_555
H66A C58A 1_555 1_555
H67A C58A 1_555 1_555
H68A C58A 1_555 1_555
C59A C57A 1_555 1_555
H69A C59A 1_555 1_555
H70A C59A 1_555 1_555
H71A C59A 1_555 1_555
C60A C57A 1_555 1_555
H72A C60A 1_555 1_555
H73A C60A 1_555 1_555
H74A C60A 1_555 1_555
C61A O18A 1_555 1_555
C62A C61A 1_555 1_555
C63A C62A 1_555 1_555
H75A C63A 1_555 1_555
H76A C63A 1_555 1_555
H77A C63A 1_555 1_555
C64A C62A 1_555 1_555
H78A C64A 1_555 1_555
H79A C64A 1_555 1_555
H80A C64A 1_555 1_555
C65A C62A 1_555 1_555
H81A C65A 1_555 1_555
H82A C65A 1_555 1_555
H83A C65A 1_555 1_555
C66A O20A 1_555 1_555
C67A C66A 1_555 1_555
C68A C67A 1_555 1_555
H84A C68A 1_555 1_555
H85A C68A 1_555 1_555
H86A C68A 1_555 1_555
C69A C67A 1_555 1_555
H87A C69A 1_555 1_555
H88A C69A 1_555 1_555
H89A C69A 1_555 1_555
C70A C67A 1_555 1_555
H90A C70A 1_555 1_555
H91A C70A 1_555 1_555
H92A C70A 1_555 1_555
C71A O22A 1_555 1_555
C72A C71A 1_555 1_555
C73A C72A 1_555 1_555
H93A C73A 1_555 1_555
H94A C73A 1_555 1_555
H95A C73A 1_555 1_555
C74A C72A 1_555 1_555
H96A C74A 1_555 1_555
H97A C74A 1_555 1_555
H98A C74A 1_555 1_555
C75A C72A 1_555 1_555
H99A C75A 1_555 1_555
H100A C75A 1_555 1_555
H101A C75A 1_555 1_555
C76A O24A 1_555 1_555
C77A C76A 1_555 1_555
C78A C77A 1_555 1_555
H102A C78A 1_555 1_555
H103A C78A 1_555 1_555
H104A C78A 1_555 1_555
C79A C77A 1_555 1_555
H105A C79A 1_555 1_555
H106A C79A 1_555 1_555
H107A C79A 1_555 1_555
C80A C77A 1_555 1_555
H108A C80A 1_555 1_555
H109A C80A 1_555 1_555
H110A C80A 1_555 1_555
Dy6A O35 1_555 1_555
Dy7A O38 1_555 1_555
Dy8A O26A 1_555 1_555
Dy9A O29A 1_555 1_555
Dy10A O32A 1_555 1_555
O26A Dy7A 1_555 1_555
O27A Dy6A 1_555 1_555
O28A Dy6A 1_555 1_555
H111A O28A 1_555 1_555
O29A Dy8A 1_555 1_555
O30A Dy7A 1_555 1_555
O31A Dy7A 1_555 1_555
H112A O31A 1_555 1_555
O32A Dy9A 1_555 1_555
O33A Dy8A 1_555 1_555
O34A Dy8A 1_555 1_555
H113A O34A 1_555 1_555
O35A Dy6 1_555 1_555
O36A Dy9A 1_555 1_555
O37A Dy9A 1_555 1_555
H114A O37A 1_555 1_555
O38A Dy6 1_555 1_555
O39A Dy6 1_555 1_555
O40A Dy10A 1_555 1_555
H115A O40A 1_555 1_555
O41A Dy6A 1_555 1_555
O42A Dy6A 1_555 1_555
O43A Dy7A 1_555 1_555
O44A Dy7A 1_555 1_555
O45A Dy8A 1_555 1_555
O46A Dy8A 1_555 1_555
O47A Dy9A 1_555 1_555
O48A Dy9A 1_555 1_555
O49A Dy10A 1_555 1_555
O50A Dy10A 1_555 1_555
N6A Dy7A 1_555 1_555
N7A Dy8A 1_555 1_555
N8A Dy9A 1_555 1_555
N9A Dy10A 1_555 1_555
N10A Dy6 1_555 1_555
C81A O26A 1_555 1_555
H116A C81A 1_555 1_555
H117A C81A 1_555 1_555
C82A N6A 1_555 1_555
H118A C82A 1_555 1_555
H119A C82A 1_555 1_555
C83A N6A 1_555 1_555
H120A C83A 1_555 1_555
C84A C83A 1_555 1_555
C85A C84A 1_555 1_555
H121A C85A 1_555 1_555
C86A C85A 1_555 1_555
C87A C86A 1_555 1_555
H122A C87A 1_555 1_555
H123A C87A 1_555 1_555
H124A C87A 1_555 1_555
C88A C86A 1_555 1_555
H125A C88A 1_555 1_555
C89A C88A 1_555 1_555
C90A O27A 1_555 1_555
C91A O28A 1_555 1_555
H126A C91A 1_555 1_555
H127A C91A 1_555 1_555
C92A O29A 1_555 1_555
H128A C92A 1_555 1_555
H129A C92A 1_555 1_555
C93A N7A 1_555 1_555
H130A C93A 1_555 1_555
H131A C93A 1_555 1_555
C94A N7A 1_555 1_555
H132A C94A 1_555 1_555
C95A C94A 1_555 1_555
C96A C95A 1_555 1_555
H133A C96A 1_555 1_555
C97A C96A 1_555 1_555
C98A C97A 1_555 1_555
H134A C98A 1_555 1_555
H135A C98A 1_555 1_555
H136A C98A 1_555 1_555
C99A C97A 1_555 1_555
H137A C99A 1_555 1_555
C100A C99A 1_555 1_555
C101A O30A 1_555 1_555
C102A O31A 1_555 1_555
H138A C102A 1_555 1_555
H139A C102A 1_555 1_555
C103A O32A 1_555 1_555
H140A C103A 1_555 1_555
H141A C103A 1_555 1_555
C104A N8A 1_555 1_555
H142A C104A 1_555 1_555
H143A C104A 1_555 1_555
C105A N8A 1_555 1_555
H144A C105A 1_555 1_555
C106A C105A 1_555 1_555
C107A C106A 1_555 1_555
H145A C107A 1_555 1_555
C108A C107A 1_555 1_555
C109A C108A 1_555 1_555
H146A C109A 1_555 1_555
H147A C109A 1_555 1_555
H148A C109A 1_555 1_555
C110A C108A 1_555 1_555
H149A C110A 1_555 1_555
C111A C110A 1_555 1_555
C112A O33A 1_555 1_555
C113A O34A 1_555 1_555
H150A C113A 1_555 1_555
H151A C113A 1_555 1_555
C114A O35A 1_555 1_555
H152A C114A 1_555 1_555
H153A C114A 1_555 1_555
C115A N9A 1_555 1_555
H154A C115A 1_555 1_555
H155A C115A 1_555 1_555
C116A N9A 1_555 1_555
H156A C116A 1_555 1_555
C117A C116A 1_555 1_555
C118A C117A 1_555 1_555
H157A C118A 1_555 1_555
C119A C118A 1_555 1_555
C120A C119A 1_555 1_555
H158A C120A 1_555 1_555
H159A C120A 1_555 1_555
H160A C120A 1_555 1_555
C121A C119A 1_555 1_555
H161A C121A 1_555 1_555
C122A C121A 1_555 1_555
C123A O36A 1_555 1_555
C124A O37A 1_555 1_555
H162A C124A 1_555 1_555
H163A C124A 1_555 1_555
C125A O38A 1_555 1_555
H164A C125A 1_555 1_555
H165A C125A 1_555 1_555
C126A N10A 1_555 1_555
H166A C126A 1_555 1_555
H167A C126A 1_555 1_555
C127A N10A 1_555 1_555
H168A C127A 1_555 1_555
C128A C127A 1_555 1_555
C129A C128A 1_555 1_555
H169A C129A 1_555 1_555
C130A C129A 1_555 1_555
C131A C130A 1_555 1_555
H170A C131A 1_555 1_555
H171A C131A 1_555 1_555
H172A C131A 1_555 1_555
C132A C130A 1_555 1_555
H173A C132A 1_555 1_555
C133A C132A 1_555 1_555
C134A O39A 1_555 1_555
C135A O40A 1_555 1_555
H174A C135A 1_555 1_555
H175A C135A 1_555 1_555
C136A O41A 1_555 1_555
C137A C136A 1_555 1_555
C138A C137A 1_555 1_555
H176A C138A 1_555 1_555
H177A C138A 1_555 1_555
H178A C138A 1_555 1_555
C139A C137A 1_555 1_555
H179A C139A 1_555 1_555
H180A C139A 1_555 1_555
H181A C139A 1_555 1_555
C140A C137A 1_555 1_555
H182A C140A 1_555 1_555
H183A C140A 1_555 1_555
H184A C140A 1_555 1_555
C141A O43A 1_555 1_555
C142A C141A 1_555 1_555
C143A C142A 1_555 1_555
H185A C143A 1_555 1_555
H186A C143A 1_555 1_555
H187A C143A 1_555 1_555
C144A C142A 1_555 1_555
H188A C144A 1_555 1_555
H189A C144A 1_555 1_555
H190A C144A 1_555 1_555
C145A C142A 1_555 1_555
H191A C145A 1_555 1_555
H192A C145A 1_555 1_555
H193A C145A 1_555 1_555
C146A O45A 1_555 1_555
C147A C146A 1_555 1_555
C148A C147A 1_555 1_555
H194A C148A 1_555 1_555
H195A C148A 1_555 1_555
H196A C148A 1_555 1_555
C149A C147A 1_555 1_555
H197A C149A 1_555 1_555
H198A C149A 1_555 1_555
H199A C149A 1_555 1_555
C150A C147A 1_555 1_555
H200A C150A 1_555 1_555
H201A C150A 1_555 1_555
H202A C150A 1_555 1_555
C151A O47A 1_555 1_555
C152A C151A 1_555 1_555
C153A C152A 1_555 1_555
H203A C153A 1_555 1_555
H204A C153A 1_555 1_555
H205A C153A 1_555 1_555
C154A C152A 1_555 1_555
H206A C154A 1_555 1_555
H207A C154A 1_555 1_555
H208A C154A 1_555 1_555
C155A C152A 1_555 1_555
H209A C155A 1_555 1_555
H210A C155A 1_555 1_555
H211A C155A 1_555 1_555
C156A O49A 1_555 1_555
C157A C156A 1_555 1_555
C158A C157A 1_555 1_555
H212A C158A 1_555 1_555
H213A C158A 1_555 1_555
H214A C158A 1_555 1_555
C159A C157A 1_555 1_555
H215A C159A 1_555 1_555
H216A C159A 1_555 1_555
H217A C159A 1_555 1_555
C160A C157A 1_555 1_555
H218A C160A 1_555 1_555
H219A C160A 1_555 1_555
H220A C160A 1_555 1_555
Dy2 O5 1_555 1_555
Dy3 O8 1_555 1_555
Dy4 O11 1_555 1_555
Dy5 O14 1_555 1_555
O3 Dy5A 1_555 1_555
O17 C56 1_555 1_555
O19 C61 1_555 1_555
O21 C66 1_555 1_555
O23 C71 1_555 1_555
O25 C76 1_555 1_555
C1 C2 1_555 1_555
C4 C10 1_555 1_555
C9 C10 1_555 1_555
C9 C11 1_555 1_555
C12 C13 1_555 1_555
C15 C21 1_555 1_555
C20 C21 1_555 1_555
C20 C22 1_555 1_555
C23 C24 1_555 1_555
C26 C32 1_555 1_555
C31 C32 1_555 1_555
C31 C33 1_555 1_555
C34 C35 1_555 1_555
C37 C43 1_555 1_555
C42 C43 1_555 1_555
C42 C44 1_555 1_555
C45 C46 1_555 1_555
C48 C54 1_555 1_555
C53 C54 1_555 1_555
C53 C55 1_555 1_555
Dy7 O38A 1_555 1_555
Dy8 O30 1_555 1_555
Dy9 O33 1_555 1_555
Dy10 O36 1_555 1_555
O38 Dy6A 1_555 1_555
O39 Dy6A 1_555 1_555
O42 C136 1_555 1_555
O44 C141 1_555 1_555
O46 C146 1_555 1_555
O48 C151 1_555 1_555
O50 C156 1_555 1_555
N10 Dy6A 1_555 1_555
C81 C82 1_555 1_555
C84 C90 1_555 1_555
C89 C90 1_555 1_555
C89 C91 1_555 1_555
C92 C93 1_555 1_555
C95 C101 1_555 1_555
C100 C101 1_555 1_555
C100 C102 1_555 1_555
C103 C104 1_555 1_555
C106 C112 1_555 1_555
C111 C112 1_555 1_555
C111 C113 1_555 1_555
C114 C115 1_555 1_555
C117 C123 1_555 1_555
C122 C123 1_555 1_555
C122 C124 1_555 1_555
C128 C134 1_555 1_555
C133 C134 1_555 1_555
C133 C135 1_555 1_555
Dy1A O2A 1_555 1_555
Dy2A O5A 1_555 1_555
Dy3A O8A 1_555 1_555
Dy4A O11A 1_555 1_555
Dy5A O10A 1_555 1_555
Dy5A O13A 1_555 1_555
Dy5A O14A 1_555 1_555
O17A C56A 1_555 1_555
O19A C61A 1_555 1_555
O21A C66A 1_555 1_555
O23A C71A 1_555 1_555
O25A C76A 1_555 1_555
C1A C2A 1_555 1_555
C4A C10A 1_555 1_555
C9A C10A 1_555 1_555
C9A C11A 1_555 1_555
C12A C13A 1_555 1_555
C15A C21A 1_555 1_555
C20A C21A 1_555 1_555
C20A C22A 1_555 1_555
C23A C24A 1_555 1_555
C26A C32A 1_555 1_555
C31A C32A 1_555 1_555
C31A C33A 1_555 1_555
C34A C35A 1_555 1_555
C37A C43A 1_555 1_555
C42A C43A 1_555 1_555
C42A C44A 1_555 1_555
C45A C46A 1_555 1_555
C48A C54A 1_555 1_555
C53A C54A 1_555 1_555
C53A C55A 1_555 1_555
Dy7A O27A 1_555 1_555
Dy8A O30A 1_555 1_555
Dy9A O33A 1_555 1_555
Dy10A O35A 1_555 1_555
Dy10A O36A 1_555 1_555
Dy10A O39A 1_555 1_555
O42A C136A 1_555 1_555
O44A C141A 1_555 1_555
O46A C146A 1_555 1_555
O48A C151A 1_555 1_555
O50A C156A 1_555 1_555
C81A C82A 1_555 1_555
C84A C90A 1_555 1_555
C89A C90A 1_555 1_555
C89A C91A 1_555 1_555
C92A C93A 1_555 1_555
C95A C101A 1_555 1_555
C100A C101A 1_555 1_555
C100A C102A 1_555 1_555
C103A C104A 1_555 1_555
C106A C112A 1_555 1_555
C111A C112A 1_555 1_555
C111A C113A 1_555 1_555
C114A C115A 1_555 1_555
C117A C123A 1_555 1_555
C122A C123A 1_555 1_555
C122A C124A 1_555 1_555
C125A C126A 1_555 1_555
C128A C134A 1_555 1_555
C133A C134A 1_555 1_555
C133A C135A 1_555 1_555

#END
