# generated using pymatgen
data_Gd10H243C174N13Cl24O55
_symmetry_space_group_name_H-M   'P 1'
_cell_length_a   22.12500000
_cell_length_b   23.11200000
_cell_length_c   24.90100000
_cell_angle_alpha   63.22200000
_cell_angle_beta   83.36800000
_cell_angle_gamma   82.50700000
_symmetry_Int_Tables_number   1
_chemical_formula_structural   Gd10H243C174N13Cl24O55
_chemical_formula_sum   'Gd20 H486 C348 N26 Cl48 O110'
_cell_volume   11247.42693982
_cell_formula_units_Z   2
loop_
 _symmetry_equiv_pos_site_id
 _symmetry_equiv_pos_as_xyz
  1  'x, y, z'
loop_
 _atom_site_type_symbol
 _atom_site_label
 _atom_site_symmetry_multiplicity
 _atom_site_fract_x
 _atom_site_fract_y
 _atom_site_fract_z
 _atom_site_occupancy
  Gd  Gd1  1  0.266140  0.874430  0.614810  1.0
  Gd  Gd2  1  0.733860  0.125570  0.385190  1.0
  Gd  Gd3  1  0.370530  0.760970  0.560770  1.0
  Gd  Gd4  1  0.629470  0.239030  0.439230  1.0
  Gd  Gd5  1  0.469010  0.805560  0.412980  1.0
  Gd  Gd6  1  0.530990  0.194440  0.587020  1.0
  Gd  Gd7  1  0.634120  0.856220  0.371880  1.0
  Gd  Gd8  1  0.365880  0.143780  0.628120  1.0
  Gd  Gd9  1  0.693320  0.025960  0.307010  1.0
  Gd  Gd10  1  0.306680  0.974040  0.692990  1.0
  Gd  Gd11  1  0.103000  0.301510  0.916200  1.0
  Gd  Gd12  1  0.897000  0.698490  0.083800  1.0
  Gd  Gd13  1  0.935900  0.355120  0.872740  1.0
  Gd  Gd14  1  0.064100  0.644880  0.127260  1.0
  Gd  Gd15  1  0.849910  0.525770  0.807610  1.0
  Gd  Gd16  1  0.150090  0.474230  0.192390  1.0
  Gd  Gd17  1  0.763880  0.627900  0.884090  1.0
  Gd  Gd18  1  0.236120  0.372100  0.115910  1.0
  Gd  Gd19  1  0.825400  0.741780  0.935880  1.0
  Gd  Gd20  1  0.174600  0.258220  0.064120  1.0
  H  H21  1  0.138300  0.225500  0.794800  1
  H  H22  1  0.861700  0.774500  0.205200  1
  H  H23  1  0.357000  0.610400  0.547300  1
  H  H24  1  0.643000  0.389600  0.452700  1
  H  H25  1  0.503700  0.273700  0.690600  1
  H  H26  1  0.496300  0.726300  0.309400  1
  H  H27  1  0.581700  0.163700  0.860700  1
  H  H28  1  0.418300  0.836300  0.139300  1
  H  H29  1  0.827200  0.327400  0.782700  1
  H  H30  1  0.172800  0.672600  0.217300  1
  H  H31  1  0.624300  0.744900  0.866500  1
  H  H32  1  0.375700  0.255100  0.133500  1
  H  H33  1  0.772400  0.904100  0.937800  1
  H  H34  1  0.227600  0.095900  0.062200  1
  H  H35  1  0.151800  0.758000  0.629300  1
  H  H36  1  0.848200  0.242000  0.370700  1
  H  H37  1  0.010900  0.372400  0.547500  1
  H  H38  1  0.989100  0.627600  0.452500  1
  H  H39  1  0.951700  0.398000  0.554300  1
  H  H40  1  0.048300  0.602000  0.445700  1
  H  H41  1  0.003500  0.701300  0.403000  1
  H  H42  1  0.996500  0.298700  0.597000  1
  H  H43  1  0.948500  0.720200  0.375400  1
  H  H44  1  0.051500  0.279800  0.624600  1
  H  H45  1  0.118800  0.662300  0.455800  1
  H  H46  1  0.881200  0.337700  0.544200  1
  H  H47  1  0.056400  0.664300  0.452200  1
  H  H48  1  0.943600  0.335700  0.547800  1
  H  H49  1  0.037900  0.623800  0.845900  1
  H  H50  1  0.962100  0.376200  0.154100  1
  H  H51  1  0.051700  0.657500  0.885000  1
  H  H52  1  0.948300  0.342500  0.115000  1
  H  H53  1  0.043000  0.582900  0.915600  1
  H  H54  1  0.957000  0.417100  0.084400  1
  H  H55  1  0.529100  0.881000  0.654000  1
  H  H56  1  0.470900  0.119000  0.346000  1
  H  H57  1  0.558800  0.837200  0.623100  1
  H  H58  1  0.441200  0.162800  0.376900  1
  H  H59  1  0.542000  0.911700  0.583900  1
  H  H60  1  0.458000  0.088300  0.416100  1
  H  H61  1  0.743600  0.666400  0.646300  1
  H  H62  1  0.256400  0.333600  0.353700  1
  H  H63  1  0.697200  0.630700  0.631500  1
  H  H64  1  0.302800  0.369300  0.368500  1
  H  H65  1  0.715800  0.604600  0.697800  1
  H  H66  1  0.284200  0.395400  0.302200  1
  H  H67  1  0.316100  0.733000  0.472800  1.0
  H  H68  1  0.683900  0.267000  0.527200  1.0
  H  H69  1  0.550000  0.699600  0.390000  1.0
  H  H70  1  0.450000  0.300400  0.610000  1.0
  H  H71  1  0.670000  0.910000  0.243200  1.0
  H  H72  1  0.330000  0.090000  0.756800  1.0
  H  H73  1  0.826000  0.027000  0.308000  1.0
  H  H74  1  0.174000  0.973000  0.692000  1.0
  H  H75  1  0.259000  0.731600  0.689500  1.0
  H  H76  1  0.741000  0.268400  0.310500  1.0
  H  H77  1  0.353300  0.001400  0.525800  1.0
  H  H78  1  0.646700  0.998600  0.474200  1.0
  H  H79  1  0.326600  0.055400  0.546300  1.0
  H  H80  1  0.673400  0.944600  0.453700  1.0
  H  H81  1  0.226200  0.047300  0.526600  1.0
  H  H82  1  0.773800  0.952700  0.473400  1.0
  H  H83  1  0.268100  0.058800  0.467700  1.0
  H  H84  1  0.731900  0.941200  0.532300  1.0
  H  H85  1  0.219100  0.004300  0.435900  1.0
  H  H86  1  0.780900  0.995700  0.564100  1.0
  H  H87  1  0.150100  0.960800  0.402400  1.0
  H  H88  1  0.849900  0.039200  0.597600  1.0
  H  H89  1  0.107400  0.854000  0.353500  1.0
  H  H90  1  0.892600  0.146000  0.646500  1.0
  H  H91  1  0.096200  0.926400  0.343700  1.0
  H  H92  1  0.903800  0.073600  0.656300  1.0
  H  H93  1  0.058500  0.872900  0.395000  1.0
  H  H94  1  0.941500  0.127100  0.605000  1.0
  H  H95  1  0.158400  0.772900  0.447100  1.0
  H  H96  1  0.841600  0.227100  0.552900  1.0
  H  H97  1  0.236200  0.710900  0.567300  1.0
  H  H98  1  0.763800  0.289100  0.432700  1.0
  H  H99  1  0.226600  0.696300  0.513200  1.0
  H  H100  1  0.773400  0.303700  0.486800  1.0
  H  H101  1  0.405700  0.859500  0.653100  1.0
  H  H102  1  0.594300  0.140500  0.346900  1.0
  H  H103  1  0.445500  0.859500  0.596500  1.0
  H  H104  1  0.554500  0.140500  0.403500  1.0
  H  H105  1  0.481100  0.770100  0.681700  1.0
  H  H106  1  0.518900  0.229900  0.318300  1.0
  H  H107  1  0.415100  0.746200  0.701000  1.0
  H  H108  1  0.584900  0.253800  0.299000  1.0
  H  H109  1  0.519700  0.680300  0.672100  1.0
  H  H110  1  0.480300  0.319700  0.327900  1.0
  H  H111  1  0.573200  0.589800  0.668400  1.0
  H  H112  1  0.426800  0.410200  0.331600  1.0
  H  H113  1  0.666900  0.515400  0.626300  1.0
  H  H114  1  0.333100  0.484600  0.373700  1.0
  H  H115  1  0.624700  0.469100  0.620700  1.0
  H  H116  1  0.375300  0.530900  0.379300  1.0
  H  H117  1  0.617900  0.481200  0.678400  1.0
  H  H118  1  0.382100  0.518800  0.321600  1.0
  H  H119  1  0.576500  0.547200  0.531100  1.0
  H  H120  1  0.423500  0.452800  0.468900  1.0
  H  H121  1  0.517500  0.611600  0.445900  1.0
  H  H122  1  0.482500  0.388400  0.554100  1.0
  H  H123  1  0.456900  0.648400  0.458500  1.0
  H  H124  1  0.543100  0.351600  0.541500  1.0
  H  H125  1  0.426900  0.933200  0.448500  1.0
  H  H126  1  0.573100  0.066800  0.551500  1.0
  H  H127  1  0.360100  0.919800  0.477500  1.0
  H  H128  1  0.639900  0.080200  0.522500  1.0
  H  H129  1  0.331000  0.915500  0.391500  1.0
  H  H130  1  0.669000  0.084500  0.608500  1.0
  H  H131  1  0.360200  0.981600  0.369900  1.0
  H  H132  1  0.639800  0.018400  0.630100  1.0
  H  H133  1  0.398300  0.989100  0.280000  1.0
  H  H134  1  0.601700  0.010900  0.720000  1.0
  H  H135  1  0.422600  0.003900  0.182300  1.0
  H  H136  1  0.577400  0.996100  0.817700  1.0
  H  H137  1  0.446400  0.036000  0.078000  1.0
  H  H138  1  0.553600  0.964000  0.922000  1.0
  H  H139  1  0.477200  0.978800  0.064100  1.0
  H  H140  1  0.522800  0.021200  0.935900  1.0
  H  H141  1  0.516600  0.032300  0.060200  1.0
  H  H142  1  0.483400  0.967700  0.939800  1.0
  H  H143  1  0.576000  0.918900  0.136200  1.0
  H  H144  1  0.424000  0.081100  0.863800  1.0
  H  H145  1  0.612400  0.804900  0.270900  1.0
  H  H146  1  0.387600  0.195100  0.729100  1.0
  H  H147  1  0.643200  0.846900  0.207200  1.0
  H  H148  1  0.356800  0.153100  0.792800  1.0
  H  H149  1  0.524000  0.814800  0.525600  1.0
  H  H150  1  0.476000  0.185200  0.474400  1.0
  H  H151  1  0.560800  0.876600  0.491900  1.0
  H  H152  1  0.439200  0.123400  0.508100  1.0
  H  H153  1  0.610900  0.747500  0.532000  1.0
  H  H154  1  0.389100  0.252500  0.468000  1.0
  H  H155  1  0.622600  0.795000  0.558400  1.0
  H  H156  1  0.377400  0.205000  0.441600  1.0
  H  H157  1  0.723200  0.794200  0.535400  1.0
  H  H158  1  0.276800  0.205800  0.464600  1.0
  H  H159  1  0.829500  0.780800  0.523200  1.0
  H  H160  1  0.170500  0.219200  0.476800  1.0
  H  H161  1  0.964000  0.831000  0.485300  1.0
  H  H162  1  0.036000  0.169000  0.514700  1.0
  H  H163  1  0.972900  0.780400  0.458600  1.0
  H  H164  1  0.027100  0.219600  0.541400  1.0
  H  H165  1  0.937700  0.763100  0.521500  1.0
  H  H166  1  0.062300  0.236900  0.478500  1.0
  H  H167  1  0.924600  0.877900  0.368000  1.0
  H  H168  1  0.075400  0.122100  0.632000  1.0
  H  H169  1  0.874200  0.953800  0.282000  1.0
  H  H170  1  0.125800  0.046200  0.718000  1.0
  H  H171  1  0.810800  0.935900  0.274300  1.0
  H  H172  1  0.189200  0.064100  0.725700  1.0
  H  H173  1  0.454500  0.983700  0.629800  1.0
  H  H174  1  0.545500  0.016300  0.370200  1.0
  H  H175  1  0.478500  0.032700  0.648500  1.0
  H  H176  1  0.521500  0.967300  0.351500  1.0
  H  H177  1  0.493400  0.923800  0.723100  1.0
  H  H178  1  0.506600  0.076200  0.276900  1.0
  H  H179  1  0.452900  0.968000  0.749100  1.0
  H  H180  1  0.547100  0.032000  0.250900  1.0
  H  H181  1  0.449200  0.833000  0.787100  1.0
  H  H182  1  0.550800  0.167000  0.212900  1.0
  H  H183  1  0.417900  0.734700  0.857500  1.0
  H  H184  1  0.582100  0.265300  0.142500  1.0
  H  H185  1  0.328500  0.613900  0.942300  1.0
  H  H186  1  0.671500  0.386100  0.057700  1.0
  H  H187  1  0.396300  0.631700  0.931500  1.0
  H  H188  1  0.603700  0.368300  0.068500  1.0
  H  H189  1  0.374500  0.594000  0.899400  1.0
  H  H190  1  0.625500  0.406000  0.100600  1.0
  H  H191  1  0.268900  0.664700  0.843600  1.0
  H  H192  1  0.731100  0.335300  0.156400  1.0
  H  H193  1  0.200100  0.723500  0.769100  1.0
  H  H194  1  0.799900  0.276500  0.230900  1.0
  H  H195  1  0.195500  0.799500  0.743600  1.0
  H  H196  1  0.804500  0.200500  0.256400  1.0
  H  H197  1  0.051600  0.906400  0.704200  1.0
  H  H198  1  0.948400  0.093600  0.295800  1.0
  H  H199  1  0.000300  0.958000  0.667400  1.0
  H  H200  1  0.999700  0.042000  0.332600  1.0
  H  H201  1  0.061700  0.980700  0.673800  1.0
  H  H202  1  0.938300  0.019300  0.326200  1.0
  H  H203  1  0.100800  0.034600  0.573700  1.0
  H  H204  1  0.899200  0.965400  0.426300  1.0
  H  H205  1  0.036000  0.034300  0.554200  1.0
  H  H206  1  0.964000  0.965700  0.445800  1.0
  H  H207  1  0.094500  0.009900  0.525600  1.0
  H  H208  1  0.905500  0.990100  0.474400  1.0
  H  H209  1  0.056500  0.887300  0.569300  1.0
  H  H210  1  0.943500  0.112700  0.430700  1.0
  H  H211  1  0.000000  0.936300  0.568300  1.0
  H  H212  1  0.000000  0.063700  0.431700  1.0
  H  H213  1  0.013100  0.872400  0.627400  1.0
  H  H214  1  0.986900  0.127600  0.372600  1.0
  H  H215  1  0.272100  0.599200  0.760500  1.0
  H  H216  1  0.727900  0.400800  0.239500  1.0
  H  H217  1  0.296200  0.525700  0.794200  1.0
  H  H218  1  0.703800  0.474300  0.205800  1.0
  H  H219  1  0.269700  0.552500  0.730800  1.0
  H  H220  1  0.730300  0.447500  0.269200  1.0
  H  H221  1  0.371500  0.632500  0.769200  1.0
  H  H222  1  0.628500  0.367500  0.230800  1.0
  H  H223  1  0.432200  0.603900  0.747500  1.0
  H  H224  1  0.567800  0.396100  0.252500  1.0
  H  H225  1  0.393700  0.558600  0.804600  1.0
  H  H226  1  0.606300  0.441400  0.195400  1.0
  H  H227  1  0.392500  0.482200  0.756100  1.0
  H  H228  1  0.607500  0.517800  0.243900  1.0
  H  H229  1  0.430500  0.529600  0.699700  1.0
  H  H230  1  0.569500  0.470400  0.300300  1.0
  H  H231  1  0.368200  0.509800  0.691600  1.0
  H  H232  1  0.631800  0.490200  0.308400  1.0
  H  H233  1  0.245100  0.755700  0.321500  1.0
  H  H234  1  0.754900  0.244300  0.678500  1.0
  H  H235  1  0.270600  0.737400  0.383900  1.0
  H  H236  1  0.729400  0.262600  0.616100  1.0
  H  H237  1  0.304000  0.707500  0.341900  1.0
  H  H238  1  0.696000  0.292500  0.658100  1.0
  H  H239  1  0.306700  0.900600  0.295700  1.0
  H  H240  1  0.693300  0.099400  0.704300  1.0
  H  H241  1  0.270200  0.855100  0.354400  1.0
  H  H242  1  0.729800  0.144900  0.645600  1.0
  H  H243  1  0.247500  0.873000  0.290900  1.0
  H  H244  1  0.752500  0.127000  0.709100  1.0
  H  H245  1  0.365700  0.853100  0.230100  1.0
  H  H246  1  0.634300  0.146900  0.769900  1.0
  H  H247  1  0.306200  0.825900  0.225700  1.0
  H  H248  1  0.693800  0.174100  0.774300  1.0
  H  H249  1  0.365400  0.778900  0.248000  1.0
  H  H250  1  0.634600  0.221100  0.752000  1.0
  H  H251  1  0.797800  0.665600  0.378700  1.0
  H  H252  1  0.202200  0.334400  0.621300  1.0
  H  H253  1  0.807700  0.613600  0.445200  1.0
  H  H254  1  0.192300  0.386400  0.554800  1.0
  H  H255  1  0.807400  0.687700  0.427900  1.0
  H  H256  1  0.192600  0.312300  0.572100  1.0
  H  H257  1  0.726900  0.673100  0.512300  1.0
  H  H258  1  0.273100  0.326900  0.487700  1.0
  H  H259  1  0.725600  0.599600  0.527600  1.0
  H  H260  1  0.274400  0.400400  0.472400  1.0
  H  H261  1  0.665200  0.646100  0.513300  1.0
  H  H262  1  0.334800  0.353900  0.486700  1.0
  H  H263  1  0.649600  0.614000  0.432300  1.0
  H  H264  1  0.350400  0.386000  0.567700  1.0
  H  H265  1  0.710300  0.568200  0.448400  1.0
  H  H266  1  0.289700  0.431800  0.551600  1.0
  H  H267  1  0.701200  0.620200  0.381700  1.0
  H  H268  1  0.298800  0.379800  0.618300  1.0
  H  H269  1  0.602500  0.096600  0.075000  1.0
  H  H270  1  0.397500  0.903400  0.925000  1.0
  H  H271  1  0.600000  0.118000  0.126800  1.0
  H  H272  1  0.400000  0.882000  0.873200  1.0
  H  H273  1  0.593800  0.045200  0.142500  1.0
  H  H274  1  0.406200  0.954800  0.857500  1.0
  H  H275  1  0.690900  0.023800  0.063300  1.0
  H  H276  1  0.309100  0.976200  0.936700  1.0
  H  H277  1  0.683500  0.974800  0.131700  1.0
  H  H278  1  0.316500  0.025200  0.868300  1.0
  H  H279  1  0.746300  0.003500  0.104000  1.0
  H  H280  1  0.253700  0.996500  0.896000  1.0
  H  H281  1  0.756500  0.120900  0.074100  1.0
  H  H282  1  0.243500  0.879100  0.925900  1.0
  H  H283  1  0.702500  0.163000  0.089700  1.0
  H  H284  1  0.297500  0.837000  0.910300  1.0
  H  H285  1  0.698700  0.145800  0.036200  1.0
  H  H286  1  0.301300  0.854200  0.963800  1.0
  H  H287  1  0.909000  0.397000  0.742400  1.0
  H  H288  1  0.091000  0.603000  0.257600  1.0
  H  H289  1  0.712000  0.537000  0.797000  1.0
  H  H290  1  0.288000  0.463000  0.203000  1.0
  H  H291  1  0.744000  0.767000  0.808800  1.0
  H  H292  1  0.256000  0.233000  0.191200  1.0
  H  H293  1  0.745000  0.766000  0.020200  1.0
  H  H294  1  0.255000  0.234000  0.979800  1.0
  H  H295  1  0.038600  0.200000  0.913000  1.0
  H  H296  1  0.961400  0.800000  0.087000  1.0
  H  H297  1  0.166200  0.416100  0.979300  1.0
  H  H298  1  0.833800  0.583900  0.020700  1.0
  H  H299  1  0.103900  0.430900  0.948900  1.0
  H  H300  1  0.896100  0.569100  0.051100  1.0
  H  H301  1  0.180500  0.475600  0.871400  1.0
  H  H302  1  0.819500  0.524400  0.128600  1.0
  H  H303  1  0.220000  0.408000  0.894800  1.0
  H  H304  1  0.780000  0.592000  0.105200  1.0
  H  H305  1  0.161400  0.483900  0.783100  1.0
  H  H306  1  0.838600  0.516100  0.216900  1.0
  H  H307  1  0.160800  0.495700  0.685200  1.0
  H  H308  1  0.839200  0.504300  0.314800  1.0
  H  H309  1  0.112400  0.480800  0.561100  1.0
  H  H310  1  0.887600  0.519200  0.438900  1.0
  H  H311  1  0.169300  0.499100  0.580400  1.0
  H  H312  1  0.830700  0.500900  0.419600  1.0
  H  H313  1  0.108100  0.544100  0.570000  1.0
  H  H314  1  0.891900  0.455900  0.430000  1.0
  H  H315  1  0.041900  0.415400  0.637700  1.0
  H  H316  1  0.958100  0.584600  0.362300  1.0
  H  H317  1  0.973200  0.343700  0.708500  1.0
  H  H318  1  0.026800  0.656300  0.291500  1.0
  H  H319  1  0.997500  0.301900  0.773000  1.0
  H  H320  1  0.002500  0.698100  0.227000  1.0
  H  H321  1  0.970800  0.375100  0.993300  1.0
  H  H322  1  0.029200  0.624900  0.006700  1.0
  H  H323  1  0.015600  0.313200  0.026900  1.0
  H  H324  1  0.984400  0.686800  0.973100  1.0
  H  H325  1  0.943600  0.244900  0.032200  1.0
  H  H326  1  0.056400  0.755100  0.967800  1.0
  H  H327  1  0.912000  0.291400  0.059900  1.0
  H  H328  1  0.088000  0.708600  0.940100  1.0
  H  H329  1  0.819400  0.295700  0.035100  1.0
  H  H330  1  0.180600  0.704300  0.964900  1.0
  H  H331  1  0.719300  0.285700  0.022200  1.0
  H  H332  1  0.280700  0.714300  0.977800  1.0
  H  H333  1  0.617000  0.272400  0.022100  1.0
  H  H334  1  0.383000  0.727600  0.977900  1.0
  H  H335  1  0.593000  0.287100  0.960100  1.0
  H  H336  1  0.407000  0.712900  0.039900  1.0
  H  H337  1  0.582700  0.340300  0.983700  1.0
  H  H338  1  0.417300  0.659700  0.016300  1.0
  H  H339  1  0.639000  0.385400  0.865300  1.0
  H  H340  1  0.361000  0.614600  0.134700  1.0
  H  H341  1  0.762200  0.439500  0.773900  1.0
  H  H342  1  0.237800  0.560500  0.226100  1.0
  H  H343  1  0.692100  0.458900  0.781400  1.0
  H  H344  1  0.307900  0.541100  0.218600  1.0
  H  H345  1  0.026000  0.462600  0.856900  1.0
  H  H346  1  0.974000  0.537400  0.143100  1.0
  H  H347  1  0.984400  0.512800  0.874700  1.0
  H  H348  1  0.015600  0.487200  0.125300  1.0
  H  H349  1  0.032000  0.572000  0.779000  1.0
  H  H350  1  0.968000  0.428000  0.221000  1.0
  H  H351  1  0.008900  0.527200  0.754600  1.0
  H  H352  1  0.991100  0.472800  0.245400  1.0
  H  H353  1  0.981900  0.662700  0.717200  1.0
  H  H354  1  0.018100  0.337300  0.282800  1.0
  H  H355  1  0.944700  0.760800  0.644900  1.0
  H  H356  1  0.055300  0.239200  0.355100  1.0
  H  H357  1  0.877300  0.903600  0.596100  1.0
  H  H358  1  0.122700  0.096400  0.403900  1.0
  H  H359  1  0.845300  0.883500  0.554800  1.0
  H  H360  1  0.154700  0.116500  0.445200  1.0
  H  H361  1  0.915100  0.863500  0.564900  1.0
  H  H362  1  0.084900  0.136500  0.435100  1.0
  H  H363  1  0.771200  0.833500  0.652700  1.0
  H  H364  1  0.228800  0.166500  0.347300  1.0
  H  H365  1  0.701700  0.778900  0.725200  1.0
  H  H366  1  0.298300  0.221100  0.274800  1.0
  H  H367  1  0.708500  0.702800  0.751200  1.0
  H  H368  1  0.291500  0.297200  0.248800  1.0
  H  H369  1  0.859600  0.500100  0.973600  1.0
  H  H370  1  0.140400  0.499900  0.026400  1.0
  H  H371  1  0.851700  0.445900  0.954000  1.0
  H  H372  1  0.148300  0.554100  0.046000  1.0
  H  H373  1  0.746300  0.453400  0.976000  1.0
  H  H374  1  0.253700  0.546600  0.024000  1.0
  H  H375  1  0.778200  0.443600  0.033300  1.0
  H  H376  1  0.221800  0.556400  0.966700  1.0
  H  H377  1  0.706700  0.501300  0.064100  1.0
  H  H378  1  0.293300  0.498700  0.935900  1.0
  H  H379  1  0.617800  0.545900  0.099000  1.0
  H  H380  1  0.382200  0.454100  0.901000  1.0
  H  H381  1  0.528100  0.582300  0.142900  1.0
  H  H382  1  0.471900  0.417700  0.857100  1.0
  H  H383  1  0.501800  0.654500  0.105700  1.0
  H  H384  1  0.498200  0.345500  0.894300  1.0
  H  H385  1  0.544500  0.637100  0.157900  1.0
  H  H386  1  0.455500  0.362900  0.842100  1.0
  H  H387  1  0.588700  0.735900  0.050700  1.0
  H  H388  1  0.411300  0.264100  0.949300  1.0
  H  H389  1  0.678300  0.794000  0.926900  1.0
  H  H390  1  0.321700  0.206000  0.073100  1.0
  H  H391  1  0.651400  0.810200  0.980300  1.0
  H  H392  1  0.348600  0.189800  0.019700  1.0
  H  H393  1  0.089100  0.363000  0.150300  1.0
  H  H394  1  0.910900  0.637000  0.849700  1.0
  H  H395  1  0.065200  0.360300  0.094400  1.0
  H  H396  1  0.934800  0.639700  0.905600  1.0
  H  H397  1  0.029600  0.272800  0.182400  1.0
  H  H398  1  0.970400  0.727200  0.817600  1.0
  H  H399  1  0.096900  0.248300  0.202300  1.0
  H  H400  1  0.903100  0.751700  0.797700  1.0
  H  H401  1  0.013700  0.185500  0.172100  1.0
  H  H402  1  0.986300  0.814500  0.827900  1.0
  H  H403  1  0.991700  0.089900  0.173400  1.0
  H  H404  1  0.008300  0.910100  0.826600  1.0
  H  H405  1  0.984000  0.971400  0.183400  1.0
  H  H406  1  0.016000  0.028600  0.816600  1.0
  H  H407  1  0.975000  0.972600  0.121300  1.0
  H  H408  1  0.025000  0.027400  0.878700  1.0
  H  H409  1  0.927400  0.011800  0.146900  1.0
  H  H410  1  0.072600  0.988200  0.853100  1.0
  H  H411  1  0.035900  0.044200  0.038200  1.0
  H  H412  1  0.964100  0.955800  0.961800  1.0
  H  H413  1  0.143600  0.142700  0.964300  1.0
  H  H414  1  0.856400  0.857300  0.035700  1.0
  H  H415  1  0.094800  0.107000  0.952400  1.0
  H  H416  1  0.905200  0.893000  0.047600  1.0
  H  H417  1  0.362400  0.235900  0.836500  1.0
  H  H418  1  0.637600  0.764100  0.163500  1.0
  H  H419  1  0.308900  0.191000  0.867100  1.0
  H  H420  1  0.691100  0.809000  0.132900  1.0
  H  H421  1  0.327900  0.233000  0.896100  1.0
  H  H422  1  0.672100  0.767000  0.103900  1.0
  H  H423  1  0.270100  0.387500  0.788300  1.0
  H  H424  1  0.729900  0.612500  0.211700  1.0
  H  H425  1  0.338200  0.358000  0.790000  1.0
  H  H426  1  0.661800  0.642000  0.210000  1.0
  H  H427  1  0.301600  0.352400  0.849700  1.0
  H  H428  1  0.698400  0.647600  0.150300  1.0
  H  H429  1  0.244600  0.323800  0.736000  1.0
  H  H430  1  0.755400  0.676200  0.264000  1.0
  H  H431  1  0.252900  0.247500  0.768100  1.0
  H  H432  1  0.747100  0.752500  0.231900  1.0
  H  H433  1  0.310100  0.287400  0.739600  1.0
  H  H434  1  0.689900  0.712600  0.260400  1.0
  H  H435  1  0.920900  0.122500  0.877300  1.0
  H  H436  1  0.079100  0.877500  0.122700  1.0
  H  H437  1  0.913100  0.069400  0.944200  1.0
  H  H438  1  0.086900  0.930600  0.055800  1.0
  H  H439  1  0.965600  0.115800  0.924600  1.0
  H  H440  1  0.034400  0.884200  0.075400  1.0
  H  H441  1  0.924500  0.147200  0.009500  1.0
  H  H442  1  0.075500  0.852800  0.990500  1.0
  H  H443  1  0.875900  0.097400  0.025300  1.0
  H  H444  1  0.124100  0.902600  0.974700  1.0
  H  H445  1  0.854800  0.169400  0.013300  1.0
  H  H446  1  0.145200  0.830600  0.986700  1.0
  H  H447  1  0.789400  0.192100  0.931500  1.0
  H  H448  1  0.210600  0.807900  0.068500  1.0
  H  H449  1  0.801600  0.119100  0.943300  1.0
  H  H450  1  0.198400  0.880900  0.056700  1.0
  H  H451  1  0.813400  0.174700  0.878300  1.0
  H  H452  1  0.186600  0.825300  0.121700  1.0
  H  H453  1  0.857600  0.507300  0.602000  1.0
  H  H454  1  0.142400  0.492700  0.398000  1.0
  H  H455  1  0.920300  0.476400  0.630800  1.0
  H  H456  1  0.079700  0.523600  0.369200  1.0
  H  H457  1  0.919000  0.527000  0.562700  1.0
  H  H458  1  0.081000  0.473000  0.437300  1.0
  H  H459  1  0.987800  0.547500  0.649800  1.0
  H  H460  1  0.012200  0.452500  0.350200  1.0
  H  H461  1  0.966700  0.621900  0.625100  1.0
  H  H462  1  0.033300  0.378100  0.374900  1.0
  H  H463  1  0.987700  0.591700  0.580100  1.0
  H  H464  1  0.012300  0.408300  0.419900  1.0
  H  H465  1  0.883800  0.644500  0.536100  1.0
  H  H466  1  0.116200  0.355500  0.463900  1.0
  H  H467  1  0.868900  0.665700  0.588200  1.0
  H  H468  1  0.131100  0.334300  0.411800  1.0
  H  H469  1  0.823800  0.625100  0.577900  1.0
  H  H470  1  0.176200  0.374900  0.422100  1.0
  H  H471  1  0.549300  0.625000  0.925300  1.0
  H  H472  1  0.450700  0.375000  0.074700  1.0
  H  H473  1  0.509000  0.567300  0.942800  1.0
  H  H474  1  0.491000  0.432700  0.057200  1.0
  H  H475  1  0.508500  0.625000  0.877800  1.0
  H  H476  1  0.491500  0.375000  0.122200  1.0
  H  H477  1  0.530500  0.547100  0.834900  1.0
  H  H478  1  0.469500  0.452900  0.165100  1.0
  H  H479  1  0.599500  0.525100  0.826000  1.0
  H  H480  1  0.400500  0.474900  0.174000  1.0
  H  H481  1  0.576600  0.599200  0.796900  1.0
  H  H482  1  0.423400  0.400800  0.203100  1.0
  H  H483  1  0.601900  0.495900  0.978200  1.0
  H  H484  1  0.398100  0.504100  0.021800  1.0
  H  H485  1  0.633200  0.471300  0.931600  1.0
  H  H486  1  0.366800  0.528700  0.068400  1.0
  H  H487  1  0.562600  0.468900  0.947500  1.0
  H  H488  1  0.437400  0.531100  0.052500  1.0
  H  H489  1  0.897300  0.889700  0.749100  1.0
  H  H490  1  0.102700  0.110300  0.250900  1.0
  H  H491  1  0.863200  0.934200  0.690500  1.0
  H  H492  1  0.136800  0.065800  0.309500  1.0
  H  H493  1  0.849000  0.861400  0.728300  1.0
  H  H494  1  0.151000  0.138600  0.271700  1.0
  H  H495  1  0.735000  0.900500  0.735100  1.0
  H  H496  1  0.265000  0.099500  0.264900  1.0
  H  H497  1  0.755100  0.970600  0.694300  1.0
  H  H498  1  0.244900  0.029400  0.305700  1.0
  H  H499  1  0.717200  0.955800  0.755600  1.0
  H  H500  1  0.282800  0.044200  0.244400  1.0
  H  H501  1  0.794800  0.993700  0.793800  1.0
  H  H502  1  0.205200  0.006300  0.206200  1.0
  H  H503  1  0.834000  0.013100  0.732600  1.0
  H  H504  1  0.166000  0.986900  0.267400  1.0
  H  H505  1  0.863600  0.967000  0.793600  1.0
  H  H506  1  0.136400  0.033000  0.206400  1.0
  C  C507  1  0.136300  0.187200  0.788000  1
  C  C508  1  0.863700  0.812800  0.212000  1
  C  C509  1  0.345000  0.571900  0.545800  1
  C  C510  1  0.655000  0.428100  0.454200  1
  C  C511  1  0.497600  0.302900  0.710000  1
  C  C512  1  0.502400  0.697100  0.290000  1
  C  C513  1  0.591200  0.162500  0.898600  1
  C  C514  1  0.408800  0.837500  0.101400  1
  C  C515  1  0.809000  0.315800  0.755300  1
  C  C516  1  0.191000  0.684200  0.244700  1
  C  C517  1  0.590700  0.776800  0.846200  1
  C  C518  1  0.409300  0.223200  0.153800  1
  C  C519  1  0.746800  0.941500  0.938900  1
  C  C520  1  0.253200  0.058500  0.061100  1
  C  C521  1  0.120600  0.727000  0.648300  1
  C  C522  1  0.879400  0.273000  0.351700  1
  C  C523  1  0.058500  0.618200  0.880000  1
  C  C524  1  0.941500  0.381800  0.120000  1
  C  C525  1  0.129300  0.602700  0.869400  1
  C  C526  1  0.870700  0.397300  0.130600  1
  C  C527  1  0.556600  0.879600  0.621800  1
  C  C528  1  0.443400  0.120400  0.378200  1
  C  C529  1  0.621200  0.894100  0.628600  1
  C  C530  1  0.378800  0.105900  0.371400  1
  C  C531  1  0.707800  0.643000  0.661000  1
  C  C532  1  0.292200  0.357000  0.339000  1
  C  C533  1  0.656500  0.684900  0.672500  1
  C  C534  1  0.343500  0.315100  0.327500  1
  C  C535  1  0.318100  0.015900  0.545200  1.0
  C  C536  1  0.681900  0.984100  0.454800  1.0
  C  C537  1  0.260400  0.028600  0.509700  1.0
  C  C538  1  0.739600  0.971400  0.490300  1.0
  C  C539  1  0.224700  0.964800  0.469900  1.0
  C  C540  1  0.775300  0.035200  0.530100  1.0
  C  C541  1  0.208000  0.908800  0.467000  1.0
  C  C542  1  0.792000  0.091200  0.533000  1.0
  C  C543  1  0.165800  0.918300  0.425600  1.0
  C  C544  1  0.834200  0.081700  0.574400  1.0
  C  C545  1  0.145500  0.868900  0.416400  1.0
  C  C546  1  0.854500  0.131100  0.583600  1.0
  C  C547  1  0.097600  0.881700  0.373300  1.0
  C  C548  1  0.902400  0.118300  0.626700  1.0
  C  C549  1  0.171300  0.807400  0.451000  1.0
  C  C550  1  0.828700  0.192600  0.549000  1.0
  C  C551  1  0.214800  0.793600  0.491000  1.0
  C  C552  1  0.785200  0.206400  0.509000  1.0
  C  C553  1  0.232500  0.843800  0.502800  1.0
  C  C554  1  0.767500  0.156200  0.497200  1.0
  C  C555  1  0.244300  0.725400  0.524300  1.0
  C  C556  1  0.755700  0.274600  0.475700  1.0
  C  C557  1  0.416100  0.836100  0.628800  1.0
  C  C558  1  0.583900  0.163900  0.371200  1.0
  C  C559  1  0.443000  0.768700  0.666800  1.0
  C  C560  1  0.557000  0.231300  0.333200  1.0
  C  C561  1  0.497700  0.690600  0.638800  1.0
  C  C562  1  0.502300  0.309400  0.361200  1.0
  C  C563  1  0.516900  0.654200  0.603700  1.0
  C  C564  1  0.483100  0.345800  0.396300  1.0
  C  C565  1  0.559300  0.598600  0.631400  1.0
  C  C566  1  0.440700  0.401400  0.368600  1.0
  C  C567  1  0.580100  0.558000  0.605600  1.0
  C  C568  1  0.419900  0.442000  0.394400  1.0
  C  C569  1  0.626700  0.500700  0.635500  1.0
  C  C570  1  0.373300  0.499300  0.364500  1.0
  C  C571  1  0.561400  0.573700  0.549600  1.0
  C  C572  1  0.438600  0.426300  0.450400  1.0
  C  C573  1  0.520100  0.628600  0.518500  1.0
  C  C574  1  0.479900  0.371400  0.481500  1.0
  C  C575  1  0.496400  0.669200  0.547300  1.0
  C  C576  1  0.503600  0.330800  0.452700  1.0
  C  C577  1  0.501100  0.645700  0.457600  1.0
  C  C578  1  0.498900  0.354300  0.542400  1.0
  C  C579  1  0.391700  0.910700  0.451200  1.0
  C  C580  1  0.608300  0.089300  0.548800  1.0
  C  C581  1  0.368500  0.934600  0.388500  1.0
  C  C582  1  0.631500  0.065400  0.611500  1.0
  C  C583  1  0.423900  0.950900  0.296100  1.0
  C  C584  1  0.576100  0.049100  0.703900  1.0
  C  C585  1  0.468300  0.939200  0.254200  1.0
  C  C586  1  0.531700  0.060800  0.745800  1.0
  C  C587  1  0.457100  0.974400  0.193100  1.0
  C  C588  1  0.542900  0.025600  0.806900  1.0
  C  C589  1  0.495500  0.967000  0.147500  1.0
  C  C590  1  0.504500  0.033000  0.852500  1.0
  C  C591  1  0.482700  0.007200  0.081300  1.0
  C  C592  1  0.517300  0.992800  0.918700  1.0
  C  C593  1  0.549000  0.924400  0.165400  1.0
  C  C594  1  0.451000  0.075600  0.834600  1.0
  C  C595  1  0.562000  0.891200  0.224400  1.0
  C  C596  1  0.438000  0.108800  0.775600  1.0
  C  C597  1  0.522700  0.895900  0.271300  1.0
  C  C598  1  0.477300  0.104100  0.728700  1.0
  C  C599  1  0.621200  0.848800  0.242500  1.0
  C  C600  1  0.378800  0.151200  0.757500  1.0
  C  C601  1  0.558500  0.832500  0.497500  1.0
  C  C602  1  0.441500  0.167500  0.502500  1.0
  C  C603  1  0.614900  0.792600  0.522000  1.0
  C  C604  1  0.385100  0.207400  0.478000  1.0
  C  C605  1  0.719300  0.813200  0.494000  1.0
  C  C606  1  0.280700  0.186800  0.506000  1.0
  C  C607  1  0.774300  0.836000  0.455300  1.0
  C  C608  1  0.225700  0.164000  0.544700  1.0
  C  C609  1  0.830200  0.809800  0.482500  1.0
  C  C610  1  0.169800  0.190200  0.517500  1.0
  C  C611  1  0.885800  0.825400  0.451300  1.0
  C  C612  1  0.114200  0.174600  0.548700  1.0
  C  C613  1  0.945600  0.797400  0.482000  1.0
  C  C614  1  0.054400  0.202600  0.518000  1.0
  C  C615  1  0.887400  0.868300  0.390300  1.0
  C  C616  1  0.112600  0.131700  0.609700  1.0
  C  C617  1  0.830800  0.897600  0.362000  1.0
  C  C618  1  0.169200  0.102400  0.638000  1.0
  C  C619  1  0.773300  0.880400  0.393600  1.0
  C  C620  1  0.226700  0.119600  0.606400  1.0
  C  C621  1  0.832100  0.949300  0.298200  1.0
  C  C622  1  0.167900  0.050700  0.701800  1.0
  C  C623  1  0.447900  0.002400  0.658200  1.0
  C  C624  1  0.552100  0.997600  0.341800  1.0
  C  C625  1  0.454600  0.949700  0.720700  1.0
  C  C626  1  0.545400  0.050300  0.279300  1.0
  C  C627  1  0.411300  0.847800  0.770800  1.0
  C  C628  1  0.588700  0.152200  0.229200  1.0
  C  C629  1  0.367000  0.800100  0.788600  1.0
  C  C630  1  0.633000  0.199900  0.211400  1.0
  C  C631  1  0.382100  0.740200  0.838900  1.0
  C  C632  1  0.617900  0.259800  0.161100  1.0
  C  C633  1  0.345000  0.690100  0.860700  1.0
  C  C634  1  0.655000  0.309900  0.139300  1.0
  C  C635  1  0.362700  0.626700  0.913200  1.0
  C  C636  1  0.637300  0.373300  0.086800  1.0
  C  C637  1  0.293700  0.698800  0.830300  1.0
  C  C638  1  0.706300  0.301200  0.169700  1.0
  C  C639  1  0.277900  0.756000  0.780700  1.0
  C  C640  1  0.722100  0.244000  0.219300  1.0
  C  C641  1  0.312800  0.809300  0.758300  1.0
  C  C642  1  0.687200  0.190700  0.241700  1.0
  C  C643  1  0.222500  0.761600  0.746700  1.0
  C  C644  1  0.777500  0.238400  0.253300  1.0
  C  C645  1  0.136900  0.909700  0.621400  1.0
  C  C646  1  0.863100  0.090300  0.378600  1.0
  C  C647  1  0.071200  0.942400  0.612200  1.0
  C  C648  1  0.928800  0.057600  0.387800  1.0
  C  C649  1  0.043600  0.947300  0.669800  1.0
  C  C650  1  0.956400  0.052700  0.330200  1.0
  C  C651  1  0.076100  0.011800  0.561700  1.0
  C  C652  1  0.923900  0.988200  0.438300  1.0
  C  C653  1  0.031500  0.906200  0.592400  1.0
  C  C654  1  0.968500  0.093800  0.407600  1.0
  C  C655  1  0.351400  0.638900  0.664100  1.0
  C  C656  1  0.648600  0.361100  0.335900  1.0
  C  C657  1  0.355600  0.578800  0.725400  1.0
  C  C658  1  0.644400  0.421200  0.274600  1.0
  C  C659  1  0.292700  0.562600  0.755400  1.0
  C  C660  1  0.707300  0.437400  0.244600  1.0
  C  C661  1  0.391700  0.595000  0.765500  1.0
  C  C662  1  0.608300  0.405000  0.234500  1.0
  C  C663  1  0.390000  0.519400  0.717400  1.0
  C  C664  1  0.610000  0.480600  0.282600  1.0
  C  C665  1  0.377300  0.790200  0.349800  1.0
  C  C666  1  0.622700  0.209800  0.650200  1.0
  C  C667  1  0.321700  0.803800  0.312400  1.0
  C  C668  1  0.678300  0.196200  0.687600  1.0
  C  C669  1  0.281500  0.745500  0.342800  1.0
  C  C670  1  0.718500  0.254500  0.657200  1.0
  C  C671  1  0.282900  0.863800  0.313400  1.0
  C  C672  1  0.717100  0.136200  0.686600  1.0
  C  C673  1  0.341600  0.816600  0.248200  1.0
  C  C674  1  0.658400  0.183400  0.751800  1.0
  C  C675  1  0.692300  0.728700  0.403000  1.0
  C  C676  1  0.307700  0.271300  0.597000  1.0
  C  C677  1  0.720800  0.660100  0.435300  1.0
  C  C678  1  0.279200  0.339900  0.564700  1.0
  C  C679  1  0.789900  0.656400  0.420400  1.0
  C  C680  1  0.210100  0.343600  0.579600  1.0
  C  C681  1  0.708500  0.643100  0.503700  1.0
  C  C682  1  0.291500  0.356900  0.496300  1.0
  C  C683  1  0.693000  0.611200  0.423300  1.0
  C  C684  1  0.307000  0.388800  0.576700  1.0
  C  C685  1  0.697900  0.049300  0.183700  1.0
  C  C686  1  0.302100  0.950700  0.816300  1.0
  C  C687  1  0.683200  0.069000  0.118500  1.0
  C  C688  1  0.316800  0.931000  0.881500  1.0
  C  C689  1  0.613300  0.083600  0.115400  1.0
  C  C690  1  0.386700  0.916400  0.884600  1.0
  C  C691  1  0.702800  0.012600  0.102900  1.0
  C  C692  1  0.297200  0.987400  0.897100  1.0
  C  C693  1  0.713000  0.130300  0.075700  1.0
  C  C694  1  0.287000  0.869700  0.924300  1.0
  C  C695  1  0.144000  0.407100  0.952900  1.0
  C  C696  1  0.856000  0.592900  0.047100  1.0
  C  C697  1  0.178600  0.428800  0.890800  1.0
  C  C698  1  0.821400  0.571200  0.109200  1.0
  C  C699  1  0.142000  0.445700  0.798900  1.0
  C  C700  1  0.858000  0.554300  0.201100  1.0
  C  C701  1  0.111900  0.433600  0.757300  1.0
  C  C702  1  0.888100  0.566400  0.242700  1.0
  C  C703  1  0.130200  0.467800  0.695600  1.0
  C  C704  1  0.869800  0.532200  0.304400  1.0
  C  C705  1  0.105100  0.462300  0.649100  1.0
  C  C706  1  0.894900  0.537700  0.350900  1.0
  C  C707  1  0.125500  0.499900  0.584400  1.0
  C  C708  1  0.874500  0.500100  0.415600  1.0
  C  C709  1  0.059100  0.421000  0.667200  1.0
  C  C710  1  0.940900  0.579000  0.332800  1.0
  C  C711  1  0.037000  0.387100  0.726800  1.0
  C  C712  1  0.963000  0.612900  0.273200  1.0
  C  C713  1  0.063500  0.391700  0.773700  1.0
  C  C714  1  0.936500  0.608300  0.226300  1.0
  C  C715  1  0.984900  0.345800  0.743900  1.0
  C  C716  1  0.015100  0.654200  0.256100  1.0
  C  C717  1  0.983700  0.331100  0.998700  1.0
  C  C718  1  0.016300  0.668900  0.001300  1.0
  C  C719  1  0.930200  0.289900  0.023200  1.0
  C  C720  1  0.069800  0.710100  0.976800  1.0
  C  C721  1  0.829300  0.313900  0.993800  1.0
  C  C722  1  0.170700  0.686100  0.006200  1.0
  C  C723  1  0.778400  0.336900  0.955100  1.0
  C  C724  1  0.221600  0.663100  0.044900  1.0
  C  C725  1  0.722000  0.314200  0.981300  1.0
  C  C726  1  0.278000  0.685800  0.018700  1.0
  C  C727  1  0.670500  0.331200  0.950400  1.0
  C  C728  1  0.329500  0.668800  0.049600  1.0
  C  C729  1  0.610300  0.305400  0.982000  1.0
  C  C730  1  0.389700  0.694600  0.018000  1.0
  C  C731  1  0.672800  0.375100  0.887900  1.0
  C  C732  1  0.327200  0.624900  0.112100  1.0
  C  C733  1  0.729700  0.403000  0.861300  1.0
  C  C734  1  0.270300  0.597000  0.138700  1.0
  C  C735  1  0.782500  0.383400  0.893300  1.0
  C  C736  1  0.217500  0.616600  0.106700  1.0
  C  C737  1  0.731300  0.453300  0.797700  1.0
  C  C738  1  0.268700  0.546700  0.202300  1.0
  C  C739  1  0.990200  0.493700  0.846600  1.0
  C  C740  1  0.009800  0.506300  0.153400  1.0
  C  C741  1  0.999000  0.546600  0.782200  1.0
  C  C742  1  0.001000  0.453400  0.217800  1.0
  C  C743  1  0.943300  0.648400  0.732000  1.0
  C  C744  1  0.056700  0.351600  0.268000  1.0
  C  C745  1  0.891700  0.697700  0.711600  1.0
  C  C746  1  0.108300  0.302300  0.288400  1.0
  C  C747  1  0.905000  0.756100  0.662000  1.0
  C  C748  1  0.095000  0.243900  0.338000  1.0
  C  C749  1  0.860500  0.807400  0.637700  1.0
  C  C750  1  0.139500  0.192600  0.362300  1.0
  C  C751  1  0.876000  0.870300  0.583400  1.0
  C  C752  1  0.124000  0.129700  0.416600  1.0
  C  C753  1  0.801900  0.799700  0.667300  1.0
  C  C754  1  0.198100  0.200300  0.332700  1.0
  C  C755  1  0.788700  0.742500  0.718000  1.0
  C  C756  1  0.211300  0.257500  0.282000  1.0
  C  C757  1  0.832500  0.689500  0.741100  1.0
  C  C758  1  0.167500  0.310500  0.258900  1.0
  C  C759  1  0.727000  0.739800  0.748800  1.0
  C  C760  1  0.273000  0.260200  0.251200  1.0
  C  C761  1  0.832700  0.485900  0.954600  1.0
  C  C762  1  0.167300  0.514100  0.045400  1.0
  C  C763  1  0.771900  0.472900  0.991300  1.0
  C  C764  1  0.228100  0.527100  0.008700  1.0
  C  C765  1  0.710100  0.540400  0.029500  1.0
  C  C766  1  0.289900  0.459600  0.970500  1.0
  C  C767  1  0.677600  0.598000  0.031900  1.0
  C  C768  1  0.322400  0.402000  0.968100  1.0
  C  C769  1  0.627600  0.588300  0.074400  1.0
  C  C770  1  0.372400  0.411700  0.925600  1.0
  C  C771  1  0.592200  0.638400  0.081600  1.0
  C  C772  1  0.407800  0.361600  0.918400  1.0
  C  C773  1  0.536500  0.627000  0.126200  1.0
  C  C774  1  0.463500  0.373000  0.873800  1.0
  C  C775  1  0.610700  0.701000  0.046200  1.0
  C  C776  1  0.389300  0.299000  0.953800  1.0
  C  C777  1  0.661000  0.713000  0.004400  1.0
  C  C778  1  0.339000  0.287000  0.995600  1.0
  C  C779  1  0.694200  0.662100  0.994800  1.0
  C  C780  1  0.305800  0.337900  0.005200  1.0
  C  C781  1  0.679800  0.780700  0.969700  1.0
  C  C782  1  0.320200  0.219300  0.030300  1.0
  C  C783  1  0.091800  0.337900  0.127500  1.0
  C  C784  1  0.908200  0.662100  0.872500  1.0
  C  C785  1  0.072000  0.270200  0.167900  1.0
  C  C786  1  0.928000  0.729800  0.832100  1.0
  C  C787  1  0.043600  0.192500  0.140800  1.0
  C  C788  1  0.956400  0.807500  0.859200  1.0
  C  C789  1  0.044200  0.153400  0.108000  1.0
  C  C790  1  0.955800  0.846600  0.892000  1.0
  C  C791  1  0.011400  0.098700  0.135800  1.0
  C  C792  1  0.988600  0.901300  0.864200  1.0
  C  C793  1  0.006300  0.056500  0.111600  1.0
  C  C794  1  0.993700  0.943500  0.888400  1.0
  C  C795  1  0.969800  0.997700  0.143800  1.0
  C  C796  1  0.030200  0.002300  0.856200  1.0
  C  C797  1  0.037100  0.071900  0.055800  1.0
  C  C798  1  0.962900  0.928100  0.944200  1.0
  C  C799  1  0.069500  0.126100  0.024900  1.0
  C  C800  1  0.930500  0.873900  0.975100  1.0
  C  C801  1  0.075200  0.168300  0.050800  1.0
  C  C802  1  0.924800  0.831700  0.949200  1.0
  C  C803  1  0.100100  0.141400  0.963200  1.0
  C  C804  1  0.899900  0.858600  0.036800  1.0
  C  C805  1  0.215700  0.279100  0.858100  1.0
  C  C806  1  0.784300  0.720900  0.141900  1.0
  C  C807  1  0.277500  0.288000  0.821700  1.0
  C  C808  1  0.722500  0.712000  0.178300  1.0
  C  C809  1  0.323500  0.231700  0.858800  1.0
  C  C810  1  0.676500  0.768300  0.141200  1.0
  C  C811  1  0.298800  0.352400  0.811500  1.0
  C  C812  1  0.701200  0.647600  0.188500  1.0
  C  C813  1  0.270600  0.286500  0.760400  1.0
  C  C814  1  0.729400  0.713500  0.239600  1.0
  C  C815  1  0.903400  0.229200  0.901000  1.0
  C  C816  1  0.096600  0.770800  0.099000  1.0
  C  C817  1  0.881800  0.161100  0.934300  1.0
  C  C818  1  0.118200  0.838900  0.065700  1.0
  C  C819  1  0.924300  0.112700  0.918600  1.0
  C  C820  1  0.075700  0.887300  0.081400  1.0
  C  C821  1  0.884500  0.142000  0.002000  1.0
  C  C822  1  0.115500  0.858000  0.998000  1.0
  C  C823  1  0.815300  0.161800  0.920500  1.0
  C  C824  1  0.184700  0.838200  0.079500  1.0
  C  C825  1  0.871700  0.548900  0.684900  1.0
  C  C826  1  0.128300  0.451100  0.315100  1.0
  C  C827  1  0.899900  0.569300  0.619200  1.0
  C  C828  1  0.100100  0.430700  0.380800  1.0
  C  C829  1  0.899100  0.515100  0.602100  1.0
  C  C830  1  0.100900  0.484900  0.397900  1.0
  C  C831  1  0.967000  0.584000  0.618500  1.0
  C  C832  1  0.033000  0.416000  0.381500  1.0
  C  C833  1  0.866000  0.631900  0.576400  1.0
  C  C834  1  0.134000  0.368100  0.423600  1.0
  C  C835  1  0.645500  0.594700  0.879000  1.0
  C  C836  1  0.354500  0.405300  0.121000  1.0
  C  C837  1  0.585800  0.562200  0.890100  1.0
  C  C838  1  0.414200  0.437800  0.109900  1.0
  C  C839  1  0.533300  0.598200  0.910900  1.0
  C  C840  1  0.466700  0.401800  0.089100  1.0
  C  C841  1  0.571700  0.558000  0.831200  1.0
  C  C842  1  0.428300  0.442000  0.168800  1.0
  C  C843  1  0.596900  0.493000  0.941800  1.0
  C  C844  1  0.403100  0.507000  0.058200  1.0
  C  C845  1  0.803100  0.862900  0.829500  1.0
  C  C846  1  0.196900  0.137100  0.170500  1.0
  C  C847  1  0.808500  0.919800  0.768100  1.0
  C  C848  1  0.191500  0.080200  0.231900  1.0
  C  C849  1  0.859300  0.899300  0.730500  1.0
  C  C850  1  0.140700  0.100700  0.269500  1.0
  C  C851  1  0.748200  0.938500  0.735100  1.0
  C  C852  1  0.251800  0.061500  0.264900  1.0
  C  C853  1  0.826900  0.978900  0.772400  1.0
  C  C854  1  0.173100  0.021100  0.227600  1.0
  N  N855  1  0.181900  0.591000  0.861400  1
  N  N856  1  0.818100  0.409000  0.138600  1
  N  N857  1  0.668300  0.905700  0.635000  1
  N  N858  1  0.331700  0.094300  0.365000  1
  N  N859  1  0.618600  0.717700  0.680900  1
  N  N860  1  0.381400  0.282300  0.319100  1
  N  N861  1  0.246900  0.966200  0.514800  1.0
  N  N862  1  0.753100  0.033800  0.485200  1.0
  N  N863  1  0.453700  0.735000  0.628200  1.0
  N  N864  1  0.546300  0.265000  0.371800  1.0
  N  N865  1  0.415400  0.915200  0.352700  1.0
  N  N866  1  0.584600  0.084800  0.647300  1.0
  N  N867  1  0.666100  0.816800  0.476600  1.0
  N  N868  1  0.333900  0.183200  0.523400  1.0
  N  N869  1  0.402600  0.908700  0.734300  1.0
  N  N870  1  0.597400  0.091300  0.265700  1.0
  N  N871  1  0.144600  0.409200  0.855500  1.0
  N  N872  1  0.855400  0.590800  0.144500  1.0
  N  N873  1  0.885900  0.316100  0.977100  1.0
  N  N874  1  0.114100  0.683900  0.022900  1.0
  N  N875  1  0.941600  0.588400  0.767400  1.0
  N  N876  1  0.058400  0.411600  0.232600  1.0
  N  N877  1  0.742900  0.537600  0.985100  1.0
  N  N878  1  0.257100  0.462400  0.014900  1.0
  N  N879  1  0.080000  0.235000  0.130700  1.0
  N  N880  1  0.920000  0.765000  0.869300  1.0
  Cl  Cl881  1  0.058900  0.170630  0.796030  1
  Cl  Cl882  1  0.941100  0.829370  0.203970  1
  Cl  Cl883  1  0.167500  0.203100  0.715480  1
  Cl  Cl884  1  0.832500  0.796900  0.284520  1
  Cl  Cl885  1  0.178800  0.120800  0.840950  1
  Cl  Cl886  1  0.821200  0.879200  0.159050  1
  Cl  Cl887  1  0.280480  0.545000  0.595450  1
  Cl  Cl888  1  0.719520  0.455000  0.404550  1
  Cl  Cl889  1  0.406550  0.510520  0.567340  1
  Cl  Cl890  1  0.593450  0.489480  0.432660  1
  Cl  Cl891  1  0.328200  0.592900  0.471460  1
  Cl  Cl892  1  0.671800  0.407100  0.528540  1
  Cl  Cl893  1  0.429320  0.352800  0.686680  1
  Cl  Cl894  1  0.570680  0.647200  0.313320  1
  Cl  Cl895  1  0.491160  0.255700  0.788110  1
  Cl  Cl896  1  0.508840  0.744300  0.211890  1
  Cl  Cl897  1  0.559000  0.350300  0.687900  1
  Cl  Cl898  1  0.441000  0.649700  0.312100  1
  Cl  Cl899  1  0.523800  0.164600  0.941000  1
  Cl  Cl900  1  0.476200  0.835400  0.059000  1
  Cl  Cl901  1  0.637200  0.090500  0.938700  1
  Cl  Cl902  1  0.362800  0.909500  0.061300  1
  Cl  Cl903  1  0.631000  0.229600  0.882800  1
  Cl  Cl904  1  0.369000  0.770400  0.117200  1
  Cl  Cl905  1  0.859600  0.249900  0.746900  1
  Cl  Cl906  1  0.140400  0.750100  0.253100  1
  Cl  Cl907  1  0.741600  0.297100  0.781900  1
  Cl  Cl908  1  0.258400  0.702900  0.218100  1
  Cl  Cl909  1  0.811200  0.383700  0.682000  1
  Cl  Cl910  1  0.188800  0.616300  0.318000  1
  Cl  Cl911  1  0.569410  0.761830  0.788280  1
  Cl  Cl912  1  0.430590  0.238170  0.211720  1
  Cl  Cl913  1  0.528200  0.770600  0.899680  1
  Cl  Cl914  1  0.471800  0.229400  0.100320  1
  Cl  Cl915  1  0.615240  0.855740  0.815200  1
  Cl  Cl916  1  0.384760  0.144260  0.184800  1
  Cl  Cl917  1  0.689700  0.963700  0.887480  1
  Cl  Cl918  1  0.310300  0.036300  0.112520  1
  Cl  Cl919  1  0.715800  0.918800  0.011260  1
  Cl  Cl920  1  0.284200  0.081200  0.988740  1
  Cl  Cl921  1  0.793300  0.005400  0.916800  1
  Cl  Cl922  1  0.206700  0.994600  0.083200  1
  Cl  Cl923  1  0.081620  0.739540  0.709400  1
  Cl  Cl924  1  0.918380  0.260460  0.290600  1
  Cl  Cl925  1  0.070220  0.739200  0.594380  1
  Cl  Cl926  1  0.929780  0.260800  0.405620  1
  Cl  Cl927  1  0.156840  0.647480  0.676700  1
  Cl  Cl928  1  0.843160  0.352520  0.323300  1
  O  O929  1  0.988400  0.407000  0.542600  1
  O  O930  1  0.011600  0.593000  0.457400  1
  O  O931  1  0.985900  0.727000  0.371000  1
  O  O932  1  0.014100  0.273000  0.629000  1
  O  O933  1  0.846800  0.148100  0.163500  1
  O  O934  1  0.153200  0.851900  0.836500  1
  O  O935  1  0.084200  0.681400  0.459400  1
  O  O936  1  0.915800  0.318600  0.540600  1
  O  O937  1  0.896900  0.212200  0.178200  1
  O  O938  1  0.103100  0.787800  0.821800  1
  O  O939  1  0.305900  0.967100  0.604400  1.0
  O  O940  1  0.694100  0.032900  0.395600  1.0
  O  O941  1  0.273300  0.829400  0.544700  1.0
  O  O942  1  0.726700  0.170600  0.455300  1.0
  O  O943  1  0.309200  0.722600  0.510300  1.0
  O  O944  1  0.690800  0.277400  0.489700  1.0
  O  O945  1  0.362700  0.832000  0.604400  1.0
  O  O946  1  0.637300  0.168000  0.395600  1.0
  O  O947  1  0.458100  0.721300  0.517900  1.0
  O  O948  1  0.541900  0.278700  0.482100  1.0
  O  O949  1  0.522200  0.706400  0.413600  1.0
  O  O950  1  0.477800  0.293600  0.586400  1.0
  O  O951  1  0.408200  0.843100  0.475100  1.0
  O  O952  1  0.591800  0.156900  0.524900  1.0
  O  O953  1  0.537000  0.862100  0.328800  1.0
  O  O954  1  0.463000  0.137900  0.671200  1.0
  O  O955  1  0.658800  0.873400  0.269300  1.0
  O  O956  1  0.341200  0.126600  0.730700  1.0
  O  O957  1  0.550300  0.833300  0.441700  1.0
  O  O958  1  0.449700  0.166700  0.558300  1.0
  O  O959  1  0.722300  0.909700  0.365200  1.0
  O  O960  1  0.277700  0.090300  0.634800  1.0
  O  O961  1  0.804100  0.011600  0.293200  1.0
  O  O962  1  0.195900  0.988400  0.706800  1.0
  O  O963  1  0.389100  0.036000  0.652600  1.0
  O  O964  1  0.610900  0.964000  0.347400  1.0
  O  O965  1  0.297000  0.864800  0.709800  1.0
  O  O966  1  0.703000  0.135200  0.290200  1.0
  O  O967  1  0.240600  0.767300  0.687400  1.0
  O  O968  1  0.759400  0.232700  0.312600  1.0
  O  O969  1  0.172700  0.927200  0.646600  1.0
  O  O970  1  0.827300  0.072800  0.353400  1.0
  O  O971  1  0.156500  0.870200  0.600400  1.0
  O  O972  1  0.843500  0.129800  0.399600  1.0
  O  O973  1  0.321000  0.691000  0.661900  1.0
  O  O974  1  0.679000  0.309000  0.338100  1.0
  O  O975  1  0.378900  0.638800  0.617400  1.0
  O  O976  1  0.621100  0.361200  0.382600  1.0
  O  O977  1  0.367500  0.774000  0.406500  1.0
  O  O978  1  0.632500  0.226000  0.593500  1.0
  O  O979  1  0.428900  0.798000  0.325600  1.0
  O  O980  1  0.571100  0.202000  0.674400  1.0
  O  O981  1  0.633900  0.738800  0.398900  1.0
  O  O982  1  0.366100  0.261200  0.601100  1.0
  O  O983  1  0.723200  0.776400  0.382100  1.0
  O  O984  1  0.276800  0.223600  0.617900  1.0
  O  O985  1  0.685700  0.993600  0.224500  1.0
  O  O986  1  0.314300  0.006400  0.775500  1.0
  O  O987  1  0.717300  0.089500  0.196900  1.0
  O  O988  1  0.282700  0.910500  0.803100  1.0
  O  O989  1  0.137600  0.339300  0.978100  1.0
  O  O990  1  0.862400  0.660700  0.021900  1.0
  O  O991  1  0.042900  0.359600  0.830700  1.0
  O  O992  1  0.957100  0.640400  0.169300  1.0
  O  O993  1  0.933100  0.372600  0.769600  1.0
  O  O994  1  0.066900  0.627400  0.230400  1.0
  O  O995  1  0.006100  0.332200  0.943100  1.0
  O  O996  1  0.993900  0.667800  0.056900  1.0
  O  O997  1  0.834900  0.409600  0.864900  1.0
  O  O998  1  0.165100  0.590400  0.135100  1.0
  O  O999  1  0.745200  0.514900  0.794000  1.0
  O  O1000  1  0.254800  0.485100  0.206000  1.0
  O  O1001  1  0.937100  0.461800  0.850000  1.0
  O  O1002  1  0.062900  0.538200  0.150000  1.0
  O  O1003  1  0.817300  0.635800  0.789700  1.0
  O  O1004  1  0.182700  0.364200  0.210300  1.0
  O  O1005  1  0.728600  0.734000  0.809800  1.0
  O  O1006  1  0.271400  0.266000  0.190200  1.0
  O  O1007  1  0.825100  0.532900  0.896200  1.0
  O  O1008  1  0.174900  0.467100  0.103800  1.0
  O  O1009  1  0.741400  0.675200  0.952700  1.0
  O  O1010  1  0.258600  0.324800  0.047300  1.0
  O  O1011  1  0.740800  0.784700  0.982300  1.0
  O  O1012  1  0.259200  0.215300  0.017700  1.0
  O  O1013  1  0.152600  0.332500  0.104600  1.0
  O  O1014  1  0.847400  0.667500  0.895400  1.0
  O  O1015  1  0.107900  0.218600  0.021500  1.0
  O  O1016  1  0.892100  0.781400  0.978500  1.0
  O  O1017  1  0.075400  0.202800  0.917900  1.0
  O  O1018  1  0.924600  0.797200  0.082100  1.0
  O  O1019  1  0.213400  0.265600  0.913000  1.0
  O  O1020  1  0.786600  0.734400  0.087000  1.0
  O  O1021  1  0.166600  0.290200  0.831300  1.0
  O  O1022  1  0.833400  0.709800  0.168700  1.0
  O  O1023  1  0.958900  0.237100  0.901700  1.0
  O  O1024  1  0.041100  0.762900  0.098300  1.0
  O  O1025  1  0.864800  0.277400  0.877900  1.0
  O  O1026  1  0.135200  0.722600  0.122100  1.0
  O  O1027  1  0.888500  0.492900  0.726200  1.0
  O  O1028  1  0.111500  0.507100  0.273800  1.0
  O  O1029  1  0.838400  0.588700  0.697200  1.0
  O  O1030  1  0.161600  0.411300  0.302800  1.0
  O  O1031  1  0.691400  0.577700  0.852100  1.0
  O  O1032  1  0.308600  0.422300  0.147900  1.0
  O  O1033  1  0.649000  0.634700  0.899400  1.0
  O  O1034  1  0.351000  0.365300  0.100600  1.0
  O  O1035  1  0.784100  0.810000  0.834500  1.0
  O  O1036  1  0.215900  0.190000  0.165500  1.0
  O  O1037  1  0.818300  0.864000  0.875300  1.0
  O  O1038  1  0.181700  0.136000  0.124700  1.0
