
#######################################################################
#
#                 Cambridge Crystallographic Data Centre
#                                CCDC 
#
#######################################################################
#
# If this CIF has been generated from an entry in the Cambridge 
# Structural Database, then it will include bibliographic, chemical, 
# crystal, experimental, refinement or atomic coordinate data resulting 
# from the CCDC's data processing and validation procedures.
#
#######################################################################

data_VUVKOO
_chemical_formula_moiety         
'C160 H220 Gd10 N10 O50,3(C2 H3 N1),8(C1 H1 Cl3),5(H2 O1)'
_chemical_name_systematic        
"decakis(\m~3~-2-((2-Oxyethyl)carbonoimidoyl)-6-(hydroxymethyl)-4-methylphenolato)-decakis(pivalato-O,O')-deca-gadolinium acetonitrile chloroform solvate pentahydrate"
_symmetry_cell_setting           triclinic
_symmetry_space_group_name_H-M   'P -1'
_symmetry_Int_Tables_number      2
_space_group_name_Hall           '-P 1'
loop_
_symmetry_equiv_pos_site_id
_symmetry_equiv_pos_as_xyz
1 x,y,z
2 -x,-y,-z
_cell_length_a                   22.125(2)
_cell_length_b                   23.112(2)
_cell_length_c                   24.901(2)
_cell_angle_alpha                63.222(2)
_cell_angle_beta                 83.368(2)
_cell_angle_gamma                82.507(2)
_cell_volume                     11247.4
_exptl_crystal_colour            colorless
_exptl_crystal_description       Block
_cell_formula_units_Z            2
loop_
_atom_site_label
_atom_site_type_symbol
_atom_site_fract_x
_atom_site_fract_y
_atom_site_fract_z
Gd1 Gd 0.26614(2) 0.87443(3) 0.61481(2)
Gd2 Gd 0.37053(2) 0.76097(3) 0.56077(2)
Gd3 Gd 0.46901(2) 0.80556(3) 0.41298(2)
Gd4 Gd 0.63412(2) 0.85622(2) 0.37188(2)
Gd5 Gd 0.69332(2) 1.02596(2) 0.30701(2)
O1 O 0.3059(3) 0.9671(3) 0.6044(3)
O2 O 0.2733(3) 0.8294(4) 0.5447(3)
O3 O 0.3092(3) 0.7226(4) 0.5103(4)
H1 H 0.3161(15) 0.733(6) 0.4728(13)
O4 O 0.3627(3) 0.8320(3) 0.6044(3)
O5 O 0.4581(3) 0.7213(3) 0.5179(3)
O6 O 0.5222(3) 0.7064(3) 0.4136(3)
H2 H 0.550(3) 0.6996(17) 0.390(3)
O7 O 0.4082(3) 0.8431(3) 0.4751(3)
O8 O 0.5370(3) 0.8621(3) 0.3288(3)
O9 O 0.6588(3) 0.8734(4) 0.2693(3)
H3 H 0.670(4) 0.910(2) 0.2432(18)
O10 O 0.5503(3) 0.8333(3) 0.4417(3)
O11 O 0.7223(3) 0.9097(3) 0.3652(3)
O12 O 0.8041(3) 1.0116(3) 0.2932(3)
H4 H 0.826(3) 1.027(3) 0.308(4)
O13 O 0.3891(3) 1.0360(3) 0.6526(3)
O14 O 0.2970(3) 0.8648(3) 0.7098(3)
O15 O 0.2406(4) 0.7673(4) 0.6874(3)
H5 H 0.259(4) 0.7316(19) 0.6895(15)
O16 O 0.1727(3) 0.9272(4) 0.6466(4)
O17 O 0.1565(3) 0.8702(4) 0.6004(3)
O18 O 0.3210(4) 0.6910(4) 0.6619(4)
O19 O 0.3789(3) 0.6388(4) 0.6174(3)
O20 O 0.3675(3) 0.7740(4) 0.4065(3)
O21 O 0.4289(3) 0.7980(4) 0.3256(3)
O22 O 0.6339(3) 0.7388(4) 0.3989(4)
O23 O 0.7232(3) 0.7764(4) 0.3821(3)
O24 O 0.6857(4) 0.9936(4) 0.2245(3)
O25 O 0.7173(3) 1.0895(3) 0.1969(3)
N1 N 0.2469(4) 0.9662(5) 0.5148(4)
N2 N 0.4537(4) 0.7350(4) 0.6282(4)
N3 N 0.4154(4) 0.9152(4) 0.3527(4)
N4 N 0.6661(4) 0.8168(4) 0.4766(4)
N5 N 0.4026(4) 0.9087(4) 0.7343(4)
C1 C 0.3181(5) 1.0159(5) 0.5452(5)
H6 H 0.3533 1.0014 0.5258
H7 H 0.3266 1.0554 0.5463
C2 C 0.2604(5) 1.0286(5) 0.5097(5)
H8 H 0.2262 1.0473 0.5266
H9 H 0.2681 1.0588 0.4677
C3 C 0.2247(5) 0.9648(5) 0.4699(5)
H10 H 0.2191 1.0043 0.4359
C4 C 0.2080(5) 0.9088(5) 0.4670(5)
C5 C 0.1658(5) 0.9183(6) 0.4256(5)
H11 H 0.1501 0.9608 0.4024
C6 C 0.1455(5) 0.8689(6) 0.4164(5)
C7 C 0.0976(5) 0.8817(6) 0.3733(6)
H12 H 0.1074 0.8540 0.3535
H13 H 0.0962 0.9264 0.3437
H14 H 0.0585 0.8729 0.3950
C8 C 0.1713(5) 0.8074(6) 0.4510(5)
H15 H 0.1584 0.7729 0.4471
C9 C 0.2148(5) 0.7936(5) 0.4910(5)
C10 C 0.2325(5) 0.8438(6) 0.5028(5)
C11 C 0.2443(5) 0.7254(5) 0.5243(5)
H16 H 0.2362 0.7109 0.5673
H17 H 0.2266 0.6963 0.5132
C12 C 0.4161(5) 0.8361(5) 0.6288(5)
H18 H 0.4057 0.8595 0.6531
H19 H 0.4455 0.8595 0.5965
C13 C 0.4430(5) 0.7687(6) 0.6668(5)
H20 H 0.4811 0.7701 0.6817
H21 H 0.4151 0.7462 0.7010
C14 C 0.4977(5) 0.6906(5) 0.6388(5)
H22 H 0.5197 0.6803 0.6721
C15 C 0.5169(5) 0.6542(6) 0.6037(5)
C16 C 0.5593(5) 0.5986(6) 0.6314(5)
H23 H 0.5732 0.5898 0.6684
C17 C 0.5801(5) 0.5580(6) 0.6056(5)
C18 C 0.6267(5) 0.5007(6) 0.6355(6)
H24 H 0.6669 0.5154 0.6263
H25 H 0.6247 0.4691 0.6207
H26 H 0.6179 0.4812 0.6784
C19 C 0.5614(5) 0.5737(5) 0.5496(5)
H27 H 0.5765 0.5472 0.5311
C20 C 0.5201(5) 0.6286(5) 0.5185(5)
C21 C 0.4964(5) 0.6692(5) 0.5473(5)
C22 C 0.5011(5) 0.6457(5) 0.4576(5)
H28 H 0.5175 0.6116 0.4459
H29 H 0.4569 0.6484 0.4585
C23 C 0.3917(5) 0.9107(6) 0.4512(5)
H30 H 0.4269 0.9332 0.4485
H31 H 0.3601 0.9198 0.4775
C24 C 0.3685(5) 0.9346(6) 0.3885(5)
H32 H 0.3310 0.9155 0.3915
H33 H 0.3602 0.9816 0.3699
C25 C 0.4239(5) 0.9509(5) 0.2961(5)
H34 H 0.3983 0.9891 0.2800
C26 C 0.4683(5) 0.9392(5) 0.2542(5)
C27 C 0.4571(5) 0.9744(6) 0.1931(5)
H35 H 0.4226 1.0039 0.1823
C28 C 0.4955(6) 0.9670(7) 0.1475(5)
C29 C 0.4827(6) 1.0072(7) 0.0813(5)
H36 H 0.4464 1.0360 0.0780
H37 H 0.4772 0.9788 0.0641
H38 H 0.5166 1.0323 0.0602
C30 C 0.5490(5) 0.9244(6) 0.1654(5)
H39 H 0.5760 0.9189 0.1362
C31 C 0.5620(5) 0.8912(5) 0.2244(5)
C32 C 0.5227(5) 0.8959(5) 0.2713(5)
C33 C 0.6212(5) 0.8488(5) 0.2425(5)
H40 H 0.6124 0.8049 0.2709
H41 H 0.6432 0.8469 0.2072
C34 C 0.5585(5) 0.8325(6) 0.4975(5)
H42 H 0.5240 0.8148 0.5256
H43 H 0.5608 0.8766 0.4919
C35 C 0.6149(5) 0.7926(5) 0.5220(5)
H44 H 0.6109 0.7475 0.5320
H45 H 0.6226 0.7950 0.5584
C36 C 0.7193(5) 0.8132(5) 0.4940(5)
H46 H 0.7232 0.7942 0.5354
C37 C 0.7743(5) 0.8360(5) 0.4553(5)
C38 C 0.8302(5) 0.8098(5) 0.4825(5)
H47 H 0.8295 0.7808 0.5232
C39 C 0.8858(5) 0.8254(6) 0.4513(5)
C40 C 0.9456(6) 0.7974(6) 0.4820(6)
H48 H 0.9640 0.8310 0.4853
H49 H 0.9729 0.7804 0.4586
H50 H 0.9377 0.7631 0.5215
C41 C 0.8874(5) 0.8683(5) 0.3903(5)
H51 H 0.9246 0.8779 0.3680
C42 C 0.8308(5) 0.8976(6) 0.3620(5)
C43 C 0.7733(5) 0.8804(5) 0.3936(5)
C44 C 0.8321(5) 0.9493(5) 0.2982(5)
H52 H 0.8742 0.9538 0.2820
H53 H 0.8108 0.9359 0.2743
C45 C 0.4479(5) 1.0024(5) 0.6582(5)
H54 H 0.4545 0.9837 0.6298
H55 H 0.4785 1.0327 0.6485
C46 C 0.4546(5) 0.9497(5) 0.7207(5)
H56 H 0.4934 0.9238 0.7231
H57 H 0.4529 0.9680 0.7491
C47 C 0.4113(5) 0.8478(5) 0.7708(4)
H58 H 0.4492 0.8330 0.7871
C48 C 0.3670(5) 0.8001(6) 0.7886(6)
C49 C 0.3821(5) 0.7402(5) 0.8389(5)
H59 H 0.4179 0.7347 0.8575
C50 C 0.3450(5) 0.6901(5) 0.8607(5)
C51 C 0.3627(5) 0.6267(5) 0.9132(5)
H60 H 0.3285 0.6139 0.9423
H61 H 0.3963 0.6317 0.9315
H62 H 0.3745 0.5940 0.8994
C52 C 0.2937(5) 0.6988(5) 0.8303(5)
H63 H 0.2689 0.6647 0.8436
C53 C 0.2779(5) 0.7560(5) 0.7807(5)
C54 C 0.3128(5) 0.8093(5) 0.7583(5)
C55 C 0.2225(5) 0.7616(5) 0.7467(4)
H64 H 0.2001 0.7235 0.7691
H65 H 0.1955 0.7995 0.7436
C56 C 0.1369(5) 0.9097(5) 0.6214(5)
C57 C 0.0712(5) 0.9424(6) 0.6122(6)
C58 C 0.0436(5) 0.9473(6) 0.6698(5)
H66 H 0.0516 0.9064 0.7042
H67 H 0.0003 0.9580 0.6674
H68 H 0.0617 0.9807 0.6738
C59 C 0.0761(6) 1.0118(6) 0.5617(6)
H69 H 0.1008 1.0346 0.5737
H70 H 0.0360 1.0343 0.5542
H71 H 0.0945 1.0099 0.5256
C60 C 0.0315(7) 0.9062(7) 0.5924(8)
H72 H 0.0565 0.8873 0.5693
H73 H 0.0000 0.9363 0.5683
H74 H 0.0131 0.8724 0.6274
C61 C 0.3514(5) 0.6389(6) 0.6641(5)
C62 C 0.3556(5) 0.5788(6) 0.7254(6)
C63 C 0.2927(6) 0.5626(7) 0.7554(6)
H75 H 0.2721 0.5992 0.7605
H76 H 0.2962 0.5257 0.7942
H77 H 0.2697 0.5525 0.7308
C64 C 0.3917(6) 0.5950(6) 0.7655(5)
H78 H 0.3715 0.6325 0.7692
H79 H 0.4322 0.6039 0.7475
H80 H 0.3937 0.5586 0.8046
C65 C 0.3900(7) 0.5194(6) 0.7174(6)
H81 H 0.3925 0.4822 0.7561
H82 H 0.4305 0.5296 0.6997
H83 H 0.3682 0.5098 0.6916
C66 C 0.3773(5) 0.7902(5) 0.3498(5)
C67 C 0.3217(5) 0.8038(6) 0.3124(5)
C68 C 0.2815(6) 0.7455(6) 0.3428(6)
H84 H 0.2451 0.7557 0.3215
H85 H 0.2706 0.7374 0.3839
H86 H 0.3040 0.7075 0.3419
C69 C 0.2829(6) 0.8638(6) 0.3134(6)
H87 H 0.3067 0.9006 0.2957
H88 H 0.2702 0.8551 0.3544
H89 H 0.2475 0.8730 0.2909
C70 C 0.3416(6) 0.8166(7) 0.2482(5)
H90 H 0.3657 0.8531 0.2301
H91 H 0.3062 0.8259 0.2257
H92 H 0.3654 0.7789 0.2480
C71 C 0.6923(5) 0.7287(5) 0.4030(5)
C72 C 0.7208(6) 0.6601(5) 0.4353(5)
C73 C 0.7899(6) 0.6564(6) 0.4204(6)
H93 H 0.7978 0.6656 0.3787
H94 H 0.8077 0.6136 0.4452
H95 H 0.8074 0.6877 0.4279
C74 C 0.7085(6) 0.6431(6) 0.5037(5)
H96 H 0.7269 0.6731 0.5123
H97 H 0.7256 0.5996 0.5276
H98 H 0.6652 0.6461 0.5133
C75 C 0.6930(5) 0.6112(6) 0.4233(6)
H99 H 0.6496 0.6140 0.4323
H100 H 0.7103 0.5682 0.4484
H101 H 0.7012 0.6202 0.3817
C76 C 0.6979(5) 1.0493(5) 0.1837(5)
C77 C 0.6832(5) 1.0690(6) 0.1185(5)
C78 C 0.6133(6) 1.0836(7) 0.1154(6)
H102 H 0.6025 1.0966 0.0750
H103 H 0.6000 1.1180 0.1268
H104 H 0.5938 1.0452 0.1425
C79 C 0.7028(8) 1.0126(7) 0.1029(6)
H105 H 0.6909 1.0238 0.0633
H106 H 0.6835 0.9748 0.1317
H107 H 0.7463 1.0035 0.1040
C80 C 0.7130(7) 1.1303(6) 0.0757(6)
H108 H 0.7565 1.1209 0.0741
H109 H 0.7025 1.1630 0.0897
H110 H 0.6987 1.1458 0.0362
Gd1A Gd 0.73386(2) 1.12557(3) 0.38519(2)
Gd2A Gd 0.62947(2) 1.23903(3) 0.43923(2)
Gd3A Gd 0.53099(2) 1.19444(3) 0.58702(2)
Gd4A Gd 0.36588(2) 1.14378(2) 0.62812(2)
Gd5A Gd 0.30668(2) 0.97404(2) 0.69299(2)
O1A O 0.6941(3) 1.0329(3) 0.3956(3)
O2A O 0.7267(3) 1.1706(4) 0.4553(3)
O3A O 0.6908(3) 1.2774(4) 0.4897(4)
H1A H 0.6839(15) 1.267(6) 0.5272(13)
O4A O 0.6373(3) 1.1680(3) 0.3956(3)
O5A O 0.5419(3) 1.2787(3) 0.4821(3)
O6A O 0.4778(3) 1.2936(3) 0.5864(3)
H2A H 0.450(3) 1.3004(17) 0.610(3)
O7A O 0.5918(3) 1.1569(3) 0.5249(3)
O8A O 0.4630(3) 1.1379(3) 0.6712(3)
O9A O 0.3412(3) 1.1266(4) 0.7307(3)
H3A H 0.330(4) 1.090(2) 0.7568(18)
O10A O 0.4497(3) 1.1667(3) 0.5583(3)
O11A O 0.2777(3) 1.0903(3) 0.6348(3)
O12A O 0.1959(3) 0.9884(3) 0.7068(3)
H4A H 0.174(3) 0.973(3) 0.692(4)
O13A O 0.6109(3) 0.9640(3) 0.3474(3)
O14A O 0.7030(3) 1.1352(3) 0.2902(3)
O15A O 0.7594(4) 1.2327(4) 0.3126(3)
H5A H 0.741(4) 1.2684(19) 0.3105(15)
O16A O 0.8273(3) 1.0728(4) 0.3534(4)
O17A O 0.8435(3) 1.1298(4) 0.3996(3)
O18A O 0.6790(4) 1.3090(4) 0.3381(4)
O19A O 0.6211(3) 1.3612(4) 0.3826(3)
O20A O 0.6325(3) 1.2260(4) 0.5935(3)
O21A O 0.5711(3) 1.2020(4) 0.6744(3)
O22A O 0.3661(3) 1.2612(4) 0.6011(4)
O23A O 0.2768(3) 1.2236(4) 0.6179(3)
O24A O 0.3143(4) 1.0064(4) 0.7755(3)
O25A O 0.2827(3) 0.9105(3) 0.8031(3)
N1A N 0.7531(4) 1.0338(5) 0.4852(4)
N2A N 0.5463(4) 1.2650(4) 0.3718(4)
N3A N 0.5846(4) 1.0848(4) 0.6473(4)
N4A N 0.3339(4) 1.1832(4) 0.5234(4)
N5A N 0.5974(4) 1.0913(4) 0.2657(4)
C1A C 0.6819(5) 0.9841(5) 0.4548(5)
H6A H 0.6467 0.9986 0.4742
H7A H 0.6734 0.9446 0.4537
C2A C 0.7396(5) 0.9714(5) 0.4903(5)
H8A H 0.7738 0.9527 0.4734
H9A H 0.7319 0.9412 0.5323
C3A C 0.7753(5) 1.0352(5) 0.5301(5)
H10A H 0.7809 0.9957 0.5641
C4A C 0.7920(5) 1.0912(5) 0.5330(5)
C5A C 0.8342(5) 1.0817(6) 0.5744(5)
H11A H 0.8499 1.0392 0.5976
C6A C 0.8545(5) 1.1311(6) 0.5836(5)
C7A C 0.9024(5) 1.1183(6) 0.6267(6)
H12A H 0.8926 1.1460 0.6465
H13A H 0.9038 1.0736 0.6563
H14A H 0.9415 1.1271 0.6050
C8A C 0.8287(5) 1.1926(6) 0.5490(5)
H15A H 0.8416 1.2271 0.5529
C9A C 0.7852(5) 1.2064(5) 0.5090(5)
C10A C 0.7675(5) 1.1562(6) 0.4972(5)
C11A C 0.7557(5) 1.2746(5) 0.4757(5)
H16A H 0.7638 1.2891 0.4327
H17A H 0.7734 1.3037 0.4868
C12A C 0.5839(5) 1.1639(5) 0.3712(5)
H18A H 0.5943 1.1405 0.3469
H19A H 0.5545 1.1405 0.4035
C13A C 0.5570(5) 1.2313(6) 0.3332(5)
H20A H 0.5189 1.2299 0.3183
H21A H 0.5849 1.2538 0.2990
C14A C 0.5023(5) 1.3094(5) 0.3612(5)
H22A H 0.4803 1.3197 0.3279
C15A C 0.4831(5) 1.3458(6) 0.3963(5)
C16A C 0.4407(5) 1.4014(6) 0.3686(5)
H23A H 0.4268 1.4102 0.3316
C17A C 0.4199(5) 1.4420(6) 0.3944(5)
C18A C 0.3733(5) 1.4993(6) 0.3645(6)
H24A H 0.3331 1.4846 0.3737
H25A H 0.3753 1.5309 0.3793
H26A H 0.3821 1.5188 0.3216
C19A C 0.4386(5) 1.4263(5) 0.4504(5)
H27A H 0.4235 1.4528 0.4689
C20A C 0.4799(5) 1.3714(5) 0.4815(5)
C21A C 0.5036(5) 1.3308(5) 0.4527(5)
C22A C 0.4989(5) 1.3543(5) 0.5424(5)
H28A H 0.4825 1.3884 0.5541
H29A H 0.5431 1.3516 0.5415
C23A C 0.6083(5) 1.0893(6) 0.5488(5)
H30A H 0.5731 1.0668 0.5515
H31A H 0.6399 1.0802 0.5225
C24A C 0.6315(5) 1.0654(6) 0.6115(5)
H32A H 0.6690 1.0845 0.6085
H33A H 0.6398 1.0184 0.6301
C25A C 0.5761(5) 1.0491(5) 0.7039(5)
H34A H 0.6017 1.0109 0.7200
C26A C 0.5317(5) 1.0608(5) 0.7458(5)
C27A C 0.5429(5) 1.0256(6) 0.8069(5)
H35A H 0.5774 0.9961 0.8177
C28A C 0.5045(6) 1.0330(7) 0.8525(5)
C29A C 0.5173(6) 0.9928(7) 0.9187(5)
H36A H 0.5536 0.9640 0.9220
H37A H 0.5228 1.0212 0.9359
H38A H 0.4834 0.9677 0.9398
C30A C 0.4510(5) 1.0756(6) 0.8346(5)
H39A H 0.4240 1.0811 0.8638
C31A C 0.4380(5) 1.1088(5) 0.7756(5)
C32A C 0.4773(5) 1.1041(5) 0.7287(5)
C33A C 0.3788(5) 1.1512(5) 0.7575(5)
H40A H 0.3876 1.1951 0.7291
H41A H 0.3568 1.1531 0.7928
C34A C 0.4415(5) 1.1675(6) 0.5025(5)
H42A H 0.4760 1.1852 0.4744
H43A H 0.4392 1.1234 0.5081
C35A C 0.3851(5) 1.2074(5) 0.4780(5)
H44A H 0.3891 1.2525 0.4680
H45A H 0.3774 1.2050 0.4416
C36A C 0.2807(5) 1.1868(5) 0.5060(5)
H46A H 0.2768 1.2058 0.4646
C37A C 0.2257(5) 1.1640(5) 0.5447(5)
C38A C 0.1698(5) 1.1902(5) 0.5175(5)
H47A H 0.1705 1.2192 0.4768
C39A C 0.1142(5) 1.1746(6) 0.5487(5)
C40A C 0.0544(6) 1.2026(6) 0.5180(6)
H48A H 0.0360 1.1690 0.5147
H49A H 0.0271 1.2196 0.5414
H50A H 0.0623 1.2369 0.4785
C41A C 0.1126(5) 1.1317(5) 0.6097(5)
H51A H 0.0754 1.1221 0.6320
C42A C 0.1692(5) 1.1024(6) 0.6380(5)
C43A C 0.2267(5) 1.1196(5) 0.6064(5)
C44A C 0.1679(5) 1.0507(5) 0.7018(5)
H52A H 0.1258 1.0462 0.7180
H53A H 0.1892 1.0641 0.7257
C45A C 0.5521(5) 0.9976(5) 0.3418(5)
H54A H 0.5455 1.0163 0.3702
H55A H 0.5215 0.9673 0.3515
C46A C 0.5454(5) 1.0503(5) 0.2793(5)
H56A H 0.5066 1.0762 0.2769
H57A H 0.5471 1.0320 0.2509
C47A C 0.5887(5) 1.1522(5) 0.2292(4)
H58A H 0.5508 1.1670 0.2129
C48A C 0.6330(5) 1.1999(6) 0.2114(6)
C49A C 0.6179(5) 1.2598(5) 0.1611(5)
H59A H 0.5821 1.2653 0.1425
C50A C 0.6550(5) 1.3099(5) 0.1393(5)
C51A C 0.6373(5) 1.3733(5) 0.0868(5)
H60A H 0.6715 1.3861 0.0577
H61A H 0.6037 1.3683 0.0685
H62A H 0.6255 1.4060 0.1006
C52A C 0.7063(5) 1.3012(5) 0.1697(5)
H63A H 0.7311 1.3353 0.1564
C53A C 0.7221(5) 1.2440(5) 0.2193(5)
C54A C 0.6872(5) 1.1907(5) 0.2417(5)
C55A C 0.7775(5) 1.2384(5) 0.2533(4)
H64A H 0.7999 1.2765 0.2309
H65A H 0.8045 1.2005 0.2564
C56A C 0.8631(5) 1.0903(5) 0.3786(5)
C57A C 0.9288(5) 1.0576(6) 0.3878(6)
C58A C 0.9564(5) 1.0527(6) 0.3302(5)
H66A H 0.9484 1.0936 0.2958
H67A H 0.9997 1.0420 0.3326
H68A H 0.9383 1.0193 0.3262
C59A C 0.9239(6) 0.9882(6) 0.4383(6)
H69A H 0.8992 0.9654 0.4263
H70A H 0.9640 0.9657 0.4458
H71A H 0.9055 0.9901 0.4744
C60A C 0.9685(7) 1.0938(7) 0.4076(8)
H72A H 0.9435 1.1127 0.4307
H73A H 1.0000 1.0637 0.4317
H74A H 0.9869 1.1276 0.3726
C61A C 0.6486(5) 1.3611(6) 0.3359(5)
C62A C 0.6444(5) 1.4212(6) 0.2746(6)
C63A C 0.7073(6) 1.4374(7) 0.2446(6)
H75A H 0.7279 1.4008 0.2395
H76A H 0.7038 1.4743 0.2058
H77A H 0.7303 1.4475 0.2692
C64A C 0.6083(6) 1.4050(6) 0.2345(5)
H78A H 0.6285 1.3675 0.2308
H79A H 0.5678 1.3961 0.2525
H80A H 0.6063 1.4414 0.1954
C65A C 0.6100(7) 1.4806(6) 0.2826(6)
H81A H 0.6075 1.5178 0.2439
H82A H 0.5695 1.4704 0.3003
H83A H 0.6318 1.4902 0.3084
C66A C 0.6227(5) 1.2098(5) 0.6502(5)
C67A C 0.6783(5) 1.1962(6) 0.6876(5)
C68A C 0.7185(6) 1.2545(6) 0.6572(6)
H84A H 0.7549 1.2443 0.6785
H85A H 0.7294 1.2626 0.6161
H86A H 0.6960 1.2925 0.6581
C69A C 0.7171(6) 1.1362(6) 0.6866(6)
H87A H 0.6933 1.0994 0.7043
H88A H 0.7298 1.1449 0.6456
H89A H 0.7525 1.1270 0.7091
C70A C 0.6584(6) 1.1834(7) 0.7518(5)
H90A H 0.6343 1.1469 0.7699
H91A H 0.6938 1.1741 0.7743
H92A H 0.6346 1.2211 0.7520
C71A C 0.3077(5) 1.2713(5) 0.5970(5)
C72A C 0.2792(6) 1.3399(5) 0.5647(5)
C73A C 0.2101(6) 1.3436(6) 0.5796(6)
H93A H 0.2022 1.3344 0.6213
H94A H 0.1923 1.3864 0.5548
H95A H 0.1926 1.3123 0.5721
C74A C 0.2915(6) 1.3569(6) 0.4963(5)
H96A H 0.2731 1.3269 0.4877
H97A H 0.2744 1.4004 0.4724
H98A H 0.3348 1.3539 0.4867
C75A C 0.3070(5) 1.3888(6) 0.5767(6)
H99A H 0.3504 1.3860 0.5677
H100A H 0.2897 1.4318 0.5516
H101A H 0.2988 1.3798 0.6183
C76A C 0.3021(5) 0.9507(5) 0.8163(5)
C77A C 0.3168(5) 0.9310(6) 0.8815(5)
C78A C 0.3867(6) 0.9164(7) 0.8846(6)
H102A H 0.3975 0.9034 0.9250
H103A H 0.4000 0.8820 0.8732
H104A H 0.4062 0.9548 0.8575
C79A C 0.2972(8) 0.9874(7) 0.8971(6)
H105A H 0.3091 0.9762 0.9367
H106A H 0.3165 1.0252 0.8683
H107A H 0.2537 0.9965 0.8960
C80A C 0.2870(7) 0.8697(6) 0.9243(6)
H108A H 0.2435 0.8791 0.9259
H109A H 0.2975 0.8370 0.9103
H110A H 0.3013 0.8542 0.9638
Gd6 Gd 1.10300(2) 0.30151(3) 0.91620(2)
Gd7 Gd 0.93590(2) 0.35512(3) 0.87274(2)
Gd8 Gd 0.84991(2) 0.52577(3) 0.80761(2)
Gd9 Gd 0.76388(2) 0.62790(3) 0.88409(2)
Gd10 Gd 0.82540(2) 0.74178(3) 0.93588(2)
O26 O 1.1376(3) 0.3393(4) 0.9781(3)
O27 O 1.0429(3) 0.3596(3) 0.8307(3)
O28 O 0.9331(3) 0.3726(4) 0.7696(3)
H111 H 0.909(3) 0.397(4) 0.7424(15)
O29 O 1.0061(3) 0.3322(4) 0.9431(3)
O30 O 0.8349(3) 0.4096(3) 0.8649(3)
O31 O 0.7452(3) 0.5149(4) 0.7940(3)
H112 H 0.7120(11) 0.537(3) 0.797(5)
O32 O 0.9371(3) 0.4618(3) 0.8500(3)
O33 O 0.8173(3) 0.6358(3) 0.7897(3)
O34 O 0.7286(3) 0.7340(4) 0.8098(3)
H113 H 0.744(5) 0.767(3) 0.8088(16)
O35 O 0.8251(3) 0.5329(3) 0.8962(3)
O36 O 0.7414(3) 0.6752(3) 0.9527(3)
O37 O 0.7408(3) 0.7847(3) 0.9823(3)
H114 H 0.745(2) 0.766(5) 1.0202(7)
O38 O 1.1526(3) 0.3325(4) 1.1046(3)
O39 O 1.1079(3) 0.2186(3) 1.0215(3)
O40 O 1.0754(3) 0.2028(3) 0.9179(3)
H115 H 1.0386(17) 0.200(2) 0.913(4)
O41 O 1.2134(3) 0.2656(4) 0.9130(3)
O42 O 1.1666(3) 0.2902(4) 0.8313(3)
O43 O 0.9589(3) 0.2371(4) 0.9017(4)
O44 O 0.8648(4) 0.2774(4) 0.8779(3)
O45 O 0.8885(4) 0.4929(4) 0.7262(3)
O46 O 0.8384(3) 0.5887(4) 0.6972(3)
O47 O 0.6914(3) 0.5777(4) 0.8521(4)
O48 O 0.6490(3) 0.6347(4) 0.8994(3)
O49 O 0.7841(3) 0.8100(4) 0.8345(3)
O50 O 0.8183(3) 0.8640(4) 0.8753(4)
N6 N 1.1446(4) 0.4092(4) 0.8555(4)
N7 N 0.8859(4) 0.3161(4) 0.9771(4)
N8 N 0.9416(4) 0.5884(4) 0.7674(4)
N9 N 0.7429(4) 0.5376(4) 0.9851(4)
N10 N 1.0800(4) 0.2350(4) 1.1307(4)
C81 C 1.1440(5) 0.4071(5) 0.9529(5)
H116 H 1.1662 0.4161 0.9793
H117 H 1.1039 0.4309 0.9489
C82 C 1.1786(5) 0.4288(6) 0.8908(5)
H118 H 1.1805 0.4756 0.8714
H119 H 1.2200 0.4080 0.8948
C83 C 1.1420(5) 0.4457(6) 0.7989(5)
H120 H 1.1614 0.4839 0.7831
C84 C 1.1119(5) 0.4336(5) 0.7573(5)
C85 C 1.1302(5) 0.4678(6) 0.6956(5)
H121 H 1.1608 0.4957 0.6852
C86 C 1.1051(5) 0.4623(6) 0.6491(5)
C87 C 1.1255(6) 0.4999(7) 0.5844(5)
H122 H 1.1124 0.4808 0.5611
H123 H 1.1693 0.4991 0.5804
H124 H 1.1081 0.5441 0.5700
C88 C 1.0591(5) 0.4210(6) 0.6672(5)
H125 H 1.0419 0.4154 0.6377
C89 C 1.0370(5) 0.3871(5) 0.7268(5)
C90 C 1.0635(5) 0.3917(5) 0.7737(5)
C91 C 0.9849(5) 0.3458(6) 0.7439(5)
H126 H 0.9732 0.3437 0.7085
H127 H 0.9975 0.3019 0.7730
C92 C 0.9837(5) 0.3311(6) 0.9987(5)
H128 H 0.9708 0.3751 0.9933
H129 H 1.0156 0.3132 1.0269
C93 C 0.9302(5) 0.2899(6) 1.0232(6)
H130 H 0.9436 0.2449 1.0322
H131 H 0.9120 0.2914 1.0599
C94 C 0.8293(5) 0.3139(5) 0.9938(5)
H132 H 0.8194 0.2957 1.0351
C95 C 0.7784(5) 0.3369(5) 0.9551(5)
C96 C 0.7220(6) 0.3142(6) 0.9813(5)
H133 H 0.7193 0.2857 1.0222
C97 C 0.6705(5) 0.3312(6) 0.9504(5)
C98 C 0.6103(5) 0.3054(7) 0.9820(6)
H134 H 0.6170 0.2724 1.0221
H135 H 0.5930 0.2871 0.9601
H136 H 0.5827 0.3403 0.9837
C99 C 0.6728(6) 0.3751(6) 0.8879(6)
H137 H 0.6390 0.3854 0.8653
C100 C 0.7297(5) 0.4030(5) 0.8613(5)
C101 C 0.7825(5) 0.3834(5) 0.8933(5)
C102 C 0.7313(5) 0.4533(5) 0.7977(5)
H138 H 0.7622 0.4395 0.7739
H139 H 0.6921 0.4589 0.7814
C103 C 0.9902(5) 0.4937(5) 0.8466(5)
H140 H 1.0260 0.4626 0.8569
H141 H 0.9844 0.5128 0.8747
C104 C 0.9990(5) 0.5466(5) 0.7822(5)
H142 H 1.0320 0.5720 0.7790
H143 H 1.0089 0.5272 0.7546
C105 C 0.9433(5) 0.6484(5) 0.7320(5)
H144 H 0.9819 0.6627 0.7172
C106 C 0.8917(5) 0.6977(5) 0.7116(5)
C107 C 0.9050(5) 0.7561(6) 0.6620(5)
H145 H 0.9447 0.7608 0.6449
C108 C 0.8605(5) 0.8074(5) 0.6377(5)
C109 C 0.8760(6) 0.8703(6) 0.5834(6)
H146 H 0.8773 0.9036 0.5961
H147 H 0.8453 0.8835 0.5548
H148 H 0.9151 0.8635 0.5649
C110 C 0.8019(5) 0.7997(6) 0.6673(5)
H149 H 0.7712 0.8335 0.6527
C111 C 0.7887(5) 0.7425(5) 0.7180(5)
C112 C 0.8325(5) 0.6895(5) 0.7411(5)
C113 C 0.7270(5) 0.7398(5) 0.7488(5)
H150 H 0.7017 0.7789 0.7252
H151 H 0.7085 0.7028 0.7512
C114 C 0.8327(5) 0.4859(5) 0.9546(5)
H152 H 0.8596 0.5001 0.9736
H153 H 0.8517 0.4459 0.9540
C115 C 0.7719(5) 0.4729(5) 0.9913(5)
H154 H 0.7463 0.4534 0.9760
H155 H 0.7782 0.4436 1.0333
C116 C 0.7101(5) 0.5404(5) 1.0295(5)
H156 H 0.7067 0.5013 1.0641
C117 C 0.6776(5) 0.5980(5) 1.0319(5)
C118 C 0.6276(5) 0.5883(6) 1.0744(5)
H157 H 0.6178 0.5459 1.0990
C119 C 0.5922(5) 0.6384(6) 1.0816(5)
C120 C 0.5365(5) 0.6270(7) 1.1262(5)
H158 H 0.5281 0.5823 1.1429
H159 H 0.5018 0.6545 1.1057
H160 H 0.5445 0.6371 1.1579
C121 C 0.6107(6) 0.7010(6) 1.0462(6)
H161 H 0.5887 0.7359 1.0507
C122 C 0.6610(5) 0.7130(6) 1.0044(5)
C123 C 0.6942(5) 0.6621(5) 0.9948(5)
C124 C 0.6798(5) 0.7807(6) 0.9697(5)
H162 H 0.6783 0.7940 0.9269
H163 H 0.6514 0.8102 0.9803
C125 C 1.0918(5) 0.3379(6) 1.1275(5)
H164 H 1.0891 0.3630 1.1503
H165 H 1.0652 0.3603 1.0944
C126 C 1.0720(5) 0.2702(6) 1.1679(5)
H166 H 1.0296 0.2728 1.1824
H167 H 1.0969 0.2483 1.2023
C127 C 1.0436(5) 0.1925(5) 1.1408(5)
H168 H 1.0137 0.1855 1.1721
C128 C 1.0442(5) 0.1534(5) 1.1080(5)
C129 C 1.0114(5) 0.0987(6) 1.1358(6)
H169 H 0.9917 0.0899 1.1734
C130 C 1.0063(6) 0.0565(6) 1.1116(6)
C131 C 0.9698(7) -0.0023(6) 1.1438(6)
H170 H 0.9840 -0.0286 1.1834
H171 H 0.9750 -0.0274 1.1213
H172 H 0.9274 0.0118 1.1469
C132 C 1.0371(5) 0.0719(6) 1.0558(6)
H173 H 1.0359 0.0442 1.0382
C133 C 1.0695(5) 0.1261(5) 1.0249(5)
C134 C 1.0752(5) 0.1683(6) 1.0508(6)
C135 C 1.1001(5) 0.1414(5) 0.9632(5)
H174 H 1.1436 0.1427 0.9643
H175 H 1.0948 0.1070 0.9524
C136 C 1.2157(5) 0.2791(5) 0.8581(5)
C137 C 1.2775(6) 0.2880(6) 0.8217(6)
C138 C 1.3235(6) 0.2317(7) 0.8588(6)
H176 H 1.3624 0.2359 0.8365
H177 H 1.3089 0.1910 0.8671
H178 H 1.3279 0.2330 0.8961
C139 C 1.2988(6) 0.3524(7) 0.8115(7)
H179 H 1.2701 0.3875 0.7883
H180 H 1.3382 0.3580 0.7900
H181 H 1.3016 0.3524 0.8497
C140 C 1.2706(6) 0.2865(8) 0.7604(6)
H182 H 1.2446 0.3238 0.7360
H183 H 1.2529 0.2475 0.7681
H184 H 1.3101 0.2874 0.7396
C141 C 0.9034(6) 0.2292(5) 0.9010(5)
C142 C 0.8818(6) 0.1611(6) 0.9343(6)
C143 C 0.9243(6) 0.1127(7) 0.9186(7)
H185 H 0.9209 0.1225 0.8773
H186 H 0.9131 0.0694 0.9442
H187 H 0.9656 0.1158 0.9246
C144 C 0.8845(6) 0.1420(7) 1.0020(6)
H188 H 0.9245 0.1472 1.0095
H189 H 0.8759 0.0974 1.0253
H190 H 0.8548 0.1694 1.0133
C145 C 0.8153(6) 0.1618(6) 0.9205(7)
H191 H 0.7894 0.1921 0.9315
H192 H 0.8016 0.1191 0.9433
H193 H 0.8134 0.1747 0.8783
C146 C 0.8717(5) 0.5489(6) 0.6849(5)
C147 C 0.8999(6) 0.5693(6) 0.6192(5)
C148 C 0.8991(8) 0.5151(8) 0.6021(7)
H194 H 0.8576 0.5073 0.6020
H195 H 0.9203 0.4764 0.6308
H196 H 0.9190 0.5270 0.5627
C149 C 0.9670(6) 0.5840(7) 0.6185(6)
H197 H 0.9878 0.5475 0.6498
H198 H 0.9667 0.6219 0.6251
H199 H 0.9877 0.5917 0.5801
C150 C 0.8660(7) 0.6319(8) 0.5764(6)
H200 H 0.8838 0.6445 0.5361
H201 H 0.8689 0.6657 0.5882
H202 H 0.8238 0.6251 0.5779
C151 C 0.6455(5) 0.5947(5) 0.8790(5)
C152 C 0.5858(5) 0.5622(5) 0.8901(6)
C153 C 0.5333(7) 0.5982(7) 0.9109(8)
H203 H 0.5493 0.6250 0.9253
H204 H 0.5090 0.5673 0.9428
H205 H 0.5085 0.6250 0.8778
C154 C 0.5717(6) 0.5580(8) 0.8312(7)
H206 H 0.5305 0.5471 0.8349
H207 H 0.5995 0.5251 0.8260
H208 H 0.5766 0.5992 0.7969
C155 C 0.5969(6) 0.4930(6) 0.9418(6)
H209 H 0.6019 0.4959 0.9782
H210 H 0.6332 0.4713 0.9316
H211 H 0.5626 0.4689 0.9475
C156 C 0.8031(5) 0.8629(6) 0.8295(5)
C157 C 0.8085(6) 0.9198(6) 0.7681(6)
C158 C 0.8593(6) 0.8993(6) 0.7305(6)
H212 H 0.8973 0.8897 0.7491
H213 H 0.8632 0.9342 0.6905
H214 H 0.8490 0.8614 0.7283
C159 C 0.7482(6) 0.9385(7) 0.7351(6)
H215 H 0.7350 0.9005 0.7351
H216 H 0.7551 0.9706 0.6943
H217 H 0.7172 0.9558 0.7556
C160 C 0.8269(6) 0.9789(5) 0.7724(6)
H218 H 0.7948 0.9937 0.7938
H219 H 0.8340 1.0131 0.7326
H220 H 0.8636 0.9670 0.7936
Gd6A Gd 0.89700(2) 0.69849(3) 1.08380(2)
Gd7A Gd 1.06410(2) 0.64488(3) 1.12726(2)
Gd8A Gd 1.15009(2) 0.47423(3) 1.19239(2)
Gd9A Gd 1.23612(2) 0.37210(3) 1.11591(2)
Gd10A Gd 1.17460(2) 0.25822(3) 1.06412(2)
O26A O 0.8624(3) 0.6607(4) 1.0219(3)
O27A O 0.9571(3) 0.6404(3) 1.1693(3)
O28A O 1.0669(3) 0.6274(4) 1.2304(3)
H111A H 1.091(3) 0.603(4) 1.2576(15)
O29A O 0.9939(3) 0.6678(4) 1.0569(3)
O30A O 1.1651(3) 0.5904(3) 1.1351(3)
O31A O 1.2548(3) 0.4851(4) 1.2060(3)
H112A H 1.2880(11) 0.463(3) 1.203(5)
O32A O 1.0629(3) 0.5382(3) 1.1500(3)
O33A O 1.1827(3) 0.3642(3) 1.2103(3)
O34A O 1.2714(3) 0.2660(4) 1.1902(3)
H113A H 1.256(5) 0.233(3) 1.1912(16)
O35A O 1.1749(3) 0.4671(3) 1.1038(3)
O36A O 1.2586(3) 0.3248(3) 1.0473(3)
O37A O 1.2592(3) 0.2153(3) 1.0177(3)
H114A H 1.255(2) 0.234(5) 0.9798(7)
O38A O 0.8474(3) 0.6675(4) 0.8954(3)
O39A O 0.8921(3) 0.7814(3) 0.9785(3)
O40A O 0.9246(3) 0.7972(3) 1.0821(3)
H115A H 0.9614(17) 0.800(2) 1.087(4)
O41A O 0.7866(3) 0.7344(4) 1.0870(3)
O42A O 0.8334(3) 0.7098(4) 1.1687(3)
O43A O 1.0411(3) 0.7629(4) 1.0983(4)
O44A O 1.1352(4) 0.7226(4) 1.1221(3)
O45A O 1.1115(4) 0.5071(4) 1.2738(3)
O46A O 1.1616(3) 0.4113(4) 1.3028(3)
O47A O 1.3086(3) 0.4223(4) 1.1479(4)
O48A O 1.3510(3) 0.3653(4) 1.1006(3)
O49A O 1.2159(3) 0.1900(4) 1.1655(3)
O50A O 1.1817(3) 0.1360(4) 1.1247(4)
N6A N 0.8554(4) 0.5908(4) 1.1445(4)
N7A N 1.1141(4) 0.6839(4) 1.0229(4)
N8A N 1.0584(4) 0.4116(4) 1.2326(4)
N9A N 1.2571(4) 0.4624(4) 1.0149(4)
N10A N 0.9200(4) 0.7650(4) 0.8693(4)
C81A C 0.8560(5) 0.5929(5) 1.0471(5)
H116A H 0.8338 0.5839 1.0207
H117A H 0.8961 0.5691 1.0511
C82A C 0.8214(5) 0.5712(6) 1.1092(5)
H118A H 0.8195 0.5244 1.1286
H119A H 0.7800 0.5920 1.1052
C83A C 0.8580(5) 0.5543(6) 1.2011(5)
H120A H 0.8386 0.5161 1.2169
C84A C 0.8881(5) 0.5664(5) 1.2427(5)
C85A C 0.8698(5) 0.5322(6) 1.3044(5)
H121A H 0.8392 0.5043 1.3148
C86A C 0.8949(5) 0.5377(6) 1.3509(5)
C87A C 0.8745(6) 0.5001(7) 1.4156(5)
H122A H 0.8876 0.5192 1.4389
H123A H 0.8307 0.5009 1.4196
H124A H 0.8919 0.4559 1.4300
C88A C 0.9409(5) 0.5790(6) 1.3328(5)
H125A H 0.9581 0.5846 1.3623
C89A C 0.9630(5) 0.6129(5) 1.2732(5)
C90A C 0.9365(5) 0.6083(5) 1.2263(5)
C91A C 1.0151(5) 0.6542(6) 1.2561(5)
H126A H 1.0268 0.6563 1.2915
H127A H 1.0025 0.6981 1.2270
C92A C 1.0163(5) 0.6689(6) 1.0013(5)
H128A H 1.0292 0.6249 1.0067
H129A H 0.9844 0.6868 0.9731
C93A C 1.0698(5) 0.7101(6) 0.9768(6)
H130A H 1.0564 0.7551 0.9678
H131A H 1.0880 0.7086 0.9401
C94A C 1.1707(5) 0.6861(5) 1.0062(5)
H132A H 1.1806 0.7043 0.9649
C95A C 1.2216(5) 0.6631(5) 1.0449(5)
C96A C 1.2780(6) 0.6858(6) 1.0187(5)
H133A H 1.2807 0.7143 0.9778
C97A C 1.3295(5) 0.6688(6) 1.0496(5)
C98A C 1.3897(5) 0.6946(7) 1.0180(6)
H134A H 1.3830 0.7276 0.9779
H135A H 1.4070 0.7129 1.0399
H136A H 1.4173 0.6597 1.0163
C99A C 1.3272(6) 0.6249(6) 1.1121(6)
H137A H 1.3610 0.6146 1.1347
C100A C 1.2703(5) 0.5970(5) 1.1387(5)
C101A C 1.2175(5) 0.6166(5) 1.1067(5)
C102A C 1.2687(5) 0.5467(5) 1.2023(5)
H138A H 1.2378 0.5605 1.2261
H139A H 1.3079 0.5411 1.2186
C103A C 1.0098(5) 0.5063(5) 1.1534(5)
H140A H 0.9740 0.5374 1.1431
H141A H 1.0156 0.4872 1.1253
C104A C 1.0010(5) 0.4534(5) 1.2178(5)
H142A H 0.9680 0.4280 1.2210
H143A H 0.9911 0.4728 1.2454
C105A C 1.0567(5) 0.3516(5) 1.2680(5)
H144A H 1.0181 0.3373 1.2828
C106A C 1.1083(5) 0.3023(5) 1.2884(5)
C107A C 1.0950(5) 0.2439(6) 1.3380(5)
H145A H 1.0553 0.2392 1.3551
C108A C 1.1395(5) 0.1926(5) 1.3623(5)
C109A C 1.1240(6) 0.1297(6) 1.4166(6)
H146A H 1.1227 0.0964 1.4039
H147A H 1.1547 0.1165 1.4452
H148A H 1.0849 0.1365 1.4351
C110A C 1.1981(5) 0.2003(6) 1.3327(5)
H149A H 1.2288 0.1665 1.3473
C111A C 1.2113(5) 0.2575(5) 1.2820(5)
C112A C 1.1675(5) 0.3105(5) 1.2589(5)
C113A C 1.2730(5) 0.2602(5) 1.2512(5)
H150A H 1.2983 0.2211 1.2748
H151A H 1.2915 0.2972 1.2488
C114A C 1.1673(5) 0.5141(5) 1.0454(5)
H152A H 1.1404 0.4999 1.0264
H153A H 1.1483 0.5541 1.0460
C115A C 1.2281(5) 0.5271(5) 1.0087(5)
H154A H 1.2537 0.5466 1.0240
H155A H 1.2218 0.5564 0.9667
C116A C 1.2899(5) 0.4596(5) 0.9705(5)
H156A H 1.2933 0.4987 0.9359
C117A C 1.3224(5) 0.4020(5) 0.9681(5)
C118A C 1.3724(5) 0.4117(6) 0.9256(5)
H157A H 1.3822 0.4541 0.9010
C119A C 1.4078(5) 0.3616(6) 0.9184(5)
C120A C 1.4635(5) 0.3730(7) 0.8738(5)
H158A H 1.4719 0.4177 0.8571
H159A H 1.4982 0.3455 0.8943
H160A H 1.4555 0.3629 0.8421
C121A C 1.3893(6) 0.2990(6) 0.9538(6)
H161A H 1.4113 0.2641 0.9493
C122A C 1.3390(5) 0.2870(6) 0.9956(5)
C123A C 1.3058(5) 0.3379(5) 1.0052(5)
C124A C 1.3202(5) 0.2193(6) 1.0303(5)
H162A H 1.3217 0.2060 1.0731
H163A H 1.3486 0.1898 1.0197
C125A C 0.9082(5) 0.6621(6) 0.8725(5)
H164A H 0.9109 0.6370 0.8497
H165A H 0.9348 0.6397 0.9056
C126A C 0.9280(5) 0.7298(6) 0.8321(5)
H166A H 0.9704 0.7272 0.8176
H167A H 0.9031 0.7517 0.7977
C127A C 0.9564(5) 0.8075(5) 0.8592(5)
H168A H 0.9863 0.8145 0.8279
C128A C 0.9558(5) 0.8466(5) 0.8920(5)
C129A C 0.9886(5) 0.9013(6) 0.8642(6)
H169A H 1.0083 0.9101 0.8266
C130A C 0.9937(6) 0.9435(6) 0.8884(6)
C131A C 1.0302(7) 1.0023(6) 0.8562(6)
H170A H 1.0160 1.0286 0.8166
H171A H 1.0250 1.0274 0.8787
H172A H 1.0726 0.9882 0.8531
C132A C 0.9629(5) 0.9281(6) 0.9442(6)
H173A H 0.9641 0.9558 0.9618
C133A C 0.9305(5) 0.8739(5) 0.9751(5)
C134A C 0.9248(5) 0.8317(6) 0.9492(6)
C135A C 0.8999(5) 0.8586(5) 1.0368(5)
H174A H 0.8564 0.8573 1.0357
H175A H 0.9052 0.8930 1.0476
C136A C 0.7843(5) 0.7209(5) 1.1419(5)
C137A C 0.7225(6) 0.7120(6) 1.1783(6)
C138A C 0.6765(6) 0.7683(7) 1.1412(6)
H176A H 0.6376 0.7641 1.1635
H177A H 0.6911 0.8090 1.1329
H178A H 0.6721 0.7670 1.1039
C139A C 0.7012(6) 0.6476(7) 1.1885(7)
H179A H 0.7299 0.6125 1.2117
H180A H 0.6618 0.6420 1.2100
H181A H 0.6984 0.6476 1.1503
C140A C 0.7294(6) 0.7135(8) 1.2396(6)
H182A H 0.7554 0.6762 1.2640
H183A H 0.7471 0.7525 1.2319
H184A H 0.6899 0.7126 1.2604
C141A C 1.0966(6) 0.7708(5) 1.0990(5)
C142A C 1.1182(6) 0.8389(6) 1.0657(6)
C143A C 1.0757(6) 0.8873(7) 1.0814(7)
H185A H 1.0791 0.8775 1.1227
H186A H 1.0869 0.9306 1.0558
H187A H 1.0344 0.8842 1.0754
C144A C 1.1155(6) 0.8580(7) 0.9980(6)
H188A H 1.0755 0.8528 0.9905
H189A H 1.1241 0.9026 0.9747
H190A H 1.1452 0.8306 0.9867
C145A C 1.1847(6) 0.8382(6) 1.0795(7)
H191A H 1.2106 0.8079 1.0685
H192A H 1.1984 0.8809 1.0567
H193A H 1.1866 0.8253 1.1217
C146A C 1.1283(5) 0.4511(6) 1.3151(5)
C147A C 1.1001(6) 0.4307(6) 1.3808(5)
C148A C 1.1009(8) 0.4849(8) 1.3979(7)
H194A H 1.1424 0.4927 1.3980
H195A H 1.0797 0.5236 1.3692
H196A H 1.0810 0.4730 1.4373
C149A C 1.0330(6) 0.4160(7) 1.3815(6)
H197A H 1.0122 0.4525 1.3502
H198A H 1.0333 0.3781 1.3749
H199A H 1.0123 0.4083 1.4199
C150A C 1.1340(7) 0.3681(8) 1.4236(6)
H200A H 1.1162 0.3555 1.4639
H201A H 1.1311 0.3343 1.4118
H202A H 1.1762 0.3749 1.4221
C151A C 1.3545(5) 0.4053(5) 1.1210(5)
C152A C 1.4142(5) 0.4378(5) 1.1099(6)
C153A C 1.4667(7) 0.4018(7) 1.0891(8)
H203A H 1.4507 0.3750 1.0747
H204A H 1.4910 0.4327 1.0572
H205A H 1.4915 0.3750 1.1222
C154A C 1.4283(6) 0.4420(8) 1.1688(7)
H206A H 1.4695 0.4529 1.1651
H207A H 1.4005 0.4749 1.1740
H208A H 1.4234 0.4008 1.2031
C155A C 1.4031(6) 0.5070(6) 1.0582(6)
H209A H 1.3981 0.5041 1.0218
H210A H 1.3668 0.5287 1.0684
H211A H 1.4374 0.5311 1.0525
C156A C 1.1969(5) 0.1371(6) 1.1705(5)
C157A C 1.1915(6) 0.0802(6) 1.2319(6)
C158A C 1.1407(6) 0.1007(6) 1.2695(6)
H212A H 1.1027 0.1103 1.2509
H213A H 1.1368 0.0658 1.3095
H214A H 1.1510 0.1386 1.2717
C159A C 1.2518(6) 0.0615(7) 1.2649(6)
H215A H 1.2650 0.0995 1.2649
H216A H 1.2449 0.0294 1.3057
H217A H 1.2828 0.0442 1.2444
C160A C 1.1731(6) 0.0211(5) 1.2276(6)
H218A H 1.2052 0.0063 1.2062
H219A H 1.1660 -0.0131 1.2674
H220A H 1.1364 0.0330 1.2064
Cl1 Cl 0.0589(2) 0.17063(19) 0.79603(19)
Cl2 Cl 0.1675(3) 0.2031(2) 0.71548(18)
Cl3 Cl 0.1788(2) 0.1208(2) 0.84095(19)
C161 C 0.1363(7) 0.1872(6) 0.7880(6)
H221 H 0.1383 0.2255 0.7948
Cl4 Cl 0.28048(16) 0.54500(19) 0.59545(18)
Cl5 Cl 0.40655(15) 0.51052(17) 0.56734(17)
Cl6 Cl 0.3282(2) 0.5929(2) 0.47146(18)
C162 C 0.3450(6) 0.5719(6) 0.5458(6)
H222 H 0.3570 0.6104 0.5473
Cl7 Cl 0.42932(19) 0.3528(2) 0.68668(17)
Cl8 Cl 0.49116(19) 0.2557(2) 0.78811(17)
Cl9 Cl 0.5590(2) 0.3503(2) 0.6879(2)
C163 C 0.4976(6) 0.3029(7) 0.7100(6)
H223 H 0.5037 0.2737 0.6906
Cl10 Cl 0.5238(3) 0.1646(3) 0.9410(2)
Cl11 Cl 0.6372(3) 0.0905(3) 0.9387(3)
Cl12 Cl 0.6310(3) 0.2296(3) 0.8828(3)
C164 C 0.5912(8) 0.1625(8) 0.8986(7)
H224 H 0.5817 0.1637 0.8607
Cl13 Cl 0.8596(3) 0.2499(3) 0.7469(3)
Cl14 Cl 0.7416(3) 0.2971(3) 0.7819(2)
Cl15 Cl 0.8112(3) 0.3837(3) 0.6820(3)
C165 C 0.8090(8) 0.3158(9) 0.7553(8)
H225 H 0.8272 0.3274 0.7827
Cl16 Cl 0.56941(14) 0.76183(16) 0.78828(14)
Cl17 Cl 0.52820(16) 0.7706(2) 0.89968(16)
Cl18 Cl 0.61524(18) 0.85574(17) 0.81520(18)
C166 C 0.5907(5) 0.7768(6) 0.8462(6)
H226 H 0.6243 0.7449 0.8665
Cl19 Cl 0.68970(17) 0.9637(2) 0.88748(19)
Cl20 Cl 0.7158(2) 0.9188(2) 1.01126(19)
Cl21 Cl 0.7933(2) 1.0054(2) 0.9168(2)
C167 C 0.7468(6) 0.9415(7) 0.9389(7)
H227 H 0.7724 0.9041 0.9378
Cl22 Cl 0.08162(15) 0.73954(17) 0.70940(14)
Cl23 Cl 0.07022(16) 0.7392(2) 0.59438(16)
Cl24 Cl 0.15684(19) 0.64748(18) 0.6767(2)
C168 C 0.1206(6) 0.7270(6) 0.6483(6)
H228 H 0.1518 0.7580 0.6293
O51 O 0.9884(5) 0.4070(4) 0.5426(3)
H229 H 1.0109 0.3724 0.5475
H230 H 0.9517 0.3980 0.5543
O52 O 0.9859(7) 0.7270(4) 0.3710(4)
H231 H 1.0035 0.7013 0.4030
H232 H 0.9485 0.7202 0.3754
O53 O 0.8468(9) 0.1481(11) 0.1635(7)
O54 O 0.0842(9) 0.6814(7) 0.4594(10)
H233 H 0.1188 0.6623 0.4558
H234 H 0.0564 0.6643 0.4522
O55 O 0.8969(6) 0.2122(8) 0.1782(5)
N11 N 0.1819(6) 0.5910(7) 0.8614(7)
C169 C 0.0585(10) 0.6182(8) 0.8800(7)
H235 H 0.0379 0.6238 0.8459
H236 H 0.0517 0.6575 0.8850
H237 H 0.0430 0.5829 0.9156
C170 C 0.1293(6) 0.6027(7) 0.8694(7)
N12 N 0.6683(6) 0.9057(7) 0.6350(6)
C171 C 0.5566(9) 0.8796(7) 0.6218(7)
H238 H 0.5291 0.8810 0.6540
H239 H 0.5588 0.8372 0.6231
H240 H 0.5420 0.9117 0.5839
C172 C 0.6212(7) 0.8941(7) 0.6286(7)
N13 N 0.6186(5) 0.7177(6) 0.6809(5)
C173 C 0.7078(6) 0.6430(7) 0.6610(7)
H241 H 0.7436 0.6664 0.6463
H242 H 0.6972 0.6307 0.6315
H243 H 0.7158 0.6046 0.6978
C174 C 0.6565(6) 0.6849(7) 0.6725(6)
loop_
_geom_bond_atom_site_label_1
_geom_bond_atom_site_label_2
_geom_bond_site_symmetry_1
_geom_bond_site_symmetry_2
Gd1 O1 1_555 1_555
Gd2 O2 1_555 1_555
Gd3 O5 1_555 1_555
Gd4 O8 1_555 1_555
Gd5 O11 1_555 1_555
O1 C1 1_555 1_555
O2 Gd1 1_555 1_555
O3 Gd2 1_555 1_555
H1 O3 1_555 1_555
O4 Gd1 1_555 1_555
O5 Gd2 1_555 1_555
O6 Gd3 1_555 1_555
H2 O6 1_555 1_555
O7 Gd2 1_555 1_555
O8 Gd3 1_555 1_555
O9 Gd4 1_555 1_555
H3 O9 1_555 1_555
O10 Gd3 1_555 1_555
O11 Gd4 1_555 1_555
O12 Gd5 1_555 1_555
H4 O12 1_555 1_555
O13 C45 1_555 1_555
O14 Gd1 1_555 1_555
O15 Gd1 1_555 1_555
H5 O15 1_555 1_555
O16 Gd1 1_555 1_555
O17 Gd1 1_555 1_555
O18 Gd2 1_555 1_555
O19 Gd2 1_555 1_555
O20 Gd3 1_555 1_555
O21 Gd3 1_555 1_555
O22 Gd4 1_555 1_555
O23 Gd4 1_555 1_555
O24 Gd5 1_555 1_555
O25 Gd5 1_555 1_555
N1 Gd1 1_555 1_555
N2 Gd2 1_555 1_555
N3 Gd3 1_555 1_555
N4 Gd4 1_555 1_555
N5 C46 1_555 1_555
C1 H6 1_555 1_555
H7 C1 1_555 1_555
C2 N1 1_555 1_555
H8 C2 1_555 1_555
H9 C2 1_555 1_555
C3 N1 1_555 1_555
H10 C3 1_555 1_555
C4 C3 1_555 1_555
C5 C4 1_555 1_555
H11 C5 1_555 1_555
C6 C5 1_555 1_555
C7 C6 1_555 1_555
H12 C7 1_555 1_555
H13 C7 1_555 1_555
H14 C7 1_555 1_555
C8 C6 1_555 1_555
H15 C8 1_555 1_555
C9 C8 1_555 1_555
C10 O2 1_555 1_555
C11 O3 1_555 1_555
H16 C11 1_555 1_555
H17 C11 1_555 1_555
C12 O4 1_555 1_555
H18 C12 1_555 1_555
H19 C12 1_555 1_555
C13 N2 1_555 1_555
H20 C13 1_555 1_555
H21 C13 1_555 1_555
C14 N2 1_555 1_555
H22 C14 1_555 1_555
C15 C14 1_555 1_555
C16 C15 1_555 1_555
H23 C16 1_555 1_555
C17 C16 1_555 1_555
C18 C17 1_555 1_555
H24 C18 1_555 1_555
H25 C18 1_555 1_555
H26 C18 1_555 1_555
C19 C17 1_555 1_555
H27 C19 1_555 1_555
C20 C19 1_555 1_555
C21 O5 1_555 1_555
C22 O6 1_555 1_555
H28 C22 1_555 1_555
H29 C22 1_555 1_555
C23 O7 1_555 1_555
H30 C23 1_555 1_555
H31 C23 1_555 1_555
C24 N3 1_555 1_555
H32 C24 1_555 1_555
H33 C24 1_555 1_555
C25 N3 1_555 1_555
H34 C25 1_555 1_555
C26 C25 1_555 1_555
C27 C26 1_555 1_555
H35 C27 1_555 1_555
C28 C27 1_555 1_555
C29 C28 1_555 1_555
H36 C29 1_555 1_555
H37 C29 1_555 1_555
H38 C29 1_555 1_555
C30 C28 1_555 1_555
H39 C30 1_555 1_555
C31 C30 1_555 1_555
C32 O8 1_555 1_555
C33 O9 1_555 1_555
H40 C33 1_555 1_555
H41 C33 1_555 1_555
C34 O10 1_555 1_555
H42 C34 1_555 1_555
H43 C34 1_555 1_555
C35 N4 1_555 1_555
H44 C35 1_555 1_555
H45 C35 1_555 1_555
C36 N4 1_555 1_555
H46 C36 1_555 1_555
C37 C36 1_555 1_555
C38 C37 1_555 1_555
H47 C38 1_555 1_555
C39 C38 1_555 1_555
C40 C39 1_555 1_555
H48 C40 1_555 1_555
H49 C40 1_555 1_555
H50 C40 1_555 1_555
C41 C39 1_555 1_555
H51 C41 1_555 1_555
C42 C41 1_555 1_555
C43 O11 1_555 1_555
C44 O12 1_555 1_555
H52 C44 1_555 1_555
H53 C44 1_555 1_555
C45 H54 1_555 1_555
H55 C45 1_555 1_555
C46 C45 1_555 1_555
H56 C46 1_555 1_555
H57 C46 1_555 1_555
C47 N5 1_555 1_555
H58 C47 1_555 1_555
C48 C47 1_555 1_555
C49 C48 1_555 1_555
H59 C49 1_555 1_555
C50 C49 1_555 1_555
C51 C50 1_555 1_555
H60 C51 1_555 1_555
H61 C51 1_555 1_555
H62 C51 1_555 1_555
C52 C50 1_555 1_555
H63 C52 1_555 1_555
C53 C52 1_555 1_555
C54 O14 1_555 1_555
C55 O15 1_555 1_555
H64 C55 1_555 1_555
H65 C55 1_555 1_555
C56 O16 1_555 1_555
C57 C56 1_555 1_555
C58 C57 1_555 1_555
H66 C58 1_555 1_555
H67 C58 1_555 1_555
H68 C58 1_555 1_555
C59 C57 1_555 1_555
H69 C59 1_555 1_555
H70 C59 1_555 1_555
H71 C59 1_555 1_555
C60 C57 1_555 1_555
H72 C60 1_555 1_555
H73 C60 1_555 1_555
H74 C60 1_555 1_555
C61 O18 1_555 1_555
C62 C61 1_555 1_555
C63 C62 1_555 1_555
H75 C63 1_555 1_555
H76 C63 1_555 1_555
H77 C63 1_555 1_555
C64 C62 1_555 1_555
H78 C64 1_555 1_555
H79 C64 1_555 1_555
H80 C64 1_555 1_555
C65 C62 1_555 1_555
H81 C65 1_555 1_555
H82 C65 1_555 1_555
H83 C65 1_555 1_555
C66 O20 1_555 1_555
C67 C66 1_555 1_555
C68 C67 1_555 1_555
H84 C68 1_555 1_555
H85 C68 1_555 1_555
H86 C68 1_555 1_555
C69 C67 1_555 1_555
H87 C69 1_555 1_555
H88 C69 1_555 1_555
H89 C69 1_555 1_555
C70 C67 1_555 1_555
H90 C70 1_555 1_555
H91 C70 1_555 1_555
H92 C70 1_555 1_555
C71 O22 1_555 1_555
C72 C71 1_555 1_555
C73 C72 1_555 1_555
H93 C73 1_555 1_555
H94 C73 1_555 1_555
H95 C73 1_555 1_555
C74 C72 1_555 1_555
H96 C74 1_555 1_555
H97 C74 1_555 1_555
H98 C74 1_555 1_555
C75 C72 1_555 1_555
H99 C75 1_555 1_555
H100 C75 1_555 1_555
H101 C75 1_555 1_555
C76 O24 1_555 1_555
C77 C76 1_555 1_555
C78 C77 1_555 1_555
H102 C78 1_555 1_555
H103 C78 1_555 1_555
H104 C78 1_555 1_555
C79 C77 1_555 1_555
H105 C79 1_555 1_555
H106 C79 1_555 1_555
H107 C79 1_555 1_555
C80 C77 1_555 1_555
H108 C80 1_555 1_555
H109 C80 1_555 1_555
H110 C80 1_555 1_555
Gd6 O26 1_555 1_555
Gd7 O27 1_555 1_555
Gd8 O30 1_555 1_555
Gd9 O33 1_555 1_555
Gd10 O36 1_555 1_555
O26 C81 1_555 1_555
O27 Gd6 1_555 1_555
O28 Gd7 1_555 1_555
H111 O28 1_555 1_555
O29 Gd6 1_555 1_555
O30 Gd7 1_555 1_555
O31 Gd8 1_555 1_555
H112 O31 1_555 1_555
O32 Gd7 1_555 1_555
O33 Gd8 1_555 1_555
O34 Gd9 1_555 1_555
H113 O34 1_555 1_555
O35 Gd8 1_555 1_555
O36 Gd9 1_555 1_555
O37 Gd10 1_555 1_555
H114 O37 1_555 1_555
O38 C125 1_555 1_555
O39 Gd6 1_555 1_555
O40 Gd6 1_555 1_555
H115 O40 1_555 1_555
O41 Gd6 1_555 1_555
O42 Gd6 1_555 1_555
O43 Gd7 1_555 1_555
O44 Gd7 1_555 1_555
O45 Gd8 1_555 1_555
O46 Gd8 1_555 1_555
O47 Gd9 1_555 1_555
O48 Gd9 1_555 1_555
O49 Gd10 1_555 1_555
O50 Gd10 1_555 1_555
N6 Gd6 1_555 1_555
N7 Gd7 1_555 1_555
N8 Gd8 1_555 1_555
N9 Gd9 1_555 1_555
N10 C126 1_555 1_555
C81 H116 1_555 1_555
H117 C81 1_555 1_555
C82 N6 1_555 1_555
H118 C82 1_555 1_555
H119 C82 1_555 1_555
C83 N6 1_555 1_555
H120 C83 1_555 1_555
C84 C83 1_555 1_555
C85 C84 1_555 1_555
H121 C85 1_555 1_555
C86 C85 1_555 1_555
C87 C86 1_555 1_555
H122 C87 1_555 1_555
H123 C87 1_555 1_555
H124 C87 1_555 1_555
C88 C86 1_555 1_555
H125 C88 1_555 1_555
C89 C88 1_555 1_555
C90 O27 1_555 1_555
C91 O28 1_555 1_555
H126 C91 1_555 1_555
H127 C91 1_555 1_555
C92 O29 1_555 1_555
H128 C92 1_555 1_555
H129 C92 1_555 1_555
C93 N7 1_555 1_555
H130 C93 1_555 1_555
H131 C93 1_555 1_555
C94 N7 1_555 1_555
H132 C94 1_555 1_555
C95 C94 1_555 1_555
C96 C95 1_555 1_555
H133 C96 1_555 1_555
C97 C96 1_555 1_555
C98 C97 1_555 1_555
H134 C98 1_555 1_555
H135 C98 1_555 1_555
H136 C98 1_555 1_555
C99 C97 1_555 1_555
H137 C99 1_555 1_555
C100 C99 1_555 1_555
C101 O30 1_555 1_555
C102 O31 1_555 1_555
H138 C102 1_555 1_555
H139 C102 1_555 1_555
C103 O32 1_555 1_555
H140 C103 1_555 1_555
H141 C103 1_555 1_555
C104 N8 1_555 1_555
H142 C104 1_555 1_555
H143 C104 1_555 1_555
C105 N8 1_555 1_555
H144 C105 1_555 1_555
C106 C105 1_555 1_555
C107 C106 1_555 1_555
H145 C107 1_555 1_555
C108 C107 1_555 1_555
C109 C108 1_555 1_555
H146 C109 1_555 1_555
H147 C109 1_555 1_555
H148 C109 1_555 1_555
C110 C108 1_555 1_555
H149 C110 1_555 1_555
C111 C110 1_555 1_555
C112 O33 1_555 1_555
C113 O34 1_555 1_555
H150 C113 1_555 1_555
H151 C113 1_555 1_555
C114 O35 1_555 1_555
H152 C114 1_555 1_555
H153 C114 1_555 1_555
C115 N9 1_555 1_555
H154 C115 1_555 1_555
H155 C115 1_555 1_555
C116 N9 1_555 1_555
H156 C116 1_555 1_555
C117 C116 1_555 1_555
C118 C117 1_555 1_555
H157 C118 1_555 1_555
C119 C118 1_555 1_555
C120 C119 1_555 1_555
H158 C120 1_555 1_555
H159 C120 1_555 1_555
H160 C120 1_555 1_555
C121 C119 1_555 1_555
H161 C121 1_555 1_555
C122 C121 1_555 1_555
C123 O36 1_555 1_555
C124 O37 1_555 1_555
H162 C124 1_555 1_555
H163 C124 1_555 1_555
C125 H164 1_555 1_555
H165 C125 1_555 1_555
C126 C125 1_555 1_555
H166 C126 1_555 1_555
H167 C126 1_555 1_555
C127 N10 1_555 1_555
H168 C127 1_555 1_555
C128 C127 1_555 1_555
C129 C128 1_555 1_555
H169 C129 1_555 1_555
C130 C129 1_555 1_555
C131 C130 1_555 1_555
H170 C131 1_555 1_555
H171 C131 1_555 1_555
H172 C131 1_555 1_555
C132 C130 1_555 1_555
H173 C132 1_555 1_555
C133 C132 1_555 1_555
C134 O39 1_555 1_555
C135 O40 1_555 1_555
H174 C135 1_555 1_555
H175 C135 1_555 1_555
C136 O41 1_555 1_555
C137 C136 1_555 1_555
C138 C137 1_555 1_555
H176 C138 1_555 1_555
H177 C138 1_555 1_555
H178 C138 1_555 1_555
C139 C137 1_555 1_555
H179 C139 1_555 1_555
H180 C139 1_555 1_555
H181 C139 1_555 1_555
C140 C137 1_555 1_555
H182 C140 1_555 1_555
H183 C140 1_555 1_555
H184 C140 1_555 1_555
C141 O43 1_555 1_555
C142 C141 1_555 1_555
C143 C142 1_555 1_555
H185 C143 1_555 1_555
H186 C143 1_555 1_555
H187 C143 1_555 1_555
C144 C142 1_555 1_555
H188 C144 1_555 1_555
H189 C144 1_555 1_555
H190 C144 1_555 1_555
C145 C142 1_555 1_555
H191 C145 1_555 1_555
H192 C145 1_555 1_555
H193 C145 1_555 1_555
C146 O45 1_555 1_555
C147 C146 1_555 1_555
C148 C147 1_555 1_555
H194 C148 1_555 1_555
H195 C148 1_555 1_555
H196 C148 1_555 1_555
C149 C147 1_555 1_555
H197 C149 1_555 1_555
H198 C149 1_555 1_555
H199 C149 1_555 1_555
C150 C147 1_555 1_555
H200 C150 1_555 1_555
H201 C150 1_555 1_555
H202 C150 1_555 1_555
C151 O47 1_555 1_555
C152 C151 1_555 1_555
C153 C152 1_555 1_555
H203 C153 1_555 1_555
H204 C153 1_555 1_555
H205 C153 1_555 1_555
C154 C152 1_555 1_555
H206 C154 1_555 1_555
H207 C154 1_555 1_555
H208 C154 1_555 1_555
C155 C152 1_555 1_555
H209 C155 1_555 1_555
H210 C155 1_555 1_555
H211 C155 1_555 1_555
C156 O49 1_555 1_555
C157 C156 1_555 1_555
C158 C157 1_555 1_555
H212 C158 1_555 1_555
H213 C158 1_555 1_555
H214 C158 1_555 1_555
C159 C157 1_555 1_555
H215 C159 1_555 1_555
H216 C159 1_555 1_555
H217 C159 1_555 1_555
C160 C157 1_555 1_555
H218 C160 1_555 1_555
H219 C160 1_555 1_555
H220 C160 1_555 1_555
Cl1 C161 1_555 1_555
Cl2 C161 1_555 1_555
Cl3 C161 1_555 1_555
C161 H221 1_555 1_555
Cl4 C162 1_555 1_555
Cl5 C162 1_555 1_555
Cl6 C162 1_555 1_555
C162 H222 1_555 1_555
Cl7 C163 1_555 1_555
Cl8 C163 1_555 1_555
Cl9 C163 1_555 1_555
C163 H223 1_555 1_555
Cl10 C164 1_555 1_555
Cl11 C164 1_555 1_555
Cl12 C164 1_555 1_555
C164 H224 1_555 1_555
Cl13 C165 1_555 1_555
Cl14 C165 1_555 1_555
Cl15 C165 1_555 1_555
C165 H225 1_555 1_555
Cl16 C166 1_555 1_555
Cl17 C166 1_555 1_555
Cl18 C166 1_555 1_555
C166 H226 1_555 1_555
Cl19 C167 1_555 1_555
Cl20 C167 1_555 1_555
Cl21 C167 1_555 1_555
C167 H227 1_555 1_555
Cl22 C168 1_555 1_555
Cl23 C168 1_555 1_555
Cl24 C168 1_555 1_555
C168 H228 1_555 1_555
O51 H229 1_555 1_555
H230 O51 1_555 1_555
O52 H231 1_555 1_555
H232 O52 1_555 1_555
O54 H233 1_555 1_555
H234 O54 1_555 1_555
N11 C170 1_555 1_555
C169 H235 1_555 1_555
H236 C169 1_555 1_555
H237 C169 1_555 1_555
C170 C169 1_555 1_555
N12 C172 1_555 1_555
C171 H238 1_555 1_555
H239 C171 1_555 1_555
H240 C171 1_555 1_555
C172 C171 1_555 1_555
N13 C174 1_555 1_555
C173 H241 1_555 1_555
H242 C173 1_555 1_555
H243 C173 1_555 1_555
C174 C173 1_555 1_555
Gd1A O1A 1_555 1_555
Gd2A O2A 1_555 1_555
Gd3A O5A 1_555 1_555
Gd4A O13 1_555 1_555
Gd5A O1 1_555 1_555
O1A Gd5 1_555 1_555
O2A Gd1A 1_555 1_555
O3A Gd2A 1_555 1_555
H1A O3A 1_555 1_555
O4A Gd1A 1_555 1_555
O5A Gd2A 1_555 1_555
O6A Gd3A 1_555 1_555
H2A O6A 1_555 1_555
O7A Gd2A 1_555 1_555
O8A Gd3A 1_555 1_555
O9A Gd4A 1_555 1_555
H3A O9A 1_555 1_555
O10A Gd3A 1_555 1_555
O11A Gd4A 1_555 1_555
O12A Gd5A 1_555 1_555
H4A O12A 1_555 1_555
O13A Gd4 1_555 1_555
O14A Gd5 1_555 1_555
O15A Gd1A 1_555 1_555
H5A O15A 1_555 1_555
O16A Gd1A 1_555 1_555
O17A Gd1A 1_555 1_555
O18A Gd2A 1_555 1_555
O19A Gd2A 1_555 1_555
O20A Gd3A 1_555 1_555
O21A Gd3A 1_555 1_555
O22A Gd4A 1_555 1_555
O23A Gd4A 1_555 1_555
O24A Gd5A 1_555 1_555
O25A Gd5A 1_555 1_555
N1A Gd1A 1_555 1_555
N2A Gd2A 1_555 1_555
N3A Gd3A 1_555 1_555
N4A Gd4A 1_555 1_555
N5A Gd5 1_555 1_555
C1A O1A 1_555 1_555
H6A C1A 1_555 1_555
H7A C1A 1_555 1_555
C2A N1A 1_555 1_555
H8A C2A 1_555 1_555
H9A C2A 1_555 1_555
C3A N1A 1_555 1_555
H10A C3A 1_555 1_555
C4A C3A 1_555 1_555
C5A C4A 1_555 1_555
H11A C5A 1_555 1_555
C6A C5A 1_555 1_555
C7A C6A 1_555 1_555
H12A C7A 1_555 1_555
H13A C7A 1_555 1_555
H14A C7A 1_555 1_555
C8A C6A 1_555 1_555
H15A C8A 1_555 1_555
C9A C8A 1_555 1_555
C10A O2A 1_555 1_555
C11A O3A 1_555 1_555
H16A C11A 1_555 1_555
H17A C11A 1_555 1_555
C12A O4A 1_555 1_555
H18A C12A 1_555 1_555
H19A C12A 1_555 1_555
C13A N2A 1_555 1_555
H20A C13A 1_555 1_555
H21A C13A 1_555 1_555
C14A N2A 1_555 1_555
H22A C14A 1_555 1_555
C15A C14A 1_555 1_555
C16A C15A 1_555 1_555
H23A C16A 1_555 1_555
C17A C16A 1_555 1_555
C18A C17A 1_555 1_555
H24A C18A 1_555 1_555
H25A C18A 1_555 1_555
H26A C18A 1_555 1_555
C19A C17A 1_555 1_555
H27A C19A 1_555 1_555
C20A C19A 1_555 1_555
C21A O5A 1_555 1_555
C22A O6A 1_555 1_555
H28A C22A 1_555 1_555
H29A C22A 1_555 1_555
C23A O7A 1_555 1_555
H30A C23A 1_555 1_555
H31A C23A 1_555 1_555
C24A N3A 1_555 1_555
H32A C24A 1_555 1_555
H33A C24A 1_555 1_555
C25A N3A 1_555 1_555
H34A C25A 1_555 1_555
C26A C25A 1_555 1_555
C27A C26A 1_555 1_555
H35A C27A 1_555 1_555
C28A C27A 1_555 1_555
C29A C28A 1_555 1_555
H36A C29A 1_555 1_555
H37A C29A 1_555 1_555
H38A C29A 1_555 1_555
C30A C28A 1_555 1_555
H39A C30A 1_555 1_555
C31A C30A 1_555 1_555
C32A O8A 1_555 1_555
C33A O9A 1_555 1_555
H40A C33A 1_555 1_555
H41A C33A 1_555 1_555
C34A O10A 1_555 1_555
H42A C34A 1_555 1_555
H43A C34A 1_555 1_555
C35A N4A 1_555 1_555
H44A C35A 1_555 1_555
H45A C35A 1_555 1_555
C36A N4A 1_555 1_555
H46A C36A 1_555 1_555
C37A C36A 1_555 1_555
C38A C37A 1_555 1_555
H47A C38A 1_555 1_555
C39A C38A 1_555 1_555
C40A C39A 1_555 1_555
H48A C40A 1_555 1_555
H49A C40A 1_555 1_555
H50A C40A 1_555 1_555
C41A C39A 1_555 1_555
H51A C41A 1_555 1_555
C42A C41A 1_555 1_555
C43A O11A 1_555 1_555
C44A O12A 1_555 1_555
H52A C44A 1_555 1_555
H53A C44A 1_555 1_555
C45A O13A 1_555 1_555
H54A C45A 1_555 1_555
H55A C45A 1_555 1_555
C46A N5A 1_555 1_555
H56A C46A 1_555 1_555
H57A C46A 1_555 1_555
C47A N5A 1_555 1_555
H58A C47A 1_555 1_555
C48A C47A 1_555 1_555
C49A C48A 1_555 1_555
H59A C49A 1_555 1_555
C50A C49A 1_555 1_555
C51A C50A 1_555 1_555
H60A C51A 1_555 1_555
H61A C51A 1_555 1_555
H62A C51A 1_555 1_555
C52A C50A 1_555 1_555
H63A C52A 1_555 1_555
C53A C52A 1_555 1_555
C54A O14A 1_555 1_555
C55A O15A 1_555 1_555
H64A C55A 1_555 1_555
H65A C55A 1_555 1_555
C56A O16A 1_555 1_555
C57A C56A 1_555 1_555
C58A C57A 1_555 1_555
H66A C58A 1_555 1_555
H67A C58A 1_555 1_555
H68A C58A 1_555 1_555
C59A C57A 1_555 1_555
H69A C59A 1_555 1_555
H70A C59A 1_555 1_555
H71A C59A 1_555 1_555
C60A C57A 1_555 1_555
H72A C60A 1_555 1_555
H73A C60A 1_555 1_555
H74A C60A 1_555 1_555
C61A O18A 1_555 1_555
C62A C61A 1_555 1_555
C63A C62A 1_555 1_555
H75A C63A 1_555 1_555
H76A C63A 1_555 1_555
H77A C63A 1_555 1_555
C64A C62A 1_555 1_555
H78A C64A 1_555 1_555
H79A C64A 1_555 1_555
H80A C64A 1_555 1_555
C65A C62A 1_555 1_555
H81A C65A 1_555 1_555
H82A C65A 1_555 1_555
H83A C65A 1_555 1_555
C66A O20A 1_555 1_555
C67A C66A 1_555 1_555
C68A C67A 1_555 1_555
H84A C68A 1_555 1_555
H85A C68A 1_555 1_555
H86A C68A 1_555 1_555
C69A C67A 1_555 1_555
H87A C69A 1_555 1_555
H88A C69A 1_555 1_555
H89A C69A 1_555 1_555
C70A C67A 1_555 1_555
H90A C70A 1_555 1_555
H91A C70A 1_555 1_555
H92A C70A 1_555 1_555
C71A O22A 1_555 1_555
C72A C71A 1_555 1_555
C73A C72A 1_555 1_555
H93A C73A 1_555 1_555
H94A C73A 1_555 1_555
H95A C73A 1_555 1_555
C74A C72A 1_555 1_555
H96A C74A 1_555 1_555
H97A C74A 1_555 1_555
H98A C74A 1_555 1_555
C75A C72A 1_555 1_555
H99A C75A 1_555 1_555
H100A C75A 1_555 1_555
H101A C75A 1_555 1_555
C76A O24A 1_555 1_555
C77A C76A 1_555 1_555
C78A C77A 1_555 1_555
H102A C78A 1_555 1_555
H103A C78A 1_555 1_555
H104A C78A 1_555 1_555
C79A C77A 1_555 1_555
H105A C79A 1_555 1_555
H106A C79A 1_555 1_555
H107A C79A 1_555 1_555
C80A C77A 1_555 1_555
H108A C80A 1_555 1_555
H109A C80A 1_555 1_555
H110A C80A 1_555 1_555
Gd6A O26A 1_555 1_555
Gd7A O27A 1_555 1_555
Gd8A O30A 1_555 1_555
Gd9A O38 1_555 1_555
Gd10A O26 1_555 1_555
O26A Gd10 1_555 1_555
O27A Gd6A 1_555 1_555
O28A Gd7A 1_555 1_555
H111A O28A 1_555 1_555
O29A Gd6A 1_555 1_555
O30A Gd7A 1_555 1_555
O31A Gd8A 1_555 1_555
H112A O31A 1_555 1_555
O32A Gd7A 1_555 1_555
O33A Gd8A 1_555 1_555
O34A Gd9A 1_555 1_555
H113A O34A 1_555 1_555
O35A Gd8A 1_555 1_555
O36A Gd9A 1_555 1_555
O37A Gd10A 1_555 1_555
H114A O37A 1_555 1_555
O38A Gd9 1_555 1_555
O39A Gd10 1_555 1_555
O40A Gd6A 1_555 1_555
H115A O40A 1_555 1_555
O41A Gd6A 1_555 1_555
O42A Gd6A 1_555 1_555
O43A Gd7A 1_555 1_555
O44A Gd7A 1_555 1_555
O45A Gd8A 1_555 1_555
O46A Gd8A 1_555 1_555
O47A Gd9A 1_555 1_555
O48A Gd9A 1_555 1_555
O49A Gd10A 1_555 1_555
O50A Gd10A 1_555 1_555
N6A Gd6A 1_555 1_555
N7A Gd7A 1_555 1_555
N8A Gd8A 1_555 1_555
N9A Gd9A 1_555 1_555
N10A Gd10 1_555 1_555
C81A O26A 1_555 1_555
H116A C81A 1_555 1_555
H117A C81A 1_555 1_555
C82A N6A 1_555 1_555
H118A C82A 1_555 1_555
H119A C82A 1_555 1_555
C83A N6A 1_555 1_555
H120A C83A 1_555 1_555
C84A C83A 1_555 1_555
C85A C84A 1_555 1_555
H121A C85A 1_555 1_555
C86A C85A 1_555 1_555
C87A C86A 1_555 1_555
H122A C87A 1_555 1_555
H123A C87A 1_555 1_555
H124A C87A 1_555 1_555
C88A C86A 1_555 1_555
H125A C88A 1_555 1_555
C89A C88A 1_555 1_555
C90A O27A 1_555 1_555
C91A O28A 1_555 1_555
H126A C91A 1_555 1_555
H127A C91A 1_555 1_555
C92A O29A 1_555 1_555
H128A C92A 1_555 1_555
H129A C92A 1_555 1_555
C93A N7A 1_555 1_555
H130A C93A 1_555 1_555
H131A C93A 1_555 1_555
C94A N7A 1_555 1_555
H132A C94A 1_555 1_555
C95A C94A 1_555 1_555
C96A C95A 1_555 1_555
H133A C96A 1_555 1_555
C97A C96A 1_555 1_555
C98A C97A 1_555 1_555
H134A C98A 1_555 1_555
H135A C98A 1_555 1_555
H136A C98A 1_555 1_555
C99A C97A 1_555 1_555
H137A C99A 1_555 1_555
C100A C99A 1_555 1_555
C101A O30A 1_555 1_555
C102A O31A 1_555 1_555
H138A C102A 1_555 1_555
H139A C102A 1_555 1_555
C103A O32A 1_555 1_555
H140A C103A 1_555 1_555
H141A C103A 1_555 1_555
C104A N8A 1_555 1_555
H142A C104A 1_555 1_555
H143A C104A 1_555 1_555
C105A N8A 1_555 1_555
H144A C105A 1_555 1_555
C106A C105A 1_555 1_555
C107A C106A 1_555 1_555
H145A C107A 1_555 1_555
C108A C107A 1_555 1_555
C109A C108A 1_555 1_555
H146A C109A 1_555 1_555
H147A C109A 1_555 1_555
H148A C109A 1_555 1_555
C110A C108A 1_555 1_555
H149A C110A 1_555 1_555
C111A C110A 1_555 1_555
C112A O33A 1_555 1_555
C113A O34A 1_555 1_555
H150A C113A 1_555 1_555
H151A C113A 1_555 1_555
C114A O35A 1_555 1_555
H152A C114A 1_555 1_555
H153A C114A 1_555 1_555
C115A N9A 1_555 1_555
H154A C115A 1_555 1_555
H155A C115A 1_555 1_555
C116A N9A 1_555 1_555
H156A C116A 1_555 1_555
C117A C116A 1_555 1_555
C118A C117A 1_555 1_555
H157A C118A 1_555 1_555
C119A C118A 1_555 1_555
C120A C119A 1_555 1_555
H158A C120A 1_555 1_555
H159A C120A 1_555 1_555
H160A C120A 1_555 1_555
C121A C119A 1_555 1_555
H161A C121A 1_555 1_555
C122A C121A 1_555 1_555
C123A O36A 1_555 1_555
C124A O37A 1_555 1_555
H162A C124A 1_555 1_555
H163A C124A 1_555 1_555
C125A O38A 1_555 1_555
H164A C125A 1_555 1_555
H165A C125A 1_555 1_555
C126A N10A 1_555 1_555
H166A C126A 1_555 1_555
H167A C126A 1_555 1_555
C127A N10A 1_555 1_555
H168A C127A 1_555 1_555
C128A C127A 1_555 1_555
C129A C128A 1_555 1_555
H169A C129A 1_555 1_555
C130A C129A 1_555 1_555
C131A C130A 1_555 1_555
H170A C131A 1_555 1_555
H171A C131A 1_555 1_555
H172A C131A 1_555 1_555
C132A C130A 1_555 1_555
H173A C132A 1_555 1_555
C133A C132A 1_555 1_555
C134A O39A 1_555 1_555
C135A O40A 1_555 1_555
H174A C135A 1_555 1_555
H175A C135A 1_555 1_555
C136A O41A 1_555 1_555
C137A C136A 1_555 1_555
C138A C137A 1_555 1_555
H176A C138A 1_555 1_555
H177A C138A 1_555 1_555
H178A C138A 1_555 1_555
C139A C137A 1_555 1_555
H179A C139A 1_555 1_555
H180A C139A 1_555 1_555
H181A C139A 1_555 1_555
C140A C137A 1_555 1_555
H182A C140A 1_555 1_555
H183A C140A 1_555 1_555
H184A C140A 1_555 1_555
C141A O43A 1_555 1_555
C142A C141A 1_555 1_555
C143A C142A 1_555 1_555
H185A C143A 1_555 1_555
H186A C143A 1_555 1_555
H187A C143A 1_555 1_555
C144A C142A 1_555 1_555
H188A C144A 1_555 1_555
H189A C144A 1_555 1_555
H190A C144A 1_555 1_555
C145A C142A 1_555 1_555
H191A C145A 1_555 1_555
H192A C145A 1_555 1_555
H193A C145A 1_555 1_555
C146A O45A 1_555 1_555
C147A C146A 1_555 1_555
C148A C147A 1_555 1_555
H194A C148A 1_555 1_555
H195A C148A 1_555 1_555
H196A C148A 1_555 1_555
C149A C147A 1_555 1_555
H197A C149A 1_555 1_555
H198A C149A 1_555 1_555
H199A C149A 1_555 1_555
C150A C147A 1_555 1_555
H200A C150A 1_555 1_555
H201A C150A 1_555 1_555
H202A C150A 1_555 1_555
C151A O47A 1_555 1_555
C152A C151A 1_555 1_555
C153A C152A 1_555 1_555
H203A C153A 1_555 1_555
H204A C153A 1_555 1_555
H205A C153A 1_555 1_555
C154A C152A 1_555 1_555
H206A C154A 1_555 1_555
H207A C154A 1_555 1_555
H208A C154A 1_555 1_555
C155A C152A 1_555 1_555
H209A C155A 1_555 1_555
H210A C155A 1_555 1_555
H211A C155A 1_555 1_555
C156A O49A 1_555 1_555
C157A C156A 1_555 1_555
C158A C157A 1_555 1_555
H212A C158A 1_555 1_555
H213A C158A 1_555 1_555
H214A C158A 1_555 1_555
C159A C157A 1_555 1_555
H215A C159A 1_555 1_555
H216A C159A 1_555 1_555
H217A C159A 1_555 1_555
C160A C157A 1_555 1_555
H218A C160A 1_555 1_555
H219A C160A 1_555 1_555
H220A C160A 1_555 1_555
Gd2 O4 1_555 1_555
Gd3 O7 1_555 1_555
Gd4 O10 1_555 1_555
Gd5 O13A 1_555 1_555
O13 Gd5A 1_555 1_555
O14 Gd5A 1_555 1_555
O17 C56 1_555 1_555
O19 C61 1_555 1_555
O21 C66 1_555 1_555
O23 C71 1_555 1_555
O25 C76 1_555 1_555
N5 Gd5A 1_555 1_555
C1 C2 1_555 1_555
C4 C10 1_555 1_555
C9 C10 1_555 1_555
C9 C11 1_555 1_555
C12 C13 1_555 1_555
C15 C21 1_555 1_555
C20 C21 1_555 1_555
C20 C22 1_555 1_555
C23 C24 1_555 1_555
C26 C32 1_555 1_555
C31 C32 1_555 1_555
C31 C33 1_555 1_555
C34 C35 1_555 1_555
C37 C43 1_555 1_555
C42 C43 1_555 1_555
C42 C44 1_555 1_555
C48 C54 1_555 1_555
C53 C54 1_555 1_555
C53 C55 1_555 1_555
Gd7 O29 1_555 1_555
Gd8 O32 1_555 1_555
Gd9 O35 1_555 1_555
Gd10 O38A 1_555 1_555
O38 Gd10A 1_555 1_555
O39 Gd10A 1_555 1_555
O42 C136 1_555 1_555
O44 C141 1_555 1_555
O46 C146 1_555 1_555
O48 C151 1_555 1_555
O50 C156 1_555 1_555
N10 Gd10A 1_555 1_555
C81 C82 1_555 1_555
C84 C90 1_555 1_555
C89 C90 1_555 1_555
C89 C91 1_555 1_555
C92 C93 1_555 1_555
C95 C101 1_555 1_555
C100 C101 1_555 1_555
C100 C102 1_555 1_555
C103 C104 1_555 1_555
C106 C112 1_555 1_555
C111 C112 1_555 1_555
C111 C113 1_555 1_555
C114 C115 1_555 1_555
C117 C123 1_555 1_555
C122 C123 1_555 1_555
C122 C124 1_555 1_555
C128 C134 1_555 1_555
C133 C134 1_555 1_555
C133 C135 1_555 1_555
Gd1A O14A 1_555 1_555
Gd2A O4A 1_555 1_555
Gd3A O7A 1_555 1_555
Gd4A O8A 1_555 1_555
Gd4A O10A 1_555 1_555
Gd5A O11A 1_555 1_555
O17A C56A 1_555 1_555
O19A C61A 1_555 1_555
O21A C66A 1_555 1_555
O23A C71A 1_555 1_555
O25A C76A 1_555 1_555
C1A C2A 1_555 1_555
C4A C10A 1_555 1_555
C9A C10A 1_555 1_555
C9A C11A 1_555 1_555
C12A C13A 1_555 1_555
C15A C21A 1_555 1_555
C20A C21A 1_555 1_555
C20A C22A 1_555 1_555
C23A C24A 1_555 1_555
C26A C32A 1_555 1_555
C31A C32A 1_555 1_555
C31A C33A 1_555 1_555
C34A C35A 1_555 1_555
C37A C43A 1_555 1_555
C42A C43A 1_555 1_555
C42A C44A 1_555 1_555
C45A C46A 1_555 1_555
C48A C54A 1_555 1_555
C53A C54A 1_555 1_555
C53A C55A 1_555 1_555
Gd6A O39A 1_555 1_555
Gd7A O29A 1_555 1_555
Gd8A O32A 1_555 1_555
Gd9A O33A 1_555 1_555
Gd9A O35A 1_555 1_555
Gd10A O36A 1_555 1_555
O42A C136A 1_555 1_555
O44A C141A 1_555 1_555
O46A C146A 1_555 1_555
O48A C151A 1_555 1_555
O50A C156A 1_555 1_555
C81A C82A 1_555 1_555
C84A C90A 1_555 1_555
C89A C90A 1_555 1_555
C89A C91A 1_555 1_555
C92A C93A 1_555 1_555
C95A C101A 1_555 1_555
C100A C101A 1_555 1_555
C100A C102A 1_555 1_555
C103A C104A 1_555 1_555
C106A C112A 1_555 1_555
C111A C112A 1_555 1_555
C111A C113A 1_555 1_555
C114A C115A 1_555 1_555
C117A C123A 1_555 1_555
C122A C123A 1_555 1_555
C122A C124A 1_555 1_555
C125A C126A 1_555 1_555
C128A C134A 1_555 1_555
C133A C134A 1_555 1_555
C133A C135A 1_555 1_555

#END
