# generated using pymatgen
data_Dy10H241C177N14Cl27O50
_symmetry_space_group_name_H-M   'P 1'
_cell_length_a   22.01770000
_cell_length_b   23.02260000
_cell_length_c   24.80750000
_cell_angle_alpha   63.22500000
_cell_angle_beta   83.59800000
_cell_angle_gamma   82.63000000
_symmetry_Int_Tables_number   1
_chemical_formula_structural   Dy10H241C177N14Cl27O50
_chemical_formula_sum   'Dy20 H482 C354 N28 Cl54 O100'
_cell_volume   11113.51385841
_cell_formula_units_Z   2
loop_
 _symmetry_equiv_pos_site_id
 _symmetry_equiv_pos_as_xyz
  1  'x, y, z'
loop_
 _atom_site_type_symbol
 _atom_site_label
 _atom_site_symmetry_multiplicity
 _atom_site_fract_x
 _atom_site_fract_y
 _atom_site_fract_z
 _atom_site_occupancy
  Dy  Dy1  1  0.191780  0.025250  0.808470  1.0
  Dy  Dy2  1  0.808220  0.974750  0.191530  1.0
  Dy  Dy3  1  0.132580  0.856480  0.873070  1.0
  Dy  Dy4  1  0.867420  0.143520  0.126930  1.0
  Dy  Dy5  1  0.967750  0.807250  0.912880  1.0
  Dy  Dy6  1  0.032250  0.192750  0.087120  1.0
  Dy  Dy7  1  0.870470  0.762950  0.060060  1.0
  Dy  Dy8  1  0.129530  0.237050  0.939940  1.0
  Dy  Dy9  1  0.766820  0.876080  0.113450  1.0
  Dy  Dy10  1  0.233180  0.123920  0.886550  1.0
  Dy  Dy11  1  0.564450  0.644950  0.625800  1.0
  Dy  Dy12  1  0.435550  0.355050  0.374200  1.0
  Dy  Dy13  1  0.397850  0.697470  0.583320  1.0
  Dy  Dy14  1  0.602150  0.302530  0.416680  1.0
  Dy  Dy15  1  0.326900  0.740130  0.435930  1.0
  Dy  Dy16  1  0.673100  0.259870  0.564070  1.0
  Dy  Dy17  1  0.264930  0.626430  0.385060  1.0
  Dy  Dy18  1  0.735070  0.373570  0.614940  1.0
  Dy  Dy19  1  0.350510  0.524970  0.308870  1.0
  Dy  Dy20  1  0.649490  0.475030  0.691130  1.0
  H  H21  1  0.916000  0.839400  0.636500  1
  H  H22  1  0.084000  0.160600  0.363500  1
  H  H23  1  0.675000  0.672000  0.715200  1
  H  H24  1  0.325000  0.328000  0.284800  1
  H  H25  1  0.362100  0.773600  0.706400  1
  H  H26  1  0.637900  0.226400  0.293600  1
  H  H27  1  0.275400  0.904100  0.435600  1
  H  H28  1  0.724600  0.095900  0.564400  1
  H  H29  1  0.996300  0.729100  0.806800  1
  H  H30  1  0.003700  0.270900  0.193200  1
  H  H31  1  0.123600  0.744600  0.368400  1
  H  H32  1  0.876400  0.255400  0.631600  1
  H  H33  1  0.651200  0.758800  0.129300  1
  H  H34  1  0.348800  0.241200  0.870700  1
  H  H35  1  0.857300  0.610100  0.047600  1
  H  H36  1  0.142700  0.389900  0.952400  1
  H  H37  1  0.440000  0.350000  0.130000  1
  H  H38  1  0.560000  0.650000  0.870000  1
  H  H39  1  0.540800  0.608900  0.354400  1
  H  H40  1  0.459200  0.391100  0.645600  1
  H  H41  1  0.555400  0.659800  0.375800  1
  H  H42  1  0.444600  0.340200  0.624200  1
  H  H43  1  0.553200  0.586100  0.422300  1
  H  H44  1  0.446800  0.413900  0.577700  1
  H  H45  1  0.948800  0.091800  0.919700  1
  H  H46  1  0.051200  0.908200  0.080300  1
  H  H47  1  0.940200  0.163700  0.868800  1
  H  H48  1  0.059800  0.836300  0.131200  1
  H  H49  1  0.969200  0.107400  0.852300  1
  H  H50  1  0.030800  0.892600  0.147700  1
  H  H51  1  0.243200  0.666667  0.144500  1
  H  H52  1  0.756800  0.333333  0.855500  1
  H  H53  1  0.195400  0.630600  0.131000  1
  H  H54  1  0.804600  0.369400  0.869000  1
  H  H55  1  0.216000  0.604700  0.197000  1
  H  H56  1  0.784000  0.395300  0.803000  1
  H  H57  1  0.695200  0.834500  0.355800  1
  H  H58  1  0.304800  0.165500  0.644200  1
  H  H59  1  0.633800  0.873900  0.362700  1
  H  H60  1  0.366200  0.126100  0.637300  1
  H  H61  1  0.667700  0.893400  0.298800  1
  H  H62  1  0.332300  0.106600  0.701200  1
  H  H63  1  0.328400  0.037100  0.787000  1.0
  H  H64  1  0.671600  0.962900  0.213000  1.0
  H  H65  1  0.187100  0.890000  0.747400  1.0
  H  H66  1  0.812900  0.110000  0.252600  1.0
  H  H67  1  0.049500  0.702800  0.890900  1.0
  H  H68  1  0.950500  0.297200  0.109100  1.0
  H  H69  1  0.818600  0.708000  0.986000  1.0
  H  H70  1  0.181400  0.292000  0.014000  1.0
  H  H71  1  0.738000  0.735000  0.183800  1.0
  H  H72  1  0.262000  0.265000  0.816200  1.0
  H  H73  1  0.020900  0.818600  0.025000  1.0
  H  H74  1  0.979100  0.181400  0.975000  1.0
  H  H75  1  0.059100  0.879600  0.990700  1.0
  H  H76  1  0.940900  0.120400  0.009300  1.0
  H  H77  1  0.122100  0.795400  0.059600  1.0
  H  H78  1  0.877900  0.204600  0.940400  1.0
  H  H79  1  0.109400  0.747700  0.033200  1.0
  H  H80  1  0.890600  0.252300  0.966800  1.0
  H  H81  1  0.221900  0.794500  0.035700  1.0
  H  H82  1  0.778100  0.205500  0.964300  1.0
  H  H83  1  0.328100  0.780300  0.023200  1.0
  H  H84  1  0.671900  0.219700  0.976800  1.0
  H  H85  1  0.435900  0.765500  0.023300  1.0
  H  H86  1  0.564100  0.234500  0.976700  1.0
  H  H87  1  0.467400  0.829000  0.979500  1.0
  H  H88  1  0.532600  0.171000  0.020500  1.0
  H  H89  1  0.468500  0.771500  0.961800  1.0
  H  H90  1  0.531500  0.228500  0.038200  1.0
  H  H91  1  0.421300  0.880000  0.867900  1.0
  H  H92  1  0.578700  0.120000  0.132100  1.0
  H  H93  1  0.372900  0.954800  0.781900  1.0
  H  H94  1  0.627100  0.045200  0.218100  1.0
  H  H95  1  0.309300  0.936300  0.774200  1.0
  H  H96  1  0.690700  0.063700  0.225800  1.0
  H  H97  1  0.926800  0.933800  0.949300  1.0
  H  H98  1  0.073200  0.066200  0.050700  1.0
  H  H99  1  0.859500  0.920900  0.977800  1.0
  H  H100  1  0.140500  0.079100  0.022200  1.0
  H  H101  1  0.829800  0.919000  0.890900  1.0
  H  H102  1  0.170200  0.081000  0.109100  1.0
  H  H103  1  0.861200  0.984100  0.869800  1.0
  H  H104  1  0.138800  0.015900  0.130200  1.0
  H  H105  1  0.897100  0.989300  0.779600  1.0
  H  H106  1  0.102900  0.010700  0.220400  1.0
  H  H107  1  0.922500  0.003800  0.681200  1.0
  H  H108  1  0.077500  0.996200  0.318800  1.0
  H  H109  1  0.008200  0.040800  0.563700  1.0
  H  H110  1  0.991800  0.959200  0.436300  1.0
  H  H111  1  0.940800  0.020500  0.578300  1.0
  H  H112  1  0.059200  0.979500  0.421700  1.0
  H  H113  1  0.993100  0.977000  0.561900  1.0
  H  H114  1  0.006900  0.023000  0.438100  1.0
  H  H115  1  0.075200  0.917600  0.637100  1.0
  H  H116  1  0.924800  0.082400  0.362900  1.0
  H  H117  1  0.112100  0.803500  0.773100  1.0
  H  H118  1  0.887900  0.196500  0.226900  1.0
  H  H119  1  0.142700  0.845900  0.709100  1.0
  H  H120  1  0.857300  0.154100  0.290900  1.0
  H  H121  1  0.905400  0.863600  0.150100  1.0
  H  H122  1  0.094600  0.136400  0.849900  1.0
  H  H123  1  0.945100  0.863500  0.093400  1.0
  H  H124  1  0.054900  0.136500  0.906600  1.0
  H  H125  1  0.982000  0.773600  0.179000  1.0
  H  H126  1  0.018000  0.226400  0.821000  1.0
  H  H127  1  0.915800  0.749500  0.199400  1.0
  H  H128  1  0.084200  0.250500  0.800600  1.0
  H  H129  1  0.021600  0.684500  0.169000  1.0
  H  H130  1  0.978400  0.315500  0.831000  1.0
  H  H131  1  0.071600  0.591200  0.167400  1.0
  H  H132  1  0.928400  0.408800  0.832600  1.0
  H  H133  1  0.165000  0.514700  0.127100  1.0
  H  H134  1  0.835000  0.485300  0.872900  1.0
  H  H135  1  0.122900  0.470200  0.118100  1.0
  H  H136  1  0.877100  0.529800  0.881900  1.0
  H  H137  1  0.114400  0.479700  0.177300  1.0
  H  H138  1  0.885600  0.520300  0.822700  1.0
  H  H139  1  0.071600  0.548500  0.029400  1.0
  H  H140  1  0.928400  0.451500  0.970600  1.0
  H  H141  1  0.016000  0.613500  0.944600  1.0
  H  H142  1  0.984000  0.386500  0.055400  1.0
  H  H143  1  0.955000  0.650100  0.957000  1.0
  H  H144  1  0.045000  0.349900  0.043000  1.0
  H  H145  1  0.854700  0.001400  0.025200  1.0
  H  H146  1  0.145300  0.998600  0.974800  1.0
  H  H147  1  0.828900  0.056000  0.045400  1.0
  H  H148  1  0.171100  0.944000  0.954600  1.0
  H  H149  1  0.729200  0.048700  0.026400  1.0
  H  H150  1  0.270800  0.951300  0.973600  1.0
  H  H151  1  0.771300  0.060300  0.967400  1.0
  H  H152  1  0.228700  0.939700  0.032600  1.0
  H  H153  1  0.719400  0.005800  0.935500  1.0
  H  H154  1  0.280600  0.994200  0.064500  1.0
  H  H155  1  0.649400  0.962100  0.901400  1.0
  H  H156  1  0.350600  0.037900  0.098600  1.0
  H  H157  1  0.561000  0.858800  0.896000  1.0
  H  H158  1  0.439000  0.141200  0.104000  1.0
  H  H159  1  0.612100  0.867600  0.844200  1.0
  H  H160  1  0.387900  0.132400  0.155800  1.0
  H  H161  1  0.583200  0.928100  0.854200  1.0
  H  H162  1  0.416800  0.071900  0.145800  1.0
  H  H163  1  0.659700  0.772900  0.945100  1.0
  H  H164  1  0.340300  0.227100  0.054900  1.0
  H  H165  1  0.736500  0.710800  0.067700  1.0
  H  H166  1  0.263500  0.289200  0.932300  1.0
  H  H167  1  0.727300  0.696700  0.013000  1.0
  H  H168  1  0.272700  0.303300  0.987000  1.0
  H  H169  1  0.954700  0.984600  0.126300  1.0
  H  H170  1  0.045300  0.015400  0.873700  1.0
  H  H171  1  0.980400  0.033900  0.144100  1.0
  H  H172  1  0.019600  0.966100  0.855900  1.0
  H  H173  1  0.954200  0.969500  0.246600  1.0
  H  H174  1  0.045800  0.030500  0.753400  1.0
  H  H175  1  0.994400  0.924200  0.221600  1.0
  H  H176  1  0.005600  0.075800  0.778400  1.0
  H  H177  1  0.950500  0.834300  0.284200  1.0
  H  H178  1  0.049500  0.165700  0.715800  1.0
  H  H179  1  0.917400  0.737100  0.355400  1.0
  H  H180  1  0.082600  0.262900  0.644600  1.0
  H  H181  1  0.869900  0.593700  0.399500  1.0
  H  H182  1  0.130100  0.406300  0.600500  1.0
  H  H183  1  0.827700  0.616900  0.442700  1.0
  H  H184  1  0.172300  0.383100  0.557300  1.0
  H  H185  1  0.896900  0.631200  0.429400  1.0
  H  H186  1  0.103100  0.368800  0.570600  1.0
  H  H187  1  0.765900  0.667100  0.342700  1.0
  H  H188  1  0.234100  0.332900  0.657300  1.0
  H  H189  1  0.699800  0.725300  0.267000  1.0
  H  H190  1  0.300200  0.274700  0.733000  1.0
  H  H191  1  0.694900  0.801500  0.241800  1.0
  H  H192  1  0.305100  0.198500  0.758200  1.0
  H  H193  1  0.192900  0.023000  0.564200  1.0
  H  H194  1  0.807100  0.977000  0.435800  1.0
  H  H195  1  0.183000  0.973600  0.632500  1.0
  H  H196  1  0.817000  0.026400  0.367500  1.0
  H  H197  1  0.246700  0.002100  0.607400  1.0
  H  H198  1  0.753300  0.997900  0.392600  1.0
  H  H199  1  0.256400  0.120100  0.581500  1.0
  H  H200  1  0.743600  0.879900  0.418500  1.0
  H  H201  1  0.197800  0.164000  0.587200  1.0
  H  H202  1  0.802200  0.836000  0.412800  1.0
  H  H203  1  0.204100  0.140100  0.536700  1.0
  H  H204  1  0.795900  0.859900  0.463300  1.0
  H  H205  1  0.099400  0.119000  0.626100  1.0
  H  H206  1  0.900600  0.881000  0.373900  1.0
  H  H207  1  0.092600  0.045100  0.645800  1.0
  H  H208  1  0.907400  0.954900  0.354200  1.0
  H  H209  1  0.101200  0.093500  0.577000  1.0
  H  H210  1  0.898800  0.906500  0.423000  1.0
  H  H211  1  0.295000  0.665200  0.878500  1.0
  H  H212  1  0.705000  0.334800  0.121500  1.0
  H  H213  1  0.307000  0.615100  0.945600  1.0
  H  H214  1  0.693000  0.384900  0.054400  1.0
  H  H215  1  0.306100  0.690300  0.925500  1.0
  H  H216  1  0.693900  0.309700  0.074500  1.0
  H  H217  1  0.195000  0.624400  0.880600  1.0
  H  H218  1  0.805000  0.375600  0.119400  1.0
  H  H219  1  0.146200  0.614900  0.934300  1.0
  H  H220  1  0.853800  0.385100  0.065700  1.0
  H  H221  1  0.207400  0.569300  0.945700  1.0
  H  H222  1  0.792600  0.430700  0.054300  1.0
  H  H223  1  0.224100  0.599400  0.028200  1.0
  H  H224  1  0.775900  0.400600  0.971800  1.0
  H  H225  1  0.165000  0.648400  0.013800  1.0
  H  H226  1  0.835000  0.351600  0.986200  1.0
  H  H227  1  0.228500  0.672600  0.013200  1.0
  H  H228  1  0.771500  0.327400  0.986800  1.0
  H  H229  1  0.864900  0.854300  0.730400  1.0
  H  H230  1  0.135100  0.145700  0.269600  1.0
  H  H231  1  0.804700  0.827800  0.725400  1.0
  H  H232  1  0.195300  0.172200  0.274600  1.0
  H  H233  1  0.863800  0.779900  0.748000  1.0
  H  H234  1  0.136200  0.220100  0.252000  1.0
  H  H235  1  0.806200  0.902000  0.795700  1.0
  H  H236  1  0.193800  0.098000  0.204300  1.0
  H  H237  1  0.769100  0.856700  0.854400  1.0
  H  H238  1  0.230900  0.143300  0.145600  1.0
  H  H239  1  0.746400  0.874900  0.790600  1.0
  H  H240  1  0.253600  0.125100  0.209400  1.0
  H  H241  1  0.745300  0.755400  0.820600  1.0
  H  H242  1  0.254700  0.244600  0.179400  1.0
  H  H243  1  0.769500  0.738200  0.883600  1.0
  H  H244  1  0.230500  0.261800  0.116400  1.0
  H  H245  1  0.805000  0.708300  0.842200  1.0
  H  H246  1  0.195000  0.291700  0.157800  1.0
  H  H247  1  0.866200  0.512000  0.192300  1.0
  H  H248  1  0.133800  0.488000  0.807700  1.0
  H  H249  1  0.891600  0.485600  0.256500  1.0
  H  H250  1  0.108400  0.514400  0.743500  1.0
  H  H251  1  0.929100  0.532400  0.199000  1.0
  H  H252  1  0.070900  0.467600  0.801000  1.0
  H  H253  1  0.932900  0.606000  0.246200  1.0
  H  H254  1  0.067100  0.394000  0.753800  1.0
  H  H255  1  0.892900  0.562900  0.303600  1.0
  H  H256  1  0.107100  0.437100  0.696400  1.0
  H  H257  1  0.872300  0.637200  0.265900  1.0
  H  H258  1  0.127700  0.362800  0.734100  1.0
  H  H259  1  0.771900  0.601500  0.260400  1.0
  H  H260  1  0.228100  0.398500  0.739600  1.0
  H  H261  1  0.795000  0.527200  0.291900  1.0
  H  H262  1  0.205000  0.472800  0.708100  1.0
  H  H263  1  0.768200  0.557400  0.228000  1.0
  H  H264  1  0.231800  0.442600  0.772000  1.0
  H  H265  1  0.602600  0.035500  0.071900  1.0
  H  H266  1  0.397400  0.964500  0.928100  1.0
  H  H267  1  0.536800  0.035700  0.053300  1.0
  H  H268  1  0.463200  0.964300  0.946700  1.0
  H  H269  1  0.594600  0.011100  0.023700  1.0
  H  H270  1  0.405400  0.988900  0.976300  1.0
  H  H271  1  0.552200  0.901200  0.058000  1.0
  H  H272  1  0.447800  0.098800  0.942000  1.0
  H  H273  1  0.493400  0.933000  0.079800  1.0
  H  H274  1  0.506600  0.067000  0.920200  1.0
  H  H275  1  0.525000  0.866000  0.124800  1.0
  H  H276  1  0.475000  0.134000  0.875200  1.0
  H  H277  1  0.546600  0.902200  0.201000  1.0
  H  H278  1  0.453400  0.097800  0.799000  1.0
  H  H279  1  0.502900  0.963600  0.163500  1.0
  H  H280  1  0.497100  0.036400  0.836500  1.0
  H  H281  1  0.567700  0.972400  0.178000  1.0
  H  H282  1  0.432300  0.027600  0.822000  1.0
  H  H283  1  0.784800  0.458500  0.713000  1.0
  H  H284  1  0.215200  0.541500  0.287000  1.0
  H  H285  1  0.594900  0.611000  0.753000  1.0
  H  H286  1  0.405100  0.389000  0.247000  1.0
  H  H287  1  0.448000  0.801600  0.603000  1.0
  H  H288  1  0.552000  0.198400  0.397000  1.0
  H  H289  1  0.243000  0.801000  0.505000  1.0
  H  H290  1  0.757000  0.199000  0.495000  1.0
  H  H291  1  0.218000  0.767000  0.311700  1.0
  H  H292  1  0.782000  0.233000  0.688300  1.0
  H  H293  1  0.482600  0.685000  0.472900  1.0
  H  H294  1  0.517400  0.315000  0.527100  1.0
  H  H295  1  0.527700  0.623000  0.507100  1.0
  H  H296  1  0.472300  0.377000  0.492900  1.0
  H  H297  1  0.587400  0.705700  0.439600  1.0
  H  H298  1  0.412600  0.294300  0.560400  1.0
  H  H299  1  0.555400  0.754100  0.465200  1.0
  H  H300  1  0.444600  0.245900  0.534800  1.0
  H  H301  1  0.679700  0.706300  0.464500  1.0
  H  H302  1  0.320300  0.293700  0.535500  1.0
  H  H303  1  0.780100  0.717000  0.477300  1.0
  H  H304  1  0.219900  0.283000  0.522700  1.0
  H  H305  1  0.885900  0.722700  0.476000  1.0
  H  H306  1  0.114100  0.277300  0.524000  1.0
  H  H307  1  0.922000  0.661300  0.524100  1.0
  H  H308  1  0.078000  0.338700  0.475900  1.0
  H  H309  1  0.902600  0.722900  0.535700  1.0
  H  H310  1  0.097400  0.277100  0.464300  1.0
  H  H311  1  0.859900  0.611800  0.632300  1.0
  H  H312  1  0.140100  0.388200  0.367700  1.0
  H  H313  1  0.737800  0.559200  0.726400  1.0
  H  H314  1  0.262200  0.440800  0.273600  1.0
  H  H315  1  0.807900  0.539000  0.719100  1.0
  H  H316  1  0.192100  0.461000  0.280900  1.0
  H  H317  1  0.396200  0.567900  0.550100  1.0
  H  H318  1  0.603800  0.432100  0.449900  1.0
  H  H319  1  0.333100  0.583400  0.520000  1.0
  H  H320  1  0.666900  0.416600  0.480000  1.0
  H  H321  1  0.280900  0.592000  0.604000  1.0
  H  H322  1  0.719100  0.408000  0.396000  1.0
  H  H323  1  0.320300  0.524100  0.627700  1.0
  H  H324  1  0.679700  0.475900  0.372300  1.0
  H  H325  1  0.338000  0.516900  0.716400  1.0
  H  H326  1  0.662000  0.483100  0.283600  1.0
  H  H327  1  0.341100  0.504200  0.814900  1.0
  H  H328  1  0.658900  0.495800  0.185100  1.0
  H  H329  1  0.334500  0.511100  0.921200  1.0
  H  H330  1  0.665500  0.488900  0.078800  1.0
  H  H331  1  0.400300  0.512300  0.939000  1.0
  H  H332  1  0.599700  0.487700  0.061000  1.0
  H  H333  1  0.385500  0.455200  0.925900  1.0
  H  H334  1  0.614500  0.544800  0.074100  1.0
  H  H335  1  0.461200  0.587600  0.859800  1.0
  H  H336  1  0.538800  0.412400  0.140200  1.0
  H  H337  1  0.505000  0.700100  0.723900  1.0
  H  H338  1  0.495000  0.299900  0.276100  1.0
  H  H339  1  0.529700  0.658500  0.788700  1.0
  H  H340  1  0.470300  0.341500  0.211300  1.0
  H  H341  1  0.410900  0.633100  0.351900  1.0
  H  H342  1  0.589100  0.366900  0.648100  1.0
  H  H343  1  0.435000  0.635200  0.408200  1.0
  H  H344  1  0.565000  0.364800  0.591800  1.0
  H  H345  1  0.472600  0.722400  0.321000  1.0
  H  H346  1  0.527400  0.277600  0.679000  1.0
  H  H347  1  0.405800  0.747500  0.298800  1.0
  H  H348  1  0.594200  0.252500  0.701200  1.0
  H  H349  1  0.487000  0.813400  0.328300  1.0
  H  H350  1  0.513000  0.186600  0.671700  1.0
  H  H351  1  0.510800  0.908400  0.326800  1.0
  H  H352  1  0.489200  0.091600  0.673200  1.0
  H  H353  1  0.523700  0.021100  0.312600  1.0
  H  H354  1  0.476300  0.978900  0.687400  1.0
  H  H355  1  0.571900  0.989900  0.362200  1.0
  H  H356  1  0.428100  0.010100  0.637800  1.0
  H  H357  1  0.514400  0.033900  0.370000  1.0
  H  H358  1  0.485600  0.966100  0.630000  1.0
  H  H359  1  0.464600  0.954800  0.462600  1.0
  H  H360  1  0.535400  0.045200  0.537400  1.0
  H  H361  1  0.406800  0.892300  0.547400  1.0
  H  H362  1  0.593200  0.107700  0.452600  1.0
  H  H363  1  0.356700  0.857100  0.535800  1.0
  H  H364  1  0.643300  0.142900  0.464200  1.0
  H  H365  1  0.362200  0.499700  0.473900  1.0
  H  H366  1  0.637800  0.500300  0.526100  1.0
  H  H367  1  0.353900  0.444700  0.454900  1.0
  H  H368  1  0.646100  0.555300  0.545100  1.0
  H  H369  1  0.248000  0.453400  0.475900  1.0
  H  H370  1  0.752000  0.546600  0.524100  1.0
  H  H371  1  0.279900  0.443200  0.533600  1.0
  H  H372  1  0.720100  0.556800  0.466400  1.0
  H  H373  1  0.206400  0.499800  0.564500  1.0
  H  H374  1  0.793600  0.500200  0.435500  1.0
  H  H375  1  0.119400  0.546000  0.599200  1.0
  H  H376  1  0.880600  0.454000  0.400800  1.0
  H  H377  1  0.033200  0.582100  0.646300  1.0
  H  H378  1  0.966800  0.417900  0.353700  1.0
  H  H379  1  0.004100  0.652700  0.606300  1.0
  H  H380  1  0.995900  0.347300  0.393700  1.0
  H  H381  1  0.048100  0.641200  0.656400  1.0
  H  H382  1  0.951900  0.358800  0.343600  1.0
  H  H383  1  0.089600  0.736300  0.550000  1.0
  H  H384  1  0.910400  0.263700  0.450000  1.0
  H  H385  1  0.180000  0.794400  0.426200  1.0
  H  H386  1  0.820000  0.205600  0.573800  1.0
  H  H387  1  0.153900  0.811200  0.479600  1.0
  H  H388  1  0.846100  0.188800  0.520400  1.0
  H  H389  1  0.525300  0.461800  0.360200  1.0
  H  H390  1  0.474700  0.538200  0.639800  1.0
  H  H391  1  0.482400  0.512400  0.376600  1.0
  H  H392  1  0.517600  0.487600  0.623400  1.0
  H  H393  1  0.532200  0.570700  0.281500  1.0
  H  H394  1  0.467800  0.429300  0.718500  1.0
  H  H395  1  0.509500  0.525500  0.256800  1.0
  H  H396  1  0.490500  0.474500  0.743200  1.0
  H  H397  1  0.482200  0.661600  0.217300  1.0
  H  H398  1  0.517800  0.338400  0.782700  1.0
  H  H399  1  0.443400  0.759900  0.144000  1.0
  H  H400  1  0.556600  0.240100  0.856000  1.0
  H  H401  1  0.346400  0.878000  0.053300  1.0
  H  H402  1  0.653600  0.122000  0.946700  1.0
  H  H403  1  0.415200  0.863700  0.069500  1.0
  H  H404  1  0.584800  0.136300  0.930500  1.0
  H  H405  1  0.368900  0.903400  0.095900  1.0
  H  H406  1  0.631100  0.096600  0.904100  1.0
  H  H407  1  0.270100  0.831400  0.151800  1.0
  H  H408  1  0.729900  0.168600  0.848200  1.0
  H  H409  1  0.199300  0.776700  0.227900  1.0
  H  H410  1  0.800700  0.223300  0.772100  1.0
  H  H411  1  0.206800  0.700300  0.253700  1.0
  H  H412  1  0.793200  0.299700  0.746300  1.0
  H  H413  1  0.699700  0.880600  0.553700  1.0
  H  H414  1  0.300300  0.119400  0.446300  1.0
  H  H415  1  0.710300  0.805800  0.570900  1.0
  H  H416  1  0.289700  0.194200  0.429100  1.0
  H  H417  1  0.686200  0.829000  0.620600  1.0
  H  H418  1  0.313800  0.171000  0.379400  1.0
  H  H419  1  0.535700  0.886500  0.570500  1.0
  H  H420  1  0.464300  0.113500  0.429500  1.0
  H  H421  1  0.590200  0.927800  0.562600  1.0
  H  H422  1  0.409800  0.072200  0.437400  1.0
  H  H423  1  0.574900  0.869600  0.625500  1.0
  H  H424  1  0.425100  0.130400  0.374500  1.0
  H  H425  1  0.577000  0.854900  0.487500  1.0
  H  H426  1  0.423000  0.145100  0.512500  1.0
  H  H427  1  0.646900  0.831600  0.485000  1.0
  H  H428  1  0.353100  0.168400  0.515000  1.0
  H  H429  1  0.626500  0.904000  0.473100  1.0
  H  H430  1  0.373500  0.096000  0.526900  1.0
  H  H431  1  0.244300  0.752500  0.732700  1.0
  H  H432  1  0.755700  0.247500  0.267300  1.0
  H  H433  1  0.260000  0.676600  0.761600  1.0
  H  H434  1  0.740000  0.323400  0.238400  1.0
  H  H435  1  0.191700  0.705700  0.762000  1.0
  H  H436  1  0.808300  0.294300  0.238000  1.0
  H  H437  1  0.162200  0.642400  0.707500  1.0
  H  H438  1  0.837800  0.357600  0.292500  1.0
  H  H439  1  0.230500  0.612200  0.711500  1.0
  H  H440  1  0.769500  0.387800  0.288500  1.0
  H  H441  1  0.201100  0.648000  0.648700  1.0
  H  H442  1  0.798900  0.352000  0.351300  1.0
  H  H443  1  0.195600  0.809500  0.631000  1.0
  H  H444  1  0.804400  0.190500  0.369000  1.0
  H  H445  1  0.140600  0.767000  0.664200  1.0
  H  H446  1  0.859400  0.233000  0.335800  1.0
  H  H447  1  0.172500  0.766300  0.604700  1.0
  H  H448  1  0.827500  0.233700  0.395300  1.0
  H  H449  1  0.296200  0.989400  0.296400  1.0
  H  H450  1  0.703800  0.010600  0.703600  1.0
  H  H451  1  0.332400  0.012400  0.233200  1.0
  H  H452  1  0.667600  0.987600  0.766800  1.0
  H  H453  1  0.365900  0.965900  0.292100  1.0
  H  H454  1  0.634100  0.034100  0.707900  1.0
  H  H455  1  0.399500  0.887500  0.249400  1.0
  H  H456  1  0.600500  0.112500  0.750600  1.0
  H  H457  1  0.365200  0.931300  0.190300  1.0
  H  H458  1  0.634800  0.068700  0.809700  1.0
  H  H459  1  0.351100  0.858300  0.228900  1.0
  H  H460  1  0.648900  0.141700  0.771100  1.0
  H  H461  1  0.239100  0.896000  0.234600  1.0
  H  H462  1  0.760900  0.104000  0.765400  1.0
  H  H463  1  0.254700  0.968600  0.196400  1.0
  H  H464  1  0.745300  0.031400  0.803600  1.0
  H  H465  1  0.218200  0.947600  0.259300  1.0
  H  H466  1  0.781800  0.052400  0.740700  1.0
  H  H467  1  0.043400  0.603500  0.444900  1.0
  H  H468  1  0.956600  0.396500  0.555100  1.0
  H  H469  1  0.997200  0.573100  0.423300  1.0
  H  H470  1  0.002800  0.426900  0.576700  1.0
  H  H471  1  0.022700  0.639800  0.378400  1.0
  H  H472  1  0.977300  0.360200  0.621600  1.0
  H  H473  1  0.132300  0.469500  0.430300  1.0
  H  H474  1  0.867700  0.530500  0.569700  1.0
  H  H475  1  0.062400  0.468600  0.450800  1.0
  H  H476  1  0.937600  0.531400  0.549200  1.0
  H  H477  1  0.106900  0.494700  0.478300  1.0
  H  H478  1  0.893100  0.505300  0.521700  1.0
  H  H479  1  0.068000  0.601500  0.301600  1.0
  H  H480  1  0.932000  0.398500  0.698400  1.0
  H  H481  1  0.035200  0.537500  0.340600  1.0
  H  H482  1  0.964800  0.462500  0.659400  1.0
  H  H483  1  0.105800  0.533200  0.323300  1.0
  H  H484  1  0.894200  0.466800  0.676700  1.0
  H  H485  1  0.382900  0.642000  0.038300  1.0
  H  H486  1  0.617100  0.358000  0.961700  1.0
  H  H487  1  0.362600  0.661300  0.091200  1.0
  H  H488  1  0.637400  0.338700  0.908800  1.0
  H  H489  1  0.322300  0.618200  0.078100  1.0
  H  H490  1  0.677700  0.381800  0.921900  1.0
  H  H491  1  0.488700  0.543700  0.149000  1.0
  H  H492  1  0.511300  0.456300  0.851000  1.0
  H  H493  1  0.466300  0.617300  0.129800  1.0
  H  H494  1  0.533700  0.382700  0.870200  1.0
  H  H495  1  0.485400  0.592800  0.080300  1.0
  H  H496  1  0.514600  0.407200  0.919700  1.0
  H  H497  1  0.424700  0.473700  0.131700  1.0
  H  H498  1  0.575300  0.526300  0.868300  1.0
  H  H499  1  0.414400  0.523800  0.064300  1.0
  H  H500  1  0.585600  0.476200  0.935700  1.0
  H  H501  1  0.357900  0.498700  0.110300  1.0
  H  H502  1  0.642100  0.501300  0.889700  1.0
  C  C503  1  0.905500  0.839600  0.599100  1
  C  C504  1  0.094500  0.160400  0.400900  1
  C  C505  1  0.692900  0.684300  0.742600  1
  C  C506  1  0.307100  0.315700  0.257400  1
  C  C507  1  0.363800  0.812400  0.712600  1
  C  C508  1  0.636200  0.187600  0.287400  1
  C  C509  1  0.249600  0.941600  0.436800  1
  C  C510  1  0.750400  0.058400  0.563200  1
  C  C511  1  0.002100  0.699300  0.787800  1
  C  C512  1  0.997900  0.300700  0.212200  1
  C  C513  1  0.089900  0.776500  0.347700  1
  C  C514  1  0.910100  0.223500  0.652300  1
  C  C515  1  0.619800  0.727800  0.148100  1
  C  C516  1  0.380200  0.272200  0.851900  1
  C  C517  1  0.845200  0.571300  0.046200  1
  C  C518  1  0.154800  0.428700  0.953800  1
  C  C519  1  0.456100  0.335500  0.096600  1
  C  C520  1  0.543900  0.664500  0.903400  1
  C  C521  1  0.630400  0.603600  0.367500  1
  C  C522  1  0.369600  0.396400  0.632500  1
  C  C523  1  0.564100  0.615700  0.381200  1
  C  C524  1  0.435900  0.384300  0.618800  1
  C  C525  1  0.879600  0.107200  0.869500  1
  C  C526  1  0.120400  0.892800  0.130500  1
  C  C527  1  0.939400  0.118500  0.878300  1
  C  C528  1  0.060600  0.881500  0.121700  1
  C  C529  1  0.158400  0.683900  0.171800  1
  C  C530  1  0.841600  0.316100  0.828200  1
  C  C531  1  0.207200  0.643100  0.160100  1
  C  C532  1  0.792800  0.356900  0.839900  1
  C  C533  1  0.623700  0.813800  0.327700  1
  C  C534  1  0.376300  0.186200  0.672300  1
  C  C535  1  0.658000  0.857600  0.337100  1
  C  C536  1  0.342000  0.142400  0.662900  1
  C  C537  1  0.055900  0.835300  0.997000  1.0
  C  C538  1  0.944100  0.164700  0.003000  1.0
  C  C539  1  0.113900  0.792900  0.023100  1.0
  C  C540  1  0.886100  0.207100  0.976900  1.0
  C  C541  1  0.217600  0.813300  0.994300  1.0
  C  C542  1  0.782400  0.186700  0.005700  1.0
  C  C543  1  0.272500  0.835400  0.955400  1.0
  C  C544  1  0.727500  0.164600  0.044600  1.0
  C  C545  1  0.328700  0.809400  0.982300  1.0
  C  C546  1  0.671300  0.190600  0.017700  1.0
  C  C547  1  0.385000  0.824800  0.950900  1.0
  C  C548  1  0.615000  0.175200  0.049100  1.0
  C  C549  1  0.444700  0.794900  0.981700  1.0
  C  C550  1  0.555300  0.205100  0.018300  1.0
  C  C551  1  0.384200  0.869300  0.890300  1.0
  C  C552  1  0.615800  0.130700  0.109700  1.0
  C  C553  1  0.329600  0.898600  0.861800  1.0
  C  C554  1  0.670400  0.101400  0.138200  1.0
  C  C555  1  0.272400  0.881200  0.893700  1.0
  C  C556  1  0.727600  0.118800  0.106300  1.0
  C  C557  1  0.330700  0.949800  0.798300  1.0
  C  C558  1  0.669300  0.050200  0.201700  1.0
  C  C559  1  0.891200  0.911800  0.951500  1.0
  C  C560  1  0.108800  0.088200  0.048500  1.0
  C  C561  1  0.868100  0.936800  0.888500  1.0
  C  C562  1  0.131900  0.063200  0.111500  1.0
  C  C563  1  0.923100  0.951200  0.796100  1.0
  C  C564  1  0.076900  0.048800  0.203900  1.0
  C  C565  1  0.968100  0.938700  0.754600  1.0
  C  C566  1  0.031900  0.061300  0.245400  1.0
  C  C567  1  0.957000  0.974100  0.692500  1.0
  C  C568  1  0.043000  0.025900  0.307500  1.0
  C  C569  1  0.996000  0.966000  0.647700  1.0
  C  C570  1  0.004000  0.034000  0.352300  1.0
  C  C571  1  0.983400  0.004600  0.581900  1.0
  C  C572  1  0.016600  0.995400  0.418100  1.0
  C  C573  1  0.048200  0.923600  0.666100  1.0
  C  C574  1  0.951800  0.076400  0.333900  1.0
  C  C575  1  0.061800  0.889500  0.726700  1.0
  C  C576  1  0.938200  0.110500  0.273300  1.0
  C  C577  1  0.021400  0.895600  0.772300  1.0
  C  C578  1  0.978600  0.104400  0.227700  1.0
  C  C579  1  0.120800  0.847600  0.744600  1.0
  C  C580  1  0.879200  0.152400  0.255400  1.0
  C  C581  1  0.915800  0.840000  0.125900  1.0
  C  C582  1  0.084200  0.160000  0.874100  1.0
  C  C583  1  0.943500  0.771800  0.164700  1.0
  C  C584  1  0.056500  0.228200  0.835300  1.0
  C  C585  1  0.998100  0.693100  0.136900  1.0
  C  C586  1  0.001900  0.306900  0.863100  1.0
  C  C587  1  0.015900  0.655200  0.103500  1.0
  C  C588  1  0.984100  0.344800  0.896500  1.0
  C  C589  1  0.057500  0.600200  0.130200  1.0
  C  C590  1  0.942500  0.399800  0.869800  1.0
  C  C591  1  0.078800  0.559000  0.104600  1.0
  C  C592  1  0.921200  0.441000  0.895400  1.0
  C  C593  1  0.124400  0.500600  0.134500  1.0
  C  C594  1  0.875600  0.499400  0.865500  1.0
  C  C595  1  0.058200  0.575400  0.048100  1.0
  C  C596  1  0.941800  0.424600  0.951900  1.0
  C  C597  1  0.018500  0.630300  0.018300  1.0
  C  C598  1  0.981500  0.369700  0.981700  1.0
  C  C599  1  0.995700  0.671400  0.045300  1.0
  C  C600  1  0.004300  0.328600  0.954700  1.0
  C  C601  1  0.999400  0.647600  0.956300  1.0
  C  C602  1  0.000600  0.352400  0.043700  1.0
  C  C603  1  0.819700  0.016400  0.044400  1.0
  C  C604  1  0.180300  0.983600  0.955600  1.0
  C  C605  1  0.763400  0.029800  0.009500  1.0
  C  C606  1  0.236600  0.970200  0.990500  1.0
  C  C607  1  0.725500  0.966000  0.969400  1.0
  C  C608  1  0.274500  0.034000  0.030600  1.0
  C  C609  1  0.707900  0.908600  0.966800  1.0
  C  C610  1  0.292100  0.091400  0.033200  1.0
  C  C611  1  0.664900  0.919400  0.925000  1.0
  C  C612  1  0.335100  0.080600  0.075000  1.0
  C  C613  1  0.644400  0.870000  0.917300  1.0
  C  C614  1  0.355600  0.130000  0.082700  1.0
  C  C615  1  0.595700  0.882200  0.874000  1.0
  C  C616  1  0.404300  0.117800  0.126000  1.0
  C  C617  1  0.671400  0.807200  0.950600  1.0
  C  C618  1  0.328600  0.192800  0.049400  1.0
  C  C619  1  0.714700  0.794000  0.991600  1.0
  C  C620  1  0.285300  0.206000  0.008400  1.0
  C  C621  1  0.733000  0.844600  0.002500  1.0
  C  C622  1  0.267000  0.155400  0.997500  1.0
  C  C623  1  0.744700  0.725800  0.024400  1.0
  C  C624  1  0.255300  0.274200  0.975600  1.0
  C  C625  1  0.949300  0.003700  0.154500  1.0
  C  C626  1  0.050700  0.996300  0.845500  1.0
  C  C627  1  0.955600  0.950500  0.218600  1.0
  C  C628  1  0.044400  0.049500  0.781400  1.0
  C  C629  1  0.912100  0.849600  0.268400  1.0
  C  C630  1  0.087900  0.150400  0.731600  1.0
  C  C631  1  0.867400  0.801900  0.286800  1.0
  C  C632  1  0.132600  0.198100  0.713200  1.0
  C  C633  1  0.881400  0.742600  0.336600  1.0
  C  C634  1  0.118600  0.257400  0.663400  1.0
  C  C635  1  0.844400  0.691300  0.359400  1.0
  C  C636  1  0.155600  0.308700  0.640600  1.0
  C  C637  1  0.861300  0.627500  0.412500  1.0
  C  C638  1  0.138700  0.372500  0.587500  1.0
  C  C639  1  0.791600  0.700600  0.328700  1.0
  C  C640  1  0.208400  0.299400  0.671300  1.0
  C  C641  1  0.776300  0.758300  0.278300  1.0
  C  C642  1  0.223700  0.241700  0.721700  1.0
  C  C643  1  0.812900  0.811400  0.256200  1.0
  C  C644  1  0.187100  0.188600  0.743800  1.0
  C  C645  1  0.722100  0.763800  0.244700  1.0
  C  C646  1  0.277900  0.236200  0.755300  1.0
  C  C647  1  0.195800  0.048600  0.685900  1.0
  C  C648  1  0.804200  0.951400  0.314100  1.0
  C  C649  1  0.181900  0.068300  0.620100  1.0
  C  C650  1  0.818100  0.931700  0.379900  1.0
  C  C651  1  0.203100  0.011500  0.604600  1.0
  C  C652  1  0.796900  0.988500  0.395400  1.0
  C  C653  1  0.212800  0.128600  0.577500  1.0
  C  C654  1  0.787200  0.871400  0.422500  1.0
  C  C655  1  0.112300  0.082800  0.616900  1.0
  C  C656  1  0.887700  0.917200  0.383100  1.0
  C  C657  1  0.190000  0.729900  0.903000  1.0
  C  C658  1  0.810000  0.270100  0.097000  1.0
  C  C659  1  0.219800  0.660700  0.936500  1.0
  C  C660  1  0.780200  0.339300  0.063500  1.0
  C  C661  1  0.288300  0.657500  0.920000  1.0
  C  C662  1  0.711700  0.342500  0.080000  1.0
  C  C663  1  0.189200  0.612800  0.923100  1.0
  C  C664  1  0.810800  0.387200  0.076900  1.0
  C  C665  1  0.208300  0.643600  0.004400  1.0
  C  C666  1  0.791700  0.356400  0.995600  1.0
  C  C667  1  0.876000  0.791900  0.849800  1.0
  C  C668  1  0.124000  0.208100  0.150200  1.0
  C  C669  1  0.820300  0.805000  0.812600  1.0
  C  C670  1  0.179700  0.195000  0.187400  1.0
  C  C671  1  0.840200  0.817900  0.748200  1.0
  C  C672  1  0.159800  0.182100  0.251800  1.0
  C  C673  1  0.781900  0.865300  0.813400  1.0
  C  C674  1  0.218100  0.134700  0.186600  1.0
  C  C675  1  0.781400  0.746200  0.842600  1.0
  C  C676  1  0.218600  0.253800  0.157400  1.0
  C  C677  1  0.851400  0.641100  0.162900  1.0
  C  C678  1  0.148600  0.358900  0.837100  1.0
  C  C679  1  0.855400  0.581400  0.224200  1.0
  C  C680  1  0.144600  0.418600  0.775800  1.0
  C  C681  1  0.888700  0.522400  0.217400  1.0
  C  C682  1  0.111300  0.477600  0.782600  1.0
  C  C683  1  0.891800  0.598500  0.263700  1.0
  C  C684  1  0.108200  0.401500  0.736300  1.0
  C  C685  1  0.791800  0.565400  0.253800  1.0
  C  C686  1  0.208200  0.434600  0.746200  1.0
  C  C687  1  0.638200  0.910700  0.118900  1.0
  C  C688  1  0.361800  0.089300  0.881100  1.0
  C  C689  1  0.572300  0.943600  0.110500  1.0
  C  C690  1  0.427700  0.056400  0.889500  1.0
  C  C691  1  0.577000  0.012900  0.060200  1.0
  C  C692  1  0.423000  0.987100  0.939800  1.0
  C  C693  1  0.532000  0.907600  0.091500  1.0
  C  C694  1  0.468000  0.092400  0.908500  1.0
  C  C695  1  0.544800  0.945600  0.168600  1.0
  C  C696  1  0.455200  0.054400  0.831400  1.0
  C  C697  1  0.514900  0.667300  0.501100  1.0
  C  C698  1  0.485100  0.332700  0.498900  1.0
  C  C699  1  0.568900  0.708700  0.475700  1.0
  C  C700  1  0.431100  0.291300  0.524300  1.0
  C  C701  1  0.670000  0.686600  0.506000  1.0
  C  C702  1  0.330000  0.313400  0.494000  1.0
  C  C703  1  0.721900  0.662200  0.545200  1.0
  C  C704  1  0.278100  0.337800  0.454800  1.0
  C  C705  1  0.778200  0.687100  0.517900  1.0
  C  C706  1  0.221800  0.312900  0.482100  1.0
  C  C707  1  0.831100  0.668800  0.549200  1.0
  C  C708  1  0.168900  0.331200  0.450800  1.0
  C  C709  1  0.890800  0.696400  0.518500  1.0
  C  C710  1  0.109200  0.303600  0.481500  1.0
  C  C711  1  0.825500  0.624300  0.609700  1.0
  C  C712  1  0.174500  0.375700  0.390300  1.0
  C  C713  1  0.770700  0.597400  0.638300  1.0
  C  C714  1  0.229300  0.402600  0.361700  1.0
  C  C715  1  0.716700  0.616700  0.607100  1.0
  C  C716  1  0.283300  0.383300  0.392900  1.0
  C  C717  1  0.768500  0.545300  0.702400  1.0
  C  C718  1  0.231500  0.454700  0.297600  1.0
  C  C719  1  0.356200  0.592100  0.546300  1.0
  C  C720  1  0.643800  0.407900  0.453700  1.0
  C  C721  1  0.322400  0.571000  0.608100  1.0
  C  C722  1  0.677600  0.429000  0.391900  1.0
  C  C723  1  0.358300  0.554700  0.700300  1.0
  C  C724  1  0.641700  0.445300  0.299700  1.0
  C  C725  1  0.389500  0.567300  0.742500  1.0
  C  C726  1  0.610500  0.432700  0.257500  1.0
  C  C727  1  0.371400  0.532800  0.804100  1.0
  C  C728  1  0.628600  0.467200  0.195900  1.0
  C  C729  1  0.396900  0.539500  0.849000  1.0
  C  C730  1  0.603100  0.460500  0.151000  1.0
  C  C731  1  0.377500  0.501000  0.914700  1.0
  C  C732  1  0.622500  0.499000  0.085300  1.0
  C  C733  1  0.443500  0.581500  0.830600  1.0
  C  C734  1  0.556500  0.418500  0.169400  1.0
  C  C735  1  0.464400  0.614200  0.771100  1.0
  C  C736  1  0.535600  0.385800  0.228900  1.0
  C  C737  1  0.437200  0.609400  0.724800  1.0
  C  C738  1  0.562800  0.390600  0.275200  1.0
  C  C739  1  0.517600  0.656200  0.753300  1.0
  C  C740  1  0.482400  0.343800  0.246700  1.0
  C  C741  1  0.408700  0.658200  0.374700  1.0
  C  C742  1  0.591300  0.341800  0.625300  1.0
  C  C743  1  0.429700  0.725800  0.334200  1.0
  C  C744  1  0.570300  0.274200  0.665800  1.0
  C  C745  1  0.457200  0.806200  0.359700  1.0
  C  C746  1  0.542800  0.193800  0.640300  1.0
  C  C747  1  0.456200  0.845300  0.392100  1.0
  C  C748  1  0.543800  0.154700  0.607900  1.0
  C  C749  1  0.489900  0.900400  0.363900  1.0
  C  C750  1  0.510100  0.099600  0.636100  1.0
  C  C751  1  0.493500  0.942800  0.387800  1.0
  C  C752  1  0.506500  0.057200  0.612200  1.0
  C  C753  1  0.529100  0.002300  0.355200  1.0
  C  C754  1  0.470900  0.997700  0.644800  1.0
  C  C755  1  0.463000  0.927300  0.444700  1.0
  C  C756  1  0.537000  0.072700  0.555300  1.0
  C  C757  1  0.430600  0.872500  0.475300  1.0
  C  C758  1  0.569400  0.127500  0.524700  1.0
  C  C759  1  0.425100  0.830900  0.448800  1.0
  C  C760  1  0.574900  0.169100  0.551200  1.0
  C  C761  1  0.400600  0.858000  0.536700  1.0
  C  C762  1  0.599400  0.142000  0.463300  1.0
  C  C763  1  0.335000  0.484900  0.455400  1.0
  C  C764  1  0.665000  0.515100  0.544600  1.0
  C  C765  1  0.273700  0.472800  0.491500  1.0
  C  C766  1  0.726300  0.527200  0.508500  1.0
  C  C767  1  0.210900  0.539100  0.530000  1.0
  C  C768  1  0.789100  0.460900  0.470000  1.0
  C  C769  1  0.178800  0.597700  0.531800  1.0
  C  C770  1  0.821200  0.402300  0.468200  1.0
  C  C771  1  0.129100  0.588600  0.574400  1.0
  C  C772  1  0.870900  0.411400  0.425600  1.0
  C  C773  1  0.093600  0.638400  0.581800  1.0
  C  C774  1  0.906400  0.361600  0.418200  1.0
  C  C775  1  0.040000  0.627600  0.626700  1.0
  C  C776  1  0.960000  0.372400  0.373300  1.0
  C  C777  1  0.111900  0.701200  0.545900  1.0
  C  C778  1  0.888100  0.298800  0.454100  1.0
  C  C779  1  0.162100  0.713200  0.504400  1.0
  C  C780  1  0.837900  0.286800  0.495600  1.0
  C  C781  1  0.195600  0.661800  0.495200  1.0
  C  C782  1  0.804400  0.338200  0.504800  1.0
  C  C783  1  0.181700  0.781100  0.469100  1.0
  C  C784  1  0.818300  0.218900  0.530900  1.0
  C  C785  1  0.489300  0.492800  0.348800  1.0
  C  C786  1  0.510700  0.507200  0.651200  1.0
  C  C787  1  0.499100  0.545200  0.284300  1.0
  C  C788  1  0.500900  0.454800  0.715700  1.0
  C  C789  1  0.443500  0.647300  0.232600  1.0
  C  C790  1  0.556500  0.352700  0.767400  1.0
  C  C791  1  0.391300  0.696200  0.212700  1.0
  C  C792  1  0.608700  0.303800  0.787300  1.0
  C  C793  1  0.403800  0.755100  0.162000  1.0
  C  C794  1  0.596200  0.244900  0.838000  1.0
  C  C795  1  0.358800  0.806300  0.138100  1.0
  C  C796  1  0.641200  0.193700  0.861900  1.0
  C  C797  1  0.373700  0.868400  0.084400  1.0
  C  C798  1  0.626300  0.131600  0.915600  1.0
  C  C799  1  0.301000  0.797800  0.167300  1.0
  C  C800  1  0.699000  0.202200  0.832700  1.0
  C  C801  1  0.287000  0.741200  0.218900  1.0
  C  C802  1  0.713000  0.258800  0.781100  1.0
  C  C803  1  0.332200  0.687800  0.242600  1.0
  C  C804  1  0.667800  0.312200  0.757400  1.0
  C  C805  1  0.225400  0.737600  0.250900  1.0
  C  C806  1  0.774600  0.262400  0.749100  1.0
  C  C807  1  0.598400  0.770000  0.597100  1.0
  C  C808  1  0.401600  0.230000  0.402900  1.0
  C  C809  1  0.618900  0.839300  0.565000  1.0
  C  C810  1  0.381100  0.160700  0.435000  1.0
  C  C811  1  0.684900  0.838600  0.578800  1.0
  C  C812  1  0.315100  0.161400  0.421200  1.0
  C  C813  1  0.576100  0.884900  0.582400  1.0
  C  C814  1  0.423900  0.115100  0.417600  1.0
  C  C815  1  0.617100  0.859400  0.496000  1.0
  C  C816  1  0.382900  0.140600  0.504000  1.0
  C  C817  1  0.286400  0.719400  0.642800  1.0
  C  C818  1  0.713600  0.280600  0.357200  1.0
  C  C819  1  0.223800  0.712300  0.678500  1.0
  C  C820  1  0.776200  0.287700  0.321500  1.0
  C  C821  1  0.230600  0.711700  0.739300  1.0
  C  C822  1  0.769400  0.288300  0.260700  1.0
  C  C823  1  0.202400  0.647700  0.687400  1.0
  C  C824  1  0.797600  0.352300  0.312600  1.0
  C  C825  1  0.179000  0.769000  0.641200  1.0
  C  C826  1  0.821000  0.231000  0.358800  1.0
  C  C827  1  0.304600  0.859500  0.330200  1.0
  C  C828  1  0.695400  0.140500  0.669800  1.0
  C  C829  1  0.310400  0.917800  0.267500  1.0
  C  C830  1  0.689600  0.082200  0.732500  1.0
  C  C831  1  0.327800  0.976800  0.272800  1.0
  C  C832  1  0.672200  0.023200  0.727200  1.0
  C  C833  1  0.361300  0.896700  0.230500  1.0
  C  C834  1  0.638700  0.103300  0.769500  1.0
  C  C835  1  0.250000  0.934000  0.236600  1.0
  C  C836  1  0.750000  0.066000  0.763400  1.0
  C  C837  1  0.145600  0.593600  0.381000  1.0
  C  C838  1  0.854400  0.406400  0.619000  1.0
  C  C839  1  0.085800  0.561400  0.391300  1.0
  C  C840  1  0.914200  0.438600  0.608700  1.0
  C  C841  1  0.032300  0.597800  0.411300  1.0
  C  C842  1  0.967700  0.402200  0.588700  1.0
  C  C843  1  0.098000  0.492000  0.442500  1.0
  C  C844  1  0.902000  0.508000  0.557500  1.0
  C  C845  1  0.072400  0.558100  0.333900  1.0
  C  C846  1  0.927600  0.441900  0.666100  1.0
  C  C847  1  0.372800  0.547300  0.186600  1.0
  C  C848  1  0.627200  0.452700  0.813400  1.0
  C  C849  1  0.399500  0.566400  0.121700  1.0
  C  C850  1  0.600500  0.433600  0.878300  1.0
  C  C851  1  0.363500  0.627600  0.078300  1.0
  C  C852  1  0.636500  0.372400  0.921700  1.0
  C  C853  1  0.466300  0.581500  0.120000  1.0
  C  C854  1  0.533700  0.418500  0.880000  1.0
  C  C855  1  0.399100  0.510600  0.105500  1.0
  C  C856  1  0.600900  0.489400  0.894500  1.0
  N  N857  1  0.683200  0.592100  0.358700  1
  N  N858  1  0.316800  0.407900  0.641300  1
  N  N859  1  0.829700  0.096500  0.863400  1
  N  N860  1  0.170300  0.903500  0.136600  1
  N  N861  1  0.119800  0.717600  0.180500  1
  N  N862  1  0.880200  0.282400  0.819500  1
  N  N863  1  0.597700  0.777900  0.320600  1
  N  N864  1  0.402300  0.222100  0.679400  1
  N  N865  1  0.164200  0.817300  0.977100  1.0
  N  N866  1  0.835800  0.182700  0.022900  1.0
  N  N867  1  0.915300  0.915900  0.852800  1.0
  N  N868  1  0.084700  0.084100  0.147200  1.0
  N  N869  1  0.953400  0.737300  0.126900  1.0
  N  N870  1  0.046600  0.262700  0.873100  1.0
  N  N871  1  0.748700  0.966900  0.014000  1.0
  N  N872  1  0.251300  0.033100  0.986000  1.0
  N  N873  1  0.904000  0.910100  0.232800  1.0
  N  N874  1  0.096000  0.089900  0.767200  1.0
  N  N875  1  0.613300  0.683800  0.522600  1.0
  N  N876  1  0.386700  0.316200  0.477400  1.0
  N  N877  1  0.356500  0.590400  0.643900  1.0
  N  N878  1  0.643500  0.409600  0.356100  1.0
  N  N879  1  0.421000  0.762800  0.370100  1.0
  N  N880  1  0.579000  0.237200  0.629900  1.0
  N  N881  1  0.244300  0.536400  0.485900  1.0
  N  N882  1  0.755700  0.463600  0.514100  1.0
  N  N883  1  0.441400  0.586800  0.269100  1.0
  N  N884  1  0.558600  0.413200  0.730900  1.0
  Cl  Cl885  1  0.866500  0.769950  0.618590  1
  Cl  Cl886  1  0.133500  0.230050  0.381410  1
  Cl  Cl887  1  0.973610  0.834920  0.557230  1
  Cl  Cl888  1  0.026390  0.165080  0.442770  1
  Cl  Cl889  1  0.860120  0.909330  0.561050  1
  Cl  Cl890  1  0.139880  0.090670  0.438950  1
  Cl  Cl891  1  0.691500  0.617000  0.816840  1
  Cl  Cl892  1  0.308500  0.383000  0.183160  1
  Cl  Cl893  1  0.759840  0.704280  0.716710  1
  Cl  Cl894  1  0.240160  0.295720  0.283290  1
  Cl  Cl895  1  0.641700  0.752000  0.750120  1
  Cl  Cl896  1  0.358300  0.248000  0.249880  1
  Cl  Cl897  1  0.441410  0.829850  0.703640  1
  Cl  Cl898  1  0.558590  0.170150  0.296360  1
  Cl  Cl899  1  0.332130  0.797230  0.784550  1
  Cl  Cl900  1  0.667870  0.202770  0.215450  1
  Cl  Cl901  1  0.320670  0.877830  0.658870  1
  Cl  Cl902  1  0.679330  0.122170  0.341130  1
  Cl  Cl903  1  0.294950  0.005570  0.415890  1
  Cl  Cl904  1  0.705050  0.994430  0.584110  1
  Cl  Cl905  1  0.190590  0.963160  0.386960  1
  Cl  Cl906  1  0.809410  0.036840  0.613040  1
  Cl  Cl907  1  0.217890  0.918780  0.510470  1
  Cl  Cl908  1  0.782110  0.081220  0.489530  1
  Cl  Cl909  1  0.070330  0.649340  0.811790  1
  Cl  Cl910  1  0.929670  0.350660  0.188210  1
  Cl  Cl911  1  0.007760  0.745820  0.709790  1
  Cl  Cl912  1  0.992240  0.254180  0.290210  1
  Cl  Cl913  1  0.939780  0.652000  0.811100  1
  Cl  Cl914  1  0.060220  0.348000  0.188900  1
  Cl  Cl915  1  0.069110  0.760300  0.289270  1
  Cl  Cl916  1  0.930890  0.239700  0.710730  1
  Cl  Cl917  1  0.027890  0.769760  0.400710  1
  Cl  Cl918  1  0.972110  0.230240  0.599290  1
  Cl  Cl919  1  0.115310  0.855000  0.316000  1
  Cl  Cl920  1  0.884690  0.145000  0.684000  1
  Cl  Cl921  1  0.580730  0.740940  0.207780  1
  Cl  Cl922  1  0.419270  0.259060  0.792220  1
  Cl  Cl923  1  0.569080  0.740400  0.092660  1
  Cl  Cl924  1  0.430920  0.259600  0.907340  1
  Cl  Cl925  1  0.655870  0.648270  0.175740  1
  Cl  Cl926  1  0.344130  0.351730  0.824260  1
  Cl  Cl927  1  0.779440  0.545310  0.095530  1
  Cl  Cl928  1  0.220560  0.454690  0.904470  1
  Cl  Cl929  1  0.906180  0.510380  0.068270  1
  Cl  Cl930  1  0.093820  0.489620  0.931730  1
  Cl  Cl931  1  0.827780  0.592420  0.971540  1
  Cl  Cl932  1  0.172220  0.407580  0.028460  1
  Cl  Cl933  1  0.396200  0.328500  0.061700  1
  Cl  Cl934  1  0.603800  0.671500  0.938300  1
  Cl  Cl935  1  0.515500  0.276400  0.126800  1
  Cl  Cl936  1  0.484500  0.723600  0.873200  1
  Cl  Cl937  1  0.490300  0.402300  0.042100  1
  Cl  Cl938  1  0.509700  0.597700  0.957900  1
  O  O939  1  0.047960  0.834870  0.941310  1.0
  O  O940  1  0.952040  0.165130  0.058690  1.0
  O  O941  1  0.220700  0.910050  0.865590  1.0
  O  O942  1  0.779300  0.089950  0.134410  1.0
  O  O943  1  0.301940  0.012070  0.793930  1.0
  O  O944  1  0.698060  0.987930  0.206070  1.0
  O  O945  1  0.907120  0.844060  0.975130  1.0
  O  O946  1  0.092880  0.155940  0.024870  1.0
  O  O947  1  0.035930  0.861770  0.830260  1.0
  O  O948  1  0.964070  0.138230  0.169740  1.0
  O  O949  1  0.159100  0.872600  0.771780  1.0
  O  O950  1  0.840900  0.127400  0.228220  1.0
  O  O951  1  0.862600  0.835020  0.101900  1.0
  O  O952  1  0.137400  0.164980  0.898100  1.0
  O  O953  1  0.956960  0.723820  0.016490  1.0
  O  O954  1  0.043040  0.276180  0.983510  1.0
  O  O955  1  0.020600  0.709500  0.911810  1.0
  O  O956  1  0.979400  0.290500  0.088190  1.0
  O  O957  1  0.807380  0.967680  0.104110  1.0
  O  O958  1  0.192620  0.032320  0.895890  1.0
  O  O959  1  0.773670  0.829830  0.044300  1.0
  O  O960  1  0.226330  0.170170  0.955700  1.0
  O  O961  1  0.810080  0.723560  0.010720  1.0
  O  O962  1  0.189920  0.276440  0.989280  1.0
  O  O963  1  0.890620  0.037110  0.150550  1.0
  O  O964  1  0.109380  0.962890  0.849450  1.0
  O  O965  1  0.797680  0.866010  0.207930  1.0
  O  O966  1  0.202320  0.133990  0.792070  1.0
  O  O967  1  0.740140  0.770110  0.184370  1.0
  O  O968  1  0.259860  0.229890  0.815630  1.0
  O  O969  1  0.215660  0.089030  0.699020  1.0
  O  O970  1  0.784340  0.910970  0.300980  1.0
  O  O971  1  0.183800  0.992950  0.727690  1.0
  O  O972  1  0.816200  0.007050  0.272310  1.0
  O  O973  1  0.221940  0.777440  0.882230  1.0
  O  O974  1  0.778060  0.222560  0.117770  1.0
  O  O975  1  0.131700  0.740410  0.900320  1.0
  O  O976  1  0.868300  0.259590  0.099680  1.0
  O  O977  1  0.928500  0.800200  0.825150  1.0
  O  O978  1  0.071500  0.199800  0.174850  1.0
  O  O979  1  0.867500  0.775400  0.906540  1.0
  O  O980  1  0.132500  0.224600  0.093460  1.0
  O  O981  1  0.879500  0.640860  0.116750  1.0
  O  O982  1  0.120500  0.359140  0.883250  1.0
  O  O983  1  0.821000  0.694400  0.159520  1.0
  O  O984  1  0.179000  0.305600  0.840480  1.0
  O  O985  1  0.656800  0.871400  0.097860  1.0
  O  O986  1  0.343200  0.128600  0.902140  1.0
  O  O987  1  0.674910  0.927800  0.144660  1.0
  O  O988  1  0.325090  0.072200  0.855340  1.0
  O  O989  1  0.493130  0.667360  0.556730  1.0
  O  O990  1  0.506870  0.332640  0.443270  1.0
  O  O991  1  0.665010  0.589910  0.635050  1.0
  O  O992  1  0.334990  0.410090  0.364950  1.0
  O  O993  1  0.753800  0.484080  0.705760  1.0
  O  O994  1  0.246200  0.515920  0.294240  1.0
  O  O995  1  0.362780  0.660150  0.521560  1.0
  O  O996  1  0.637220  0.339850  0.478440  1.0
  O  O997  1  0.458540  0.641620  0.667360  1.0
  O  O998  1  0.541460  0.358380  0.332640  1.0
  O  O999  1  0.569030  0.629200  0.727830  1.0
  O  O1000  1  0.430970  0.370800  0.272170  1.0
  O  O1001  1  0.347460  0.665880  0.396550  1.0
  O  O1002  1  0.652540  0.334120  0.603450  1.0
  O  O1003  1  0.392640  0.779140  0.478990  1.0
  O  O1004  1  0.607360  0.220860  0.521010  1.0
  O  O1005  1  0.425600  0.795360  0.582170  1.0
  O  O1006  1  0.574400  0.204640  0.417830  1.0
  O  O1007  1  0.325290  0.532990  0.395520  1.0
  O  O1008  1  0.674710  0.467010  0.604480  1.0
  O  O1009  1  0.242410  0.674320  0.452750  1.0
  O  O1010  1  0.757590  0.325680  0.547250  1.0
  O  O1011  1  0.244180  0.783500  0.482270  1.0
  O  O1012  1  0.755820  0.216500  0.517730  1.0
  O  O1013  1  0.437600  0.460490  0.351540  1.0
  O  O1014  1  0.562400  0.539510  0.648460  1.0
  O  O1015  1  0.317280  0.634030  0.291370  1.0
  O  O1016  1  0.682720  0.365970  0.708630  1.0
  O  O1017  1  0.229400  0.731670  0.311460  1.0
  O  O1018  1  0.770600  0.268330  0.688540  1.0
  O  O1019  1  0.636200  0.721400  0.619970  1.0
  O  O1020  1  0.363800  0.278600  0.380030  1.0
  O  O1021  1  0.541900  0.762060  0.596740  1.0
  O  O1022  1  0.458100  0.237940  0.403260  1.0
  O  O1023  1  0.335850  0.708630  0.668210  1.0
  O  O1024  1  0.664150  0.291370  0.331790  1.0
  O  O1025  1  0.289000  0.733400  0.586470  1.0
  O  O1026  1  0.711000  0.266600  0.413530  1.0
  O  O1027  1  0.320800  0.861500  0.376320  1.0
  O  O1028  1  0.679200  0.138500  0.623680  1.0
  O  O1029  1  0.285900  0.807000  0.335680  1.0
  O  O1030  1  0.714100  0.193000  0.664320  1.0
  O  O1031  1  0.150260  0.633430  0.401400  1.0
  O  O1032  1  0.849740  0.366570  0.598600  1.0
  O  O1033  1  0.192800  0.575900  0.354510  1.0
  O  O1034  1  0.807200  0.424100  0.645490  1.0
  O  O1035  1  0.338800  0.587600  0.199310  1.0
  O  O1036  1  0.661200  0.412400  0.800690  1.0
  O  O1037  1  0.388500  0.491100  0.229020  1.0
  O  O1038  1  0.611500  0.508900  0.770980  1.0
