# generated using pymatgen
data_Tb5H120C88N7Cl12O25
_symmetry_space_group_name_H-M   'P 1'
_cell_length_a   22.02560000
_cell_length_b   23.05240000
_cell_length_c   24.78310000
_cell_angle_alpha   63.35800000
_cell_angle_beta   83.50300000
_cell_angle_gamma   82.65900000
_symmetry_Int_Tables_number   1
_chemical_formula_structural   Tb5H120C88N7Cl12O25
_chemical_formula_sum   'Tb20 H480 C352 N28 Cl48 O100'
_cell_volume   11133.05040386
_cell_formula_units_Z   4
loop_
 _symmetry_equiv_pos_site_id
 _symmetry_equiv_pos_as_xyz
  1  'x, y, z'
loop_
 _atom_site_type_symbol
 _atom_site_label
 _atom_site_symmetry_multiplicity
 _atom_site_fract_x
 _atom_site_fract_y
 _atom_site_fract_z
 _atom_site_occupancy
  Tb  Tb1  1  0.870000  0.262570  0.060130  1.0
  Tb  Tb2  1  0.130000  0.737430  0.939870  1.0
  Tb  Tb3  1  0.766180  0.376080  0.113590  1.0
  Tb  Tb4  1  0.233820  0.623920  0.886410  1.0
  Tb  Tb5  1  0.807240  0.475260  0.191770  1.0
  Tb  Tb6  1  0.192760  0.524740  0.808230  1.0
  Tb  Tb7  1  0.866900  0.643910  0.127360  1.0
  Tb  Tb8  1  0.133100  0.356090  0.872640  1.0
  Tb  Tb9  1  0.032040  0.693270  0.087140  1.0
  Tb  Tb10  1  0.967960  0.306730  0.912860  1.0
  Tb  Tb11  1  0.264280  0.126150  0.385040  1.0
  Tb  Tb12  1  0.735720  0.873850  0.614960  1.0
  Tb  Tb13  1  0.349910  0.024480  0.308560  1.0
  Tb  Tb14  1  0.650090  0.975520  0.691440  1.0
  Tb  Tb15  1  0.435610  0.854860  0.373570  1.0
  Tb  Tb16  1  0.564390  0.145140  0.626430  1.0
  Tb  Tb17  1  0.602500  0.802450  0.416240  1.0
  Tb  Tb18  1  0.397500  0.197550  0.583760  1.0
  Tb  Tb19  1  0.673980  0.759830  0.563680  1.0
  Tb  Tb20  1  0.326020  0.240170  0.436320  1.0
  H  H21  1  0.361900  0.274300  0.705300  1
  H  H22  1  0.638100  0.725700  0.294700  1
  H  H23  1  0.675400  0.173300  0.715700  1
  H  H24  1  0.324600  0.826700  0.284300  1
  H  H25  1  0.995800  0.227500  0.807900  1
  H  H26  1  0.004200  0.772500  0.192100  1
  H  H27  1  0.083200  0.661800  0.362000  1
  H  H28  1  0.916800  0.338200  0.638000  1
  H  H29  1  0.122700  0.243800  0.367500  1
  H  H30  1  0.877300  0.756200  0.632500  1
  H  H31  1  0.274500  0.402600  0.437100  1
  H  H32  1  0.725500  0.597400  0.562900  1
  H  H33  1  0.650700  0.258200  0.129100  1
  H  H34  1  0.349300  0.741800  0.870900  1
  H  H35  1  0.856500  0.109900  0.047000  1
  H  H36  1  0.143500  0.890100  0.953000  1
  H  H37  1  0.448500  0.904200  0.046200  1
  H  H38  1  0.551500  0.095800  0.953800  1
  H  H39  1  0.506200  0.914100  0.000600  1
  H  H40  1  0.493800  0.085900  0.999400  1
  H  H41  1  0.505800  0.933000  0.054000  1
  H  H42  1  0.494200  0.067000  0.946000  1
  H  H43  1  0.197800  0.133200  0.128000  1
  H  H44  1  0.802200  0.866800  0.872000  1
  H  H45  1  0.214100  0.102500  0.195800  1
  H  H46  1  0.785900  0.897500  0.804200  1
  H  H47  1  0.244500  0.164700  0.147900  1
  H  H48  1  0.755500  0.835300  0.852100  1
  H  H49  1  0.047500  0.410200  0.078500  1
  H  H50  1  0.952500  0.589800  0.921500  1
  H  H51  1  0.025900  0.386500  0.147000  1
  H  H52  1  0.974100  0.613500  0.853000  1
  H  H53  1  0.058100  0.336400  0.124000  1
  H  H54  1  0.941900  0.663600  0.876000  1
  H  H55  1  0.696900  0.335400  0.354100  1
  H  H56  1  0.303100  0.664600  0.645900  1
  H  H57  1  0.635600  0.371900  0.366100  1
  H  H58  1  0.364400  0.628100  0.633900  1
  H  H59  1  0.666200  0.395500  0.300300  1
  H  H60  1  0.333800  0.604500  0.699700  1
  H  H61  1  0.049000  0.201500  0.891000  1.0
  H  H62  1  0.951000  0.798500  0.109000  1.0
  H  H63  1  0.816500  0.206000  0.987000  1.0
  H  H64  1  0.183500  0.794000  0.013000  1.0
  H  H65  1  0.738000  0.234200  0.185100  1.0
  H  H66  1  0.262000  0.765800  0.814900  1.0
  H  H67  1  0.669700  0.464000  0.213000  1.0
  H  H68  1  0.330300  0.536000  0.787000  1.0
  H  H69  1  0.813000  0.610000  0.254000  1.0
  H  H70  1  0.187000  0.390000  0.746000  1.0
  H  H71  1  0.907100  0.362500  0.150000  1.0
  H  H72  1  0.092900  0.637500  0.850000  1.0
  H  H73  1  0.946100  0.360900  0.093300  1.0
  H  H74  1  0.053900  0.639100  0.906700  1.0
  H  H75  1  0.981900  0.272000  0.180100  1.0
  H  H76  1  0.018100  0.728000  0.819900  1.0
  H  H77  1  0.915400  0.248400  0.199600  1.0
  H  H78  1  0.084600  0.751600  0.800400  1.0
  H  H79  1  0.020000  0.183200  0.170400  1.0
  H  H80  1  0.980000  0.816800  0.829600  1.0
  H  H81  1  0.071500  0.090300  0.167600  1.0
  H  H82  1  0.928500  0.909700  0.832400  1.0
  H  H83  1  0.152500  0.012000  0.155000  1.0
  H  H84  1  0.847500  0.988000  0.845000  1.0
  H  H85  1  0.147100  0.989900  0.104500  1.0
  H  H86  1  0.852900  0.010100  0.895500  1.0
  H  H87  1  0.103300  0.964500  0.163400  1.0
  H  H88  1  0.896700  0.035500  0.836600  1.0
  H  H89  1  0.072200  0.048600  0.029400  1.0
  H  H90  1  0.927800  0.951400  0.970600  1.0
  H  H91  1  0.955600  0.149000  0.957400  1.0
  H  H92  1  0.044400  0.851000  0.042600  1.0
  H  H93  1  0.017000  0.112900  0.945500  1.0
  H  H94  1  0.983000  0.887100  0.054500  1.0
  H  H95  1  0.853900  0.501200  0.025000  1.0
  H  H96  1  0.146100  0.498800  0.975000  1.0
  H  H97  1  0.828400  0.556100  0.044800  1.0
  H  H98  1  0.171600  0.443900  0.955200  1.0
  H  H99  1  0.728900  0.549700  0.025200  1.0
  H  H100  1  0.271100  0.450300  0.974800  1.0
  H  H101  1  0.771500  0.560400  0.966600  1.0
  H  H102  1  0.228500  0.439600  0.033400  1.0
  H  H103  1  0.719200  0.505300  0.934100  1.0
  H  H104  1  0.280800  0.494700  0.065900  1.0
  H  H105  1  0.650600  0.462100  0.899800  1.0
  H  H106  1  0.349400  0.537900  0.100200  1.0
  H  H107  1  0.559800  0.362600  0.894400  1.0
  H  H108  1  0.440200  0.637400  0.105600  1.0
  H  H109  1  0.613000  0.357400  0.848700  1.0
  H  H110  1  0.387000  0.642600  0.151300  1.0
  H  H111  1  0.589900  0.425400  0.847100  1.0
  H  H112  1  0.410100  0.574600  0.152900  1.0
  H  H113  1  0.659900  0.272800  0.944100  1.0
  H  H114  1  0.340100  0.727200  0.055900  1.0
  H  H115  1  0.735700  0.211900  0.067900  1.0
  H  H116  1  0.264300  0.788100  0.932100  1.0
  H  H117  1  0.725400  0.196700  0.014000  1.0
  H  H118  1  0.274600  0.803300  0.986000  1.0
  H  H119  1  0.979600  0.534600  0.144900  1.0
  H  H120  1  0.020400  0.465400  0.855100  1.0
  H  H121  1  0.955200  0.485400  0.126300  1.0
  H  H122  1  0.044800  0.514600  0.873700  1.0
  H  H123  1  0.993500  0.424700  0.222200  1.0
  H  H124  1  0.006500  0.575300  0.777800  1.0
  H  H125  1  0.952600  0.469700  0.247200  1.0
  H  H126  1  0.047400  0.530300  0.752800  1.0
  H  H127  1  0.949700  0.335400  0.286200  1.0
  H  H128  1  0.050300  0.664600  0.713800  1.0
  H  H129  1  0.916400  0.238500  0.355800  1.0
  H  H130  1  0.083600  0.761500  0.644200  1.0
  H  H131  1  0.872500  0.094800  0.398500  1.0
  H  H132  1  0.127500  0.905200  0.601500  1.0
  H  H133  1  0.827100  0.115800  0.441400  1.0
  H  H134  1  0.172900  0.884200  0.558600  1.0
  H  H135  1  0.895600  0.132400  0.430500  1.0
  H  H136  1  0.104400  0.867600  0.569500  1.0
  H  H137  1  0.765300  0.168300  0.342700  1.0
  H  H138  1  0.234700  0.831700  0.657300  1.0
  H  H139  1  0.699000  0.226100  0.267300  1.0
  H  H140  1  0.301000  0.773900  0.732700  1.0
  H  H141  1  0.695000  0.302200  0.241500  1.0
  H  H142  1  0.305000  0.697800  0.758500  1.0
  H  H143  1  0.940800  0.621300  0.008200  1.0
  H  H144  1  0.059200  0.378700  0.991800  1.0
  H  H145  1  0.977900  0.683200  0.974200  1.0
  H  H146  1  0.022100  0.316800  0.025800  1.0
  H  H147  1  0.889400  0.751600  0.966500  1.0
  H  H148  1  0.110600  0.248400  0.033500  1.0
  H  H149  1  0.877200  0.703200  0.940800  1.0
  H  H150  1  0.122800  0.296800  0.059200  1.0
  H  H151  1  0.777300  0.706500  0.963800  1.0
  H  H152  1  0.222700  0.293500  0.036200  1.0
  H  H153  1  0.671600  0.719500  0.976300  1.0
  H  H154  1  0.328400  0.280500  0.023700  1.0
  H  H155  1  0.563400  0.733900  0.975100  1.0
  H  H156  1  0.436600  0.266100  0.024900  1.0
  H  H157  1  0.530300  0.729700  0.036000  1.0
  H  H158  1  0.469700  0.270300  0.964000  1.0
  H  H159  1  0.531700  0.671100  0.019800  1.0
  H  H160  1  0.468300  0.328900  0.980200  1.0
  H  H161  1  0.577100  0.623000  0.133900  1.0
  H  H162  1  0.422900  0.377000  0.866100  1.0
  H  H163  1  0.689800  0.564200  0.225600  1.0
  H  H164  1  0.310200  0.435800  0.774400  1.0
  H  H165  1  0.626000  0.545600  0.218800  1.0
  H  H166  1  0.374000  0.454400  0.781200  1.0
  H  H167  1  0.072800  0.564900  0.051900  1.0
  H  H168  1  0.927200  0.435100  0.948100  1.0
  H  H169  1  0.139900  0.577600  0.022500  1.0
  H  H170  1  0.860100  0.422400  0.977500  1.0
  H  H171  1  0.140400  0.516400  0.130400  1.0
  H  H172  1  0.859600  0.483600  0.869600  1.0
  H  H173  1  0.169900  0.582700  0.108500  1.0
  H  H174  1  0.830100  0.417300  0.891500  1.0
  H  H175  1  0.102700  0.510100  0.220200  1.0
  H  H176  1  0.897300  0.489900  0.779800  1.0
  H  H177  1  0.076900  0.495300  0.320300  1.0
  H  H178  1  0.923100  0.504700  0.679700  1.0
  H  H179  1  0.986200  0.465300  0.439000  1.0
  H  H180  1  0.013800  0.534700  0.561000  1.0
  H  H181  1  0.016600  0.524400  0.436600  1.0
  H  H182  1  0.983400  0.475600  0.563400  1.0
  H  H183  1  0.056600  0.471100  0.422200  1.0
  H  H184  1  0.943400  0.528900  0.577800  1.0
  H  H185  1  0.925900  0.583800  0.363600  1.0
  H  H186  1  0.074100  0.416200  0.636400  1.0
  H  H187  1  0.857700  0.654400  0.291800  1.0
  H  H188  1  0.142300  0.345600  0.708200  1.0
  H  H189  1  0.888400  0.696400  0.227700  1.0
  H  H190  1  0.111600  0.303600  0.772300  1.0
  H  H191  1  0.865100  0.008500  0.196400  1.0
  H  H192  1  0.134900  0.991500  0.803600  1.0
  H  H193  1  0.898100  0.987100  0.256000  1.0
  H  H194  1  0.101900  0.012900  0.744000  1.0
  H  H195  1  0.928000  0.034900  0.193800  1.0
  H  H196  1  0.072000  0.965100  0.806200  1.0
  H  H197  1  0.771000  0.100100  0.259800  1.0
  H  H198  1  0.229000  0.899900  0.740200  1.0
  H  H199  1  0.795600  0.026600  0.293600  1.0
  H  H200  1  0.204400  0.973400  0.706400  1.0
  H  H201  1  0.769800  0.053300  0.229600  1.0
  H  H202  1  0.230200  0.946700  0.770400  1.0
  H  H203  1  0.933000  0.106900  0.246900  1.0
  H  H204  1  0.067000  0.893100  0.753100  1.0
  H  H205  1  0.893600  0.063400  0.304600  1.0
  H  H206  1  0.106400  0.936600  0.695400  1.0
  H  H207  1  0.871900  0.137100  0.266800  1.0
  H  H208  1  0.128100  0.862900  0.733200  1.0
  H  H209  1  0.538100  0.403200  0.199000  1.0
  H  H210  1  0.461900  0.596800  0.801000  1.0
  H  H211  1  0.504900  0.472000  0.161000  1.0
  H  H212  1  0.495100  0.528000  0.839000  1.0
  H  H213  1  0.571000  0.466200  0.181700  1.0
  H  H214  1  0.429000  0.533800  0.818300  1.0
  H  H215  1  0.604200  0.534400  0.070600  1.0
  H  H216  1  0.395800  0.465600  0.929400  1.0
  H  H217  1  0.537100  0.536600  0.054100  1.0
  H  H218  1  0.462900  0.463400  0.945900  1.0
  H  H219  1  0.592400  0.510600  0.022900  1.0
  H  H220  1  0.407600  0.489400  0.977100  1.0
  H  H221  1  0.552300  0.397800  0.059300  1.0
  H  H222  1  0.447700  0.602200  0.940700  1.0
  H  H223  1  0.493500  0.434600  0.075200  1.0
  H  H224  1  0.506500  0.565400  0.924800  1.0
  H  H225  1  0.520200  0.367800  0.124600  1.0
  H  H226  1  0.479800  0.632200  0.875400  1.0
  H  H227  1  0.798800  0.338100  0.409500  1.0
  H  H228  1  0.201200  0.661900  0.590500  1.0
  H  H229  1  0.744200  0.380800  0.423800  1.0
  H  H230  1  0.255800  0.619200  0.576200  1.0
  H  H231  1  0.801600  0.356400  0.462900  1.0
  H  H232  1  0.198400  0.643600  0.537100  1.0
  H  H233  1  0.897800  0.399700  0.424300  1.0
  H  H234  1  0.102200  0.600300  0.575700  1.0
  H  H235  1  0.906500  0.456400  0.359000  1.0
  H  H236  1  0.093500  0.543600  0.641000  1.0
  H  H237  1  0.900300  0.385600  0.367800  1.0
  H  H238  1  0.099700  0.614400  0.632200  1.0
  H  H239  1  0.754000  0.495300  0.397900  1.0
  H  H240  1  0.246000  0.504700  0.602100  1.0
  H  H241  1  0.816100  0.525900  0.368500  1.0
  H  H242  1  0.183900  0.474100  0.631500  1.0
  H  H243  1  0.811000  0.475900  0.437000  1.0
  H  H244  1  0.189000  0.524100  0.563000  1.0
  H  H245  1  0.694400  0.807800  0.075200  1.0
  H  H246  1  0.305600  0.192200  0.924800  1.0
  H  H247  1  0.691800  0.883300  0.052700  1.0
  H  H248  1  0.308200  0.116700  0.947300  1.0
  H  H249  1  0.703500  0.836000  0.120400  1.0
  H  H250  1  0.296500  0.164000  0.879600  1.0
  H  H251  1  0.834600  0.853000  0.986400  1.0
  H  H252  1  0.165400  0.147000  0.013600  1.0
  H  H253  1  0.774800  0.900700  0.972600  1.0
  H  H254  1  0.225200  0.099300  0.027400  1.0
  H  H255  1  0.771600  0.827500  0.987500  1.0
  H  H256  1  0.228400  0.172500  0.012500  1.0
  H  H257  1  0.808600  0.874200  0.119200  1.0
  H  H258  1  0.191400  0.125800  0.880800  1.0
  H  H259  1  0.787200  0.930600  0.057900  1.0
  H  H260  1  0.212800  0.069400  0.942100  1.0
  H  H261  1  0.851300  0.891400  0.059900  1.0
  H  H262  1  0.148700  0.108600  0.940100  1.0
  H  H263  1  0.254500  0.624700  0.209000  1.0
  H  H264  1  0.745500  0.375300  0.791000  1.0
  H  H265  1  0.230400  0.641900  0.145900  1.0
  H  H266  1  0.769600  0.358100  0.854100  1.0
  H  H267  1  0.194000  0.597600  0.205600  1.0
  H  H268  1  0.806000  0.402400  0.794400  1.0
  H  H269  1  0.131100  0.648600  0.267500  1.0
  H  H270  1  0.868900  0.351400  0.732500  1.0
  H  H271  1  0.140700  0.720500  0.253000  1.0
  H  H272  1  0.859300  0.279500  0.747000  1.0
  H  H273  1  0.194600  0.665800  0.276600  1.0
  H  H274  1  0.805400  0.334200  0.723400  1.0
  H  H275  1  0.195200  0.792100  0.157500  1.0
  H  H276  1  0.804800  0.207900  0.842500  1.0
  H  H277  1  0.231600  0.762500  0.116200  1.0
  H  H278  1  0.768400  0.237500  0.883800  1.0
  H  H279  1  0.255400  0.746200  0.179200  1.0
  H  H280  1  0.744600  0.253800  0.820800  1.0
  H  H281  1  0.239900  0.300000  0.506000  1.0
  H  H282  1  0.760100  0.700000  0.494000  1.0
  H  H283  1  0.218000  0.267800  0.310600  1.0
  H  H284  1  0.782000  0.732200  0.689400  1.0
  H  H285  1  0.214000  0.040000  0.287000  1.0
  H  H286  1  0.786000  0.960000  0.713000  1.0
  H  H287  1  0.405000  0.888000  0.246000  1.0
  H  H288  1  0.595000  0.112000  0.754000  1.0
  H  H289  1  0.553000  0.697600  0.396000  1.0
  H  H290  1  0.447000  0.302400  0.604000  1.0
  H  H291  1  0.361700  0.999200  0.474200  1.0
  H  H292  1  0.638300  0.000800  0.525800  1.0
  H  H293  1  0.353400  0.944400  0.455000  1.0
  H  H294  1  0.646600  0.055600  0.545000  1.0
  H  H295  1  0.247000  0.953200  0.476200  1.0
  H  H296  1  0.753000  0.046800  0.523800  1.0
  H  H297  1  0.278600  0.943100  0.534000  1.0
  H  H298  1  0.721400  0.056900  0.466000  1.0
  H  H299  1  0.206700  0.999700  0.564900  1.0
  H  H300  1  0.793300  0.000300  0.435100  1.0
  H  H301  1  0.117900  0.045000  0.600200  1.0
  H  H302  1  0.882100  0.955000  0.399800  1.0
  H  H303  1  0.026000  0.083500  0.639400  1.0
  H  H304  1  0.974000  0.916500  0.360600  1.0
  H  H305  1  0.005300  0.158200  0.609500  1.0
  H  H306  1  0.994700  0.841800  0.390500  1.0
  H  H307  1  0.049400  0.129200  0.662600  1.0
  H  H308  1  0.950600  0.870800  0.337400  1.0
  H  H309  1  0.089000  0.235300  0.550400  1.0
  H  H310  1  0.911000  0.764700  0.449600  1.0
  H  H311  1  0.151300  0.310600  0.479200  1.0
  H  H312  1  0.848700  0.689400  0.520800  1.0
  H  H313  1  0.178400  0.293800  0.425900  1.0
  H  H314  1  0.821600  0.706200  0.574100  1.0
  H  H315  1  0.524800  0.962500  0.361100  1.0
  H  H316  1  0.475200  0.037500  0.638900  1.0
  H  H317  1  0.481000  0.013300  0.376600  1.0
  H  H318  1  0.519000  0.986700  0.623400  1.0
  H  H319  1  0.531900  0.070500  0.280400  1.0
  H  H320  1  0.468100  0.929500  0.719600  1.0
  H  H321  1  0.508300  0.024900  0.256800  1.0
  H  H322  1  0.491700  0.975100  0.743200  1.0
  H  H323  1  0.481400  0.161600  0.216800  1.0
  H  H324  1  0.518600  0.838400  0.783200  1.0
  H  H325  1  0.442700  0.258100  0.143900  1.0
  H  H326  1  0.557300  0.741900  0.856100  1.0
  H  H327  1  0.343400  0.380500  0.055400  1.0
  H  H328  1  0.656600  0.619500  0.944600  1.0
  H  H329  1  0.413400  0.360800  0.066300  1.0
  H  H330  1  0.586600  0.639200  0.933700  1.0
  H  H331  1  0.375000  0.401900  0.096400  1.0
  H  H332  1  0.625000  0.598100  0.903600  1.0
  H  H333  1  0.269400  0.331000  0.152800  1.0
  H  H334  1  0.730600  0.669000  0.847200  1.0
  H  H335  1  0.197500  0.274400  0.227500  1.0
  H  H336  1  0.802500  0.725600  0.772500  1.0
  H  H337  1  0.207200  0.198100  0.254400  1.0
  H  H338  1  0.792800  0.801900  0.745600  1.0
  H  H339  1  0.472100  0.876400  0.492600  1.0
  H  H340  1  0.527900  0.123600  0.507400  1.0
  H  H341  1  0.517300  0.814800  0.526200  1.0
  H  H342  1  0.482700  0.185200  0.473800  1.0
  H  H343  1  0.443400  0.745200  0.535300  1.0
  H  H344  1  0.556600  0.254800  0.464700  1.0
  H  H345  1  0.412000  0.793800  0.561000  1.0
  H  H346  1  0.588000  0.206200  0.439000  1.0
  H  H347  1  0.319200  0.795100  0.535700  1.0
  H  H348  1  0.680800  0.204900  0.464300  1.0
  H  H349  1  0.219500  0.784200  0.522800  1.0
  H  H350  1  0.780500  0.215800  0.477200  1.0
  H  H351  1  0.114900  0.774300  0.523800  1.0
  H  H352  1  0.885100  0.225700  0.476200  1.0
  H  H353  1  0.093400  0.781700  0.462700  1.0
  H  H354  1  0.906600  0.218300  0.537300  1.0
  H  H355  1  0.079800  0.839500  0.480500  1.0
  H  H356  1  0.920200  0.160500  0.519500  1.0
  H  H357  1  0.140200  0.881300  0.365300  1.0
  H  H358  1  0.859800  0.118700  0.634700  1.0
  H  H359  1  0.262300  0.939800  0.273800  1.0
  H  H360  1  0.737700  0.060200  0.726200  1.0
  H  H361  1  0.192000  0.959500  0.280600  1.0
  H  H362  1  0.808000  0.040500  0.719400  1.0
  H  H363  1  0.665000  0.917900  0.479400  1.0
  H  H364  1  0.335000  0.082100  0.520600  1.0
  H  H365  1  0.602500  0.931900  0.448800  1.0
  H  H366  1  0.397500  0.068100  0.551200  1.0
  H  H367  1  0.680000  0.975700  0.372000  1.0
  H  H368  1  0.320000  0.024300  0.628000  1.0
  H  H369  1  0.718800  0.907700  0.396100  1.0
  H  H370  1  0.281200  0.092300  0.603900  1.0
  H  H371  1  0.662000  0.983500  0.283300  1.0
  H  H372  1  0.338000  0.016500  0.716700  1.0
  H  H373  1  0.658300  0.996800  0.183900  1.0
  H  H374  1  0.341700  0.003200  0.816100  1.0
  H  H375  1  0.610800  0.043900  0.072400  1.0
  H  H376  1  0.389200  0.956100  0.927600  1.0
  H  H377  1  0.605900  0.982900  0.061200  1.0
  H  H378  1  0.394100  0.017100  0.938800  1.0
  H  H379  1  0.667600  0.992800  0.080700  1.0
  H  H380  1  0.332400  0.007200  0.919300  1.0
  H  H381  1  0.540400  0.912300  0.139700  1.0
  H  H382  1  0.459600  0.087700  0.860300  1.0
  H  H383  1  0.471000  0.842500  0.209600  1.0
  H  H384  1  0.529000  0.157500  0.790400  1.0
  H  H385  1  0.495600  0.800800  0.274200  1.0
  H  H386  1  0.504400  0.199200  0.725800  1.0
  H  H387  1  0.588700  0.868300  0.647000  1.0
  H  H388  1  0.411300  0.131700  0.353000  1.0
  H  H389  1  0.565000  0.864500  0.591100  1.0
  H  H390  1  0.435000  0.135500  0.408900  1.0
  H  H391  1  0.596000  0.751900  0.701500  1.0
  H  H392  1  0.404000  0.248100  0.298500  1.0
  H  H393  1  0.528400  0.775800  0.681100  1.0
  H  H394  1  0.471600  0.224200  0.318900  1.0
  H  H395  1  0.511700  0.687500  0.671000  1.0
  H  H396  1  0.488300  0.312500  0.329000  1.0
  H  H397  1  0.491500  0.590400  0.672700  1.0
  H  H398  1  0.508500  0.409600  0.327300  1.0
  H  H399  1  0.481100  0.474500  0.683500  1.0
  H  H400  1  0.518900  0.525500  0.316500  1.0
  H  H401  1  0.480200  0.471300  0.621700  1.0
  H  H402  1  0.519800  0.528700  0.378300  1.0
  H  H403  1  0.427300  0.511800  0.641200  1.0
  H  H404  1  0.572700  0.488200  0.358800  1.0
  H  H405  1  0.535200  0.545200  0.536400  1.0
  H  H406  1  0.464800  0.454800  0.463600  1.0
  H  H407  1  0.644100  0.643100  0.463100  1.0
  H  H408  1  0.355900  0.356900  0.536900  1.0
  H  H409  1  0.594100  0.607500  0.451900  1.0
  H  H410  1  0.405900  0.392500  0.548100  1.0
  H  H411  1  0.059400  0.969400  0.455000  1.0
  H  H412  1  0.940600  0.030600  0.545000  1.0
  H  H413  1  0.111500  0.992800  0.476800  1.0
  H  H414  1  0.888500  0.007200  0.523200  1.0
  H  H415  1  0.127100  0.965700  0.428700  1.0
  H  H416  1  0.872900  0.034300  0.571300  1.0
  H  H417  1  0.031100  0.040400  0.340600  1.0
  H  H418  1  0.968900  0.959600  0.659400  1.0
  H  H419  1  0.101200  0.025900  0.327400  1.0
  H  H420  1  0.898800  0.974100  0.672600  1.0
  H  H421  1  0.071500  0.097900  0.300500  1.0
  H  H422  1  0.928500  0.902100  0.699500  1.0
  H  H423  1  0.010600  0.128600  0.378300  1.0
  H  H424  1  0.989400  0.871400  0.621700  1.0
  H  H425  1  0.048400  0.118700  0.432200  1.0
  H  H426  1  0.951600  0.881300  0.567800  1.0
  H  H427  1  0.004700  0.066300  0.440200  1.0
  H  H428  1  0.995300  0.933700  0.559800  1.0
  H  H429  1  0.324100  0.119700  0.076400  1.0
  H  H430  1  0.675900  0.880300  0.923600  1.0
  H  H431  1  0.385300  0.143300  0.037600  1.0
  H  H432  1  0.614700  0.856700  0.962400  1.0
  H  H433  1  0.364100  0.162000  0.090800  1.0
  H  H434  1  0.635900  0.838000  0.909200  1.0
  H  H435  1  0.466300  0.114500  0.134600  1.0
  H  H436  1  0.533700  0.885500  0.865400  1.0
  H  H437  1  0.484500  0.099000  0.079200  1.0
  H  H438  1  0.515500  0.901000  0.920800  1.0
  H  H439  1  0.490300  0.043500  0.145200  1.0
  H  H440  1  0.509700  0.956500  0.854800  1.0
  H  H441  1  0.422200  0.973400  0.130000  1.0
  H  H442  1  0.577800  0.026600  0.870000  1.0
  H  H443  1  0.415700  0.024500  0.062400  1.0
  H  H444  1  0.584300  0.975500  0.937600  1.0
  H  H445  1  0.357000  0.001900  0.105800  1.0
  H  H446  1  0.643000  0.998100  0.894200  1.0
  H  H447  1  0.314400  0.671400  0.378600  1.0
  H  H448  1  0.685600  0.328600  0.621400  1.0
  H  H449  1  0.290600  0.694400  0.428600  1.0
  H  H450  1  0.709400  0.305600  0.571400  1.0
  H  H451  1  0.300600  0.619800  0.445400  1.0
  H  H452  1  0.699400  0.380200  0.554600  1.0
  H  H453  1  0.374400  0.595900  0.525900  1.0
  H  H454  1  0.625600  0.404100  0.474100  1.0
  H  H455  1  0.352000  0.667700  0.514100  1.0
  H  H456  1  0.648000  0.332300  0.485900  1.0
  H  H457  1  0.422400  0.646600  0.511100  1.0
  H  H458  1  0.577600  0.353400  0.488900  1.0
  H  H459  1  0.421700  0.625900  0.375000  1.0
  H  H460  1  0.578300  0.374100  0.625000  1.0
  H  H461  1  0.411700  0.570300  0.440600  1.0
  H  H462  1  0.588300  0.429700  0.559400  1.0
  H  H463  1  0.464900  0.615500  0.425300  1.0
  H  H464  1  0.535100  0.384500  0.574700  1.0
  H  H465  1  0.742300  0.825000  0.237700  1.0
  H  H466  1  0.257700  0.175000  0.762300  1.0
  H  H467  1  0.756300  0.749100  0.267300  1.0
  H  H468  1  0.243700  0.250900  0.732700  1.0
  H  H469  1  0.810100  0.794200  0.238400  1.0
  H  H470  1  0.189900  0.205800  0.761600  1.0
  H  H471  1  0.836800  0.859400  0.291100  1.0
  H  H472  1  0.163200  0.140600  0.708900  1.0
  H  H473  1  0.798700  0.852100  0.350900  1.0
  H  H474  1  0.201300  0.147900  0.649100  1.0
  H  H475  1  0.768100  0.887900  0.288800  1.0
  H  H476  1  0.231900  0.112100  0.711200  1.0
  H  H477  1  0.862600  0.738000  0.335600  1.0
  H  H478  1  0.137400  0.262000  0.664400  1.0
  H  H479  1  0.809200  0.692400  0.365400  1.0
  H  H480  1  0.190800  0.307600  0.634600  1.0
  H  H481  1  0.827200  0.734400  0.395400  1.0
  H  H482  1  0.172800  0.265600  0.604600  1.0
  H  H483  1  0.783000  0.555100  0.737200  1.0
  H  H484  1  0.217000  0.444900  0.262800  1.0
  H  H485  1  0.747100  0.525300  0.800600  1.0
  H  H486  1  0.252900  0.474700  0.199400  1.0
  H  H487  1  0.760600  0.598700  0.770400  1.0
  H  H488  1  0.239400  0.401300  0.229600  1.0
  H  H489  1  0.650500  0.639600  0.773000  1.0
  H  H490  1  0.349500  0.360400  0.227000  1.0
  H  H491  1  0.633500  0.567400  0.808200  1.0
  H  H492  1  0.366500  0.432600  0.191800  1.0
  H  H493  1  0.601800  0.614900  0.748500  1.0
  H  H494  1  0.398200  0.385100  0.251500  1.0
  H  H495  1  0.634100  0.535300  0.706600  1.0
  H  H496  1  0.365900  0.464700  0.293400  1.0
  H  H497  1  0.666667  0.488400  0.766000  1.0
  H  H498  1  0.333333  0.511600  0.234000  1.0
  H  H499  1  0.703500  0.510700  0.703100  1.0
  H  H500  1  0.296500  0.489300  0.296900  1.0
  C  C501  1  0.363300  0.312800  0.712000  1
  C  C502  1  0.636700  0.687200  0.288000  1
  C  C503  1  0.693500  0.185900  0.742800  1
  C  C504  1  0.306500  0.814100  0.257200  1
  C  C505  1  0.001300  0.198100  0.788700  1
  C  C506  1  0.998700  0.801900  0.211300  1
  C  C507  1  0.093700  0.661000  0.399800  1
  C  C508  1  0.906300  0.339000  0.600200  1
  C  C509  1  0.089100  0.275800  0.347000  1
  C  C510  1  0.910900  0.724200  0.653000  1
  C  C511  1  0.248800  0.440000  0.438400  1
  C  C512  1  0.751200  0.560000  0.561600  1
  C  C513  1  0.619400  0.227200  0.148200  1
  C  C514  1  0.380600  0.772800  0.851800  1
  C  C515  1  0.844300  0.071200  0.045800  1
  C  C516  1  0.155700  0.928800  0.954200  1
  C  C517  1  0.492500  0.902700  0.042000  1
  C  C518  1  0.507500  0.097300  0.958000  1
  C  C519  1  0.520000  0.833700  0.082000  1
  C  C520  1  0.480000  0.166300  0.918000  1
  C  C521  1  0.157600  0.183500  0.172000  1
  C  C522  1  0.842400  0.816500  0.828000  1
  C  C523  1  0.207800  0.142500  0.159900  1
  C  C524  1  0.792200  0.857500  0.840100  1
  C  C525  1  0.118700  0.392000  0.131900  1
  C  C526  1  0.881300  0.608000  0.868100  1
  C  C527  1  0.056900  0.380200  0.119200  1
  C  C528  1  0.943100  0.619800  0.880800  1
  C  C529  1  0.623500  0.314700  0.327800  1
  C  C530  1  0.376500  0.685300  0.672200  1
  C  C531  1  0.658600  0.358100  0.338000  1
  C  C532  1  0.341400  0.641900  0.662000  1
  C  C533  1  0.916600  0.338200  0.126200  1.0
  C  C534  1  0.083400  0.661800  0.873800  1.0
  C  C535  1  0.943500  0.270500  0.165200  1.0
  C  C536  1  0.056500  0.729500  0.834800  1.0
  C  C537  1  0.997500  0.192900  0.137400  1.0
  C  C538  1  0.002500  0.807100  0.862600  1.0
  C  C539  1  0.016100  0.155600  0.102800  1.0
  C  C540  1  0.983900  0.844400  0.897200  1.0
  C  C541  1  0.057800  0.099600  0.130200  1.0
  C  C542  1  0.942200  0.900400  0.869800  1.0
  C  C543  1  0.078700  0.058500  0.104600  1.0
  C  C544  1  0.921300  0.941500  0.895400  1.0
  C  C545  1  0.124600  0.001000  0.134600  1.0
  C  C546  1  0.875400  0.999000  0.865400  1.0
  C  C547  1  0.058300  0.075000  0.048400  1.0
  C  C548  1  0.941700  0.925000  0.951600  1.0
  C  C549  1  0.017800  0.129600  0.019000  1.0
  C  C550  1  0.982200  0.870400  0.981000  1.0
  C  C551  1  0.996000  0.171300  0.045800  1.0
  C  C552  1  0.004000  0.828700  0.954200  1.0
  C  C553  1  0.999900  0.147000  0.956900  1.0
  C  C554  1  0.000100  0.853000  0.043100  1.0
  C  C555  1  0.818900  0.516600  0.044000  1.0
  C  C556  1  0.181100  0.483400  0.956000  1.0
  C  C557  1  0.763000  0.530300  0.008600  1.0
  C  C558  1  0.237000  0.469700  0.991400  1.0
  C  C559  1  0.724800  0.466000  0.968400  1.0
  C  C560  1  0.275200  0.534000  0.031600  1.0
  C  C561  1  0.706900  0.408300  0.966400  1.0
  C  C562  1  0.293100  0.591700  0.033600  1.0
  C  C563  1  0.664900  0.419300  0.924200  1.0
  C  C564  1  0.335100  0.580700  0.075800  1.0
  C  C565  1  0.643100  0.369600  0.916700  1.0
  C  C566  1  0.356900  0.630400  0.083300  1.0
  C  C567  1  0.597400  0.379700  0.872800  1.0
  C  C568  1  0.402600  0.620300  0.127200  1.0
  C  C569  1  0.670900  0.307100  0.950000  1.0
  C  C570  1  0.329100  0.692900  0.050000  1.0
  C  C571  1  0.714100  0.293700  0.991500  1.0
  C  C572  1  0.285900  0.706300  0.008500  1.0
  C  C573  1  0.732900  0.343500  0.002100  1.0
  C  C574  1  0.267100  0.656500  0.997900  1.0
  C  C575  1  0.743600  0.226000  0.024700  1.0
  C  C576  1  0.256400  0.774000  0.975300  1.0
  C  C577  1  0.948800  0.504300  0.154700  1.0
  C  C578  1  0.051200  0.495700  0.845300  1.0
  C  C579  1  0.954600  0.450800  0.219000  1.0
  C  C580  1  0.045400  0.549200  0.781000  1.0
  C  C581  1  0.911900  0.349900  0.269300  1.0
  C  C582  1  0.088100  0.650100  0.730700  1.0
  C  C583  1  0.867000  0.301300  0.287100  1.0
  C  C584  1  0.133000  0.698700  0.712900  1.0
  C  C585  1  0.880900  0.243200  0.336700  1.0
  C  C586  1  0.119100  0.756800  0.663300  1.0
  C  C587  1  0.844500  0.191600  0.359300  1.0
  C  C588  1  0.155500  0.808400  0.640700  1.0
  C  C589  1  0.861500  0.127900  0.412200  1.0
  C  C590  1  0.138500  0.872100  0.587800  1.0
  C  C591  1  0.791400  0.201500  0.328600  1.0
  C  C592  1  0.208600  0.798500  0.671400  1.0
  C  C593  1  0.776600  0.258400  0.278600  1.0
  C  C594  1  0.223400  0.741600  0.721400  1.0
  C  C595  1  0.813300  0.310900  0.256600  1.0
  C  C596  1  0.186700  0.689100  0.743400  1.0
  C  C597  1  0.721800  0.264100  0.244800  1.0
  C  C598  1  0.278200  0.735900  0.755200  1.0
  C  C599  1  0.943100  0.665500  0.002400  1.0
  C  C600  1  0.056900  0.334500  0.997600  1.0
  C  C601  1  0.885200  0.706300  0.977100  1.0
  C  C602  1  0.114800  0.293700  0.022900  1.0
  C  C603  1  0.781500  0.687200  0.005300  1.0
  C  C604  1  0.218500  0.312800  0.994700  1.0
  C  C605  1  0.726200  0.664700  0.044700  1.0
  C  C606  1  0.273800  0.335300  0.955300  1.0
  C  C607  1  0.670600  0.690900  0.017300  1.0
  C  C608  1  0.329400  0.309100  0.982700  1.0
  C  C609  1  0.614500  0.676000  0.048600  1.0
  C  C610  1  0.385500  0.324000  0.951400  1.0
  C  C611  1  0.554300  0.705400  0.016900  1.0
  C  C612  1  0.445700  0.294600  0.983100  1.0
  C  C613  1  0.614100  0.632000  0.110800  1.0
  C  C614  1  0.385900  0.368000  0.889200  1.0
  C  C615  1  0.668500  0.602600  0.137300  1.0
  C  C616  1  0.331500  0.397400  0.862700  1.0
  C  C617  1  0.726900  0.619000  0.106400  1.0
  C  C618  1  0.273100  0.381000  0.893600  1.0
  C  C619  1  0.668100  0.550700  0.201900  1.0
  C  C620  1  0.331900  0.449300  0.798100  1.0
  C  C621  1  0.108500  0.587000  0.049000  1.0
  C  C622  1  0.891500  0.413000  0.951000  1.0
  C  C623  1  0.132200  0.563500  0.111500  1.0
  C  C624  1  0.867800  0.436500  0.888500  1.0
  C  C625  1  0.076800  0.548200  0.204100  1.0
  C  C626  1  0.923200  0.451800  0.795900  1.0
  C  C627  1  0.031900  0.561000  0.246300  1.0
  C  C628  1  0.968100  0.439000  0.753700  1.0
  C  C629  1  0.042700  0.525300  0.308700  1.0
  C  C630  1  0.957300  0.474700  0.691300  1.0
  C  C631  1  0.004300  0.534100  0.351900  1.0
  C  C632  1  0.995700  0.465900  0.648100  1.0
  C  C633  1  0.017100  0.495100  0.418600  1.0
  C  C634  1  0.982900  0.504900  0.581400  1.0
  C  C635  1  0.952100  0.577100  0.334400  1.0
  C  C636  1  0.047900  0.422900  0.665600  1.0
  C  C637  1  0.938400  0.610200  0.274000  1.0
  C  C638  1  0.061600  0.389800  0.726000  1.0
  C  C639  1  0.977800  0.605400  0.227300  1.0
  C  C640  1  0.022200  0.394600  0.772700  1.0
  C  C641  1  0.879400  0.652500  0.256200  1.0
  C  C642  1  0.120600  0.347500  0.743800  1.0
  C  C643  1  0.851000  0.140300  0.163700  1.0
  C  C644  1  0.149000  0.859700  0.836300  1.0
  C  C645  1  0.856100  0.080500  0.225200  1.0
  C  C646  1  0.143900  0.919500  0.774800  1.0
  C  C647  1  0.890000  0.022300  0.217100  1.0
  C  C648  1  0.110000  0.977700  0.782900  1.0
  C  C649  1  0.792200  0.063600  0.254800  1.0
  C  C650  1  0.207800  0.936400  0.745200  1.0
  C  C651  1  0.892100  0.098700  0.264600  1.0
  C  C652  1  0.107900  0.901300  0.735400  1.0
  C  C653  1  0.636600  0.410500  0.119500  1.0
  C  C654  1  0.363400  0.589500  0.880500  1.0
  C  C655  1  0.571300  0.443900  0.110100  1.0
  C  C656  1  0.428700  0.556100  0.889900  1.0
  C  C657  1  0.543800  0.446600  0.168400  1.0
  C  C658  1  0.456200  0.553400  0.831600  1.0
  C  C659  1  0.576800  0.512700  0.059700  1.0
  C  C660  1  0.423200  0.487300  0.940300  1.0
  C  C661  1  0.530400  0.407600  0.090400  1.0
  C  C662  1  0.469600  0.592400  0.909600  1.0
  C  C663  1  0.803400  0.451200  0.314400  1.0
  C  C664  1  0.196600  0.548800  0.685600  1.0
  C  C665  1  0.817800  0.431600  0.380700  1.0
  C  C666  1  0.182200  0.568400  0.619300  1.0
  C  C667  1  0.787900  0.371300  0.423000  1.0
  C  C668  1  0.212100  0.628700  0.577000  1.0
  C  C669  1  0.887000  0.417000  0.383200  1.0
  C  C670  1  0.113000  0.583000  0.616800  1.0
  C  C671  1  0.797900  0.487300  0.397600  1.0
  C  C672  1  0.202100  0.512700  0.602400  1.0
  C  C673  1  0.809400  0.770600  0.098200  1.0
  C  C674  1  0.190600  0.229400  0.901800  1.0
  C  C675  1  0.780100  0.839900  0.063500  1.0
  C  C676  1  0.219900  0.160100  0.936500  1.0
  C  C677  1  0.711000  0.842000  0.079400  1.0
  C  C678  1  0.289000  0.158000  0.920600  1.0
  C  C679  1  0.791300  0.856800  0.996300  1.0
  C  C680  1  0.208700  0.143200  0.003700  1.0
  C  C681  1  0.809500  0.888500  0.076300  1.0
  C  C682  1  0.190500  0.111500  0.923700  1.0
  C  C683  1  0.124800  0.709100  0.149800  1.0
  C  C684  1  0.875200  0.290900  0.850200  1.0
  C  C685  1  0.181100  0.694600  0.187600  1.0
  C  C686  1  0.818900  0.305400  0.812400  1.0
  C  C687  1  0.218500  0.634000  0.187000  1.0
  C  C688  1  0.781500  0.366000  0.813000  1.0
  C  C689  1  0.160000  0.681100  0.252100  1.0
  C  C690  1  0.840000  0.318900  0.747900  1.0
  C  C691  1  0.219500  0.754600  0.157200  1.0
  C  C692  1  0.780500  0.245400  0.842800  1.0
  C  C693  1  0.334500  0.984400  0.455700  1.0
  C  C694  1  0.665500  0.015600  0.544300  1.0
  C  C695  1  0.272700  0.972600  0.491900  1.0
  C  C696  1  0.727300  0.027400  0.508100  1.0
  C  C697  1  0.210300  0.038800  0.530300  1.0
  C  C698  1  0.789700  0.961200  0.469700  1.0
  C  C699  1  0.177500  0.096200  0.532300  1.0
  C  C700  1  0.822500  0.903800  0.467700  1.0
  C  C701  1  0.127800  0.087400  0.575400  1.0
  C  C702  1  0.872200  0.912600  0.424600  1.0
  C  C703  1  0.092500  0.137800  0.583100  1.0
  C  C704  1  0.907500  0.862200  0.416900  1.0
  C  C705  1  0.038500  0.126100  0.627600  1.0
  C  C706  1  0.961500  0.873900  0.372400  1.0
  C  C707  1  0.111100  0.200200  0.546300  1.0
  C  C708  1  0.888900  0.799800  0.453700  1.0
  C  C709  1  0.160300  0.212400  0.504200  1.0
  C  C710  1  0.839700  0.787600  0.495800  1.0
  C  C711  1  0.194500  0.161100  0.495700  1.0
  C  C712  1  0.805500  0.838900  0.504300  1.0
  C  C713  1  0.179600  0.280700  0.468900  1.0
  C  C714  1  0.820400  0.719300  0.531100  1.0
  C  C715  1  0.488700  0.993200  0.349200  1.0
  C  C716  1  0.511300  0.006800  0.650800  1.0
  C  C717  1  0.498400  0.045200  0.283900  1.0
  C  C718  1  0.501600  0.954800  0.716100  1.0
  C  C719  1  0.442800  0.147100  0.232400  1.0
  C  C720  1  0.557200  0.852900  0.767600  1.0
  C  C721  1  0.390700  0.195800  0.212600  1.0
  C  C722  1  0.609300  0.804200  0.787400  1.0
  C  C723  1  0.403300  0.254000  0.162300  1.0
  C  C724  1  0.596700  0.746000  0.837700  1.0
  C  C725  1  0.358500  0.306400  0.138400  1.0
  C  C726  1  0.641500  0.693600  0.861600  1.0
  C  C727  1  0.374000  0.367900  0.084300  1.0
  C  C728  1  0.626000  0.632100  0.915700  1.0
  C  C729  1  0.300500  0.297700  0.167900  1.0
  C  C730  1  0.699500  0.702300  0.832100  1.0
  C  C731  1  0.287300  0.241500  0.218700  1.0
  C  C732  1  0.712700  0.758500  0.781300  1.0
  C  C733  1  0.332300  0.187800  0.241800  1.0
  C  C734  1  0.667700  0.812200  0.758200  1.0
  C  C735  1  0.224400  0.236500  0.250700  1.0
  C  C736  1  0.775600  0.763500  0.749300  1.0
  C  C737  1  0.484700  0.832200  0.498400  1.0
  C  C738  1  0.515300  0.167800  0.501600  1.0
  C  C739  1  0.430300  0.790500  0.524900  1.0
  C  C740  1  0.569700  0.209500  0.475100  1.0
  C  C741  1  0.328900  0.813700  0.494300  1.0
  C  C742  1  0.671100  0.186300  0.505700  1.0
  C  C743  1  0.278300  0.836700  0.455000  1.0
  C  C744  1  0.721700  0.163300  0.545000  1.0
  C  C745  1  0.221600  0.812900  0.481900  1.0
  C  C746  1  0.778400  0.187100  0.518100  1.0
  C  C747  1  0.168500  0.829700  0.451000  1.0
  C  C748  1  0.831500  0.170300  0.549000  1.0
  C  C749  1  0.108800  0.804000  0.482300  1.0
  C  C750  1  0.891200  0.196000  0.517700  1.0
  C  C751  1  0.173300  0.872400  0.388800  1.0
  C  C752  1  0.826700  0.127600  0.611200  1.0
  C  C753  1  0.228700  0.901800  0.361900  1.0
  C  C754  1  0.771300  0.098200  0.638100  1.0
  C  C755  1  0.282700  0.883100  0.392500  1.0
  C  C756  1  0.717300  0.116900  0.607500  1.0
  C  C757  1  0.231200  0.953700  0.297600  1.0
  C  C758  1  0.768800  0.046300  0.702400  1.0
  C  C759  1  0.642900  0.908300  0.453100  1.0
  C  C760  1  0.357100  0.091700  0.546900  1.0
  C  C761  1  0.677500  0.929000  0.391600  1.0
  C  C762  1  0.322500  0.071000  0.608400  1.0
  C  C763  1  0.641600  0.945800  0.299100  1.0
  C  C764  1  0.358400  0.054200  0.700900  1.0
  C  C765  1  0.610500  0.934000  0.256900  1.0
  C  C766  1  0.389500  0.066000  0.743100  1.0
  C  C767  1  0.628100  0.968100  0.195000  1.0
  C  C768  1  0.371900  0.031900  0.805000  1.0
  C  C769  1  0.603100  0.961000  0.150200  1.0
  C  C770  1  0.396900  0.039000  0.849800  1.0
  C  C771  1  0.623700  0.998500  0.085300  1.0
  C  C772  1  0.376300  0.001500  0.914700  1.0
  C  C773  1  0.557500  0.918600  0.169000  1.0
  C  C774  1  0.442500  0.081400  0.831000  1.0
  C  C775  1  0.536200  0.885700  0.227400  1.0
  C  C776  1  0.463800  0.114300  0.772600  1.0
  C  C777  1  0.562900  0.890800  0.275000  1.0
  C  C778  1  0.437100  0.109200  0.725000  1.0
  C  C779  1  0.483000  0.844800  0.245100  1.0
  C  C780  1  0.517000  0.155200  0.754900  1.0
  C  C781  1  0.591200  0.842500  0.624800  1.0
  C  C782  1  0.408800  0.157500  0.375200  1.0
  C  C783  1  0.571000  0.773300  0.666800  1.0
  C  C784  1  0.429000  0.226700  0.333200  1.0
  C  C785  1  0.542000  0.694300  0.639900  1.0
  C  C786  1  0.458000  0.305700  0.360100  1.0
  C  C787  1  0.543100  0.655600  0.606900  1.0
  C  C788  1  0.456900  0.344400  0.393100  1.0
  C  C789  1  0.511000  0.599600  0.634800  1.0
  C  C790  1  0.489000  0.400400  0.365200  1.0
  C  C791  1  0.506300  0.558100  0.611200  1.0
  C  C792  1  0.493700  0.441900  0.388800  1.0
  C  C793  1  0.470500  0.498500  0.642200  1.0
  C  C794  1  0.529500  0.501500  0.357800  1.0
  C  C795  1  0.536900  0.572600  0.554400  1.0
  C  C796  1  0.463100  0.427400  0.445600  1.0
  C  C797  1  0.570200  0.627600  0.524300  1.0
  C  C798  1  0.429800  0.372400  0.475700  1.0
  C  C799  1  0.574300  0.669100  0.550200  1.0
  C  C800  1  0.425700  0.330900  0.449800  1.0
  C  C801  1  0.600300  0.642000  0.462500  1.0
  C  C802  1  0.399700  0.358000  0.537500  1.0
  C  C803  1  0.145400  0.093200  0.380600  1.0
  C  C804  1  0.854600  0.906800  0.619400  1.0
  C  C805  1  0.085000  0.061200  0.390600  1.0
  C  C806  1  0.915000  0.938800  0.609400  1.0
  C  C807  1  0.096900  0.990400  0.442900  1.0
  C  C808  1  0.903100  0.009600  0.557100  1.0
  C  C809  1  0.070900  0.055900  0.334600  1.0
  C  C810  1  0.929100  0.944100  0.665400  1.0
  C  C811  1  0.032300  0.097000  0.412300  1.0
  C  C812  1  0.967700  0.903000  0.587700  1.0
  C  C813  1  0.373000  0.046900  0.185900  1.0
  C  C814  1  0.627000  0.953100  0.814100  1.0
  C  C815  1  0.400400  0.066900  0.121000  1.0
  C  C816  1  0.599600  0.933100  0.879000  1.0
  C  C817  1  0.365200  0.128700  0.077400  1.0
  C  C818  1  0.634800  0.871300  0.922600  1.0
  C  C819  1  0.466600  0.082400  0.119900  1.0
  C  C820  1  0.533400  0.917600  0.880100  1.0
  C  C821  1  0.398700  0.011500  0.103200  1.0
  C  C822  1  0.601300  0.988500  0.896800  1.0
  C  C823  1  0.402000  0.729700  0.401300  1.0
  C  C824  1  0.598000  0.270300  0.598700  1.0
  C  C825  1  0.381000  0.660400  0.434300  1.0
  C  C826  1  0.619000  0.339600  0.565700  1.0
  C  C827  1  0.315700  0.661600  0.420500  1.0
  C  C828  1  0.684300  0.338400  0.579500  1.0
  C  C829  1  0.382600  0.640800  0.502900  1.0
  C  C830  1  0.617400  0.359200  0.497100  1.0
  C  C831  1  0.423700  0.613800  0.417300  1.0
  C  C832  1  0.576300  0.386200  0.582700  1.0
  C  C833  1  0.714400  0.780600  0.356200  1.0
  C  C834  1  0.285600  0.219400  0.643800  1.0
  C  C835  1  0.777100  0.789400  0.320300  1.0
  C  C836  1  0.222900  0.210600  0.679700  1.0
  C  C837  1  0.770900  0.789400  0.260500  1.0
  C  C838  1  0.229100  0.210600  0.739500  1.0
  C  C839  1  0.797000  0.852900  0.312100  1.0
  C  C840  1  0.203000  0.147100  0.687900  1.0
  C  C841  1  0.823400  0.733300  0.357700  1.0
  C  C842  1  0.176600  0.266700  0.642300  1.0
  C  C843  1  0.696900  0.639900  0.669700  1.0
  C  C844  1  0.303100  0.360100  0.330300  1.0
  C  C845  1  0.690100  0.582500  0.732100  1.0
  C  C846  1  0.309900  0.417500  0.267900  1.0
  C  C847  1  0.750900  0.563700  0.763000  1.0
  C  C848  1  0.249100  0.436300  0.237000  1.0
  C  C849  1  0.639300  0.603000  0.768900  1.0
  C  C850  1  0.360700  0.397000  0.231100  1.0
  C  C851  1  0.671900  0.523800  0.726400  1.0
  C  C852  1  0.328100  0.476200  0.273600  1.0
  N  N853  1  0.520800  0.776100  0.125900  1
  N  N854  1  0.479200  0.223900  0.874100  1
  N  N855  1  0.118700  0.217600  0.180300  1
  N  N856  1  0.881300  0.782400  0.819700  1
  N  N857  1  0.169200  0.404900  0.135800  1
  N  N858  1  0.830800  0.595100  0.864200  1
  N  N859  1  0.596600  0.278900  0.320400  1
  N  N860  1  0.403400  0.721100  0.679600  1
  N  N861  1  0.953600  0.237000  0.127000  1.0
  N  N862  1  0.046400  0.763000  0.873000  1.0
  N  N863  1  0.747400  0.467500  0.013000  1.0
  N  N864  1  0.252600  0.532500  0.987000  1.0
  N  N865  1  0.903500  0.410300  0.232600  1.0
  N  N866  1  0.096500  0.589700  0.767400  1.0
  N  N867  1  0.834700  0.682600  0.022700  1.0
  N  N868  1  0.165300  0.317400  0.977300  1.0
  N  N869  1  0.084100  0.583700  0.147500  1.0
  N  N870  1  0.915900  0.416300  0.852500  1.0
  N  N871  1  0.243400  0.036300  0.486200  1.0
  N  N872  1  0.756600  0.963700  0.513800  1.0
  N  N873  1  0.441500  0.087100  0.268400  1.0
  N  N874  1  0.558500  0.912900  0.731600  1.0
  N  N875  1  0.385900  0.816800  0.476800  1.0
  N  N876  1  0.614100  0.183200  0.523200  1.0
  N  N877  1  0.643600  0.909800  0.355400  1.0
  N  N878  1  0.356400  0.090200  0.644600  1.0
  N  N879  1  0.579600  0.737300  0.629800  1.0
  N  N880  1  0.420400  0.262700  0.370200  1.0
  Cl  Cl881  1  0.331500  0.296900  0.784600  1
  Cl  Cl882  1  0.668500  0.703100  0.215400  1
  Cl  Cl883  1  0.319400  0.378000  0.659400  1
  Cl  Cl884  1  0.680600  0.622000  0.340600  1
  Cl  Cl885  1  0.439990  0.331060  0.703260  1
  Cl  Cl886  1  0.560010  0.668940  0.296740  1
  Cl  Cl887  1  0.641900  0.252100  0.750400  1
  Cl  Cl888  1  0.358100  0.747900  0.249600  1
  Cl  Cl889  1  0.692200  0.118200  0.817000  1
  Cl  Cl890  1  0.307800  0.881800  0.183000  1
  Cl  Cl891  1  0.758800  0.203700  0.717100  1
  Cl  Cl892  1  0.241200  0.796300  0.282900  1
  Cl  Cl893  1  0.069220  0.148230  0.811810  1
  Cl  Cl894  1  0.930780  0.851770  0.188190  1
  Cl  Cl895  1  0.006680  0.245270  0.710030  1
  Cl  Cl896  1  0.993320  0.754730  0.289970  1
  Cl  Cl897  1  0.938390  0.151600  0.811100  1
  Cl  Cl898  1  0.061610  0.848400  0.188900  1
  Cl  Cl899  1  0.133800  0.729600  0.382100  1
  Cl  Cl900  1  0.866200  0.270400  0.617900  1
  Cl  Cl901  1  0.139800  0.590900  0.437800  1
  Cl  Cl902  1  0.860200  0.409100  0.562200  1
  Cl  Cl903  1  0.026400  0.664900  0.442200  1
  Cl  Cl904  1  0.973600  0.335100  0.557800  1
  Cl  Cl905  1  0.027710  0.269690  0.400680  1
  Cl  Cl906  1  0.972290  0.730310  0.599320  1
  Cl  Cl907  1  0.068300  0.259450  0.289160  1
  Cl  Cl908  1  0.931700  0.740550  0.710840  1
  Cl  Cl909  1  0.115330  0.354070  0.315450  1
  Cl  Cl910  1  0.884670  0.645930  0.684550  1
  Cl  Cl911  1  0.294460  0.503600  0.418100  1
  Cl  Cl912  1  0.705540  0.496400  0.581900  1
  Cl  Cl913  1  0.216500  0.417570  0.511800  1
  Cl  Cl914  1  0.783500  0.582430  0.488200  1
  Cl  Cl915  1  0.190070  0.462600  0.387710  1
  Cl  Cl916  1  0.809930  0.537400  0.612290  1
  Cl  Cl917  1  0.579750  0.241920  0.208080  1
  Cl  Cl918  1  0.420250  0.758080  0.791920  1
  Cl  Cl919  1  0.569530  0.239320  0.093380  1
  Cl  Cl920  1  0.430470  0.760680  0.906620  1
  Cl  Cl921  1  0.656410  0.148430  0.177560  1
  Cl  Cl922  1  0.343590  0.851570  0.822440  1
  Cl  Cl923  1  0.905590  0.010740  0.067650  1
  Cl  Cl924  1  0.094410  0.989260  0.932350  1
  Cl  Cl925  1  0.827110  0.092110  0.972100  1
  Cl  Cl926  1  0.172890  0.907890  0.027900  1
  Cl  Cl927  1  0.779180  0.045620  0.095640  1
  Cl  Cl928  1  0.220820  0.954380  0.904360  1
  O  O929  1  0.862700  0.334100  0.102700  1.0
  O  O930  1  0.137300  0.665900  0.897300  1.0
  O  O931  1  0.957300  0.223400  0.016500  1.0
  O  O932  1  0.042700  0.776600  0.983500  1.0
  O  O933  1  0.020300  0.208200  0.912100  1.0
  O  O934  1  0.979700  0.791800  0.087900  1.0
  O  O935  1  0.806700  0.468500  0.103800  1.0
  O  O936  1  0.193300  0.531500  0.896200  1.0
  O  O937  1  0.773000  0.330400  0.044100  1.0
  O  O938  1  0.227000  0.669600  0.955900  1.0
  O  O939  1  0.808600  0.222400  0.010800  1.0
  O  O940  1  0.191400  0.777600  0.989200  1.0
  O  O941  1  0.890100  0.537000  0.150300  1.0
  O  O942  1  0.109900  0.463000  0.849700  1.0
  O  O943  1  0.797100  0.366200  0.208600  1.0
  O  O944  1  0.202900  0.633800  0.791400  1.0
  O  O945  1  0.739800  0.269500  0.185200  1.0
  O  O946  1  0.260200  0.730500  0.814800  1.0
  O  O947  1  0.951100  0.665400  0.058200  1.0
  O  O948  1  0.048900  0.334600  0.941800  1.0
  O  O949  1  0.778200  0.590300  0.134700  1.0
  O  O950  1  0.221800  0.409700  0.865300  1.0
  O  O951  1  0.696400  0.488700  0.206200  1.0
  O  O952  1  0.303600  0.511300  0.793800  1.0
  O  O953  1  0.092500  0.656300  0.024800  1.0
  O  O954  1  0.907500  0.343700  0.975200  1.0
  O  O955  1  0.963800  0.637600  0.170700  1.0
  O  O956  1  0.036200  0.362400  0.829300  1.0
  O  O957  1  0.840900  0.628000  0.229300  1.0
  O  O958  1  0.159100  0.372000  0.770700  1.0
  O  O959  1  0.820500  0.192900  0.160800  1.0
  O  O960  1  0.179500  0.807100  0.839200  1.0
  O  O961  1  0.878600  0.140800  0.116700  1.0
  O  O962  1  0.121400  0.859200  0.883300  1.0
  O  O963  1  0.656500  0.371000  0.098600  1.0
  O  O964  1  0.343500  0.629000  0.901400  1.0
  O  O965  1  0.673100  0.428800  0.145100  1.0
  O  O966  1  0.326900  0.571200  0.854900  1.0
  O  O967  1  0.783700  0.411700  0.301400  1.0
  O  O968  1  0.216300  0.588300  0.698600  1.0
  O  O969  1  0.815700  0.507400  0.273700  1.0
  O  O970  1  0.184300  0.492600  0.726300  1.0
  O  O971  1  0.777900  0.722900  0.118000  1.0
  O  O972  1  0.222100  0.277100  0.882000  1.0
  O  O973  1  0.867800  0.761200  0.100300  1.0
  O  O974  1  0.132200  0.238800  0.899700  1.0
  O  O975  1  0.133100  0.725500  0.093000  1.0
  O  O976  1  0.866900  0.274500  0.907000  1.0
  O  O977  1  0.072200  0.700200  0.174700  1.0
  O  O978  1  0.927800  0.299800  0.825300  1.0
  O  O979  1  0.324500  0.032300  0.396200  1.0
  O  O980  1  0.675500  0.967700  0.603800  1.0
  O  O981  1  0.241400  0.173800  0.453100  1.0
  O  O982  1  0.758600  0.826200  0.546900  1.0
  O  O983  1  0.241700  0.283500  0.482600  1.0
  O  O984  1  0.758300  0.716500  0.517400  1.0
  O  O985  1  0.437200  0.960900  0.350900  1.0
  O  O986  1  0.562800  0.039100  0.649100  1.0
  O  O987  1  0.316700  0.133700  0.290600  1.0
  O  O988  1  0.683300  0.866300  0.709400  1.0
  O  O989  1  0.228800  0.232200  0.311200  1.0
  O  O990  1  0.771200  0.767800  0.688800  1.0
  O  O991  1  0.506000  0.832600  0.443700  1.0
  O  O992  1  0.494000  0.167400  0.556300  1.0
  O  O993  1  0.334100  0.909600  0.365100  1.0
  O  O994  1  0.665900  0.090400  0.634900  1.0
  O  O995  1  0.245100  0.014900  0.293800  1.0
  O  O996  1  0.754900  0.985100  0.706200  1.0
  O  O997  1  0.637300  0.839900  0.478100  1.0
  O  O998  1  0.362700  0.160100  0.521900  1.0
  O  O999  1  0.541900  0.859100  0.331500  1.0
  O  O1000  1  0.458100  0.140900  0.668500  1.0
  O  O1001  1  0.430900  0.870600  0.271100  1.0
  O  O1002  1  0.569100  0.129400  0.728900  1.0
  O  O1003  1  0.652100  0.834100  0.603600  1.0
  O  O1004  1  0.347900  0.165900  0.396400  1.0
  O  O1005  1  0.607800  0.721100  0.520900  1.0
  O  O1006  1  0.392200  0.278900  0.479100  1.0
  O  O1007  1  0.575000  0.704100  0.417200  1.0
  O  O1008  1  0.425000  0.295900  0.582800  1.0
  O  O1009  1  0.191000  0.075200  0.353900  1.0
  O  O1010  1  0.809000  0.924800  0.646100  1.0
  O  O1011  1  0.149600  0.133200  0.401100  1.0
  O  O1012  1  0.850400  0.866800  0.598900  1.0
  O  O1013  1  0.338400  0.087500  0.198500  1.0
  O  O1014  1  0.661600  0.912500  0.801500  1.0
  O  O1015  1  0.388300  0.990700  0.227300  1.0
  O  O1016  1  0.611700  0.009300  0.772700  1.0
  O  O1017  1  0.364100  0.777200  0.379800  1.0
  O  O1018  1  0.635900  0.222800  0.620200  1.0
  O  O1019  1  0.458700  0.737300  0.402100  1.0
  O  O1020  1  0.541300  0.262700  0.597900  1.0
  O  O1021  1  0.665600  0.792000  0.331200  1.0
  O  O1022  1  0.334400  0.208000  0.668800  1.0
  O  O1023  1  0.712700  0.767100  0.413000  1.0
  O  O1024  1  0.287300  0.232900  0.587000  1.0
  O  O1025  1  0.714800  0.692200  0.664600  1.0
  O  O1026  1  0.285200  0.307800  0.335400  1.0
  O  O1027  1  0.680000  0.638200  0.623800  1.0
  O  O1028  1  0.320000  0.361800  0.376200  1.0
