
#######################################################################
#
#                 Cambridge Crystallographic Data Centre
#                                CCDC 
#
#######################################################################
#
# If this CIF has been generated from an entry in the Cambridge 
# Structural Database, then it will include bibliographic, chemical, 
# crystal, experimental, refinement or atomic coordinate data resulting 
# from the CCDC's data processing and validation procedures.
#
#######################################################################

data_WAFTEC
_chemical_formula_moiety         'C28 H40 N8 Pd2 4+,4(N1 O3 1-),C1 H4 O1,H2 O1'
_chemical_name_systematic        
"bis((Ethylenediamine-N,N')-(\m~2~-1,2-bis(4-pyridyl)ethane-N,N')-palladium(ii)) tetranitrate methanol solvate monohydrate"
_symmetry_cell_setting           monoclinic
_symmetry_space_group_name_H-M   'P 21/n'
_symmetry_Int_Tables_number      14
_space_group_name_Hall           '-P 2yn'
loop_
_symmetry_equiv_pos_site_id
_symmetry_equiv_pos_as_xyz
1 x,y,z
2 1/2-x,1/2+y,1/2-z
3 -x,-y,-z
4 1/2+x,1/2-y,1/2+z
_cell_length_a                   26.753(10)
_cell_length_b                   12.942(4)
_cell_length_c                   13.221(3)
_cell_angle_alpha                90
_cell_angle_beta                 119.32(2)
_cell_angle_gamma                90
_cell_volume                     3991.21
_exptl_crystal_colour            'light yellow'
_cell_formula_units_Z            4
loop_
_atom_site_label
_atom_site_type_symbol
_atom_site_fract_x
_atom_site_fract_y
_atom_site_fract_z
Pd1 Pd 0.05711(3) 0.33607(5) 0.26689(6)
Pd2 Pd 0.26343(3) 0.30345(5) -0.14616(6)
N1 N -0.00184(38) 0.24805(71) 0.28077(70)
N2 N 0.06332(37) 0.41035(64) 0.40665(68)
N3 N 0.04557(34) 0.25877(58) 0.12293(62)
N4 N 0.11742(31) 0.42791(59) 0.26436(62)
N5 N 0.33325(38) 0.36905(70) -0.13713(74)
N6 N 0.25761(37) 0.22974(64) -0.28616(68)
N7 N 0.27161(36) 0.38776(62) -0.00973(67)
N8 N 0.19515(35) 0.22660(60) -0.15700(64)
C1 C -0.01806(61) 0.2993(12) 0.3606(12)
C2 C 0.03162(65) 0.3518(12) 0.4519(12)
C3 C 0.02173(56) 0.30753(84) 0.01865(91)
C4 C 0.00885(53) 0.25547(83) -0.08231(83)
C5 C 0.02095(39) 0.15200(75) -0.08028(79)
C6 C 0.04646(40) 0.10462(73) 0.02753(82)
C7 C 0.05802(40) 0.15838(77) 0.12633(82)
C8 C 0.00586(48) 0.09554(83) -0.19045(87)
C9 C 0.05459(56) 0.03815(79) -0.19121(99)
C10 C 0.10393(46) 0.52226(85) 0.21478(92)
C11 C 0.14264(44) 0.58768(80) 0.21287(90)
C12 C 0.19884(42) 0.56225(70) 0.26367(77)
C13 C 0.21341(43) 0.46343(83) 0.31577(91)
C14 C 0.17133(41) 0.40179(78) 0.31362(82)
C15 C 0.24312(46) 0.63466(82) 0.26558(90)
C16 C 0.29590(46) 0.58638(84) 0.27400(89)
C17 C 0.33486(51) 0.34742(89) -0.2476(10)
C18 C 0.31421(59) 0.24197(94) -0.2852(11)
C19 C 0.24000(47) 0.47319(90) -0.02634(88)
C20 C 0.24674(51) 0.53582(90) 0.06285(92)
C21 C 0.28600(41) 0.51497(82) 0.17406(83)
C22 C 0.31870(49) 0.42791(90) 0.19450(84)
C23 C 0.31028(50) 0.36516(87) 0.10193(96)
C24 C 0.14146(47) 0.25319(80) -0.22670(96)
C25 C 0.09459(47) 0.19723(47) -0.23883(93)
C26 C 0.10429(46) 0.10690(74) -0.17445(83)
C27 C 0.15953(53) 0.07933(77) -0.10438(90)
C28 C 0.20500(51) 0.13792(79) -0.09596(93)
H1 H -0.0375(43) 0.2362(77) 0.3888(82)
H2 H -0.0473(53) 0.3609(96) 0.322(10)
H3 H 0.0138(43) 0.3990(78) 0.5035(87)
H4 H 0.0568(59) 0.296(11) 0.496(11)
H5 H 0.0059(45) 0.3911(78) 0.0061(87)
H6 H -0.0108(35) 0.2891(63) -0.1545(67)
H7 H 0.0548(34) 0.0313(62) 0.0340(66)
H8 H 0.0747(34) 0.1205(62) 0.2088(66)
H9 H -0.0064(38) 0.1357(69) -0.2483(74)
H10 H -0.0276(46) 0.0463(85) -0.1935(91)
H11 H 0.0343(40) 0.0019(74) -0.2751(78)
H12 H 0.0662(43) -0.0225(79) -0.1301(83)
H13 H 0.0553(39) 0.5375(70) 0.1675(75)
H14 H 0.1302(38) 0.6596(68) 0.1745(73)
H15 H 0.2566(36) 0.4327(65) 0.3557(69)
H16 H 0.1748(35) 0.3328(64) 0.3468(68)
H17 H 0.2535(41) 0.6872(73) 0.3296(78)
H18 H 0.2153(38) 0.6806(70) 0.1819(74)
H19 H 0.3291(37) 0.6269(67) 0.2828(72)
H20 H 0.3124(38) 0.5445(69) 0.3414(75)
H21 H 0.3806(42) 0.3445(76) -0.2247(81)
H22 H 0.3148(43) 0.4306(79) -0.3095(84)
H23 H 0.3092(42) 0.2338(77) -0.3555(81)
H24 H 0.3474(48) 0.2065(86) -0.2332(91)
H25 H 0.2096(42) 0.4834(77) -0.1087(82)
H26 H 0.2201(40) 0.6042(72) 0.0446(78)
H27 H 0.3612(40) 0.4058(73) 0.2830(77)
H28 H 0.3486(49) 0.3040(89) 0.1465(95)
H29 H 0.1349(36) 0.3139(66) -0.2724(71)
H30 H 0.0528(43) 0.2141(77) -0.2865(82)
H31 H 0.1606(43) 0.0172(80) -0.0645(84)
H32 H 0.2514(35) 0.1178(64) -0.0501(69)
O1 O 0.47145(41) 0.13152(69) 0.14410(74)
O2 O 0.43433(50) 0.26875(80) 0.04911(91)
O3 O 0.38204(53) 0.1562(10) 0.0569(12)
N9 N 0.42916(41) 0.18293(73) 0.08243(77)
O4 O 0.40906(59) 0.3363(10) 0.4939(13)
O5 O 0.32589(47) 0.3260(10) 0.45645(95)
O6 O 0.38494(52) 0.21614(83) 0.56197(93)
N10 N 0.37227(38) 0.29492(69) 0.50361(74)
O7 O 0.15219(48) 0.18602(76) 0.43533(94)
O8 O 0.08659(49) 0.07544(77) 0.39707(83)
O9 O 0.15287(42) 0.09413(72) 0.56986(67)
N11 N 0.13116(42) 0.11858(68) 0.46744(82)
O10 O 0.23332(35) 0.52132(63) 0.71003(68)
O11 O 0.18181(44) 0.41726(81) 0.57420(76)
O12 O 0.14701(41) 0.49175(76) 0.66652(80)
N12 N 0.18717(39) 0.47967(66) 0.65029(73)
O13 O -0.05148(49) 0.47623(91) 0.0921(11)
C29 C -0.08924(78) 0.5350(14) 0.1102(17)
O14 O 0.4704(16) 0.4659(23) -0.0346(24)
H33 H 0.4480(41) 0.4359(76) -0.0133(81)
H34 H 0.5123(47) 0.43098 -0.0534(90)
loop_
_geom_bond_atom_site_label_1
_geom_bond_atom_site_label_2
_geom_bond_site_symmetry_1
_geom_bond_site_symmetry_2
Pd1 N1 1_555 1_555
Pd2 N5 1_555 1_555
O1 N9 1_555 1_555
O2 N9 1_555 1_555
O3 N9 1_555 1_555
O4 N10 1_555 1_555
O5 N10 1_555 1_555
O6 N10 1_555 1_555
O7 N11 1_555 1_555
O8 N11 1_555 1_555
O9 N11 1_555 1_555
O10 N12 1_555 1_555
O11 N12 1_555 1_555
O12 N12 1_555 1_555
O13 C29 1_555 1_555
O14 H33 1_555 1_555
N1 C1 1_555 1_555
N2 Pd1 1_555 1_555
N3 Pd1 1_555 1_555
N4 Pd1 1_555 1_555
N5 C17 1_555 1_555
N6 Pd2 1_555 1_555
N7 Pd2 1_555 1_555
N8 Pd2 1_555 1_555
C1 C2 1_555 1_555
C2 N2 1_555 1_555
C3 N3 1_555 1_555
C4 C3 1_555 1_555
C5 C4 1_555 1_555
C6 C5 1_555 1_555
C7 N3 1_555 1_555
C8 C5 1_555 1_555
C9 C8 1_555 1_555
C10 N4 1_555 1_555
C11 C10 1_555 1_555
C12 C11 1_555 1_555
C13 C12 1_555 1_555
C14 N4 1_555 1_555
C15 C12 1_555 1_555
C16 C15 1_555 1_555
C17 C18 1_555 1_555
C18 N6 1_555 1_555
C19 N7 1_555 1_555
C20 C19 1_555 1_555
C21 C16 1_555 1_555
C22 C21 1_555 1_555
C23 N7 1_555 1_555
C24 N8 1_555 1_555
C25 C24 1_555 1_555
C26 C9 1_555 1_555
C27 C26 1_555 1_555
C28 N8 1_555 1_555
H1 C1 1_555 1_555
H2 C1 1_555 1_555
H3 C2 1_555 1_555
H4 C2 1_555 1_555
H5 C3 1_555 1_555
H6 C4 1_555 1_555
H7 C6 1_555 1_555
H8 C7 1_555 1_555
H9 C8 1_555 1_555
H10 C8 1_555 1_555
H11 C9 1_555 1_555
H12 C9 1_555 1_555
H13 C10 1_555 1_555
H14 C11 1_555 1_555
H15 C13 1_555 1_555
H16 C14 1_555 1_555
H17 C15 1_555 1_555
H18 C15 1_555 1_555
H19 C16 1_555 1_555
H20 C16 1_555 1_555
H21 C17 1_555 1_555
H22 C17 1_555 1_555
H23 C18 1_555 1_555
H24 C18 1_555 1_555
H25 C19 1_555 1_555
H26 C20 1_555 1_555
H27 C22 1_555 1_555
H28 C23 1_555 1_555
H29 C24 1_555 1_555
H30 C25 1_555 1_555
H31 C27 1_555 1_555
H32 C28 1_555 1_555
H34 O14 1_555 1_555
C6 C7 1_555 1_555
C13 C14 1_555 1_555
C20 C21 1_555 1_555
C22 C23 1_555 1_555
C25 C26 1_555 1_555
C27 C28 1_555 1_555

#END
