# generated using pymatgen
data_Co8P11H286C399(N41F33)2
_symmetry_space_group_name_H-M   'P 1'
_cell_length_a   26.26000000
_cell_length_b   30.83515688
_cell_length_c   33.26527104
_cell_angle_alpha   75.06900311
_cell_angle_beta   66.75236458
_cell_angle_gamma   64.79788737
_symmetry_Int_Tables_number   1
_chemical_formula_structural   Co8P11H286C399(N41F33)2
_chemical_formula_sum   'Co16 P22 H572 C798 N164 F132'
_cell_volume   22262.72270229
_cell_formula_units_Z   2
loop_
 _symmetry_equiv_pos_site_id
 _symmetry_equiv_pos_as_xyz
  1  'x, y, z'
loop_
 _atom_site_type_symbol
 _atom_site_label
 _atom_site_symmetry_multiplicity
 _atom_site_fract_x
 _atom_site_fract_y
 _atom_site_fract_z
 _atom_site_occupancy
  C  C1  1  0.424900  0.223700  0.087700  1
  C  C2  1  0.263700  0.723700  0.587700  1
  C  C3  1  0.575100  0.776300  0.912300  1
  C  C4  1  0.736300  0.276300  0.412300  1
  C  C5  1  0.366500  0.236500  0.124500  1
  C  C6  1  0.272500  0.736500  0.624500  1
  C  C7  1  0.633500  0.763500  0.875500  1
  C  C8  1  0.727500  0.263500  0.375500  1
  C  C9  1  0.080500  0.771200  0.675200  1
  C  C10  1  0.473100  0.271200  0.175200  1
  C  C11  1  0.919500  0.228800  0.324800  1
  C  C12  1  0.526900  0.728800  0.824800  1
  C  C13  1  0.041900  0.818600  0.688200  1
  C  C14  1  0.451300  0.318600  0.188200  1
  C  C15  1  0.958100  0.181400  0.311800  1
  C  C16  1  0.548700  0.681400  0.811800  1
  C  C17  1  0.023000  0.903000  0.501000  1
  C  C18  1  0.573000  0.403000  0.001000  1
  C  C19  1  0.977000  0.097000  0.499000  1
  C  C20  1  0.427000  0.597000  0.999000  1
  C  C21  1  0.970000  0.934000  0.502000  1
  C  C22  1  0.594000  0.434000  0.002000  1
  C  C23  1  0.030000  0.066000  0.498000  1
  C  C24  1  0.406000  0.566000  0.998000  1
  C  C25  1  0.278400  0.847100  0.231500  1
  C  C26  1  0.643000  0.347100  0.731500  1
  C  C27  1  0.721600  0.152900  0.768500  1
  C  C28  1  0.357000  0.652900  0.268500  1
  C  C29  1  0.265300  0.811400  0.278000  1
  C  C30  1  0.645300  0.311400  0.778000  1
  C  C31  1  0.734700  0.188600  0.722000  1
  C  C32  1  0.354700  0.688600  0.222000  1
  C  C33  1  0.798400  0.862200  0.461000  1
  C  C34  1  0.878400  0.362200  0.961000  1
  C  C35  1  0.201600  0.137800  0.539000  1
  C  C36  1  0.121600  0.637800  0.039000  1
  C  C37  1  0.760700  0.868200  0.440400  1
  C  C38  1  0.930700  0.368200  0.940400  1
  C  C39  1  0.239300  0.131800  0.559600  1
  C  C40  1  0.069300  0.631800  0.059600  1
  C  C41  1  0.049800  0.371600  0.988200  1
  C  C42  1  0.590400  0.871600  0.488200  1
  C  C43  1  0.950200  0.628400  0.011800  1
  C  C44  1  0.409600  0.128400  0.511800  1
  C  C45  1  0.059700  0.401600  0.947000  1
  C  C46  1  0.591700  0.901600  0.447000  1
  C  C47  1  0.940300  0.598400  0.053000  1
  C  C48  1  0.408300  0.098400  0.553000  1
  C  C49  1  0.103400  0.418200  0.941000  1
  C  C50  1  0.537400  0.918200  0.441000  1
  C  C51  1  0.896600  0.581800  0.059000  1
  C  C52  1  0.462600  0.081800  0.559000  1
  C  C53  1  0.132800  0.412400  0.972000  1
  C  C54  1  0.482800  0.912400  0.472000  1
  C  C55  1  0.867200  0.587600  0.028000  1
  C  C56  1  0.517200  0.087600  0.528000  1
  C  C57  1  0.124900  0.378600  0.005600  1
  C  C58  1  0.490900  0.878600  0.505600  1
  C  C59  1  0.875100  0.621400  0.994400  1
  C  C60  1  0.509100  0.121400  0.494400  1
  C  C61  1  0.155100  0.367000  0.035800  1
  C  C62  1  0.442100  0.867000  0.535800  1
  C  C63  1  0.844900  0.633000  0.964200  1
  C  C64  1  0.557900  0.133000  0.464200  1
  C  C65  1  0.212700  0.353500  0.070500  1
  C  C66  1  0.363300  0.853500  0.570500  1
  C  C67  1  0.787300  0.646500  0.929500  1
  C  C68  1  0.636700  0.146500  0.429500  1
  C  C69  1  0.196000  0.384200  0.035800  1
  C  C70  1  0.384000  0.884200  0.535800  1
  C  C71  1  0.804000  0.615800  0.964200  1
  C  C72  1  0.616000  0.115800  0.464200  1
  C  C73  1  0.189300  0.286400  0.126800  1
  C  C74  1  0.397500  0.786400  0.626800  1
  C  C75  1  0.810700  0.713600  0.873200  1
  C  C76  1  0.602500  0.213600  0.373200  1
  C  C77  1  0.143300  0.301200  0.172000  1
  C  C78  1  0.383500  0.801200  0.672000  1
  C  C79  1  0.856700  0.698800  0.828000  1
  C  C80  1  0.616500  0.198800  0.328000  1
  C  C81  1  0.140600  0.268000  0.204400  1
  C  C82  1  0.387000  0.768000  0.704400  1
  C  C83  1  0.859400  0.732000  0.795600  1
  C  C84  1  0.613000  0.232000  0.295600  1
  C  C85  1  0.098800  0.279300  0.247300  1
  C  C86  1  0.374600  0.779300  0.747300  1
  C  C87  1  0.901200  0.720700  0.752700  1
  C  C88  1  0.625400  0.220700  0.252700  1
  C  C89  1  0.065200  0.331100  0.249100  1
  C  C90  1  0.354600  0.831100  0.749100  1
  C  C91  1  0.934800  0.668900  0.750900  1
  C  C92  1  0.645400  0.168900  0.250900  1
  C  C93  1  0.068500  0.365600  0.216200  1
  C  C94  1  0.349700  0.865600  0.716200  1
  C  C95  1  0.931500  0.634400  0.783800  1
  C  C96  1  0.650300  0.134400  0.283800  1
  C  C97  1  0.109700  0.349900  0.176900  1
  C  C98  1  0.363500  0.849900  0.676900  1
  C  C99  1  0.890300  0.650100  0.823100  1
  C  C100  1  0.636500  0.150100  0.323100  1
  C  C101  1  0.094700  0.242000  0.282800  1
  C  C102  1  0.380500  0.742000  0.782800  1
  C  C103  1  0.905300  0.758000  0.717200  1
  C  C104  1  0.619500  0.258000  0.217200  1
  C  C105  1  0.109200  0.193900  0.279500  1
  C  C106  1  0.417400  0.693900  0.779500  1
  C  C107  1  0.890800  0.806100  0.720500  1
  C  C108  1  0.582600  0.306100  0.220500  1
  C  C109  1  0.105900  0.157900  0.309900  1
  C  C110  1  0.426300  0.657900  0.809900  1
  C  C111  1  0.894100  0.842100  0.690100  1
  C  C112  1  0.573700  0.342100  0.190100  1
  C  C113  1  0.085800  0.169300  0.356500  1
  C  C114  1  0.388400  0.669300  0.856500  1
  C  C115  1  0.914200  0.830700  0.643500  1
  C  C116  1  0.611600  0.330700  0.143500  1
  C  C117  1  0.074000  0.214200  0.363400  1
  C  C118  1  0.348400  0.714200  0.863400  1
  C  C119  1  0.926000  0.785800  0.636600  1
  C  C120  1  0.651600  0.285800  0.136600  1
  C  C121  1  0.077500  0.247500  0.332900  1
  C  C122  1  0.342100  0.747500  0.832900  1
  C  C123  1  0.922500  0.752500  0.667100  1
  C  C124  1  0.657900  0.252500  0.167100  1
  C  C125  1  0.121000  0.109600  0.302400  1
  C  C126  1  0.467000  0.609600  0.802400  1
  C  C127  1  0.879000  0.890400  0.697600  1
  C  C128  1  0.533000  0.390400  0.197600  1
  C  C129  1  0.162400  0.017800  0.385000  1
  C  C130  1  0.434800  0.517800  0.885000  1
  C  C131  1  0.837600  0.982200  0.615000  1
  C  C132  1  0.565200  0.482200  0.115000  1
  C  C133  1  0.099600  0.024100  0.400500  1
  C  C134  1  0.475800  0.524100  0.900500  1
  C  C135  1  0.900400  0.975900  0.599500  1
  C  C136  1  0.524200  0.475900  0.099500  1
  C  C137  1  0.074900  0.056300  0.372300  1
  C  C138  1  0.496500  0.556300  0.872300  1
  C  C139  1  0.925100  0.943700  0.627700  1
  C  C140  1  0.503500  0.443700  0.127700  1
  C  C141  1  0.203100  0.988000  0.405400  1
  C  C142  1  0.403500  0.488000  0.905400  1
  C  C143  1  0.796900  0.012000  0.594600  1
  C  C144  1  0.596500  0.512000  0.094600  1
  C  C145  1  0.197300  0.956100  0.441500  1
  C  C146  1  0.405100  0.456100  0.941500  1
  C  C147  1  0.802700  0.043900  0.558500  1
  C  C148  1  0.594900  0.543900  0.058500  1
  C  C149  1  0.247200  0.927000  0.458400  1
  C  C150  1  0.367400  0.427000  0.958400  1
  C  C151  1  0.752800  0.073000  0.541600  1
  C  C152  1  0.632600  0.573000  0.041600  1
  C  C153  1  0.302600  0.932300  0.436300  1
  C  C154  1  0.328800  0.432300  0.936300  1
  C  C155  1  0.697400  0.067700  0.563700  1
  C  C156  1  0.671200  0.567700  0.063700  1
  C  C157  1  0.305300  0.963600  0.399800  1
  C  C158  1  0.331300  0.463600  0.899800  1
  C  C159  1  0.694700  0.036400  0.600200  1
  C  C160  1  0.668700  0.536400  0.100200  1
  C  C161  1  0.201100  0.248100  0.002500  1
  C  C162  1  0.548300  0.748100  0.502500  1
  C  C163  1  0.798900  0.751900  0.997500  1
  C  C164  1  0.451700  0.251900  0.497500  1
  C  C165  1  0.234400  0.228100  0.966500  1
  C  C166  1  0.571000  0.728100  0.466500  1
  C  C167  1  0.765600  0.771900  0.033500  1
  C  C168  1  0.429000  0.271900  0.533500  1
  C  C169  1  0.209000  0.212200  0.943800  1
  C  C170  1  0.635000  0.712200  0.443800  1
  C  C171  1  0.791000  0.787800  0.056200  1
  C  C172  1  0.365000  0.287800  0.556200  1
  C  C173  1  0.151600  0.220800  0.960200  1
  C  C174  1  0.667400  0.720800  0.460200  1
  C  C175  1  0.848400  0.779200  0.039800  1
  C  C176  1  0.332600  0.279200  0.539800  1
  C  C177  1  0.120300  0.242500  0.997900  1
  C  C178  1  0.639300  0.742500  0.497900  1
  C  C179  1  0.879700  0.757500  0.002100  1
  C  C180  1  0.360700  0.257500  0.502100  1
  C  C181  1  0.056700  0.257500  0.019300  1
  C  C182  1  0.666500  0.757500  0.519300  1
  C  C183  1  0.943300  0.742500  0.980700  1
  C  C184  1  0.333500  0.242500  0.480700  1
  C  C185  1  0.965000  0.271400  0.030400  1
  C  C186  1  0.733200  0.771400  0.530400  1
  C  C187  1  0.035000  0.728600  0.969600  1
  C  C188  1  0.266800  0.228600  0.469600  1
  C  C189  1  0.019400  0.245800  0.003800  1
  C  C190  1  0.731000  0.745800  0.503800  1
  C  C191  1  0.980600  0.754200  0.996200  1
  C  C192  1  0.269000  0.254200  0.496200  1
  C  C193  1  0.921500  0.314900  0.101700  1
  C  C194  1  0.661900  0.814900  0.601700  1
  C  C195  1  0.078500  0.685100  0.898300  1
  C  C196  1  0.338100  0.185100  0.398300  1
  C  C197  1  0.904900  0.286900  0.141900  1
  C  C198  1  0.666300  0.786900  0.641900  1
  C  C199  1  0.095100  0.713100  0.858100  1
  C  C200  1  0.333700  0.213100  0.358100  1
  C  C201  1  0.922200  0.235800  0.146000  1
  C  C202  1  0.696000  0.735800  0.646000  1
  C  C203  1  0.077800  0.764200  0.854000  1
  C  C204  1  0.304000  0.264200  0.354000  1
  C  C205  1  0.909800  0.204300  0.183900  1
  C  C206  1  0.702000  0.704300  0.683900  1
  C  C207  1  0.090200  0.795700  0.816100  1
  C  C208  1  0.298000  0.295700  0.316100  1
  C  C209  1  0.875600  0.227800  0.222600  1
  C  C210  1  0.674000  0.727800  0.722600  1
  C  C211  1  0.124400  0.772200  0.777400  1
  C  C212  1  0.326000  0.272200  0.277400  1
  C  C213  1  0.857800  0.281400  0.216800  1
  C  C214  1  0.644000  0.781400  0.716800  1
  C  C215  1  0.142200  0.718600  0.783200  1
  C  C216  1  0.356000  0.218600  0.283200  1
  C  C217  1  0.873600  0.311200  0.178800  1
  C  C218  1  0.636400  0.811200  0.678800  1
  C  C219  1  0.126400  0.688800  0.821200  1
  C  C220  1  0.363600  0.188800  0.321200  1
  C  C221  1  0.926500  0.153700  0.188900  1
  C  C222  1  0.730900  0.653700  0.688900  1
  C  C223  1  0.073500  0.846300  0.811100  1
  C  C224  1  0.269100  0.346300  0.311100  1
  C  C225  1  0.940400  0.124700  0.223900  1
  C  C226  1  0.711000  0.624700  0.723900  1
  C  C227  1  0.059600  0.875300  0.776100  1
  C  C228  1  0.289000  0.375300  0.276100  1
  C  C229  1  0.960300  0.076100  0.228700  1
  C  C230  1  0.734900  0.576100  0.728700  1
  C  C231  1  0.039700  0.923900  0.771300  1
  C  C232  1  0.265100  0.423900  0.271300  1
  C  C233  1  0.970900  0.054600  0.191800  1
  C  C234  1  0.782700  0.554600  0.691800  1
  C  C235  1  0.029100  0.945400  0.808200  1
  C  C236  1  0.217300  0.445400  0.308200  1
  C  C237  1  0.959400  0.082100  0.158900  1
  C  C238  1  0.799600  0.582100  0.658900  1
  C  C239  1  0.040600  0.917900  0.841100  1
  C  C240  1  0.200400  0.417900  0.341100  1
  C  C241  1  0.937000  0.130400  0.154200  1
  C  C242  1  0.778400  0.630400  0.654200  1
  C  C243  1  0.063000  0.869600  0.845800  1
  C  C244  1  0.221600  0.369600  0.345800  1
  C  C245  1  0.976700  0.046600  0.267600  1
  C  C246  1  0.709100  0.546600  0.767600  1
  C  C247  1  0.023300  0.953400  0.732400  1
  C  C248  1  0.290900  0.453400  0.232400  1
  C  C249  1  0.980600  0.925000  0.290400  1
  C  C250  1  0.804000  0.425000  0.790400  1
  C  C251  1  0.019400  0.075000  0.709600  1
  C  C252  1  0.196000  0.575000  0.209600  1
  C  C253  1  0.044400  0.916500  0.271100  1
  C  C254  1  0.768000  0.416500  0.771100  1
  C  C255  1  0.955600  0.083500  0.728900  1
  C  C256  1  0.232000  0.583500  0.228900  1
  C  C257  1  0.045800  0.960900  0.262700  1
  C  C258  1  0.730600  0.460900  0.762700  1
  C  C259  1  0.954200  0.039100  0.737300  1
  C  C260  1  0.269400  0.539100  0.237300  1
  C  C261  1  0.861600  0.884500  0.331700  1
  C  C262  1  0.922200  0.384500  0.831700  1
  C  C263  1  0.138400  0.115500  0.668300  1
  C  C264  1  0.077800  0.615500  0.168300  1
  C  C265  1  0.885700  0.835700  0.337500  1
  C  C266  1  0.941100  0.335700  0.837500  1
  C  C267  1  0.114300  0.164300  0.662500  1
  C  C268  1  0.058900  0.664300  0.162500  1
  C  C269  1  0.946000  0.815400  0.328200  1
  C  C270  1  0.910400  0.315400  0.828200  1
  C  C271  1  0.054000  0.184600  0.671800  1
  C  C272  1  0.089600  0.684600  0.171800  1
  C  C273  1  0.977800  0.844300  0.311700  1
  C  C274  1  0.866200  0.344300  0.811700  1
  C  C275  1  0.022200  0.155700  0.688300  1
  C  C276  1  0.133800  0.655700  0.188300  1
  C  C277  1  0.951400  0.892000  0.306000  1
  C  C278  1  0.850600  0.392000  0.806000  1
  C  C279  1  0.048600  0.108000  0.694000  1
  C  C280  1  0.149400  0.608000  0.194000  1
  C  C281  1  0.734300  0.000200  0.317600  1
  C  C282  1  0.947900  0.500200  0.817600  1
  C  C283  1  0.265700  0.999800  0.682400  1
  C  C284  1  0.052100  0.499800  0.182400  1
  C  C285  1  0.673600  0.000100  0.339700  1
  C  C286  1  0.986600  0.500100  0.839700  1
  C  C287  1  0.326400  0.999900  0.660300  1
  C  C288  1  0.013400  0.499900  0.160300  1
  C  C289  1  0.656100  0.999900  0.383100  1
  C  C290  1  0.960900  0.499900  0.883100  1
  C  C291  1  0.343900  0.000100  0.616900  1
  C  C292  1  0.039100  0.500100  0.116900  1
  C  C293  1  0.685900  0.997600  0.408400  1
  C  C294  1  0.908100  0.497600  0.908400  1
  C  C295  1  0.314100  0.002400  0.591600  1
  C  C296  1  0.091900  0.502400  0.091600  1
  C  C297  1  0.749200  0.993300  0.382700  1
  C  C298  1  0.874800  0.493300  0.882700  1
  C  C299  1  0.250800  0.006700  0.617300  1
  C  C300  1  0.125200  0.506700  0.117300  1
  C  C301  1  0.787300  0.993000  0.407000  1
  C  C302  1  0.812700  0.493000  0.907000  1
  C  C303  1  0.212700  0.007000  0.593000  1
  C  C304  1  0.187300  0.507000  0.093000  1
  C  C305  1  0.835200  0.988900  0.448100  1
  C  C306  1  0.727800  0.488900  0.948100  1
  C  C307  1  0.164800  0.011100  0.551900  1
  C  C308  1  0.272200  0.511100  0.051900  1
  C  C309  1  0.779400  0.992000  0.450000  1
  C  C310  1  0.778600  0.492000  0.950000  1
  C  C311  1  0.220600  0.008000  0.550000  1
  C  C312  1  0.221400  0.508000  0.050000  1
  C  C313  1  0.933500  0.986600  0.389800  1
  C  C314  1  0.690100  0.486600  0.889800  1
  C  C315  1  0.066500  0.013400  0.610200  1
  C  C316  1  0.309900  0.513400  0.110200  1
  C  C317  1  0.975200  0.938700  0.390700  1
  C  C318  1  0.695400  0.438700  0.890700  1
  C  C319  1  0.024800  0.061300  0.609300  1
  C  C320  1  0.304600  0.561300  0.109300  1
  C  C321  1  0.035200  0.937700  0.376100  1
  C  C322  1  0.651000  0.437700  0.876100  1
  C  C323  1  0.964800  0.062300  0.623900  1
  C  C324  1  0.349000  0.562300  0.123900  1
  C  C325  1  0.082100  0.894000  0.376600  1
  C  C326  1  0.647300  0.394000  0.876600  1
  C  C327  1  0.917900  0.106000  0.623400  1
  C  C328  1  0.352700  0.606000  0.123400  1
  C  C329  1  0.075500  0.851700  0.386100  1
  C  C330  1  0.686700  0.351700  0.886100  1
  C  C331  1  0.924500  0.148300  0.613900  1
  C  C332  1  0.313300  0.648300  0.113900  1
  C  C333  1  0.015900  0.853400  0.399600  1
  C  C334  1  0.731100  0.353400  0.899600  1
  C  C335  1  0.984100  0.146600  0.600400  1
  C  C336  1  0.268900  0.646600  0.100400  1
  C  C337  1  0.965000  0.898800  0.401800  1
  C  C338  1  0.734400  0.398800  0.901800  1
  C  C339  1  0.035000  0.101200  0.598200  1
  C  C340  1  0.265600  0.601200  0.098200  1
  C  C341  1  0.149400  0.889700  0.368100  1
  C  C342  1  0.592800  0.389700  0.868100  1
  C  C343  1  0.850600  0.110300  0.631900  1
  C  C344  1  0.407200  0.610300  0.131900  1
  C  C345  1  0.163000  0.923100  0.330900  1
  C  C346  1  0.583000  0.423100  0.830900  1
  C  C347  1  0.837000  0.076900  0.669100  1
  C  C348  1  0.417000  0.576900  0.169100  1
  C  C349  1  0.223500  0.924100  0.316900  1
  C  C350  1  0.535500  0.424100  0.816900  1
  C  C351  1  0.776500  0.075900  0.683100  1
  C  C352  1  0.464500  0.575900  0.183100  1
  C  C353  1  0.254300  0.894400  0.345600  1
  C  C354  1  0.505700  0.394400  0.845600  1
  C  C355  1  0.745700  0.105600  0.654400  1
  C  C356  1  0.494300  0.605600  0.154400  1
  C  C357  1  0.236600  0.863900  0.381100  1
  C  C358  1  0.518400  0.363900  0.881100  1
  C  C359  1  0.763400  0.136100  0.618900  1
  C  C360  1  0.481600  0.636100  0.118900  1
  C  C361  1  0.178400  0.863000  0.394400  1
  C  C362  1  0.564200  0.363000  0.894400  1
  C  C363  1  0.821600  0.137000  0.605600  1
  C  C364  1  0.435800  0.637000  0.105600  1
  C  C365  1  0.243600  0.956300  0.277300  1
  C  C366  1  0.522800  0.456300  0.777300  1
  C  C367  1  0.756400  0.043700  0.722700  1
  C  C368  1  0.477200  0.543700  0.222700  1
  C  C369  1  0.375000  0.962300  0.277500  1
  C  C370  1  0.385200  0.462300  0.777500  1
  C  C371  1  0.625000  0.037700  0.722500  1
  C  C372  1  0.614800  0.537700  0.222500  1
  C  C373  1  0.397700  0.923200  0.254400  1
  C  C374  1  0.424700  0.423200  0.754400  1
  C  C375  1  0.602300  0.076800  0.745600  1
  C  C376  1  0.575300  0.576800  0.245600  1
  C  C377  1  0.352800  0.913900  0.249300  1
  C  C378  1  0.484000  0.413900  0.749300  1
  C  C379  1  0.647200  0.086100  0.750700  1
  C  C380  1  0.516000  0.586100  0.250700  1
  C  C381  1  0.375000  0.054200  0.322800  1
  C  C382  1  0.248000  0.554200  0.822800  1
  C  C383  1  0.625000  0.945800  0.677200  1
  C  C384  1  0.752000  0.445800  0.177200  1
  C  C385  1  0.435400  0.047200  0.314200  1
  C  C386  1  0.203200  0.547200  0.814200  1
  C  C387  1  0.564600  0.952800  0.685800  1
  C  C388  1  0.796800  0.452800  0.185800  1
  C  C389  1  0.475500  0.002400  0.296800  1
  C  C390  1  0.225300  0.502400  0.796800  1
  C  C391  1  0.524500  0.997600  0.703200  1
  C  C392  1  0.774700  0.497600  0.203200  1
  C  C393  1  0.457200  0.974100  0.283900  1
  C  C394  1  0.284800  0.474100  0.783900  1
  C  C395  1  0.542800  0.025900  0.716100  1
  C  C396  1  0.715200  0.525900  0.216100  1
  C  C397  1  0.398400  0.988700  0.290700  1
  C  C398  1  0.322200  0.488700  0.790700  1
  C  C399  1  0.601600  0.011300  0.709300  1
  C  C400  1  0.677800  0.511300  0.209300  1
  C  C401  1  0.213000  0.105800  0.401400  1
  C  C402  1  0.279800  0.605800  0.901400  1
  C  C403  1  0.787000  0.894200  0.598600  1
  C  C404  1  0.720200  0.394200  0.098600  1
  C  C405  1  0.192800  0.150800  0.419000  1
  C  C406  1  0.237400  0.650800  0.919000  1
  C  C407  1  0.807200  0.849200  0.581000  1
  C  C408  1  0.762600  0.349200  0.081000  1
  C  C409  1  0.196300  0.189600  0.390800  1
  C  C410  1  0.223300  0.689600  0.890800  1
  C  C411  1  0.803700  0.810400  0.609200  1
  C  C412  1  0.776700  0.310400  0.109200  1
  C  C413  1  0.218800  0.191900  0.343700  1
  C  C414  1  0.245600  0.691900  0.843700  1
  C  C415  1  0.781200  0.808100  0.656300  1
  C  C416  1  0.754400  0.308100  0.156300  1
  C  C417  1  0.234900  0.144700  0.332100  1
  C  C418  1  0.288300  0.644700  0.832100  1
  C  C419  1  0.765100  0.855300  0.667900  1
  C  C420  1  0.711700  0.355300  0.167900  1
  C  C421  1  0.256500  0.143200  0.281400  1
  C  C422  1  0.318900  0.643200  0.781400  1
  C  C423  1  0.743500  0.856800  0.718600  1
  C  C424  1  0.681100  0.356800  0.218600  1
  C  C425  1  0.285300  0.149100  0.209700  1
  C  C426  1  0.355900  0.649100  0.709700  1
  C  C427  1  0.714700  0.850900  0.790300  1
  C  C428  1  0.644100  0.350900  0.290300  1
  C  C429  1  0.268200  0.175100  0.244700  1
  C  C430  1  0.312000  0.675100  0.744700  1
  C  C431  1  0.731800  0.824900  0.755300  1
  C  C432  1  0.688000  0.324900  0.255300  1
  C  C433  1  0.296700  0.067300  0.201100  1
  C  C434  1  0.434900  0.567300  0.701100  1
  C  C435  1  0.703300  0.932700  0.798900  1
  C  C436  1  0.565100  0.432700  0.298900  1
  C  C437  1  0.362500  0.037100  0.183100  1
  C  C438  1  0.417300  0.537100  0.683100  1
  C  C439  1  0.637500  0.962900  0.816900  1
  C  C440  1  0.582700  0.462900  0.316900  1
  C  C441  1  0.378700  0.001200  0.158200  1
  C  C442  1  0.461900  0.501200  0.658200  1
  C  C443  1  0.621300  0.998800  0.841800  1
  C  C444  1  0.538100  0.498800  0.341800  1
  C  C445  1  0.437900  0.971900  0.140700  1
  C  C446  1  0.449500  0.471900  0.640700  1
  C  C447  1  0.562100  0.028100  0.859300  1
  C  C448  1  0.550500  0.528100  0.359300  1
  C  C449  1  0.480900  0.978800  0.151000  1
  C  C450  1  0.389300  0.478800  0.651000  1
  C  C451  1  0.519100  0.021200  0.849000  1
  C  C452  1  0.610700  0.521200  0.349000  1
  C  C453  1  0.464000  0.016000  0.176400  1
  C  C454  1  0.343600  0.516000  0.676400  1
  C  C455  1  0.536000  0.984000  0.823600  1
  C  C456  1  0.656400  0.484000  0.323600  1
  C  C457  1  0.402600  0.048300  0.192100  1
  C  C458  1  0.357000  0.548300  0.692100  1
  C  C459  1  0.597400  0.951700  0.807900  1
  C  C460  1  0.643000  0.451700  0.307900  1
  C  C461  1  0.453000  0.933300  0.114500  1
  C  C462  1  0.499200  0.433300  0.614500  1
  C  C463  1  0.547000  0.066700  0.885500  1
  C  C464  1  0.500800  0.566700  0.385500  1
  C  C465  1  0.423700  0.905400  0.122000  1
  C  C466  1  0.548900  0.405400  0.622000  1
  C  C467  1  0.576300  0.094600  0.878000  1
  C  C468  1  0.451100  0.594600  0.378000  1
  C  C469  1  0.438700  0.869700  0.096700  1
  C  C470  1  0.594900  0.369700  0.596700  1
  C  C471  1  0.561300  0.130300  0.903300  1
  C  C472  1  0.405100  0.630300  0.403300  1
  C  C473  1  0.490900  0.861900  0.062300  1
  C  C474  1  0.584900  0.361900  0.562300  1
  C  C475  1  0.509100  0.138100  0.937700  1
  C  C476  1  0.415100  0.638100  0.437700  1
  C  C477  1  0.522500  0.891100  0.053900  1
  C  C478  1  0.532500  0.391100  0.553900  1
  C  C479  1  0.477500  0.108900  0.946100  1
  C  C480  1  0.467500  0.608900  0.446100  1
  C  C481  1  0.506200  0.928100  0.076100  1
  C  C482  1  0.489600  0.428100  0.576100  1
  C  C483  1  0.493800  0.071900  0.923900  1
  C  C484  1  0.510400  0.571900  0.423900  1
  C  C485  1  0.400900  0.842000  0.109800  1
  C  C486  1  0.647300  0.342000  0.609800  1
  C  C487  1  0.599100  0.158000  0.890200  1
  C  C488  1  0.352700  0.658000  0.390200  1
  C  C489  1  0.427100  0.779000  0.023400  1
  C  C490  1  0.770500  0.279000  0.523400  1
  C  C491  1  0.572900  0.221000  0.976600  1
  C  C492  1  0.229500  0.721000  0.476600  1
  C  C493  1  0.470700  0.743100  0.040300  1
  C  C494  1  0.745900  0.243100  0.540300  1
  C  C495  1  0.529300  0.256900  0.959700  1
  C  C496  1  0.254100  0.756900  0.459700  1
  C  C497  1  0.463400  0.762500  0.077100  1
  C  C498  1  0.697000  0.262500  0.577100  1
  C  C499  1  0.536600  0.237500  0.922900  1
  C  C500  1  0.303000  0.737500  0.422900  1
  C  C501  1  0.348400  0.825700  0.944300  1
  C  C502  1  0.881600  0.325700  0.444300  1
  C  C503  1  0.651600  0.174300  0.055700  1
  C  C504  1  0.118400  0.674300  0.555700  1
  C  C505  1  0.372400  0.782600  0.921200  1
  C  C506  1  0.923800  0.282600  0.421200  1
  C  C507  1  0.627600  0.217400  0.078800  1
  C  C508  1  0.076200  0.717400  0.578800  1
  C  C509  1  0.412100  0.742000  0.931200  1
  C  C510  1  0.914700  0.242000  0.431200  1
  C  C511  1  0.587900  0.258000  0.068800  1
  C  C512  1  0.085300  0.758000  0.568800  1
  C  C513  1  0.431200  0.740900  0.962300  1
  C  C514  1  0.865600  0.240900  0.462300  1
  C  C515  1  0.568800  0.259100  0.037700  1
  C  C516  1  0.134400  0.759100  0.537700  1
  C  C517  1  0.408300  0.781800  0.985000  1
  C  C518  1  0.824900  0.281800  0.485000  1
  C  C519  1  0.591700  0.218200  0.015000  1
  C  C520  1  0.175100  0.718200  0.515000  1
  C  C521  1  0.817700  0.094500  0.331500  1
  C  C522  1  0.756300  0.594500  0.831500  1
  C  C523  1  0.182300  0.905500  0.668500  1
  C  C524  1  0.243700  0.405500  0.168500  1
  C  C525  1  0.793900  0.144000  0.322000  1
  C  C526  1  0.740100  0.644000  0.822000  1
  C  C527  1  0.206100  0.856000  0.678000  1
  C  C528  1  0.259900  0.356000  0.178000  1
  C  C529  1  0.782500  0.165100  0.282700  1
  C  C530  1  0.769700  0.665100  0.782700  1
  C  C531  1  0.217500  0.834900  0.717300  1
  C  C532  1  0.230300  0.334900  0.217300  1
  C  C533  1  0.792600  0.134600  0.253200  1
  C  C534  1  0.819600  0.634600  0.753200  1
  C  C535  1  0.207400  0.865400  0.746800  1
  C  C536  1  0.180400  0.365400  0.246800  1
  C  C537  1  0.817000  0.085700  0.261100  1
  C  C538  1  0.836200  0.585700  0.761100  1
  C  C539  1  0.183000  0.914300  0.738900  1
  C  C540  1  0.163800  0.414300  0.238900  1
  C  C541  1  0.827800  0.052600  0.234000  1
  C  C542  1  0.885600  0.552600  0.734000  1
  C  C543  1  0.172200  0.947400  0.766000  1
  C  C544  1  0.114400  0.447400  0.266000  1
  C  C545  1  0.837700  0.020600  0.183000  1
  C  C546  1  0.958700  0.520600  0.683000  1
  C  C547  1  0.162300  0.979400  0.817000  1
  C  C548  1  0.041300  0.479400  0.317000  1
  C  C549  1  0.822300  0.063100  0.192300  1
  C  C550  1  0.922300  0.563100  0.692300  1
  C  C551  1  0.177700  0.936900  0.807700  1
  C  C552  1  0.077700  0.436900  0.307700  1
  C  C553  1  0.871700  0.935100  0.213700  1
  C  C554  1  0.979500  0.435100  0.713700  1
  C  C555  1  0.128300  0.064900  0.786300  1
  C  C556  1  0.020500  0.564900  0.286300  1
  C  C557  1  0.938200  0.905900  0.201100  1
  C  C558  1  0.954800  0.405900  0.701100  1
  C  C559  1  0.061800  0.094100  0.798900  1
  C  C560  1  0.045200  0.594100  0.298900  1
  C  C561  1  0.975400  0.932800  0.175800  1
  C  C562  1  0.916000  0.432800  0.675800  1
  C  C563  1  0.024600  0.067200  0.824200  1
  C  C564  1  0.084000  0.567200  0.324200  1
  C  C565  1  0.040000  0.907400  0.163800  1
  C  C566  1  0.888800  0.407400  0.663800  1
  C  C567  1  0.960000  0.092600  0.836200  1
  C  C568  1  0.111200  0.592600  0.336200  1
  C  C569  1  0.058500  0.858900  0.178700  1
  C  C570  1  0.903900  0.358900  0.678700  1
  C  C571  1  0.941500  0.141100  0.821300  1
  C  C572  1  0.096100  0.641100  0.321300  1
  C  C573  1  0.019400  0.832200  0.207000  1
  C  C574  1  0.941400  0.332200  0.707000  1
  C  C575  1  0.980600  0.167800  0.793000  1
  C  C576  1  0.058600  0.667800  0.293000  1
  C  C577  1  0.958600  0.857800  0.219600  1
  C  C578  1  0.964000  0.357800  0.719600  1
  C  C579  1  0.041400  0.142200  0.780400  1
  C  C580  1  0.036000  0.642200  0.280400  1
  C  C581  1  0.079900  0.936300  0.134300  1
  C  C582  1  0.849500  0.436300  0.634300  1
  C  C583  1  0.920100  0.063700  0.865700  1
  C  C584  1  0.150500  0.563700  0.365700  1
  C  C585  1  0.133000  0.923500  0.142100  1
  C  C586  1  0.801400  0.423500  0.642100  1
  C  C587  1  0.867000  0.076500  0.857900  1
  C  C588  1  0.198600  0.576500  0.357900  1
  C  C589  1  0.169700  0.945700  0.116500  1
  C  C590  1  0.768100  0.445700  0.616500  1
  C  C591  1  0.830300  0.054300  0.883500  1
  C  C592  1  0.231900  0.554300  0.383500  1
  C  C593  1  0.156700  0.980100  0.086300  1
  C  C594  1  0.776900  0.480100  0.586300  1
  C  C595  1  0.843300  0.019900  0.913700  1
  C  C596  1  0.223100  0.519900  0.413700  1
  C  C597  1  0.104600  0.992900  0.077500  1
  C  C598  1  0.825000  0.492900  0.577500  1
  C  C599  1  0.895400  0.007100  0.922500  1
  C  C600  1  0.175000  0.507100  0.422500  1
  C  C601  1  0.065400  0.970200  0.104200  1
  C  C602  1  0.860200  0.470200  0.604200  1
  C  C603  1  0.934600  0.029800  0.895800  1
  C  C604  1  0.139800  0.529800  0.395800  1
  C  C605  1  0.229400  0.930700  0.125500  1
  C  C606  1  0.714400  0.430700  0.625500  1
  C  C607  1  0.770600  0.069300  0.874500  1
  C  C608  1  0.285600  0.569300  0.374500  1
  C  C609  1  0.346000  0.957800  0.038400  1
  C  C610  1  0.657800  0.457800  0.538400  1
  C  C611  1  0.654000  0.042200  0.961600  1
  C  C612  1  0.342200  0.542200  0.461600  1
  C  C613  1  0.324100  0.001800  0.062800  1
  C  C614  1  0.611300  0.501800  0.562800  1
  C  C615  1  0.675900  0.998200  0.937200  1
  C  C616  1  0.388700  0.498200  0.437200  1
  C  C617  1  0.280200  0.990500  0.097100  1
  C  C618  1  0.632200  0.490500  0.597100  1
  C  C619  1  0.719800  0.009500  0.902900  1
  C  C620  1  0.367800  0.509500  0.402900  1
  C  C621  1  0.447000  0.890800  0.943800  1
  C  C622  1  0.718400  0.390800  0.443800  1
  C  C623  1  0.553000  0.109200  0.056200  1
  C  C624  1  0.281600  0.609200  0.556200  1
  C  C625  1  0.491200  0.908800  0.925800  1
  C  C626  1  0.674200  0.408800  0.425800  1
  C  C627  1  0.508800  0.091200  0.074200  1
  C  C628  1  0.325800  0.591200  0.574200  1
  C  C629  1  0.490800  0.942700  0.944100  1
  C  C630  1  0.622400  0.442700  0.444100  1
  C  C631  1  0.509200  0.057300  0.055900  1
  C  C632  1  0.377600  0.557300  0.555900  1
  C  C633  1  0.443500  0.961000  0.982000  1
  C  C634  1  0.613500  0.461000  0.482000  1
  C  C635  1  0.556500  0.039000  0.018000  1
  C  C636  1  0.386500  0.539000  0.518000  1
  C  C637  1  0.394900  0.943400  0.999000  1
  C  C638  1  0.662700  0.443400  0.499000  1
  C  C639  1  0.605100  0.056600  0.001000  1
  C  C640  1  0.337300  0.556600  0.501000  1
  C  C641  1  0.271900  0.811700  0.090900  1
  C  C642  1  0.825500  0.311700  0.590900  1
  C  C643  1  0.728100  0.188300  0.909100  1
  C  C644  1  0.174500  0.688300  0.409100  1
  C  C645  1  0.225700  0.788500  0.112700  1
  C  C646  1  0.873100  0.288500  0.612700  1
  C  C647  1  0.774300  0.211500  0.887300  1
  C  C648  1  0.126900  0.711500  0.387300  1
  C  C649  1  0.180200  0.804000  0.096800  1
  C  C650  1  0.919000  0.304000  0.596800  1
  C  C651  1  0.819800  0.196000  0.903200  1
  C  C652  1  0.081000  0.696000  0.403200  1
  C  C653  1  0.175700  0.840400  0.064800  1
  C  C654  1  0.919100  0.340400  0.564800  1
  C  C655  1  0.824300  0.159600  0.935200  1
  C  C656  1  0.080900  0.659600  0.435200  1
  C  C657  1  0.219800  0.866000  0.041600  1
  C  C658  1  0.872600  0.366000  0.541600  1
  C  C659  1  0.780200  0.134000  0.958400  1
  C  C660  1  0.127400  0.634000  0.458400  1
  C  C661  1  0.216800  0.900200  0.008600  1
  C  C662  1  0.874400  0.400200  0.508600  1
  C  C663  1  0.783200  0.099800  0.991400  1
  C  C664  1  0.125600  0.599800  0.491400  1
  C  C665  1  0.199000  0.952300  0.954500  1
  C  C666  1  0.894200  0.452300  0.454500  1
  C  C667  1  0.801000  0.047700  0.045500  1
  C  C668  1  0.105800  0.547700  0.545500  1
  C  C669  1  0.175900  0.927500  0.985900  1
  C  C670  1  0.910700  0.427500  0.485900  1
  C  C671  1  0.824100  0.072500  0.014100  1
  C  C672  1  0.089300  0.572500  0.514100  1
  C  C673  1  0.294400  0.968200  0.926400  1
  C  C674  1  0.811000  0.468200  0.426400  1
  C  C675  1  0.705600  0.031800  0.073600  1
  C  C676  1  0.189000  0.531800  0.573600  1
  C  C677  1  0.292800  0.009000  0.942400  1
  C  C678  1  0.755800  0.509000  0.442400  1
  C  C679  1  0.707200  0.991000  0.057600  1
  C  C680  1  0.244200  0.491000  0.557600  1
  C  C681  1  0.240500  0.036400  0.976800  1
  C  C682  1  0.746300  0.536400  0.476800  1
  C  C683  1  0.759500  0.963600  0.023200  1
  C  C684  1  0.253700  0.463600  0.523200  1
  C  C685  1  0.238300  0.078100  0.986100  1
  C  C686  1  0.697500  0.578100  0.486100  1
  C  C687  1  0.761700  0.921900  0.013900  1
  C  C688  1  0.302500  0.421900  0.513900  1
  C  C689  1  0.289300  0.093400  0.969000  1
  C  C690  1  0.648300  0.593400  0.469000  1
  C  C691  1  0.710700  0.906600  0.031000  1
  C  C692  1  0.351700  0.406600  0.531000  1
  C  C693  1  0.341500  0.065900  0.934700  1
  C  C694  1  0.657900  0.565900  0.434700  1
  C  C695  1  0.658500  0.934100  0.065300  1
  C  C696  1  0.342100  0.434100  0.565300  1
  C  C697  1  0.343000  0.025100  0.922700  1
  C  C698  1  0.709200  0.525100  0.422700  1
  C  C699  1  0.657000  0.974900  0.077300  1
  C  C700  1  0.290800  0.474900  0.577300  1
  C  C701  1  0.183800  0.106600  0.020400  1
  C  C702  1  0.689200  0.606600  0.520400  1
  C  C703  1  0.816200  0.893400  0.979600  1
  C  C704  1  0.310800  0.393400  0.479600  1
  C  C705  1  0.190000  0.127300  0.051500  1
  C  C706  1  0.631200  0.627300  0.551500  1
  C  C707  1  0.810000  0.872700  0.948500  1
  C  C708  1  0.368800  0.372700  0.448500  1
  C  C709  1  0.141500  0.151800  0.082200  1
  C  C710  1  0.624500  0.651800  0.582200  1
  C  C711  1  0.858500  0.848200  0.917800  1
  C  C712  1  0.375500  0.348200  0.417800  1
  C  C713  1  0.085000  0.153900  0.086100  1
  C  C714  1  0.675000  0.653900  0.586100  1
  C  C715  1  0.915000  0.846100  0.913900  1
  C  C716  1  0.325000  0.346100  0.413900  1
  C  C717  1  0.076900  0.132000  0.059600  1
  C  C718  1  0.731500  0.632000  0.559600  1
  C  C719  1  0.923100  0.868000  0.940400  1
  C  C720  1  0.268500  0.368000  0.440400  1
  C  C721  1  0.129000  0.109200  0.027000  1
  C  C722  1  0.734800  0.609200  0.527000  1
  C  C723  1  0.871000  0.890800  0.973000  1
  C  C724  1  0.265200  0.390800  0.473000  1
  C  C725  1  0.152900  0.172500  0.114500  1
  C  C726  1  0.560100  0.672500  0.614500  1
  C  C727  1  0.847100  0.827500  0.885500  1
  C  C728  1  0.439900  0.327500  0.385500  1
  C  C729  1  0.030300  0.275500  0.164300  1
  C  C730  1  0.529900  0.775500  0.664300  1
  C  C731  1  0.969700  0.724500  0.835700  1
  C  C732  1  0.470100  0.224500  0.335700  1
  C  C733  1  0.021800  0.240800  0.196800  1
  C  C734  1  0.540600  0.740800  0.696800  1
  C  C735  1  0.978200  0.759200  0.803200  1
  C  C736  1  0.459400  0.259200  0.303200  1
  C  C737  1  0.062600  0.196800  0.183200  1
  C  C738  1  0.557400  0.696800  0.683200  1
  C  C739  1  0.937400  0.803200  0.816800  1
  C  C740  1  0.442600  0.303200  0.316800  1
  C  C741  1  0.996000  0.396400  0.111000  1
  C  C742  1  0.496600  0.896400  0.611000  1
  C  C743  1  0.004000  0.603600  0.889000  1
  C  C744  1  0.503400  0.103600  0.389000  1
  C  C745  1  0.952900  0.426000  0.147600  1
  C  C746  1  0.473500  0.926000  0.647600  1
  C  C747  1  0.047100  0.574000  0.852400  1
  C  C748  1  0.526500  0.074000  0.352400  1
  C  C749  1  0.939400  0.401500  0.187500  1
  C  C750  1  0.471600  0.901500  0.687500  1
  C  C751  1  0.060600  0.598500  0.812500  1
  C  C752  1  0.528400  0.098500  0.312500  1
  C  C753  1  0.961700  0.354000  0.193200  1
  C  C754  1  0.491100  0.854000  0.693200  1
  C  C755  1  0.038300  0.646000  0.806800  1
  C  C756  1  0.508900  0.146000  0.306800  1
  C  C757  1  0.003400  0.325700  0.160900  1
  C  C758  1  0.510000  0.825700  0.660900  1
  C  C759  1  0.996600  0.674300  0.839100  1
  C  C760  1  0.490000  0.174300  0.339100  1
  C  C761  1  0.954700  0.398800  0.357800  1
  C  C762  1  0.288700  0.898800  0.857800  1
  C  C763  1  0.045300  0.601200  0.642200  1
  C  C764  1  0.711300  0.101200  0.142200  1
  C  C765  1  0.906300  0.747400  0.462000  1
  C  C766  1  0.884300  0.247400  0.962000  1
  C  C767  1  0.093700  0.252600  0.538000  1
  C  C768  1  0.115700  0.752600  0.038000  1
  C  C769  1  0.939900  0.996200  0.062000  1
  C  C770  1  0.001900  0.496200  0.562000  1
  C  C771  1  0.060100  0.003800  0.938000  1
  C  C772  1  0.998100  0.503800  0.438000  1
  C  C773  1  0.803900  0.936700  0.135500  1
  C  C774  1  0.123900  0.436700  0.635500  1
  C  C775  1  0.196100  0.063300  0.864500  1
  C  C776  1  0.876100  0.563300  0.364500  1
  C  C777  1  0.809000  0.184600  0.127400  1
  C  C778  1  0.879000  0.684600  0.627400  1
  C  C779  1  0.191000  0.815400  0.872600  1
  C  C780  1  0.121000  0.315400  0.372600  1
  C  C781  1  0.947400  0.761200  0.494000  1
  C  C782  1  0.797400  0.261200  0.994000  1
  C  C783  1  0.052600  0.238800  0.506000  1
  C  C784  1  0.202600  0.738800  0.006000  1
  C  C785  1  0.000000  0.000000  0.000000  1
  C  C786  1  1.000000  0.500000  0.500000  1
  C  C787  1  0.824700  0.166000  0.086600  1
  C  C788  1  0.922700  0.666000  0.586600  1
  C  C789  1  0.175300  0.834000  0.913400  1
  C  C790  1  0.077300  0.334000  0.413400  1
  C  C791  1  0.426300  0.751500  0.277900  1
  C  C792  1  0.544300  0.251500  0.777900  1
  C  C793  1  0.573700  0.248500  0.722100  1
  C  C794  1  0.455700  0.748500  0.222100  1
  C  C795  1  0.363600  0.788800  0.488000  1
  C  C796  1  0.359600  0.288800  0.988000  1
  C  C797  1  0.636400  0.211200  0.512000  1
  C  C798  1  0.640400  0.711200  0.012000  1
  Co  Co799  1  0.265390  0.042630  0.323830  1
  Co  Co800  1  0.368150  0.542630  0.823830  1
  Co  Co801  1  0.734610  0.957370  0.676170  1
  Co  Co802  1  0.631850  0.457370  0.176170  1
  Co  Co803  1  0.082590  0.304190  0.069390  1
  Co  Co804  1  0.543830  0.804190  0.569390  1
  Co  Co805  1  0.917410  0.695810  0.930610  1
  Co  Co806  1  0.456170  0.195810  0.430610  1
  Co  Co807  1  0.333390  0.876570  0.019150  1
  Co  Co808  1  0.770890  0.376570  0.519150  1
  Co  Co809  1  0.666610  0.123430  0.980850  1
  Co  Co810  1  0.229110  0.623430  0.480850  1
  Co  Co811  1  0.858870  0.990510  0.309370  1
  Co  Co812  1  0.841250  0.490510  0.809370  1
  Co  Co813  1  0.141130  0.009490  0.690630  1
  Co  Co814  1  0.158750  0.509490  0.190630  1
  F  F815  1  0.410500  0.665000  0.536800  1
  F  F816  1  0.387700  0.165000  0.036800  1
  F  F817  1  0.589500  0.335000  0.463200  1
  F  F818  1  0.612300  0.835000  0.963200  1
  F  F819  1  0.502600  0.657800  0.528800  1
  F  F820  1  0.310800  0.157800  0.028800  1
  F  F821  1  0.497400  0.342200  0.471200  1
  F  F822  1  0.689200  0.842200  0.971200  1
  F  F823  1  0.397900  0.633900  0.606900  1
  F  F824  1  0.361300  0.133900  0.106900  1
  F  F825  1  0.602100  0.366100  0.393100  1
  F  F826  1  0.638700  0.866100  0.893100  1
  F  F827  1  0.493300  0.622100  0.599900  1
  F  F828  1  0.284700  0.122100  0.099900  1
  F  F829  1  0.506700  0.377900  0.400100  1
  F  F830  1  0.715300  0.877900  0.900100  1
  F  F831  1  0.425100  0.698400  0.584000  1
  F  F832  1  0.292500  0.198400  0.084000  1
  F  F833  1  0.574900  0.301600  0.416000  1
  F  F834  1  0.707500  0.801600  0.916000  1
  F  F835  1  0.477200  0.591800  0.553000  1
  F  F836  1  0.378000  0.091800  0.053000  1
  F  F837  1  0.522800  0.408200  0.447000  1
  F  F838  1  0.622000  0.908200  0.947000  1
  F  F839  1  0.199200  0.887400  0.571400  1
  F  F840  1  0.342000  0.387400  0.071400  1
  F  F841  1  0.800800  0.112600  0.428600  1
  F  F842  1  0.658000  0.612600  0.928600  1
  F  F843  1  0.084900  0.861200  0.578400  1
  F  F844  1  0.475500  0.361200  0.078400  1
  F  F845  1  0.915100  0.138800  0.421600  1
  F  F846  1  0.524500  0.638800  0.921600  1
  F  F847  1  0.100700  0.901100  0.617500  1
  F  F848  1  0.380700  0.401100  0.117500  1
  F  F849  1  0.899300  0.098900  0.382500  1
  F  F850  1  0.619300  0.598900  0.882500  1
  F  F851  1  0.166000  0.826200  0.602400  1
  F  F852  1  0.405400  0.326200  0.102400  1
  F  F853  1  0.834000  0.173800  0.397600  1
  F  F854  1  0.594600  0.673800  0.897600  1
  F  F855  1  0.184100  0.847400  0.531400  1
  F  F856  1  0.437100  0.347400  0.031400  1
  F  F857  1  0.815900  0.152600  0.468600  1
  F  F858  1  0.562900  0.652600  0.968600  1
  F  F859  1  0.128900  0.920200  0.546000  1
  F  F860  1  0.404900  0.420200  0.046000  1
  F  F861  1  0.871100  0.079800  0.454000  1
  F  F862  1  0.595100  0.579800  0.954000  1
  F  F863  1  0.765900  0.383500  0.334100  1
  F  F864  1  0.516500  0.883500  0.834100  1
  F  F865  1  0.234100  0.616500  0.665900  1
  F  F866  1  0.483500  0.116500  0.165900  1
  F  F867  1  0.814500  0.407600  0.352400  1
  F  F868  1  0.425500  0.907600  0.852400  1
  F  F869  1  0.185500  0.592400  0.647600  1
  F  F870  1  0.574500  0.092400  0.147600  1
  F  F871  1  0.904600  0.358700  0.305700  1
  F  F872  1  0.431000  0.858700  0.805700  1
  F  F873  1  0.095400  0.641300  0.694300  1
  F  F874  1  0.569000  0.141300  0.194300  1
  F  F875  1  0.850700  0.340100  0.285300  1
  F  F876  1  0.523900  0.840100  0.785300  1
  F  F877  1  0.149300  0.659900  0.714700  1
  F  F878  1  0.476100  0.159900  0.214700  1
  F  F879  1  0.834300  0.330700  0.361300  1
  F  F880  1  0.473700  0.830700  0.861300  1
  F  F881  1  0.165700  0.669300  0.638700  1
  F  F882  1  0.526300  0.169300  0.138700  1
  F  F883  1  0.831100  0.414500  0.281500  1
  F  F884  1  0.472900  0.914500  0.781500  1
  F  F885  1  0.168900  0.585500  0.718500  1
  F  F886  1  0.527100  0.085500  0.218500  1
  F  F887  1  0.641100  0.005800  0.520200  1
  F  F888  1  0.832900  0.505800  0.020200  1
  F  F889  1  0.358900  0.994200  0.479800  1
  F  F890  1  0.167100  0.494200  0.979800  1
  F  F891  1  0.567000  0.970500  0.555500  1
  F  F892  1  0.907000  0.470500  0.055500  1
  F  F893  1  0.433000  0.029500  0.444500  1
  F  F894  1  0.093000  0.529500  0.944500  1
  F  F895  1  0.597200  0.003600  0.585400  1
  F  F896  1  0.813800  0.503600  0.085400  1
  F  F897  1  0.402800  0.996400  0.414600  1
  F  F898  1  0.186200  0.496400  0.914600  1
  F  F899  1  0.669900  0.920400  0.517800  1
  F  F900  1  0.891900  0.420400  0.017800  1
  F  F901  1  0.330100  0.079600  0.482200  1
  F  F902  1  0.108100  0.579600  0.982200  1
  F  F903  1  0.627400  0.921200  0.595000  1
  F  F904  1  0.856400  0.421200  0.095000  1
  F  F905  1  0.372600  0.078800  0.405000  1
  F  F906  1  0.143600  0.578800  0.905000  1
  F  F907  1  0.689100  0.949200  0.558000  1
  F  F908  1  0.803700  0.449200  0.058000  1
  F  F909  1  0.310900  0.050800  0.442000  1
  F  F910  1  0.196300  0.550800  0.942000  1
  F  F911  1  0.576100  0.515000  0.694000  1
  F  F912  1  0.214900  0.015000  0.194000  1
  F  F913  1  0.423900  0.485000  0.306000  1
  F  F914  1  0.785100  0.985000  0.806000  1
  F  F915  1  0.540900  0.592600  0.703600  1
  F  F916  1  0.162900  0.092600  0.203600  1
  F  F917  1  0.459100  0.407400  0.296400  1
  F  F918  1  0.837100  0.907400  0.796400  1
  F  F919  1  0.619500  0.566500  0.648500  1
  F  F920  1  0.165500  0.066500  0.148500  1
  F  F921  1  0.380500  0.433500  0.351500  1
  F  F922  1  0.834500  0.933500  0.851500  1
  F  F923  1  0.664300  0.508300  0.691300  1
  F  F924  1  0.136100  0.008300  0.191300  1
  F  F925  1  0.335700  0.491700  0.308700  1
  F  F926  1  0.863900  0.991700  0.808700  1
  F  F927  1  0.626100  0.584500  0.706300  1
  F  F928  1  0.083100  0.084500  0.206300  1
  F  F929  1  0.373900  0.415500  0.293700  1
  F  F930  1  0.916900  0.915500  0.793700  1
  F  F931  1  0.587100  0.530900  0.752900  1
  F  F932  1  0.129100  0.030900  0.252900  1
  F  F933  1  0.412900  0.469100  0.247100  1
  F  F934  1  0.870900  0.969100  0.747100  1
  F  F935  1  0.771700  0.244200  0.785800  1.0
  F  F936  1  0.198300  0.744200  0.285800  1.0
  F  F937  1  0.228300  0.755800  0.214200  1.0
  F  F938  1  0.801700  0.255800  0.714200  1.0
  F  F939  1  0.852800  0.249300  0.787100  1.0
  F  F940  1  0.110800  0.749300  0.287100  1.0
  F  F941  1  0.147200  0.750700  0.212900  1.0
  F  F942  1  0.889200  0.250700  0.712900  1.0
  F  F943  1  0.804700  0.307200  0.742800  1.0
  F  F944  1  0.145300  0.807200  0.242800  1.0
  F  F945  1  0.195300  0.692800  0.257200  1.0
  F  F946  1  0.854700  0.192800  0.757200  1.0
  H  H947  1  0.019600  0.358600  0.996800  1
  H  H948  1  0.625000  0.858600  0.496800  1
  H  H949  1  0.980400  0.641400  0.003200  1
  H  H950  1  0.375000  0.141400  0.503200  1
  H  H951  1  0.038900  0.408700  0.926900  1
  H  H952  1  0.625500  0.908700  0.426900  1
  H  H953  1  0.961100  0.591300  0.073100  1
  H  H954  1  0.374500  0.091300  0.573100  1
  H  H955  1  0.116500  0.435300  0.913300  1
  H  H956  1  0.534900  0.935300  0.413300  1
  H  H957  1  0.883500  0.564700  0.086700  1
  H  H958  1  0.465100  0.064700  0.586700  1
  H  H959  1  0.155100  0.431000  0.968800  1
  H  H960  1  0.445100  0.931000  0.468800  1
  H  H961  1  0.844900  0.569000  0.031200  1
  H  H962  1  0.554900  0.069000  0.531200  1
  H  H963  1  0.241000  0.356200  0.079800  1
  H  H964  1  0.323000  0.856200  0.579800  1
  H  H965  1  0.759000  0.643800  0.920200  1
  H  H966  1  0.677000  0.143800  0.420200  1
  H  H967  1  0.208700  0.409400  0.017400  1
  H  H968  1  0.364500  0.909400  0.517400  1
  H  H969  1  0.791300  0.590600  0.982600  1
  H  H970  1  0.635500  0.090600  0.482600  1
  H  H971  1  0.229500  0.274400  0.129400  1
  H  H972  1  0.366700  0.774400  0.629400  1
  H  H973  1  0.770500  0.725600  0.870600  1
  H  H974  1  0.633300  0.225600  0.370600  1
  H  H975  1  0.184600  0.258900  0.120500  1
  H  H976  1  0.436000  0.758900  0.620500  1
  H  H977  1  0.815400  0.741100  0.879500  1
  H  H978  1  0.564000  0.241100  0.379500  1
  H  H979  1  0.166500  0.235400  0.200000  1
  H  H980  1  0.398100  0.735400  0.700000  1
  H  H981  1  0.833500  0.764600  0.800000  1
  H  H982  1  0.601900  0.264600  0.300000  1
  H  H983  1  0.038000  0.340800  0.277000  1
  H  H984  1  0.344200  0.840800  0.777000  1
  H  H985  1  0.962000  0.659200  0.723000  1
  H  H986  1  0.655800  0.159200  0.223000  1
  H  H987  1  0.044200  0.398800  0.219400  1
  H  H988  1  0.337600  0.898800  0.719400  1
  H  H989  1  0.955800  0.601200  0.780600  1
  H  H990  1  0.662400  0.101200  0.280600  1
  H  H991  1  0.115600  0.372900  0.152100  1
  H  H992  1  0.359400  0.872900  0.652100  1
  H  H993  1  0.884400  0.627100  0.847900  1
  H  H994  1  0.640600  0.127100  0.347900  1
  H  H995  1  0.124200  0.185700  0.250300  1
  H  H996  1  0.439800  0.685700  0.750300  1
  H  H997  1  0.875800  0.814300  0.749700  1
  H  H998  1  0.560200  0.314300  0.249700  1
  H  H999  1  0.081500  0.145100  0.380500  1
  H  H1000  1  0.392900  0.645100  0.880500  1
  H  H1001  1  0.918500  0.854900  0.619500  1
  H  H1002  1  0.607100  0.354900  0.119500  1
  H  H1003  1  0.062500  0.220900  0.392700  1
  H  H1004  1  0.323900  0.720900  0.892700  1
  H  H1005  1  0.937500  0.779100  0.607300  1
  H  H1006  1  0.676100  0.279100  0.107300  1
  H  H1007  1  0.069300  0.278100  0.340300  1
  H  H1008  1  0.312300  0.778100  0.840300  1
  H  H1009  1  0.930700  0.721900  0.659700  1
  H  H1010  1  0.687700  0.221900  0.159700  1
  H  H1011  1  0.092500  0.110600  0.289400  1
  H  H1012  1  0.507500  0.610600  0.789400  1
  H  H1013  1  0.907500  0.889400  0.710600  1
  H  H1014  1  0.492500  0.389400  0.210600  1
  H  H1015  1  0.160700  0.100300  0.279500  1
  H  H1016  1  0.459500  0.600300  0.779500  1
  H  H1017  1  0.839300  0.899700  0.720500  1
  H  H1018  1  0.540500  0.399700  0.220500  1
  H  H1019  1  0.079800  0.008100  0.426300  1
  H  H1020  1  0.485800  0.508100  0.926300  1
  H  H1021  1  0.920200  0.991900  0.573700  1
  H  H1022  1  0.514200  0.491900  0.073700  1
  H  H1023  1  0.034300  0.067800  0.374200  1
  H  H1024  1  0.523700  0.567800  0.874200  1
  H  H1025  1  0.965700  0.932200  0.625800  1
  H  H1026  1  0.476300  0.432200  0.125800  1
  H  H1027  1  0.160100  0.952200  0.456400  1
  H  H1028  1  0.431300  0.452200  0.956400  1
  H  H1029  1  0.839900  0.047800  0.543600  1
  H  H1030  1  0.568700  0.547800  0.043600  1
  H  H1031  1  0.242200  0.904800  0.484000  1
  H  H1032  1  0.369000  0.404800  0.984000  1
  H  H1033  1  0.757800  0.095200  0.516000  1
  H  H1034  1  0.631000  0.595200  0.016000  1
  H  H1035  1  0.335700  0.915100  0.446500  1
  H  H1036  1  0.302700  0.415100  0.946500  1
  H  H1037  1  0.664300  0.084900  0.553500  1
  H  H1038  1  0.697300  0.584900  0.053500  1
  H  H1039  1  0.342900  0.966300  0.383300  1
  H  H1040  1  0.307500  0.466300  0.883300  1
  H  H1041  1  0.657100  0.033700  0.616700  1
  H  H1042  1  0.692500  0.533700  0.116700  1
  H  H1043  1  0.219600  0.256600  0.017200  1
  H  H1044  1  0.506600  0.756600  0.517200  1
  H  H1045  1  0.780400  0.743400  0.982800  1
  H  H1046  1  0.493400  0.243400  0.482800  1
  H  H1047  1  0.275500  0.223800  0.954800  1
  H  H1048  1  0.545900  0.723800  0.454800  1
  H  H1049  1  0.724500  0.776200  0.045200  1
  H  H1050  1  0.454100  0.276200  0.545200  1
  H  H1051  1  0.233100  0.196100  0.918100  1
  H  H1052  1  0.652700  0.696100  0.418100  1
  H  H1053  1  0.766900  0.803900  0.081900  1
  H  H1054  1  0.347300  0.303900  0.581900  1
  H  H1055  1  0.132600  0.211900  0.946300  1
  H  H1056  1  0.709200  0.711900  0.446300  1
  H  H1057  1  0.867400  0.788100  0.053700  1
  H  H1058  1  0.290800  0.288100  0.553700  1
  H  H1059  1  0.928800  0.276300  0.026700  1
  H  H1060  1  0.768200  0.776300  0.526700  1
  H  H1061  1  0.071200  0.723700  0.973300  1
  H  H1062  1  0.231800  0.223700  0.473300  1
  H  H1063  1  0.030000  0.226200  0.981800  1
  H  H1064  1  0.762000  0.726200  0.481800  1
  H  H1065  1  0.970000  0.773800  0.018200  1
  H  H1066  1  0.238000  0.273800  0.518200  1
  H  H1067  1  0.935000  0.337800  0.107000  1
  H  H1068  1  0.620200  0.837800  0.607000  1
  H  H1069  1  0.065000  0.662200  0.893000  1
  H  H1070  1  0.379800  0.162200  0.393000  1
  H  H1071  1  0.885300  0.334400  0.093200  1
  H  H1072  1  0.687100  0.834400  0.593200  1
  H  H1073  1  0.114700  0.665600  0.906800  1
  H  H1074  1  0.312900  0.165600  0.406800  1
  H  H1075  1  0.945200  0.221200  0.119400  1
  H  H1076  1  0.714200  0.721200  0.619400  1
  H  H1077  1  0.054800  0.778800  0.880600  1
  H  H1078  1  0.285800  0.278800  0.380600  1
  H  H1079  1  0.864800  0.210400  0.250600  1
  H  H1080  1  0.674200  0.710400  0.750600  1
  H  H1081  1  0.135200  0.789600  0.749400  1
  H  H1082  1  0.325800  0.289600  0.249400  1
  H  H1083  1  0.832300  0.297000  0.242600  1
  H  H1084  1  0.628100  0.797000  0.742600  1
  H  H1085  1  0.167700  0.703000  0.757400  1
  H  H1086  1  0.371900  0.203000  0.257400  1
  H  H1087  1  0.863900  0.344700  0.178300  1
  H  H1088  1  0.613100  0.844700  0.678300  1
  H  H1089  1  0.136100  0.655300  0.821700  1
  H  H1090  1  0.386900  0.155300  0.321700  1
  H  H1091  1  0.935700  0.139600  0.247400  1
  H  H1092  1  0.677300  0.639600  0.747400  1
  H  H1093  1  0.064300  0.860400  0.752600  1
  H  H1094  1  0.322700  0.360400  0.252600  1
  H  H1095  1  0.986100  0.020500  0.192100  1
  H  H1096  1  0.801300  0.520500  0.692100  1
  H  H1097  1  0.013900  0.979500  0.807900  1
  H  H1098  1  0.198700  0.479500  0.307900  1
  H  H1099  1  0.967500  0.067000  0.134400  1
  H  H1100  1  0.831100  0.567000  0.634400  1
  H  H1101  1  0.032500  0.933000  0.865600  1
  H  H1102  1  0.168900  0.433000  0.365600  1
  H  H1103  1  0.928600  0.148000  0.128200  1
  H  H1104  1  0.795200  0.648000  0.628200  1
  H  H1105  1  0.071400  0.852000  0.871800  1
  H  H1106  1  0.204800  0.352000  0.371800  1
  H  H1107  1  0.010100  0.053200  0.268200  1
  H  H1108  1  0.668500  0.553200  0.768200  1
  H  H1109  1  0.989900  0.946800  0.731800  1
  H  H1110  1  0.331500  0.446800  0.231800  1
  H  H1111  1  0.942500  0.059100  0.293900  1
  H  H1112  1  0.704500  0.559100  0.793900  1
  H  H1113  1  0.057500  0.940900  0.706100  1
  H  H1114  1  0.295500  0.440900  0.206100  1
  H  H1115  1  0.077000  0.886500  0.265900  1
  H  H1116  1  0.770600  0.386500  0.765900  1
  H  H1117  1  0.923000  0.113500  0.734100  1
  H  H1118  1  0.229400  0.613500  0.234100  1
  H  H1119  1  0.081400  0.967600  0.250200  1
  H  H1120  1  0.700800  0.467600  0.750200  1
  H  H1121  1  0.918600  0.032400  0.749800  1
  H  H1122  1  0.299200  0.532400  0.249800  1
  H  H1123  1  0.819500  0.898800  0.340400  1
  H  H1124  1  0.941300  0.398800  0.840400  1
  H  H1125  1  0.180500  0.101200  0.659600  1
  H  H1126  1  0.058700  0.601200  0.159600  1
  H  H1127  1  0.861900  0.816400  0.347600  1
  H  H1128  1  0.974100  0.316400  0.847600  1
  H  H1129  1  0.138100  0.183600  0.652400  1
  H  H1130  1  0.025900  0.683600  0.152400  1
  H  H1131  1  0.965300  0.781467  0.333333  1
  H  H1132  1  0.919900  0.281467  0.833333  1
  H  H1133  1  0.034700  0.218533  0.666667  1
  H  H1134  1  0.080100  0.718533  0.166667  1
  H  H1135  1  0.020000  0.830300  0.303900  1
  H  H1136  1  0.845800  0.330300  0.803900  1
  H  H1137  1  0.980000  0.169700  0.696100  1
  H  H1138  1  0.154200  0.669700  0.196100  1
  H  H1139  1  0.749200  0.003600  0.286400  1
  H  H1140  1  0.960800  0.503600  0.786400  1
  H  H1141  1  0.250800  0.996400  0.713600  1
  H  H1142  1  0.039200  0.496400  0.213600  1
  H  H1143  1  0.649500  0.000200  0.324600  1
  H  H1144  1  0.025700  0.500200  0.824600  1
  H  H1145  1  0.350500  0.999800  0.675400  1
  H  H1146  1  0.974300  0.499800  0.175400  1
  H  H1147  1  0.616200  0.001900  0.398300  1
  H  H1148  1  0.983600  0.501900  0.898300  1
  H  H1149  1  0.383800  0.998100  0.601700  1
  H  H1150  1  0.016400  0.498100  0.101700  1
  H  H1151  1  0.669100  0.998500  0.439300  1
  H  H1152  1  0.893100  0.498500  0.939300  1
  H  H1153  1  0.330900  0.001500  0.560700  1
  H  H1154  1  0.106900  0.501500  0.060700  1
  H  H1155  1  0.846500  0.987400  0.472400  1
  H  H1156  1  0.693700  0.487400  0.972400  1
  H  H1157  1  0.153500  0.012600  0.527600  1
  H  H1158  1  0.306300  0.512600  0.027600  1
  H  H1159  1  0.744900  0.993300  0.474900  1
  H  H1160  1  0.786900  0.493300  0.974900  1
  H  H1161  1  0.255100  0.006700  0.525100  1
  H  H1162  1  0.213100  0.506700  0.025100  1
  H  H1163  1  0.942600  0.002500  0.359300  1
  H  H1164  1  0.695600  0.502500  0.859300  1
  H  H1165  1  0.057400  0.997500  0.640700  1
  H  H1166  1  0.304400  0.497500  0.140700  1
  H  H1167  1  0.937300  0.004600  0.408400  1
  H  H1168  1  0.649700  0.504600  0.908400  1
  H  H1169  1  0.062700  0.995400  0.591600  1
  H  H1170  1  0.350300  0.495400  0.091600  1
  H  H1171  1  0.042500  0.967000  0.366200  1
  H  H1172  1  0.624300  0.467000  0.866200  1
  H  H1173  1  0.957500  0.033000  0.633800  1
  H  H1174  1  0.375700  0.533000  0.133800  1
  H  H1175  1  0.108500  0.822100  0.384100  1
  H  H1176  1  0.685300  0.322100  0.884100  1
  H  H1177  1  0.891500  0.177900  0.615900  1
  H  H1178  1  0.314700  0.677900  0.115900  1
  H  H1179  1  0.009100  0.824000  0.407400  1
  H  H1180  1  0.759500  0.324000  0.907400  1
  H  H1181  1  0.990900  0.176000  0.592600  1
  H  H1182  1  0.240500  0.676000  0.092600  1
  H  H1183  1  0.925700  0.899200  0.411000  1
  H  H1184  1  0.764100  0.399200  0.911000  1
  H  H1185  1  0.074300  0.100800  0.589000  1
  H  H1186  1  0.235900  0.600800  0.089000  1
  H  H1187  1  0.135300  0.943200  0.316000  1
  H  H1188  1  0.605500  0.443200  0.816000  1
  H  H1189  1  0.864700  0.056800  0.684000  1
  H  H1190  1  0.394500  0.556800  0.184000  1
  H  H1191  1  0.292200  0.895300  0.339900  1
  H  H1192  1  0.472600  0.395300  0.839900  1
  H  H1193  1  0.707800  0.104700  0.660100  1
  H  H1194  1  0.527400  0.604700  0.160100  1
  H  H1195  1  0.263000  0.843300  0.396900  1
  H  H1196  1  0.496800  0.343300  0.896900  1
  H  H1197  1  0.737000  0.156700  0.603100  1
  H  H1198  1  0.503200  0.656700  0.103100  1
  H  H1199  1  0.162700  0.844300  0.420100  1
  H  H1200  1  0.572900  0.344300  0.920100  1
  H  H1201  1  0.837300  0.155700  0.579900  1
  H  H1202  1  0.427100  0.655700  0.079900  1
  H  H1203  1  0.239800  0.948700  0.251700  1
  H  H1204  1  0.559800  0.448700  0.751700  1
  H  H1205  1  0.760200  0.051300  0.748300  1
  H  H1206  1  0.440200  0.551300  0.248300  1
  H  H1207  1  0.217500  0.990100  0.282100  1
  H  H1208  1  0.510300  0.490100  0.782100  1
  H  H1209  1  0.782500  0.009900  0.717900  1
  H  H1210  1  0.489700  0.509900  0.217900  1
  H  H1211  1  0.439000  0.904800  0.243200  1
  H  H1212  1  0.413000  0.404800  0.743200  1
  H  H1213  1  0.561000  0.095200  0.756800  1
  H  H1214  1  0.587000  0.595200  0.256800  1
  H  H1215  1  0.355500  0.888700  0.236300  1
  H  H1216  1  0.519500  0.388700  0.736300  1
  H  H1217  1  0.644500  0.111300  0.763700  1
  H  H1218  1  0.480500  0.611300  0.263700  1
  H  H1219  1  0.345300  0.079800  0.339400  1
  H  H1220  1  0.235500  0.579800  0.839400  1
  H  H1221  1  0.654700  0.920200  0.660600  1
  H  H1222  1  0.764500  0.420200  0.160600  1
  H  H1223  1  0.447600  0.069500  0.319500  1
  H  H1224  1  0.163400  0.569500  0.819500  1
  H  H1225  1  0.552400  0.930500  0.680500  1
  H  H1226  1  0.836600  0.430500  0.180500  1
  H  H1227  1  0.516200  0.991900  0.294100  1
  H  H1228  1  0.197800  0.491900  0.794100  1
  H  H1229  1  0.483800  0.008100  0.705900  1
  H  H1230  1  0.802200  0.508100  0.205900  1
  H  H1231  1  0.484800  0.945500  0.270700  1
  H  H1232  1  0.299000  0.445500  0.770700  1
  H  H1233  1  0.515200  0.054500  0.729300  1
  H  H1234  1  0.701000  0.554500  0.229300  1
  H  H1235  1  0.211200  0.077300  0.420700  1
  H  H1236  1  0.290800  0.577300  0.920700  1
  H  H1237  1  0.788800  0.922700  0.579300  1
  H  H1238  1  0.709200  0.422700  0.079300  1
  H  H1239  1  0.177600  0.152600  0.449800  1
  H  H1240  1  0.220000  0.652600  0.949800  1
  H  H1241  1  0.822400  0.847400  0.550200  1
  H  H1242  1  0.780000  0.347400  0.050200  1
  H  H1243  1  0.182500  0.218700  0.403100  1
  H  H1244  1  0.195700  0.718700  0.903100  1
  H  H1245  1  0.817500  0.781300  0.596900  1
  H  H1246  1  0.804300  0.281300  0.096900  1
  H  H1247  1  0.222300  0.219600  0.323800  1
  H  H1248  1  0.234300  0.719600  0.823800  1
  H  H1249  1  0.777700  0.780400  0.676200  1
  H  H1250  1  0.765700  0.280400  0.176200  1
  H  H1251  1  0.297900  0.160100  0.179300  1
  H  H1252  1  0.362700  0.660100  0.679300  1
  H  H1253  1  0.702100  0.839900  0.820700  1
  H  H1254  1  0.637300  0.339900  0.320700  1
  H  H1255  1  0.265300  0.207200  0.243400  1
  H  H1256  1  0.284100  0.707200  0.743400  1
  H  H1257  1  0.734700  0.792800  0.756600  1
  H  H1258  1  0.715900  0.292800  0.256600  1
  H  H1259  1  0.281000  0.080900  0.176100  1
  H  H1260  1  0.462000  0.580900  0.676100  1
  H  H1261  1  0.719000  0.919100  0.823900  1
  H  H1262  1  0.538000  0.419100  0.323900  1
  H  H1263  1  0.275900  0.045500  0.220700  1
  H  H1264  1  0.457900  0.545500  0.720700  1
  H  H1265  1  0.724100  0.954500  0.779300  1
  H  H1266  1  0.542100  0.454500  0.279300  1
  H  H1267  1  0.348800  0.996200  0.152800  1
  H  H1268  1  0.502200  0.496200  0.652800  1
  H  H1269  1  0.651200  0.003800  0.847200  1
  H  H1270  1  0.497800  0.503800  0.347200  1
  H  H1271  1  0.521500  0.958400  0.140800  1
  H  H1272  1  0.379300  0.458400  0.640800  1
  H  H1273  1  0.478500  0.041600  0.859200  1
  H  H1274  1  0.620700  0.541600  0.359200  1
  H  H1275  1  0.493500  0.019900  0.183300  1
  H  H1276  1  0.303300  0.519900  0.683300  1
  H  H1277  1  0.506500  0.980100  0.816700  1
  H  H1278  1  0.696700  0.480100  0.316700  1
  H  H1279  1  0.390700  0.075100  0.207300  1
  H  H1280  1  0.326900  0.575100  0.707300  1
  H  H1281  1  0.609300  0.924900  0.792700  1
  H  H1282  1  0.673100  0.424900  0.292700  1
  H  H1283  1  0.388800  0.909900  0.147100  1
  H  H1284  1  0.554200  0.409900  0.647100  1
  H  H1285  1  0.611200  0.090100  0.852900  1
  H  H1286  1  0.445800  0.590100  0.352900  1
  H  H1287  1  0.505000  0.836900  0.044500  1
  H  H1288  1  0.613600  0.336900  0.544500  1
  H  H1289  1  0.495000  0.163100  0.955500  1
  H  H1290  1  0.386400  0.663100  0.455500  1
  H  H1291  1  0.559100  0.884600  0.030200  1
  H  H1292  1  0.526100  0.384600  0.530200  1
  H  H1293  1  0.440900  0.115400  0.969800  1
  H  H1294  1  0.473900  0.615400  0.469800  1
  H  H1295  1  0.527500  0.949100  0.067500  1
  H  H1296  1  0.455900  0.449100  0.567500  1
  H  H1297  1  0.472500  0.050900  0.932500  1
  H  H1298  1  0.544100  0.550900  0.432500  1
  H  H1299  1  0.359500  0.864300  0.112100  1
  H  H1300  1  0.664100  0.364300  0.612100  1
  H  H1301  1  0.640500  0.135700  0.887900  1
  H  H1302  1  0.335900  0.635700  0.387900  1
  H  H1303  1  0.400800  0.824200  0.139200  1
  H  H1304  1  0.635800  0.324200  0.639200  1
  H  H1305  1  0.599200  0.175800  0.860800  1
  H  H1306  1  0.364200  0.675800  0.360800  1
  H  H1307  1  0.498400  0.712900  0.029700  1
  H  H1308  1  0.759000  0.212900  0.529700  1
  H  H1309  1  0.501600  0.287100  0.970300  1
  H  H1310  1  0.241000  0.787100  0.470300  1
  H  H1311  1  0.484000  0.747200  0.097800  1
  H  H1312  1  0.671000  0.247200  0.597800  1
  H  H1313  1  0.516000  0.252800  0.902200  1
  H  H1314  1  0.329000  0.752800  0.402200  1
  H  H1315  1  0.319900  0.854900  0.936300  1
  H  H1316  1  0.888900  0.354900  0.436300  1
  H  H1317  1  0.680100  0.145100  0.063700  1
  H  H1318  1  0.111100  0.645100  0.563700  1
  H  H1319  1  0.358400  0.784600  0.898200  1
  H  H1320  1  0.958800  0.284600  0.398200  1
  H  H1321  1  0.641600  0.215400  0.101800  1
  H  H1322  1  0.041200  0.715400  0.601800  1
  H  H1323  1  0.426400  0.714300  0.916500  1
  H  H1324  1  0.942800  0.214300  0.416500  1
  H  H1325  1  0.573600  0.285700  0.083500  1
  H  H1326  1  0.057200  0.785700  0.583500  1
  H  H1327  1  0.460900  0.712400  0.969800  1
  H  H1328  1  0.856900  0.212400  0.469800  1
  H  H1329  1  0.539100  0.287600  0.030200  1
  H  H1330  1  0.143100  0.787600  0.530200  1
  H  H1331  1  0.785100  0.164200  0.343000  1
  H  H1332  1  0.707700  0.664200  0.843000  1
  H  H1333  1  0.214900  0.835800  0.657000  1
  H  H1334  1  0.292300  0.335800  0.157000  1
  H  H1335  1  0.768400  0.199100  0.275900  1
  H  H1336  1  0.756600  0.699100  0.775900  1
  H  H1337  1  0.231600  0.800900  0.724100  1
  H  H1338  1  0.243400  0.300900  0.224100  1
  H  H1339  1  0.782300  0.148400  0.227200  1
  H  H1340  1  0.842100  0.648400  0.727200  1
  H  H1341  1  0.217700  0.851600  0.772800  1
  H  H1342  1  0.157900  0.351600  0.272800  1
  H  H1343  1  0.838500  0.015100  0.155900  1
  H  H1344  1  0.990500  0.515100  0.655900  1
  H  H1345  1  0.161500  0.984900  0.844100  1
  H  H1346  1  0.009500  0.484900  0.344100  1
  H  H1347  1  0.810500  0.093400  0.175400  1
  H  H1348  1  0.920700  0.593400  0.675400  1
  H  H1349  1  0.189500  0.906600  0.824600  1
  H  H1350  1  0.079300  0.406600  0.324600  1
  H  H1351  1  0.856300  0.928600  0.194000  1
  H  H1352  1  0.021100  0.428600  0.694000  1
  H  H1353  1  0.143700  0.071400  0.806000  1
  H  H1354  1  0.978900  0.571400  0.306000  1
  H  H1355  1  0.852700  0.922300  0.243900  1
  H  H1356  1  0.981100  0.422300  0.743900  1
  H  H1357  1  0.147300  0.077700  0.756100  1
  H  H1358  1  0.018900  0.577700  0.256100  1
  H  H1359  1  0.958800  0.966300  0.166900  1
  H  H1360  1  0.908000  0.466300  0.666900  1
  H  H1361  1  0.041200  0.033700  0.833100  1
  H  H1362  1  0.092000  0.533700  0.333100  1
  H  H1363  1  0.100200  0.841000  0.170000  1
  H  H1364  1  0.888800  0.341000  0.670000  1
  H  H1365  1  0.899800  0.159000  0.830000  1
  H  H1366  1  0.111200  0.659000  0.330000  1
  H  H1367  1  0.035400  0.798800  0.216200  1
  H  H1368  1  0.949600  0.298800  0.716200  1
  H  H1369  1  0.964600  0.201200  0.783800  1
  H  H1370  1  0.050400  0.701200  0.283800  1
  H  H1371  1  0.931600  0.843100  0.240100  1
  H  H1372  1  0.985200  0.343100  0.740100  1
  H  H1373  1  0.068400  0.156900  0.759900  1
  H  H1374  1  0.014800  0.656900  0.259900  1
  H  H1375  1  0.142400  0.899600  0.165200  1
  H  H1376  1  0.792800  0.399600  0.665200  1
  H  H1377  1  0.857600  0.100400  0.834800  1
  H  H1378  1  0.207200  0.600400  0.334800  1
  H  H1379  1  0.183200  0.996800  0.070000  1
  H  H1380  1  0.750000  0.496800  0.570000  1
  H  H1381  1  0.816800  0.003200  0.930000  1
  H  H1382  1  0.250000  0.503200  0.430000  1
  H  H1383  1  0.096000  0.016600  0.053800  1
  H  H1384  1  0.833600  0.516600  0.553800  1
  H  H1385  1  0.904000  0.983400  0.946200  1
  H  H1386  1  0.166400  0.483400  0.446200  1
  H  H1387  1  0.028100  0.979400  0.100400  1
  H  H1388  1  0.892100  0.479400  0.600400  1
  H  H1389  1  0.971900  0.020600  0.899600  1
  H  H1390  1  0.107900  0.520600  0.399600  1
  H  H1391  1  0.219600  0.938700  0.155300  1
  H  H1392  1  0.686400  0.438700  0.655300  1
  H  H1393  1  0.780400  0.061300  0.844700  1
  H  H1394  1  0.313600  0.561300  0.344700  1
  H  H1395  1  0.249100  0.895100  0.126100  1
  H  H1396  1  0.729700  0.395100  0.626100  1
  H  H1397  1  0.750900  0.104900  0.873900  1
  H  H1398  1  0.270300  0.604900  0.373900  1
  H  H1399  1  0.336900  0.028100  0.056100  1
  H  H1400  1  0.578900  0.528100  0.556100  1
  H  H1401  1  0.663100  0.971900  0.943900  1
  H  H1402  1  0.421100  0.471900  0.443900  1
  H  H1403  1  0.257100  0.009800  0.120800  1
  H  H1404  1  0.612300  0.509800  0.620800  1
  H  H1405  1  0.742900  0.990200  0.879200  1
  H  H1406  1  0.387700  0.490200  0.379200  1
  H  H1407  1  0.448800  0.867200  0.929200  1
  H  H1408  1  0.754800  0.367200  0.429200  1
  H  H1409  1  0.551200  0.132800  0.070800  1
  H  H1410  1  0.245200  0.632800  0.570800  1
  H  H1411  1  0.522800  0.897100  0.899900  1
  H  H1412  1  0.680200  0.397100  0.399900  1
  H  H1413  1  0.477200  0.102900  0.100100  1
  H  H1414  1  0.319800  0.602900  0.600100  1
  H  H1415  1  0.522400  0.954600  0.931600  1
  H  H1416  1  0.591400  0.454600  0.431600  1
  H  H1417  1  0.477600  0.045400  0.068400  1
  H  H1418  1  0.408600  0.545400  0.568400  1
  H  H1419  1  0.443500  0.984100  0.996100  1
  H  H1420  1  0.576300  0.484100  0.496100  1
  H  H1421  1  0.556500  0.015900  0.003900  1
  H  H1422  1  0.423700  0.515900  0.503900  1
  H  H1423  1  0.305700  0.800900  0.100100  1
  H  H1424  1  0.793300  0.300900  0.600100  1
  H  H1425  1  0.694300  0.199100  0.899900  1
  H  H1426  1  0.206700  0.699100  0.399900  1
  H  H1427  1  0.228600  0.763900  0.136700  1
  H  H1428  1  0.870800  0.263900  0.636700  1
  H  H1429  1  0.771400  0.236100  0.863300  1
  H  H1430  1  0.129200  0.736100  0.363300  1
  H  H1431  1  0.151400  0.789300  0.108300  1
  H  H1432  1  0.951000  0.289300  0.608300  1
  H  H1433  1  0.848600  0.210700  0.891700  1
  H  H1434  1  0.049000  0.710700  0.391700  1
  H  H1435  1  0.141900  0.851300  0.055500  1
  H  H1436  1  0.951300  0.351300  0.555500  1
  H  H1437  1  0.858100  0.148700  0.944500  1
  H  H1438  1  0.048700  0.648700  0.444500  1
  H  H1439  1  0.181700  0.972100  0.932500  1
  H  H1440  1  0.913700  0.472100  0.432500  1
  H  H1441  1  0.818300  0.027900  0.067500  1
  H  H1442  1  0.086300  0.527900  0.567500  1
  H  H1443  1  0.137200  0.927100  0.993300  1
  H  H1444  1  0.942400  0.427100  0.493300  1
  H  H1445  1  0.862800  0.072900  0.006700  1
  H  H1446  1  0.057600  0.572900  0.506700  1
  H  H1447  1  0.285700  0.979500  0.898300  1
  H  H1448  1  0.836500  0.479500  0.398300  1
  H  H1449  1  0.714300  0.020500  0.101700  1
  H  H1450  1  0.163500  0.520500  0.601700  1
  H  H1451  1  0.335100  0.943500  0.920300  1
  H  H1452  1  0.801100  0.443500  0.420300  1
  H  H1453  1  0.664900  0.056500  0.079700  1
  H  H1454  1  0.198900  0.556500  0.579700  1
  H  H1455  1  0.208500  0.025200  0.992400  1
  H  H1456  1  0.773900  0.525200  0.492400  1
  H  H1457  1  0.791500  0.974800  0.007600  1
  H  H1458  1  0.226100  0.474800  0.507600  1
  H  H1459  1  0.288800  0.119600  0.979400  1
  H  H1460  1  0.612200  0.619600  0.479400  1
  H  H1461  1  0.711200  0.880400  0.020600  1
  H  H1462  1  0.387800  0.380400  0.520600  1
  H  H1463  1  0.374600  0.075900  0.920700  1
  H  H1464  1  0.628800  0.575900  0.420700  1
  H  H1465  1  0.625400  0.924100  0.079300  1
  H  H1466  1  0.371200  0.424100  0.579300  1
  H  H1467  1  0.377600  0.007400  0.901200  1
  H  H1468  1  0.713800  0.507400  0.401200  1
  H  H1469  1  0.622400  0.992600  0.098800  1
  H  H1470  1  0.286200  0.492600  0.598800  1
  H  H1471  1  0.228400  0.123500  0.050300  1
  H  H1472  1  0.597800  0.623500  0.550300  1
  H  H1473  1  0.771600  0.876500  0.949700  1
  H  H1474  1  0.402200  0.376500  0.449700  1
  H  H1475  1  0.051100  0.171500  0.108100  1
  H  H1476  1  0.669300  0.671500  0.608100  1
  H  H1477  1  0.948900  0.828500  0.891900  1
  H  H1478  1  0.330700  0.328500  0.391900  1
  H  H1479  1  0.039100  0.132100  0.063100  1
  H  H1480  1  0.765700  0.632100  0.563100  1
  H  H1481  1  0.960900  0.867900  0.936900  1
  H  H1482  1  0.234300  0.367900  0.436900  1
  H  H1483  1  0.125200  0.093900  0.007500  1
  H  H1484  1  0.773400  0.593900  0.507500  1
  H  H1485  1  0.874800  0.906100  0.992500  1
  H  H1486  1  0.226600  0.406100  0.492500  1
  H  H1487  1  0.170600  0.145700  0.134500  1
  H  H1488  1  0.549200  0.645700  0.634500  1
  H  H1489  1  0.829400  0.854300  0.865500  1
  H  H1490  1  0.450800  0.354300  0.365500  1
  H  H1491  1  0.182100  0.188400  0.097400  1
  H  H1492  1  0.532100  0.688400  0.597400  1
  H  H1493  1  0.817900  0.811600  0.902600  1
  H  H1494  1  0.467900  0.311600  0.402600  1
  H  H1495  1  0.992100  0.245900  0.224900  1
  H  H1496  1  0.537100  0.745900  0.724900  1
  H  H1497  1  0.007900  0.754100  0.775100  1
  H  H1498  1  0.462900  0.254100  0.275100  1
  H  H1499  1  0.066600  0.165500  0.198700  1
  H  H1500  1  0.569200  0.665500  0.698700  1
  H  H1501  1  0.933400  0.834500  0.801300  1
  H  H1502  1  0.430800  0.334500  0.301300  1
  H  H1503  1  0.006700  0.411100  0.081700  1
  H  H1504  1  0.500500  0.911100  0.581700  1
  H  H1505  1  0.993300  0.588900  0.918300  1
  H  H1506  1  0.499500  0.088900  0.418300  1
  H  H1507  1  0.936000  0.460200  0.143000  1
  H  H1508  1  0.460800  0.960200  0.643000  1
  H  H1509  1  0.064000  0.539800  0.857000  1
  H  H1510  1  0.539200  0.039800  0.357000  1
  H  H1511  1  0.913200  0.418800  0.212200  1
  H  H1512  1  0.455800  0.918800  0.712200  1
  H  H1513  1  0.086800  0.581200  0.787800  1
  H  H1514  1  0.544200  0.081200  0.287800  1
  H  H1515  1  0.947700  0.338600  0.221600  1
  H  H1516  1  0.492100  0.838600  0.721600  1
  H  H1517  1  0.052300  0.661400  0.778400  1
  H  H1518  1  0.507900  0.161400  0.278400  1
  N  N1519  1  0.328100  0.241200  0.156000  1
  N  N1520  1  0.274700  0.741200  0.656000  1
  N  N1521  1  0.671900  0.758800  0.844000  1
  N  N1522  1  0.725300  0.258800  0.344000  1
  N  N1523  1  0.014400  0.858700  0.695100  1
  N  N1524  1  0.431800  0.358700  0.195100  1
  N  N1525  1  0.985600  0.141300  0.304900  1
  N  N1526  1  0.568200  0.641300  0.804900  1
  N  N1527  1  0.917100  0.914800  0.521000  1
  N  N1528  1  0.647100  0.414800  0.021000  1
  N  N1529  1  0.082900  0.085200  0.479000  1
  N  N1530  1  0.352900  0.585200  0.979000  1
  N  N1531  1  0.292000  0.868200  0.203600  1
  N  N1532  1  0.636200  0.368200  0.703600  1
  N  N1533  1  0.708000  0.131800  0.796400  1
  N  N1534  1  0.363800  0.631800  0.296400  1
  N  N1535  1  0.740600  0.856800  0.422000  1
  N  N1536  1  0.980600  0.356800  0.922000  1
  N  N1537  1  0.259400  0.143200  0.578000  1
  N  N1538  1  0.019400  0.643200  0.078000  1
  N  N1539  1  0.081600  0.361200  0.015000  1
  N  N1540  1  0.542200  0.861200  0.515000  1
  N  N1541  1  0.918400  0.638800  0.985000  1
  N  N1542  1  0.457800  0.138800  0.485000  1
  N  N1543  1  0.154000  0.328700  0.067300  1
  N  N1544  1  0.450000  0.828700  0.567300  1
  N  N1545  1  0.846000  0.671300  0.932700  1
  N  N1546  1  0.550000  0.171300  0.432700  1
  N  N1547  1  0.188000  0.320500  0.090700  1
  N  N1548  1  0.400800  0.820500  0.590700  1
  N  N1549  1  0.812000  0.679500  0.909300  1
  N  N1550  1  0.599200  0.179500  0.409300  1
  N  N1551  1  0.123200  0.071800  0.336200  1
  N  N1552  1  0.468800  0.571800  0.836200  1
  N  N1553  1  0.876800  0.928200  0.663800  1
  N  N1554  1  0.531200  0.428200  0.163800  1
  N  N1555  1  0.174800  0.046800  0.347400  1
  N  N1556  1  0.431000  0.546800  0.847400  1
  N  N1557  1  0.825200  0.953200  0.652600  1
  N  N1558  1  0.569000  0.453200  0.152600  1
  N  N1559  1  0.259400  0.991800  0.384200  1
  N  N1560  1  0.364600  0.491800  0.884200  1
  N  N1561  1  0.740600  0.008200  0.615800  1
  N  N1562  1  0.635400  0.508200  0.115800  1
  N  N1563  1  0.141800  0.257600  0.020800  1
  N  N1564  1  0.579800  0.757600  0.520800  1
  N  N1565  1  0.858200  0.742400  0.979200  1
  N  N1566  1  0.420200  0.242400  0.479200  1
  N  N1567  1  0.027700  0.281500  0.051500  1
  N  N1568  1  0.639300  0.781500  0.551500  1
  N  N1569  1  0.972300  0.718500  0.948500  1
  N  N1570  1  0.360700  0.218500  0.448500  1
  N  N1571  1  0.967100  0.290100  0.064500  1
  N  N1572  1  0.678300  0.790100  0.564500  1
  N  N1573  1  0.032900  0.709900  0.935500  1
  N  N1574  1  0.321700  0.209900  0.435500  1
  N  N1575  1  0.993900  0.993600  0.273200  1
  N  N1576  1  0.739300  0.493600  0.773200  1
  N  N1577  1  0.006100  0.006400  0.726800  1
  N  N1578  1  0.260700  0.506400  0.226800  1
  N  N1579  1  0.951100  0.973600  0.288400  1
  N  N1580  1  0.786900  0.473600  0.788400  1
  N  N1581  1  0.048900  0.026400  0.711600  1
  N  N1582  1  0.213100  0.526400  0.211600  1
  N  N1583  1  0.891700  0.913600  0.315000  1
  N  N1584  1  0.879700  0.413600  0.815000  1
  N  N1585  1  0.108300  0.086400  0.685000  1
  N  N1586  1  0.120300  0.586400  0.185000  1
  N  N1587  1  0.769200  0.995400  0.339600  1
  N  N1588  1  0.895800  0.495400  0.839600  1
  N  N1589  1  0.230800  0.004600  0.660400  1
  N  N1590  1  0.104200  0.504600  0.160400  1
  N  N1591  1  0.843900  0.989700  0.377300  1
  N  N1592  1  0.789100  0.489700  0.877300  1
  N  N1593  1  0.156100  0.010300  0.622700  1
  N  N1594  1  0.210900  0.510300  0.122700  1
  N  N1595  1  0.869600  0.988200  0.406200  1
  N  N1596  1  0.736000  0.488200  0.906200  1
  N  N1597  1  0.130400  0.011800  0.593800  1
  N  N1598  1  0.264000  0.511800  0.093800  1
  N  N1599  1  0.305200  0.950800  0.267600  1
  N  N1600  1  0.476400  0.450800  0.767600  1
  N  N1601  1  0.694800  0.049200  0.732400  1
  N  N1602  1  0.523600  0.549200  0.232400  1
  N  N1603  1  0.311900  0.983900  0.285500  1
  N  N1604  1  0.418700  0.483900  0.785500  1
  N  N1605  1  0.688100  0.016100  0.714500  1
  N  N1606  1  0.581300  0.516100  0.214500  1
  N  N1607  1  0.357200  0.028800  0.310200  1
  N  N1608  1  0.303800  0.528800  0.810200  1
  N  N1609  1  0.642800  0.971200  0.689800  1
  N  N1610  1  0.696200  0.471200  0.189800  1
  N  N1611  1  0.234600  0.104500  0.356900  1
  N  N1612  1  0.304000  0.604500  0.856900  1
  N  N1613  1  0.765400  0.895500  0.643100  1
  N  N1614  1  0.696000  0.395500  0.143100  1
  N  N1615  1  0.265400  0.098700  0.270300  1
  N  N1616  1  0.365600  0.598700  0.770300  1
  N  N1617  1  0.734600  0.901300  0.729700  1
  N  N1618  1  0.634400  0.401300  0.229700  1
  N  N1619  1  0.281200  0.107600  0.225800  1
  N  N1620  1  0.385400  0.607600  0.725800  1
  N  N1621  1  0.718800  0.892400  0.774200  1
  N  N1622  1  0.614600  0.392400  0.274200  1
  N  N1623  1  0.422000  0.806500  0.077100  1
  N  N1624  1  0.694400  0.306500  0.577100  1
  N  N1625  1  0.578000  0.193500  0.922900  1
  N  N1626  1  0.305600  0.693500  0.422900  1
  N  N1627  1  0.399900  0.818700  0.042900  1
  N  N1628  1  0.738500  0.318700  0.542900  1
  N  N1629  1  0.600100  0.181300  0.957100  1
  N  N1630  1  0.261500  0.681300  0.457100  1
  N  N1631  1  0.367600  0.821900  0.975700  1
  N  N1632  1  0.834800  0.321900  0.475700  1
  N  N1633  1  0.632400  0.178100  0.024300  1
  N  N1634  1  0.165200  0.678100  0.524300  1
  N  N1635  1  0.827600  0.066500  0.299500  1
  N  N1636  1  0.806400  0.566500  0.799500  1
  N  N1637  1  0.172400  0.933500  0.700500  1
  N  N1638  1  0.193600  0.433500  0.200500  1
  N  N1639  1  0.848600  0.008000  0.243400  1
  N  N1640  1  0.900000  0.508000  0.743400  1
  N  N1641  1  0.151400  0.992000  0.756600  1
  N  N1642  1  0.100000  0.492000  0.256600  1
  N  N1643  1  0.852700  0.984500  0.212700  1
  N  N1644  1  0.950100  0.484500  0.712700  1
  N  N1645  1  0.147300  0.015500  0.787300  1
  N  N1646  1  0.049900  0.515500  0.287300  1
  N  N1647  1  0.270600  0.951000  0.096200  1
  N  N1648  1  0.682200  0.451000  0.596200  1
  N  N1649  1  0.729400  0.049000  0.903800  1
  N  N1650  1  0.317800  0.549000  0.403800  1
  N  N1651  1  0.310400  0.932100  0.057700  1
  N  N1652  1  0.699800  0.432100  0.557700  1
  N  N1653  1  0.689600  0.067900  0.942300  1
  N  N1654  1  0.300200  0.567900  0.442300  1
  N  N1655  1  0.399200  0.904700  0.981700  1
  N  N1656  1  0.714400  0.404700  0.481700  1
  N  N1657  1  0.600800  0.095300  0.018300  1
  N  N1658  1  0.285600  0.595300  0.518300  1
  N  N1659  1  0.264700  0.846500  0.059300  1
  N  N1660  1  0.829500  0.346500  0.559300  1
  N  N1661  1  0.735300  0.153500  0.940700  1
  N  N1662  1  0.170500  0.653500  0.440700  1
  N  N1663  1  0.262400  0.916300  0.988700  1
  N  N1664  1  0.832600  0.416300  0.488700  1
  N  N1665  1  0.737600  0.083700  0.011300  1
  N  N1666  1  0.167400  0.583700  0.511300  1
  N  N1667  1  0.254600  0.947800  0.955400  1
  N  N1668  1  0.842200  0.447800  0.455400  1
  N  N1669  1  0.745400  0.052200  0.044600  1
  N  N1670  1  0.157800  0.552200  0.544600  1
  N  N1671  1  0.096100  0.208900  0.141900  1
  N  N1672  1  0.553100  0.708900  0.641900  1
  N  N1673  1  0.903900  0.791100  0.858100  1
  N  N1674  1  0.446900  0.291100  0.358100  1
  N  N1675  1  0.076300  0.255400  0.128600  1
  N  N1676  1  0.539700  0.755400  0.628600  1
  N  N1677  1  0.923700  0.744600  0.871400  1
  N  N1678  1  0.460300  0.244600  0.371400  1
  N  N1679  1  0.019000  0.349900  0.119700  1
  N  N1680  1  0.511400  0.849900  0.619700  1
  N  N1681  1  0.981000  0.650100  0.880300  1
  N  N1682  1  0.488600  0.150100  0.380300  1
  P  P1683  1  0.450800  0.645600  0.568000  1
  P  P1684  1  0.335600  0.145600  0.068000  1
  P  P1685  1  0.549200  0.354400  0.432000  1
  P  P1686  1  0.664400  0.854400  0.932000  1
  P  P1687  1  0.140500  0.874500  0.575100  1
  P  P1688  1  0.409900  0.374500  0.075100  1
  P  P1689  1  0.859500  0.125500  0.424900  1
  P  P1690  1  0.590100  0.625500  0.924900  1
  P  P1691  1  0.836400  0.373200  0.322400  1
  P  P1692  1  0.468000  0.873200  0.822400  1
  P  P1693  1  0.163600  0.626800  0.677600  1
  P  P1694  1  0.532000  0.126800  0.177600  1
  P  P1695  1  0.630400  0.959400  0.549600  1
  P  P1696  1  0.860600  0.459400  0.049600  1
  P  P1697  1  0.369600  0.040600  0.450400  1
  P  P1698  1  0.139400  0.540600  0.950400  1
  P  P1699  1  0.827900  0.250000  0.750000  1
  P  P1700  1  0.172100  0.750000  0.250000  1
  P  P1701  1  0.601200  0.548400  0.702000  1
  P  P1702  1  0.148400  0.048400  0.202000  1
  P  P1703  1  0.398800  0.451600  0.298000  1
  P  P1704  1  0.851600  0.951600  0.798000  1
