
#######################################################################
#
#                 Cambridge Crystallographic Data Centre
#                                CCDC 
#
#######################################################################
#
# If this CIF has been generated from an entry in the Cambridge 
# Structural Database, then it will include bibliographic, chemical, 
# crystal, experimental, refinement or atomic coordinate data resulting 
# from the CCDC's data processing and validation procedures.
#
#######################################################################

data_WAJNIF
_chemical_formula_moiety         
'C180 H144 Co4 N36 8+,5.5(F6 P1 1-),2.5(F1 1-),5(C2 H3 N1)'
_chemical_name_systematic        
"hexakis(\m~2~-3,3'-bis(3-(2-Pyridyl)pyrazolylmethyl)-1,1'-biphenyl)-tetra-cobalt(ii) hexafluorophosphate clathrate pentakis(hexafluorophosphate) difluoride acetonitrile solvate"
_symmetry_cell_setting           monoclinic
_symmetry_space_group_name_H-M   'C 2/c'
_symmetry_Int_Tables_number      15
_space_group_name_Hall           '-C 2yn'
loop_
_symmetry_equiv_pos_site_id
_symmetry_equiv_pos_as_xyz
1 x,y,z
2 1/2+x,1/2+y,z
3 x,-y,1/2+z
4 1/2+x,1/2-y,1/2+z
5 -x,-y,-z
6 1/2-x,1/2-y,-z
7 -x,y,1/2-z
8 1/2-x,1/2+y,1/2-z
_cell_length_a                   55.8(4)
_cell_length_b                   26.26(11)
_cell_length_c                   39.1(3)
_cell_angle_alpha                90
_cell_angle_beta                 129.0(2)
_cell_angle_gamma                90
_cell_volume                     44525.4
_exptl_crystal_colour            orange
_exptl_crystal_description       block
_cell_formula_units_Z            8
_exptl_crystal_recrystallization_method 'acetonitrile/diethyl ether'
loop_
_atom_site_label
_atom_site_type_symbol
_atom_site_fract_x
_atom_site_fract_y
_atom_site_fract_z
P1 P 0.1068(3) 0.4424(4) 0.5680(4)
F1 F 0.1009(4) 0.4886(8) 0.5368(6)
F2 F 0.0933(5) 0.4041(9) 0.5288(7)
F3 F 0.1204(5) 0.4817(8) 0.6069(7)
F4 F 0.1110(5) 0.3957(9) 0.5999(8)
F5 F 0.1412(6) 0.4337(9) 0.5840(8)
F6 F 0.0724(5) 0.4504(8) 0.5530(7)
P2 P 0.2248(3) 0.6347(9) 0.5751(5)
F7 F 0.2294(8) 0.5714(15) 0.5714(11)
F8 F 0.2198(6) 0.6953(12) 0.5784(9)
F9 F 0.2593(6) 0.6400(10) 0.6175(9)
F10 F 0.2143(6) 0.6197(10) 0.6024(9)
F11 F 0.1894(7) 0.6265(11) 0.5314(10)
F12 F 0.2331(7) 0.6380(13) 0.5460(11)
P3 P 0.8478(4) 0.3158(7) 0.3224(7)
F13 F 0.8588(8) 0.3753(14) 0.3341(11)
F14 F 0.8800(10) 0.3055(14) 0.3524(13)
F15 F 0.8322(8) 0.2632(13) 0.3057(11)
F16 F 0.8127(8) 0.3366(13) 0.2853(11)
F17 F 0.8460(8) 0.3197(13) 0.3613(12)
F18 F 0.8480(9) 0.3209(15) 0.2815(14)
P4 P 0.2545(4) 0.1151(6) 0.5496(6)
F19 F 0.2630(9) 0.0959(16) 0.5202(13)
F20 F 0.2630(11) 0.170(2) 0.5555(15)
F21 F 0.2945(9) 0.1083(14) 0.5854(12)
F22 F 0.2191(12) 0.1110(17) 0.5178(15)
F23 F 0.2581(10) 0.1145(18) 0.5950(16)
F24 F 0.2536(9) 0.0573(19) 0.5580(13)
P5 P 0.0000 0.1721(6) 0.7500
F25 F 0.0150(7) 0.2133(12) 0.7858(10)
F26 F 0.0182(5) 0.1290(9) 0.7871(8)
F27 F 0.0250(7) 0.1703(11) 0.7428(9)
F25F F -0.0150(7) 0.2133(12) 0.7142(10)
F26F F -0.0182(5) 0.1290(9) 0.7129(8)
F27F F -0.0250(7) 0.1703(11) 0.7572(9)
P6 P 0.1252(3) 0.2736(5) 0.7020(4)
F28 F 0.1045(5) 0.3194(9) 0.6940(7)
F29 F 0.1481(5) 0.3110(9) 0.7036(7)
F30 F 0.1075(6) 0.2730(10) 0.6485(9)
F31 F 0.0998(5) 0.2359(9) 0.6913(7)
F32 F 0.1454(5) 0.2285(10) 0.7063(8)
F33 F 0.1419(5) 0.2710(8) 0.7529(7)
N37 N 0.1986(9) 0.4733(15) 0.1560(14)
C181 C 0.1557(9) 0.4194(16) 0.0877(14)
C182 C 0.1805(12) 0.453(2) 0.1245(18)
N38 N 0.2769(10) 0.7087(15) 0.6951(13)
C183 C 0.2232(12) 0.6963(19) 0.6752(16)
C184 C 0.2534(11) 0.7047(15) 0.6882(13)
C195 C 0.202(2) 0.775(3) 0.501(3)
C196 C 0.218(2) 0.812(4) 0.502(3)
N39 N 0.2179(19) 0.865(3) 0.521(3)
N40 N 0.0359(8) 0.6721(14) 0.2036(13)
C197 C 0.0393(10) 0.6823(17) 0.2315(17)
C198 C 0.0447(12) 0.690(2) 0.2780(19)
C199 C 0.1616(17) 0.040(3) 0.461(2)
C200 C 0.1543(13) 0.085(2) 0.4404(19)
N41 N 0.1394(18) 0.120(3) 0.422(3)
Co1 Co 0.18323(11) 0.55138(17) 0.32383(16)
Co2 Co 0.18679(12) 0.73062(18) 0.06939(17)
Co3 Co -0.05214(11) 0.71875(17) 0.01915(17)
Co4 Co 0.14994(11) 0.99119(18) 0.30937(18)
N1 N 0.1881(7) 0.7303(15) 0.0150(11)
C1 C 0.1799(9) 0.7703(18) -0.0118(15)
H1 H 0.1777 0.8027 -0.0032
C2 C 0.1743(13) 0.766(3) -0.053(2)
H2 H 0.1678 0.7933 -0.0731
C3 C 0.1796(15) 0.717(3) -0.059(2)
H3 H 0.1743 0.7092 -0.0867
C4 C 0.1922(12) 0.675(2) -0.0280(19)
H4 H 0.1999 0.6450 -0.0312
C5 C 0.1921(10) 0.683(2) 0.0056(17)
C6 C 0.2014(8) 0.6435(16) 0.0358(13)
N2 N 0.1980(6) 0.6480(11) 0.0673(9)
N3 N 0.2056(7) 0.6064(12) 0.0907(10)
C7 C 0.2120(9) 0.5753(18) 0.0705(14)
H5 H 0.2180 0.5410 0.0798
C8 C 0.2100(9) 0.5940(17) 0.0358(14)
H6 H 0.2134 0.5779 0.0174
C9 C 0.2066(8) 0.6041(14) 0.1268(11)
H7 H 0.2019 0.5686 0.1294
H8 H 0.1897 0.6257 0.1205
C10 C 0.2366(9) 0.6201(14) 0.1720(13)
C11 C 0.2362(8) 0.6232(13) 0.2044(12)
H9 H 0.2177 0.6158 0.2000
C12 C 0.2633(8) 0.6379(12) 0.2473(11)
C13 C 0.2901(8) 0.6447(12) 0.2491(11)
H10 H 0.3089 0.6531 0.2770
C14 C 0.2909(9) 0.6406(13) 0.2162(12)
H11 H 0.3091 0.6467 0.2194
C15 C 0.2634(8) 0.6269(13) 0.1769(12)
H12 H 0.2625 0.6219 0.1521
C16 C 0.2624(8) 0.6429(14) 0.2828(12)
C17 C 0.2367(8) 0.6541(12) 0.2795(11)
H13 H 0.2180 0.6578 0.2503
C18 C 0.2339(7) 0.6602(11) 0.3099(10)
C19 C 0.2629(8) 0.6513(13) 0.3565(12)
H14 H 0.2628 0.6557 0.3805
C20 C 0.2888(8) 0.6372(12) 0.3634(12)
H15 H 0.3068 0.6307 0.3927
C21 C 0.2902(9) 0.6323(14) 0.3329(13)
H16 H 0.3092 0.6215 0.3403
C22 C 0.2060(8) 0.6730(13) 0.3024(11)
H17 H 0.2000 0.7075 0.2894
H18 H 0.1899 0.6494 0.2795
N4 N 0.2040(6) 0.6728(10) 0.3362(9)
N5 N 0.1971(6) 0.6281(11) 0.3474(9)
C23 C 0.2014(8) 0.6362(14) 0.3850(12)
C24 C 0.2123(8) 0.6881(14) 0.4005(13)
H19 H 0.2172 0.7030 0.4263
C25 C 0.2143(8) 0.7108(15) 0.3723(12)
H20 H 0.2210 0.7447 0.3742
N6 N 0.1880(6) 0.5526(11) 0.3842(8)
C26 C 0.1967(8) 0.6002(14) 0.4054(12)
C27 C 0.1988(8) 0.6039(16) 0.4415(13)
H21 H 0.2043 0.6356 0.4564
C28 C 0.1927(9) 0.5601(17) 0.4584(14)
H22 H 0.1944 0.5634 0.4840
C29 C 0.1843(8) 0.5131(16) 0.4363(13)
H23 H 0.1808 0.4835 0.4465
C30 C 0.1817(8) 0.5130(15) 0.3998(12)
H24 H 0.1748 0.4823 0.3833
N7 N 0.1392(6) 0.7190(12) 0.0208(9)
C31 C 0.1253(9) 0.6736(15) 0.0025(13)
H25 H 0.1369 0.6435 0.0172
C32 C 0.0973(10) 0.6683(17) -0.0335(14)
H26 H 0.0893 0.6352 -0.0452
C33 C 0.0780(9) 0.7130(16) -0.0562(13)
H27 H 0.0571 0.7098 -0.0819
C34 C 0.0905(10) 0.7579(17) -0.0398(14)
H28 H 0.0791 0.7883 -0.0537
C35 C 0.1202(11) 0.7595(17) -0.0021(15)
C36 C 0.1384(11) 0.8049(18) 0.0193(16)
N8 N 0.1665(7) 0.8058(11) 0.0515(10)
N9 N 0.1773(7) 0.8556(12) 0.0645(10)
C37 C 0.1509(10) 0.8841(18) 0.0304(14)
H29 H 0.1515 0.9197 0.0267
C38 C 0.1248(11) 0.8558(18) 0.0038(15)
H30 H 0.1040 0.8660 -0.0182
C39 C 0.2083(9) 0.8702(16) 0.1017(13)
H31 H 0.2224 0.8426 0.1070
H32 H 0.2138 0.9009 0.0932
C40 C 0.2144(9) 0.8807(14) 0.1419(13)
C41 C 0.1909(9) 0.8869(13) 0.1460(12)
H33 H 0.1703 0.8845 0.1194
C42 C 0.1941(8) 0.8961(13) 0.1839(12)
C43 C 0.2252(8) 0.8992(14) 0.2226(13)
H34 H 0.2305 0.9047 0.2506
C44 C 0.2491(10) 0.8931(16) 0.2168(15)
H35 H 0.2698 0.8979 0.2426
C45 C 0.2450(9) 0.8814(13) 0.1788(13)
H36 H 0.2615 0.8746 0.1783
C46 C 0.1713(8) 0.9022(13) 0.1889(12)
C47 C 0.1743(7) 0.8853(11) 0.2239(10)
H37 H 0.1935 0.8708 0.2474
C48 C 0.1524(8) 0.8873(12) 0.2287(11)
C49 C 0.1232(8) 0.9059(12) 0.1918(11)
H38 H 0.1063 0.9076 0.1921
C50 C 0.1205(9) 0.9201(13) 0.1589(12)
H39 H 0.1007 0.9318 0.1344
C51 C 0.1423(8) 0.9207(13) 0.1542(12)
H40 H 0.1381 0.9333 0.1282
C52 C 0.1571(7) 0.8662(13) 0.2676(11)
H41 H 0.1607 0.8292 0.2682
H42 H 0.1765 0.8810 0.2939
N10 N 0.1334(7) 0.8727(12) 0.2732(9)
N11 N 0.1310(6) 0.9179(10) 0.2884(8)
C53 C 0.1077(8) 0.9117(14) 0.2904(11)
C54 C 0.0938(8) 0.8618(13) 0.2711(11)
H43 H 0.0762 0.8468 0.2659
C55 C 0.1118(9) 0.8424(16) 0.2627(12)
H44 H 0.1089 0.8097 0.2502
N12 N 0.1143(6) 0.9940(12) 0.3150(9)
C56 C 0.1081(9) 1.0303(16) 0.3317(12)
H45 H 0.1196 1.0609 0.3404
C57 C 0.0866(9) 1.0277(17) 0.3375(12)
H46 H 0.0820 1.0561 0.3476
C58 C 0.0718(9) 0.9822(16) 0.3282(12)
H47 H 0.0574 0.9773 0.3333
C59 C 0.0780(8) 0.9442(14) 0.3117(11)
H48 H 0.0671 0.9129 0.3039
C60 C 0.0990(8) 0.9496(14) 0.3060(11)
N13 N 0.1675(7) 1.0633(12) 0.3396(11)
C61 C 0.1589(8) 1.1068(15) 0.3176(13)
H49 H 0.1450 1.1058 0.2864
C62 C 0.1699(9) 1.1565(16) 0.3397(13)
H50 H 0.1624 1.1881 0.3246
C63 C 0.1915(9) 1.1524(16) 0.3831(13)
H51 H 0.2001 1.1837 0.3983
C64 C 0.2030(9) 1.1111(16) 0.4084(14)
H52 H 0.2189 1.1120 0.4393
C65 C 0.1880(9) 1.0628(16) 0.3827(14)
C66 C 0.2000(9) 1.0127(16) 0.4070(14)
N14 N 0.1835(7) 0.9726(12) 0.3773(10)
N15 N 0.1972(6) 0.9332(11) 0.4062(10)
C67 C 0.2185(9) 0.9463(16) 0.4481(14)
H53 H 0.2299 0.9236 0.4724
C68 C 0.2210(9) 0.9996(16) 0.4500(13)
H54 H 0.2341 1.0210 0.4749
C69 C 0.1882(9) 0.8783(14) 0.3898(12)
H55 H 0.1809 0.8765 0.3593
H56 H 0.2065 0.8562 0.4084
C70 C 0.1647(9) 0.8601(15) 0.3907(12)
C71 C 0.1569(8) 0.8079(13) 0.3761(11)
H57 H 0.1666 0.7909 0.3662
C72 C 0.1353(8) 0.7826(14) 0.3766(11)
C73 C 0.1189(10) 0.8056(17) 0.3861(14)
H58 H 0.1031 0.7884 0.3841
C74 C 0.1265(10) 0.8576(18) 0.3996(14)
H59 H 0.1157 0.8752 0.4074
C75 C 0.1503(9) 0.8847(16) 0.4018(12)
H60 H 0.1551 0.9192 0.4110
C76 C 0.1289(8) 0.7217(15) 0.3681(13)
C77 C 0.1270(8) 0.7100(14) 0.3309(12)
H61 H 0.1296 0.7351 0.3160
C78 C 0.1205(8) 0.6560(15) 0.3169(12)
C79 C 0.1200(8) 0.6257(15) 0.3456(12)
H62 H 0.1176 0.5902 0.3399
C80 C 0.1225(7) 0.6409(14) 0.3811(12)
H63 H 0.1201 0.6169 0.3969
C81 C 0.1287(8) 0.6929(14) 0.3944(13)
H64 H 0.1322 0.7051 0.4201
C82 C 0.1168(8) 0.6396(13) 0.2773(11)
H65 H 0.1002 0.6600 0.2517
H66 H 0.1361 0.6464 0.2821
N16 N 0.1092(6) 0.5856(11) 0.2676(9)
N17 N 0.1347(6) 0.5534(10) 0.2855(8)
C83 C 0.1199(8) 0.5051(13) 0.2775(11)
C84 C 0.0888(8) 0.5135(14) 0.2544(11)
H67 H 0.0740 0.4870 0.2432
C85 C 0.0816(8) 0.5656(13) 0.2493(11)
H68 H 0.0625 0.5820 0.2363
N18 N 0.1695(8) 0.4733(12) 0.3102(10)
C86 C 0.1885(10) 0.4365(18) 0.3228(13)
H69 H 0.2096 0.4451 0.3394
C87 C 0.1807(11) 0.3839(18) 0.3142(14)
H70 H 0.1945 0.3579 0.3195
C88 C 0.1496(11) 0.3749(19) 0.2968(14)
H71 H 0.1430 0.3408 0.2941
C89 C 0.1290(10) 0.4138(17) 0.2839(13)
H72 H 0.1081 0.4071 0.2707
C90 C 0.1397(8) 0.4619(14) 0.2907(11)
N19 N 0.2307(7) 0.5347(11) 0.3569(11)
C91 C 0.2536(9) 0.5334(13) 0.4014(13)
H73 H 0.2490 0.5398 0.4207
C92 C 0.2849(10) 0.5223(16) 0.4190(15)
H74 H 0.3012 0.5212 0.4498
C93 C 0.2902(9) 0.5135(14) 0.3908(13)
H75 H 0.3109 0.5066 0.4031
C94 C 0.2678(8) 0.5134(13) 0.3437(12)
H76 H 0.2717 0.5060 0.3238
C95 C 0.2384(8) 0.5267(13) 0.3321(12)
C96 C 0.2123(8) 0.5312(12) 0.2814(12)
N20 N 0.1845(6) 0.5501(9) 0.2703(8)
N21 N 0.1667(6) 0.5521(9) 0.2258(9)
C97 C 0.1794(8) 0.5353(12) 0.2097(12)
H77 H 0.1697 0.5324 0.1793
C98 C 0.2099(8) 0.5219(13) 0.2447(12)
H78 H 0.2253 0.5094 0.2434
C99 C 0.1342(7) 0.5691(13) 0.2011(11)
H79 H 0.1285 0.5905 0.1761
H80 H 0.1331 0.5910 0.2207
C100 C 0.1101(7) 0.5274(12) 0.1831(10)
C101 C 0.0797(8) 0.5416(15) 0.1582(11)
H81 H 0.0745 0.5767 0.1528
C102 C 0.0563(9) 0.5058(15) 0.1407(12)
C103 C 0.0649(8) 0.4542(13) 0.1510(10)
H82 H 0.0496 0.4289 0.1408
C104 C 0.0962(9) 0.4398(16) 0.1764(12)
H83 H 0.1016 0.4049 0.1833
C105 C 0.1202(7) 0.4772(11) 0.1921(9)
H84 H 0.1412 0.4681 0.2073
C106 C 0.0239(7) 0.5231(13) 0.1145(10)
C107 C 0.0137(8) 0.5626(14) 0.1220(11)
H85 H 0.0285 0.5827 0.1471
C108 C -0.0168(8) 0.5781(14) 0.0967(11)
C109 C -0.0379(8) 0.5470(13) 0.0623(11)
H86 H -0.0593 0.5543 0.0445
C110 C -0.0275(8) 0.5050(14) 0.0539(11)
H87 H -0.0426 0.4835 0.0302
C111 C 0.0021(8) 0.4917(13) 0.0761(11)
H88 H 0.0083 0.4642 0.0675
C112 C -0.0241(7) 0.6232(13) 0.1098(11)
H89 H -0.0118 0.6523 0.1121
H90 H -0.0183 0.6175 0.1392
N22 N -0.0582(6) 0.6362(11) 0.0771(9)
N23 N -0.0692(6) 0.6693(10) 0.0429(9)
C113 C -0.0988(8) 0.6717(13) 0.0234(11)
C114 C -0.1083(9) 0.6376(13) 0.0403(11)
H91 H -0.1287 0.6303 0.0297
C115 C -0.0802(9) 0.6168(15) 0.0771(13)
H92 H -0.0775 0.5935 0.0978
N24 N -0.1012(6) 0.7336(10) -0.0243(8)
C116 C -0.1150(8) 0.7666(14) -0.0557(12)
H93 H -0.1044 0.7845 -0.0637
C117 C -0.1481(8) 0.7757(15) -0.0788(12)
H94 H -0.1586 0.8002 -0.1018
C118 C -0.1634(10) 0.7513(15) -0.0688(13)
H95 H -0.1846 0.7582 -0.0835
C119 C -0.1484(9) 0.7172(14) -0.0377(12)
H96 H -0.1589 0.6980 -0.0302
C120 C -0.1166(8) 0.7083(13) -0.0150(11)
N25 N 0.1830(6) 0.9894(10) 0.2995(9)
C121 C 0.2130(8) 0.9693(13) 0.3315(11)
C122 C 0.2330(9) 0.9731(14) 0.3220(12)
H97 H 0.2536 0.9613 0.3430
C123 C 0.2239(8) 0.9936(13) 0.2827(11)
H98 H 0.2375 0.9941 0.2759
C124 C 0.1939(8) 1.0135(13) 0.2532(12)
H99 H 0.1878 1.0299 0.2272
C125 C 0.1734(8) 1.0096(13) 0.2611(12)
C126 C 0.1433(8) 1.0289(12) 0.2340(11)
N26 N 0.1257(6) 1.0257(10) 0.2434(8)
N27 N 0.0986(7) 1.0487(11) 0.2127(10)
C127 C 0.1018(11) 1.0605(18) 0.1830(16)
H100 H 0.0855 1.0760 0.1559
C128 C 0.1277(9) 1.0500(15) 0.1923(13)
H101 H 0.1344 1.0551 0.1754
C129 C 0.0744(9) 1.0539(15) 0.2137(13)
H102 H 0.0613 1.0824 0.1940
H103 H 0.0831 1.0642 0.2439
C130 C 0.0535(9) 1.0083(16) 0.2011(13)
C131 C 0.0543(9) 0.9703(15) 0.1758(12)
H104 H 0.0666 0.9746 0.1669
C132 C 0.0356(8) 0.9244(15) 0.1638(12)
C133 C 0.0188(9) 0.9227(16) 0.1787(13)
H105 H 0.0055 0.8943 0.1700
C134 C 0.0196(10) 0.9610(18) 0.2070(15)
H106 H 0.0075 0.9571 0.2162
C135 C 0.0387(9) 1.0027(17) 0.2196(13)
H107 H 0.0416 1.0268 0.2401
C136 C 0.0353(8) 0.8848(15) 0.1343(12)
C137 C 0.0328(7) 0.8342(14) 0.1421(11)
H108 H 0.0324 0.8252 0.1652
C138 C 0.0311(7) 0.7992(13) 0.1165(11)
C139 C 0.0332(8) 0.8101(16) 0.0863(13)
H109 H 0.0334 0.7834 0.0700
C140 C 0.0352(8) 0.8602(15) 0.0775(12)
H110 H 0.0352 0.8688 0.0538
C141 C 0.0372(8) 0.8974(15) 0.1042(12)
H111 H 0.0399 0.9320 0.1004
C142 C 0.0281(8) 0.7425(13) 0.1255(11)
H112 H 0.0470 0.7334 0.1553
H113 H 0.0106 0.7403 0.1261
N28 N 0.0236(8) 0.7058(12) 0.0962(11)
N29 N -0.0051(7) 0.6947(12) 0.0577(11)
C143 C -0.0019(8) 0.6559(14) 0.0384(12)
C144 C 0.0323(9) 0.6436(15) 0.0628(12)
H114 H 0.0421 0.6210 0.0561
C145 C 0.0438(10) 0.6760(16) 0.0971(14)
H115 H 0.0653 0.6776 0.1208
N30 N -0.0568(7) 0.6576(10) -0.0183(9)
C146 C -0.0827(10) 0.6357(16) -0.0562(13)
H116 H -0.1018 0.6530 -0.0708
C147 C -0.0827(11) 0.5915(19) -0.0742(15)
H117 H -0.1015 0.5787 -0.1001
C148 C -0.0566(9) 0.5658(16) -0.0559(13)
H118 H -0.0569 0.5345 -0.0684
C149 C -0.0285(10) 0.5850(17) -0.0180(14)
H119 H -0.0099 0.5664 -0.0039
C150 C -0.0288(9) 0.6339(16) -0.0010(13)
N31 N -0.0471(6) 0.7824(11) 0.0593(9)
C151 C -0.0487(7) 0.7768(14) 0.0909(11)
H120 H -0.0495 0.7438 0.1001
C152 C -0.0494(8) 0.8237(15) 0.1127(13)
H121 H -0.0497 0.8211 0.1367
C153 C -0.0496(9) 0.8694(17) 0.0968(14)
H122 H -0.0512 0.8998 0.1083
C154 C -0.0474(8) 0.8717(15) 0.0648(12)
H123 H -0.0466 0.9047 0.0555
C155 C -0.0462(8) 0.8264(15) 0.0416(13)
C156 C -0.0456(9) 0.8288(17) 0.0086(14)
N32 N -0.0475(6) 0.7851(12) -0.0113(10)
N33 N -0.0484(6) 0.7938(12) -0.0446(11)
C157 C -0.0466(8) 0.8476(15) -0.0455(13)
H124 H -0.0477 0.8660 -0.0675
C158 C -0.0433(8) 0.8674(17) -0.0141(13)
H125 H -0.0398 0.9026 -0.0067
C159 C -0.0527(8) 0.7583(14) -0.0736(12)
H126 H -0.0611 0.7754 -0.1017
H127 H -0.0681 0.7330 -0.0797
C160 C -0.0243(9) 0.7315(16) -0.0576(13)
C161 C 0.0066(8) 0.7529(14) -0.0232(11)
H128 H 0.0088 0.7827 -0.0076
C162 C 0.0321(8) 0.7296(14) -0.0139(11)
C163 C 0.0312(9) 0.6795(15) -0.0310(12)
H129 H 0.0495 0.6617 -0.0206
C164 C 0.0003(9) 0.6582(16) -0.0653(12)
H130 H -0.0017 0.6271 -0.0793
C165 C -0.0261(9) 0.6831(14) -0.0773(12)
H131 H -0.0457 0.6681 -0.0988
C166 C 0.0635(8) 0.7527(14) 0.0204(12)
C167 C 0.0894(8) 0.7206(15) 0.0515(11)
H132 H 0.0869 0.6847 0.0503
C168 C 0.1170(8) 0.7415(14) 0.0822(12)
C169 C 0.1200(8) 0.7950(14) 0.0861(11)
H133 H 0.1398 0.8091 0.1081
C170 C 0.0958(8) 0.8273(15) 0.0596(11)
H134 H 0.0976 0.8633 0.0631
C171 C 0.0681(10) 0.8029(17) 0.0270(14)
H135 H 0.0507 0.8241 0.0075
C172 C 0.1435(8) 0.7036(15) 0.1145(13)
H136 H 0.1401 0.6893 0.1345
H137 H 0.1429 0.6750 0.0974
N34 N 0.1754(7) 0.7285(11) 0.1419(9)
N35 N 0.1920(6) 0.7317(10) 0.1286(9)
C173 C 0.2199(8) 0.7498(13) 0.1643(12)
C174 C 0.2188(8) 0.7594(12) 0.1968(11)
H138 H 0.2354 0.7725 0.2249
C175 C 0.1900(7) 0.7474(11) 0.1832(10)
H139 H 0.1821 0.7513 0.1987
N36 N 0.2348(6) 0.7462(10) 0.1197(9)
C176 C 0.2537(8) 0.7503(13) 0.1110(12)
H140 H 0.2464 0.7469 0.0817
C177 C 0.2868(9) 0.7603(14) 0.1476(13)
H141 H 0.3016 0.7624 0.1430
C178 C 0.2945(8) 0.7661(12) 0.1875(12)
H142 H 0.3155 0.7713 0.2122
C179 C 0.2736(9) 0.7647(13) 0.1932(13)
H143 H 0.2801 0.7722 0.2216
C180 C 0.2433(8) 0.7533(13) 0.1609(12)
loop_
_geom_bond_atom_site_label_1
_geom_bond_atom_site_label_2
_geom_bond_site_symmetry_1
_geom_bond_site_symmetry_2
Co1 N5 1_555 1_555
Co2 N1 1_555 1_555
Co3 N23 1_555 1_555
Co4 N11 1_555 1_555
P1 F1 1_555 1_555
P2 F7 1_555 1_555
P3 F13 1_555 1_555
P4 F19 1_555 1_555
P5 F25 1_555 1_555
P6 F28 1_555 1_555
F2 P1 1_555 1_555
F3 P1 1_555 1_555
F4 P1 1_555 1_555
F5 P1 1_555 1_555
F6 P1 1_555 1_555
F8 P2 1_555 1_555
F9 P2 1_555 1_555
F10 P2 1_555 1_555
F11 P2 1_555 1_555
F12 P2 1_555 1_555
F14 P3 1_555 1_555
F15 P3 1_555 1_555
F16 P3 1_555 1_555
F17 P3 1_555 1_555
F18 P3 1_555 1_555
F20 P4 1_555 1_555
F21 P4 1_555 1_555
F22 P4 1_555 1_555
F23 P4 1_555 1_555
F24 P4 1_555 1_555
F26 P5 1_555 1_555
F27 P5 1_555 1_555
F29 P6 1_555 1_555
F30 P6 1_555 1_555
F31 P6 1_555 1_555
F32 P6 1_555 1_555
F33 P6 1_555 1_555
N1 C1 1_555 1_555
C1 H1 1_555 1_555
C2 C1 1_555 1_555
H2 C2 1_555 1_555
C3 C2 1_555 1_555
H3 C3 1_555 1_555
C4 C3 1_555 1_555
H4 C4 1_555 1_555
C5 N1 1_555 1_555
C6 C5 1_555 1_555
N2 Co2 1_555 1_555
N3 N2 1_555 1_555
C7 N3 1_555 1_555
H5 C7 1_555 1_555
C8 C6 1_555 1_555
H6 C8 1_555 1_555
C9 N3 1_555 1_555
H7 C9 1_555 1_555
H8 C9 1_555 1_555
C10 C9 1_555 1_555
C11 C10 1_555 1_555
H9 C11 1_555 1_555
C12 C11 1_555 1_555
C13 C12 1_555 1_555
H10 C13 1_555 1_555
C14 C13 1_555 1_555
H11 C14 1_555 1_555
C15 C10 1_555 1_555
H12 C15 1_555 1_555
C16 C12 1_555 1_555
C17 C16 1_555 1_555
H13 C17 1_555 1_555
C18 C17 1_555 1_555
C19 C18 1_555 1_555
H14 C19 1_555 1_555
C20 C19 1_555 1_555
H15 C20 1_555 1_555
C21 C16 1_555 1_555
H16 C21 1_555 1_555
C22 C18 1_555 1_555
H17 C22 1_555 1_555
H18 C22 1_555 1_555
N4 C22 1_555 1_555
N5 N4 1_555 1_555
C23 N5 1_555 1_555
C24 C23 1_555 1_555
H19 C24 1_555 1_555
C25 N4 1_555 1_555
H20 C25 1_555 1_555
N6 Co1 1_555 1_555
C26 C23 1_555 1_555
C27 C26 1_555 1_555
H21 C27 1_555 1_555
C28 C27 1_555 1_555
H22 C28 1_555 1_555
C29 C28 1_555 1_555
H23 C29 1_555 1_555
C30 N6 1_555 1_555
H24 C30 1_555 1_555
N7 Co2 1_555 1_555
C31 N7 1_555 1_555
H25 C31 1_555 1_555
C32 C31 1_555 1_555
H26 C32 1_555 1_555
C33 C32 1_555 1_555
H27 C33 1_555 1_555
C34 C33 1_555 1_555
H28 C34 1_555 1_555
C35 N7 1_555 1_555
C36 C35 1_555 1_555
N8 Co2 1_555 1_555
N9 N8 1_555 1_555
C37 N9 1_555 1_555
H29 C37 1_555 1_555
C38 C36 1_555 1_555
H30 C38 1_555 1_555
C39 N9 1_555 1_555
H31 C39 1_555 1_555
H32 C39 1_555 1_555
C40 C39 1_555 1_555
C41 C40 1_555 1_555
H33 C41 1_555 1_555
C42 C41 1_555 1_555
C43 C42 1_555 1_555
H34 C43 1_555 1_555
C44 C43 1_555 1_555
H35 C44 1_555 1_555
C45 C40 1_555 1_555
H36 C45 1_555 1_555
C46 C42 1_555 1_555
C47 C46 1_555 1_555
H37 C47 1_555 1_555
C48 C47 1_555 1_555
C49 C48 1_555 1_555
H38 C49 1_555 1_555
C50 C49 1_555 1_555
H39 C50 1_555 1_555
C51 C46 1_555 1_555
H40 C51 1_555 1_555
C52 C48 1_555 1_555
H41 C52 1_555 1_555
H42 C52 1_555 1_555
N10 C52 1_555 1_555
N11 N10 1_555 1_555
C53 N11 1_555 1_555
C54 C53 1_555 1_555
H43 C54 1_555 1_555
C55 N10 1_555 1_555
H44 C55 1_555 1_555
N12 Co4 1_555 1_555
C56 N12 1_555 1_555
H45 C56 1_555 1_555
C57 C56 1_555 1_555
H46 C57 1_555 1_555
C58 C57 1_555 1_555
H47 C58 1_555 1_555
C59 C58 1_555 1_555
H48 C59 1_555 1_555
C60 C53 1_555 1_555
N13 Co4 1_555 1_555
C61 N13 1_555 1_555
H49 C61 1_555 1_555
C62 C61 1_555 1_555
H50 C62 1_555 1_555
C63 C62 1_555 1_555
H51 C63 1_555 1_555
C64 C63 1_555 1_555
H52 C64 1_555 1_555
C65 N13 1_555 1_555
C66 C65 1_555 1_555
N14 Co4 1_555 1_555
N15 N14 1_555 1_555
C67 N15 1_555 1_555
H53 C67 1_555 1_555
C68 C66 1_555 1_555
H54 C68 1_555 1_555
C69 N15 1_555 1_555
H55 C69 1_555 1_555
H56 C69 1_555 1_555
C70 C69 1_555 1_555
C71 C70 1_555 1_555
H57 C71 1_555 1_555
C72 C71 1_555 1_555
C73 C72 1_555 1_555
H58 C73 1_555 1_555
C74 C73 1_555 1_555
H59 C74 1_555 1_555
C75 C70 1_555 1_555
H60 C75 1_555 1_555
C76 C72 1_555 1_555
C77 C76 1_555 1_555
H61 C77 1_555 1_555
C78 C77 1_555 1_555
C79 C78 1_555 1_555
H62 C79 1_555 1_555
C80 C79 1_555 1_555
H63 C80 1_555 1_555
C81 C76 1_555 1_555
H64 C81 1_555 1_555
C82 C78 1_555 1_555
H65 C82 1_555 1_555
H66 C82 1_555 1_555
N16 C82 1_555 1_555
N17 Co1 1_555 1_555
C83 N17 1_555 1_555
C84 C83 1_555 1_555
H67 C84 1_555 1_555
C85 N16 1_555 1_555
H68 C85 1_555 1_555
N18 Co1 1_555 1_555
C86 N18 1_555 1_555
H69 C86 1_555 1_555
C87 C86 1_555 1_555
H70 C87 1_555 1_555
C88 C87 1_555 1_555
H71 C88 1_555 1_555
C89 C88 1_555 1_555
H72 C89 1_555 1_555
C90 C83 1_555 1_555
N19 Co1 1_555 1_555
C91 N19 1_555 1_555
H73 C91 1_555 1_555
C92 C91 1_555 1_555
H74 C92 1_555 1_555
C93 C92 1_555 1_555
H75 C93 1_555 1_555
C94 C93 1_555 1_555
H76 C94 1_555 1_555
C95 N19 1_555 1_555
C96 C95 1_555 1_555
N20 Co1 1_555 1_555
N21 N20 1_555 1_555
C97 N21 1_555 1_555
H77 C97 1_555 1_555
C98 C96 1_555 1_555
H78 C98 1_555 1_555
C99 N21 1_555 1_555
H79 C99 1_555 1_555
H80 C99 1_555 1_555
C100 C99 1_555 1_555
C101 C100 1_555 1_555
H81 C101 1_555 1_555
C102 C101 1_555 1_555
C103 C102 1_555 1_555
H82 C103 1_555 1_555
C104 C103 1_555 1_555
H83 C104 1_555 1_555
C105 C100 1_555 1_555
H84 C105 1_555 1_555
C106 C102 1_555 1_555
C107 C106 1_555 1_555
H85 C107 1_555 1_555
C108 C107 1_555 1_555
C109 C108 1_555 1_555
H86 C109 1_555 1_555
C110 C109 1_555 1_555
H87 C110 1_555 1_555
C111 C106 1_555 1_555
H88 C111 1_555 1_555
C112 C108 1_555 1_555
H89 C112 1_555 1_555
H90 C112 1_555 1_555
N22 C112 1_555 1_555
N23 N22 1_555 1_555
C113 N23 1_555 1_555
C114 C113 1_555 1_555
H91 C114 1_555 1_555
C115 N22 1_555 1_555
H92 C115 1_555 1_555
N24 Co3 1_555 1_555
C116 N24 1_555 1_555
H93 C116 1_555 1_555
C117 C116 1_555 1_555
H94 C117 1_555 1_555
C118 C117 1_555 1_555
H95 C118 1_555 1_555
C119 C118 1_555 1_555
H96 C119 1_555 1_555
C120 C113 1_555 1_555
N25 Co4 1_555 1_555
C121 N25 1_555 1_555
C122 C121 1_555 1_555
H97 C122 1_555 1_555
C123 C122 1_555 1_555
H98 C123 1_555 1_555
C124 C123 1_555 1_555
H99 C124 1_555 1_555
C125 N25 1_555 1_555
C126 C125 1_555 1_555
N26 Co4 1_555 1_555
N27 N26 1_555 1_555
C127 N27 1_555 1_555
H100 C127 1_555 1_555
C128 C126 1_555 1_555
H101 C128 1_555 1_555
C129 N27 1_555 1_555
H102 C129 1_555 1_555
H103 C129 1_555 1_555
C130 C129 1_555 1_555
C131 C130 1_555 1_555
H104 C131 1_555 1_555
C132 C131 1_555 1_555
C133 C132 1_555 1_555
H105 C133 1_555 1_555
C134 C133 1_555 1_555
H106 C134 1_555 1_555
C135 C130 1_555 1_555
H107 C135 1_555 1_555
C136 C132 1_555 1_555
C137 C136 1_555 1_555
H108 C137 1_555 1_555
C138 C137 1_555 1_555
C139 C138 1_555 1_555
H109 C139 1_555 1_555
C140 C139 1_555 1_555
H110 C140 1_555 1_555
C141 C136 1_555 1_555
H111 C141 1_555 1_555
C142 C138 1_555 1_555
H112 C142 1_555 1_555
H113 C142 1_555 1_555
N28 C142 1_555 1_555
N29 Co3 1_555 1_555
C143 N29 1_555 1_555
C144 C143 1_555 1_555
H114 C144 1_555 1_555
C145 N28 1_555 1_555
H115 C145 1_555 1_555
N30 Co3 1_555 1_555
C146 N30 1_555 1_555
H116 C146 1_555 1_555
C147 C146 1_555 1_555
H117 C147 1_555 1_555
C148 C147 1_555 1_555
H118 C148 1_555 1_555
C149 C148 1_555 1_555
H119 C149 1_555 1_555
C150 C143 1_555 1_555
N31 Co3 1_555 1_555
C151 N31 1_555 1_555
H120 C151 1_555 1_555
C152 C151 1_555 1_555
H121 C152 1_555 1_555
C153 C152 1_555 1_555
H122 C153 1_555 1_555
C154 C153 1_555 1_555
H123 C154 1_555 1_555
C155 N31 1_555 1_555
C156 C155 1_555 1_555
N32 Co3 1_555 1_555
N33 N32 1_555 1_555
C157 N33 1_555 1_555
H124 C157 1_555 1_555
C158 C156 1_555 1_555
H125 C158 1_555 1_555
C159 N33 1_555 1_555
H126 C159 1_555 1_555
H127 C159 1_555 1_555
C160 C159 1_555 1_555
C161 C160 1_555 1_555
H128 C161 1_555 1_555
C162 C161 1_555 1_555
C163 C162 1_555 1_555
H129 C163 1_555 1_555
C164 C163 1_555 1_555
H130 C164 1_555 1_555
C165 C160 1_555 1_555
H131 C165 1_555 1_555
C166 C162 1_555 1_555
C167 C166 1_555 1_555
H132 C167 1_555 1_555
C168 C167 1_555 1_555
C169 C168 1_555 1_555
H133 C169 1_555 1_555
C170 C169 1_555 1_555
H134 C170 1_555 1_555
C171 C166 1_555 1_555
H135 C171 1_555 1_555
C172 C168 1_555 1_555
H136 C172 1_555 1_555
H137 C172 1_555 1_555
N34 C172 1_555 1_555
N35 Co2 1_555 1_555
C173 N35 1_555 1_555
C174 C173 1_555 1_555
H138 C174 1_555 1_555
C175 N34 1_555 1_555
H139 C175 1_555 1_555
N36 Co2 1_555 1_555
C176 N36 1_555 1_555
H140 C176 1_555 1_555
C177 C176 1_555 1_555
H141 C177 1_555 1_555
C178 C177 1_555 1_555
H142 C178 1_555 1_555
C179 C178 1_555 1_555
H143 C179 1_555 1_555
C180 C173 1_555 1_555
N37 C182 1_555 1_555
N38 C184 1_555 1_555
C181 C182 1_555 1_555
C183 C184 1_555 1_555
C195 C196 1_555 1_555
C196 N39 1_555 1_555
N40 C197 1_555 1_555
C197 C198 1_555 1_555
C199 C200 1_555 1_555
C200 N41 1_555 1_555
F25F P5 1_555 1_555
F26F P5 1_555 1_555
F27F P5 1_555 1_555
C4 C5 1_555 1_555
C6 N2 1_555 1_555
C7 C8 1_555 1_555
C14 C15 1_555 1_555
C20 C21 1_555 1_555
C24 C25 1_555 1_555
N6 C26 1_555 1_555
C29 C30 1_555 1_555
C34 C35 1_555 1_555
C36 N8 1_555 1_555
C37 C38 1_555 1_555
C44 C45 1_555 1_555
C50 C51 1_555 1_555
C54 C55 1_555 1_555
N12 C60 1_555 1_555
C59 C60 1_555 1_555
C64 C65 1_555 1_555
C66 N14 1_555 1_555
C67 C68 1_555 1_555
C74 C75 1_555 1_555
C80 C81 1_555 1_555
N16 N17 1_555 1_555
C84 C85 1_555 1_555
N18 C90 1_555 1_555
C89 C90 1_555 1_555
C94 C95 1_555 1_555
C96 N20 1_555 1_555
C97 C98 1_555 1_555
C104 C105 1_555 1_555
C110 C111 1_555 1_555
C114 C115 1_555 1_555
N24 C120 1_555 1_555
C119 C120 1_555 1_555
C124 C125 1_555 1_555
C126 N26 1_555 1_555
C127 C128 1_555 1_555
C134 C135 1_555 1_555
C140 C141 1_555 1_555
N28 N29 1_555 1_555
C144 C145 1_555 1_555
N30 C150 1_555 1_555
C149 C150 1_555 1_555
C154 C155 1_555 1_555
C156 N32 1_555 1_555
C157 C158 1_555 1_555
C164 C165 1_555 1_555
C170 C171 1_555 1_555
N34 N35 1_555 1_555
C174 C175 1_555 1_555
N36 C180 1_555 1_555
C179 C180 1_555 1_555

#END
