
#######################################################################
#
#                 Cambridge Crystallographic Data Centre
#                                CCDC 
#
#######################################################################
#
# If this CIF has been generated from an entry in the Cambridge 
# Structural Database, then it will include bibliographic, chemical, 
# crystal, experimental, refinement or atomic coordinate data resulting 
# from the CCDC's data processing and validation procedures.
#
#######################################################################

data_WAJNOL
_chemical_formula_moiety         
'C180 H144 Co4 N36 8+,8(I1 1-),6(C2 H3 N1),12.5(H2 O1)'
_chemical_name_systematic        
"hexakis(\m~2~-3,3'-bis(3-(2-Pyridyl)pyrazolylmethyl)-1,1'-biphenyl)-tetra-cobalt(ii) iodide clathrate heptakis(iodide) acetonitrile solvate hydrate"
_symmetry_cell_setting           triclinic
_symmetry_space_group_name_H-M   'P -1'
_symmetry_Int_Tables_number      2
_space_group_name_Hall           '-P 1'
loop_
_symmetry_equiv_pos_site_id
_symmetry_equiv_pos_as_xyz
1 x,y,z
2 -x,-y,-z
_cell_length_a                   18.38(4)
_cell_length_b                   18.90(4)
_cell_length_c                   33.25(6)
_cell_angle_alpha                92.01(4)
_cell_angle_beta                 100.13(4)
_cell_angle_gamma                114.85(3)
_cell_volume                     10240.5
_exptl_crystal_colour            pink
_exptl_crystal_description       plate
_cell_formula_units_Z            2
loop_
_atom_site_label
_atom_site_type_symbol
_atom_site_fract_x
_atom_site_fract_y
_atom_site_fract_z
Co1 Co 0.77279(12) 0.03685(12) 0.05027(6)
Co2 Co 1.03934(13) -0.07528(12) 0.37231(7)
Co3 Co 0.75399(12) 0.39379(13) 0.33748(7)
Co4 Co 1.36619(12) 0.52160(13) 0.21274(7)
N1 N 0.7829(8) 0.1131(8) 0.0028(4)
C1 C 0.8599(10) 0.1635(10) 0.0008(5)
C2 C 0.8767(11) 0.2169(11) -0.0277(5)
H1 H 0.9314 0.2522 -0.0282
C3 C 0.8100(12) 0.2171(11) -0.0557(6)
H2 H 0.8190 0.2533 -0.0754
C4 C 0.7322(11) 0.1649(12) -0.0544(5)
H3 H 0.6868 0.1654 -0.0729
C5 C 0.7188(11) 0.1090(12) -0.0249(5)
H4 H 0.6651 0.0698 -0.0252
N2 N 0.9023(7) 0.1172(7) 0.0633(4)
C6 C 0.9237(9) 0.1613(9) 0.0335(5)
C7 C 1.0105(10) 0.2005(10) 0.0392(5)
H5 H 1.0417 0.2356 0.0224
C8 C 1.0386(10) 0.1768(9) 0.0738(5)
H6 H 1.0946 0.1921 0.0860
N3 N 0.9741(7) 0.1278(8) 0.0881(4)
C9 C 0.9775(10) 0.0895(10) 0.1256(5)
H7 H 0.9311 0.0854 0.1382
H8 H 1.0289 0.1233 0.1455
C10 C 0.9739(9) 0.0064(9) 0.1186(5)
C11 C 0.9678(9) -0.0367(9) 0.1516(5)
H9 H 0.9625 -0.0162 0.1769
C12 C 0.9694(10) -0.1083(9) 0.1484(5)
C13 C 0.9787(10) -0.1365(10) 0.1116(5)
H10 H 0.9828 -0.1849 0.1093
C14 C 0.9822(10) -0.0934(11) 0.0772(5)
H11 H 0.9852 -0.1152 0.0517
C15 C 0.9812(8) -0.0233(10) 0.0797(5)
H12 H 0.9853 0.0059 0.0569
C16 C 0.9653(10) -0.1524(9) 0.1851(5)
C17 C 0.9193(9) -0.1471(9) 0.2152(5)
H13 H 0.8892 -0.1166 0.2112
C18 C 0.9182(9) -0.1850(9) 0.2491(5)
C19 C 0.9628(10) -0.2302(9) 0.2549(5)
H14 H 0.9636 -0.2556 0.2791
C20 C 1.0039(10) -0.2379(10) 0.2272(5)
H15 H 1.0299 -0.2719 0.2309
C21 C 1.0099(10) -0.1970(10) 0.1924(5)
H16 H 1.0435 -0.1997 0.1742
C22 C 0.8683(9) -0.1785(9) 0.2793(5)
H17 H 0.8870 -0.1222 0.2888
H18 H 0.8102 -0.1995 0.2648
N4 N 0.9359(8) -0.1871(8) 0.3476(4)
C23 C 0.9273(9) -0.2420(9) 0.3726(5)
C24 C 0.8555(9) -0.3126(10) 0.3549(5)
H19 H 0.8343 -0.3612 0.3660
C25 C 0.8258(10) -0.2946(10) 0.3194(5)
H20 H 0.7782 -0.3295 0.3000
N5 N 0.8731(7) -0.2193(8) 0.3149(4)
N6 N 1.0457(7) -0.1508(7) 0.4188(4)
C26 C 0.9857(10) -0.2239(9) 0.4124(5)
C27 C 0.9824(12) -0.2774(11) 0.4409(6)
H21 H 0.9400 -0.3295 0.4351
C28 C 1.0373(12) -0.2565(11) 0.4755(5)
H22 H 1.0327 -0.2926 0.4951
C29 C 1.1006(12) -0.1838(11) 0.4834(5)
H23 H 1.1418 -0.1681 0.5079
C30 C 1.1023(11) -0.1312(10) 0.4525(5)
H24 H 1.1465 -0.0801 0.4570
N7 N 1.1191(8) -0.1032(7) 0.3417(4)
C31 C 1.1294(9) -0.0709(9) 0.3052(5)
C32 C 1.1743(10) -0.0879(10) 0.2793(5)
H25 H 1.1801 -0.0659 0.2542
C33 C 1.2110(12) -0.1391(11) 0.2919(6)
H26 H 1.2434 -0.1509 0.2758
C34 C 1.1972(11) -0.1720(10) 0.3295(6)
H27 H 1.2184 -0.2082 0.3382
C35 C 1.1528(10) -0.1508(10) 0.3532(5)
H28 H 1.1463 -0.1713 0.3787
N8 N 1.0385(8) -0.0172(7) 0.3176(4)
C36 C 1.0926(9) -0.0195(10) 0.2943(5)
C37 C 1.0985(11) 0.0271(10) 0.2647(5)
H29 H 1.1329 0.0363 0.2453
C38 C 1.0421(10) 0.0606(9) 0.2681(5)
H30 H 1.0297 0.0946 0.2507
N9 N 1.0114(8) 0.0343(8) 0.3000(4)
C39 C 0.9414(11) 0.0450(10) 0.3115(5)
H31 H 0.9027 -0.0053 0.3189
H32 H 0.9119 0.0582 0.2873
C40 C 0.9674(10) 0.1092(10) 0.3476(5)
C41 C 0.9055(10) 0.1141(10) 0.3621(5)
H33 H 0.8506 0.0772 0.3506
C42 C 0.9206(10) 0.1720(10) 0.3935(5)
C43 C 1.0012(10) 0.2238(9) 0.4094(5)
H34 H 1.0135 0.2631 0.4314
C44 C 1.0616(11) 0.2197(10) 0.3946(6)
H35 H 1.1163 0.2566 0.4065
C45 C 1.0486(10) 0.1632(9) 0.3620(5)
H36 H 1.0922 0.1621 0.3508
C46 C 0.8480(10) 0.1778(10) 0.4088(5)
C47 C 0.8539(10) 0.2530(10) 0.4202(5)
H37 H 0.9015 0.2986 0.4182
C48 C 0.7890(10) 0.2605(11) 0.4346(5)
C49 C 0.7207(11) 0.1913(11) 0.4365(5)
H38 H 0.6770 0.1942 0.4470
C50 C 0.7151(11) 0.1187(11) 0.4235(6)
H39 H 0.6668 0.0729 0.4245
C51 C 0.7772(10) 0.1107(10) 0.4092(5)
H40 H 0.7719 0.0603 0.3998
C52 C 0.7921(11) 0.3374(11) 0.4464(5)
H41 H 0.8024 0.3466 0.4768
H42 H 0.7379 0.3362 0.4353
N10 N 0.8463(8) 0.4238(8) 0.3952(4)
C53 C 0.9192(10) 0.4840(10) 0.3926(5)
C54 C 0.9731(13) 0.5004(12) 0.4285(5)
H43 H 1.0280 0.5401 0.4351
C55 C 0.9334(12) 0.4486(11) 0.4537(6)
H44 H 0.9557 0.4446 0.4811
N11 N 0.8554(9) 0.4035(9) 0.4319(4)
N12 N 0.8593(8) 0.4886(8) 0.3241(4)
C56 C 0.9261(9) 0.5220(9) 0.3558(5)
C57 C 0.9921(10) 0.5880(10) 0.3512(6)
H45 H 1.0385 0.6110 0.3733
C58 C 0.9928(10) 0.6209(9) 0.3167(6)
H46 H 1.0384 0.6687 0.3152
C59 C 0.9297(10) 0.5880(9) 0.2832(6)
H47 H 0.9318 0.6093 0.2577
C60 C 0.8630(10) 0.5223(9) 0.2885(5)
H48 H 0.8170 0.4991 0.2662
N13 N 0.7974(8) -0.0457(8) 0.0157(4)
C61 C 0.7877(9) -0.1104(9) 0.0334(5)
C62 C 0.7890(9) -0.1739(10) 0.0128(5)
H49 H 0.7801 -0.2204 0.0253
C63 C 0.8037(10) -0.1687(11) -0.0271(5)
H50 H 0.8013 -0.2131 -0.0426
C64 C 0.8216(12) -0.0991(12) -0.0440(6)
H51 H 0.8368 -0.0920 -0.0700
C65 C 0.8159(10) -0.0396(11) -0.0201(5)
H52 H 0.8265 0.0087 -0.0311
N14 N 0.7719(7) -0.0457(7) 0.0938(4)
C66 C 0.7719(9) -0.1105(9) 0.0752(5)
C67 C 0.7592(9) -0.1660(10) 0.1042(5)
H53 H 0.7559 -0.2174 0.1004
C68 C 0.7527(9) -0.1294(9) 0.1385(5)
H54 H 0.7432 -0.1516 0.1634
N15 N 0.7614(7) -0.0595(7) 0.1318(4)
C69 C 0.7583(9) 0.0001(9) 0.1602(5)
H55 H 0.7897 0.0527 0.1523
H56 H 0.7856 -0.0017 0.1883
C70 C 0.6727(9) -0.0098(9) 0.1611(4)
C71 C 0.6615(9) 0.0466(9) 0.1828(5)
H57 H 0.7085 0.0916 0.1969
C72 C 0.5845(9) 0.0406(9) 0.1849(5)
C73 C 0.5157(9) -0.0243(9) 0.1647(5)
H58 H 0.4626 -0.0303 0.1667
C74 C 0.5252(10) -0.0808(10) 0.1412(5)
H59 H 0.4777 -0.1243 0.1262
C75 C 0.6015(9) -0.0756(9) 0.1390(5)
H60 H 0.6065 -0.1154 0.1230
C76 C 0.5755(10) 0.1031(10) 0.2082(5)
C77 C 0.6294(10) 0.1819(9) 0.2074(5)
H61 H 0.6741 0.1945 0.1940
C78 C 0.6165(10) 0.2425(10) 0.2267(5)
C79 C 0.5555(10) 0.2256(10) 0.2466(5)
H62 H 0.5477 0.2667 0.2596
C80 C 0.5010(10) 0.1444(11) 0.2483(6)
H63 H 0.4566 0.1328 0.2619
C81 C 0.5120(10) 0.0844(10) 0.2308(6)
H64 H 0.4782 0.0314 0.2336
C82 C 0.6742(10) 0.3256(9) 0.2216(5)
H65 H 0.7312 0.3353 0.2340
H66 H 0.6709 0.3306 0.1919
N16 N 0.6771(8) 0.4056(8) 0.2827(4)
C83 C 0.6521(8) 0.4617(10) 0.2883(5)
C84 C 0.6148(9) 0.4751(10) 0.2517(5)
H67 H 0.5905 0.5106 0.2475
C85 C 0.6209(9) 0.4236(10) 0.2213(5)
H68 H 0.6025 0.4191 0.1924
N17 N 0.6559(8) 0.3844(8) 0.2404(4)
N18 N 0.7115(7) 0.4752(8) 0.3586(4)
C86 C 0.6679(10) 0.4985(9) 0.3295(5)
C87 C 0.6372(10) 0.5519(10) 0.3400(6)
H69 H 0.6051 0.5662 0.3192
C88 C 0.6536(11) 0.5831(10) 0.3799(6)
H70 H 0.6342 0.6205 0.3865
C89 C 0.6989(10) 0.5607(10) 0.4116(5)
H71 H 0.7085 0.5796 0.4398
C90 C 0.7286(11) 0.5088(11) 0.3984(6)
H72 H 0.7632 0.4959 0.4184
N19 N 0.6413(7) -0.0383(8) 0.0288(4)
C91 C 0.5920(9) -0.0126(9) 0.0448(5)
C92 C 0.5054(9) -0.0585(10) 0.0385(5)
H73 H 0.4725 -0.0407 0.0510
C93 C 0.4716(10) -0.1281(10) 0.0141(5)
H74 H 0.4140 -0.1593 0.0090
C94 C 0.5216(10) -0.1549(10) -0.0038(5)
H75 H 0.4988 -0.2038 -0.0208
C95 C 0.6047(10) -0.1067(10) 0.0043(5)
H76 H 0.6384 -0.1233 -0.0083
N20 N 0.7171(7) 0.0961(7) 0.0791(4)
C96 C 0.6328(8) 0.0602(9) 0.0708(4)
C97 C 0.6034(10) 0.1084(10) 0.0877(4)
H77 H 0.5477 0.0979 0.0864
C98 C 0.6704(9) 0.1732(10) 0.1063(5)
H78 H 0.6699 0.2176 0.1204
N21 N 0.7386(7) 0.1655(7) 0.1020(4)
C99 C 0.8243(9) 0.2232(9) 0.1161(5)
H79 H 0.8595 0.1952 0.1211
H80 H 0.8301 0.2529 0.1425
C100 C 0.8528(10) 0.2788(9) 0.0860(5)
C101 C 0.9353(10) 0.3267(10) 0.0916(5)
H81 H 0.9720 0.3208 0.1138
C102 C 0.9664(10) 0.3828(10) 0.0662(5)
C103 C 0.9158(11) 0.3958(11) 0.0347(5)
H82 H 0.9373 0.4353 0.0175
C104 C 0.8307(10) 0.3483(10) 0.0290(5)
H83 H 0.7945 0.3571 0.0078
C105 C 0.7986(11) 0.2902(9) 0.0529(5)
H84 H 0.7412 0.2578 0.0477
C106 C 1.0594(10) 0.4325(10) 0.0731(5)
C107 C 1.1115(9) 0.3983(10) 0.0877(5)
H85 H 1.0882 0.3453 0.0934
C108 C 1.1969(10) 0.4397(10) 0.0942(5)
C109 C 1.2287(10) 0.5171(10) 0.0863(5)
H86 H 1.2865 0.5475 0.0911
C110 C 1.1767(11) 0.5507(11) 0.0713(5)
H87 H 1.1995 0.6031 0.0648
C111 C 1.0942(11) 0.5105(10) 0.0659(5)
H88 H 1.0601 0.5357 0.0572
N22 N 1.3784(7) 0.4884(8) 0.1508(4)
C112 C 1.4563(9) 0.5257(10) 0.1434(5)
C113 C 1.4577(11) 0.4986(13) 0.1052(6)
H89 H 1.5044 0.5133 0.0932
C114 C 1.3799(10) 0.4468(11) 0.0878(5)
H90 H 1.3606 0.4193 0.0608
N23 N 1.3355(8) 0.4424(9) 0.1167(4)
C115 C 1.2428(9) 0.3945(10) 0.1093(6)
H91 H 1.2263 0.3482 0.0889
H92 H 1.2279 0.3751 0.1353
N24 N 1.4958(8) 0.5920(8) 0.2126(4)
C116 C 1.5190(9) 0.5828(10) 0.1766(5)
C117 C 1.5999(10) 0.6246(11) 0.1698(6)
H93 H 1.6143 0.6155 0.1447
C118 C 1.6576(11) 0.6805(12) 0.2026(6)
H94 H 1.7121 0.7115 0.1995
C119 C 1.6342(9) 0.6903(11) 0.2401(6)
H95 H 1.6721 0.7265 0.2628
C120 C 1.5493(9) 0.6422(9) 0.2418(5)
H96 H 1.5324 0.6486 0.2665
N25 N 0.9598(7) -0.0425(7) 0.4029(4)
C121 C 1.0004(10) 0.0177(10) 0.4325(5)
C122 C 0.9600(10) 0.0426(11) 0.4578(5)
H97 H 0.9895 0.0862 0.4786
C123 C 0.8769(11) 0.0019(11) 0.4517(5)
H98 H 0.8480 0.0167 0.4688
C124 C 0.8337(10) -0.0612(10) 0.4208(5)
H99 H 0.7758 -0.0897 0.4163
C125 C 0.8788(9) -0.0804(9) 0.3969(5)
H100 H 0.8506 -0.1226 0.3753
N26 N 1.1251(8) 0.0263(8) 0.4144(4)
C126 C 1.0901(10) 0.0558(9) 0.4381(5)
C127 C 1.1517(10) 0.1190(10) 0.4672(5)
H101 H 1.1431 0.1497 0.4875
C128 C 1.2206(12) 0.1260(11) 0.4603(6)
H102 H 1.2729 0.1643 0.4746
N27 N 1.2071(8) 0.0687(8) 0.4288(4)
C129 C 1.2695(10) 0.0571(10) 0.4112(6)
H103 H 1.2538 0.0001 0.4063
H104 H 1.3226 0.0815 0.4313
C130 C 1.2806(10) 0.0933(10) 0.3698(5)
C131 C 1.2609(8) 0.1550(9) 0.3600(5)
H105 H 1.2393 0.1758 0.3788
C132 C 1.2718(9) 0.1863(9) 0.3238(5)
C133 C 1.2984(9) 0.1521(10) 0.2935(5)
H106 H 1.3017 0.1699 0.2672
C134 C 1.3189(9) 0.0923(10) 0.3044(6)
H107 H 1.3407 0.0715 0.2857
C135 C 1.3094(9) 0.0599(10) 0.3420(5)
H108 H 1.3221 0.0170 0.3480
C136 C 1.2496(9) 0.2529(10) 0.3134(5)
C137 C 1.2246(9) 0.2636(10) 0.2724(5)
H109 H 1.2196 0.2271 0.2504
C138 C 1.2074(10) 0.3264(10) 0.2637(5)
C139 C 1.2112(9) 0.3758(9) 0.2936(4)
H110 H 1.1961 0.4171 0.2873
C140 C 1.2373(11) 0.3679(10) 0.3347(5)
H111 H 1.2403 0.4044 0.3561
C141 C 1.2589(10) 0.3076(10) 0.3447(5)
H112 H 1.2795 0.3041 0.3724
N28 N 1.2350(7) 0.4663(7) 0.2028(4)
C142 C 1.1985(9) 0.5160(10) 0.1898(5)
C143 C 1.1124(9) 0.4773(10) 0.1867(5)
H113 H 1.0735 0.4973 0.1778
C144 C 1.0973(9) 0.4068(10) 0.1991(5)
H114 H 1.0451 0.3680 0.2013
N29 N 1.1704(7) 0.3995(7) 0.2080(4)
C145 C 1.1768(11) 0.3282(10) 0.2177(5)
H115 H 1.2145 0.3206 0.2020
H116 H 1.1221 0.2833 0.2083
N30 N 1.3324(8) 0.6106(8) 0.1913(4)
C146 C 1.2543(10) 0.5925(10) 0.1817(5)
C147 C 1.2231(12) 0.6426(10) 0.1651(5)
H117 H 1.1656 0.6267 0.1584
C148 C 1.2778(13) 0.7167(11) 0.1585(6)
H118 H 1.2585 0.7524 0.1469
C149 C 1.3594(13) 0.7365(11) 0.1691(6)
H119 H 1.3985 0.7870 0.1654
C150 C 1.3842(12) 0.6834(10) 0.1850(6)
H120 H 1.4415 0.6981 0.1921
N31 N 0.6546(8) 0.2963(8) 0.3521(4)
C151 C 0.6515(10) 0.2263(10) 0.3431(5)
C152 C 0.5852(10) 0.1532(11) 0.3490(5)
H121 H 0.5844 0.1038 0.3417
C153 C 0.5250(11) 0.1582(12) 0.3651(6)
H122 H 0.4814 0.1124 0.3705
C154 C 0.5280(11) 0.2305(12) 0.3734(6)
H123 H 0.4857 0.2348 0.3847
C155 C 0.5893(11) 0.2956(12) 0.3662(6)
H124 H 0.5870 0.3444 0.3711
N32 N 0.7708(8) 0.2975(8) 0.3147(4)
C156 C 0.7180(9) 0.2270(9) 0.3241(5)
C157 C 0.7363(9) 0.1662(10) 0.3110(5)
H125 H 0.7081 0.1121 0.3138
C158 C 0.8050(10) 0.2017(9) 0.2928(5)
H126 H 0.8327 0.1766 0.2809
N33 N 0.8237(8) 0.2814(8) 0.2960(4)
C159 C 0.8846(9) 0.3377(9) 0.2764(5)
H127 H 0.8614 0.3720 0.2633
H128 H 0.8940 0.3083 0.2541
C160 C 0.9655(9) 0.3886(9) 0.3035(5)
C161 C 1.0200(10) 0.4519(9) 0.2875(5)
H129 H 1.0032 0.4620 0.2605
C162 C 1.0970(9) 0.4998(9) 0.3095(5)
C163 C 1.1195(10) 0.4840(10) 0.3500(5)
H130 H 1.1715 0.5184 0.3664
C164 C 1.0695(9) 0.4217(10) 0.3660(5)
H131 H 1.0875 0.4122 0.3929
C165 C 0.9915(9) 0.3710(10) 0.3434(5)
H132 H 0.9568 0.3262 0.3542
C166 C 1.1549(10) 0.5675(10) 0.2927(5)
C167 C 1.2412(10) 0.5934(10) 0.3031(5)
H133 H 1.2635 0.5664 0.3212
C168 C 1.2923(10) 0.6566(9) 0.2873(5)
C169 C 1.2623(10) 0.6986(10) 0.2611(6)
H134 H 1.2990 0.7431 0.2509
C170 C 1.1815(10) 0.6755(11) 0.2506(5)
H135 H 1.1606 0.7039 0.2328
C171 C 1.1258(10) 0.6086(10) 0.2659(5)
H136 H 1.0683 0.5922 0.2577
N34 N 1.3935(7) 0.5567(7) 0.2789(4)
C172 C 1.4153(9) 0.5073(9) 0.3018(5)
C173 C 1.4376(10) 0.5336(10) 0.3446(5)
H137 H 1.4528 0.5090 0.3668
C174 C 1.4316(10) 0.6034(11) 0.3458(5)
H138 H 1.4436 0.6375 0.3702
N35 N 1.4054(8) 0.6171(8) 0.3061(4)
C175 C 1.3855(10) 0.6773(10) 0.2964(6)
H139 H 1.4074 0.6975 0.2718
H140 H 1.4136 0.7204 0.3194
N36 N 1.3915(7) 0.4296(7) 0.2376(4)
C176 C 1.4142(9) 0.4377(9) 0.2795(4)
C177 C 1.4367(9) 0.3865(10) 0.3008(6)
H141 H 1.4526 0.3943 0.3299
C178 C 1.4354(9) 0.3232(10) 0.2781(6)
H142 H 1.4513 0.2867 0.2914
C179 C 1.4106(9) 0.3137(10) 0.2355(5)
H143 H 1.4086 0.2701 0.2194
C180 C 1.3891(9) 0.3675(9) 0.2167(6)
H144 H 1.3716 0.3598 0.1876
I1 I 0.93881(7) 0.18814(6) 0.21682(3)
I2 I 0.02606(7) 0.66182(8) 0.11282(4)
I3 I 0.79148(12) 0.29831(13) 0.56858(6)
I4 I 0.64802(9) 0.77350(9) 0.34627(5)
I5 I 0.60073(13) 0.34263(11) 0.10271(5)
I6 I 0.62035(16) 0.61305(16) 0.03545(8)
I8 I 0.79377(16) 0.8675(2) 0.83203(8)
I10 I 0.84693(18) 0.5728(2) 0.51018(7)
C181 C 0.1945(18) 0.9348(17) 0.1346(8)
C182 C 0.251(2) 0.9244(19) 0.1695(10)
N37 N 0.290(2) 0.9088(19) 0.1934(10)
C183 C 0.1917(15) 0.4569(14) 0.9688(7)
C184 C 0.1856(13) 0.3868(13) 0.9896(6)
N38 N 0.1836(12) 0.3315(12) 1.0068(6)
C185 C 0.8127(14) 0.6513(14) 0.1386(7)
C186 C 0.7991(12) 0.6108(12) 0.1740(6)
N39 N 0.7853(15) 0.5753(15) 0.2001(7)
C187 C 0.8405(13) 0.4621(13) 0.1252(6)
C188 C 0.8521(11) 0.4270(12) 0.1586(6)
N40 N 0.8560(16) 0.3895(16) 0.1814(8)
C191 C 0.4188(19) 0.1555(18) 0.1404(9)
C192 C 0.4055(11) 0.0878(11) 0.1122(5)
N42 N 0.3927(11) 0.0391(12) 0.0908(6)
O1 O 0.332(3) 0.247(3) 0.5506(14)
O2 O 0.653(2) 0.965(2) 0.3455(10)
O3 O 0.499(2) 0.221(2) 0.4770(12)
O4 O 0.6802(19) 0.7202(19) 0.8855(9)
O5 O 0.6282(18) 0.3734(17) 0.4654(8)
O6 O 0.499(2) 0.0754(19) 0.4601(9)
O7 O 0.3020(17) 0.3440(16) 0.4905(8)
O8 O 0.391(2) 0.290(2) 0.4437(10)
O9 O 0.490(3) 0.303(2) 0.9228(12)
O10 O 0.6214(16) 0.2867(15) 0.9364(7)
O11 O 0.5969(17) 0.7248(16) 0.9494(8)
O12 O 0.3975(17) 0.7584(16) 0.3964(8)
O13 O 0.527(3) 0.536(3) 0.4618(12)
O14 O 0.568(3) 0.415(3) 0.0191(14)
O15 O 0.353(4) 0.906(4) 0.4659(17)
O16 O 0.344(2) 0.053(2) 0.5289(10)
loop_
_geom_bond_atom_site_label_1
_geom_bond_atom_site_label_2
_geom_bond_site_symmetry_1
_geom_bond_site_symmetry_2
Co1 N1 1_555 1_555
Co2 N4 1_555 1_555
Co3 N10 1_555 1_555
Co4 N22 1_555 1_555
N1 C1 1_555 1_555
C1 C2 1_555 1_555
C2 H1 1_555 1_555
C3 C2 1_555 1_555
H2 C3 1_555 1_555
C4 C3 1_555 1_555
H3 C4 1_555 1_555
C5 N1 1_555 1_555
H4 C5 1_555 1_555
N2 Co1 1_555 1_555
C6 C1 1_555 1_555
C7 C6 1_555 1_555
H5 C7 1_555 1_555
C8 C7 1_555 1_555
H6 C8 1_555 1_555
N3 N2 1_555 1_555
C9 N3 1_555 1_555
H7 C9 1_555 1_555
H8 C9 1_555 1_555
C10 C9 1_555 1_555
C11 C10 1_555 1_555
H9 C11 1_555 1_555
C12 C11 1_555 1_555
C13 C12 1_555 1_555
H10 C13 1_555 1_555
C14 C13 1_555 1_555
H11 C14 1_555 1_555
C15 C10 1_555 1_555
H12 C15 1_555 1_555
C16 C12 1_555 1_555
C17 C16 1_555 1_555
H13 C17 1_555 1_555
C18 C17 1_555 1_555
C19 C18 1_555 1_555
H14 C19 1_555 1_555
C20 C19 1_555 1_555
H15 C20 1_555 1_555
C21 C16 1_555 1_555
H16 C21 1_555 1_555
C22 C18 1_555 1_555
H17 C22 1_555 1_555
H18 C22 1_555 1_555
N4 C23 1_555 1_555
C23 C24 1_555 1_555
C24 H19 1_555 1_555
C25 C24 1_555 1_555
H20 C25 1_555 1_555
N5 C22 1_555 1_555
N6 Co2 1_555 1_555
C26 C23 1_555 1_555
C27 C26 1_555 1_555
H21 C27 1_555 1_555
C28 C27 1_555 1_555
H22 C28 1_555 1_555
C29 C28 1_555 1_555
H23 C29 1_555 1_555
C30 N6 1_555 1_555
H24 C30 1_555 1_555
N7 Co2 1_555 1_555
C31 N7 1_555 1_555
C32 C31 1_555 1_555
H25 C32 1_555 1_555
C33 C32 1_555 1_555
H26 C33 1_555 1_555
C34 C33 1_555 1_555
H27 C34 1_555 1_555
C35 N7 1_555 1_555
H28 C35 1_555 1_555
N8 Co2 1_555 1_555
C36 C31 1_555 1_555
C37 C36 1_555 1_555
H29 C37 1_555 1_555
C38 C37 1_555 1_555
H30 C38 1_555 1_555
N9 N8 1_555 1_555
C39 N9 1_555 1_555
H31 C39 1_555 1_555
H32 C39 1_555 1_555
C40 C39 1_555 1_555
C41 C40 1_555 1_555
H33 C41 1_555 1_555
C42 C41 1_555 1_555
C43 C42 1_555 1_555
H34 C43 1_555 1_555
C44 C43 1_555 1_555
H35 C44 1_555 1_555
C45 C40 1_555 1_555
H36 C45 1_555 1_555
C46 C42 1_555 1_555
C47 C46 1_555 1_555
H37 C47 1_555 1_555
C48 C47 1_555 1_555
C49 C48 1_555 1_555
H38 C49 1_555 1_555
C50 C49 1_555 1_555
H39 C50 1_555 1_555
C51 C46 1_555 1_555
H40 C51 1_555 1_555
C52 C48 1_555 1_555
H41 C52 1_555 1_555
H42 C52 1_555 1_555
N10 C53 1_555 1_555
C53 C54 1_555 1_555
C54 H43 1_555 1_555
C55 C54 1_555 1_555
H44 C55 1_555 1_555
N11 C52 1_555 1_555
N12 Co3 1_555 1_555
C56 C53 1_555 1_555
C57 C56 1_555 1_555
H45 C57 1_555 1_555
C58 C57 1_555 1_555
H46 C58 1_555 1_555
C59 C58 1_555 1_555
H47 C59 1_555 1_555
C60 N12 1_555 1_555
H48 C60 1_555 1_555
N13 Co1 1_555 1_555
C61 N13 1_555 1_555
C62 C61 1_555 1_555
H49 C62 1_555 1_555
C63 C62 1_555 1_555
H50 C63 1_555 1_555
C64 C63 1_555 1_555
H51 C64 1_555 1_555
C65 N13 1_555 1_555
H52 C65 1_555 1_555
N14 Co1 1_555 1_555
C66 C61 1_555 1_555
C67 C66 1_555 1_555
H53 C67 1_555 1_555
C68 C67 1_555 1_555
H54 C68 1_555 1_555
N15 N14 1_555 1_555
C69 N15 1_555 1_555
H55 C69 1_555 1_555
H56 C69 1_555 1_555
C70 C69 1_555 1_555
C71 C70 1_555 1_555
H57 C71 1_555 1_555
C72 C71 1_555 1_555
C73 C72 1_555 1_555
H58 C73 1_555 1_555
C74 C73 1_555 1_555
H59 C74 1_555 1_555
C75 C70 1_555 1_555
H60 C75 1_555 1_555
C76 C72 1_555 1_555
C77 C76 1_555 1_555
H61 C77 1_555 1_555
C78 C77 1_555 1_555
C79 C78 1_555 1_555
H62 C79 1_555 1_555
C80 C79 1_555 1_555
H63 C80 1_555 1_555
C81 C76 1_555 1_555
H64 C81 1_555 1_555
C82 C78 1_555 1_555
H65 C82 1_555 1_555
H66 C82 1_555 1_555
N16 Co3 1_555 1_555
C83 N16 1_555 1_555
C84 C83 1_555 1_555
H67 C84 1_555 1_555
C85 C84 1_555 1_555
H68 C85 1_555 1_555
N17 C82 1_555 1_555
N18 Co3 1_555 1_555
C86 C83 1_555 1_555
C87 C86 1_555 1_555
H69 C87 1_555 1_555
C88 C87 1_555 1_555
H70 C88 1_555 1_555
C89 C88 1_555 1_555
H71 C89 1_555 1_555
C90 N18 1_555 1_555
H72 C90 1_555 1_555
N19 Co1 1_555 1_555
C91 N19 1_555 1_555
C92 C91 1_555 1_555
H73 C92 1_555 1_555
C93 C92 1_555 1_555
H74 C93 1_555 1_555
C94 C93 1_555 1_555
H75 C94 1_555 1_555
C95 N19 1_555 1_555
H76 C95 1_555 1_555
N20 Co1 1_555 1_555
C96 C91 1_555 1_555
C97 C96 1_555 1_555
H77 C97 1_555 1_555
C98 C97 1_555 1_555
H78 C98 1_555 1_555
N21 N20 1_555 1_555
C99 N21 1_555 1_555
H79 C99 1_555 1_555
H80 C99 1_555 1_555
C100 C99 1_555 1_555
C101 C100 1_555 1_555
H81 C101 1_555 1_555
C102 C101 1_555 1_555
C103 C102 1_555 1_555
H82 C103 1_555 1_555
C104 C103 1_555 1_555
H83 C104 1_555 1_555
C105 C100 1_555 1_555
H84 C105 1_555 1_555
C106 C102 1_555 1_555
C107 C106 1_555 1_555
H85 C107 1_555 1_555
C108 C107 1_555 1_555
C109 C108 1_555 1_555
H86 C109 1_555 1_555
C110 C109 1_555 1_555
H87 C110 1_555 1_555
C111 C106 1_555 1_555
H88 C111 1_555 1_555
N22 C112 1_555 1_555
C112 C113 1_555 1_555
C113 H89 1_555 1_555
C114 C113 1_555 1_555
H90 C114 1_555 1_555
N23 N22 1_555 1_555
C115 C108 1_555 1_555
H91 C115 1_555 1_555
H92 C115 1_555 1_555
N24 Co4 1_555 1_555
C116 C112 1_555 1_555
C117 C116 1_555 1_555
H93 C117 1_555 1_555
C118 C117 1_555 1_555
H94 C118 1_555 1_555
C119 C118 1_555 1_555
H95 C119 1_555 1_555
C120 N24 1_555 1_555
H96 C120 1_555 1_555
N25 Co2 1_555 1_555
C121 N25 1_555 1_555
C122 C121 1_555 1_555
H97 C122 1_555 1_555
C123 C122 1_555 1_555
H98 C123 1_555 1_555
C124 C123 1_555 1_555
H99 C124 1_555 1_555
C125 N25 1_555 1_555
H100 C125 1_555 1_555
N26 Co2 1_555 1_555
C126 C121 1_555 1_555
C127 C126 1_555 1_555
H101 C127 1_555 1_555
C128 C127 1_555 1_555
H102 C128 1_555 1_555
N27 N26 1_555 1_555
C129 N27 1_555 1_555
H103 C129 1_555 1_555
H104 C129 1_555 1_555
C130 C129 1_555 1_555
C131 C130 1_555 1_555
H105 C131 1_555 1_555
C132 C131 1_555 1_555
C133 C132 1_555 1_555
H106 C133 1_555 1_555
C134 C133 1_555 1_555
H107 C134 1_555 1_555
C135 C130 1_555 1_555
H108 C135 1_555 1_555
C136 C132 1_555 1_555
C137 C136 1_555 1_555
H109 C137 1_555 1_555
C138 C137 1_555 1_555
C139 C138 1_555 1_555
H110 C139 1_555 1_555
C140 C139 1_555 1_555
H111 C140 1_555 1_555
C141 C136 1_555 1_555
H112 C141 1_555 1_555
N28 Co4 1_555 1_555
C142 N28 1_555 1_555
C143 C142 1_555 1_555
H113 C143 1_555 1_555
C144 C143 1_555 1_555
H114 C144 1_555 1_555
N29 N28 1_555 1_555
C145 C138 1_555 1_555
H115 C145 1_555 1_555
H116 C145 1_555 1_555
N30 Co4 1_555 1_555
C146 C142 1_555 1_555
C147 C146 1_555 1_555
H117 C147 1_555 1_555
C148 C147 1_555 1_555
H118 C148 1_555 1_555
C149 C148 1_555 1_555
H119 C149 1_555 1_555
C150 N30 1_555 1_555
H120 C150 1_555 1_555
N31 Co3 1_555 1_555
C151 N31 1_555 1_555
C152 C151 1_555 1_555
H121 C152 1_555 1_555
C153 C152 1_555 1_555
H122 C153 1_555 1_555
C154 C153 1_555 1_555
H123 C154 1_555 1_555
C155 N31 1_555 1_555
H124 C155 1_555 1_555
N32 Co3 1_555 1_555
C156 C151 1_555 1_555
C157 C156 1_555 1_555
H125 C157 1_555 1_555
C158 C157 1_555 1_555
H126 C158 1_555 1_555
N33 N32 1_555 1_555
C159 N33 1_555 1_555
H127 C159 1_555 1_555
H128 C159 1_555 1_555
C160 C159 1_555 1_555
C161 C160 1_555 1_555
H129 C161 1_555 1_555
C162 C161 1_555 1_555
C163 C162 1_555 1_555
H130 C163 1_555 1_555
C164 C163 1_555 1_555
H131 C164 1_555 1_555
C165 C160 1_555 1_555
H132 C165 1_555 1_555
C166 C162 1_555 1_555
C167 C166 1_555 1_555
H133 C167 1_555 1_555
C168 C167 1_555 1_555
C169 C168 1_555 1_555
H134 C169 1_555 1_555
C170 C169 1_555 1_555
H135 C170 1_555 1_555
C171 C166 1_555 1_555
H136 C171 1_555 1_555
N34 Co4 1_555 1_555
C172 N34 1_555 1_555
C173 C172 1_555 1_555
H137 C173 1_555 1_555
C174 C173 1_555 1_555
H138 C174 1_555 1_555
N35 N34 1_555 1_555
C175 C168 1_555 1_555
H139 C175 1_555 1_555
H140 C175 1_555 1_555
N36 Co4 1_555 1_555
C176 C172 1_555 1_555
C177 C176 1_555 1_555
H141 C177 1_555 1_555
C178 C177 1_555 1_555
H142 C178 1_555 1_555
C179 C178 1_555 1_555
H143 C179 1_555 1_555
C180 N36 1_555 1_555
H144 C180 1_555 1_555
C181 C182 1_555 1_555
C182 N37 1_555 1_555
C183 C184 1_555 1_555
C184 N38 1_555 1_555
C185 C186 1_555 1_555
C186 N39 1_555 1_555
C187 C188 1_555 1_555
C188 N40 1_555 1_555
C191 C192 1_555 1_555
C192 N42 1_555 1_555
C4 C5 1_555 1_555
N2 C6 1_555 1_555
C8 N3 1_555 1_555
C14 C15 1_555 1_555
C20 C21 1_555 1_555
N4 N5 1_555 1_555
C25 N5 1_555 1_555
N6 C26 1_555 1_555
C29 C30 1_555 1_555
C34 C35 1_555 1_555
N8 C36 1_555 1_555
C38 N9 1_555 1_555
C44 C45 1_555 1_555
C50 C51 1_555 1_555
N10 N11 1_555 1_555
C55 N11 1_555 1_555
N12 C56 1_555 1_555
C59 C60 1_555 1_555
C64 C65 1_555 1_555
N14 C66 1_555 1_555
C68 N15 1_555 1_555
C74 C75 1_555 1_555
C80 C81 1_555 1_555
N16 N17 1_555 1_555
C85 N17 1_555 1_555
N18 C86 1_555 1_555
C89 C90 1_555 1_555
C94 C95 1_555 1_555
N20 C96 1_555 1_555
C98 N21 1_555 1_555
C104 C105 1_555 1_555
C110 C111 1_555 1_555
C114 N23 1_555 1_555
N23 C115 1_555 1_555
N24 C116 1_555 1_555
C119 C120 1_555 1_555
C124 C125 1_555 1_555
N26 C126 1_555 1_555
C128 N27 1_555 1_555
C134 C135 1_555 1_555
C140 C141 1_555 1_555
C144 N29 1_555 1_555
N29 C145 1_555 1_555
N30 C146 1_555 1_555
C149 C150 1_555 1_555
C154 C155 1_555 1_555
N32 C156 1_555 1_555
C158 N33 1_555 1_555
C164 C165 1_555 1_555
C170 C171 1_555 1_555
C174 N35 1_555 1_555
N35 C175 1_555 1_555
N36 C176 1_555 1_555
C179 C180 1_555 1_555

#END
