
#######################################################################
#
#                 Cambridge Crystallographic Data Centre
#                                CCDC 
#
#######################################################################
#
# If this CIF has been generated from an entry in the Cambridge 
# Structural Database, then it will include bibliographic, chemical, 
# crystal, experimental, refinement or atomic coordinate data resulting 
# from the CCDC's data processing and validation procedures.
#
#######################################################################

data_WAJNEB
_chemical_formula_moiety         
'C180 H144 Co4 N36 8+,8(Cl1 O4 1-),3(C2 H3 N1),12(H2 O1)'
_chemical_name_systematic        
"hexakis(\m~2~-3,3'-bis(3-(2-Pyridyl)pyrazolylmethyl)-1,1'-biphenyl)-tetra-cobalt(ii) perchlorate clathrate heptaperchlorate acetonitrile solvate dodecahydrate"
_symmetry_cell_setting           monoclinic
_symmetry_space_group_name_H-M   'C 2/c'
_symmetry_Int_Tables_number      15
_space_group_name_Hall           '-C 2yn'
loop_
_symmetry_equiv_pos_site_id
_symmetry_equiv_pos_as_xyz
1 x,y,z
2 1/2+x,1/2+y,z
3 x,-y,1/2+z
4 1/2+x,1/2-y,1/2+z
5 -x,-y,-z
6 1/2-x,1/2-y,-z
7 -x,y,1/2-z
8 1/2-x,1/2+y,1/2-z
_cell_length_a                   54.512(11)
_cell_length_b                   26.615(5)
_cell_length_c                   38.376(8)
_cell_angle_alpha                90
_cell_angle_beta                 129.324(3)
_cell_angle_gamma                90
_cell_volume                     43070.6
_exptl_crystal_colour            pink
_exptl_crystal_description       plate
_cell_formula_units_Z            8
_exptl_crystal_recrystallization_method 'acetonitrile/diethyl ether'
loop_
_atom_site_label
_atom_site_type_symbol
_atom_site_fract_x
_atom_site_fract_y
_atom_site_fract_z
Co1 Co 0.80929(5) 0.23097(7) 0.42415(7)
Co2 Co 0.82083(5) 0.04805(8) 0.18306(6)
Co3 Co 0.84940(6) 0.49323(8) 0.18737(9)
Co4 Co 1.05259(4) 0.22160(7) 0.47793(6)
N1 N 0.8069(3) 0.2333(5) 0.4781(5)
C1 C 0.7989(5) 0.1897(7) 0.4867(7)
C2 C 0.7950(6) 0.1882(8) 0.5192(9)
H1 H 0.7871 0.1582 0.5222
C3 C 0.8022(8) 0.2287(10) 0.5478(10)
H2 H 0.8028 0.2261 0.5730
C4 C 0.8087(7) 0.2765(9) 0.5342(9)
H3 H 0.8117 0.3072 0.5491
C5 C 0.8104(6) 0.2750(8) 0.4990(7)
H4 H 0.8141 0.3054 0.4901
N2 N 0.7983(3) 0.1545(5) 0.4302(5)
C6 C 0.7950(4) 0.1495(6) 0.4615(6)
C7 C 0.7898(4) 0.0977(7) 0.4638(7)
H5 H 0.7882 0.0831 0.4848
C8 C 0.7877(4) 0.0727(7) 0.4318(6)
H6 H 0.7827 0.0382 0.4241
N3 N 0.7943(3) 0.1073(5) 0.4124(5)
C9 C 0.7935(4) 0.1000(6) 0.3750(6)
H7 H 0.7971 0.0639 0.3734
H8 H 0.8113 0.1189 0.3805
C10 C 0.7633(4) 0.1158(5) 0.3303(6)
C11 C 0.7626(4) 0.1198(5) 0.2943(6)
H9 H 0.7815 0.1120 0.2990
C12 C 0.7359(4) 0.1348(5) 0.2502(6)
C13 C 0.7088(4) 0.1426(6) 0.2452(7)
H10 H 0.6896 0.1501 0.2161
C14 C 0.7089(4) 0.1400(6) 0.2803(7)
H11 H 0.6900 0.1486 0.2754
C15 C 0.7348(4) 0.1255(6) 0.3226(6)
H12 H 0.7336 0.1221 0.3461
C16 C 0.7372(4) 0.1385(6) 0.2137(6)
C17 C 0.7648(4) 0.1518(6) 0.2201(7)
H13 H 0.7834 0.1581 0.2500
C18 C 0.7668(4) 0.1563(6) 0.1861(6)
C19 C 0.7411(4) 0.1480(6) 0.1424(6)
H14 H 0.7421 0.1510 0.1187
C20 C 0.7132(4) 0.1347(6) 0.1344(6)
H15 H 0.6946 0.1286 0.1043
C21 C 0.7114(4) 0.1300(6) 0.1686(7)
H16 H 0.6917 0.1207 0.1610
N4 N 0.8059(3) 0.1195(5) 0.1545(4)
C22 C 0.8019(4) 0.1268(8) 0.1172(6)
C23 C 0.7921(5) 0.1773(10) 0.1017(7)
H17 H 0.7874 0.1917 0.0754
C24 C 0.7911(4) 0.2007(8) 0.1324(7)
H18 H 0.7854 0.2346 0.1319
N5 N 0.7998(3) 0.1656(6) 0.1633(5)
C25 C 0.7977(4) 0.1719(6) 0.1998(6)
H19 H 0.8146 0.1517 0.2262
H20 H 0.8014 0.2076 0.2091
N6 N 0.8170(4) 0.0435(8) 0.1238(5)
C26 C 0.8064(5) 0.0841(11) 0.0984(6)
C27 C 0.8022(6) 0.0835(12) 0.0565(8)
H21 H 0.7949 0.1125 0.0379
C28 C 0.8087(7) 0.0426(16) 0.0458(10)
H22 H 0.8062 0.0430 0.0189
C29 C 0.8186(7) -0.0004(12) 0.0691(8)
H23 H 0.8238 -0.0297 0.0608
C30 C 0.8204(6) 0.0028(11) 0.1077(8)
H24 H 0.8246 -0.0277 0.1236
N7 N 0.7602(3) 0.2479(5) 0.3754(5)
C31 C 0.7482(4) 0.2542(5) 0.3312(6)
C32 C 0.7178(4) 0.2631(6) 0.2969(7)
H25 H 0.7109 0.2669 0.2673
C33 C 0.6952(5) 0.2671(6) 0.3043(8)
H26 H 0.6734 0.2725 0.2799
C34 C 0.7056(5) 0.2630(6) 0.3471(8)
H27 H 0.6913 0.2663 0.3531
C35 C 0.7387(5) 0.2535(6) 0.3829(7)
H28 H 0.7460 0.2510 0.4128
N8 N 0.8029(3) 0.2306(4) 0.3634(4)
C36 C 0.7728(4) 0.2495(5) 0.3270(6)
C37 C 0.7711(4) 0.2612(6) 0.2899(6)
H29 H 0.7538 0.2747 0.2616
C38 C 0.8012(4) 0.2482(5) 0.3048(5)
H30 H 0.8081 0.2515 0.2876
N9 N 0.8188(3) 0.2306(4) 0.3468(4)
C39 C 0.8498(3) 0.2090(5) 0.3716(5)
H31 H 0.8524 0.1968 0.3499
H32 H 0.8507 0.1792 0.3879
C40 C 0.9337(4) 0.2523(5) 0.4688(5)
C41 C 0.9072(4) 0.2234(5) 0.4383(5)
H33 H 0.9094 0.1879 0.4399
C42 C 0.8782(4) 0.2433(5) 0.4061(5)
C43 C 0.8752(4) 0.2957(6) 0.4032(5)
H34 H 0.8552 0.3108 0.3806
C44 C 0.9010(4) 0.3250(6) 0.4328(6)
H35 H 0.8990 0.3605 0.4300
C45 C 0.9297(4) 0.3042(5) 0.4663(6)
H36 H 0.9471 0.3252 0.4879
C46 C 1.0225(4) 0.2329(6) 0.5542(5)
C47 C 0.9931(4) 0.2532(6) 0.5202(5)
H37 H 0.9920 0.2844 0.5072
C48 C 0.9643(4) 0.2285(5) 0.5039(5)
C49 C 0.9671(4) 0.1815(5) 0.5211(5)
H38 H 0.9484 0.1630 0.5093
C50 C 0.9959(4) 0.1605(6) 0.5548(6)
H39 H 0.9968 0.1289 0.5671
C51 C 1.0244(4) 0.1851(6) 0.5714(5)
H40 H 1.0444 0.1698 0.5937
N10 N 1.0483(2) 0.2855(5) 0.5069(4)
C52 C 1.0479(3) 0.3303(6) 0.4900(5)
C53 C 1.0486(4) 0.3690(7) 0.5143(6)
H41 H 1.0483 0.4039 0.5089
C54 C 1.0498(4) 0.3481(7) 0.5470(6)
H42 H 1.0501 0.3654 0.5689
N11 N 1.0505(3) 0.2975(5) 0.5431(5)
C55 C 1.0539(4) 0.2590(6) 0.5730(5)
H43 H 1.0627 0.2747 0.6023
H44 H 1.0692 0.2333 0.5787
N12 N 1.0488(3) 0.2827(5) 0.4386(4)
C56 C 1.0482(3) 0.3288(6) 0.4526(5)
C57 C 1.0516(4) 0.3741(7) 0.4363(6)
H45 H 1.0533 0.4055 0.4495
C58 C 1.0522(5) 0.3722(10) 0.4031(8)
H46 H 1.0529 0.4024 0.3905
C59 C 1.0519(4) 0.3228(9) 0.3848(6)
H47 H 1.0529 0.3203 0.3611
C60 C 1.0499(3) 0.2789(7) 0.4048(6)
H48 H 1.0493 0.2465 0.3938
N13 N 0.8588(3) 0.2178(5) 0.4722(4)
C61 C 0.8766(5) 0.2577(7) 0.4937(6)
C62 C 0.9066(5) 0.2534(8) 0.5324(7)
H49 H 0.9183 0.2827 0.5489
C63 C 0.9203(5) 0.2076(9) 0.5477(7)
H50 H 0.9417 0.2048 0.5744
C64 C 0.9029(5) 0.1644(8) 0.5242(6)
H51 H 0.9118 0.1317 0.5338
C65 C 0.8722(4) 0.1726(7) 0.4861(5)
H52 H 0.8597 0.1442 0.4687
N14 N 0.8293(4) 0.3048(4) 0.4407(5)
C66 C 0.8590(6) 0.3058(6) 0.4763(7)
C67 C 0.8704(6) 0.3562(7) 0.4925(7)
H53 H 0.8912 0.3667 0.5173
C68 C 0.8449(6) 0.3841(8) 0.4646(8)
H54 H 0.8440 0.4197 0.4655
N15 N 0.8202(4) 0.3537(5) 0.4345(6)
C69 C 0.7888(5) 0.3700(6) 0.3980(7)
H55 H 0.7848 0.4019 0.4069
H56 H 0.7737 0.3448 0.3938
C70 C 0.7809(5) 0.3781(5) 0.3524(7)
C71 C 0.8072(4) 0.3866(5) 0.3526(6)
H57 H 0.8284 0.3858 0.3800
C72 C 0.8011(4) 0.3959(5) 0.3118(6)
C73 C 0.7692(4) 0.3983(5) 0.2717(6)
H58 H 0.7645 0.4046 0.2436
C74 C 0.7452(4) 0.3913(6) 0.2736(7)
H59 H 0.7239 0.3935 0.2465
C75 C 0.7505(4) 0.3815(5) 0.3125(7)
H60 H 0.7331 0.3768 0.3121
C76 C 0.8277(4) 0.4031(5) 0.3110(6)
C77 C 0.8252(3) 0.3855(5) 0.2750(5)
H61 H 0.8058 0.3700 0.2508
C78 C 0.8498(3) 0.3892(5) 0.2722(5)
C79 C 0.8778(4) 0.4116(6) 0.3089(6)
H62 H 0.8951 0.4150 0.3088
C80 C 0.8811(4) 0.4294(6) 0.3463(5)
H63 H 0.9006 0.4439 0.3713
C81 C 0.8564(4) 0.4259(6) 0.3466(6)
H64 H 0.8586 0.4391 0.3715
N16 N 0.8705(3) 0.4212(4) 0.2099(5)
C82 C 0.8953(3) 0.4148(5) 0.2101(6)
C83 C 0.9103(4) 0.3672(6) 0.2290(5)
H65 H 0.9279 0.3534 0.2327
C84 C 0.8931(4) 0.3461(6) 0.2408(6)
H66 H 0.8973 0.3144 0.2550
N17 N 0.8693(3) 0.3779(5) 0.2289(4)
C85 C 0.8441(4) 0.3681(6) 0.2322(5)
H67 H 0.8239 0.3820 0.2050
H68 H 0.8414 0.3313 0.2321
N18 N 0.8844(3) 0.4964(5) 0.1790(5)
C86 C 0.9010(4) 0.4535(6) 0.1894(6)
C87 C 0.9226(5) 0.4445(7) 0.1822(7)
H69 H 0.9342 0.4140 0.1910
C88 C 0.9263(5) 0.4841(8) 0.1610(7)
H70 H 0.9398 0.4797 0.1535
C89 C 0.9099(4) 0.5305(7) 0.1510(7)
H71 H 0.9129 0.5582 0.1384
C90 C 0.8894(4) 0.5329(7) 0.1606(7)
H72 H 0.8779 0.5633 0.1534
N19 N 0.8368(4) -0.0270(5) 0.1996(5)
C91 C 0.8691(5) -0.0361(7) 0.2216(6)
C92 C 0.8810(6) -0.0830(8) 0.2298(7)
H73 H 0.9028 -0.0886 0.2442
C93 C 0.8602(7) -0.1230(8) 0.2163(10)
H74 H 0.8680 -0.1565 0.2220
C94 C 0.8286(7) -0.1150(10) 0.1949(11)
H75 H 0.8143 -0.1422 0.1855
C95 C 0.8188(6) -0.0660(7) 0.1879(7)
H76 H 0.7971 -0.0601 0.1734
N20 N 0.8712(3) 0.0551(5) 0.2225(3)
C96 C 0.8870(4) 0.0100(6) 0.2331(5)
C97 C 0.9188(4) 0.0178(6) 0.2537(5)
H77 H 0.9344 -0.0072 0.2637
C98 C 0.9229(4) 0.0681(6) 0.2566(4)
H78 H 0.9420 0.0854 0.2686
N21 N 0.8948(3) 0.0892(4) 0.2393(4)
C99 C 0.8869(4) 0.1431(5) 0.2293(4)
H79 H 0.9048 0.1632 0.2545
H80 H 0.8682 0.1502 0.2272
C100 C 0.8799(3) 0.1591(6) 0.1865(5)
C101 C 0.8740(3) 0.2100(6) 0.1735(5)
H81 H 0.8735 0.2333 0.1918
C102 C 0.8691(3) 0.2278(6) 0.1362(5)
C103 C 0.8689(4) 0.1920(6) 0.1090(5)
H82 H 0.8649 0.2027 0.0821
C104 C 0.8746(3) 0.1409(6) 0.1206(5)
H83 H 0.8744 0.1174 0.1019
C105 C 0.8802(3) 0.1253(5) 0.1589(5)
H84 H 0.8845 0.0908 0.1671
C106 C 0.8639(4) 0.2804(6) 0.1240(6)
C107 C 0.8416(4) 0.3076(6) 0.1242(5)
H85 H 0.8316 0.2923 0.1346
C108 C 0.8347(4) 0.3565(7) 0.1090(6)
C109 C 0.8513(5) 0.3813(8) 0.0974(7)
H86 H 0.8474 0.4158 0.0893
C110 C 0.8733(5) 0.3549(8) 0.0979(8)
H87 H 0.8840 0.3709 0.0888
C111 C 0.8798(5) 0.3053(7) 0.1117(7)
H88 H 0.8955 0.2878 0.1127
N22 N 0.8135(3) 0.4735(6) 0.1163(6)
C112 C 0.7994(6) 0.5138(9) 0.0891(10)
C113 C 0.7774(6) 0.4994(8) 0.0438(10)
H89 H 0.7647 0.5207 0.0182
C114 C 0.7780(5) 0.4467(8) 0.0443(9)
H90 H 0.7657 0.4247 0.0192
N23 N 0.8007(3) 0.4336(6) 0.0898(6)
C115 C 0.8079(4) 0.3821(6) 0.1072(7)
H91 H 0.7884 0.3616 0.0880
H92 H 0.8146 0.3825 0.1380
N24 N 0.8300(4) 0.5645(5) 0.1544(7)
C116 C 0.8073(5) 0.5634(7) 0.1087(8)
C117 C 0.7936(6) 0.6064(7) 0.0841(9)
H93 H 0.7776 0.6053 0.0523
C118 C 0.8037(6) 0.6513(8) 0.1069(9)
H94 H 0.7954 0.6819 0.0906
C119 C 0.8256(6) 0.6522(8) 0.1525(9)
H95 H 0.8310 0.6832 0.1680
C120 C 0.8397(5) 0.6089(5) 0.1762(8)
H96 H 0.8563 0.6101 0.2078
N25 N 0.7717(3) 0.0303(5) 0.1485(4)
C121 C 0.7636(4) 0.0225(5) 0.1749(5)
C122 C 0.7332(4) 0.0114(6) 0.1581(6)
H97 H 0.7279 0.0072 0.1772
C123 C 0.7105(5) 0.0069(6) 0.1111(8)
H98 H 0.6895 -0.0028 0.0981
C124 C 0.7177(5) 0.0159(7) 0.0841(7)
H99 H 0.7018 0.0145 0.0523
C125 C 0.7486(5) 0.0273(7) 0.1034(7)
H100 H 0.7538 0.0333 0.0844
N26 N 0.8177(3) 0.0485(4) 0.2354(4)
C126 C 0.7898(4) 0.0292(6) 0.2228(5)
C127 C 0.7920(4) 0.0189(5) 0.2604(6)
H101 H 0.7761 0.0042 0.2604
C128 C 0.8218(4) 0.0342(6) 0.2976(5)
H102 H 0.8303 0.0332 0.3281
N27 N 0.8366(3) 0.0511(4) 0.2817(4)
C129 C 0.8691(3) 0.0688(5) 0.3087(5)
H103 H 0.8744 0.0877 0.3349
H104 H 0.8710 0.0922 0.2904
C130 C 0.8924(3) 0.0269(5) 0.3251(4)
C131 C 0.9240(4) 0.0407(5) 0.3493(4)
H105 H 0.9295 0.0754 0.3543
C132 C 0.9482(4) 0.0045(6) 0.3667(4)
C133 C 0.9392(4) -0.0456(5) 0.3580(5)
H106 H 0.9549 -0.0705 0.3677
C134 C 0.9086(4) -0.0606(6) 0.3360(5)
H107 H 0.9036 -0.0953 0.3325
C135 C 0.8843(4) -0.0243(6) 0.3186(5)
H108 H 0.8629 -0.0345 0.3028
C136 C 0.9814(3) 0.0204(5) 0.3923(4)
C137 C 0.9893(3) 0.0641(5) 0.3806(4)
H109 H 0.9728 0.0839 0.3560
C138 C 1.0213(4) 0.0792(6) 0.4047(5)
C139 C 1.0448(4) 0.0515(6) 0.4408(5)
H110 H 1.0662 0.0623 0.4582
C140 C 1.0375(4) 0.0063(6) 0.4528(5)
H111 H 1.0540 -0.0138 0.4771
C141 C 1.0067(4) -0.0073(6) 0.4288(5)
H112 H 1.0020 -0.0371 0.4372
N28 N 1.0700(3) 0.1724(4) 0.4526(4)
C142 C 1.1012(4) 0.1747(6) 0.4759(5)
C143 C 1.1106(4) 0.1448(7) 0.4563(5)
H113 H 1.1315 0.1401 0.4664
C144 C 1.0838(4) 0.1242(7) 0.4201(5)
H114 H 1.0819 0.1013 0.3995
N29 N 1.0598(3) 0.1422(5) 0.4183(4)
C145 C 1.0261(4) 0.1252(6) 0.3875(5)
H115 H 1.0198 0.1181 0.3574
H116 H 1.0124 0.1525 0.3841
N30 N 1.1035(3) 0.2325(4) 0.5254(4)
C146 C 1.1208(4) 0.2086(6) 0.5158(5)
C147 C 1.1531(4) 0.2153(6) 0.5410(6)
H117 H 1.1645 0.1976 0.5338
C148 C 1.1685(4) 0.2481(7) 0.5770(6)
H118 H 1.1906 0.2540 0.5943
C149 C 1.1518(5) 0.2722(6) 0.5875(6)
H119 H 1.1621 0.2944 0.6125
C150 C 1.1192(4) 0.2634(5) 0.5607(5)
H120 H 1.1076 0.2803 0.5681
N31 N 0.8153(4) 0.4892(5) 0.1968(7)
C151 C 0.8240(6) 0.5095(7) 0.2362(9)
C152 C 0.8019(6) 0.5138(6) 0.2446(8)
H121 H 0.8074 0.5288 0.2712
C153 C 0.7717(5) 0.4944(7) 0.2108(9)
H122 H 0.7562 0.4970 0.2149
C154 C 0.7635(5) 0.4733(8) 0.1748(9)
H123 H 0.7427 0.4598 0.1532
C155 C 0.7854(5) 0.4706(7) 0.1680(8)
H124 H 0.7791 0.4547 0.1413
N32 N 0.8751(4) 0.5292(5) 0.2514(6)
C156 C 0.8572(6) 0.5327(7) 0.2658(9)
C157 C 0.8744(7) 0.5567(8) 0.3064(10)
H125 H 0.8678 0.5628 0.3237
C158 C 0.9017(6) 0.5699(7) 0.3173(9)
H126 H 0.9185 0.5874 0.3437
N33 N 0.9012(5) 0.5541(6) 0.2840(7)
C159 C 0.9261(5) 0.5594(7) 0.2802(8)
H127 H 0.9397 0.5882 0.2990
H128 H 0.9161 0.5674 0.2485
C160 C 0.9469(5) 0.5131(6) 0.2944(7)
C161 C 0.9483(4) 0.4765(6) 0.3212(6)
H129 H 0.9368 0.4800 0.3319
C162 C 0.9675(4) 0.4333(7) 0.3324(6)
C163 C 0.9839(4) 0.4278(7) 0.3171(6)
H130 H 0.9958 0.3980 0.3240
C164 C 0.9836(5) 0.4646(8) 0.2916(7)
H131 H 0.9959 0.4611 0.2821
C165 C 0.9645(5) 0.5081(8) 0.2796(7)
H132 H 0.9637 0.5337 0.2616
C166 C 0.9672(3) 0.3937(6) 0.3591(5)
C167 C 0.9700(3) 0.3433(6) 0.3531(5)
H133 H 0.9723 0.3344 0.3314
C168 C 0.9696(3) 0.3043(5) 0.3782(5)
C169 C 0.9674(3) 0.3170(5) 0.4099(5)
H134 H 0.9679 0.2914 0.4276
C170 C 0.9643(4) 0.3681(6) 0.4177(5)
H135 H 0.9618 0.3760 0.4394
C171 C 0.9650(3) 0.4067(6) 0.3935(5)
H136 H 0.9641 0.4409 0.3997
N34 N 1.0042(3) 0.1989(4) 0.4353(4)
N35 N 0.9743(3) 0.2140(4) 0.3974(4)
C172 C 0.9517(4) 0.1887(6) 0.3925(5)
H137 H 0.9296 0.1931 0.3689
C173 C 0.9655(4) 0.1546(6) 0.4273(5)
H138 H 0.9550 0.1311 0.4327
C174 C 0.9982(3) 0.1620(5) 0.4531(5)
C175 C 0.9710(3) 0.2511(5) 0.3663(4)
H139 H 0.9514 0.2437 0.3354
H140 H 0.9892 0.2477 0.3666
N36 N 1.0527(3) 0.1596(4) 0.5131(4)
C176 C 1.0251(4) 0.1364(5) 0.4929(4)
C177 C 1.0233(4) 0.0904(6) 0.5076(5)
H141 H 1.0033 0.0742 0.4919
C178 C 1.0500(4) 0.0679(6) 0.5446(5)
H142 H 1.0487 0.0363 0.5548
C179 C 1.0788(4) 0.0917(6) 0.5669(5)
H143 H 1.0977 0.0774 0.5930
C180 C 1.0793(4) 0.1375(6) 0.5499(5)
H144 H 1.0990 0.1540 0.5645
Cl1 Cl 0.86951(9) 0.23942(14) 0.28585(14)
O1 O 0.8995(3) 0.2649(5) 0.3139(5)
O2 O 0.8465(4) 0.2649(5) 0.2843(5)
O3 O 0.8579(3) 0.2407(4) 0.2405(4)
O4 O 0.8715(2) 0.1890(3) 0.3004(3)
Cl2 Cl 0.10900(10) 0.93651(14) 0.56844(13)
O5 O 0.1121(4) 0.9449(6) 0.5357(5)
O6 O 0.0788(3) 0.9173(5) 0.5471(5)
O7 O 0.1341(3) 0.9057(4) 0.6033(4)
O8 O 0.1105(3) 0.9840(4) 0.5879(4)
Cl3 Cl 0.0000 0.3341(2) 0.2500
O9 O -0.0096(4) 0.3018(6) 0.2698(6)
O10 O 0.0240(4) 0.3646(7) 0.2837(4)
O9F O 0.0096(4) 0.3018(6) 0.2302(6)
O10F O -0.0240(4) 0.3646(7) 0.2163(4)
Cl4 Cl 0.78917(19) 0.1038(3) 0.9425(2)
O11 O 0.7979(4) 0.0519(5) 0.9470(6)
O12 O 0.8108(3) 0.1333(6) 0.9841(4)
O13 O 0.7582(3) 0.1109(6) 0.9278(6)
O14 O 0.7917(4) 0.1270(7) 0.9098(5)
Cl6 Cl 0.74599(13) 0.38976(19) 0.44544(17)
O17 O 0.7370(6) 0.4100(13) 0.4069(8)
O18 O 0.7796(5) 0.3975(10) 0.4751(8)
O19 O 0.7326(4) 0.4110(5) 0.4621(6)
O20 O 0.7442(5) 0.3413(7) 0.4418(9)
Cl7 Cl 0.6321(4) 0.0284(7) 0.9812(5)
O21 O 0.6477(9) 0.0792(9) 1.0033(12)
O22 O 0.5992(5) 0.0392(13) 0.9458(9)
O23 O 0.6365(7) -0.0006(10) 1.0165(8)
O24 O 0.6476(6) 0.0079(10) 0.9659(8)
Cl8 Cl 0.8992(3) 0.7100(4) 0.2784(4)
O25 O 0.9224(6) 0.7246(13) 0.3274(7)
O26 O 0.9050(5) 0.6764(6) 0.2507(7)
O27 O 0.8805(5) 0.7506(6) 0.2383(7)
O28 O 0.8732(5) 0.6859(8) 0.2734(7)
Cl10 Cl 0.15158(18) 0.1750(2) 0.6728(2)
O31 O 0.1758(6) 0.2161(7) 0.6877(6)
O32 O 0.1206(5) 0.1942(8) 0.6472(6)
O33 O 0.1527(4) 0.1405(8) 0.6467(6)
O34 O 0.1613(4) 0.1522(8) 0.7118(5)
Cl11 Cl 0.9180(4) 0.4813(6) 0.4701(4)
O35 O 0.9116(6) 0.5180(9) 0.4348(7)
O36 O 0.8876(5) 0.4692(10) 0.4575(9)
O37 O 0.9376(5) 0.5083(9) 0.5125(6)
O38 O 0.9342(7) 0.4396(9) 0.4706(10)
Cl12 Cl 1.0000 0.0587(4) 0.2500
O39 O 0.9963(9) 0.0817(10) 0.2154(9)
O40 O 0.9762(7) 0.0204(11) 0.2364(10)
O39F O 1.0037(9) 0.0817(10) 0.2846(9)
O40F O 1.0238(7) 0.0204(11) 0.2636(10)
N37 N 0.7368(7) 0.2095(10) 0.8143(9)
C181 C 0.7593(8) 0.1872(9) 0.8249(8)
C182 C 0.7832(8) 0.1611(12) 0.8366(10)
N38 N 0.9650(3) 0.1835(5) 0.2881(5)
C183 C 0.9611(4) 0.1904(6) 0.2555(7)
C184 C 0.9575(4) 0.1956(8) 0.2136(6)
N39 N 0.6925(4) 0.4776(6) 0.1432(7)
C185 C 0.6725(6) 0.4554(8) 0.1125(9)
C186 C 0.6460(4) 0.4293(7) 0.0680(6)
O41 O 0.7500 0.2500 0.0000
O42 O 0.9148(10) 0.0301(17) 0.1396(14)
O43 O 0.5274(13) 0.049(2) 0.0802(18)
O44 O 0.8849(7) 0.3463(12) 0.6019(9)
O45 O 0.8400(5) 0.4153(11) 0.5508(7)
O46 O 0.9842(7) 0.9528(14) 0.1568(10)
O48 O 0.1266(12) 0.926(2) 0.4202(18)
O50 O 0.1291(10) 0.9912(19) 0.4717(15)
O51 O 0.5000 0.0000 0.0000
O52 O 0.5157(13) 0.133(2) 0.0983(18)
O53 O 0.4991(11) 0.2029(17) 0.1157(14)
O55 O 0.8421(11) 0.5351(18) 0.3698(15)
O56 O 0.8738(3) 0.6783(6) 0.3472(6)
O57 O 0.7081(11) 0.1234(18) 0.0195(15)
O58 O 0.7206(9) 0.1958(15) 0.8585(12)
O59 O 0.0456(12) 0.825(2) 0.1855(17)
O60 O 0.9420(10) 0.3682(16) 0.6116(14)
O61 O 0.8664(7) 0.5991(11) 0.3844(9)
loop_
_geom_bond_atom_site_label_1
_geom_bond_atom_site_label_2
_geom_bond_site_symmetry_1
_geom_bond_site_symmetry_2
Co1 N1 1_555 1_555
Co2 N4 1_555 1_555
Co3 N16 1_555 1_555
Co4 N10 1_555 1_555
Cl1 O1 1_555 1_555
O2 Cl1 1_555 1_555
O3 Cl1 1_555 1_555
O4 Cl1 1_555 1_555
Cl2 O5 1_555 1_555
O6 Cl2 1_555 1_555
O7 Cl2 1_555 1_555
O8 Cl2 1_555 1_555
Cl3 O9 1_555 1_555
O10 Cl3 1_555 1_555
Cl4 O11 1_555 1_555
O12 Cl4 1_555 1_555
O13 Cl4 1_555 1_555
O14 Cl4 1_555 1_555
Cl6 O17 1_555 1_555
O18 Cl6 1_555 1_555
O19 Cl6 1_555 1_555
O20 Cl6 1_555 1_555
Cl7 O21 1_555 1_555
O22 Cl7 1_555 1_555
O23 Cl7 1_555 1_555
O24 Cl7 1_555 1_555
Cl8 O25 1_555 1_555
O26 Cl8 1_555 1_555
O27 Cl8 1_555 1_555
O28 Cl8 1_555 1_555
Cl10 O31 1_555 1_555
O32 Cl10 1_555 1_555
O33 Cl10 1_555 1_555
O34 Cl10 1_555 1_555
Cl11 O35 1_555 1_555
O36 Cl11 1_555 1_555
O37 Cl11 1_555 1_555
O38 Cl11 1_555 1_555
Cl12 O39 1_555 1_555
O40 Cl12 1_555 1_555
N1 C1 1_555 1_555
C1 C2 1_555 1_555
C2 H1 1_555 1_555
C3 C2 1_555 1_555
H2 C3 1_555 1_555
C4 C3 1_555 1_555
H3 C4 1_555 1_555
C5 N1 1_555 1_555
H4 C5 1_555 1_555
N2 Co1 1_555 1_555
C6 C1 1_555 1_555
C7 C6 1_555 1_555
H5 C7 1_555 1_555
C8 C7 1_555 1_555
H6 C8 1_555 1_555
N3 N2 1_555 1_555
C9 N3 1_555 1_555
H7 C9 1_555 1_555
H8 C9 1_555 1_555
C10 C9 1_555 1_555
C11 C10 1_555 1_555
H9 C11 1_555 1_555
C12 C11 1_555 1_555
C13 C12 1_555 1_555
H10 C13 1_555 1_555
C14 C13 1_555 1_555
H11 C14 1_555 1_555
C15 C10 1_555 1_555
H12 C15 1_555 1_555
C16 C12 1_555 1_555
C17 C16 1_555 1_555
H13 C17 1_555 1_555
C18 C17 1_555 1_555
C19 C18 1_555 1_555
H14 C19 1_555 1_555
C20 C19 1_555 1_555
H15 C20 1_555 1_555
C21 C16 1_555 1_555
H16 C21 1_555 1_555
N4 C22 1_555 1_555
C22 C23 1_555 1_555
C23 H17 1_555 1_555
C24 C23 1_555 1_555
H18 C24 1_555 1_555
N5 N4 1_555 1_555
C25 C18 1_555 1_555
H19 C25 1_555 1_555
H20 C25 1_555 1_555
N6 Co2 1_555 1_555
C26 C22 1_555 1_555
C27 C26 1_555 1_555
H21 C27 1_555 1_555
C28 C27 1_555 1_555
H22 C28 1_555 1_555
C29 C28 1_555 1_555
H23 C29 1_555 1_555
C30 N6 1_555 1_555
H24 C30 1_555 1_555
N7 Co1 1_555 1_555
C31 N7 1_555 1_555
C32 C31 1_555 1_555
H25 C32 1_555 1_555
C33 C32 1_555 1_555
H26 C33 1_555 1_555
C34 C33 1_555 1_555
H27 C34 1_555 1_555
C35 N7 1_555 1_555
H28 C35 1_555 1_555
N8 Co1 1_555 1_555
C36 C31 1_555 1_555
C37 C36 1_555 1_555
H29 C37 1_555 1_555
C38 C37 1_555 1_555
H30 C38 1_555 1_555
N9 N8 1_555 1_555
C39 N9 1_555 1_555
H31 C39 1_555 1_555
H32 C39 1_555 1_555
C40 C41 1_555 1_555
C41 H33 1_555 1_555
C42 C39 1_555 1_555
C43 C42 1_555 1_555
H34 C43 1_555 1_555
C44 C43 1_555 1_555
H35 C44 1_555 1_555
C45 C40 1_555 1_555
H36 C45 1_555 1_555
C46 C47 1_555 1_555
C47 H37 1_555 1_555
C48 C40 1_555 1_555
C49 C48 1_555 1_555
H38 C49 1_555 1_555
C50 C49 1_555 1_555
H39 C50 1_555 1_555
C51 C46 1_555 1_555
H40 C51 1_555 1_555
N10 C52 1_555 1_555
C52 C53 1_555 1_555
C53 H41 1_555 1_555
C54 C53 1_555 1_555
H42 C54 1_555 1_555
N11 N10 1_555 1_555
C55 C46 1_555 1_555
H43 C55 1_555 1_555
H44 C55 1_555 1_555
N12 Co4 1_555 1_555
C56 C52 1_555 1_555
C57 C56 1_555 1_555
H45 C57 1_555 1_555
C58 C57 1_555 1_555
H46 C58 1_555 1_555
C59 C58 1_555 1_555
H47 C59 1_555 1_555
C60 N12 1_555 1_555
H48 C60 1_555 1_555
N13 Co1 1_555 1_555
C61 N13 1_555 1_555
C62 C61 1_555 1_555
H49 C62 1_555 1_555
C63 C62 1_555 1_555
H50 C63 1_555 1_555
C64 C63 1_555 1_555
H51 C64 1_555 1_555
C65 N13 1_555 1_555
H52 C65 1_555 1_555
N14 Co1 1_555 1_555
C66 C61 1_555 1_555
C67 C66 1_555 1_555
H53 C67 1_555 1_555
C68 C67 1_555 1_555
H54 C68 1_555 1_555
N15 N14 1_555 1_555
C69 N15 1_555 1_555
H55 C69 1_555 1_555
H56 C69 1_555 1_555
C70 C69 1_555 1_555
C71 C70 1_555 1_555
H57 C71 1_555 1_555
C72 C71 1_555 1_555
C73 C72 1_555 1_555
H58 C73 1_555 1_555
C74 C73 1_555 1_555
H59 C74 1_555 1_555
C75 C70 1_555 1_555
H60 C75 1_555 1_555
C76 C72 1_555 1_555
C77 C76 1_555 1_555
H61 C77 1_555 1_555
C78 C77 1_555 1_555
C79 C78 1_555 1_555
H62 C79 1_555 1_555
C80 C79 1_555 1_555
H63 C80 1_555 1_555
C81 C76 1_555 1_555
H64 C81 1_555 1_555
N16 C82 1_555 1_555
C82 C83 1_555 1_555
C83 H65 1_555 1_555
C84 C83 1_555 1_555
H66 C84 1_555 1_555
N17 N16 1_555 1_555
C85 C78 1_555 1_555
H67 C85 1_555 1_555
H68 C85 1_555 1_555
N18 Co3 1_555 1_555
C86 C82 1_555 1_555
C87 C86 1_555 1_555
H69 C87 1_555 1_555
C88 C87 1_555 1_555
H70 C88 1_555 1_555
C89 C88 1_555 1_555
H71 C89 1_555 1_555
C90 N18 1_555 1_555
H72 C90 1_555 1_555
N19 Co2 1_555 1_555
C91 N19 1_555 1_555
C92 C91 1_555 1_555
H73 C92 1_555 1_555
C93 C92 1_555 1_555
H74 C93 1_555 1_555
C94 C93 1_555 1_555
H75 C94 1_555 1_555
C95 N19 1_555 1_555
H76 C95 1_555 1_555
N20 Co2 1_555 1_555
C96 C91 1_555 1_555
C97 C96 1_555 1_555
H77 C97 1_555 1_555
C98 C97 1_555 1_555
H78 C98 1_555 1_555
N21 N20 1_555 1_555
C99 N21 1_555 1_555
H79 C99 1_555 1_555
H80 C99 1_555 1_555
C100 C99 1_555 1_555
C101 C100 1_555 1_555
H81 C101 1_555 1_555
C102 C101 1_555 1_555
C103 C102 1_555 1_555
H82 C103 1_555 1_555
C104 C103 1_555 1_555
H83 C104 1_555 1_555
C105 C100 1_555 1_555
H84 C105 1_555 1_555
C106 C102 1_555 1_555
C107 C106 1_555 1_555
H85 C107 1_555 1_555
C108 C107 1_555 1_555
C109 C108 1_555 1_555
H86 C109 1_555 1_555
C110 C109 1_555 1_555
H87 C110 1_555 1_555
C111 C106 1_555 1_555
H88 C111 1_555 1_555
N22 Co3 1_555 1_555
C112 N22 1_555 1_555
C113 C112 1_555 1_555
H89 C113 1_555 1_555
C114 C113 1_555 1_555
H90 C114 1_555 1_555
N23 N22 1_555 1_555
C115 C108 1_555 1_555
H91 C115 1_555 1_555
H92 C115 1_555 1_555
N24 Co3 1_555 1_555
C116 C112 1_555 1_555
C117 C116 1_555 1_555
H93 C117 1_555 1_555
C118 C117 1_555 1_555
H94 C118 1_555 1_555
C119 C118 1_555 1_555
H95 C119 1_555 1_555
C120 N24 1_555 1_555
H96 C120 1_555 1_555
N25 Co2 1_555 1_555
C121 N25 1_555 1_555
C122 C121 1_555 1_555
H97 C122 1_555 1_555
C123 C122 1_555 1_555
H98 C123 1_555 1_555
C124 C123 1_555 1_555
H99 C124 1_555 1_555
C125 N25 1_555 1_555
H100 C125 1_555 1_555
N26 Co2 1_555 1_555
C126 C121 1_555 1_555
C127 C126 1_555 1_555
H101 C127 1_555 1_555
C128 C127 1_555 1_555
H102 C128 1_555 1_555
N27 N26 1_555 1_555
C129 N27 1_555 1_555
H103 C129 1_555 1_555
H104 C129 1_555 1_555
C130 C129 1_555 1_555
C131 C130 1_555 1_555
H105 C131 1_555 1_555
C132 C131 1_555 1_555
C133 C132 1_555 1_555
H106 C133 1_555 1_555
C134 C133 1_555 1_555
H107 C134 1_555 1_555
C135 C130 1_555 1_555
H108 C135 1_555 1_555
C136 C132 1_555 1_555
C137 C136 1_555 1_555
H109 C137 1_555 1_555
C138 C137 1_555 1_555
C139 C138 1_555 1_555
H110 C139 1_555 1_555
C140 C139 1_555 1_555
H111 C140 1_555 1_555
C141 C136 1_555 1_555
H112 C141 1_555 1_555
N28 Co4 1_555 1_555
C142 N28 1_555 1_555
C143 C142 1_555 1_555
H113 C143 1_555 1_555
C144 C143 1_555 1_555
H114 C144 1_555 1_555
N29 N28 1_555 1_555
C145 C138 1_555 1_555
H115 C145 1_555 1_555
H116 C145 1_555 1_555
N30 Co4 1_555 1_555
C146 C142 1_555 1_555
C147 C146 1_555 1_555
H117 C147 1_555 1_555
C148 C147 1_555 1_555
H118 C148 1_555 1_555
C149 C148 1_555 1_555
H119 C149 1_555 1_555
C150 N30 1_555 1_555
H120 C150 1_555 1_555
N31 Co3 1_555 1_555
C151 N31 1_555 1_555
C152 C151 1_555 1_555
H121 C152 1_555 1_555
C153 C152 1_555 1_555
H122 C153 1_555 1_555
C154 C153 1_555 1_555
H123 C154 1_555 1_555
C155 N31 1_555 1_555
H124 C155 1_555 1_555
N32 Co3 1_555 1_555
C156 C151 1_555 1_555
C157 C156 1_555 1_555
H125 C157 1_555 1_555
C158 C157 1_555 1_555
H126 C158 1_555 1_555
N33 N32 1_555 1_555
C159 N33 1_555 1_555
H127 C159 1_555 1_555
H128 C159 1_555 1_555
C160 C159 1_555 1_555
C161 C160 1_555 1_555
H129 C161 1_555 1_555
C162 C161 1_555 1_555
C163 C162 1_555 1_555
H130 C163 1_555 1_555
C164 C163 1_555 1_555
H131 C164 1_555 1_555
C165 C160 1_555 1_555
H132 C165 1_555 1_555
C166 C162 1_555 1_555
C167 C166 1_555 1_555
H133 C167 1_555 1_555
C168 C167 1_555 1_555
C169 C168 1_555 1_555
H134 C169 1_555 1_555
C170 C169 1_555 1_555
H135 C170 1_555 1_555
C171 C166 1_555 1_555
H136 C171 1_555 1_555
N34 Co4 1_555 1_555
N35 N34 1_555 1_555
C172 N35 1_555 1_555
H137 C172 1_555 1_555
C173 C172 1_555 1_555
H138 C173 1_555 1_555
C174 N34 1_555 1_555
C175 C168 1_555 1_555
H139 C175 1_555 1_555
H140 C175 1_555 1_555
N36 Co4 1_555 1_555
C176 C174 1_555 1_555
C177 C176 1_555 1_555
H141 C177 1_555 1_555
C178 C177 1_555 1_555
H142 C178 1_555 1_555
C179 C178 1_555 1_555
H143 C179 1_555 1_555
C180 N36 1_555 1_555
H144 C180 1_555 1_555
N37 C181 1_555 1_555
C181 C182 1_555 1_555
N38 C183 1_555 1_555
C183 C184 1_555 1_555
N39 C185 1_555 1_555
C185 C186 1_555 1_555
O9F Cl3 1_555 1_555
O10F Cl3 1_555 1_555
O39F Cl12 1_555 1_555
O40F Cl12 1_555 1_555
C4 C5 1_555 1_555
N2 C6 1_555 1_555
C8 N3 1_555 1_555
C14 C15 1_555 1_555
C20 C21 1_555 1_555
C24 N5 1_555 1_555
N5 C25 1_555 1_555
N6 C26 1_555 1_555
C29 C30 1_555 1_555
C34 C35 1_555 1_555
N8 C36 1_555 1_555
C38 N9 1_555 1_555
C41 C42 1_555 1_555
C44 C45 1_555 1_555
C47 C48 1_555 1_555
C50 C51 1_555 1_555
C54 N11 1_555 1_555
N11 C55 1_555 1_555
N12 C56 1_555 1_555
C59 C60 1_555 1_555
C64 C65 1_555 1_555
N14 C66 1_555 1_555
C68 N15 1_555 1_555
C74 C75 1_555 1_555
C80 C81 1_555 1_555
C84 N17 1_555 1_555
N17 C85 1_555 1_555
N18 C86 1_555 1_555
C89 C90 1_555 1_555
C94 C95 1_555 1_555
N20 C96 1_555 1_555
C98 N21 1_555 1_555
C104 C105 1_555 1_555
C110 C111 1_555 1_555
C114 N23 1_555 1_555
N23 C115 1_555 1_555
N24 C116 1_555 1_555
C119 C120 1_555 1_555
C124 C125 1_555 1_555
N26 C126 1_555 1_555
C128 N27 1_555 1_555
C134 C135 1_555 1_555
C140 C141 1_555 1_555
C144 N29 1_555 1_555
N29 C145 1_555 1_555
N30 C146 1_555 1_555
C149 C150 1_555 1_555
C154 C155 1_555 1_555
N32 C156 1_555 1_555
C158 N33 1_555 1_555
C164 C165 1_555 1_555
C170 C171 1_555 1_555
N35 C175 1_555 1_555
C173 C174 1_555 1_555
N36 C176 1_555 1_555
C179 C180 1_555 1_555

#END
