# generated using pymatgen
data_Co4H144C186N39Cl11O60
_symmetry_space_group_name_H-M   'P 1'
_cell_length_a   26.61500000
_cell_length_b   30.33115712
_cell_length_c   32.66520749
_cell_angle_alpha   74.95762708
_cell_angle_beta   65.95897564
_cell_angle_gamma   63.97646713
_symmetry_Int_Tables_number   1
_chemical_formula_structural   Co4H144C186N39Cl11O60
_chemical_formula_sum   'Co16 H576 C744 N156 Cl44 O240'
_cell_volume   21535.28522362
_cell_formula_units_Z   4
loop_
 _symmetry_equiv_pos_site_id
 _symmetry_equiv_pos_as_xyz
  1  'x, y, z'
loop_
 _atom_site_type_symbol
 _atom_site_label
 _atom_site_symmetry_multiplicity
 _atom_site_fract_x
 _atom_site_fract_y
 _atom_site_fract_z
 _atom_site_occupancy
  C  C1  1  0.011400  0.111100  0.486700  1
  C  C2  1  0.390800  0.611100  0.986700  1
  C  C3  1  0.988600  0.888900  0.513300  1
  C  C4  1  0.609200  0.388900  0.013300  1
  C  C5  1  0.016800  0.070800  0.519200  1
  C  C6  1  0.393200  0.570800  0.019200  1
  C  C7  1  0.983200  0.929200  0.480800  1
  C  C8  1  0.606800  0.429200  0.980800  1
  C  C9  1  0.969100  0.056600  0.547800  1
  C  C10  1  0.426500  0.556600  0.047800  1
  C  C11  1  0.030900  0.943400  0.452200  1
  C  C12  1  0.573500  0.443400  0.952200  1
  C  C13  1  0.914800  0.083200  0.534200  1
  C  C14  1  0.467800  0.583200  0.034200  1
  C  C15  1  0.085200  0.916800  0.465800  1
  C  C16  1  0.532200  0.416800  0.965800  1
  C  C17  1  0.914600  0.121800  0.499000  1
  C  C18  1  0.464600  0.621800  0.999000  1
  C  C19  1  0.085400  0.878200  0.501000  1
  C  C20  1  0.535400  0.378200  0.001000  1
  C  C21  1  0.055500  0.128500  0.461500  1
  C  C22  1  0.354500  0.628500  0.961500  1
  C  C23  1  0.944500  0.871500  0.538500  1
  C  C24  1  0.645500  0.371500  0.038500  1
  C  C25  1  0.112500  0.115800  0.463800  1
  C  C26  1  0.307900  0.615800  0.963800  1
  C  C27  1  0.887500  0.884200  0.536200  1
  C  C28  1  0.692100  0.384200  0.036200  1
  C  C29  1  0.139600  0.143600  0.431800  1
  C  C30  1  0.285000  0.643600  0.931800  1
  C  C31  1  0.860400  0.856400  0.568200  1
  C  C32  1  0.715000  0.356400  0.068200  1
  C  C33  1  0.106500  0.212000  0.375000  1
  C  C34  1  0.306500  0.712000  0.875000  1
  C  C35  1  0.893500  0.788000  0.625000  1
  C  C36  1  0.693500  0.288000  0.125000  1
  C  C37  1  0.120900  0.196300  0.330300  1
  C  C38  1  0.352500  0.696300  0.830300  1
  C  C39  1  0.879100  0.803700  0.669700  1
  C  C40  1  0.647500  0.303700  0.169700  1
  C  C41  1  0.117600  0.230900  0.294300  1
  C  C42  1  0.357200  0.730900  0.794300  1
  C  C43  1  0.882400  0.769100  0.705700  1
  C  C44  1  0.642800  0.269100  0.205700  1
  C  C45  1  0.129300  0.221600  0.250200  1
  C  C46  1  0.398900  0.721600  0.750200  1
  C  C47  1  0.870700  0.778400  0.749800  1
  C  C48  1  0.601100  0.278400  0.249800  1
  C  C49  1  0.148600  0.172400  0.245200  1
  C  C50  1  0.433800  0.672400  0.745200  1
  C  C51  1  0.851400  0.827600  0.754800  1
  C  C52  1  0.566200  0.327600  0.254800  1
  C  C53  1  0.151100  0.137500  0.280300  1
  C  C54  1  0.431100  0.637500  0.780300  1
  C  C55  1  0.848900  0.862500  0.719700  1
  C  C56  1  0.568900  0.362500  0.219700  1
  C  C57  1  0.139700  0.147000  0.322600  1
  C  C58  1  0.390700  0.647000  0.822600  1
  C  C59  1  0.860300  0.853000  0.677400  1
  C  C60  1  0.609300  0.353000  0.177400  1
  C  C61  1  0.124300  0.260700  0.213700  1
  C  C62  1  0.401300  0.760700  0.713700  1
  C  C63  1  0.875700  0.739300  0.786300  1
  C  C64  1  0.598700  0.239300  0.286300  1
  C  C65  1  0.083400  0.309500  0.220100  1
  C  C66  1  0.387000  0.809500  0.720100  1
  C  C67  1  0.916600  0.690500  0.779900  1
  C  C68  1  0.613000  0.190500  0.279900  1
  C  C69  1  0.076900  0.347500  0.186100  1
  C  C70  1  0.389500  0.847500  0.686100  1
  C  C71  1  0.923100  0.652500  0.813900  1
  C  C72  1  0.610500  0.152500  0.313900  1
  C  C73  1  0.110900  0.339800  0.142400  1
  C  C74  1  0.406900  0.839800  0.642400  1
  C  C75  1  0.889100  0.660200  0.857600  1
  C  C76  1  0.593100  0.160200  0.357600  1
  C  C77  1  0.152100  0.292000  0.134400  1
  C  C78  1  0.421500  0.792000  0.634400  1
  C  C79  1  0.847900  0.708000  0.865600  1
  C  C80  1  0.578500  0.208000  0.365600  1
  C  C81  1  0.158600  0.254200  0.168600  1
  C  C82  1  0.418600  0.754200  0.668600  1
  C  C83  1  0.841400  0.745800  0.831400  1
  C  C84  1  0.581400  0.245800  0.331400  1
  C  C85  1  0.071300  0.486600  0.117200  1
  C  C86  1  0.324900  0.986600  0.617200  1
  C  C87  1  0.928700  0.513400  0.882800  1
  C  C88  1  0.675100  0.013400  0.382800  1
  C  C89  1  0.030600  0.482500  0.101700  1
  C  C90  1  0.385200  0.982500  0.601700  1
  C  C91  1  0.969400  0.517500  0.898300  1
  C  C92  1  0.614800  0.017500  0.398300  1
  C  C93  1  0.008200  0.449800  0.132400  1
  C  C94  1  0.409600  0.949800  0.632400  1
  C  C95  1  0.991800  0.550200  0.867600  1
  C  C96  1  0.590400  0.050200  0.367600  1
  C  C97  1  0.030400  0.395600  0.199800  1
  C  C98  1  0.374200  0.895600  0.699800  1
  C  C99  1  0.969600  0.604400  0.800200  1
  C  C100  1  0.625800  0.104400  0.300200  1
  C  C101  1  0.109500  0.514400  0.098400  1
  C  C102  1  0.277700  0.014400  0.598400  1
  C  C103  1  0.890500  0.485600  0.901600  1
  C  C104  1  0.722300  0.985600  0.401600  1
  C  C105  1  0.114300  0.547900  0.056500  1
  C  C106  1  0.281300  0.047900  0.556500  1
  C  C107  1  0.885700  0.452100  0.943500  1
  C  C108  1  0.718700  0.952100  0.443500  1
  C  C109  1  0.148700  0.571600  0.045800  1
  C  C110  1  0.233900  0.071600  0.545800  1
  C  C111  1  0.851300  0.428400  0.954200  1
  C  C112  1  0.766100  0.928400  0.454200  1
  C  C113  1  0.181800  0.568100  0.069100  1
  C  C114  1  0.181000  0.068100  0.569100  1
  C  C115  1  0.818200  0.431900  0.930900  1
  C  C116  1  0.819000  0.931900  0.430900  1
  C  C117  1  0.176800  0.533100  0.107700  1
  C  C118  1  0.182400  0.033100  0.607700  1
  C  C119  1  0.823200  0.466900  0.892300  1
  C  C120  1  0.817600  0.966900  0.392300  1
  C  C121  1  0.997600  0.165200  0.331200  1
  C  C122  1  0.506000  0.665200  0.831200  1
  C  C123  1  0.002400  0.834800  0.668800  1
  C  C124  1  0.494000  0.334800  0.168800  1
  C  C125  1  0.019100  0.138700  0.296900  1
  C  C126  1  0.545300  0.638700  0.796900  1
  C  C127  1  0.980900  0.861300  0.703100  1
  C  C128  1  0.454700  0.361300  0.203100  1
  C  C129  1  0.037700  0.086100  0.304300  1
  C  C130  1  0.571900  0.586100  0.804300  1
  C  C131  1  0.962300  0.913900  0.695700  1
  C  C132  1  0.428100  0.413900  0.195700  1
  C  C133  1  0.031400  0.064100  0.347100  1
  C  C134  1  0.557400  0.564100  0.847100  1
  C  C135  1  0.968600  0.935900  0.652900  1
  C  C136  1  0.442600  0.435900  0.152900  1
  C  C137  1  0.007800  0.094500  0.382900  1
  C  C138  1  0.514800  0.594500  0.882900  1
  C  C139  1  0.992200  0.905500  0.617100  1
  C  C140  1  0.485200  0.405500  0.117100  1
  C  C141  1  0.977700  0.218600  0.327000  1
  C  C142  1  0.476700  0.718600  0.827000  1
  C  C143  1  0.022300  0.781400  0.673000  1
  C  C144  1  0.523300  0.281400  0.173000  1
  C  C145  1  0.967700  0.252300  0.289900  1
  C  C146  1  0.490100  0.752300  0.789900  1
  C  C147  1  0.032300  0.747700  0.710100  1
  C  C148  1  0.509900  0.247700  0.210100  1
  C  C149  1  0.950600  0.297600  0.304800  1
  C  C150  1  0.447000  0.797600  0.804800  1
  C  C151  1  0.049400  0.702400  0.695200  1
  C  C152  1  0.553000  0.202400  0.195200  1
  C  C153  1  0.941200  0.328000  0.371600  1
  C  C154  1  0.359200  0.828000  0.871600  1
  C  C155  1  0.058800  0.672000  0.628400  1
  C  C156  1  0.640800  0.172000  0.128400  1
  C  C157  1  0.814000  0.398600  0.468800  1
  C  C158  1  0.318600  0.898600  0.968800  1
  C  C159  1  0.186000  0.601400  0.531200  1
  C  C160  1  0.681400  0.101400  0.031200  1
  C  C161  1  0.869400  0.376100  0.438300  1
  C  C162  1  0.316200  0.876100  0.938300  1
  C  C163  1  0.130600  0.623900  0.561700  1
  C  C164  1  0.683800  0.123900  0.061700  1
  C  C165  1  0.878500  0.350300  0.406100  1
  C  C166  1  0.365100  0.850300  0.906100  1
  C  C167  1  0.121500  0.649700  0.593900  1
  C  C168  1  0.634900  0.149700  0.093900  1
  C  C169  1  0.829100  0.347200  0.403200  1
  C  C170  1  0.420500  0.847200  0.903200  1
  C  C171  1  0.170900  0.652800  0.596800  1
  C  C172  1  0.579500  0.152800  0.096800  1
  C  C173  1  0.774000  0.369200  0.432800  1
  C  C174  1  0.424000  0.869200  0.932800  1
  C  C175  1  0.226000  0.630800  0.567200  1
  C  C176  1  0.576000  0.130800  0.067200  1
  C  C177  1  0.766100  0.393100  0.466300  1
  C  C178  1  0.374500  0.893100  0.966300  1
  C  C179  1  0.233900  0.606900  0.533700  1
  C  C180  1  0.625500  0.106900  0.033700  1
  C  C181  1  0.744600  0.490800  0.554200  1
  C  C182  1  0.210400  0.990800  0.054200  1
  C  C183  1  0.255400  0.509200  0.445800  1
  C  C184  1  0.789600  0.009200  0.945800  1
  C  C185  1  0.753700  0.466000  0.520200  1
  C  C186  1  0.260100  0.966000  0.020200  1
  C  C187  1  0.246300  0.534000  0.479800  1
  C  C188  1  0.739900  0.034000  0.979800  1
  C  C189  1  0.807200  0.424700  0.503900  1
  C  C190  1  0.264200  0.924700  0.003900  1
  C  C191  1  0.192800  0.575300  0.496100  1
  C  C192  1  0.735800  0.075300  0.996100  1
  C  C193  1  0.851400  0.413100  0.521100  1
  C  C194  1  0.214400  0.913100  0.021100  1
  C  C195  1  0.148600  0.586900  0.478900  1
  C  C196  1  0.785600  0.086900  0.978900  1
  C  C197  1  0.843600  0.437000  0.554800  1
  C  C198  1  0.164600  0.937000  0.054800  1
  C  C199  1  0.156400  0.563000  0.445200  1
  C  C200  1  0.835400  0.063000  0.945200  1
  C  C201  1  0.790500  0.477400  0.571400  1
  C  C202  1  0.160700  0.977400  0.071400  1
  C  C203  1  0.209500  0.522600  0.428600  1
  C  C204  1  0.839300  0.022600  0.928600  1
  C  C205  1  0.621800  0.605800  0.490000  1
  C  C206  1  0.282400  0.105800  0.990000  1
  C  C207  1  0.378200  0.394200  0.510000  1
  C  C208  1  0.717600  0.894200  0.010000  1
  C  C209  1  0.582400  0.582900  0.514300  1
  C  C210  1  0.320400  0.082900  0.014300  1
  C  C211  1  0.417600  0.417100  0.485700  1
  C  C212  1  0.679600  0.917100  0.985700  1
  C  C213  1  0.602100  0.552600  0.547000  1
  C  C214  1  0.298300  0.052600  0.047000  1
  C  C215  1  0.397900  0.447400  0.453000  1
  C  C216  1  0.701700  0.947400  0.953000  1
  C  C217  1  0.687100  0.534800  0.573000  1
  C  C218  1  0.205100  0.034800  0.073000  1
  C  C219  1  0.312900  0.465200  0.427000  1
  C  C220  1  0.794900  0.965200  0.927000  1
  C  C221  1  0.623000  0.643800  0.452600  1
  C  C222  1  0.280600  0.143800  0.952600  1
  C  C223  1  0.377000  0.356200  0.547400  1
  C  C224  1  0.719400  0.856200  0.047400  1
  C  C225  1  0.574300  0.666900  0.436300  1
  C  C226  1  0.322500  0.166900  0.936300  1
  C  C227  1  0.425700  0.333100  0.563700  1
  C  C228  1  0.677500  0.833100  0.063700  1
  C  C229  1  0.575600  0.701300  0.403100  1
  C  C230  1  0.320000  0.201300  0.903100  1
  C  C231  1  0.424400  0.298700  0.596900  1
  C  C232  1  0.680000  0.798700  0.096900  1
  C  C233  1  0.625300  0.719000  0.384800  1
  C  C234  1  0.270900  0.219000  0.884800  1
  C  C235  1  0.374700  0.281000  0.615200  1
  C  C236  1  0.729100  0.781000  0.115200  1
  C  C237  1  0.671200  0.695000  0.404800  1
  C  C238  1  0.229000  0.195000  0.904800  1
  C  C239  1  0.328800  0.305000  0.595200  1
  C  C240  1  0.771000  0.805000  0.095200  1
  C  C241  1  0.865700  0.259500  0.493700  1
  C  C242  1  0.381100  0.759500  0.993700  1
  C  C243  1  0.134300  0.740500  0.506300  1
  C  C244  1  0.618900  0.240500  0.006300  1
  C  C245  1  0.840000  0.280800  0.532400  1
  C  C246  1  0.346800  0.780800  0.032400  1
  C  C247  1  0.160000  0.719200  0.467600  1
  C  C248  1  0.653200  0.219200  0.967600  1
  C  C249  1  0.872100  0.292900  0.547700  1
  C  C250  1  0.287300  0.792900  0.047700  1
  C  C251  1  0.127900  0.707100  0.452300  1
  C  C252  1  0.712700  0.207100  0.952300  1
  C  C253  1  0.932700  0.281600  0.524200  1
  C  C254  1  0.261500  0.781600  0.024200  1
  C  C255  1  0.067300  0.718400  0.475800  1
  C  C256  1  0.738500  0.218400  0.975800  1
  C  C257  1  0.955200  0.258300  0.486100  1
  C  C258  1  0.300400  0.758300  0.986100  1
  C  C259  1  0.044800  0.741700  0.513900  1
  C  C260  1  0.699600  0.241700  0.013900  1
  C  C261  1  0.835200  0.241700  0.476300  1
  C  C262  1  0.446800  0.741700  0.976300  1
  C  C263  1  0.164800  0.758300  0.523700  1
  C  C264  1  0.553200  0.258300  0.023700  1
  C  C265  1  0.773400  0.248300  0.492500  1
  C  C266  1  0.485800  0.748300  0.992500  1
  C  C267  1  0.226600  0.751700  0.507500  1
  C  C268  1  0.514200  0.251700  0.007500  1
  C  C269  1  0.771000  0.225200  0.464600  1
  C  C270  1  0.539200  0.725200  0.964600  1
  C  C271  1  0.229000  0.774800  0.535400  1
  C  C272  1  0.460800  0.274800  0.035400  1
  C  C273  1  0.841200  0.179600  0.398000  1
  C  C274  1  0.581200  0.679600  0.898000  1
  C  C275  1  0.158800  0.820400  0.602000  1
  C  C276  1  0.418800  0.320400  0.102000  1
  C  C277  1  0.841000  0.209400  0.352400  1
  C  C278  1  0.597200  0.709400  0.852400  1
  C  C279  1  0.159000  0.790600  0.647600  1
  C  C280  1  0.402800  0.290600  0.147600  1
  C  C281  1  0.806200  0.261800  0.352600  1
  C  C282  1  0.579400  0.761800  0.852600  1
  C  C283  1  0.193800  0.738200  0.647400  1
  C  C284  1  0.420600  0.238200  0.147400  1
  C  C285  1  0.803000  0.290400  0.311800  1
  C  C286  1  0.594800  0.790400  0.811800  1
  C  C287  1  0.197000  0.709600  0.688200  1
  C  C288  1  0.405200  0.209600  0.188200  1
  C  C289  1  0.832500  0.266700  0.271700  1
  C  C290  1  0.629100  0.766700  0.771700  1
  C  C291  1  0.167500  0.733300  0.728300  1
  C  C292  1  0.370900  0.233300  0.228300  1
  C  C293  1  0.863500  0.216800  0.273600  1
  C  C294  1  0.646100  0.716800  0.773600  1
  C  C295  1  0.136500  0.783200  0.726400  1
  C  C296  1  0.353900  0.283200  0.226400  1
  C  C297  1  0.868000  0.188500  0.312500  1
  C  C298  1  0.631000  0.688500  0.812500  1
  C  C299  1  0.132000  0.811500  0.687500  1
  C  C300  1  0.369000  0.311500  0.187500  1
  C  C301  1  0.769200  0.344400  0.311000  1
  C  C302  1  0.575400  0.844400  0.811000  1
  C  C303  1  0.230800  0.655600  0.689000  1
  C  C304  1  0.424600  0.155600  0.189000  1
  C  C305  1  0.789300  0.375400  0.275000  1
  C  C306  1  0.560300  0.875400  0.775000  1
  C  C307  1  0.210700  0.624600  0.725000  1
  C  C308  1  0.439700  0.124600  0.225000  1
  C  C309  1  0.761000  0.427400  0.272200  1
  C  C310  1  0.539400  0.927400  0.772200  1
  C  C311  1  0.239000  0.572600  0.727800  1
  C  C312  1  0.460600  0.072600  0.227800  1
  C  C313  1  0.710600  0.446700  0.308900  1
  C  C314  1  0.533800  0.946700  0.808900  1
  C  C315  1  0.289400  0.553300  0.691100  1
  C  C316  1  0.466200  0.053300  0.191100  1
  C  C317  1  0.689500  0.415900  0.346300  1
  C  C318  1  0.548300  0.915900  0.846300  1
  C  C319  1  0.310500  0.584100  0.653700  1
  C  C320  1  0.451700  0.084100  0.153700  1
  C  C321  1  0.717700  0.366200  0.346600  1
  C  C322  1  0.569500  0.866200  0.846600  1
  C  C323  1  0.282300  0.633800  0.653400  1
  C  C324  1  0.430500  0.133800  0.153400  1
  C  C325  1  0.689900  0.580500  0.210100  1
  C  C326  1  0.519500  0.080500  0.710100  1
  C  C327  1  0.310100  0.419500  0.789900  1
  C  C328  1  0.480500  0.919500  0.289900  1
  C  C329  1  0.722500  0.591600  0.229000  1
  C  C330  1  0.456900  0.091600  0.729000  1
  C  C331  1  0.277500  0.408400  0.771000  1
  C  C332  1  0.543100  0.908400  0.271000  1
  C  C333  1  0.760800  0.545400  0.240800  1
  C  C334  1  0.453000  0.045400  0.740800  1
  C  C335  1  0.239200  0.454600  0.759200  1
  C  C336  1  0.547000  0.954600  0.259200  1
  C  C337  1  0.787800  0.456000  0.232200  1
  C  C338  1  0.524000  0.956000  0.732200  1
  C  C339  1  0.212200  0.544000  0.767800  1
  C  C340  1  0.476000  0.044000  0.267800  1
  C  C341  1  0.645500  0.612600  0.189400  1
  C  C342  1  0.552500  0.112600  0.689400  1
  C  C343  1  0.354500  0.387400  0.810600  1
  C  C344  1  0.447500  0.887400  0.310600  1
  C  C345  1  0.632900  0.663000  0.182200  1
  C  C346  1  0.521900  0.163000  0.682200  1
  C  C347  1  0.367100  0.337000  0.817800  1
  C  C348  1  0.478100  0.837000  0.317800  1
  C  C349  1  0.589600  0.691600  0.161000  1
  C  C350  1  0.557800  0.191600  0.661000  1
  C  C351  1  0.410400  0.308400  0.839000  1
  C  C352  1  0.442200  0.808400  0.339000  1
  C  C353  1  0.559600  0.668800  0.151000  1
  C  C354  1  0.620600  0.168800  0.651000  1
  C  C355  1  0.440400  0.331200  0.849000  1
  C  C356  1  0.379400  0.831200  0.349000  1
  C  C357  1  0.577700  0.618200  0.160600  1
  C  C358  1  0.643500  0.118200  0.660600  1
  C  C359  1  0.422300  0.381800  0.839400  1
  C  C360  1  0.356500  0.881800  0.339400  1
  C  C361  1  0.167000  0.516600  0.221600  1
  C  C362  1  0.094800  0.016600  0.721600  1
  C  C363  1  0.833000  0.483400  0.778400  1
  C  C364  1  0.905200  0.983400  0.278400  1
  C  C365  1  0.202000  0.532200  0.229800  1
  C  C366  1  0.036000  0.032200  0.729800  1
  C  C367  1  0.798000  0.467800  0.770200  1
  C  C368  1  0.964000  0.967800  0.270200  1
  C  C369  1  0.262800  0.504100  0.216300  1
  C  C370  1  0.016800  0.004100  0.716300  1
  C  C371  1  0.737200  0.495900  0.783700  1
  C  C372  1  0.983200  0.995900  0.283700  1
  C  C373  1  0.286400  0.462300  0.194900  1
  C  C374  1  0.056400  0.962300  0.694900  1
  C  C375  1  0.713600  0.537700  0.805100  1
  C  C376  1  0.943600  0.037700  0.305100  1
  C  C377  1  0.247200  0.449700  0.187900  1
  C  C378  1  0.115200  0.949700  0.687900  1
  C  C379  1  0.752800  0.550300  0.812100  1
  C  C380  1  0.884800  0.050300  0.312100  1
  C  C381  1  0.103000  0.540900  0.233100  1
  C  C382  1  0.123000  0.040900  0.733100  1
  C  C383  1  0.897000  0.459100  0.766900  1
  C  C384  1  0.877000  0.959100  0.266900  1
  C  C385  1  0.063400  0.583900  0.253700  1
  C  C386  1  0.099000  0.083900  0.753700  1
  C  C387  1  0.936600  0.416100  0.746300  1
  C  C388  1  0.901000  0.916100  0.246300  1
  C  C389  1  0.009000  0.589200  0.256600  1
  C  C390  1  0.145200  0.089200  0.756600  1
  C  C391  1  0.991000  0.410800  0.743400  1
  C  C392  1  0.854800  0.910800  0.243400  1
  C  C393  1  0.970000  0.544500  0.229300  1
  C  C394  1  0.256200  0.044500  0.729300  1
  C  C395  1  0.030000  0.455500  0.770700  1
  C  C396  1  0.743800  0.955500  0.270700  1
  C  C397  1  0.961000  0.573300  0.186500  1
  C  C398  1  0.279200  0.073300  0.686500  1
  C  C399  1  0.039000  0.426700  0.813500  1
  C  C400  1  0.720800  0.926700  0.313500  1
  C  C401  1  0.916000  0.574500  0.173500  1
  C  C402  1  0.336000  0.074500  0.673500  1
  C  C403  1  0.084000  0.425500  0.826500  1
  C  C404  1  0.664000  0.925500  0.326500  1
  C  C405  1  0.903100  0.602000  0.136200  1
  C  C406  1  0.358700  0.102000  0.636200  1
  C  C407  1  0.096900  0.398000  0.863800  1
  C  C408  1  0.641300  0.898000  0.363800  1
  C  C409  1  0.939100  0.628800  0.109000  1
  C  C410  1  0.323100  0.128800  0.609000  1
  C  C411  1  0.060900  0.371200  0.891000  1
  C  C412  1  0.676900  0.871200  0.391000  1
  C  C413  1  0.984500  0.628600  0.120600  1
  C  C414  1  0.266300  0.128600  0.620600  1
  C  C415  1  0.015500  0.371400  0.879400  1
  C  C416  1  0.733700  0.871400  0.379400  1
  C  C417  1  0.994500  0.601500  0.158900  1
  C  C418  1  0.245100  0.101500  0.658900  1
  C  C419  1  0.005500  0.398500  0.841100  1
  C  C420  1  0.754900  0.898500  0.341100  1
  C  C421  1  0.855700  0.603800  0.124000  1
  C  C422  1  0.416500  0.103800  0.624000  1
  C  C423  1  0.144300  0.396200  0.876000  1
  C  C424  1  0.583500  0.896200  0.376000  1
  C  C425  1  0.850800  0.559000  0.124200  1
  C  C426  1  0.466000  0.059000  0.624200  1
  C  C427  1  0.149200  0.441000  0.875800  1
  C  C428  1  0.534000  0.941000  0.375800  1
  C  C429  1  0.808800  0.560400  0.109000  1
  C  C430  1  0.521800  0.060400  0.609000  1
  C  C431  1  0.191200  0.439600  0.891000  1
  C  C432  1  0.478200  0.939600  0.391000  1
  C  C433  1  0.767400  0.605200  0.097400  1
  C  C434  1  0.530000  0.105200  0.597400  1
  C  C435  1  0.232600  0.394800  0.902600  1
  C  C436  1  0.470000  0.894800  0.402600  1
  C  C437  1  0.771800  0.648700  0.097900  1
  C  C438  1  0.481600  0.148700  0.597900  1
  C  C439  1  0.228200  0.351300  0.902100  1
  C  C440  1  0.518400  0.851300  0.402100  1
  C  C441  1  0.814900  0.647900  0.111700  1
  C  C442  1  0.425500  0.147900  0.611700  1
  C  C443  1  0.185100  0.352100  0.888300  1
  C  C444  1  0.574500  0.852100  0.388300  1
  C  C445  1  0.686800  0.509700  0.089100  1
  C  C446  1  0.714400  0.009700  0.589100  1
  C  C447  1  0.313200  0.490300  0.910900  1
  C  C448  1  0.285600  0.990300  0.410900  1
  C  C449  1  0.723200  0.511000  0.043800  1
  C  C450  1  0.722000  0.011000  0.543800  1
  C  C451  1  0.276800  0.489000  0.956200  1
  C  C452  1  0.278000  0.989000  0.456200  1
  C  C453  1  0.775300  0.511700  0.044300  1
  C  C454  1  0.668700  0.011700  0.544300  1
  C  C455  1  0.224700  0.488300  0.955700  1
  C  C456  1  0.331300  0.988300  0.455700  1
  C  C457  1  0.810000  0.508600  0.107200  1
  C  C458  1  0.574200  0.008600  0.607200  1
  C  C459  1  0.190000  0.491400  0.892800  1
  C  C460  1  0.425800  0.991400  0.392800  1
  C  C461  1  0.629300  0.505900  0.108700  1
  C  C462  1  0.756100  0.005900  0.608700  1
  C  C463  1  0.370700  0.494100  0.891300  1
  C  C464  1  0.243900  0.994100  0.391300  1
  C  C465  1  0.600000  0.503100  0.084100  1
  C  C466  1  0.812800  0.003100  0.584100  1
  C  C467  1  0.400000  0.496900  0.915900  1
  C  C468  1  0.187200  0.996900  0.415900  1
  C  C469  1  0.545000  0.500500  0.106900  1
  C  C470  1  0.847600  0.000500  0.606900  1
  C  C471  1  0.455000  0.499500  0.893100  1
  C  C472  1  0.152400  0.999500  0.393100  1
  C  C473  1  0.522200  0.498700  0.152500  1
  C  C474  1  0.826600  0.998700  0.652500  1
  C  C475  1  0.477800  0.501300  0.847500  1
  C  C476  1  0.173400  0.001300  0.347500  1
  C  C477  1  0.551400  0.503200  0.176200  1
  C  C478  1  0.769200  0.003200  0.676200  1
  C  C479  1  0.448600  0.496800  0.823800  1
  C  C480  1  0.230800  0.996800  0.323800  1
  C  C481  1  0.213900  0.352300  0.174900  1
  C  C482  1  0.258900  0.852300  0.674900  1
  C  C483  1  0.786100  0.647700  0.825100  1
  C  C484  1  0.741100  0.147700  0.325100  1
  C  C485  1  0.255400  0.308300  0.158100  1
  C  C486  1  0.278200  0.808300  0.658100  1
  C  C487  1  0.744600  0.691700  0.841900  1
  C  C488  1  0.721800  0.191700  0.341900  1
  C  C489  1  0.282600  0.309900  0.111100  1
  C  C490  1  0.296400  0.809900  0.611100  1
  C  C491  1  0.717400  0.690100  0.888900  1
  C  C492  1  0.703600  0.190100  0.388900  1
  C  C493  1  0.266400  0.351300  0.084100  1
  C  C494  1  0.298200  0.851300  0.584100  1
  C  C495  1  0.733600  0.648700  0.915900  1
  C  C496  1  0.701800  0.148700  0.415900  1
  C  C497  1  0.224100  0.393800  0.103400  1
  C  C498  1  0.278700  0.893800  0.603400  1
  C  C499  1  0.775900  0.606200  0.896600  1
  C  C500  1  0.721300  0.106200  0.396600  1
  C  C501  1  0.181000  0.356800  0.222800  1
  C  C502  1  0.239400  0.856800  0.722800  1
  C  C503  1  0.819000  0.643200  0.777200  1
  C  C504  1  0.760600  0.143200  0.277200  1
  C  C505  1  0.189100  0.323600  0.260400  1
  C  C506  1  0.226900  0.823600  0.760400  1
  C  C507  1  0.810900  0.676400  0.739600  1
  C  C508  1  0.773100  0.176400  0.239600  1
  C  C509  1  0.144000  0.346000  0.297600  1
  C  C510  1  0.212400  0.846000  0.797600  1
  C  C511  1  0.856000  0.654000  0.702400  1
  C  C512  1  0.787600  0.154000  0.202400  1
  C  C513  1  0.062100  0.429500  0.308700  1
  C  C514  1  0.199700  0.929500  0.808700  1
  C  C515  1  0.937900  0.570500  0.691300  1
  C  C516  1  0.800300  0.070500  0.191300  1
  C  C517  1  0.080700  0.459700  0.325100  1
  C  C518  1  0.134500  0.959700  0.825100  1
  C  C519  1  0.919300  0.540300  0.674900  1
  C  C520  1  0.865500  0.040300  0.174900  1
  C  C521  1  0.035300  0.498700  0.349300  1
  C  C522  1  0.116700  0.998700  0.849300  1
  C  C523  1  0.964700  0.501300  0.650700  1
  C  C524  1  0.883300  0.001300  0.150700  1
  C  C525  1  0.047300  0.529700  0.366700  1
  C  C526  1  0.056300  0.029700  0.866700  1
  C  C527  1  0.952700  0.470300  0.633300  1
  C  C528  1  0.943700  0.970300  0.133300  1
  C  C529  1  0.106400  0.520400  0.358000  1
  C  C530  1  0.015200  0.020400  0.858000  1
  C  C531  1  0.893600  0.479600  0.642000  1
  C  C532  1  0.984800  0.979600  0.142000  1
  C  C533  1  0.152000  0.481200  0.336000  1
  C  C534  1  0.030800  0.981200  0.836000  1
  C  C535  1  0.848000  0.518800  0.664000  1
  C  C536  1  0.969200  0.018800  0.164000  1
  C  C537  1  0.140000  0.450000  0.318600  1
  C  C538  1  0.091400  0.950000  0.818600  1
  C  C539  1  0.860000  0.550000  0.681400  1
  C  C540  1  0.908600  0.050000  0.181400  1
  C  C541  1  0.998200  0.570500  0.392300  1
  C  C542  1  0.039000  0.070500  0.892300  1
  C  C543  1  0.001800  0.429500  0.607700  1
  C  C544  1  0.961000  0.929500  0.107700  1
  C  C545  1  0.946600  0.598000  0.380600  1
  C  C546  1  0.074800  0.098000  0.880600  1
  C  C547  1  0.053400  0.402000  0.619400  1
  C  C548  1  0.925200  0.902000  0.119400  1
  C  C549  1  0.899500  0.637900  0.404700  1
  C  C550  1  0.057900  0.137900  0.904700  1
  C  C551  1  0.100500  0.362100  0.595300  1
  C  C552  1  0.942100  0.862100  0.095300  1
  C  C553  1  0.903700  0.648800  0.440800  1
  C  C554  1  0.006700  0.148800  0.940800  1
  C  C555  1  0.096300  0.351200  0.559200  1
  C  C556  1  0.993300  0.851200  0.059200  1
  C  C557  1  0.956200  0.622200  0.452800  1
  C  C558  1  0.968800  0.122200  0.952800  1
  C  C559  1  0.043800  0.377800  0.547200  1
  C  C560  1  0.031200  0.877800  0.047200  1
  C  C561  1  0.000600  0.584600  0.428800  1
  C  C562  1  0.986000  0.084600  0.928800  1
  C  C563  1  0.999400  0.415400  0.571200  1
  C  C564  1  0.014000  0.915400  0.071200  1
  C  C565  1  0.724100  0.726500  0.475900  1
  C  C566  1  0.073500  0.226500  0.975900  1
  C  C567  1  0.275900  0.273500  0.524100  1
  C  C568  1  0.926500  0.773500  0.024100  1
  C  C569  1  0.744600  0.764900  0.456300  1
  C  C570  1  0.034200  0.264900  0.956300  1
  C  C571  1  0.255400  0.235100  0.543700  1
  C  C572  1  0.965800  0.735100  0.043700  1
  C  C573  1  0.792000  0.747500  0.420100  1
  C  C574  1  0.040400  0.247500  0.920100  1
  C  C575  1  0.208000  0.252500  0.579900  1
  C  C576  1  0.959600  0.752500  0.079900  1
  C  C577  1  0.848700  0.664700  0.387500  1
  C  C578  1  0.099100  0.164700  0.887500  1
  C  C579  1  0.151300  0.335300  0.612500  1
  C  C580  1  0.900900  0.835300  0.112500  1
  C  C581  1  0.670600  0.725800  0.515800  1
  C  C582  1  0.087800  0.225800  0.015800  1
  C  C583  1  0.329400  0.274200  0.484200  1
  C  C584  1  0.912200  0.774200  0.984200  1
  C  C585  1  0.631600  0.765200  0.541000  1
  C  C586  1  0.062200  0.265200  0.041000  1
  C  C587  1  0.368400  0.234800  0.459000  1
  C  C588  1  0.937800  0.734800  0.959000  1
  C  C589  1  0.583400  0.760000  0.577000  1
  C  C590  1  0.079600  0.260000  0.077000  1
  C  C591  1  0.416600  0.240000  0.423000  1
  C  C592  1  0.920400  0.740000  0.923000  1
  C  C593  1  0.576000  0.716100  0.587500  1
  C  C594  1  0.120400  0.216100  0.087500  1
  C  C595  1  0.424000  0.283900  0.412500  1
  C  C596  1  0.879600  0.783900  0.912500  1
  C  C597  1  0.617400  0.677700  0.560700  1
  C  C598  1  0.144200  0.177700  0.060700  1
  C  C599  1  0.382600  0.322300  0.439300  1
  C  C600  1  0.855800  0.822300  0.939300  1
  C  C601  1  0.666500  0.411800  0.236200  1
  C  C602  1  0.685500  0.911800  0.736200  1
  C  C603  1  0.333500  0.588200  0.763800  1
  C  C604  1  0.314500  0.088200  0.263800  1
  C  C605  1  0.684300  0.359200  0.244600  1
  C  C606  1  0.711900  0.859200  0.744600  1
  C  C607  1  0.315700  0.640800  0.755400  1
  C  C608  1  0.288100  0.140800  0.255400  1
  C  C609  1  0.733900  0.332600  0.210800  1
  C  C610  1  0.722700  0.832600  0.710800  1
  C  C611  1  0.266100  0.667400  0.789200  1
  C  C612  1  0.277300  0.167400  0.289200  1
  C  C613  1  0.763200  0.352200  0.174800  1
  C  C614  1  0.709800  0.852200  0.674800  1
  C  C615  1  0.236800  0.647800  0.825200  1
  C  C616  1  0.290200  0.147800  0.325200  1
  C  C617  1  0.744000  0.402800  0.168000  1
  C  C618  1  0.685200  0.902800  0.668000  1
  C  C619  1  0.256000  0.597200  0.832000  1
  C  C620  1  0.314800  0.097200  0.332000  1
  C  C621  1  0.610100  0.448600  0.265800  1
  C  C622  1  0.675500  0.948600  0.765800  1
  C  C623  1  0.389900  0.551400  0.734200  1
  C  C624  1  0.324500  0.051400  0.234200  1
  C  C625  1  0.568900  0.442400  0.306400  1
  C  C626  1  0.682300  0.942400  0.806400  1
  C  C627  1  0.431100  0.557600  0.693600  1
  C  C628  1  0.317700  0.057600  0.193600  1
  C  C629  1  0.528400  0.486100  0.317300  1
  C  C630  1  0.668200  0.986100  0.817300  1
  C  C631  1  0.471600  0.513900  0.682700  1
  C  C632  1  0.331800  0.013900  0.182700  1
  C  C633  1  0.514500  0.572000  0.280200  1
  C  C634  1  0.633300  0.072000  0.780200  1
  C  C635  1  0.485500  0.428000  0.719800  1
  C  C636  1  0.366700  0.928000  0.219800  1
  C  C637  1  0.540000  0.599400  0.294400  1
  C  C638  1  0.566200  0.099400  0.794400  1
  C  C639  1  0.460000  0.400600  0.705600  1
  C  C640  1  0.433800  0.900600  0.205600  1
  C  C641  1  0.575200  0.575400  0.321200  1
  C  C642  1  0.528200  0.075400  0.821200  1
  C  C643  1  0.424800  0.424600  0.678800  1
  C  C644  1  0.471800  0.924600  0.178800  1
  C  C645  1  0.599200  0.602600  0.332400  1
  C  C646  1  0.465800  0.102600  0.832400  1
  C  C647  1  0.400800  0.397400  0.667600  1
  C  C648  1  0.534200  0.897400  0.167600  1
  C  C649  1  0.588300  0.650700  0.317100  1
  C  C650  1  0.443900  0.150700  0.817100  1
  C  C651  1  0.411700  0.349300  0.682900  1
  C  C652  1  0.556100  0.849300  0.182900  1
  C  C653  1  0.551800  0.675600  0.291600  1
  C  C654  1  0.481000  0.175600  0.791600  1
  C  C655  1  0.448200  0.324400  0.708400  1
  C  C656  1  0.519000  0.824400  0.208400  1
  C  C657  1  0.527400  0.649400  0.279600  1
  C  C658  1  0.543600  0.149400  0.779600  1
  C  C659  1  0.472600  0.350600  0.720400  1
  C  C660  1  0.456400  0.850600  0.220400  1
  C  C661  1  0.639100  0.575300  0.359100  1
  C  C662  1  0.426500  0.075300  0.859100  1
  C  C663  1  0.360900  0.424700  0.640900  1
  C  C664  1  0.573500  0.924700  0.140900  1
  C  C665  1  0.686700  0.586900  0.353100  1
  C  C666  1  0.373300  0.086900  0.853100  1
  C  C667  1  0.313300  0.413100  0.646900  1
  C  C668  1  0.626700  0.913100  0.146900  1
  C  C669  1  0.726100  0.561000  0.378200  1
  C  C670  1  0.334700  0.061000  0.878200  1
  C  C671  1  0.273900  0.439000  0.621800  1
  C  C672  1  0.665300  0.939000  0.121800  1
  C  C673  1  0.715600  0.524900  0.409900  1
  C  C674  1  0.349600  0.024900  0.909900  1
  C  C675  1  0.284400  0.475100  0.590100  1
  C  C676  1  0.650400  0.975100  0.090100  1
  C  C677  1  0.667600  0.510900  0.417700  1
  C  C678  1  0.403800  0.010900  0.917700  1
  C  C679  1  0.332400  0.489100  0.582300  1
  C  C680  1  0.596200  0.989100  0.082300  1
  C  C681  1  0.628300  0.536500  0.393500  1
  C  C682  1  0.441700  0.036500  0.893500  1
  C  C683  1  0.371700  0.463500  0.606500  1
  C  C684  1  0.558300  0.963500  0.106500  1
  C  C685  1  0.859600  0.510900  0.392500  1
  C  C686  1  0.237000  0.010900  0.892500  1
  C  C687  1  0.140400  0.489100  0.607500  1
  C  C688  1  0.763000  0.989100  0.107500  1
  C  C689  1  0.879900  0.503700  0.427300  1
  C  C690  1  0.189100  0.003700  0.927300  1
  C  C691  1  0.120100  0.496300  0.572700  1
  C  C692  1  0.810900  0.996300  0.072700  1
  C  C693  1  0.839800  0.543300  0.453100  1
  C  C694  1  0.163800  0.043300  0.953100  1
  C  C695  1  0.160200  0.456700  0.546900  1
  C  C696  1  0.836200  0.956700  0.046900  1
  C  C697  1  0.777900  0.575700  0.366300  1
  C  C698  1  0.280100  0.075700  0.866300  1
  C  C699  1  0.222100  0.424300  0.633700  1
  C  C700  1  0.719900  0.924300  0.133700  1
  C  C701  1  0.838500  0.557300  0.492900  1
  C  C702  1  0.111300  0.057300  0.992900  1
  C  C703  1  0.161500  0.442700  0.507100  1
  C  C704  1  0.888700  0.942700  0.007100  1
  C  C705  1  0.886300  0.539000  0.507600  1
  C  C706  1  0.067100  0.039000  0.007600  1
  C  C707  1  0.113700  0.461000  0.492400  1
  C  C708  1  0.932900  0.961000  0.992400  1
  C  C709  1  0.882100  0.555400  0.544600  1
  C  C710  1  0.017900  0.055400  0.044600  1
  C  C711  1  0.117900  0.444600  0.455400  1
  C  C712  1  0.982100  0.944600  0.955400  1
  C  C713  1  0.829500  0.590700  0.566900  1
  C  C714  1  0.012900  0.090700  0.066900  1
  C  C715  1  0.170500  0.409300  0.433100  1
  C  C716  1  0.987100  0.909300  0.933100  1
  C  C717  1  0.783200  0.608700  0.549900  1
  C  C718  1  0.058200  0.108700  0.049900  1
  C  C719  1  0.216800  0.391300  0.450100  1
  C  C720  1  0.941800  0.891300  0.950100  1
  C  C721  1  0.053500  0.693700  0.824900  1
  C  C722  1  0.427900  0.193700  0.324900  1
  C  C723  1  0.946500  0.306300  0.175100  1
  C  C724  1  0.572100  0.806300  0.675100  1
  C  C725  1  0.055700  0.729800  0.836600  1
  C  C726  1  0.377900  0.229800  0.336600  1
  C  C727  1  0.944300  0.270200  0.163400  1
  C  C728  1  0.622100  0.770200  0.663400  1
  C  C729  1  0.848500  0.666700  0.255500  1
  C  C730  1  0.229300  0.166700  0.755500  1
  C  C731  1  0.151500  0.333300  0.744500  1
  C  C732  1  0.770700  0.833300  0.244500  1
  C  C733  1  0.846900  0.701400  0.213600  1
  C  C734  1  0.238100  0.201400  0.713600  1
  C  C735  1  0.153100  0.298600  0.786400  1
  C  C736  1  0.761900  0.798600  0.286400  1
  C  C737  1  0.872100  0.232500  0.112500  1
  C  C738  1  0.782900  0.732500  0.612500  1
  C  C739  1  0.127900  0.767500  0.887500  1
  C  C740  1  0.217100  0.267500  0.387500  1
  C  C741  1  0.924700  0.224000  0.068000  1
  C  C742  1  0.783300  0.724000  0.568000  1
  C  C743  1  0.075300  0.776000  0.932000  1
  C  C744  1  0.216700  0.276000  0.432000  1
  Cl  Cl745  1  0.891070  0.453170  0.285850  1
  Cl  Cl746  1  0.369910  0.953170  0.785850  1
  Cl  Cl747  1  0.108930  0.546830  0.714150  1
  Cl  Cl748  1  0.630090  0.046830  0.214150  1
  Cl  Cl749  1  0.954490  0.649560  0.568440  1
  Cl  Cl750  1  0.827510  0.149560  0.068440  1
  Cl  Cl751  1  0.045510  0.350440  0.431560  1
  Cl  Cl752  1  0.172490  0.850440  0.931560  1
  Cl  Cl753  1  0.665900  0.750000  0.250000  1
  Cl  Cl754  1  0.334100  0.250000  0.750000  1
  Cl  Cl755  1  0.107030  0.635840  0.942500  1
  Cl  Cl756  1  0.314630  0.135840  0.442500  1
  Cl  Cl757  1  0.892970  0.364160  0.057500  1
  Cl  Cl758  1  0.685370  0.864160  0.557500  1
  Cl  Cl759  1  0.864250  0.046540  0.445440  1
  Cl  Cl760  1  0.643770  0.546540  0.945440  1
  Cl  Cl761  1  0.135750  0.953460  0.554560  1
  Cl  Cl762  1  0.356230  0.453460  0.054560  1
  Cl  Cl763  1  0.339500  0.283000  0.981200  1
  Cl  Cl764  1  0.396300  0.783000  0.481200  1
  Cl  Cl765  1  0.660500  0.717000  0.018800  1
  Cl  Cl766  1  0.603700  0.217000  0.518800  1
  Cl  Cl767  1  0.390800  0.520000  0.278400  1
  Cl  Cl768  1  0.810800  0.020000  0.778400  1
  Cl  Cl769  1  0.609200  0.480000  0.721600  1
  Cl  Cl770  1  0.189200  0.980000  0.221600  1
  Cl  Cl771  1  0.673420  0.630360  0.672800  1
  Cl  Cl772  1  0.023420  0.130360  0.172800  1
  Cl  Cl773  1  0.326580  0.369640  0.327200  1
  Cl  Cl774  1  0.976580  0.869640  0.827200  1
  Cl  Cl775  1  0.600700  0.365900  0.470100  1
  Cl  Cl776  1  0.563300  0.865900  0.970100  1
  Cl  Cl777  1  0.399300  0.634100  0.529900  1
  Cl  Cl778  1  0.436700  0.134100  0.029900  1
  Cl  Cl779  1  0.941300  0.750000  0.250000  1
  Cl  Cl780  1  0.058700  0.250000  0.750000  1
  Cl  Cl781  1  0.065900  0.605100  0.950900  1
  Cl  Cl782  1  0.378100  0.105100  0.450900  1
  Cl  Cl783  1  0.934100  0.394900  0.049100  1
  Cl  Cl784  1  0.621900  0.894900  0.549100  1
  Cl  Cl785  1  0.389500  0.565800  0.215200  1
  Cl  Cl786  1  0.829500  0.065800  0.715200  1
  Cl  Cl787  1  0.610500  0.434200  0.784800  1
  Cl  Cl788  1  0.170500  0.934200  0.284800  1
  Co  Co789  1  0.959740  0.194430  0.424150  1
  Co  Co790  1  0.421680  0.694430  0.924150  1
  Co  Co791  1  0.040260  0.805570  0.575850  1
  Co  Co792  1  0.578320  0.305570  0.075850  1
  Co  Co793  1  0.131120  0.458600  0.183060  1
  Co  Co794  1  0.227220  0.958600  0.683060  1
  Co  Co795  1  0.868880  0.541400  0.816940  1
  Co  Co796  1  0.772780  0.041400  0.316940  1
  Co  Co797  1  0.657370  0.511430  0.187370  1
  Co  Co798  1  0.643830  0.011430  0.687370  1
  Co  Co799  1  0.342630  0.488570  0.812630  1
  Co  Co800  1  0.356170  0.988570  0.312630  1
  Co  Co801  1  0.725810  0.627250  0.477930  1
  Co  Co802  1  0.169010  0.127250  0.977930  1
  Co  Co803  1  0.274190  0.372750  0.522070  1
  Co  Co804  1  0.830990  0.872750  0.022070  1
  H  H805  1  0.054700  0.052000  0.522200  1
  H  H806  1  0.371100  0.552000  0.022200  1
  H  H807  1  0.945300  0.948000  0.477800  1
  H  H808  1  0.628900  0.448000  0.977800  1
  H  H809  1  0.971100  0.032600  0.573000  1
  H  H810  1  0.423300  0.532600  0.073000  1
  H  H811  1  0.028900  0.967400  0.427000  1
  H  H812  1  0.576700  0.467400  0.927000  1
  H  H813  1  0.881100  0.074300  0.549100  1
  H  H814  1  0.495500  0.574300  0.049100  1
  H  H815  1  0.118900  0.925700  0.450900  1
  H  H816  1  0.504500  0.425700  0.950900  1
  H  H817  1  0.880500  0.138100  0.490100  1
  H  H818  1  0.491300  0.638100  0.990100  1
  H  H819  1  0.119500  0.861900  0.509900  1
  H  H820  1  0.508700  0.361900  0.009900  1
  H  H821  1  0.128700  0.091600  0.484800  1
  H  H822  1  0.294900  0.591600  0.984800  1
  H  H823  1  0.871300  0.908400  0.515200  1
  H  H824  1  0.705100  0.408400  0.015200  1
  H  H825  1  0.179100  0.141300  0.424100  1
  H  H826  1  0.255500  0.641300  0.924100  1
  H  H827  1  0.820900  0.858700  0.575900  1
  H  H828  1  0.744500  0.358700  0.075900  1
  H  H829  1  0.139000  0.220800  0.373400  1
  H  H830  1  0.266800  0.720800  0.873400  1
  H  H831  1  0.861000  0.779200  0.626600  1
  H  H832  1  0.733200  0.279200  0.126600  1
  H  H833  1  0.069800  0.242100  0.380500  1
  H  H834  1  0.307600  0.742100  0.880500  1
  H  H835  1  0.930200  0.757900  0.619500  1
  H  H836  1  0.692400  0.257900  0.119500  1
  H  H837  1  0.106500  0.264000  0.299000  1
  H  H838  1  0.330500  0.764000  0.799000  1
  H  H839  1  0.893500  0.736000  0.701000  1
  H  H840  1  0.669500  0.236000  0.201000  1
  H  H841  1  0.160300  0.163100  0.216100  1
  H  H842  1  0.460500  0.663100  0.716100  1
  H  H843  1  0.839700  0.836900  0.783900  1
  H  H844  1  0.539500  0.336900  0.283900  1
  H  H845  1  0.161400  0.104600  0.275400  1
  H  H846  1  0.458600  0.604600  0.775400  1
  H  H847  1  0.838600  0.895400  0.724600  1
  H  H848  1  0.541400  0.395400  0.224600  1
  H  H849  1  0.144300  0.121100  0.346100  1
  H  H850  1  0.388500  0.621100  0.846100  1
  H  H851  1  0.855700  0.878900  0.653900  1
  H  H852  1  0.611500  0.378900  0.153900  1
  H  H853  1  0.058500  0.316800  0.250000  1
  H  H854  1  0.374700  0.816800  0.750000  1
  H  H855  1  0.941500  0.683200  0.750000  1
  H  H856  1  0.625300  0.183200  0.250000  1
  H  H857  1  0.106900  0.365500  0.118700  1
  H  H858  1  0.408900  0.865500  0.618700  1
  H  H859  1  0.893100  0.634500  0.881300  1
  H  H860  1  0.591100  0.134500  0.381300  1
  H  H861  1  0.176800  0.284900  0.104300  1
  H  H862  1  0.434000  0.784900  0.604300  1
  H  H863  1  0.823200  0.715100  0.895700  1
  H  H864  1  0.566000  0.215100  0.395700  1
  H  H865  1  0.187600  0.222400  0.161000  1
  H  H866  1  0.429000  0.722400  0.661000  1
  H  H867  1  0.812400  0.777600  0.839000  1
  H  H868  1  0.571000  0.277600  0.339000  1
  H  H869  1  0.020900  0.499400  0.075400  1
  H  H870  1  0.404300  0.999400  0.575400  1
  H  H871  1  0.979100  0.500600  0.924600  1
  H  H872  1  0.595700  0.000600  0.424600  1
  H  H873  1  0.980000  0.438900  0.131900  1
  H  H874  1  0.449200  0.938900  0.631900  1
  H  H875  1  0.020000  0.561100  0.868100  1
  H  H876  1  0.550800  0.061100  0.368100  1
  H  H877  1  0.033700  0.403000  0.226200  1
  H  H878  1  0.337100  0.903000  0.726200  1
  H  H879  1  0.966300  0.597000  0.773800  1
  H  H880  1  0.662900  0.097000  0.273800  1
  H  H881  1  0.991000  0.393700  0.209100  1
  H  H882  1  0.406200  0.893700  0.709100  1
  H  H883  1  0.009000  0.606300  0.790900  1
  H  H884  1  0.593800  0.106300  0.290900  1
  H  H885  1  0.092600  0.551900  0.037900  1
  H  H886  1  0.317600  0.051900  0.537900  1
  H  H887  1  0.907400  0.448100  0.962100  1
  H  H888  1  0.682400  0.948100  0.462100  1
  H  H889  1  0.150800  0.593500  0.018900  1
  H  H890  1  0.236800  0.093500  0.518900  1
  H  H891  1  0.849200  0.406500  0.981100  1
  H  H892  1  0.763200  0.906500  0.481100  1
  H  H893  1  0.205900  0.586800  0.060800  1
  H  H894  1  0.146500  0.086800  0.560800  1
  H  H895  1  0.794100  0.413200  0.939200  1
  H  H896  1  0.853500  0.913200  0.439200  1
  H  H897  1  0.203100  0.525600  0.123600  1
  H  H898  1  0.147700  0.025600  0.623600  1
  H  H899  1  0.796900  0.474400  0.876400  1
  H  H900  1  0.852300  0.974400  0.376400  1
  H  H901  1  0.022200  0.154500  0.267300  1
  H  H902  1  0.556000  0.654500  0.767300  1
  H  H903  1  0.977800  0.845500  0.732700  1
  H  H904  1  0.444000  0.345500  0.232700  1
  H  H905  1  0.054100  0.066900  0.279900  1
  H  H906  1  0.599100  0.566900  0.779900  1
  H  H907  1  0.945900  0.933100  0.720100  1
  H  H908  1  0.400900  0.433100  0.220100  1
  H  H909  1  0.042400  0.029500  0.353100  1
  H  H910  1  0.575000  0.529500  0.853100  1
  H  H911  1  0.957600  0.970500  0.646900  1
  H  H912  1  0.425000  0.470500  0.146900  1
  H  H913  1  0.003000  0.079200  0.412800  1
  H  H914  1  0.505000  0.579200  0.912800  1
  H  H915  1  0.997000  0.920800  0.587200  1
  H  H916  1  0.495000  0.420800  0.087200  1
  H  H917  1  0.971500  0.246000  0.261600  1
  H  H918  1  0.520900  0.746000  0.761600  1
  H  H919  1  0.028500  0.754000  0.738400  1
  H  H920  1  0.479100  0.254000  0.238400  1
  H  H921  1  0.940400  0.328600  0.287600  1
  H  H922  1  0.443400  0.828600  0.787600  1
  H  H923  1  0.059600  0.671400  0.712400  1
  H  H924  1  0.556600  0.171400  0.212400  1
  H  H925  1  0.950800  0.354900  0.349900  1
  H  H926  1  0.344400  0.854900  0.849900  1
  H  H927  1  0.049200  0.645100  0.650100  1
  H  H928  1  0.655600  0.145100  0.150100  1
  H  H929  1  0.970100  0.313500  0.387900  1
  H  H930  1  0.328500  0.813500  0.887900  1
  H  H931  1  0.029900  0.686500  0.612100  1
  H  H932  1  0.671500  0.186500  0.112100  1
  H  H933  1  0.902700  0.378900  0.439900  1
  H  H934  1  0.278500  0.878900  0.939900  1
  H  H935  1  0.097300  0.621100  0.560100  1
  H  H936  1  0.721500  0.121100  0.060100  1
  H  H937  1  0.834000  0.329800  0.380600  1
  H  H938  1  0.455600  0.829800  0.880600  1
  H  H939  1  0.166000  0.670200  0.619400  1
  H  H940  1  0.544400  0.170200  0.119400  1
  H  H941  1  0.740500  0.368000  0.430000  1
  H  H942  1  0.461500  0.868000  0.930000  1
  H  H943  1  0.259500  0.632000  0.570000  1
  H  H944  1  0.538500  0.132000  0.070000  1
  H  H945  1  0.727700  0.406300  0.487900  1
  H  H946  1  0.378100  0.906300  0.987900  1
  H  H947  1  0.272300  0.593700  0.512100  1
  H  H948  1  0.621900  0.093700  0.012100  1
  H  H949  1  0.723600  0.476800  0.507200  1
  H  H950  1  0.292400  0.976800  0.007200  1
  H  H951  1  0.276400  0.523200  0.492800  1
  H  H952  1  0.707600  0.023200  0.992800  1
  H  H953  1  0.888600  0.387500  0.509300  1
  H  H954  1  0.214600  0.887500  0.009300  1
  H  H955  1  0.111400  0.612500  0.490700  1
  H  H956  1  0.785400  0.112500  0.990700  1
  H  H957  1  0.874300  0.426500  0.567100  1
  H  H958  1  0.132100  0.926500  0.067100  1
  H  H959  1  0.125700  0.573500  0.432900  1
  H  H960  1  0.867900  0.073500  0.932900  1
  H  H961  1  0.785800  0.495100  0.593700  1
  H  H962  1  0.125400  0.995100  0.093700  1
  H  H963  1  0.214200  0.504900  0.406300  1
  H  H964  1  0.874600  0.004900  0.906300  1
  H  H965  1  0.547800  0.587700  0.508900  1
  H  H966  1  0.355600  0.087700  0.008900  1
  H  H967  1  0.452200  0.412300  0.491100  1
  H  H968  1  0.644400  0.912300  0.991100  1
  H  H969  1  0.584500  0.531300  0.568900  1
  H  H970  1  0.315300  0.031300  0.068900  1
  H  H971  1  0.415500  0.468700  0.431100  1
  H  H972  1  0.684700  0.968700  0.931100  1
  H  H973  1  0.662600  0.523100  0.602300  1
  H  H974  1  0.212000  0.023100  0.102300  1
  H  H975  1  0.337400  0.476900  0.397700  1
  H  H976  1  0.788000  0.976900  0.897700  1
  H  H977  1  0.697500  0.559700  0.578700  1
  H  H978  1  0.164100  0.059700  0.078700  1
  H  H979  1  0.302500  0.440300  0.421300  1
  H  H980  1  0.835900  0.940300  0.921300  1
  H  H981  1  0.541200  0.657100  0.449500  1
  H  H982  1  0.352200  0.157100  0.949500  1
  H  H983  1  0.458800  0.342900  0.550500  1
  H  H984  1  0.647800  0.842900  0.050500  1
  H  H985  1  0.544700  0.715300  0.390500  1
  H  H986  1  0.349500  0.215300  0.890500  1
  H  H987  1  0.455300  0.284700  0.609500  1
  H  H988  1  0.650500  0.784700  0.109500  1
  H  H989  1  0.626800  0.744700  0.361100  1
  H  H990  1  0.267400  0.244700  0.861100  1
  H  H991  1  0.373200  0.255300  0.638900  1
  H  H992  1  0.732600  0.755300  0.138900  1
  H  H993  1  0.704200  0.704800  0.393800  1
  H  H994  1  0.197200  0.204800  0.893800  1
  H  H995  1  0.295800  0.295200  0.606200  1
  H  H996  1  0.802800  0.795200  0.106200  1
  H  H997  1  0.799000  0.287700  0.548900  1
  H  H998  1  0.364400  0.787700  0.048900  1
  H  H999  1  0.201000  0.712300  0.451100  1
  H  H1000  1  0.635600  0.212300  0.951100  1
  H  H1001  1  0.853500  0.309000  0.574400  1
  H  H1002  1  0.263100  0.809000  0.074400  1
  H  H1003  1  0.146500  0.691000  0.425600  1
  H  H1004  1  0.736900  0.191000  0.925600  1
  H  H1005  1  0.956500  0.289800  0.533800  1
  H  H1006  1  0.219900  0.789800  0.033800  1
  H  H1007  1  0.043500  0.710200  0.466200  1
  H  H1008  1  0.780100  0.210200  0.966200  1
  H  H1009  1  0.996100  0.250700  0.468700  1
  H  H1010  1  0.284500  0.750700  0.968700  1
  H  H1011  1  0.003900  0.749300  0.531300  1
  H  H1012  1  0.715500  0.249300  0.031300  1
  H  H1013  1  0.742100  0.265100  0.517300  1
  H  H1014  1  0.475500  0.765100  0.017300  1
  H  H1015  1  0.257900  0.734900  0.482700  1
  H  H1016  1  0.524500  0.234900  0.982700  1
  H  H1017  1  0.736300  0.222500  0.465500  1
  H  H1018  1  0.575700  0.722500  0.965500  1
  H  H1019  1  0.263700  0.777500  0.534500  1
  H  H1020  1  0.424300  0.277500  0.034500  1
  H  H1021  1  0.813300  0.162700  0.406900  1
  H  H1022  1  0.617100  0.662700  0.906900  1
  H  H1023  1  0.186700  0.837300  0.593100  1
  H  H1024  1  0.382900  0.337300  0.093100  1
  H  H1025  1  0.881500  0.153600  0.393800  1
  H  H1026  1  0.571100  0.653600  0.893800  1
  H  H1027  1  0.118500  0.846400  0.606200  1
  H  H1028  1  0.428900  0.346400  0.106200  1
  H  H1029  1  0.785800  0.276800  0.380000  1
  H  H1030  1  0.557400  0.776800  0.880000  1
  H  H1031  1  0.214200  0.723200  0.620000  1
  H  H1032  1  0.442600  0.223200  0.120000  1
  H  H1033  1  0.830900  0.285400  0.243600  1
  H  H1034  1  0.640100  0.785400  0.743600  1
  H  H1035  1  0.169100  0.714600  0.756400  1
  H  H1036  1  0.359900  0.214600  0.256400  1
  H  H1037  1  0.882600  0.201300  0.246500  1
  H  H1038  1  0.669600  0.701300  0.746500  1
  H  H1039  1  0.117400  0.798700  0.753500  1
  H  H1040  1  0.330400  0.298700  0.253500  1
  H  H1041  1  0.890100  0.154100  0.312100  1
  H  H1042  1  0.643700  0.654100  0.812100  1
  H  H1043  1  0.109900  0.845900  0.687900  1
  H  H1044  1  0.356300  0.345900  0.187900  1
  H  H1045  1  0.824200  0.360800  0.250800  1
  H  H1046  1  0.564200  0.860800  0.750800  1
  H  H1047  1  0.175800  0.639200  0.749200  1
  H  H1048  1  0.435800  0.139200  0.249200  1
  H  H1049  1  0.689900  0.481400  0.308800  1
  H  H1050  1  0.519900  0.981400  0.808800  1
  H  H1051  1  0.310100  0.518600  0.691200  1
  H  H1052  1  0.480100  0.018600  0.191200  1
  H  H1053  1  0.655500  0.429900  0.371300  1
  H  H1054  1  0.543300  0.929900  0.871300  1
  H  H1055  1  0.344500  0.570100  0.628700  1
  H  H1056  1  0.456700  0.070100  0.128700  1
  H  H1057  1  0.702300  0.345700  0.371500  1
  H  H1058  1  0.580500  0.845700  0.871500  1
  H  H1059  1  0.297700  0.654300  0.628500  1
  H  H1060  1  0.419500  0.154300  0.128500  1
  H  H1061  1  0.718700  0.623100  0.232700  1
  H  H1062  1  0.425500  0.123100  0.732700  1
  H  H1063  1  0.281300  0.376900  0.767300  1
  H  H1064  1  0.574500  0.876900  0.267300  1
  H  H1065  1  0.788300  0.539600  0.255000  1
  H  H1066  1  0.417100  0.039600  0.755000  1
  H  H1067  1  0.211700  0.460400  0.745000  1
  H  H1068  1  0.582900  0.960400  0.245000  1
  H  H1069  1  0.794100  0.442800  0.205000  1
  H  H1070  1  0.558100  0.942800  0.705000  1
  H  H1071  1  0.205900  0.557200  0.795000  1
  H  H1072  1  0.441900  0.057200  0.295000  1
  H  H1073  1  0.827300  0.450700  0.232100  1
  H  H1074  1  0.489900  0.950700  0.732100  1
  H  H1075  1  0.172700  0.549300  0.767900  1
  H  H1076  1  0.510100  0.049300  0.267900  1
  H  H1077  1  0.651800  0.677400  0.191000  1
  H  H1078  1  0.479800  0.177400  0.691000  1
  H  H1079  1  0.348200  0.322600  0.809000  1
  H  H1080  1  0.520200  0.822600  0.309000  1
  H  H1081  1  0.580500  0.726100  0.153500  1
  H  H1082  1  0.539900  0.226100  0.653500  1
  H  H1083  1  0.419500  0.273900  0.846500  1
  H  H1084  1  0.460100  0.773900  0.346500  1
  H  H1085  1  0.528900  0.687400  0.138400  1
  H  H1086  1  0.645300  0.187400  0.638400  1
  H  H1087  1  0.471100  0.312600  0.861600  1
  H  H1088  1  0.354700  0.812600  0.361600  1
  H  H1089  1  0.558800  0.602400  0.153400  1
  H  H1090  1  0.685400  0.102400  0.653400  1
  H  H1091  1  0.441200  0.397600  0.846600  1
  H  H1092  1  0.314600  0.897600  0.346600  1
  H  H1093  1  0.185800  0.561400  0.244200  1
  H  H1094  1  0.008600  0.061400  0.744200  1
  H  H1095  1  0.814200  0.438600  0.755800  1
  H  H1096  1  0.991400  0.938600  0.255800  1
  H  H1097  1  0.288500  0.514000  0.222000  1
  H  H1098  1  0.975500  0.014000  0.722000  1
  H  H1099  1  0.711500  0.486000  0.778000  1
  H  H1100  1  0.024500  0.986000  0.278000  1
  H  H1101  1  0.327900  0.443100  0.185500  1
  H  H1102  1  0.043500  0.943100  0.685500  1
  H  H1103  1  0.672100  0.556900  0.814500  1
  H  H1104  1  0.956500  0.056900  0.314500  1
  H  H1105  1  0.263000  0.420800  0.173400  1
  H  H1106  1  0.142800  0.920800  0.673400  1
  H  H1107  1  0.737000  0.579200  0.826600  1
  H  H1108  1  0.857200  0.079200  0.326600  1
  H  H1109  1  0.072800  0.605100  0.263700  1
  H  H1110  1  0.058400  0.105100  0.763700  1
  H  H1111  1  0.927200  0.394900  0.736300  1
  H  H1112  1  0.941600  0.894900  0.236300  1
  H  H1113  1  0.972600  0.615400  0.268600  1
  H  H1114  1  0.143400  0.115400  0.768600  1
  H  H1115  1  0.027400  0.384600  0.731400  1
  H  H1116  1  0.856600  0.884600  0.231400  1
  H  H1117  1  0.932000  0.555100  0.254500  1
  H  H1118  1  0.258400  0.055100  0.754500  1
  H  H1119  1  0.068000  0.444900  0.745500  1
  H  H1120  1  0.741600  0.944900  0.245500  1
  H  H1121  1  0.981600  0.509200  0.227200  1
  H  H1122  1  0.282000  0.009200  0.727200  1
  H  H1123  1  0.018400  0.490800  0.772800  1
  H  H1124  1  0.718000  0.990800  0.272800  1
  H  H1125  1  0.893200  0.555200  0.191800  1
  H  H1126  1  0.359800  0.055200  0.691800  1
  H  H1127  1  0.106800  0.444800  0.808200  1
  H  H1128  1  0.640200  0.944800  0.308200  1
  H  H1129  1  0.932400  0.647700  0.082100  1
  H  H1130  1  0.337800  0.147700  0.582100  1
  H  H1131  1  0.067600  0.352300  0.917900  1
  H  H1132  1  0.662200  0.852300  0.417900  1
  H  H1133  1  0.008200  0.646900  0.101900  1
  H  H1134  1  0.243000  0.146900  0.601900  1
  H  H1135  1  0.991800  0.353100  0.898100  1
  H  H1136  1  0.757000  0.853100  0.398100  1
  H  H1137  1  0.024700  0.601900  0.167100  1
  H  H1138  1  0.206300  0.101900  0.667100  1
  H  H1139  1  0.975300  0.398100  0.832900  1
  H  H1140  1  0.793700  0.898100  0.332900  1
  H  H1141  1  0.876100  0.528600  0.134600  1
  H  H1142  1  0.460700  0.028600  0.634600  1
  H  H1143  1  0.123900  0.471400  0.865400  1
  H  H1144  1  0.539300  0.971400  0.365400  1
  H  H1145  1  0.736800  0.605500  0.089300  1
  H  H1146  1  0.568400  0.105500  0.589300  1
  H  H1147  1  0.263200  0.394500  0.910700  1
  H  H1148  1  0.431600  0.894500  0.410700  1
  H  H1149  1  0.745100  0.679200  0.088800  1
  H  H1150  1  0.486900  0.179200  0.588800  1
  H  H1151  1  0.254900  0.320800  0.911200  1
  H  H1152  1  0.513100  0.820800  0.411200  1
  H  H1153  1  0.816700  0.678300  0.112700  1
  H  H1154  1  0.392300  0.178300  0.612700  1
  H  H1155  1  0.183300  0.321700  0.887300  1
  H  H1156  1  0.607700  0.821700  0.387300  1
  H  H1157  1  0.714600  0.511200  0.018200  1
  H  H1158  1  0.756000  0.011200  0.518200  1
  H  H1159  1  0.285400  0.488800  0.981800  1
  H  H1160  1  0.244000  0.988800  0.481800  1
  H  H1161  1  0.809600  0.512200  0.019200  1
  H  H1162  1  0.659000  0.012200  0.519200  1
  H  H1163  1  0.190400  0.487800  0.980800  1
  H  H1164  1  0.341000  0.987800  0.480800  1
  H  H1165  1  0.850000  0.488800  0.088000  1
  H  H1166  1  0.573200  0.988800  0.588000  1
  H  H1167  1  0.150000  0.511200  0.912000  1
  H  H1168  1  0.426800  0.011200  0.412000  1
  H  H1169  1  0.802900  0.491200  0.138000  1
  H  H1170  1  0.567900  0.991200  0.638000  1
  H  H1171  1  0.197100  0.508800  0.862000  1
  H  H1172  1  0.432100  0.008800  0.362000  1
  H  H1173  1  0.617100  0.502900  0.052300  1
  H  H1174  1  0.827700  0.002900  0.552300  1
  H  H1175  1  0.382900  0.497100  0.947700  1
  H  H1176  1  0.172300  0.997100  0.447700  1
  H  H1177  1  0.522700  0.500200  0.090600  1
  H  H1178  1  0.886500  0.000200  0.590600  1
  H  H1179  1  0.477300  0.499800  0.909400  1
  H  H1180  1  0.113500  0.999800  0.409400  1
  H  H1181  1  0.485800  0.494000  0.168000  1
  H  H1182  1  0.852200  0.994000  0.668000  1
  H  H1183  1  0.514200  0.506000  0.832000  1
  H  H1184  1  0.147800  0.006000  0.332000  1
  H  H1185  1  0.533600  0.504800  0.207800  1
  H  H1186  1  0.753800  0.004800  0.707800  1
  H  H1187  1  0.466400  0.495200  0.792200  1
  H  H1188  1  0.246200  0.995200  0.292200  1
  H  H1189  1  0.264900  0.278600  0.177200  1
  H  H1190  1  0.279300  0.778600  0.677200  1
  H  H1191  1  0.735100  0.721400  0.822800  1
  H  H1192  1  0.720700  0.221400  0.322800  1
  H  H1193  1  0.313300  0.280900  0.098100  1
  H  H1194  1  0.307700  0.780900  0.598100  1
  H  H1195  1  0.686700  0.719100  0.901900  1
  H  H1196  1  0.692300  0.219100  0.401900  1
  H  H1197  1  0.283700  0.351300  0.052300  1
  H  H1198  1  0.312700  0.851300  0.552300  1
  H  H1199  1  0.716300  0.648700  0.947700  1
  H  H1200  1  0.687300  0.148700  0.447700  1
  H  H1201  1  0.212900  0.423200  0.084400  1
  H  H1202  1  0.279500  0.923200  0.584400  1
  H  H1203  1  0.787100  0.576800  0.915600  1
  H  H1204  1  0.720500  0.076800  0.415600  1
  H  H1205  1  0.219700  0.291800  0.260400  1
  H  H1206  1  0.228100  0.791800  0.760400  1
  H  H1207  1  0.780300  0.708200  0.739600  1
  H  H1208  1  0.771900  0.208200  0.239600  1
  H  H1209  1  0.136500  0.332500  0.328100  1
  H  H1210  1  0.202900  0.832500  0.828100  1
  H  H1211  1  0.863500  0.667500  0.671900  1
  H  H1212  1  0.797100  0.167500  0.171900  1
  H  H1213  1  0.037900  0.413900  0.334900  1
  H  H1214  1  0.213300  0.913900  0.834900  1
  H  H1215  1  0.962100  0.586100  0.665100  1
  H  H1216  1  0.786700  0.086100  0.165100  1
  H  H1217  1  0.036800  0.451600  0.290400  1
  H  H1218  1  0.221200  0.951600  0.790400  1
  H  H1219  1  0.963200  0.548400  0.709600  1
  H  H1220  1  0.778800  0.048400  0.209600  1
  H  H1221  1  0.995100  0.504700  0.354300  1
  H  H1222  1  0.145900  0.004700  0.854300  1
  H  H1223  1  0.004900  0.495300  0.645700  1
  H  H1224  1  0.854100  0.995300  0.145700  1
  H  H1225  1  0.115600  0.542100  0.367700  1
  H  H1226  1  0.974600  0.042100  0.867700  1
  H  H1227  1  0.884400  0.457900  0.632300  1
  H  H1228  1  0.025400  0.957900  0.132300  1
  H  H1229  1  0.191700  0.474700  0.332500  1
  H  H1230  1  0.001100  0.974700  0.832500  1
  H  H1231  1  0.808300  0.525300  0.667500  1
  H  H1232  1  0.998900  0.025300  0.167500  1
  H  H1233  1  0.171600  0.423000  0.302800  1
  H  H1234  1  0.102600  0.923000  0.802800  1
  H  H1235  1  0.828400  0.577000  0.697200  1
  H  H1236  1  0.897400  0.077000  0.197200  1
  H  H1237  1  0.943300  0.589600  0.356000  1
  H  H1238  1  0.111100  0.089600  0.856000  1
  H  H1239  1  0.056700  0.410400  0.644000  1
  H  H1240  1  0.888900  0.910400  0.144000  1
  H  H1241  1  0.871500  0.674200  0.458200  1
  H  H1242  1  0.996100  0.174200  0.958200  1
  H  H1243  1  0.128500  0.325800  0.541800  1
  H  H1244  1  0.003900  0.825800  0.041800  1
  H  H1245  1  0.959800  0.630900  0.477100  1
  H  H1246  1  0.932200  0.130900  0.977100  1
  H  H1247  1  0.040200  0.369100  0.522900  1
  H  H1248  1  0.067800  0.869100  0.022900  1
  H  H1249  1  0.035100  0.566800  0.437200  1
  H  H1250  1  0.960900  0.066800  0.937200  1
  H  H1251  1  0.964900  0.433200  0.562800  1
  H  H1252  1  0.039100  0.933200  0.062800  1
  H  H1253  1  0.728400  0.796600  0.466400  1
  H  H1254  1  0.008600  0.296600  0.966400  1
  H  H1255  1  0.271600  0.203400  0.533600  1
  H  H1256  1  0.991400  0.703400  0.033600  1
  H  H1257  1  0.816800  0.764300  0.399500  1
  H  H1258  1  0.019400  0.264300  0.899500  1
  H  H1259  1  0.183200  0.235700  0.600500  1
  H  H1260  1  0.980600  0.735700  0.100500  1
  H  H1261  1  0.862100  0.682200  0.357400  1
  H  H1262  1  0.098300  0.182200  0.857400  1
  H  H1263  1  0.137900  0.317800  0.642600  1
  H  H1264  1  0.901700  0.817800  0.142600  1
  H  H1265  1  0.835100  0.640700  0.384100  1
  H  H1266  1  0.140100  0.140700  0.884100  1
  H  H1267  1  0.164900  0.359300  0.615900  1
  H  H1268  1  0.859900  0.859300  0.115900  1
  H  H1269  1  0.637900  0.795200  0.533800  1
  H  H1270  1  0.033100  0.295200  0.033800  1
  H  H1271  1  0.362100  0.204800  0.466200  1
  H  H1272  1  0.966900  0.704800  0.966200  1
  H  H1273  1  0.555400  0.786900  0.594300  1
  H  H1274  1  0.063400  0.286900  0.094300  1
  H  H1275  1  0.444600  0.213100  0.405700  1
  H  H1276  1  0.936600  0.713100  0.905700  1
  H  H1277  1  0.543500  0.711700  0.612500  1
  H  H1278  1  0.132300  0.211700  0.112500  1
  H  H1279  1  0.456500  0.288300  0.387500  1
  H  H1280  1  0.867700  0.788300  0.887500  1
  H  H1281  1  0.612100  0.647100  0.568100  1
  H  H1282  1  0.172700  0.147100  0.068100  1
  H  H1283  1  0.387900  0.352900  0.431900  1
  H  H1284  1  0.827300  0.852900  0.931900  1
  H  H1285  1  0.663800  0.343600  0.271200  1
  H  H1286  1  0.721400  0.843600  0.771200  1
  H  H1287  1  0.336200  0.656400  0.728800  1
  H  H1288  1  0.278600  0.156400  0.228800  1
  H  H1289  1  0.746800  0.297500  0.214900  1
  H  H1290  1  0.740800  0.797500  0.714900  1
  H  H1291  1  0.253200  0.702500  0.785100  1
  H  H1292  1  0.259200  0.202500  0.285100  1
  H  H1293  1  0.797500  0.332200  0.153200  1
  H  H1294  1  0.717100  0.832200  0.653200  1
  H  H1295  1  0.202500  0.667800  0.846800  1
  H  H1296  1  0.282900  0.167800  0.346800  1
  H  H1297  1  0.766200  0.416900  0.141300  1
  H  H1298  1  0.675600  0.916900  0.641300  1
  H  H1299  1  0.233800  0.583100  0.858700  1
  H  H1300  1  0.324400  0.083100  0.358700  1
  H  H1301  1  0.569400  0.411900  0.323700  1
  H  H1302  1  0.695000  0.911900  0.823700  1
  H  H1303  1  0.430600  0.588100  0.676300  1
  H  H1304  1  0.305000  0.088100  0.176300  1
  H  H1305  1  0.494100  0.493300  0.343700  1
  H  H1306  1  0.668900  0.993300  0.843700  1
  H  H1307  1  0.505900  0.506700  0.656300  1
  H  H1308  1  0.331100  0.006700  0.156300  1
  H  H1309  1  0.472100  0.580400  0.299000  1
  H  H1310  1  0.648500  0.080400  0.799000  1
  H  H1311  1  0.527900  0.419600  0.701000  1
  H  H1312  1  0.351500  0.919600  0.201000  1
  H  H1313  1  0.516500  0.583700  0.248500  1
  H  H1314  1  0.651300  0.083700  0.748500  1
  H  H1315  1  0.483500  0.416300  0.751500  1
  H  H1316  1  0.348700  0.916300  0.251500  1
  H  H1317  1  0.583200  0.541700  0.331900  1
  H  H1318  1  0.543200  0.041700  0.831900  1
  H  H1319  1  0.416800  0.458300  0.668100  1
  H  H1320  1  0.456800  0.958300  0.168100  1
  H  H1321  1  0.606200  0.667600  0.324000  1
  H  H1322  1  0.402200  0.167600  0.824000  1
  H  H1323  1  0.393800  0.332400  0.676000  1
  H  H1324  1  0.597800  0.832400  0.176000  1
  H  H1325  1  0.543000  0.709700  0.282100  1
  H  H1326  1  0.465200  0.209700  0.782100  1
  H  H1327  1  0.457000  0.290300  0.717900  1
  H  H1328  1  0.534800  0.790300  0.217900  1
  H  H1329  1  0.502600  0.665800  0.261600  1
  H  H1330  1  0.570000  0.165800  0.761600  1
  H  H1331  1  0.497400  0.334200  0.738400  1
  H  H1332  1  0.430000  0.834200  0.238400  1
  H  H1333  1  0.693300  0.613200  0.331400  1
  H  H1334  1  0.362100  0.113200  0.831400  1
  H  H1335  1  0.306700  0.386800  0.668600  1
  H  H1336  1  0.637900  0.886800  0.168600  1
  H  H1337  1  0.740700  0.508200  0.427600  1
  H  H1338  1  0.323500  0.008200  0.927600  1
  H  H1339  1  0.259300  0.491800  0.572400  1
  H  H1340  1  0.676500  0.991800  0.072400  1
  H  H1341  1  0.662200  0.484200  0.439400  1
  H  H1342  1  0.414200  0.984200  0.939400  1
  H  H1343  1  0.337800  0.515800  0.560600  1
  H  H1344  1  0.585800  0.015800  0.060600  1
  H  H1345  1  0.595000  0.528500  0.399700  1
  H  H1346  1  0.476800  0.028500  0.899700  1
  H  H1347  1  0.405000  0.471500  0.600300  1
  H  H1348  1  0.523200  0.971500  0.100300  1
  H  H1349  1  0.877300  0.490300  0.368900  1
  H  H1350  1  0.263500  0.990300  0.868900  1
  H  H1351  1  0.122700  0.509700  0.631100  1
  H  H1352  1  0.736500  0.009700  0.131100  1
  H  H1353  1  0.913900  0.477300  0.432700  1
  H  H1354  1  0.176100  0.977300  0.932700  1
  H  H1355  1  0.086100  0.522700  0.567300  1
  H  H1356  1  0.823900  0.022700  0.067300  1
  H  H1357  1  0.804900  0.567400  0.335400  1
  H  H1358  1  0.292300  0.067400  0.835400  1
  H  H1359  1  0.195100  0.432600  0.664600  1
  H  H1360  1  0.707700  0.932600  0.164600  1
  H  H1361  1  0.763100  0.611800  0.366600  1
  H  H1362  1  0.258500  0.111800  0.866600  1
  H  H1363  1  0.236900  0.388200  0.633400  1
  H  H1364  1  0.741500  0.888200  0.133400  1
  H  H1365  1  0.922500  0.514700  0.491900  1
  H  H1366  1  0.070900  0.014700  0.991900  1
  H  H1367  1  0.077500  0.485300  0.508100  1
  H  H1368  1  0.929100  0.985300  0.008100  1
  H  H1369  1  0.915000  0.542600  0.554800  1
  H  H1370  1  0.987600  0.042600  0.054800  1
  H  H1371  1  0.085000  0.457400  0.445200  1
  H  H1372  1  0.012400  0.957400  0.945200  1
  H  H1373  1  0.824900  0.602400  0.593000  1
  H  H1374  1  0.979700  0.102400  0.093000  1
  H  H1375  1  0.175100  0.397600  0.407000  1
  H  H1376  1  0.020300  0.897600  0.907000  1
  H  H1377  1  0.747000  0.633500  0.564500  1
  H  H1378  1  0.055000  0.133500  0.064500  1
  H  H1379  1  0.253000  0.366500  0.435500  1
  H  H1380  1  0.945000  0.866500  0.935500  1
  N  N1381  1  0.959800  0.135700  0.478100  1
  N  N1382  1  0.426400  0.635700  0.978100  1
  N  N1383  1  0.040200  0.864300  0.521900  1
  N  N1384  1  0.573600  0.364300  0.021900  1
  N  N1385  1  0.047200  0.166400  0.430200  1
  N  N1386  1  0.356200  0.666400  0.930200  1
  N  N1387  1  0.952800  0.833600  0.569800  1
  N  N1388  1  0.643800  0.333600  0.069800  1
  N  N1389  1  0.098400  0.176200  0.412400  1
  N  N1390  1  0.313000  0.676200  0.912400  1
  N  N1391  1  0.901600  0.823800  0.587600  1
  N  N1392  1  0.687000  0.323800  0.087600  1
  N  N1393  1  0.074600  0.457300  0.154500  1
  N  N1394  1  0.313600  0.957300  0.654500  1
  N  N1395  1  0.925400  0.542700  0.845500  1
  N  N1396  1  0.686400  0.042700  0.345500  1
  N  N1397  1  0.034600  0.436300  0.163300  1
  N  N1398  1  0.365800  0.936300  0.663300  1
  N  N1399  1  0.965400  0.563700  0.836700  1
  N  N1400  1  0.634200  0.063700  0.336700  1
  N  N1401  1  0.139500  0.510200  0.123800  1
  N  N1402  1  0.226500  0.010200  0.623800  1
  N  N1403  1  0.860500  0.489800  0.876200  1
  N  N1404  1  0.773500  0.989800  0.376200  1
  N  N1405  1  0.991900  0.145000  0.375400  1
  N  N1406  1  0.487700  0.645000  0.875400  1
  N  N1407  1  0.008100  0.855000  0.624600  1
  N  N1408  1  0.512300  0.355000  0.124600  1
  N  N1409  1  0.966500  0.242400  0.363400  1
  N  N1410  1  0.427700  0.742400  0.863400  1
  N  N1411  1  0.033500  0.757600  0.636600  1
  N  N1412  1  0.572300  0.257600  0.136600  1
  N  N1413  1  0.950600  0.290800  0.346800  1
  N  N1414  1  0.411800  0.790800  0.846800  1
  N  N1415  1  0.049400  0.709200  0.653200  1
  N  N1416  1  0.588200  0.209200  0.153200  1
  N  N1417  1  0.666200  0.589700  0.506900  1
  N  N1418  1  0.237200  0.089700  0.006900  1
  N  N1419  1  0.333800  0.410300  0.493100  1
  N  N1420  1  0.762800  0.910300  0.993100  1
  N  N1421  1  0.652000  0.557900  0.543100  1
  N  N1422  1  0.247000  0.057900  0.043100  1
  N  N1423  1  0.348000  0.442100  0.456900  1
  N  N1424  1  0.753000  0.942100  0.956900  1
  N  N1425  1  0.668500  0.659000  0.438600  1
  N  N1426  1  0.233900  0.159000  0.938600  1
  N  N1427  1  0.331500  0.341000  0.561400  1
  N  N1428  1  0.766100  0.841000  0.061400  1
  N  N1429  1  0.923400  0.245400  0.472200  1
  N  N1430  1  0.359000  0.745400  0.972200  1
  N  N1431  1  0.076600  0.754600  0.527800  1
  N  N1432  1  0.641000  0.254600  0.027800  1
  N  N1433  1  0.865900  0.217900  0.440700  1
  N  N1434  1  0.475500  0.717900  0.940700  1
  N  N1435  1  0.134100  0.782100  0.559300  1
  N  N1436  1  0.524500  0.282100  0.059300  1
  N  N1437  1  0.826100  0.205900  0.434500  1
  N  N1438  1  0.533500  0.705900  0.934500  1
  N  N1439  1  0.173900  0.794100  0.565500  1
  N  N1440  1  0.466500  0.294100  0.065500  1
  N  N1441  1  0.708300  0.531100  0.209900  1
  N  N1442  1  0.550700  0.031100  0.709900  1
  N  N1443  1  0.291700  0.468900  0.790100  1
  N  N1444  1  0.449300  0.968900  0.290100  1
  N  N1445  1  0.752800  0.509700  0.228900  1
  N  N1446  1  0.508600  0.009700  0.728900  1
  N  N1447  1  0.247200  0.490300  0.771100  1
  N  N1448  1  0.491400  0.990300  0.271100  1
  N  N1449  1  0.619200  0.589800  0.179000  1
  N  N1450  1  0.612000  0.089800  0.679000  1
  N  N1451  1  0.380800  0.410200  0.821000  1
  N  N1452  1  0.388000  0.910200  0.321000  1
  N  N1453  1  0.190200  0.474000  0.199600  1
  N  N1454  1  0.136200  0.974000  0.699600  1
  N  N1455  1  0.809800  0.526000  0.800400  1
  N  N1456  1  0.863800  0.026000  0.300400  1
  N  N1457  1  0.073700  0.519900  0.222500  1
  N  N1458  1  0.183900  0.019900  0.722500  1
  N  N1459  1  0.926300  0.480100  0.777500  1
  N  N1460  1  0.816100  0.980100  0.277500  1
  N  N1461  1  0.016000  0.550300  0.239300  1
  N  N1462  1  0.194400  0.050300  0.739300  1
  N  N1463  1  0.984000  0.449700  0.760700  1
  N  N1464  1  0.805600  0.949700  0.260700  1
  N  N1465  1  0.713000  0.510700  0.116300  1
  N  N1466  1  0.660000  0.010700  0.616300  1
  N  N1467  1  0.287000  0.489300  0.883700  1
  N  N1468  1  0.340000  0.989300  0.383700  1
  N  N1469  1  0.765700  0.511600  0.089800  1
  N  N1470  1  0.632900  0.011600  0.589800  1
  N  N1471  1  0.234300  0.488400  0.910200  1
  N  N1472  1  0.367100  0.988400  0.410200  1
  N  N1473  1  0.605500  0.505600  0.154400  1
  N  N1474  1  0.734500  0.005600  0.654400  1
  N  N1475  1  0.394500  0.494400  0.845600  1
  N  N1476  1  0.265500  0.994400  0.345600  1
  N  N1477  1  0.198000  0.394900  0.148500  1
  N  N1478  1  0.258600  0.894900  0.648500  1
  N  N1479  1  0.802000  0.605100  0.851500  1
  N  N1480  1  0.741400  0.105100  0.351500  1
  N  N1481  1  0.133800  0.400000  0.235400  1
  N  N1482  1  0.230800  0.900000  0.735400  1
  N  N1483  1  0.866200  0.600000  0.764600  1
  N  N1484  1  0.769200  0.100000  0.264600  1
  N  N1485  1  0.112300  0.391500  0.281700  1
  N  N1486  1  0.214500  0.891500  0.781700  1
  N  N1487  1  0.887700  0.608500  0.718300  1
  N  N1488  1  0.785500  0.108500  0.218300  1
  N  N1489  1  0.757600  0.687400  0.452600  1
  N  N1490  1  0.102400  0.187400  0.952600  1
  N  N1491  1  0.242400  0.312600  0.547400  1
  N  N1492  1  0.897600  0.812600  0.047400  1
  N  N1493  1  0.798000  0.701300  0.418300  1
  N  N1494  1  0.082400  0.201300  0.918300  1
  N  N1495  1  0.202000  0.298700  0.581700  1
  N  N1496  1  0.917600  0.798700  0.081700  1
  N  N1497  1  0.664000  0.681600  0.525400  1
  N  N1498  1  0.129000  0.181600  0.025400  1
  N  N1499  1  0.336000  0.318400  0.474600  1
  N  N1500  1  0.871000  0.818400  0.974600  1
  N  N1501  1  0.695500  0.433800  0.196800  1
  N  N1502  1  0.673900  0.933800  0.696800  1
  N  N1503  1  0.304500  0.566200  0.803200  1
  N  N1504  1  0.326100  0.066200  0.303200  1
  N  N1505  1  0.595700  0.498800  0.251400  1
  N  N1506  1  0.654100  0.998800  0.751400  1
  N  N1507  1  0.404300  0.501200  0.748600  1
  N  N1508  1  0.345900  0.001200  0.248600  1
  N  N1509  1  0.544700  0.518400  0.284000  1
  N  N1510  1  0.652900  0.018400  0.784000  1
  N  N1511  1  0.455300  0.481600  0.716000  1
  N  N1512  1  0.347100  0.981600  0.216000  1
  N  N1513  1  0.796900  0.573100  0.435300  1
  N  N1514  1  0.194700  0.073100  0.935300  1
  N  N1515  1  0.203100  0.426900  0.564700  1
  N  N1516  1  0.805300  0.926900  0.064700  1
  N  N1517  1  0.811700  0.551200  0.397400  1
  N  N1518  1  0.239700  0.051200  0.897400  1
  N  N1519  1  0.188300  0.448800  0.602600  1
  N  N1520  1  0.760300  0.948800  0.102600  1
  N  N1521  1  0.787700  0.592300  0.513100  1
  N  N1522  1  0.106900  0.092300  0.013100  1
  N  N1523  1  0.212300  0.407700  0.486900  1
  N  N1524  1  0.893100  0.907700  0.986900  1
  N  N1525  1  0.053700  0.659300  0.814300  1
  N  N1526  1  0.472700  0.159300  0.314300  1
  N  N1527  1  0.946300  0.340700  0.185700  1
  N  N1528  1  0.527300  0.840700  0.685700  1
  N  N1529  1  0.851500  0.641900  0.288100  1
  N  N1530  1  0.218500  0.141900  0.788100  1
  N  N1531  1  0.148500  0.358100  0.711900  1
  N  N1532  1  0.781500  0.858100  0.211900  1
  N  N1533  1  0.829900  0.241800  0.143200  1
  N  N1534  1  0.785100  0.741800  0.643200  1
  N  N1535  1  0.170100  0.758200  0.856800  1
  N  N1536  1  0.214900  0.258200  0.356800  1
  O  O1537  1  0.835600  0.485100  0.313900  1
  O  O1538  1  0.365400  0.985100  0.813900  1
  O  O1539  1  0.164400  0.514900  0.686100  1
  O  O1540  1  0.634600  0.014900  0.186100  1
  O  O1541  1  0.888600  0.408700  0.284300  1
  O  O1542  1  0.418400  0.908700  0.784300  1
  O  O1543  1  0.111400  0.591300  0.715700  1
  O  O1544  1  0.581600  0.091300  0.215700  1
  O  O1545  1  0.901400  0.475300  0.240500  1
  O  O1546  1  0.382800  0.975300  0.740500  1
  O  O1547  1  0.098600  0.524700  0.759500  1
  O  O1548  1  0.617200  0.024700  0.259500  1
  O  O1549  1  0.939500  0.442600  0.300400  1
  O  O1550  1  0.317500  0.942600  0.800400  1
  O  O1551  1  0.060500  0.557400  0.699600  1
  O  O1552  1  0.682500  0.057400  0.199600  1
  O  O1553  1  0.943000  0.688500  0.535700  1
  O  O1554  1  0.832800  0.188500  0.035700  1
  O  O1555  1  0.057000  0.311500  0.464300  1
  O  O1556  1  0.167200  0.811500  0.964300  1
  O  O1557  1  0.003900  0.610500  0.547100  1
  O  O1558  1  0.838500  0.110500  0.047100  1
  O  O1559  1  0.996100  0.389500  0.452900  1
  O  O1560  1  0.161500  0.889500  0.952900  1
  O  O1561  1  0.960200  0.664900  0.603300  1
  O  O1562  1  0.771600  0.164900  0.103300  1
  O  O1563  1  0.039800  0.335100  0.396700  1
  O  O1564  1  0.228400  0.835100  0.896700  1
  O  O1565  1  0.905500  0.633100  0.587900  1
  O  O1566  1  0.873500  0.133100  0.087900  1
  O  O1567  1  0.094500  0.366900  0.412100  1
  O  O1568  1  0.126500  0.866900  0.912100  1
  O  O1569  1  0.150200  0.648800  0.947000  1
  O  O1570  1  0.254000  0.148800  0.447000  1
  O  O1571  1  0.849800  0.351200  0.053000  1
  O  O1572  1  0.746000  0.851200  0.553000  1
  O  O1573  1  0.055900  0.637500  0.984100  1
  O  O1574  1  0.322500  0.137500  0.484100  1
  O  O1575  1  0.944100  0.362500  0.015900  1
  O  O1576  1  0.677500  0.862500  0.515900  1
  O  O1577  1  0.130900  0.588600  0.927800  1
  O  O1578  1  0.352700  0.088600  0.427800  1
  O  O1579  1  0.869100  0.411400  0.072200  1
  O  O1580  1  0.647300  0.911400  0.572200  1
  O  O1581  1  0.081300  0.673600  0.909800  1
  O  O1582  1  0.335300  0.173600  0.409800  1
  O  O1583  1  0.918700  0.326400  0.090200  1
  O  O1584  1  0.664700  0.826400  0.590200  1
  O  O1585  1  0.853000  0.067100  0.406900  1
  O  O1586  1  0.673000  0.567100  0.906900  1
  O  O1587  1  0.147000  0.932900  0.593100  1
  O  O1588  1  0.327000  0.432900  0.093100  1
  O  O1589  1  0.822900  0.084100  0.475100  1
  O  O1590  1  0.617900  0.584100  0.975100  1
  O  O1591  1  0.177100  0.915900  0.524900  1
  O  O1592  1  0.382100  0.415900  0.024900  1
  O  O1593  1  0.856400  0.003100  0.462100  1
  O  O1594  1  0.678400  0.503100  0.962100  1
  O  O1595  1  0.143600  0.996900  0.537900  1
  O  O1596  1  0.321600  0.496900  0.037900  1
  O  O1597  1  0.914500  0.046600  0.441800  1
  O  O1598  1  0.597100  0.546600  0.941800  1
  O  O1599  1  0.085500  0.953400  0.558200  1
  O  O1600  1  0.402900  0.453400  0.058200  1
  O  O1601  1  0.273100  0.292100  0.003300  1
  O  O1602  1  0.431500  0.792100  0.503300  1
  O  O1603  1  0.726900  0.707900  0.996700  1
  O  O1604  1  0.568500  0.207900  0.496700  1
  O  O1605  1  0.361600  0.252600  0.945800  1
  O  O1606  1  0.440000  0.752600  0.445800  1
  O  O1607  1  0.638400  0.747400  0.054200  1
  O  O1608  1  0.560000  0.247400  0.554200  1
  O  O1609  1  0.364100  0.256500  0.016500  1
  O  O1610  1  0.362900  0.756500  0.516500  1
  O  O1611  1  0.635900  0.743500  0.983500  1
  O  O1612  1  0.637100  0.243500  0.483500  1
  O  O1613  1  0.344500  0.329300  0.965900  1
  O  O1614  1  0.360300  0.829300  0.465900  1
  O  O1615  1  0.655500  0.670700  0.034100  1
  O  O1616  1  0.639700  0.170700  0.534100  1
  O  O1617  1  0.353000  0.517400  0.327400  1
  O  O1618  1  0.802200  0.017400  0.827400  1
  O  O1619  1  0.647000  0.482600  0.672600  1
  O  O1620  1  0.197800  0.982600  0.172600  1
  O  O1621  1  0.418600  0.559300  0.250700  1
  O  O1622  1  0.771400  0.059300  0.750700  1
  O  O1623  1  0.581400  0.440700  0.749300  1
  O  O1624  1  0.228600  0.940700  0.249300  1
  O  O1625  1  0.368900  0.522700  0.238300  1
  O  O1626  1  0.870100  0.022700  0.738300  1
  O  O1627  1  0.631100  0.477300  0.761700  1
  O  O1628  1  0.129900  0.977300  0.261700  1
  O  O1629  1  0.440900  0.473000  0.273400  1
  O  O1630  1  0.812700  0.973000  0.773400  1
  O  O1631  1  0.559100  0.527000  0.726600  1
  O  O1632  1  0.187300  0.027000  0.226600  1
  O  O1633  1  0.608100  0.663900  0.687700  1
  O  O1634  1  0.040300  0.163900  0.187700  1
  O  O1635  1  0.391900  0.336100  0.312300  1
  O  O1636  1  0.959700  0.836100  0.812300  1
  O  O1637  1  0.685200  0.594000  0.647200  1
  O  O1638  1  0.073600  0.094000  0.147200  1
  O  O1639  1  0.314800  0.406000  0.352800  1
  O  O1640  1  0.926400  0.906000  0.852800  1
  O  O1641  1  0.706800  0.658700  0.646700  1
  O  O1642  1  0.987800  0.158700  0.146700  1
  O  O1643  1  0.293200  0.341300  0.353300  1
  O  O1644  1  0.012200  0.841300  0.853300  1
  O  O1645  1  0.686500  0.610800  0.711800  1
  O  O1646  1  0.990900  0.110800  0.211800  1
  O  O1647  1  0.313500  0.389200  0.288200  1
  O  O1648  1  0.009100  0.889200  0.788200  1
  O  O1649  1  0.570400  0.388400  0.434800  1
  O  O1650  1  0.606400  0.888400  0.934800  1
  O  O1651  1  0.429600  0.611600  0.565200  1
  O  O1652  1  0.393600  0.111600  0.065200  1
  O  O1653  1  0.643200  0.317700  0.457500  1
  O  O1654  1  0.581600  0.817700  0.957500  1
  O  O1655  1  0.356800  0.682300  0.542500  1
  O  O1656  1  0.418400  0.182300  0.042500  1
  O  O1657  1  0.554100  0.362700  0.512500  1
  O  O1658  1  0.570700  0.862700  0.012500  1
  O  O1659  1  0.445900  0.637300  0.487500  1
  O  O1660  1  0.429300  0.137300  0.987500  1
  O  O1661  1  0.626200  0.397800  0.470600  1
  O  O1662  1  0.505400  0.897800  0.970600  1
  O  O1663  1  0.373800  0.602200  0.529400  1
  O  O1664  1  0.494600  0.102200  0.029400  1
  O  O1665  1  1.000000  0.500000  0.000000  1
  O  O1666  1  0.500000  1.000000  0.500000  1
  O  O1667  1  0.055100  0.690000  0.139600  1
  O  O1668  1  0.115300  0.190000  0.639600  1
  O  O1669  1  0.944900  0.310000  0.860400  1
  O  O1670  1  0.884700  0.810000  0.360400  1
  O  O1671  1  0.423600  0.974600  0.080200  1
  O  O1672  1  0.521600  0.474600  0.580200  1
  O  O1673  1  0.576400  0.025400  0.919800  1
  O  O1674  1  0.478400  0.525400  0.419800  1
  O  O1675  1  0.768800  0.167900  0.601900  1
  O  O1676  1  0.461400  0.667900  0.101900  1
  O  O1677  1  0.231200  0.832100  0.398100  1
  O  O1678  1  0.538600  0.332100  0.898100  1
  O  O1679  1  0.744700  0.129200  0.550800  1
  O  O1680  1  0.575300  0.629200  0.050800  1
  O  O1681  1  0.255300  0.870800  0.449200  1
  O  O1682  1  0.424700  0.370800  0.949200  1
  O  O1683  1  0.063000  0.811600  0.156800  1
  O  O1684  1  0.968600  0.311600  0.656800  1
  O  O1685  1  0.937000  0.188400  0.843200  1
  O  O1686  1  0.031400  0.688400  0.343200  1
  O  O1687  1  0.947400  0.833000  0.420200  1
  O  O1688  1  0.799400  0.333000  0.920200  1
  O  O1689  1  0.052600  0.167000  0.579800  1
  O  O1690  1  0.200600  0.667000  0.079800  1
  O  O1691  1  0.879700  0.786500  0.471700  1
  O  O1692  1  0.862100  0.286500  0.971700  1
  O  O1693  1  0.120300  0.213500  0.528300  1
  O  O1694  1  0.137900  0.713500  0.028300  1
  O  O1695  1  0.500000  1.000000  1.000000  1
  O  O1696  1  0.500000  0.500000  0.500000  1
  O  O1697  1  0.351300  0.933100  0.098300  1
  O  O1698  1  0.617300  0.433100  0.598300  1
  O  O1699  1  0.648700  0.066900  0.901700  1
  O  O1700  1  0.382700  0.566900  0.401700  1
  O  O1701  1  0.298000  0.882500  0.115700  1
  O  O1702  1  0.703800  0.382500  0.615700  1
  O  O1703  1  0.702000  0.117500  0.884300  1
  O  O1704  1  0.296200  0.617500  0.384300  1
  O  O1705  1  0.622800  0.314400  0.369800  1
  O  O1706  1  0.693000  0.814400  0.869800  1
  O  O1707  1  0.377200  0.685600  0.630200  1
  O  O1708  1  0.307000  0.185600  0.130200  1
  O  O1709  1  0.447900  0.400400  0.347200  1
  O  O1710  1  0.804500  0.900400  0.847200  1
  O  O1711  1  0.552100  0.599600  0.652800  1
  O  O1712  1  0.195500  0.099600  0.152800  1
  O  O1713  1  0.168500  0.396700  0.019500  1
  O  O1714  1  0.415300  0.896700  0.519500  1
  O  O1715  1  0.831500  0.603300  0.980500  1
  O  O1716  1  0.584700  0.103300  0.480500  1
  O  O1717  1  0.083600  0.582700  0.858500  1
  O  O1718  1  0.475200  0.082700  0.358500  1
  O  O1719  1  0.916400  0.417300  0.141500  1
  O  O1720  1  0.524800  0.917300  0.641500  1
  O  O1721  1  0.129400  0.905700  0.185500  1
  O  O1722  1  0.779400  0.405700  0.685500  1
  O  O1723  1  0.870600  0.094300  0.814500  1
  O  O1724  1  0.220600  0.594300  0.314500  1
  O  O1725  1  0.689800  0.272400  0.611600  1
  O  O1726  1  0.426200  0.772400  0.111600  1
  O  O1727  1  0.310200  0.727600  0.388400  1
  O  O1728  1  0.573800  0.227600  0.888400  1
  O  O1729  1  0.534500  0.348400  0.384400  1
  O  O1730  1  0.732700  0.848400  0.884400  1
  O  O1731  1  0.465500  0.651600  0.615600  1
  O  O1732  1  0.267300  0.151600  0.115600  1
  O  O1733  1  0.053800  0.561700  0.976900  1
  O  O1734  1  0.407600  0.061700  0.476900  1
  O  O1735  1  0.946200  0.438300  0.023100  1
  O  O1736  1  0.592400  0.938300  0.523100  1
  O  O1737  1  0.032600  0.630000  0.923000  1
  O  O1738  1  0.414400  0.130000  0.423000  1
  O  O1739  1  0.967400  0.370000  0.077000  1
  O  O1740  1  0.585600  0.870000  0.577000  1
  O  O1741  1  0.430900  0.556200  0.174800  1
  O  O1742  1  0.838100  0.056200  0.674800  1
  O  O1743  1  0.569100  0.443800  0.825200  1
  O  O1744  1  0.161900  0.943800  0.325200  1
  O  O1745  1  0.339800  0.609100  0.222100  1
  O  O1746  1  0.829000  0.109100  0.722100  1
  O  O1747  1  0.660200  0.390900  0.777900  1
  O  O1748  1  0.171000  0.890900  0.277900  1
  O  O1749  1  0.128300  0.814500  0.126900  1
  O  O1750  1  0.930300  0.314500  0.626900  1
  O  O1751  1  0.871700  0.185500  0.873100  1
  O  O1752  1  0.069700  0.685500  0.373100  1
  O  O1753  1  0.930200  0.789800  0.455800  1
  O  O1754  1  0.824200  0.289800  0.955800  1
  O  O1755  1  0.069800  0.210200  0.544200  1
  O  O1756  1  0.175800  0.710200  0.044200  1
  O  O1757  1  0.297900  0.928200  0.129400  1
  O  O1758  1  0.644500  0.428200  0.629400  1
  O  O1759  1  0.702100  0.071800  0.870600  1
  O  O1760  1  0.355500  0.571800  0.370600  1
  O  O1761  1  0.707800  0.711000  0.269800  1.0
  O  O1762  1  0.311400  0.211000  0.769800  1.0
  O  O1763  1  0.292200  0.289000  0.730200  1.0
  O  O1764  1  0.688600  0.789000  0.230200  1.0
  O  O1765  1  0.611400  0.764300  0.283700  1.0
  O  O1766  1  0.340600  0.264300  0.783700  1.0
  O  O1767  1  0.388600  0.235700  0.716300  1.0
  O  O1768  1  0.659400  0.735700  0.216300  1.0
  O  O1769  1  0.922000  0.777200  0.215400  1.0
  O  O1770  1  0.085400  0.277200  0.715400  1.0
  O  O1771  1  0.078000  0.222800  0.784600  1.0
  O  O1772  1  0.914600  0.722800  0.284600  1.0
  O  O1773  1  0.003400  0.716000  0.236400  1.0
  O  O1774  1  0.044200  0.216000  0.736400  1.0
  O  O1775  1  0.996600  0.284000  0.763600  1.0
  O  O1776  1  0.955800  0.784000  0.263600  1.0
