# generated using pymatgen
data_Fe2H84C91S3N14(OF)9
_symmetry_space_group_name_H-M   'P 1'
_cell_length_a   20.31260000
_cell_length_b   20.31260000
_cell_length_c   51.39150000
_cell_angle_alpha   90.00000000
_cell_angle_beta   90.00000000
_cell_angle_gamma   90.00000000
_symmetry_Int_Tables_number   1
_chemical_formula_structural   Fe2H84C91S3N14(OF)9
_chemical_formula_sum   'Fe16 H672 C728 S24 N112 O72 F72'
_cell_volume   21204.22122965
_cell_formula_units_Z   8
loop_
 _symmetry_equiv_pos_site_id
 _symmetry_equiv_pos_as_xyz
  1  'x, y, z'
loop_
 _atom_site_type_symbol
 _atom_site_label
 _atom_site_symmetry_multiplicity
 _atom_site_fract_x
 _atom_site_fract_y
 _atom_site_fract_z
 _atom_site_occupancy
  Fe  Fe1  1  0.232540  0.287810  0.000940  1.0
  Fe  Fe2  1  0.767460  0.712190  0.500940  1.0
  Fe  Fe3  1  0.712190  0.232540  0.250940  1.0
  Fe  Fe4  1  0.287810  0.767460  0.750940  1.0
  Fe  Fe5  1  0.767460  0.287810  0.999060  1.0
  Fe  Fe6  1  0.232540  0.712190  0.499060  1.0
  Fe  Fe7  1  0.287810  0.232540  0.749060  1.0
  Fe  Fe8  1  0.712190  0.767460  0.249060  1.0
  Fe  Fe9  1  0.996630  0.612380  0.092990  1.0
  Fe  Fe10  1  0.003370  0.387620  0.592990  1.0
  Fe  Fe11  1  0.387620  0.996630  0.342990  1.0
  Fe  Fe12  1  0.612380  0.003370  0.842990  1.0
  Fe  Fe13  1  0.003370  0.612380  0.907010  1.0
  Fe  Fe14  1  0.996630  0.387620  0.407010  1.0
  Fe  Fe15  1  0.612380  0.996630  0.657010  1.0
  Fe  Fe16  1  0.387620  0.003370  0.157010  1.0
  H  H17  1  0.997100  0.236300  0.912800  1
  H  H18  1  0.002900  0.763700  0.412800  1
  H  H19  1  0.763700  0.997100  0.162800  1
  H  H20  1  0.236300  0.002900  0.662800  1
  H  H21  1  0.002900  0.236300  0.087200  1
  H  H22  1  0.997100  0.763700  0.587200  1
  H  H23  1  0.236300  0.997100  0.837200  1
  H  H24  1  0.763700  0.002900  0.337200  1
  H  H25  1  0.038500  0.284700  0.894500  1
  H  H26  1  0.961500  0.715300  0.394500  1
  H  H27  1  0.715300  0.038500  0.144500  1
  H  H28  1  0.284700  0.961500  0.644500  1
  H  H29  1  0.961500  0.284700  0.105500  1
  H  H30  1  0.038500  0.715300  0.605500  1
  H  H31  1  0.284700  0.038500  0.855500  1
  H  H32  1  0.715300  0.961500  0.355500  1
  H  H33  1  0.959800  0.288000  0.894500  1
  H  H34  1  0.040200  0.712000  0.394500  1
  H  H35  1  0.712000  0.959800  0.144500  1
  H  H36  1  0.288000  0.040200  0.644500  1
  H  H37  1  0.040200  0.288000  0.105500  1
  H  H38  1  0.959800  0.712000  0.605500  1
  H  H39  1  0.288000  0.959800  0.855500  1
  H  H40  1  0.712000  0.040200  0.355500  1
  H  H41  1  0.890300  0.567500  0.998800  1
  H  H42  1  0.109700  0.432500  0.498800  1
  H  H43  1  0.432500  0.890300  0.248800  1
  H  H44  1  0.567500  0.109700  0.748800  1
  H  H45  1  0.109700  0.567500  0.001200  1
  H  H46  1  0.890300  0.432500  0.501200  1
  H  H47  1  0.567500  0.890300  0.751200  1
  H  H48  1  0.432500  0.109700  0.251200  1
  H  H49  1  0.849500  0.514200  0.982500  1
  H  H50  1  0.150500  0.485800  0.482500  1
  H  H51  1  0.485800  0.849500  0.232500  1
  H  H52  1  0.514200  0.150500  0.732500  1
  H  H53  1  0.150500  0.514200  0.017500  1
  H  H54  1  0.849500  0.485800  0.517500  1
  H  H55  1  0.514200  0.849500  0.767500  1
  H  H56  1  0.485800  0.150500  0.267500  1
  H  H57  1  0.845400  0.514700  0.013600  1
  H  H58  1  0.154600  0.485300  0.513600  1
  H  H59  1  0.485300  0.845400  0.263600  1
  H  H60  1  0.514700  0.154600  0.763600  1
  H  H61  1  0.154600  0.514700  0.986400  1
  H  H62  1  0.845400  0.485300  0.486400  1
  H  H63  1  0.514700  0.845400  0.736400  1
  H  H64  1  0.485300  0.154600  0.236400  1
  H  H65  1  0.266300  0.065200  0.972200  1.0
  H  H66  1  0.733700  0.934800  0.472200  1.0
  H  H67  1  0.934800  0.266300  0.222200  1.0
  H  H68  1  0.065200  0.733700  0.722200  1.0
  H  H69  1  0.733700  0.065200  0.027800  1.0
  H  H70  1  0.266300  0.934800  0.527800  1.0
  H  H71  1  0.065200  0.266300  0.777800  1.0
  H  H72  1  0.934800  0.733700  0.277800  1.0
  H  H73  1  0.174800  0.012200  0.951100  1.0
  H  H74  1  0.825200  0.987800  0.451100  1.0
  H  H75  1  0.987800  0.174800  0.201100  1.0
  H  H76  1  0.012200  0.825200  0.701100  1.0
  H  H77  1  0.825200  0.012200  0.048900  1.0
  H  H78  1  0.174800  0.987800  0.548900  1.0
  H  H79  1  0.012200  0.174800  0.798900  1.0
  H  H80  1  0.987800  0.825200  0.298900  1.0
  H  H81  1  0.069900  0.013600  0.974300  1.0
  H  H82  1  0.930100  0.986400  0.474300  1.0
  H  H83  1  0.986400  0.069900  0.224300  1.0
  H  H84  1  0.013600  0.930100  0.724300  1.0
  H  H85  1  0.930100  0.013600  0.025700  1.0
  H  H86  1  0.069900  0.986400  0.525700  1.0
  H  H87  1  0.013600  0.069900  0.775700  1.0
  H  H88  1  0.986400  0.930100  0.275700  1.0
  H  H89  1  0.056600  0.062200  0.010200  1.0
  H  H90  1  0.943400  0.937800  0.510200  1.0
  H  H91  1  0.937800  0.056600  0.260200  1.0
  H  H92  1  0.062200  0.943400  0.760200  1.0
  H  H93  1  0.943400  0.062200  0.989800  1.0
  H  H94  1  0.056600  0.937800  0.489800  1.0
  H  H95  1  0.062200  0.056600  0.739800  1.0
  H  H96  1  0.937800  0.943400  0.239800  1.0
  H  H97  1  0.137500  0.120500  0.028200  1.0
  H  H98  1  0.862500  0.879500  0.528200  1.0
  H  H99  1  0.879500  0.137500  0.278200  1.0
  H  H100  1  0.120500  0.862500  0.778200  1.0
  H  H101  1  0.862500  0.120500  0.971800  1.0
  H  H102  1  0.137500  0.879500  0.471800  1.0
  H  H103  1  0.120500  0.137500  0.721800  1.0
  H  H104  1  0.879500  0.862500  0.221800  1.0
  H  H105  1  0.297200  0.152800  0.002900  1.0
  H  H106  1  0.702800  0.847200  0.502900  1.0
  H  H107  1  0.847200  0.297200  0.252900  1.0
  H  H108  1  0.152800  0.702800  0.752900  1.0
  H  H109  1  0.702800  0.152800  0.997100  1.0
  H  H110  1  0.297200  0.847200  0.497100  1.0
  H  H111  1  0.152800  0.297200  0.747100  1.0
  H  H112  1  0.847200  0.702800  0.247100  1.0
  H  H113  1  0.327300  0.129500  0.046300  1.0
  H  H114  1  0.672700  0.870500  0.546300  1.0
  H  H115  1  0.870500  0.327300  0.296300  1.0
  H  H116  1  0.129500  0.672700  0.796300  1.0
  H  H117  1  0.672700  0.129500  0.953700  1.0
  H  H118  1  0.327300  0.870500  0.453700  1.0
  H  H119  1  0.129500  0.327300  0.703700  1.0
  H  H120  1  0.870500  0.672700  0.203700  1.0
  H  H121  1  0.313500  0.064200  0.029800  1.0
  H  H122  1  0.686500  0.935800  0.529800  1.0
  H  H123  1  0.935800  0.313500  0.279800  1.0
  H  H124  1  0.064200  0.686500  0.779800  1.0
  H  H125  1  0.686500  0.064200  0.970200  1.0
  H  H126  1  0.313500  0.935800  0.470200  1.0
  H  H127  1  0.064200  0.313500  0.720200  1.0
  H  H128  1  0.935800  0.686500  0.220200  1.0
  H  H129  1  0.259700  0.090200  0.050000  1.0
  H  H130  1  0.740300  0.909800  0.550000  1.0
  H  H131  1  0.909800  0.259700  0.300000  1.0
  H  H132  1  0.090200  0.740300  0.800000  1.0
  H  H133  1  0.740300  0.090200  0.950000  1.0
  H  H134  1  0.259700  0.909800  0.450000  1.0
  H  H135  1  0.090200  0.259700  0.700000  1.0
  H  H136  1  0.909800  0.740300  0.200000  1.0
  H  H137  1  0.205600  0.178100  0.056700  1.0
  H  H138  1  0.794400  0.821900  0.556700  1.0
  H  H139  1  0.821900  0.205600  0.306700  1.0
  H  H140  1  0.178100  0.794400  0.806700  1.0
  H  H141  1  0.794400  0.178100  0.943300  1.0
  H  H142  1  0.205600  0.821900  0.443300  1.0
  H  H143  1  0.178100  0.205600  0.693300  1.0
  H  H144  1  0.821900  0.794400  0.193300  1.0
  H  H145  1  0.189900  0.420900  0.025400  1.0
  H  H146  1  0.810100  0.579100  0.525400  1.0
  H  H147  1  0.579100  0.189900  0.275400  1.0
  H  H148  1  0.420900  0.810100  0.775400  1.0
  H  H149  1  0.810100  0.420900  0.974600  1.0
  H  H150  1  0.189900  0.579100  0.474600  1.0
  H  H151  1  0.420900  0.189900  0.724600  1.0
  H  H152  1  0.579100  0.810100  0.224600  1.0
  H  H153  1  0.134800  0.381900  0.097700  1.0
  H  H154  1  0.865200  0.618100  0.597700  1.0
  H  H155  1  0.618100  0.134800  0.347700  1.0
  H  H156  1  0.381900  0.865200  0.847700  1.0
  H  H157  1  0.865200  0.381900  0.902300  1.0
  H  H158  1  0.134800  0.618100  0.402300  1.0
  H  H159  1  0.381900  0.134800  0.652300  1.0
  H  H160  1  0.618100  0.865200  0.152300  1.0
  H  H161  1  0.150900  0.266200  0.088600  1.0
  H  H162  1  0.849100  0.733800  0.588600  1.0
  H  H163  1  0.733800  0.150900  0.338600  1.0
  H  H164  1  0.266200  0.849100  0.838600  1.0
  H  H165  1  0.849100  0.266200  0.911400  1.0
  H  H166  1  0.150900  0.733800  0.411400  1.0
  H  H167  1  0.266200  0.150900  0.661400  1.0
  H  H168  1  0.733800  0.849100  0.161400  1.0
  H  H169  1  0.052800  0.475900  0.076600  1.0
  H  H170  1  0.947200  0.524100  0.576600  1.0
  H  H171  1  0.524100  0.052800  0.326600  1.0
  H  H172  1  0.475900  0.947200  0.826600  1.0
  H  H173  1  0.947200  0.475900  0.923400  1.0
  H  H174  1  0.052800  0.524100  0.423400  1.0
  H  H175  1  0.475900  0.052800  0.673400  1.0
  H  H176  1  0.524100  0.947200  0.173400  1.0
  H  H177  1  0.228500  0.621800  0.071100  1.0
  H  H178  1  0.771500  0.378200  0.571100  1.0
  H  H179  1  0.378200  0.228500  0.321100  1.0
  H  H180  1  0.621800  0.771500  0.821100  1.0
  H  H181  1  0.771500  0.621800  0.928900  1.0
  H  H182  1  0.228500  0.378200  0.428900  1.0
  H  H183  1  0.621800  0.228500  0.678900  1.0
  H  H184  1  0.378200  0.771500  0.178900  1.0
  H  H185  1  0.244200  0.512100  0.059500  1.0
  H  H186  1  0.755800  0.487900  0.559500  1.0
  H  H187  1  0.487900  0.244200  0.309500  1.0
  H  H188  1  0.512100  0.755800  0.809500  1.0
  H  H189  1  0.755800  0.512100  0.940500  1.0
  H  H190  1  0.244200  0.487900  0.440500  1.0
  H  H191  1  0.512100  0.244200  0.690500  1.0
  H  H192  1  0.487900  0.755800  0.190500  1.0
  H  H193  1  0.150200  0.713900  0.088200  1.0
  H  H194  1  0.849800  0.286100  0.588200  1.0
  H  H195  1  0.286100  0.150200  0.338200  1.0
  H  H196  1  0.713900  0.849800  0.838200  1.0
  H  H197  1  0.849800  0.713900  0.911800  1.0
  H  H198  1  0.150200  0.286100  0.411800  1.0
  H  H199  1  0.713900  0.150200  0.661800  1.0
  H  H200  1  0.286100  0.849800  0.161800  1.0
  H  H201  1  0.999400  0.749400  0.116300  1.0
  H  H202  1  0.000600  0.250600  0.616300  1.0
  H  H203  1  0.250600  0.999400  0.366300  1.0
  H  H204  1  0.749400  0.000600  0.866300  1.0
  H  H205  1  0.000600  0.749400  0.883700  1.0
  H  H206  1  0.999400  0.250600  0.383700  1.0
  H  H207  1  0.749400  0.999400  0.633700  1.0
  H  H208  1  0.250600  0.000600  0.133700  1.0
  H  H209  1  0.104300  0.777800  0.131400  1.0
  H  H210  1  0.895700  0.222200  0.631400  1.0
  H  H211  1  0.222200  0.104300  0.381400  1.0
  H  H212  1  0.777800  0.895700  0.881400  1.0
  H  H213  1  0.895700  0.777800  0.868600  1.0
  H  H214  1  0.104300  0.222200  0.368600  1.0
  H  H215  1  0.777800  0.104300  0.618600  1.0
  H  H216  1  0.222200  0.895700  0.118600  1.0
  H  H217  1  0.066600  0.841000  0.120300  1.0
  H  H218  1  0.933400  0.159000  0.620300  1.0
  H  H219  1  0.159000  0.066600  0.370300  1.0
  H  H220  1  0.841000  0.933400  0.870300  1.0
  H  H221  1  0.933400  0.841000  0.879700  1.0
  H  H222  1  0.066600  0.159000  0.379700  1.0
  H  H223  1  0.841000  0.066600  0.629700  1.0
  H  H224  1  0.159000  0.933400  0.129700  1.0
  H  H225  1  0.122900  0.806400  0.103300  1.0
  H  H226  1  0.877100  0.193600  0.603300  1.0
  H  H227  1  0.193600  0.122900  0.353300  1.0
  H  H228  1  0.806400  0.877100  0.853300  1.0
  H  H229  1  0.877100  0.806400  0.896700  1.0
  H  H230  1  0.122900  0.193600  0.396700  1.0
  H  H231  1  0.806400  0.122900  0.646700  1.0
  H  H232  1  0.193600  0.877100  0.146700  1.0
  H  H233  1  0.081200  0.765700  0.053300  1.0
  H  H234  1  0.918800  0.234300  0.553300  1.0
  H  H235  1  0.234300  0.081200  0.303300  1.0
  H  H236  1  0.765700  0.918800  0.803300  1.0
  H  H237  1  0.918800  0.765700  0.946700  1.0
  H  H238  1  0.081200  0.234300  0.446700  1.0
  H  H239  1  0.765700  0.081200  0.696700  1.0
  H  H240  1  0.234300  0.918800  0.196700  1.0
  H  H241  1  0.040900  0.830800  0.019300  1.0
  H  H242  1  0.959100  0.169200  0.519300  1.0
  H  H243  1  0.169200  0.040900  0.269300  1.0
  H  H244  1  0.830800  0.959100  0.769300  1.0
  H  H245  1  0.959100  0.830800  0.980700  1.0
  H  H246  1  0.040900  0.169200  0.480700  1.0
  H  H247  1  0.830800  0.040900  0.730700  1.0
  H  H248  1  0.169200  0.959100  0.230700  1.0
  H  H249  1  0.945200  0.887100  0.023100  1.0
  H  H250  1  0.054800  0.112900  0.523100  1.0
  H  H251  1  0.112900  0.945200  0.273100  1.0
  H  H252  1  0.887100  0.054800  0.773100  1.0
  H  H253  1  0.054800  0.887100  0.976900  1.0
  H  H254  1  0.945200  0.112900  0.476900  1.0
  H  H255  1  0.887100  0.945200  0.726900  1.0
  H  H256  1  0.112900  0.054800  0.226900  1.0
  H  H257  1  0.890700  0.895900  0.064500  1.0
  H  H258  1  0.109300  0.104100  0.564500  1.0
  H  H259  1  0.104100  0.890700  0.314500  1.0
  H  H260  1  0.895900  0.109300  0.814500  1.0
  H  H261  1  0.109300  0.895900  0.935500  1.0
  H  H262  1  0.890700  0.104100  0.435500  1.0
  H  H263  1  0.895900  0.890700  0.685500  1.0
  H  H264  1  0.104100  0.109300  0.185500  1.0
  H  H265  1  0.929200  0.832300  0.098800  1.0
  H  H266  1  0.070800  0.167700  0.598800  1.0
  H  H267  1  0.167700  0.929200  0.348800  1.0
  H  H268  1  0.832300  0.070800  0.848800  1.0
  H  H269  1  0.070800  0.832300  0.901200  1.0
  H  H270  1  0.929200  0.167700  0.401200  1.0
  H  H271  1  0.832300  0.929200  0.651200  1.0
  H  H272  1  0.167700  0.070800  0.151200  1.0
  H  H273  1  0.331400  0.259900  0.078400  1.0
  H  H274  1  0.668600  0.740100  0.578400  1.0
  H  H275  1  0.740100  0.331400  0.328400  1.0
  H  H276  1  0.259900  0.668600  0.828400  1.0
  H  H277  1  0.668600  0.259900  0.921600  1.0
  H  H278  1  0.331400  0.740100  0.421600  1.0
  H  H279  1  0.259900  0.331400  0.671600  1.0
  H  H280  1  0.740100  0.668600  0.171600  1.0
  H  H281  1  0.314600  0.313800  0.117600  1.0
  H  H282  1  0.685400  0.686200  0.617600  1.0
  H  H283  1  0.686200  0.314600  0.367600  1.0
  H  H284  1  0.313800  0.685400  0.867600  1.0
  H  H285  1  0.685400  0.313800  0.882400  1.0
  H  H286  1  0.314600  0.686200  0.382400  1.0
  H  H287  1  0.313800  0.314600  0.632400  1.0
  H  H288  1  0.686200  0.685400  0.132400  1.0
  H  H289  1  0.339400  0.426400  0.119700  1.0
  H  H290  1  0.660600  0.573600  0.619700  1.0
  H  H291  1  0.573600  0.339400  0.369700  1.0
  H  H292  1  0.426400  0.660600  0.869700  1.0
  H  H293  1  0.660600  0.426400  0.880300  1.0
  H  H294  1  0.339400  0.573600  0.380300  1.0
  H  H295  1  0.426400  0.339400  0.630300  1.0
  H  H296  1  0.573600  0.660600  0.130300  1.0
  H  H297  1  0.366100  0.484900  0.083400  1.0
  H  H298  1  0.633900  0.515100  0.583400  1.0
  H  H299  1  0.515100  0.366100  0.333400  1.0
  H  H300  1  0.484900  0.633900  0.833400  1.0
  H  H301  1  0.633900  0.484900  0.916600  1.0
  H  H302  1  0.366100  0.515100  0.416600  1.0
  H  H303  1  0.484900  0.366100  0.666600  1.0
  H  H304  1  0.515100  0.633900  0.166600  1.0
  H  H305  1  0.393900  0.428400  0.044700  1.0
  H  H306  1  0.606100  0.571600  0.544700  1.0
  H  H307  1  0.571600  0.393900  0.294700  1.0
  H  H308  1  0.428400  0.606100  0.794700  1.0
  H  H309  1  0.606100  0.428400  0.955300  1.0
  H  H310  1  0.393900  0.571600  0.455300  1.0
  H  H311  1  0.428400  0.393900  0.705300  1.0
  H  H312  1  0.571600  0.606100  0.205300  1.0
  H  H313  1  0.350400  0.255200  0.035000  1.0
  H  H314  1  0.649600  0.744800  0.535000  1.0
  H  H315  1  0.744800  0.350400  0.285000  1.0
  H  H316  1  0.255200  0.649600  0.785000  1.0
  H  H317  1  0.649600  0.255200  0.965000  1.0
  H  H318  1  0.350400  0.744800  0.465000  1.0
  H  H319  1  0.255200  0.350400  0.715000  1.0
  H  H320  1  0.744800  0.649600  0.215000  1.0
  H  H321  1  0.448100  0.342400  0.015200  1.0
  H  H322  1  0.551900  0.657600  0.515200  1.0
  H  H323  1  0.657600  0.448100  0.265200  1.0
  H  H324  1  0.342400  0.551900  0.765200  1.0
  H  H325  1  0.551900  0.342400  0.984800  1.0
  H  H326  1  0.448100  0.657600  0.484800  1.0
  H  H327  1  0.342400  0.448100  0.734800  1.0
  H  H328  1  0.657600  0.551900  0.234800  1.0
  H  H329  1  0.437500  0.267300  0.006800  1.0
  H  H330  1  0.562500  0.732700  0.506800  1.0
  H  H331  1  0.732700  0.437500  0.256800  1.0
  H  H332  1  0.267300  0.562500  0.756800  1.0
  H  H333  1  0.562500  0.267300  0.993200  1.0
  H  H334  1  0.437500  0.732700  0.493200  1.0
  H  H335  1  0.267300  0.437500  0.743200  1.0
  H  H336  1  0.732700  0.562500  0.243200  1.0
  H  H337  1  0.463600  0.284400  0.035400  1.0
  H  H338  1  0.536400  0.715600  0.535400  1.0
  H  H339  1  0.715600  0.463600  0.285400  1.0
  H  H340  1  0.284400  0.536400  0.785400  1.0
  H  H341  1  0.536400  0.284400  0.964600  1.0
  H  H342  1  0.463600  0.715600  0.464600  1.0
  H  H343  1  0.284400  0.463600  0.714600  1.0
  H  H344  1  0.715600  0.536400  0.214600  1.0
  H  H345  1  0.370900  0.407300  0.003800  1.0
  H  H346  1  0.629100  0.592700  0.503800  1.0
  H  H347  1  0.592700  0.370900  0.253800  1.0
  H  H348  1  0.407300  0.629100  0.753800  1.0
  H  H349  1  0.629100  0.407300  0.996200  1.0
  H  H350  1  0.370900  0.592700  0.496200  1.0
  H  H351  1  0.407300  0.370900  0.746200  1.0
  H  H352  1  0.592700  0.629100  0.246200  1.0
  H  H353  1  0.144000  0.357300  0.959800  1.0
  H  H354  1  0.856000  0.642700  0.459800  1.0
  H  H355  1  0.642700  0.144000  0.209800  1.0
  H  H356  1  0.357300  0.856000  0.709800  1.0
  H  H357  1  0.856000  0.357300  0.040200  1.0
  H  H358  1  0.144000  0.642700  0.540200  1.0
  H  H359  1  0.357300  0.144000  0.790200  1.0
  H  H360  1  0.642700  0.856000  0.290200  1.0
  H  H361  1  0.241000  0.523000  0.941000  1.0
  H  H362  1  0.759000  0.477000  0.441000  1.0
  H  H363  1  0.477000  0.241000  0.191000  1.0
  H  H364  1  0.523000  0.759000  0.691000  1.0
  H  H365  1  0.759000  0.523000  0.059000  1.0
  H  H366  1  0.241000  0.477000  0.559000  1.0
  H  H367  1  0.523000  0.241000  0.809000  1.0
  H  H368  1  0.477000  0.759000  0.309000  1.0
  H  H369  1  0.327300  0.492000  0.969100  1.0
  H  H370  1  0.672700  0.508000  0.469100  1.0
  H  H371  1  0.508000  0.327300  0.219100  1.0
  H  H372  1  0.492000  0.672700  0.719100  1.0
  H  H373  1  0.672700  0.492000  0.030900  1.0
  H  H374  1  0.327300  0.508000  0.530900  1.0
  H  H375  1  0.492000  0.327300  0.780900  1.0
  H  H376  1  0.508000  0.672700  0.280900  1.0
  H  H377  1  0.101900  0.540200  0.943000  1.0
  H  H378  1  0.898100  0.459800  0.443000  1.0
  H  H379  1  0.459800  0.101900  0.193000  1.0
  H  H380  1  0.540200  0.898100  0.693000  1.0
  H  H381  1  0.898100  0.540200  0.057000  1.0
  H  H382  1  0.101900  0.459800  0.557000  1.0
  H  H383  1  0.540200  0.101900  0.807000  1.0
  H  H384  1  0.459800  0.898100  0.307000  1.0
  H  H385  1  0.080600  0.410300  0.870300  1.0
  H  H386  1  0.919400  0.589700  0.370300  1.0
  H  H387  1  0.589700  0.080600  0.120300  1.0
  H  H388  1  0.410300  0.919400  0.620300  1.0
  H  H389  1  0.919400  0.410300  0.129700  1.0
  H  H390  1  0.080600  0.589700  0.629700  1.0
  H  H391  1  0.410300  0.080600  0.879700  1.0
  H  H392  1  0.589700  0.919400  0.379700  1.0
  H  H393  1  0.152100  0.374100  0.903300  1.0
  H  H394  1  0.847900  0.625900  0.403300  1.0
  H  H395  1  0.625900  0.152100  0.153300  1.0
  H  H396  1  0.374100  0.847900  0.653300  1.0
  H  H397  1  0.847900  0.374100  0.096700  1.0
  H  H398  1  0.152100  0.625900  0.596700  1.0
  H  H399  1  0.374100  0.152100  0.846700  1.0
  H  H400  1  0.625900  0.847900  0.346700  1.0
  H  H401  1  0.998500  0.503200  0.851800  1.0
  H  H402  1  0.001500  0.496800  0.351800  1.0
  H  H403  1  0.496800  0.998500  0.101800  1.0
  H  H404  1  0.503200  0.001500  0.601800  1.0
  H  H405  1  0.001500  0.503200  0.148200  1.0
  H  H406  1  0.998500  0.496800  0.648200  1.0
  H  H407  1  0.503200  0.998500  0.898200  1.0
  H  H408  1  0.496800  0.001500  0.398200  1.0
  H  H409  1  0.945600  0.656100  0.854300  1.0
  H  H410  1  0.054400  0.343900  0.354300  1.0
  H  H411  1  0.343900  0.945600  0.104300  1.0
  H  H412  1  0.656100  0.054400  0.604300  1.0
  H  H413  1  0.054400  0.656100  0.145700  1.0
  H  H414  1  0.945600  0.343900  0.645700  1.0
  H  H415  1  0.656100  0.945600  0.895700  1.0
  H  H416  1  0.343900  0.054400  0.395700  1.0
  H  H417  1  0.882900  0.494700  0.864700  1.0
  H  H418  1  0.117100  0.505300  0.364700  1.0
  H  H419  1  0.505300  0.882900  0.114700  1.0
  H  H420  1  0.494700  0.117100  0.614700  1.0
  H  H421  1  0.117100  0.494700  0.135300  1.0
  H  H422  1  0.882900  0.505300  0.635300  1.0
  H  H423  1  0.494700  0.882900  0.885300  1.0
  H  H424  1  0.505300  0.117100  0.385300  1.0
  H  H425  1  0.771700  0.468300  0.870400  1.0
  H  H426  1  0.228300  0.531700  0.370400  1.0
  H  H427  1  0.531700  0.771700  0.120400  1.0
  H  H428  1  0.468300  0.228300  0.620400  1.0
  H  H429  1  0.228300  0.468300  0.129600  1.0
  H  H430  1  0.771700  0.531700  0.629600  1.0
  H  H431  1  0.468300  0.771700  0.879600  1.0
  H  H432  1  0.531700  0.228300  0.379600  1.0
  H  H433  1  0.691500  0.550500  0.867200  1.0
  H  H434  1  0.308500  0.449500  0.367200  1.0
  H  H435  1  0.449500  0.691500  0.117200  1.0
  H  H436  1  0.550500  0.308500  0.617200  1.0
  H  H437  1  0.308500  0.550500  0.132800  1.0
  H  H438  1  0.691500  0.449500  0.632800  1.0
  H  H439  1  0.550500  0.691500  0.882800  1.0
  H  H440  1  0.449500  0.308500  0.382800  1.0
  H  H441  1  0.722400  0.659200  0.858300  1.0
  H  H442  1  0.277600  0.340800  0.358300  1.0
  H  H443  1  0.340800  0.722400  0.108300  1.0
  H  H444  1  0.659200  0.277600  0.608300  1.0
  H  H445  1  0.277600  0.659200  0.141700  1.0
  H  H446  1  0.722400  0.340800  0.641700  1.0
  H  H447  1  0.659200  0.722400  0.891700  1.0
  H  H448  1  0.340800  0.277600  0.391700  1.0
  H  H449  1  0.833600  0.685600  0.852600  1.0
  H  H450  1  0.166400  0.314400  0.352600  1.0
  H  H451  1  0.314400  0.833600  0.102600  1.0
  H  H452  1  0.685600  0.166400  0.602600  1.0
  H  H453  1  0.166400  0.685600  0.147400  1.0
  H  H454  1  0.833600  0.314400  0.647400  1.0
  H  H455  1  0.685600  0.833600  0.897400  1.0
  H  H456  1  0.314400  0.166400  0.397400  1.0
  H  H457  1  0.004800  0.598800  0.821100  1.0
  H  H458  1  0.995200  0.401200  0.321100  1.0
  H  H459  1  0.401200  0.004800  0.071100  1.0
  H  H460  1  0.598800  0.995200  0.571100  1.0
  H  H461  1  0.995200  0.598800  0.178900  1.0
  H  H462  1  0.004800  0.401200  0.678900  1.0
  H  H463  1  0.598800  0.004800  0.928900  1.0
  H  H464  1  0.401200  0.995200  0.428900  1.0
  H  H465  1  0.933000  0.623600  0.812900  1.0
  H  H466  1  0.067000  0.376400  0.312900  1.0
  H  H467  1  0.376400  0.933000  0.062900  1.0
  H  H468  1  0.623600  0.067000  0.562900  1.0
  H  H469  1  0.067000  0.623600  0.187100  1.0
  H  H470  1  0.933000  0.376400  0.687100  1.0
  H  H471  1  0.623600  0.933000  0.937100  1.0
  H  H472  1  0.376400  0.067000  0.437100  1.0
  H  H473  1  0.944800  0.547800  0.819800  1.0
  H  H474  1  0.055200  0.452200  0.319800  1.0
  H  H475  1  0.452200  0.944800  0.069800  1.0
  H  H476  1  0.547800  0.055200  0.569800  1.0
  H  H477  1  0.055200  0.547800  0.180200  1.0
  H  H478  1  0.944800  0.452200  0.680200  1.0
  H  H479  1  0.547800  0.944800  0.930200  1.0
  H  H480  1  0.452200  0.055200  0.430200  1.0
  H  H481  1  0.429100  0.324000  0.962300  1.0
  H  H482  1  0.570900  0.676000  0.462300  1.0
  H  H483  1  0.676000  0.429100  0.212300  1.0
  H  H484  1  0.324000  0.570900  0.712300  1.0
  H  H485  1  0.570900  0.324000  0.037700  1.0
  H  H486  1  0.429100  0.676000  0.537700  1.0
  H  H487  1  0.324000  0.429100  0.787700  1.0
  H  H488  1  0.676000  0.570900  0.287700  1.0
  H  H489  1  0.461100  0.413900  0.936600  1.0
  H  H490  1  0.538900  0.586100  0.436600  1.0
  H  H491  1  0.586100  0.461100  0.186600  1.0
  H  H492  1  0.413900  0.538900  0.686600  1.0
  H  H493  1  0.538900  0.413900  0.063400  1.0
  H  H494  1  0.461100  0.586100  0.563400  1.0
  H  H495  1  0.413900  0.461100  0.813400  1.0
  H  H496  1  0.586100  0.538900  0.313400  1.0
  H  H497  1  0.394200  0.447200  0.902700  1.0
  H  H498  1  0.605800  0.552800  0.402700  1.0
  H  H499  1  0.552800  0.394200  0.152700  1.0
  H  H500  1  0.447200  0.605800  0.652700  1.0
  H  H501  1  0.605800  0.447200  0.097300  1.0
  H  H502  1  0.394200  0.552800  0.597300  1.0
  H  H503  1  0.447200  0.394200  0.847300  1.0
  H  H504  1  0.552800  0.605800  0.347300  1.0
  H  H505  1  0.296300  0.388600  0.892200  1.0
  H  H506  1  0.703700  0.611400  0.392200  1.0
  H  H507  1  0.611400  0.296300  0.142200  1.0
  H  H508  1  0.388600  0.703700  0.642200  1.0
  H  H509  1  0.703700  0.388600  0.107800  1.0
  H  H510  1  0.296300  0.611400  0.607800  1.0
  H  H511  1  0.388600  0.296300  0.857800  1.0
  H  H512  1  0.611400  0.703700  0.357800  1.0
  H  H513  1  0.271800  0.293600  0.917700  1.0
  H  H514  1  0.728200  0.706400  0.417700  1.0
  H  H515  1  0.706400  0.271800  0.167700  1.0
  H  H516  1  0.293600  0.728200  0.667700  1.0
  H  H517  1  0.728200  0.293600  0.082300  1.0
  H  H518  1  0.271800  0.706400  0.582300  1.0
  H  H519  1  0.293600  0.271800  0.832300  1.0
  H  H520  1  0.706400  0.728200  0.332300  1.0
  H  H521  1  0.360500  0.239900  0.973500  1.0
  H  H522  1  0.639500  0.760100  0.473500  1.0
  H  H523  1  0.760100  0.360500  0.223500  1.0
  H  H524  1  0.239900  0.639500  0.723500  1.0
  H  H525  1  0.639500  0.239900  0.026500  1.0
  H  H526  1  0.360500  0.760100  0.526500  1.0
  H  H527  1  0.239900  0.360500  0.776500  1.0
  H  H528  1  0.760100  0.639500  0.276500  1.0
  H  H529  1  0.320500  0.183200  0.924700  1.0
  H  H530  1  0.679500  0.816800  0.424700  1.0
  H  H531  1  0.816800  0.320500  0.174700  1.0
  H  H532  1  0.183200  0.679500  0.674700  1.0
  H  H533  1  0.679500  0.183200  0.075300  1.0
  H  H534  1  0.320500  0.816800  0.575300  1.0
  H  H535  1  0.183200  0.320500  0.825300  1.0
  H  H536  1  0.816800  0.679500  0.325300  1.0
  H  H537  1  0.328900  0.139700  0.950500  1.0
  H  H538  1  0.671100  0.860300  0.450500  1.0
  H  H539  1  0.860300  0.328900  0.200500  1.0
  H  H540  1  0.139700  0.671100  0.700500  1.0
  H  H541  1  0.671100  0.139700  0.049500  1.0
  H  H542  1  0.328900  0.860300  0.549500  1.0
  H  H543  1  0.139700  0.328900  0.799500  1.0
  H  H544  1  0.860300  0.671100  0.299500  1.0
  H  H545  1  0.391300  0.175900  0.938000  1.0
  H  H546  1  0.608700  0.824100  0.438000  1.0
  H  H547  1  0.824100  0.391300  0.188000  1.0
  H  H548  1  0.175900  0.608700  0.688000  1.0
  H  H549  1  0.608700  0.175900  0.062000  1.0
  H  H550  1  0.391300  0.824100  0.562000  1.0
  H  H551  1  0.175900  0.391300  0.812000  1.0
  H  H552  1  0.824100  0.608700  0.312000  1.0
  H  H553  1  0.220600  0.195700  0.939200  1.0
  H  H554  1  0.779400  0.804300  0.439200  1.0
  H  H555  1  0.804300  0.220600  0.189200  1.0
  H  H556  1  0.195700  0.779400  0.689200  1.0
  H  H557  1  0.779400  0.195700  0.060800  1.0
  H  H558  1  0.220600  0.804300  0.560800  1.0
  H  H559  1  0.195700  0.220600  0.810800  1.0
  H  H560  1  0.804300  0.779400  0.310800  1.0
  H  H561  1  0.088000  0.279100  0.018700  1.0
  H  H562  1  0.912000  0.720900  0.518700  1.0
  H  H563  1  0.720900  0.088000  0.268700  1.0
  H  H564  1  0.279100  0.912000  0.768700  1.0
  H  H565  1  0.912000  0.279100  0.981300  1.0
  H  H566  1  0.088000  0.720900  0.481300  1.0
  H  H567  1  0.279100  0.088000  0.731300  1.0
  H  H568  1  0.720900  0.912000  0.231300  1.0
  H  H569  1  0.994200  0.181100  0.960800  1.0
  H  H570  1  0.005800  0.818900  0.460800  1.0
  H  H571  1  0.818900  0.994200  0.210800  1.0
  H  H572  1  0.181100  0.005800  0.710800  1.0
  H  H573  1  0.005800  0.181100  0.039200  1.0
  H  H574  1  0.994200  0.818900  0.539200  1.0
  H  H575  1  0.181100  0.994200  0.789200  1.0
  H  H576  1  0.818900  0.005800  0.289200  1.0
  H  H577  1  0.090600  0.182200  0.937000  1.0
  H  H578  1  0.909400  0.817800  0.437000  1.0
  H  H579  1  0.817800  0.090600  0.187000  1.0
  H  H580  1  0.182200  0.909400  0.687000  1.0
  H  H581  1  0.909400  0.182200  0.063000  1.0
  H  H582  1  0.090600  0.817800  0.563000  1.0
  H  H583  1  0.182200  0.090600  0.813000  1.0
  H  H584  1  0.817800  0.909400  0.313000  1.0
  H  H585  1  0.044200  0.617400  0.035100  1.0
  H  H586  1  0.955800  0.382600  0.535100  1.0
  H  H587  1  0.382600  0.044200  0.285100  1.0
  H  H588  1  0.617400  0.955800  0.785100  1.0
  H  H589  1  0.955800  0.617400  0.964900  1.0
  H  H590  1  0.044200  0.382600  0.464900  1.0
  H  H591  1  0.617400  0.044200  0.714900  1.0
  H  H592  1  0.382600  0.955800  0.214900  1.0
  H  H593  1  0.843300  0.723900  0.035900  1.0
  H  H594  1  0.156700  0.276100  0.535900  1.0
  H  H595  1  0.276100  0.843300  0.285900  1.0
  H  H596  1  0.723900  0.156700  0.785900  1.0
  H  H597  1  0.156700  0.723900  0.964100  1.0
  H  H598  1  0.843300  0.276100  0.464100  1.0
  H  H599  1  0.723900  0.843300  0.714100  1.0
  H  H600  1  0.276100  0.156700  0.214100  1.0
  H  H601  1  0.893900  0.706200  0.995900  1.0
  H  H602  1  0.106100  0.293800  0.495900  1.0
  H  H603  1  0.293800  0.893900  0.245900  1.0
  H  H604  1  0.706200  0.106100  0.745900  1.0
  H  H605  1  0.106100  0.706200  0.004100  1.0
  H  H606  1  0.893900  0.293800  0.504100  1.0
  H  H607  1  0.706200  0.893900  0.754100  1.0
  H  H608  1  0.293800  0.106100  0.254100  1.0
  H  H609  1  0.840700  0.708200  0.084600  1.0
  H  H610  1  0.159300  0.291800  0.584600  1.0
  H  H611  1  0.291800  0.840700  0.334600  1.0
  H  H612  1  0.708200  0.159300  0.834600  1.0
  H  H613  1  0.159300  0.708200  0.915400  1.0
  H  H614  1  0.840700  0.291800  0.415400  1.0
  H  H615  1  0.708200  0.840700  0.665400  1.0
  H  H616  1  0.291800  0.159300  0.165400  1.0
  H  H617  1  0.923800  0.661200  0.142200  1.0
  H  H618  1  0.076200  0.338800  0.642200  1.0
  H  H619  1  0.338800  0.923800  0.392200  1.0
  H  H620  1  0.661200  0.076200  0.892200  1.0
  H  H621  1  0.076200  0.661200  0.857800  1.0
  H  H622  1  0.923800  0.338800  0.357800  1.0
  H  H623  1  0.661200  0.923800  0.607800  1.0
  H  H624  1  0.338800  0.076200  0.107800  1.0
  H  H625  1  0.793100  0.600800  0.101100  1.0
  H  H626  1  0.206900  0.399200  0.601100  1.0
  H  H627  1  0.399200  0.793100  0.351100  1.0
  H  H628  1  0.600800  0.206900  0.851100  1.0
  H  H629  1  0.206900  0.600800  0.898900  1.0
  H  H630  1  0.793100  0.399200  0.398900  1.0
  H  H631  1  0.600800  0.793100  0.648900  1.0
  H  H632  1  0.399200  0.206900  0.148900  1.0
  H  H633  1  0.726100  0.513700  0.112300  1.0
  H  H634  1  0.273900  0.486300  0.612300  1.0
  H  H635  1  0.486300  0.726100  0.362300  1.0
  H  H636  1  0.513700  0.273900  0.862300  1.0
  H  H637  1  0.273900  0.513700  0.887700  1.0
  H  H638  1  0.726100  0.486300  0.387700  1.0
  H  H639  1  0.513700  0.726100  0.637700  1.0
  H  H640  1  0.486300  0.273900  0.137700  1.0
  H  H641  1  0.728600  0.468300  0.151900  1.0
  H  H642  1  0.271400  0.531700  0.651900  1.0
  H  H643  1  0.531700  0.728600  0.401900  1.0
  H  H644  1  0.468300  0.271400  0.901900  1.0
  H  H645  1  0.271400  0.468300  0.848100  1.0
  H  H646  1  0.728600  0.531700  0.348100  1.0
  H  H647  1  0.468300  0.728600  0.598100  1.0
  H  H648  1  0.531700  0.271400  0.098100  1.0
  H  H649  1  0.816100  0.498400  0.181100  1.0
  H  H650  1  0.183900  0.501600  0.681100  1.0
  H  H651  1  0.501600  0.816100  0.431100  1.0
  H  H652  1  0.498400  0.183900  0.931100  1.0
  H  H653  1  0.183900  0.498400  0.818900  1.0
  H  H654  1  0.816100  0.501600  0.318900  1.0
  H  H655  1  0.498400  0.816100  0.568900  1.0
  H  H656  1  0.501600  0.183900  0.068900  1.0
  H  H657  1  0.884600  0.585300  0.169900  1.0
  H  H658  1  0.115400  0.414700  0.669900  1.0
  H  H659  1  0.414700  0.884600  0.419900  1.0
  H  H660  1  0.585300  0.115400  0.919900  1.0
  H  H661  1  0.115400  0.585300  0.830100  1.0
  H  H662  1  0.884600  0.414700  0.330100  1.0
  H  H663  1  0.585300  0.884600  0.580100  1.0
  H  H664  1  0.414700  0.115400  0.080100  1.0
  H  H665  1  0.809400  0.728100  0.121700  1.0
  H  H666  1  0.190600  0.271900  0.621700  1.0
  H  H667  1  0.271900  0.809400  0.371700  1.0
  H  H668  1  0.728100  0.190600  0.871700  1.0
  H  H669  1  0.190600  0.728100  0.878300  1.0
  H  H670  1  0.809400  0.271900  0.378300  1.0
  H  H671  1  0.728100  0.809400  0.628300  1.0
  H  H672  1  0.271900  0.190600  0.128300  1.0
  H  H673  1  0.875000  0.765000  0.130900  1.0
  H  H674  1  0.125000  0.235000  0.630900  1.0
  H  H675  1  0.235000  0.875000  0.380900  1.0
  H  H676  1  0.765000  0.125000  0.880900  1.0
  H  H677  1  0.125000  0.765000  0.869100  1.0
  H  H678  1  0.875000  0.235000  0.369100  1.0
  H  H679  1  0.765000  0.875000  0.619100  1.0
  H  H680  1  0.235000  0.125000  0.119100  1.0
  H  H681  1  0.829900  0.727700  0.151700  1.0
  H  H682  1  0.170100  0.272300  0.651700  1.0
  H  H683  1  0.272300  0.829900  0.401700  1.0
  H  H684  1  0.727700  0.170100  0.901700  1.0
  H  H685  1  0.170100  0.727700  0.848300  1.0
  H  H686  1  0.829900  0.272300  0.348300  1.0
  H  H687  1  0.727700  0.829900  0.598300  1.0
  H  H688  1  0.272300  0.170100  0.098300  1.0
  C  C689  1  0.963000  0.027500  0.920000  1
  C  C690  1  0.037000  0.972500  0.420000  1
  C  C691  1  0.972500  0.963000  0.170000  1
  C  C692  1  0.027500  0.037000  0.670000  1
  C  C693  1  0.037000  0.027500  0.080000  1
  C  C694  1  0.963000  0.972500  0.580000  1
  C  C695  1  0.027500  0.963000  0.830000  1
  C  C696  1  0.972500  0.037000  0.330000  1
  C  C697  1  0.000900  0.327600  0.925400  1
  C  C698  1  0.999100  0.672400  0.425400  1
  C  C699  1  0.672400  0.000900  0.175400  1
  C  C700  1  0.327600  0.999100  0.675400  1
  C  C701  1  0.999100  0.327600  0.074600  1
  C  C702  1  0.000900  0.672400  0.574600  1
  C  C703  1  0.327600  0.000900  0.824600  1
  C  C704  1  0.672400  0.999100  0.324600  1
  C  C705  1  0.998900  0.280600  0.905300  1
  C  C706  1  0.001100  0.719400  0.405300  1
  C  C707  1  0.719400  0.998900  0.155300  1
  C  C708  1  0.280600  0.001100  0.655300  1
  C  C709  1  0.001100  0.280600  0.094700  1
  C  C710  1  0.998900  0.719400  0.594700  1
  C  C711  1  0.280600  0.998900  0.844700  1
  C  C712  1  0.719400  0.001100  0.344700  1
  C  C713  1  0.849300  0.542300  0.998000  1
  C  C714  1  0.150700  0.457700  0.498000  1
  C  C715  1  0.457700  0.849300  0.248000  1
  C  C716  1  0.542300  0.150700  0.748000  1
  C  C717  1  0.150700  0.542300  0.002000  1
  C  C718  1  0.849300  0.457700  0.502000  1
  C  C719  1  0.542300  0.849300  0.752000  1
  C  C720  1  0.457700  0.150700  0.252000  1
  C  C721  1  0.796500  0.585100  0.996800  1
  C  C722  1  0.203500  0.414900  0.496800  1
  C  C723  1  0.414900  0.796500  0.246800  1
  C  C724  1  0.585100  0.203500  0.746800  1
  C  C725  1  0.203500  0.585100  0.003200  1
  C  C726  1  0.796500  0.414900  0.503200  1
  C  C727  1  0.585100  0.796500  0.753200  1
  C  C728  1  0.414900  0.203500  0.253200  1
  C  C729  1  0.662700  0.736520  0.040650  1
  C  C730  1  0.337300  0.263480  0.540650  1
  C  C731  1  0.263480  0.662700  0.290650  1
  C  C732  1  0.736520  0.337300  0.790650  1
  C  C733  1  0.337300  0.736520  0.959350  1
  C  C734  1  0.662700  0.263480  0.459350  1
  C  C735  1  0.736520  0.662700  0.709350  1
  C  C736  1  0.263480  0.337300  0.209350  1
  C  C737  1  0.987100  0.358000  0.031300  1
  C  C738  1  0.012900  0.642000  0.531300  1
  C  C739  1  0.642000  0.987100  0.281300  1
  C  C740  1  0.358000  0.012900  0.781300  1
  C  C741  1  0.012900  0.358000  0.968700  1
  C  C742  1  0.987100  0.642000  0.468700  1
  C  C743  1  0.358000  0.987100  0.718700  1
  C  C744  1  0.642000  0.012900  0.218700  1
  C  C745  1  0.210300  0.104100  0.002170  1.0
  C  C746  1  0.789700  0.895900  0.502170  1.0
  C  C747  1  0.895900  0.210300  0.252170  1.0
  C  C748  1  0.104100  0.789700  0.752170  1.0
  C  C749  1  0.789700  0.104100  0.997830  1.0
  C  C750  1  0.210300  0.895900  0.497830  1.0
  C  C751  1  0.104100  0.210300  0.747830  1.0
  C  C752  1  0.895900  0.789700  0.247830  1.0
  C  C753  1  0.223100  0.067400  0.979300  1.0
  C  C754  1  0.776900  0.932600  0.479300  1.0
  C  C755  1  0.932600  0.223100  0.229300  1.0
  C  C756  1  0.067400  0.776900  0.729300  1.0
  C  C757  1  0.776900  0.067400  0.020700  1.0
  C  C758  1  0.223100  0.932600  0.520700  1.0
  C  C759  1  0.067400  0.223100  0.770700  1.0
  C  C760  1  0.932600  0.776900  0.270700  1.0
  C  C761  1  0.170200  0.034300  0.967300  1.0
  C  C762  1  0.829800  0.965700  0.467300  1.0
  C  C763  1  0.965700  0.170200  0.217300  1.0
  C  C764  1  0.034300  0.829800  0.717300  1.0
  C  C765  1  0.829800  0.034300  0.032700  1.0
  C  C766  1  0.170200  0.965700  0.532700  1.0
  C  C767  1  0.034300  0.170200  0.782700  1.0
  C  C768  1  0.965700  0.829800  0.282700  1.0
  C  C769  1  0.106400  0.036200  0.981700  1.0
  C  C770  1  0.893600  0.963800  0.481700  1.0
  C  C771  1  0.963800  0.106400  0.231700  1.0
  C  C772  1  0.036200  0.893600  0.731700  1.0
  C  C773  1  0.893600  0.036200  0.018300  1.0
  C  C774  1  0.106400  0.963800  0.518300  1.0
  C  C775  1  0.036200  0.106400  0.768300  1.0
  C  C776  1  0.963800  0.893600  0.268300  1.0
  C  C777  1  0.098200  0.064300  0.001800  1.0
  C  C778  1  0.901800  0.935700  0.501800  1.0
  C  C779  1  0.935700  0.098200  0.251800  1.0
  C  C780  1  0.064300  0.901800  0.751800  1.0
  C  C781  1  0.901800  0.064300  0.998200  1.0
  C  C782  1  0.098200  0.935700  0.498200  1.0
  C  C783  1  0.064300  0.098200  0.748200  1.0
  C  C784  1  0.935700  0.901800  0.248200  1.0
  C  C785  1  0.146600  0.098200  0.012400  1.0
  C  C786  1  0.853400  0.901800  0.512400  1.0
  C  C787  1  0.901800  0.146600  0.262400  1.0
  C  C788  1  0.098200  0.853400  0.762400  1.0
  C  C789  1  0.853400  0.098200  0.987600  1.0
  C  C790  1  0.146600  0.901800  0.487600  1.0
  C  C791  1  0.098200  0.146600  0.737600  1.0
  C  C792  1  0.901800  0.853400  0.237600  1.0
  C  C793  1  0.261700  0.144800  0.015980  1.0
  C  C794  1  0.738300  0.855200  0.515980  1.0
  C  C795  1  0.855200  0.261700  0.265980  1.0
  C  C796  1  0.144800  0.738300  0.765980  1.0
  C  C797  1  0.738300  0.144800  0.984020  1.0
  C  C798  1  0.261700  0.855200  0.484020  1.0
  C  C799  1  0.144800  0.261700  0.734020  1.0
  C  C800  1  0.855200  0.738300  0.234020  1.0
  C  C801  1  0.293400  0.103500  0.037400  1.0
  C  C802  1  0.706600  0.896500  0.537400  1.0
  C  C803  1  0.896500  0.293400  0.287400  1.0
  C  C804  1  0.103500  0.706600  0.787400  1.0
  C  C805  1  0.706600  0.103500  0.962600  1.0
  C  C806  1  0.293400  0.896500  0.462600  1.0
  C  C807  1  0.103500  0.293400  0.712600  1.0
  C  C808  1  0.896500  0.706600  0.212600  1.0
  C  C809  1  0.210900  0.215000  0.045550  1.0
  C  C810  1  0.789100  0.785000  0.545550  1.0
  C  C811  1  0.785000  0.210900  0.295550  1.0
  C  C812  1  0.215000  0.789100  0.795550  1.0
  C  C813  1  0.789100  0.215000  0.954450  1.0
  C  C814  1  0.210900  0.785000  0.454450  1.0
  C  C815  1  0.215000  0.210900  0.704450  1.0
  C  C816  1  0.785000  0.789100  0.204450  1.0
  C  C817  1  0.188800  0.281000  0.052970  1.0
  C  C818  1  0.811200  0.719000  0.552970  1.0
  C  C819  1  0.719000  0.188800  0.302970  1.0
  C  C820  1  0.281000  0.811200  0.802970  1.0
  C  C821  1  0.811200  0.281000  0.947030  1.0
  C  C822  1  0.188800  0.719000  0.447030  1.0
  C  C823  1  0.281000  0.188800  0.697030  1.0
  C  C824  1  0.719000  0.811200  0.197030  1.0
  C  C825  1  0.183400  0.388800  0.038650  1.0
  C  C826  1  0.816600  0.611200  0.538650  1.0
  C  C827  1  0.611200  0.183400  0.288650  1.0
  C  C828  1  0.388800  0.816600  0.788650  1.0
  C  C829  1  0.816600  0.388800  0.961350  1.0
  C  C830  1  0.183400  0.611200  0.461350  1.0
  C  C831  1  0.388800  0.183400  0.711350  1.0
  C  C832  1  0.611200  0.816600  0.211350  1.0
  C  C833  1  0.160900  0.410000  0.061700  1.0
  C  C834  1  0.839100  0.590000  0.561700  1.0
  C  C835  1  0.590000  0.160900  0.311700  1.0
  C  C836  1  0.410000  0.839100  0.811700  1.0
  C  C837  1  0.839100  0.410000  0.938300  1.0
  C  C838  1  0.160900  0.590000  0.438300  1.0
  C  C839  1  0.410000  0.160900  0.688300  1.0
  C  C840  1  0.590000  0.839100  0.188300  1.0
  C  C841  1  0.149900  0.367300  0.081130  1.0
  C  C842  1  0.850100  0.632700  0.581130  1.0
  C  C843  1  0.632700  0.149900  0.331130  1.0
  C  C844  1  0.367300  0.850100  0.831130  1.0
  C  C845  1  0.850100  0.367300  0.918870  1.0
  C  C846  1  0.149900  0.632700  0.418870  1.0
  C  C847  1  0.367300  0.149900  0.668870  1.0
  C  C848  1  0.632700  0.850100  0.168870  1.0
  C  C849  1  0.161800  0.298600  0.076000  1.0
  C  C850  1  0.838200  0.701400  0.576000  1.0
  C  C851  1  0.701400  0.161800  0.326000  1.0
  C  C852  1  0.298600  0.838200  0.826000  1.0
  C  C853  1  0.838200  0.298600  0.924000  1.0
  C  C854  1  0.161800  0.701400  0.424000  1.0
  C  C855  1  0.298600  0.161800  0.674000  1.0
  C  C856  1  0.701400  0.838200  0.174000  1.0
  C  C857  1  0.150800  0.482500  0.066930  1.0
  C  C858  1  0.849200  0.517500  0.566930  1.0
  C  C859  1  0.517500  0.150800  0.316930  1.0
  C  C860  1  0.482500  0.849200  0.816930  1.0
  C  C861  1  0.849200  0.482500  0.933070  1.0
  C  C862  1  0.150800  0.517500  0.433070  1.0
  C  C863  1  0.482500  0.150800  0.683070  1.0
  C  C864  1  0.517500  0.849200  0.183070  1.0
  C  C865  1  0.088600  0.505900  0.075210  1.0
  C  C866  1  0.911400  0.494100  0.575210  1.0
  C  C867  1  0.494100  0.088600  0.325210  1.0
  C  C868  1  0.505900  0.911400  0.825210  1.0
  C  C869  1  0.911400  0.505900  0.924790  1.0
  C  C870  1  0.088600  0.494100  0.424790  1.0
  C  C871  1  0.505900  0.088600  0.674790  1.0
  C  C872  1  0.494100  0.911400  0.174790  1.0
  C  C873  1  0.131500  0.612200  0.079070  1.0
  C  C874  1  0.868500  0.387800  0.579070  1.0
  C  C875  1  0.387800  0.131500  0.329070  1.0
  C  C876  1  0.612200  0.868500  0.829070  1.0
  C  C877  1  0.868500  0.612200  0.920930  1.0
  C  C878  1  0.131500  0.387800  0.420930  1.0
  C  C879  1  0.612200  0.131500  0.670930  1.0
  C  C880  1  0.387800  0.868500  0.170930  1.0
  C  C881  1  0.192800  0.591600  0.071700  1.0
  C  C882  1  0.807200  0.408400  0.571700  1.0
  C  C883  1  0.408400  0.192800  0.321700  1.0
  C  C884  1  0.591600  0.807200  0.821700  1.0
  C  C885  1  0.807200  0.591600  0.928300  1.0
  C  C886  1  0.192800  0.408400  0.428300  1.0
  C  C887  1  0.591600  0.192800  0.678300  1.0
  C  C888  1  0.408400  0.807200  0.178300  1.0
  C  C889  1  0.202200  0.526600  0.065200  1.0
  C  C890  1  0.797800  0.473400  0.565200  1.0
  C  C891  1  0.473400  0.202200  0.315200  1.0
  C  C892  1  0.526600  0.797800  0.815200  1.0
  C  C893  1  0.797800  0.526600  0.934800  1.0
  C  C894  1  0.202200  0.473400  0.434800  1.0
  C  C895  1  0.526600  0.202200  0.684800  1.0
  C  C896  1  0.473400  0.797800  0.184800  1.0
  C  C897  1  0.118000  0.680000  0.088000  1.0
  C  C898  1  0.882000  0.320000  0.588000  1.0
  C  C899  1  0.320000  0.118000  0.338000  1.0
  C  C900  1  0.680000  0.882000  0.838000  1.0
  C  C901  1  0.882000  0.680000  0.912000  1.0
  C  C902  1  0.118000  0.320000  0.412000  1.0
  C  C903  1  0.680000  0.118000  0.662000  1.0
  C  C904  1  0.320000  0.882000  0.162000  1.0
  C  C905  1  0.035900  0.754400  0.103300  1.0
  C  C906  1  0.964100  0.245600  0.603300  1.0
  C  C907  1  0.245600  0.035900  0.353300  1.0
  C  C908  1  0.754400  0.964100  0.853300  1.0
  C  C909  1  0.964100  0.754400  0.896700  1.0
  C  C910  1  0.035900  0.245600  0.396700  1.0
  C  C911  1  0.754400  0.035900  0.646700  1.0
  C  C912  1  0.245600  0.964100  0.146700  1.0
  C  C913  1  0.086900  0.798800  0.115700  1.0
  C  C914  1  0.913100  0.201200  0.615700  1.0
  C  C915  1  0.201200  0.086900  0.365700  1.0
  C  C916  1  0.798800  0.913100  0.865700  1.0
  C  C917  1  0.913100  0.798800  0.884300  1.0
  C  C918  1  0.086900  0.201200  0.384300  1.0
  C  C919  1  0.798800  0.086900  0.634300  1.0
  C  C920  1  0.201200  0.913100  0.134300  1.0
  C  C921  1  0.005800  0.792500  0.078900  1.0
  C  C922  1  0.994200  0.207500  0.578900  1.0
  C  C923  1  0.207500  0.005800  0.328900  1.0
  C  C924  1  0.792500  0.994200  0.828900  1.0
  C  C925  1  0.994200  0.792500  0.921100  1.0
  C  C926  1  0.005800  0.207500  0.421100  1.0
  C  C927  1  0.792500  0.005800  0.671100  1.0
  C  C928  1  0.207500  0.994200  0.171100  1.0
  C  C929  1  0.042300  0.791300  0.055200  1.0
  C  C930  1  0.957700  0.208700  0.555200  1.0
  C  C931  1  0.208700  0.042300  0.305200  1.0
  C  C932  1  0.791300  0.957700  0.805200  1.0
  C  C933  1  0.957700  0.791300  0.944800  1.0
  C  C934  1  0.042300  0.208700  0.444800  1.0
  C  C935  1  0.791300  0.042300  0.694800  1.0
  C  C936  1  0.208700  0.957700  0.194800  1.0
  C  C937  1  0.017600  0.829400  0.035400  1.0
  C  C938  1  0.982400  0.170600  0.535400  1.0
  C  C939  1  0.170600  0.017600  0.285400  1.0
  C  C940  1  0.829400  0.982400  0.785400  1.0
  C  C941  1  0.982400  0.829400  0.964600  1.0
  C  C942  1  0.017600  0.170600  0.464600  1.0
  C  C943  1  0.829400  0.017600  0.714600  1.0
  C  C944  1  0.170600  0.982400  0.214600  1.0
  C  C945  1  0.962300  0.864400  0.037800  1.0
  C  C946  1  0.037700  0.135600  0.537800  1.0
  C  C947  1  0.135600  0.962300  0.287800  1.0
  C  C948  1  0.864400  0.037700  0.787800  1.0
  C  C949  1  0.037700  0.864400  0.962200  1.0
  C  C950  1  0.962300  0.135600  0.462200  1.0
  C  C951  1  0.864400  0.962300  0.712200  1.0
  C  C952  1  0.135600  0.037700  0.212200  1.0
  C  C953  1  0.928100  0.868300  0.062400  1.0
  C  C954  1  0.071900  0.131700  0.562400  1.0
  C  C955  1  0.131700  0.928100  0.312400  1.0
  C  C956  1  0.868300  0.071900  0.812400  1.0
  C  C957  1  0.071900  0.868300  0.937600  1.0
  C  C958  1  0.928100  0.131700  0.437600  1.0
  C  C959  1  0.868300  0.928100  0.687600  1.0
  C  C960  1  0.131700  0.071900  0.187600  1.0
  C  C961  1  0.950900  0.831400  0.082400  1.0
  C  C962  1  0.049100  0.168600  0.582400  1.0
  C  C963  1  0.168600  0.950900  0.332400  1.0
  C  C964  1  0.831400  0.049100  0.832400  1.0
  C  C965  1  0.049100  0.831400  0.917600  1.0
  C  C966  1  0.950900  0.168600  0.417600  1.0
  C  C967  1  0.831400  0.950900  0.667600  1.0
  C  C968  1  0.168600  0.049100  0.167600  1.0
  C  C969  1  0.357800  0.338700  0.055940  1.0
  C  C970  1  0.642200  0.661300  0.555940  1.0
  C  C971  1  0.661300  0.357800  0.305940  1.0
  C  C972  1  0.338700  0.642200  0.805940  1.0
  C  C973  1  0.642200  0.338700  0.944060  1.0
  C  C974  1  0.357800  0.661300  0.444060  1.0
  C  C975  1  0.338700  0.357800  0.694060  1.0
  C  C976  1  0.661300  0.642200  0.194060  1.0
  C  C977  1  0.338500  0.306100  0.079100  1.0
  C  C978  1  0.661500  0.693900  0.579100  1.0
  C  C979  1  0.693900  0.338500  0.329100  1.0
  C  C980  1  0.306100  0.661500  0.829100  1.0
  C  C981  1  0.661500  0.306100  0.920900  1.0
  C  C982  1  0.338500  0.693900  0.420900  1.0
  C  C983  1  0.306100  0.338500  0.670900  1.0
  C  C984  1  0.693900  0.661500  0.170900  1.0
  C  C985  1  0.329500  0.337100  0.102700  1.0
  C  C986  1  0.670500  0.662900  0.602700  1.0
  C  C987  1  0.662900  0.329500  0.352700  1.0
  C  C988  1  0.337100  0.670500  0.852700  1.0
  C  C989  1  0.670500  0.337100  0.897300  1.0
  C  C990  1  0.329500  0.662900  0.397300  1.0
  C  C991  1  0.337100  0.329500  0.647300  1.0
  C  C992  1  0.662900  0.670500  0.147300  1.0
  C  C993  1  0.343200  0.404000  0.103600  1.0
  C  C994  1  0.656800  0.596000  0.603600  1.0
  C  C995  1  0.596000  0.343200  0.353600  1.0
  C  C996  1  0.404000  0.656800  0.853600  1.0
  C  C997  1  0.656800  0.404000  0.896400  1.0
  C  C998  1  0.343200  0.596000  0.396400  1.0
  C  C999  1  0.404000  0.343200  0.646400  1.0
  C  C1000  1  0.596000  0.656800  0.146400  1.0
  C  C1001  1  0.361600  0.438400  0.082400  1.0
  C  C1002  1  0.638400  0.561600  0.582400  1.0
  C  C1003  1  0.561600  0.361600  0.332400  1.0
  C  C1004  1  0.438400  0.638400  0.832400  1.0
  C  C1005  1  0.638400  0.438400  0.917600  1.0
  C  C1006  1  0.361600  0.561600  0.417600  1.0
  C  C1007  1  0.438400  0.361600  0.667600  1.0
  C  C1008  1  0.561600  0.638400  0.167600  1.0
  C  C1009  1  0.374200  0.405400  0.058800  1.0
  C  C1010  1  0.625800  0.594600  0.558800  1.0
  C  C1011  1  0.594600  0.374200  0.308800  1.0
  C  C1012  1  0.405400  0.625800  0.808800  1.0
  C  C1013  1  0.625800  0.405400  0.941200  1.0
  C  C1014  1  0.374200  0.594600  0.441200  1.0
  C  C1015  1  0.405400  0.374200  0.691200  1.0
  C  C1016  1  0.594600  0.625800  0.191200  1.0
  C  C1017  1  0.363700  0.301600  0.031100  1.0
  C  C1018  1  0.636300  0.698400  0.531100  1.0
  C  C1019  1  0.698400  0.363700  0.281100  1.0
  C  C1020  1  0.301600  0.636300  0.781100  1.0
  C  C1021  1  0.636300  0.301600  0.968900  1.0
  C  C1022  1  0.363700  0.698400  0.468900  1.0
  C  C1023  1  0.301600  0.363700  0.718900  1.0
  C  C1024  1  0.698400  0.636300  0.218900  1.0
  C  C1025  1  0.434500  0.298700  0.021200  1.0
  C  C1026  1  0.565500  0.701300  0.521200  1.0
  C  C1027  1  0.701300  0.434500  0.271200  1.0
  C  C1028  1  0.298700  0.565500  0.771200  1.0
  C  C1029  1  0.565500  0.298700  0.978800  1.0
  C  C1030  1  0.434500  0.701300  0.478800  1.0
  C  C1031  1  0.298700  0.434500  0.728800  1.0
  C  C1032  1  0.701300  0.565500  0.228800  1.0
  C  C1033  1  0.331400  0.384000  0.000200  1.0
  C  C1034  1  0.668600  0.616000  0.500200  1.0
  C  C1035  1  0.616000  0.331400  0.250200  1.0
  C  C1036  1  0.384000  0.668600  0.750200  1.0
  C  C1037  1  0.668600  0.384000  0.999800  1.0
  C  C1038  1  0.331400  0.616000  0.499800  1.0
  C  C1039  1  0.384000  0.331400  0.749800  1.0
  C  C1040  1  0.616000  0.668600  0.249800  1.0
  C  C1041  1  0.280500  0.408500  0.982230  1.0
  C  C1042  1  0.719500  0.591500  0.482230  1.0
  C  C1043  1  0.591500  0.280500  0.232230  1.0
  C  C1044  1  0.408500  0.719500  0.732230  1.0
  C  C1045  1  0.719500  0.408500  0.017770  1.0
  C  C1046  1  0.280500  0.591500  0.517770  1.0
  C  C1047  1  0.408500  0.280500  0.767770  1.0
  C  C1048  1  0.591500  0.719500  0.267770  1.0
  C  C1049  1  0.180900  0.385500  0.961920  1.0
  C  C1050  1  0.819100  0.614500  0.461920  1.0
  C  C1051  1  0.614500  0.180900  0.211920  1.0
  C  C1052  1  0.385500  0.819100  0.711920  1.0
  C  C1053  1  0.819100  0.385500  0.038080  1.0
  C  C1054  1  0.180900  0.614500  0.538080  1.0
  C  C1055  1  0.385500  0.180900  0.788080  1.0
  C  C1056  1  0.614500  0.819100  0.288080  1.0
  C  C1057  1  0.185400  0.441100  0.946380  1.0
  C  C1058  1  0.814600  0.558900  0.446380  1.0
  C  C1059  1  0.558900  0.185400  0.196380  1.0
  C  C1060  1  0.441100  0.814600  0.696380  1.0
  C  C1061  1  0.814600  0.441100  0.053620  1.0
  C  C1062  1  0.185400  0.558900  0.553620  1.0
  C  C1063  1  0.441100  0.185400  0.803620  1.0
  C  C1064  1  0.558900  0.814600  0.303620  1.0
  C  C1065  1  0.238700  0.482500  0.950220  1.0
  C  C1066  1  0.761300  0.517500  0.450220  1.0
  C  C1067  1  0.517500  0.238700  0.200220  1.0
  C  C1068  1  0.482500  0.761300  0.700220  1.0
  C  C1069  1  0.761300  0.482500  0.049780  1.0
  C  C1070  1  0.238700  0.517500  0.549780  1.0
  C  C1071  1  0.482500  0.238700  0.799780  1.0
  C  C1072  1  0.517500  0.761300  0.299780  1.0
  C  C1073  1  0.288900  0.465600  0.967460  1.0
  C  C1074  1  0.711100  0.534400  0.467460  1.0
  C  C1075  1  0.534400  0.288900  0.217460  1.0
  C  C1076  1  0.465600  0.711100  0.717460  1.0
  C  C1077  1  0.711100  0.465600  0.032540  1.0
  C  C1078  1  0.288900  0.534400  0.532540  1.0
  C  C1079  1  0.465600  0.288900  0.782540  1.0
  C  C1080  1  0.534400  0.711100  0.282540  1.0
  C  C1081  1  0.136600  0.457500  0.926450  1.0
  C  C1082  1  0.863400  0.542500  0.426450  1.0
  C  C1083  1  0.542500  0.136600  0.176450  1.0
  C  C1084  1  0.457500  0.863400  0.676450  1.0
  C  C1085  1  0.863400  0.457500  0.073550  1.0
  C  C1086  1  0.136600  0.542500  0.573550  1.0
  C  C1087  1  0.457500  0.136600  0.823550  1.0
  C  C1088  1  0.542500  0.863400  0.323550  1.0
  C  C1089  1  0.098700  0.513200  0.927980  1.0
  C  C1090  1  0.901300  0.486800  0.427980  1.0
  C  C1091  1  0.486800  0.098700  0.177980  1.0
  C  C1092  1  0.513200  0.901300  0.677980  1.0
  C  C1093  1  0.901300  0.513200  0.072020  1.0
  C  C1094  1  0.098700  0.486800  0.572020  1.0
  C  C1095  1  0.513200  0.098700  0.822020  1.0
  C  C1096  1  0.486800  0.901300  0.322020  1.0
  C  C1097  1  0.053200  0.491200  0.887010  1.0
  C  C1098  1  0.946800  0.508800  0.387010  1.0
  C  C1099  1  0.508800  0.053200  0.137010  1.0
  C  C1100  1  0.491200  0.946800  0.637010  1.0
  C  C1101  1  0.946800  0.491200  0.112990  1.0
  C  C1102  1  0.053200  0.508800  0.612990  1.0
  C  C1103  1  0.491200  0.053200  0.862990  1.0
  C  C1104  1  0.508800  0.946800  0.362990  1.0
  C  C1105  1  0.086100  0.436700  0.885380  1.0
  C  C1106  1  0.913900  0.563300  0.385380  1.0
  C  C1107  1  0.563300  0.086100  0.135380  1.0
  C  C1108  1  0.436700  0.913900  0.635380  1.0
  C  C1109  1  0.913900  0.436700  0.114620  1.0
  C  C1110  1  0.086100  0.563300  0.614620  1.0
  C  C1111  1  0.436700  0.086100  0.864620  1.0
  C  C1112  1  0.563300  0.913900  0.364620  1.0
  C  C1113  1  0.129200  0.414700  0.904650  1.0
  C  C1114  1  0.870800  0.585300  0.404650  1.0
  C  C1115  1  0.585300  0.129200  0.154650  1.0
  C  C1116  1  0.414700  0.870800  0.654650  1.0
  C  C1117  1  0.870800  0.414700  0.095350  1.0
  C  C1118  1  0.129200  0.585300  0.595350  1.0
  C  C1119  1  0.414700  0.129200  0.845350  1.0
  C  C1120  1  0.585300  0.870800  0.345350  1.0
  C  C1121  1  0.008600  0.524700  0.867710  1.0
  C  C1122  1  0.991400  0.475300  0.367710  1.0
  C  C1123  1  0.475300  0.008600  0.117710  1.0
  C  C1124  1  0.524700  0.991400  0.617710  1.0
  C  C1125  1  0.991400  0.524700  0.132290  1.0
  C  C1126  1  0.008600  0.475300  0.632290  1.0
  C  C1127  1  0.524700  0.008600  0.882290  1.0
  C  C1128  1  0.475300  0.991400  0.382290  1.0
  C  C1129  1  0.941500  0.607200  0.852490  1.0
  C  C1130  1  0.058500  0.392800  0.352490  1.0
  C  C1131  1  0.392800  0.941500  0.102490  1.0
  C  C1132  1  0.607200  0.058500  0.602490  1.0
  C  C1133  1  0.058500  0.607200  0.147510  1.0
  C  C1134  1  0.941500  0.392800  0.647510  1.0
  C  C1135  1  0.607200  0.941500  0.897510  1.0
  C  C1136  1  0.392800  0.058500  0.397510  1.0
  C  C1137  1  0.868700  0.592600  0.858080  1.0
  C  C1138  1  0.131300  0.407400  0.358080  1.0
  C  C1139  1  0.407400  0.868700  0.108080  1.0
  C  C1140  1  0.592600  0.131300  0.608080  1.0
  C  C1141  1  0.131300  0.592600  0.141920  1.0
  C  C1142  1  0.868700  0.407400  0.641920  1.0
  C  C1143  1  0.592600  0.868700  0.891920  1.0
  C  C1144  1  0.407400  0.131300  0.391920  1.0
  C  C1145  1  0.850300  0.528100  0.863370  1.0
  C  C1146  1  0.149700  0.471900  0.363370  1.0
  C  C1147  1  0.471900  0.850300  0.113370  1.0
  C  C1148  1  0.528100  0.149700  0.613370  1.0
  C  C1149  1  0.149700  0.528100  0.136630  1.0
  C  C1150  1  0.850300  0.471900  0.636630  1.0
  C  C1151  1  0.528100  0.850300  0.886630  1.0
  C  C1152  1  0.471900  0.149700  0.386630  1.0
  C  C1153  1  0.784300  0.512400  0.866800  1.0
  C  C1154  1  0.215700  0.487600  0.366800  1.0
  C  C1155  1  0.487600  0.784300  0.116800  1.0
  C  C1156  1  0.512400  0.215700  0.616800  1.0
  C  C1157  1  0.215700  0.512400  0.133200  1.0
  C  C1158  1  0.784300  0.487600  0.633200  1.0
  C  C1159  1  0.512400  0.784300  0.883200  1.0
  C  C1160  1  0.487600  0.215700  0.383200  1.0
  C  C1161  1  0.736600  0.561300  0.864850  1.0
  C  C1162  1  0.263400  0.438700  0.364850  1.0
  C  C1163  1  0.438700  0.736600  0.114850  1.0
  C  C1164  1  0.561300  0.263400  0.614850  1.0
  C  C1165  1  0.263400  0.561300  0.135150  1.0
  C  C1166  1  0.736600  0.438700  0.635150  1.0
  C  C1167  1  0.561300  0.736600  0.885150  1.0
  C  C1168  1  0.438700  0.263400  0.385150  1.0
  C  C1169  1  0.755000  0.625800  0.859560  1.0
  C  C1170  1  0.245000  0.374200  0.359560  1.0
  C  C1171  1  0.374200  0.755000  0.109560  1.0
  C  C1172  1  0.625800  0.245000  0.609560  1.0
  C  C1173  1  0.245000  0.625800  0.140440  1.0
  C  C1174  1  0.755000  0.374200  0.640440  1.0
  C  C1175  1  0.625800  0.755000  0.890440  1.0
  C  C1176  1  0.374200  0.245000  0.390440  1.0
  C  C1177  1  0.821000  0.641500  0.856170  1.0
  C  C1178  1  0.179000  0.358500  0.356170  1.0
  C  C1179  1  0.358500  0.821000  0.106170  1.0
  C  C1180  1  0.641500  0.179000  0.606170  1.0
  C  C1181  1  0.179000  0.641500  0.143830  1.0
  C  C1182  1  0.821000  0.358500  0.643830  1.0
  C  C1183  1  0.641500  0.821000  0.893830  1.0
  C  C1184  1  0.358500  0.179000  0.393830  1.0
  C  C1185  1  0.957400  0.593100  0.824060  1.0
  C  C1186  1  0.042600  0.406900  0.324060  1.0
  C  C1187  1  0.406900  0.957400  0.074060  1.0
  C  C1188  1  0.593100  0.042600  0.574060  1.0
  C  C1189  1  0.042600  0.593100  0.175940  1.0
  C  C1190  1  0.957400  0.406900  0.675940  1.0
  C  C1191  1  0.593100  0.957400  0.925940  1.0
  C  C1192  1  0.406900  0.042600  0.425940  1.0
  C  C1193  1  0.345300  0.301100  0.942090  1.0
  C  C1194  1  0.654700  0.698900  0.442090  1.0
  C  C1195  1  0.698900  0.345300  0.192090  1.0
  C  C1196  1  0.301100  0.654700  0.692090  1.0
  C  C1197  1  0.654700  0.301100  0.057910  1.0
  C  C1198  1  0.345300  0.698900  0.557910  1.0
  C  C1199  1  0.301100  0.345300  0.807910  1.0
  C  C1200  1  0.698900  0.654700  0.307910  1.0
  C  C1201  1  0.402700  0.336800  0.947870  1.0
  C  C1202  1  0.597300  0.663200  0.447870  1.0
  C  C1203  1  0.663200  0.402700  0.197870  1.0
  C  C1204  1  0.336800  0.597300  0.697870  1.0
  C  C1205  1  0.597300  0.336800  0.052130  1.0
  C  C1206  1  0.402700  0.663200  0.552130  1.0
  C  C1207  1  0.336800  0.402700  0.802130  1.0
  C  C1208  1  0.663200  0.597300  0.302130  1.0
  C  C1209  1  0.421600  0.390800  0.932850  1.0
  C  C1210  1  0.578400  0.609200  0.432850  1.0
  C  C1211  1  0.609200  0.421600  0.182850  1.0
  C  C1212  1  0.390800  0.578400  0.682850  1.0
  C  C1213  1  0.578400  0.390800  0.067150  1.0
  C  C1214  1  0.421600  0.609200  0.567150  1.0
  C  C1215  1  0.390800  0.421600  0.817150  1.0
  C  C1216  1  0.609200  0.578400  0.317150  1.0
  C  C1217  1  0.382100  0.409700  0.912600  1.0
  C  C1218  1  0.617900  0.590300  0.412600  1.0
  C  C1219  1  0.590300  0.382100  0.162600  1.0
  C  C1220  1  0.409700  0.617900  0.662600  1.0
  C  C1221  1  0.617900  0.409700  0.087400  1.0
  C  C1222  1  0.382100  0.590300  0.587400  1.0
  C  C1223  1  0.409700  0.382100  0.837400  1.0
  C  C1224  1  0.590300  0.617900  0.337400  1.0
  C  C1225  1  0.323900  0.375300  0.906100  1.0
  C  C1226  1  0.676100  0.624700  0.406100  1.0
  C  C1227  1  0.624700  0.323900  0.156100  1.0
  C  C1228  1  0.375300  0.676100  0.656100  1.0
  C  C1229  1  0.676100  0.375300  0.093900  1.0
  C  C1230  1  0.323900  0.624700  0.593900  1.0
  C  C1231  1  0.375300  0.323900  0.843900  1.0
  C  C1232  1  0.624700  0.676100  0.343900  1.0
  C  C1233  1  0.309400  0.319200  0.921910  1.0
  C  C1234  1  0.690600  0.680800  0.421910  1.0
  C  C1235  1  0.680800  0.309400  0.171910  1.0
  C  C1236  1  0.319200  0.690600  0.671910  1.0
  C  C1237  1  0.690600  0.319200  0.078090  1.0
  C  C1238  1  0.309400  0.680800  0.578090  1.0
  C  C1239  1  0.319200  0.309400  0.828090  1.0
  C  C1240  1  0.680800  0.690600  0.328090  1.0
  C  C1241  1  0.329900  0.240700  0.958250  1.0
  C  C1242  1  0.670100  0.759300  0.458250  1.0
  C  C1243  1  0.759300  0.329900  0.208250  1.0
  C  C1244  1  0.240700  0.670100  0.708250  1.0
  C  C1245  1  0.670100  0.240700  0.041750  1.0
  C  C1246  1  0.329900  0.759300  0.541750  1.0
  C  C1247  1  0.240700  0.329900  0.791750  1.0
  C  C1248  1  0.759300  0.670100  0.291750  1.0
  C  C1249  1  0.343900  0.179200  0.941300  1.0
  C  C1250  1  0.656100  0.820800  0.441300  1.0
  C  C1251  1  0.820800  0.343900  0.191300  1.0
  C  C1252  1  0.179200  0.656100  0.691300  1.0
  C  C1253  1  0.656100  0.179200  0.058700  1.0
  C  C1254  1  0.343900  0.820800  0.558700  1.0
  C  C1255  1  0.179200  0.343900  0.808700  1.0
  C  C1256  1  0.820800  0.656100  0.308700  1.0
  C  C1257  1  0.212900  0.218000  0.955140  1.0
  C  C1258  1  0.787100  0.782000  0.455140  1.0
  C  C1259  1  0.782000  0.212900  0.205140  1.0
  C  C1260  1  0.218000  0.787100  0.705140  1.0
  C  C1261  1  0.787100  0.218000  0.044860  1.0
  C  C1262  1  0.212900  0.782000  0.544860  1.0
  C  C1263  1  0.218000  0.212900  0.794860  1.0
  C  C1264  1  0.782000  0.787100  0.294860  1.0
  C  C1265  1  0.148800  0.224800  0.965960  1.0
  C  C1266  1  0.851200  0.775200  0.465960  1.0
  C  C1267  1  0.775200  0.148800  0.215960  1.0
  C  C1268  1  0.224800  0.851200  0.715960  1.0
  C  C1269  1  0.851200  0.224800  0.034040  1.0
  C  C1270  1  0.148800  0.775200  0.534040  1.0
  C  C1271  1  0.224800  0.148800  0.784040  1.0
  C  C1272  1  0.775200  0.851200  0.284040  1.0
  C  C1273  1  0.088900  0.258000  0.002200  1.0
  C  C1274  1  0.911100  0.742000  0.502200  1.0
  C  C1275  1  0.742000  0.088900  0.252200  1.0
  C  C1276  1  0.258000  0.911100  0.752200  1.0
  C  C1277  1  0.911100  0.258000  0.997800  1.0
  C  C1278  1  0.088900  0.742000  0.497800  1.0
  C  C1279  1  0.258000  0.088900  0.747800  1.0
  C  C1280  1  0.742000  0.911100  0.247800  1.0
  C  C1281  1  0.029300  0.231200  0.992560  1.0
  C  C1282  1  0.970700  0.768800  0.492560  1.0
  C  C1283  1  0.768800  0.029300  0.242560  1.0
  C  C1284  1  0.231200  0.970700  0.742560  1.0
  C  C1285  1  0.970700  0.231200  0.007440  1.0
  C  C1286  1  0.029300  0.768800  0.507440  1.0
  C  C1287  1  0.231200  0.029300  0.757440  1.0
  C  C1288  1  0.768800  0.970700  0.257440  1.0
  C  C1289  1  0.032600  0.200900  0.967910  1.0
  C  C1290  1  0.967400  0.799100  0.467910  1.0
  C  C1291  1  0.799100  0.032600  0.217910  1.0
  C  C1292  1  0.200900  0.967400  0.717910  1.0
  C  C1293  1  0.967400  0.200900  0.032090  1.0
  C  C1294  1  0.032600  0.799100  0.532090  1.0
  C  C1295  1  0.200900  0.032600  0.782090  1.0
  C  C1296  1  0.799100  0.967400  0.282090  1.0
  C  C1297  1  0.089600  0.199500  0.954170  1.0
  C  C1298  1  0.910400  0.800500  0.454170  1.0
  C  C1299  1  0.800500  0.089600  0.204170  1.0
  C  C1300  1  0.199500  0.910400  0.704170  1.0
  C  C1301  1  0.910400  0.199500  0.045830  1.0
  C  C1302  1  0.089600  0.800500  0.545830  1.0
  C  C1303  1  0.199500  0.089600  0.795830  1.0
  C  C1304  1  0.800500  0.910400  0.295830  1.0
  C  C1305  1  0.980300  0.662000  0.012160  1.0
  C  C1306  1  0.019700  0.338000  0.512160  1.0
  C  C1307  1  0.338000  0.980300  0.262160  1.0
  C  C1308  1  0.662000  0.019700  0.762160  1.0
  C  C1309  1  0.019700  0.662000  0.987840  1.0
  C  C1310  1  0.980300  0.338000  0.487840  1.0
  C  C1311  1  0.662000  0.980300  0.737840  1.0
  C  C1312  1  0.338000  0.019700  0.237840  1.0
  C  C1313  1  0.002400  0.638500  0.035080  1.0
  C  C1314  1  0.997600  0.361500  0.535080  1.0
  C  C1315  1  0.361500  0.002400  0.285080  1.0
  C  C1316  1  0.638500  0.997600  0.785080  1.0
  C  C1317  1  0.997600  0.638500  0.964920  1.0
  C  C1318  1  0.002400  0.361500  0.464920  1.0
  C  C1319  1  0.638500  0.002400  0.714920  1.0
  C  C1320  1  0.361500  0.997600  0.214920  1.0
  C  C1321  1  0.913900  0.674200  0.057820  1.0
  C  C1322  1  0.086100  0.325800  0.557820  1.0
  C  C1323  1  0.325800  0.913900  0.307820  1.0
  C  C1324  1  0.674200  0.086100  0.807820  1.0
  C  C1325  1  0.086100  0.674200  0.942180  1.0
  C  C1326  1  0.913900  0.325800  0.442180  1.0
  C  C1327  1  0.674200  0.913900  0.692180  1.0
  C  C1328  1  0.325800  0.086100  0.192180  1.0
  C  C1329  1  0.884000  0.700900  0.034790  1.0
  C  C1330  1  0.116000  0.299100  0.534790  1.0
  C  C1331  1  0.299100  0.884000  0.284790  1.0
  C  C1332  1  0.700900  0.116000  0.784790  1.0
  C  C1333  1  0.116000  0.700900  0.965210  1.0
  C  C1334  1  0.884000  0.299100  0.465210  1.0
  C  C1335  1  0.700900  0.884000  0.715210  1.0
  C  C1336  1  0.299100  0.116000  0.215210  1.0
  C  C1337  1  0.914000  0.692800  0.011760  1.0
  C  C1338  1  0.086000  0.307200  0.511760  1.0
  C  C1339  1  0.307200  0.914000  0.261760  1.0
  C  C1340  1  0.692800  0.086000  0.761760  1.0
  C  C1341  1  0.086000  0.692800  0.988240  1.0
  C  C1342  1  0.914000  0.307200  0.488240  1.0
  C  C1343  1  0.692800  0.914000  0.738240  1.0
  C  C1344  1  0.307200  0.086000  0.238240  1.0
  C  C1345  1  0.881200  0.685300  0.082610  1.0
  C  C1346  1  0.118800  0.314700  0.582610  1.0
  C  C1347  1  0.314700  0.881200  0.332610  1.0
  C  C1348  1  0.685300  0.118800  0.832610  1.0
  C  C1349  1  0.118800  0.685300  0.917390  1.0
  C  C1350  1  0.881200  0.314700  0.417390  1.0
  C  C1351  1  0.685300  0.881200  0.667390  1.0
  C  C1352  1  0.314700  0.118800  0.167390  1.0
  C  C1353  1  0.886900  0.662200  0.129380  1.0
  C  C1354  1  0.113100  0.337800  0.629380  1.0
  C  C1355  1  0.337800  0.886900  0.379380  1.0
  C  C1356  1  0.662200  0.113100  0.879380  1.0
  C  C1357  1  0.113100  0.662200  0.870620  1.0
  C  C1358  1  0.886900  0.337800  0.370620  1.0
  C  C1359  1  0.662200  0.886900  0.620620  1.0
  C  C1360  1  0.337800  0.113100  0.120620  1.0
  C  C1361  1  0.842400  0.604500  0.134750  1.0
  C  C1362  1  0.157600  0.395500  0.634750  1.0
  C  C1363  1  0.395500  0.842400  0.384750  1.0
  C  C1364  1  0.604500  0.157600  0.884750  1.0
  C  C1365  1  0.157600  0.604500  0.865250  1.0
  C  C1366  1  0.842400  0.395500  0.365250  1.0
  C  C1367  1  0.604500  0.842400  0.615250  1.0
  C  C1368  1  0.395500  0.157600  0.115250  1.0
  C  C1369  1  0.797300  0.581300  0.117870  1.0
  C  C1370  1  0.202700  0.418700  0.617870  1.0
  C  C1371  1  0.418700  0.797300  0.367870  1.0
  C  C1372  1  0.581300  0.202700  0.867870  1.0
  C  C1373  1  0.202700  0.581300  0.882130  1.0
  C  C1374  1  0.797300  0.418700  0.382130  1.0
  C  C1375  1  0.581300  0.797300  0.632130  1.0
  C  C1376  1  0.418700  0.202700  0.132130  1.0
  C  C1377  1  0.757100  0.529400  0.124700  1.0
  C  C1378  1  0.242900  0.470600  0.624700  1.0
  C  C1379  1  0.470600  0.757100  0.374700  1.0
  C  C1380  1  0.529400  0.242900  0.874700  1.0
  C  C1381  1  0.242900  0.529400  0.875300  1.0
  C  C1382  1  0.757100  0.470600  0.375300  1.0
  C  C1383  1  0.529400  0.757100  0.625300  1.0
  C  C1384  1  0.470600  0.242900  0.125300  1.0
  C  C1385  1  0.759700  0.501200  0.147200  1.0
  C  C1386  1  0.240300  0.498800  0.647200  1.0
  C  C1387  1  0.498800  0.759700  0.397200  1.0
  C  C1388  1  0.501200  0.240300  0.897200  1.0
  C  C1389  1  0.240300  0.501200  0.852800  1.0
  C  C1390  1  0.759700  0.498800  0.352800  1.0
  C  C1391  1  0.501200  0.759700  0.602800  1.0
  C  C1392  1  0.498800  0.240300  0.102800  1.0
  C  C1393  1  0.810500  0.520700  0.165000  1.0
  C  C1394  1  0.189500  0.479300  0.665000  1.0
  C  C1395  1  0.479300  0.810500  0.415000  1.0
  C  C1396  1  0.520700  0.189500  0.915000  1.0
  C  C1397  1  0.189500  0.520700  0.835000  1.0
  C  C1398  1  0.810500  0.479300  0.335000  1.0
  C  C1399  1  0.520700  0.810500  0.585000  1.0
  C  C1400  1  0.479300  0.189500  0.085000  1.0
  C  C1401  1  0.850700  0.571900  0.158320  1.0
  C  C1402  1  0.149300  0.428100  0.658320  1.0
  C  C1403  1  0.428100  0.850700  0.408320  1.0
  C  C1404  1  0.571900  0.149300  0.908320  1.0
  C  C1405  1  0.149300  0.571900  0.841680  1.0
  C  C1406  1  0.850700  0.428100  0.341680  1.0
  C  C1407  1  0.571900  0.850700  0.591680  1.0
  C  C1408  1  0.428100  0.149300  0.091680  1.0
  C  C1409  1  0.846500  0.726800  0.133800  1.0
  C  C1410  1  0.153500  0.273200  0.633800  1.0
  C  C1411  1  0.273200  0.846500  0.383800  1.0
  C  C1412  1  0.726800  0.153500  0.883800  1.0
  C  C1413  1  0.153500  0.726800  0.866200  1.0
  C  C1414  1  0.846500  0.273200  0.366200  1.0
  C  C1415  1  0.726800  0.846500  0.616200  1.0
  C  C1416  1  0.273200  0.153500  0.116200  1.0
  S  S1417  1  0.904040  0.097790  0.910510  1
  S  S1418  1  0.095960  0.902210  0.410510  1
  S  S1419  1  0.902210  0.904040  0.160510  1
  S  S1420  1  0.097790  0.095960  0.660510  1
  S  S1421  1  0.095960  0.097790  0.089490  1
  S  S1422  1  0.904040  0.902210  0.589490  1
  S  S1423  1  0.097790  0.904040  0.839490  1
  S  S1424  1  0.902210  0.095960  0.339490  1
  S  S1425  1  0.691670  0.684110  0.066750  1
  S  S1426  1  0.308330  0.315890  0.566750  1
  S  S1427  1  0.315890  0.691670  0.316750  1
  S  S1428  1  0.684110  0.308330  0.816750  1
  S  S1429  1  0.308330  0.684110  0.933250  1
  S  S1430  1  0.691670  0.315890  0.433250  1
  S  S1431  1  0.684110  0.691670  0.683250  1
  S  S1432  1  0.315890  0.308330  0.183250  1
  S  S1433  1  0.969700  0.434200  0.014300  1
  S  S1434  1  0.030300  0.565800  0.514300  1
  S  S1435  1  0.565800  0.969700  0.264300  1
  S  S1436  1  0.434200  0.030300  0.764300  1
  S  S1437  1  0.030300  0.434200  0.985700  1
  S  S1438  1  0.969700  0.565800  0.485700  1
  S  S1439  1  0.434200  0.969700  0.735700  1
  S  S1440  1  0.565800  0.030300  0.235700  1
  N  N1441  1  0.011700  0.359400  0.944000  1
  N  N1442  1  0.988300  0.640600  0.444000  1
  N  N1443  1  0.640600  0.011700  0.194000  1
  N  N1444  1  0.359400  0.988300  0.694000  1
  N  N1445  1  0.988300  0.359400  0.056000  1
  N  N1446  1  0.011700  0.640600  0.556000  1
  N  N1447  1  0.359400  0.011700  0.806000  1
  N  N1448  1  0.640600  0.988300  0.306000  1
  N  N1449  1  0.759400  0.617300  0.996900  1
  N  N1450  1  0.240600  0.382700  0.496900  1
  N  N1451  1  0.382700  0.759400  0.246900  1
  N  N1452  1  0.617300  0.240600  0.746900  1
  N  N1453  1  0.240600  0.617300  0.003100  1
  N  N1454  1  0.759400  0.382700  0.503100  1
  N  N1455  1  0.617300  0.759400  0.753100  1
  N  N1456  1  0.382700  0.240600  0.253100  1
  N  N1457  1  0.237430  0.210420  0.023460  1.0
  N  N1458  1  0.762570  0.789580  0.523460  1.0
  N  N1459  1  0.789580  0.237430  0.273460  1.0
  N  N1460  1  0.210420  0.762570  0.773460  1.0
  N  N1461  1  0.762570  0.210420  0.976540  1.0
  N  N1462  1  0.237430  0.789580  0.476540  1.0
  N  N1463  1  0.210420  0.237430  0.726540  1.0
  N  N1464  1  0.789580  0.762570  0.226540  1.0
  N  N1465  1  0.197550  0.326200  0.032766  1.0
  N  N1466  1  0.802450  0.673800  0.532766  1.0
  N  N1467  1  0.673800  0.197550  0.282766  1.0
  N  N1468  1  0.326200  0.802450  0.782766  1.0
  N  N1469  1  0.802450  0.326200  0.967234  1.0
  N  N1470  1  0.197550  0.673800  0.467234  1.0
  N  N1471  1  0.326200  0.197550  0.717234  1.0
  N  N1472  1  0.673800  0.802450  0.217234  1.0
  N  N1473  1  0.079320  0.568070  0.081051  1.0
  N  N1474  1  0.920680  0.431930  0.581051  1.0
  N  N1475  1  0.431930  0.079320  0.331051  1.0
  N  N1476  1  0.568070  0.920680  0.831051  1.0
  N  N1477  1  0.920680  0.568070  0.918949  1.0
  N  N1478  1  0.079320  0.431930  0.418949  1.0
  N  N1479  1  0.568070  0.079320  0.668949  1.0
  N  N1480  1  0.431930  0.920680  0.168949  1.0
  N  N1481  1  0.055600  0.688840  0.095760  1.0
  N  N1482  1  0.944400  0.311160  0.595760  1.0
  N  N1483  1  0.311160  0.055600  0.345760  1.0
  N  N1484  1  0.688840  0.944400  0.845760  1.0
  N  N1485  1  0.944400  0.688840  0.904240  1.0
  N  N1486  1  0.055600  0.311160  0.404240  1.0
  N  N1487  1  0.688840  0.055600  0.654240  1.0
  N  N1488  1  0.311160  0.944400  0.154240  1.0
  N  N1489  1  0.316650  0.326470  0.010750  1.0
  N  N1490  1  0.683350  0.673530  0.510750  1.0
  N  N1491  1  0.673530  0.316650  0.260750  1.0
  N  N1492  1  0.326470  0.683350  0.760750  1.0
  N  N1493  1  0.683350  0.326470  0.989250  1.0
  N  N1494  1  0.316650  0.673530  0.489250  1.0
  N  N1495  1  0.326470  0.316650  0.739250  1.0
  N  N1496  1  0.673530  0.683350  0.239250  1.0
  N  N1497  1  0.227230  0.369410  0.980081  1.0
  N  N1498  1  0.772770  0.630590  0.480081  1.0
  N  N1499  1  0.630590  0.227230  0.230081  1.0
  N  N1500  1  0.369410  0.772770  0.730081  1.0
  N  N1501  1  0.772770  0.369410  0.019919  1.0
  N  N1502  1  0.227230  0.630590  0.519919  1.0
  N  N1503  1  0.369410  0.227230  0.769919  1.0
  N  N1504  1  0.630590  0.772770  0.269919  1.0
  N  N1505  1  0.056420  0.531100  0.908486  1.0
  N  N1506  1  0.943580  0.468900  0.408486  1.0
  N  N1507  1  0.468900  0.056420  0.158486  1.0
  N  N1508  1  0.531100  0.943580  0.658486  1.0
  N  N1509  1  0.943580  0.531100  0.091514  1.0
  N  N1510  1  0.056420  0.468900  0.591514  1.0
  N  N1511  1  0.531100  0.056420  0.841514  1.0
  N  N1512  1  0.468900  0.943580  0.341514  1.0
  N  N1513  1  0.984460  0.580550  0.872220  1.0
  N  N1514  1  0.015540  0.419450  0.372220  1.0
  N  N1515  1  0.419450  0.984460  0.122220  1.0
  N  N1516  1  0.580550  0.015540  0.622220  1.0
  N  N1517  1  0.015540  0.580550  0.127780  1.0
  N  N1518  1  0.984460  0.419450  0.627780  1.0
  N  N1519  1  0.580550  0.984460  0.877780  1.0
  N  N1520  1  0.419450  0.015540  0.377780  1.0
  N  N1521  1  0.259930  0.244430  0.968530  1.0
  N  N1522  1  0.740070  0.755570  0.468530  1.0
  N  N1523  1  0.755570  0.259930  0.218530  1.0
  N  N1524  1  0.244430  0.740070  0.718530  1.0
  N  N1525  1  0.740070  0.244430  0.031470  1.0
  N  N1526  1  0.259930  0.755570  0.531470  1.0
  N  N1527  1  0.244430  0.259930  0.781470  1.0
  N  N1528  1  0.755570  0.740070  0.281470  1.0
  N  N1529  1  0.145710  0.255530  0.989660  1.0
  N  N1530  1  0.854290  0.744470  0.489660  1.0
  N  N1531  1  0.744470  0.145710  0.239660  1.0
  N  N1532  1  0.255530  0.854290  0.739660  1.0
  N  N1533  1  0.854290  0.255530  0.010340  1.0
  N  N1534  1  0.145710  0.744470  0.510340  1.0
  N  N1535  1  0.255530  0.145710  0.760340  1.0
  N  N1536  1  0.744470  0.854290  0.260340  1.0
  N  N1537  1  0.970110  0.642400  0.057970  1.0
  N  N1538  1  0.029890  0.357600  0.557970  1.0
  N  N1539  1  0.357600  0.970110  0.307970  1.0
  N  N1540  1  0.642400  0.029890  0.807970  1.0
  N  N1541  1  0.029890  0.642400  0.942030  1.0
  N  N1542  1  0.970110  0.357600  0.442030  1.0
  N  N1543  1  0.642400  0.970110  0.692030  1.0
  N  N1544  1  0.357600  0.029890  0.192030  1.0
  N  N1545  1  0.915900  0.658930  0.102460  1.0
  N  N1546  1  0.084100  0.341070  0.602460  1.0
  N  N1547  1  0.341070  0.915900  0.352460  1.0
  N  N1548  1  0.658930  0.084100  0.852460  1.0
  N  N1549  1  0.084100  0.658930  0.897540  1.0
  N  N1550  1  0.915900  0.341070  0.397540  1.0
  N  N1551  1  0.658930  0.915900  0.647540  1.0
  N  N1552  1  0.341070  0.084100  0.147540  1.0
  O  O1553  1  0.912290  0.105450  0.883960  1
  O  O1554  1  0.087710  0.894550  0.383960  1
  O  O1555  1  0.894550  0.912290  0.133960  1
  O  O1556  1  0.105450  0.087710  0.633960  1
  O  O1557  1  0.087710  0.105450  0.116040  1
  O  O1558  1  0.912290  0.894550  0.616040  1
  O  O1559  1  0.105450  0.912290  0.866040  1
  O  O1560  1  0.894550  0.087710  0.366040  1
  O  O1561  1  0.841300  0.059190  0.919350  1
  O  O1562  1  0.158700  0.940810  0.419350  1
  O  O1563  1  0.940810  0.841300  0.169350  1
  O  O1564  1  0.059190  0.158700  0.669350  1
  O  O1565  1  0.158700  0.059190  0.080650  1
  O  O1566  1  0.841300  0.940810  0.580650  1
  O  O1567  1  0.059190  0.841300  0.830650  1
  O  O1568  1  0.940810  0.158700  0.330650  1
  O  O1569  1  0.926900  0.149360  0.926790  1
  O  O1570  1  0.073100  0.850640  0.426790  1
  O  O1571  1  0.850640  0.926900  0.176790  1
  O  O1572  1  0.149360  0.073100  0.676790  1
  O  O1573  1  0.073100  0.149360  0.073210  1
  O  O1574  1  0.926900  0.850640  0.573210  1
  O  O1575  1  0.149360  0.926900  0.823210  1
  O  O1576  1  0.850640  0.073100  0.323210  1
  O  O1577  1  0.719610  0.729850  0.084840  1
  O  O1578  1  0.280390  0.270150  0.584840  1
  O  O1579  1  0.270150  0.719610  0.334840  1
  O  O1580  1  0.729850  0.280390  0.834840  1
  O  O1581  1  0.280390  0.729850  0.915160  1
  O  O1582  1  0.719610  0.270150  0.415160  1
  O  O1583  1  0.729850  0.719610  0.665160  1
  O  O1584  1  0.270150  0.280390  0.165160  1
  O  O1585  1  0.738490  0.642480  0.054350  1
  O  O1586  1  0.261510  0.357520  0.554350  1
  O  O1587  1  0.357520  0.738490  0.304350  1
  O  O1588  1  0.642480  0.261510  0.804350  1
  O  O1589  1  0.261510  0.642480  0.945650  1
  O  O1590  1  0.738490  0.357520  0.445650  1
  O  O1591  1  0.642480  0.738490  0.695650  1
  O  O1592  1  0.357520  0.261510  0.195650  1
  O  O1593  1  0.632600  0.652420  0.075330  1
  O  O1594  1  0.367400  0.347580  0.575330  1
  O  O1595  1  0.347580  0.632600  0.325330  1
  O  O1596  1  0.652420  0.367400  0.825330  1
  O  O1597  1  0.367400  0.652420  0.924670  1
  O  O1598  1  0.632600  0.347580  0.424670  1
  O  O1599  1  0.652420  0.632600  0.674670  1
  O  O1600  1  0.347580  0.367400  0.174670  1
  O  O1601  1  0.930300  0.413200  0.992700  1
  O  O1602  1  0.069700  0.586800  0.492700  1
  O  O1603  1  0.586800  0.930300  0.242700  1
  O  O1604  1  0.413200  0.069700  0.742700  1
  O  O1605  1  0.069700  0.413200  0.007300  1
  O  O1606  1  0.930300  0.586800  0.507300  1
  O  O1607  1  0.413200  0.930300  0.757300  1
  O  O1608  1  0.586800  0.069700  0.257300  1
  O  O1609  1  0.935700  0.472100  0.033500  1
  O  O1610  1  0.064300  0.527900  0.533500  1
  O  O1611  1  0.527900  0.935700  0.283500  1
  O  O1612  1  0.472100  0.064300  0.783500  1
  O  O1613  1  0.064300  0.472100  0.966500  1
  O  O1614  1  0.935700  0.527900  0.466500  1
  O  O1615  1  0.472100  0.935700  0.716500  1
  O  O1616  1  0.527900  0.064300  0.216500  1
  O  O1617  1  0.033200  0.457900  0.007300  1
  O  O1618  1  0.966800  0.542100  0.507300  1
  O  O1619  1  0.542100  0.033200  0.257300  1
  O  O1620  1  0.457900  0.966800  0.757300  1
  O  O1621  1  0.966800  0.457900  0.992700  1
  O  O1622  1  0.033200  0.542100  0.492700  1
  O  O1623  1  0.457900  0.033200  0.742700  1
  O  O1624  1  0.542100  0.966800  0.242700  1
  F  F1625  1  0.948610  0.980500  0.906290  1
  F  F1626  1  0.051390  0.019500  0.406290  1
  F  F1627  1  0.019500  0.948610  0.156290  1
  F  F1628  1  0.980500  0.051390  0.656290  1
  F  F1629  1  0.051390  0.980500  0.093710  1
  F  F1630  1  0.948610  0.019500  0.593710  1
  F  F1631  1  0.980500  0.948610  0.843710  1
  F  F1632  1  0.019500  0.051390  0.343710  1
  F  F1633  1  0.962030  0.013350  0.941350  1
  F  F1634  1  0.037970  0.986650  0.441350  1
  F  F1635  1  0.986650  0.962030  0.191350  1
  F  F1636  1  0.013350  0.037970  0.691350  1
  F  F1637  1  0.037970  0.013350  0.058650  1
  F  F1638  1  0.962030  0.986650  0.558650  1
  F  F1639  1  0.013350  0.962030  0.808650  1
  F  F1640  1  0.986650  0.037970  0.308650  1
  F  F1641  1  0.024010  0.042440  0.910600  1
  F  F1642  1  0.975990  0.957560  0.410600  1
  F  F1643  1  0.957560  0.024010  0.160600  1
  F  F1644  1  0.042440  0.975990  0.660600  1
  F  F1645  1  0.975990  0.042440  0.089400  1
  F  F1646  1  0.024010  0.957560  0.589400  1
  F  F1647  1  0.042440  0.024010  0.839400  1
  F  F1648  1  0.957560  0.975990  0.339400  1
  F  F1649  1  0.635250  0.701920  0.021520  1
  F  F1650  1  0.364750  0.298080  0.521520  1
  F  F1651  1  0.298080  0.635250  0.271520  1
  F  F1652  1  0.701920  0.364750  0.771520  1
  F  F1653  1  0.364750  0.701920  0.978480  1
  F  F1654  1  0.635250  0.298080  0.478480  1
  F  F1655  1  0.701920  0.635250  0.728480  1
  F  F1656  1  0.298080  0.364750  0.228480  1
  F  F1657  1  0.617570  0.778670  0.048650  1
  F  F1658  1  0.382430  0.221330  0.548650  1
  F  F1659  1  0.221330  0.617570  0.298650  1
  F  F1660  1  0.778670  0.382430  0.798650  1
  F  F1661  1  0.382430  0.778670  0.951350  1
  F  F1662  1  0.617570  0.221330  0.451350  1
  F  F1663  1  0.778670  0.617570  0.701350  1
  F  F1664  1  0.221330  0.382430  0.201350  1
  F  F1665  1  0.711580  0.770680  0.030310  1
  F  F1666  1  0.288420  0.229320  0.530310  1
  F  F1667  1  0.229320  0.711580  0.280310  1
  F  F1668  1  0.770680  0.288420  0.780310  1
  F  F1669  1  0.288420  0.770680  0.969690  1
  F  F1670  1  0.711580  0.229320  0.469690  1
  F  F1671  1  0.770680  0.711580  0.719690  1
  F  F1672  1  0.229320  0.288420  0.219690  1
  F  F1673  1  0.024600  0.367800  0.052200  1
  F  F1674  1  0.975400  0.632200  0.552200  1
  F  F1675  1  0.632200  0.024600  0.302200  1
  F  F1676  1  0.367800  0.975400  0.802200  1
  F  F1677  1  0.975400  0.367800  0.947800  1
  F  F1678  1  0.024600  0.632200  0.447800  1
  F  F1679  1  0.367800  0.024600  0.697800  1
  F  F1680  1  0.632200  0.975400  0.197800  1
  F  F1681  1  0.932900  0.329000  0.039600  1
  F  F1682  1  0.067100  0.671000  0.539600  1
  F  F1683  1  0.671000  0.932900  0.289600  1
  F  F1684  1  0.329000  0.067100  0.789600  1
  F  F1685  1  0.067100  0.329000  0.960400  1
  F  F1686  1  0.932900  0.671000  0.460400  1
  F  F1687  1  0.329000  0.932900  0.710400  1
  F  F1688  1  0.671000  0.067100  0.210400  1
  F  F1689  1  0.018600  0.315900  0.016100  1
  F  F1690  1  0.981400  0.684100  0.516100  1
  F  F1691  1  0.684100  0.018600  0.266100  1
  F  F1692  1  0.315900  0.981400  0.766100  1
  F  F1693  1  0.981400  0.315900  0.983900  1
  F  F1694  1  0.018600  0.684100  0.483900  1
  F  F1695  1  0.315900  0.018600  0.733900  1
  F  F1696  1  0.684100  0.981400  0.233900  1
