
#######################################################################
#
#                 Cambridge Crystallographic Data Centre
#                                CCDC 
#
#######################################################################
#
# If this CIF has been generated from an entry in the Cambridge 
# Structural Database, then it will include bibliographic, chemical, 
# crystal, experimental, refinement or atomic coordinate data resulting 
# from the CCDC's data processing and validation procedures.
#
#######################################################################

data_WAMPUX
_chemical_formula_moiety         
'C168 H156 Fe4 N24 8+,8(C1 F3 O3 S1 1-),2(C2 H3 N1)'
_chemical_name_systematic        
"hexakis(\m~2~-N,N'-(3,3'-Bipyridine-6,6'-diyldimethylylidene)-bis(1-phenylethanamine))-tetra-iron octakis(trifluoromethanesulfonate) acetonitrile solvate"
_symmetry_cell_setting           tetragonal
_symmetry_space_group_name_H-M   'P 41 2 2'
_symmetry_Int_Tables_number      91
_space_group_name_Hall           'P 4w 2c'
loop_
_symmetry_equiv_pos_site_id
_symmetry_equiv_pos_as_xyz
1 x,y,z
2 -x,-y,1/2+z
3 -y,x,1/4+z
4 y,-x,3/4+z
5 -x,y,-z
6 x,-y,1/2-z
7 y,x,3/4-z
8 -y,-x,1/4-z
_cell_length_a                   20.3126(3)
_cell_length_b                   20.3126(3)
_cell_length_c                   51.3915(7)
_cell_angle_alpha                90
_cell_angle_beta                 90
_cell_angle_gamma                90
_cell_volume                     21204.2
_exptl_crystal_colour            purple
_exptl_crystal_description       slab
_cell_formula_units_Z            4
loop_
_atom_site_label
_atom_site_type_symbol
_atom_site_fract_x
_atom_site_fract_y
_atom_site_fract_z
C1 C 1.2103(5) 0.1041(5) 1.00217(19)
C2 C 1.2231(6) 0.0674(6) 0.9793(2)
H1 H 1.2663 0.0652 0.9722
C3 C 1.1702(10) 0.0343(8) 0.9673(3)
H2 H 1.1748 0.0122 0.9511
C4 C 1.1064(9) 0.0362(9) 0.9817(5)
H3 H 1.0699 0.0136 0.9743
C5 C 1.0982(8) 0.0643(7) 1.0018(4)
H4 H 1.0566 0.0622 1.0102
C6 C 1.1466(5) 0.0982(6) 1.0124(2)
H5 H 1.1375 0.1205 1.0282
C7 C 1.2617(4) 0.1448(5) 1.01598(19)
H6 H 1.2972 0.1528 1.0029
C8 C 1.2934(6) 0.1035(7) 1.0374(2)
H7 H 1.3273 0.1295 1.0463
H8 H 1.3135 0.0642 1.0298
H9 H 1.2597 0.0902 1.0500
C9 C 1.2109(4) 0.2150(6) 1.04555(18)
H10 H 1.2056 0.1781 1.0567
C10 C 1.1888(5) 0.2810(6) 1.05297(18)
C11 C 1.1834(4) 0.3888(5) 1.03865(18)
H11 H 1.1899 0.4209 1.0254
C12 C 1.1609(5) 0.4100(7) 1.0617(2)
C13 C 1.1499(5) 0.3673(6) 1.08113(19)
H12 H 1.1348 0.3819 1.0977
C14 C 1.1618(5) 0.2986(8) 1.0760(2)
H13 H 1.1509 0.2662 1.0886
C15 C 1.1508(5) 0.4825(6) 1.06693(17)
C16 C 1.0886(4) 0.5059(5) 1.07521(17)
H14 H 1.0528 0.4759 1.0766
C17 C 1.1315(5) 0.6122(6) 1.07907(18)
C18 C 1.1928(6) 0.5916(8) 1.0717(2)
H15 H 1.2285 0.6218 1.0711
C19 C 1.2022(6) 0.5266(8) 1.0652(2)
H16 H 1.2442 0.5121 1.0595
C20 C 1.1180(7) 0.6800(6) 1.0880(2)
H17 H 1.1502 0.7139 1.0882
C21 C 1.0359(6) 0.7544(6) 1.1033(2)
H18 H 0.9994 0.7494 1.1163
C22 C 1.0869(8) 0.7988(7) 1.1157(2)
H19 H 1.1043 0.7778 1.1314
H20 H 1.0666 0.8410 1.1203
H21 H 1.1229 0.8064 1.1033
C23 C 1.0058(8) 0.7925(6) 1.0789(2)
C24 C 1.0423(7) 0.7913(7) 1.0552(3)
H22 H 1.0812 0.7657 1.0533
C25 C 1.0176(9) 0.8294(7) 1.0354(3)
H23 H 1.0409 0.8308 1.0193
C26 C 0.9623(13) 0.8644(7) 1.0378(3)
H24 H 0.9452 0.8871 1.0231
C27 C 0.9281(10) 0.8683(7) 1.0624(3)
H25 H 0.8907 0.8959 1.0645
C28 C 0.9509(8) 0.8314(6) 1.0824(3)
H26 H 0.9292 0.8323 1.0988
C29 C 1.3578(4) 0.3387(4) 1.05594(17)
C30 C 1.3385(5) 0.3061(6) 1.0791(2)
H27 H 1.3314 0.2599 1.0784
C31 C 1.3295(5) 0.3371(7) 1.1027(2)
H28 H 1.3146 0.3138 1.1176
C32 C 1.3432(7) 0.4040(7) 1.1036(2)
H29 H 1.3394 0.4264 1.1197
C33 C 1.3616(12) 0.4384(8) 1.0824(3)
H30 H 1.3661 0.4849 1.0834
C34 C 1.3742(10) 0.4054(7) 1.0588(2)
H31 H 1.3939 0.4284 1.0447
C35 C 1.3637(4) 0.3016(5) 1.0311(2)
H32 H 1.3504 0.2552 1.0350
C36 C 1.4345(5) 0.2987(7) 1.0212(2)
H33 H 1.4481 0.3424 1.0152
H34 H 1.4375 0.2673 1.0068
H35 H 1.4636 0.2844 1.0354
C37 C 1.3314(4) 0.3840(4) 1.00020(17)
H36 H 1.3709 0.4073 1.0038
C38 C 1.2805(4) 0.4085(4) 0.98223(17)
C39 C 1.1809(4) 0.3855(4) 0.96192(16)
H37 H 1.1440 0.3573 0.9598
C40 C 1.1854(4) 0.4411(4) 0.94638(15)
C41 C 1.2387(5) 0.4825(4) 0.95022(17)
H38 H 1.2410 0.5230 0.9410
C42 C 1.2889(4) 0.4656(5) 0.96746(18)
H39 H 1.3273 0.4920 0.9691
C43 C 1.1366(4) 0.4575(4) 0.92645(16)
C44 C 1.0987(4) 0.5132(5) 0.92798(15)
H40 H 1.1019 0.5402 0.9430
C45 C 1.0532(5) 0.4912(5) 0.88701(15)
C46 C 1.0861(5) 0.4367(5) 0.88538(17)
H41 H 1.0806 0.4103 0.8703
C47 C 1.1292(6) 0.4147(6) 0.90465(18)
H42 H 1.1521 0.3741 0.9033
C48 C 1.0086(5) 0.5247(7) 0.86771(16)
H43 H 0.9985 0.5032 0.8518
C49 C 0.9415(4) 0.6072(6) 0.85249(17)
H44 H 0.9456 0.6561 0.8543
C50 C 0.8687(3) 0.5926(5) 0.85808(15)
C51 C 0.8503(4) 0.5281(5) 0.86337(17)
H45 H 0.8829 0.4947 0.8647
C52 C 0.7843(5) 0.5124(6) 0.8668(2)
H46 H 0.7717 0.4683 0.8704
C53 C 0.7366(3) 0.5613(7) 0.86485(19)
H47 H 0.6915 0.5505 0.8672
C54 C 0.7550(4) 0.6258(7) 0.85956(18)
H48 H 0.7224 0.6592 0.8583
C55 C 0.8210(5) 0.6415(5) 0.85617(18)
H49 H 0.8336 0.6856 0.8526
C56 C 0.9574(6) 0.5931(6) 0.82406(18)
H50 H 1.0048 0.5988 0.8211
H51 H 0.9330 0.6236 0.8129
H52 H 0.9448 0.5478 0.8198
C57 C 1.3453(4) 0.3011(4) 0.94209(16)
C58 C 1.4027(4) 0.3368(6) 0.94787(18)
H53 H 1.4291 0.3240 0.9623
C59 C 1.4216(5) 0.3908(5) 0.93285(18)
H54 H 1.4611 0.4139 0.9366
C60 C 1.3821(6) 0.4097(5) 0.9126(2)
H55 H 1.3942 0.4472 0.9027
C61 C 1.3239(5) 0.3753(5) 0.9061(2)
H56 H 1.2963 0.3886 0.8922
C62 C 1.3094(4) 0.3192(5) 0.92191(16)
H57 H 1.2718 0.2936 0.9177
C63 C 1.3299(4) 0.2407(5) 0.95825(19)
H58 H 1.3605 0.2399 0.9735
C64 C 1.3439(5) 0.1792(5) 0.9413(2)
H59 H 1.3205 0.1832 0.9247
H60 H 1.3289 0.1397 0.9505
H61 H 1.3913 0.1759 0.9380
C65 C 1.2129(4) 0.2180(5) 0.95514(17)
H62 H 1.2206 0.1957 0.9392
C66 C 1.1488(4) 0.2248(4) 0.96596(16)
C67 C 1.0889(4) 0.2580(5) 1.00220(17)
H63 H 1.0880 0.2791 1.0187
C68 C 1.0293(4) 0.2312(4) 0.99256(15)
C69 C 1.0326(4) 0.2009(5) 0.96791(18)
H64 H 0.9942 0.1811 0.9608
C70 C 1.0896(5) 0.1995(5) 0.95417(17)
H65 H 1.0906 0.1822 0.9370
C71 C 0.9803(4) 0.6620(4) 1.01216(17)
C72 C 1.0024(5) 0.6385(5) 1.03508(19)
H66 H 1.0442 0.6174 1.0351
C73 C 0.9139(5) 0.6742(5) 1.05782(16)
C74 C 0.8840(4) 0.7009(5) 1.03479(16)
H67 H 0.8433 0.7239 1.0359
C75 C 0.9140(4) 0.6928(5) 1.01176(18)
H68 H 0.8939 0.7062 0.9959
C76 C 0.8812(5) 0.6853(4) 1.08261(18)
H69 H 0.8407 0.7082 1.0846
C77 C 0.8869(5) 0.6622(5) 1.12938(17)
H70 H 0.9238 0.6612 1.1422
C78 C 0.8424(5) 0.6045(4) 1.13475(18)
C79 C 0.7973(5) 0.5813(5) 1.11787(16)
H71 H 0.7931 0.6008 1.1011
C80 C 0.7571(5) 0.5294(5) 1.1247(2)
H72 H 0.7261 0.5137 1.1123
C81 C 0.7597(5) 0.5012(6) 1.1472(2)
H73 H 0.7286 0.4683 1.1519
C82 C 0.8105(7) 0.5207(5) 1.1650(2)
H74 H 0.8161 0.4984 1.1811
C83 C 0.8507(5) 0.5719(5) 1.15832(18)
H75 H 0.8846 0.5853 1.1699
C84 C 0.8465(6) 0.7268(5) 1.1338(2)
H76 H 0.8094 0.7281 1.1217
H77 H 0.8750 0.7650 1.1309
H78 H 0.8299 0.7277 1.1517
N3 N 1.23743(6) 0.21042(5) 1.02346(2)
N4 N 1.19755(6) 0.32620(5) 1.032766(18)
N5 N 1.07932(13) 0.56807(9) 1.081051(18)
N6 N 1.05560(18) 0.68884(10) 1.09576(2)
N7 N 1.31665(5) 0.32647(6) 1.01075(3)
N8 N 1.22723(4) 0.36941(5) 0.980081(19)
N9 N 1.05642(6) 0.53110(5) 0.908486(17)
N10 N 0.98446(7) 0.58055(7) 0.87222(2)
N11 N 1.25993(6) 0.24443(6) 0.96853(2)
N12 N 1.14571(5) 0.25553(4) 0.98966(2)
N13 N 0.97011(7) 0.64240(5) 1.05797(2)
N14 N 0.91590(7) 0.65893(6) 1.10246(2)
Fe1 Fe 1.23254(5) 0.28781(5) 1.00094(2)
Fe2 Fe 0.99663(6) 0.61238(6) 1.09299(2)
C1D C 0.7897(5) 0.1041(5) 0.99783(19)
C2D C 0.7769(6) 0.0674(6) 1.0207(2)
H1D H 0.7337 0.0652 1.0278
C3D C 0.8298(10) 0.0343(8) 1.0327(3)
H2D H 0.8252 0.0122 1.0489
C4D C 0.8936(9) 0.0362(9) 1.0183(5)
H3D H 0.9301 0.0136 1.0257
C5D C 0.9018(8) 0.0643(7) 0.9982(4)
H4D H 0.9434 0.0622 0.9898
C6D C 0.8534(5) 0.0982(6) 0.9876(2)
H5D H 0.8625 0.1205 0.9718
C7D C 0.7383(4) 0.1448(5) 0.98402(19)
H6D H 0.7028 0.1528 0.9971
C8D C 0.7066(6) 0.1035(7) 0.9626(2)
H7D H 0.6727 0.1295 0.9537
H8D H 0.6865 0.0642 0.9702
H9D H 0.7403 0.0902 0.9500
C9D C 0.7891(4) 0.2150(6) 0.95445(18)
H10D H 0.7944 0.1781 0.9433
C10D C 0.8112(5) 0.2810(6) 0.94703(18)
C11D C 0.8166(4) 0.3888(5) 0.96135(18)
H11D H 0.8101 0.4209 0.9746
C12D C 0.8391(5) 0.4100(7) 0.9383(2)
C13D C 0.8501(5) 0.3673(6) 0.91887(19)
H12D H 0.8652 0.3819 0.9023
C14D C 0.8382(5) 0.2986(8) 0.9240(2)
H13D H 0.8491 0.2662 0.9114
C15D C 0.8492(5) 0.4825(6) 0.93307(17)
C16D C 0.9114(4) 0.5059(5) 0.92479(17)
H14D H 0.9472 0.4759 0.9234
C17D C 0.8685(5) 0.6122(6) 0.92093(18)
C18D C 0.8072(6) 0.5916(8) 0.9283(2)
H15D H 0.7715 0.6218 0.9289
C19D C 0.7978(6) 0.5266(8) 0.9348(2)
H16D H 0.7558 0.5121 0.9405
C20D C 0.8820(7) 0.6800(6) 0.9120(2)
H17D H 0.8498 0.7139 0.9118
C21D C 0.9641(6) 0.7544(6) 0.8967(2)
H18D H 1.0006 0.7494 0.8837
C22D C 0.9131(8) 0.7988(7) 0.8843(2)
H19D H 0.8957 0.7778 0.8686
H20D H 0.9334 0.8410 0.8797
H21D H 0.8771 0.8064 0.8967
C23D C 0.9942(8) 0.7925(6) 0.9211(2)
C24D C 0.9577(7) 0.7913(7) 0.9448(3)
H22D H 0.9188 0.7657 0.9467
C25D C 0.9824(9) 0.8294(7) 0.9646(3)
H23D H 0.9591 0.8308 0.9807
C26D C 1.0377(13) 0.8644(7) 0.9622(3)
H24D H 1.0548 0.8871 0.9769
C27D C 1.0719(10) 0.8683(7) 0.9376(3)
H25D H 1.1093 0.8959 0.9355
C28D C 1.0491(8) 0.8314(6) 0.9176(3)
H26D H 1.0708 0.8323 0.9012
C29D C 0.6422(4) 0.3387(4) 0.94406(17)
C30D C 0.6615(5) 0.3061(6) 0.9209(2)
H27D H 0.6686 0.2599 0.9216
C31D C 0.6705(5) 0.3371(7) 0.8973(2)
H28D H 0.6854 0.3138 0.8824
C32D C 0.6568(7) 0.4040(7) 0.8964(2)
H29D H 0.6606 0.4264 0.8803
C33D C 0.6384(12) 0.4384(8) 0.9176(3)
H30D H 0.6339 0.4849 0.9166
C34D C 0.6258(10) 0.4054(7) 0.9412(2)
H31D H 0.6061 0.4284 0.9553
C35D C 0.6363(4) 0.3016(5) 0.9689(2)
H32D H 0.6496 0.2552 0.9650
C36D C 0.5655(5) 0.2987(7) 0.9788(2)
H33D H 0.5519 0.3424 0.9848
H34D H 0.5625 0.2673 0.9932
H35D H 0.5364 0.2844 0.9646
C37D C 0.6686(4) 0.3840(4) 0.99980(17)
H36D H 0.6291 0.4073 0.9962
C38D C 0.7195(4) 0.4085(4) 1.01777(17)
C39D C 0.8191(4) 0.3855(4) 1.03808(16)
H37D H 0.8560 0.3573 1.0402
C40D C 0.8146(4) 0.4411(4) 1.05362(15)
C41D C 0.7613(5) 0.4825(4) 1.04978(17)
H38D H 0.7590 0.5230 1.0590
C42D C 0.7111(4) 0.4656(5) 1.03254(18)
H39D H 0.6727 0.4920 1.0309
C43D C 0.8634(4) 0.4575(4) 1.07355(16)
C44D C 0.9013(4) 0.5132(5) 1.07202(15)
H40D H 0.8981 0.5402 1.0570
C45D C 0.9468(5) 0.4912(5) 1.11299(15)
C46D C 0.9139(5) 0.4367(5) 1.11462(17)
H41D H 0.9194 0.4103 1.1297
C47D C 0.8708(6) 0.4147(6) 1.09535(18)
H42D H 0.8479 0.3741 1.0967
C48D C 0.9914(5) 0.5247(7) 1.13229(16)
H43D H 1.0015 0.5032 1.1482
C49D C 1.0585(4) 0.6072(6) 1.14751(17)
H44D H 1.0544 0.6561 1.1457
C50D C 1.1313(3) 0.5926(5) 1.14192(15)
C51D C 1.1497(4) 0.5281(5) 1.13663(17)
H45D H 1.1171 0.4947 1.1353
C52D C 1.2157(5) 0.5124(6) 1.1332(2)
H46D H 1.2283 0.4683 1.1296
C53D C 1.2634(3) 0.5613(7) 1.13515(19)
H47D H 1.3085 0.5505 1.1328
C54D C 1.2450(4) 0.6258(7) 1.14044(18)
H48D H 1.2776 0.6592 1.1417
C55D C 1.1790(5) 0.6415(5) 1.14383(18)
H49D H 1.1664 0.6856 1.1474
C56D C 1.0426(6) 0.5931(6) 1.17594(18)
H50D H 0.9952 0.5988 1.1789
H51D H 1.0670 0.6236 1.1871
H52D H 1.0552 0.5478 1.1802
C57D C 0.6547(4) 0.3011(4) 1.05791(16)
C58D C 0.5973(4) 0.3368(6) 1.05213(18)
H53D H 0.5709 0.3240 1.0377
C59D C 0.5784(5) 0.3908(5) 1.06715(18)
H54D H 0.5389 0.4139 1.0634
C60D C 0.6179(6) 0.4097(5) 1.0874(2)
H55D H 0.6058 0.4472 1.0973
C61D C 0.6761(5) 0.3753(5) 1.0939(2)
H56D H 0.7037 0.3886 1.1078
C62D C 0.6906(4) 0.3192(5) 1.07809(16)
H57D H 0.7282 0.2936 1.0823
C63D C 0.6701(4) 0.2407(5) 1.04175(19)
H58D H 0.6395 0.2399 1.0265
C64D C 0.6561(5) 0.1792(5) 1.0587(2)
H59D H 0.6795 0.1832 1.0753
H60D H 0.6711 0.1397 1.0495
H61D H 0.6087 0.1759 1.0620
C65D C 0.7871(4) 0.2180(5) 1.04486(17)
H62D H 0.7794 0.1957 1.0608
C66D C 0.8512(4) 0.2248(4) 1.03404(16)
C67D C 0.9111(4) 0.2580(5) 0.99780(17)
H63D H 0.9120 0.2791 0.9813
C68D C 0.9707(4) 0.2312(4) 1.00744(15)
C69D C 0.9674(4) 0.2009(5) 1.03209(18)
H64D H 1.0058 0.1811 1.0392
C70D C 0.9104(5) 0.1995(5) 1.04583(17)
H65D H 0.9094 0.1822 1.0630
C71D C 1.0197(4) 0.6620(4) 0.98784(17)
C72D C 0.9976(5) 0.6385(5) 0.96492(19)
H66D H 0.9558 0.6174 0.9649
C73D C 1.0861(5) 0.6742(5) 0.94218(16)
C74D C 1.1160(4) 0.7009(5) 0.96521(16)
H67D H 1.1567 0.7239 0.9641
C75D C 1.0860(4) 0.6928(5) 0.98824(18)
H68D H 1.1061 0.7062 1.0041
C76D C 1.1188(5) 0.6853(4) 0.91739(18)
H69D H 1.1593 0.7082 0.9154
C77D C 1.1131(5) 0.6622(5) 0.87062(17)
H70D H 1.0762 0.6612 0.8578
C78D C 1.1576(5) 0.6045(4) 0.86525(18)
C79D C 1.2027(5) 0.5813(5) 0.88213(16)
H71D H 1.2069 0.6008 0.8989
C80D C 1.2429(5) 0.5294(5) 0.8753(2)
H72D H 1.2739 0.5137 0.8877
C81D C 1.2403(5) 0.5012(6) 0.8528(2)
H73D H 1.2714 0.4683 0.8481
C82D C 1.1895(7) 0.5207(5) 0.8350(2)
H74D H 1.1839 0.4984 0.8189
C83D C 1.1493(5) 0.5719(5) 0.84168(18)
H75D H 1.1154 0.5853 0.8301
C84D C 1.1535(6) 0.7268(5) 0.8662(2)
H76D H 1.1906 0.7281 0.8783
H77D H 1.1250 0.7650 0.8691
H78D H 1.1701 0.7277 0.8483
N3D N 0.76257(6) 0.21042(5) 0.97654(2)
N4D N 0.80245(6) 0.32620(5) 0.967234(18)
N5D N 0.92068(13) 0.56807(9) 0.918949(18)
N6D N 0.94440(18) 0.68884(10) 0.90424(2)
N7D N 0.68335(5) 0.32647(6) 0.98925(3)
N8D N 0.77277(4) 0.36941(5) 1.019919(19)
N9D N 0.94358(6) 0.53110(5) 1.091514(17)
N10D N 1.01554(7) 0.58055(7) 1.12778(2)
N11D N 0.74007(6) 0.24443(6) 1.03147(2)
N12D N 0.85429(5) 0.25553(4) 1.01034(2)
N13D N 1.02989(7) 0.64240(5) 0.94203(2)
N14D N 1.08410(7) 0.65893(6) 0.89754(2)
Fe1D Fe 0.76746(5) 0.28781(5) 0.99906(2)
Fe2D Fe 1.00337(6) 0.61238(6) 0.90701(2)
C85 C 0.9630(11) 0.0275(13) 0.9200(4)
O7 O 0.91229(10) 0.10545(10) 0.88396(4)
O8 O 0.84130(9) 0.05919(8) 0.91935(4)
O9 O 0.92690(8) 0.14936(8) 0.92679(3)
F7 F 0.94861(10) -0.01950(10) 0.90629(5)
F8 F 0.96203(9) 0.01335(8) 0.94135(5)
F9 F 1.02401(9) 0.04244(11) 0.91060(5)
S3 S 0.90404(9) 0.09779(9) 0.91051(4)
N1 N 1.0117(13) 0.3594(13) 0.9440(5)
C87 C 1.0009(17) 0.3276(16) 0.9254(6)
C88 C 0.9989(11) 0.2806(10) 0.9053(4)
H79 H 0.9971 0.2363 0.9128
H80 H 1.0385 0.2847 0.8945
H81 H 0.9598 0.2880 0.8945
N2 N 0.7594(10) 0.6173(10) 0.9969(4)
C89 C 0.8493(15) 0.5423(15) 0.9980(6)
H82 H 0.8903 0.5675 0.9988
H83 H 0.8495 0.5142 0.9825
H84 H 0.8454 0.5147 1.0136
C90 C 0.7965(12) 0.5851(12) 0.9968(4)
S2 S 0.69167(7) 0.68411(8) 1.06675(5)
C91 C 0.66270(10) 0.73652(8) 1.04065(5)
O4 O 0.71961(8) 0.72985(8) 1.08484(5)
O5 O 0.73849(7) 0.64248(6) 1.05435(4)
O6 O 0.63260(7) 0.65242(9) 1.07533(5)
F4 F 0.63525(10) 0.70192(8) 1.02152(5)
F5 F 0.61757(10) 0.77867(9) 1.04865(6)
F6 F 0.71158(11) 0.77068(6) 1.03031(5)
S1? S 0.9697(11) 0.4342(10) 1.0143(4)
C86? C 0.9871(13) 0.3580(11) 1.0313(5)
O1? O 0.9303(17) 0.4132(16) 0.9927(5)
O2? O 0.9357(17) 0.4721(13) 1.0335(6)
O3? O 1.0332(14) 0.4579(15) 1.0073(6)
F1? F 1.0246(19) 0.3678(16) 1.0522(5)
F2? F 0.9329(17) 0.3290(14) 1.0396(7)
F3? F 1.0186(18) 0.3159(12) 1.0161(7)
loop_
_geom_bond_atom_site_label_1
_geom_bond_atom_site_label_2
_geom_bond_site_symmetry_1
_geom_bond_site_symmetry_2
C1 C2 1_555 1_555
C2 H1 1_555 1_555
C3 C2 1_555 1_555
H2 C3 1_555 1_555
C4 C3 1_555 1_555
H3 C4 1_555 1_555
C5 C4 1_555 1_555
H4 C5 1_555 1_555
C6 C1 1_555 1_555
H5 C6 1_555 1_555
C7 C1 1_555 1_555
H6 C7 1_555 1_555
C8 C7 1_555 1_555
H7 C8 1_555 1_555
H8 C8 1_555 1_555
H9 C8 1_555 1_555
C9 H10 1_555 1_555
C10 C9 1_555 1_555
C11 H11 1_555 1_555
C12 C11 1_555 1_555
C13 C12 1_555 1_555
H12 C13 1_555 1_555
C14 C10 1_555 1_555
H13 C14 1_555 1_555
C15 C12 1_555 1_555
C16 C15 1_555 1_555
H14 C16 1_555 1_555
C17 C18 1_555 1_555
C18 H15 1_555 1_555
C19 C15 1_555 1_555
H16 C19 1_555 1_555
C20 C17 1_555 1_555
H17 C20 1_555 1_555
C21 H18 1_555 1_555
C22 C21 1_555 1_555
H19 C22 1_555 1_555
H20 C22 1_555 1_555
H21 C22 1_555 1_555
C23 C21 1_555 1_555
C24 C23 1_555 1_555
H22 C24 1_555 1_555
C25 C24 1_555 1_555
H23 C25 1_555 1_555
C26 C25 1_555 1_555
H24 C26 1_555 1_555
C27 C26 1_555 1_555
H25 C27 1_555 1_555
C28 C23 1_555 1_555
H26 C28 1_555 1_555
C29 C30 1_555 1_555
C30 H27 1_555 1_555
C31 C30 1_555 1_555
H28 C31 1_555 1_555
C32 C31 1_555 1_555
H29 C32 1_555 1_555
C33 C32 1_555 1_555
H30 C33 1_555 1_555
C34 C29 1_555 1_555
H31 C34 1_555 1_555
C35 C29 1_555 1_555
H32 C35 1_555 1_555
C36 C35 1_555 1_555
H33 C36 1_555 1_555
H34 C36 1_555 1_555
H35 C36 1_555 1_555
C37 H36 1_555 1_555
C38 C37 1_555 1_555
C39 H37 1_555 1_555
C40 C39 1_555 1_555
C41 C40 1_555 1_555
H38 C41 1_555 1_555
C42 C38 1_555 1_555
H39 C42 1_555 1_555
C43 C40 1_555 1_555
C44 C43 1_555 1_555
H40 C44 1_555 1_555
C45 C46 1_555 1_555
C46 H41 1_555 1_555
C47 C43 1_555 1_555
H42 C47 1_555 1_555
C48 C45 1_555 1_555
H43 C48 1_555 1_555
C49 H44 1_555 1_555
C50 C49 1_555 1_555
C51 C50 1_555 1_555
H45 C51 1_555 1_555
C52 C51 1_555 1_555
H46 C52 1_555 1_555
C53 C52 1_555 1_555
H47 C53 1_555 1_555
C54 C53 1_555 1_555
H48 C54 1_555 1_555
C55 C50 1_555 1_555
H49 C55 1_555 1_555
C56 C49 1_555 1_555
H50 C56 1_555 1_555
H51 C56 1_555 1_555
H52 C56 1_555 1_555
C57 C58 1_555 1_555
C58 H53 1_555 1_555
C59 C58 1_555 1_555
H54 C59 1_555 1_555
C60 C59 1_555 1_555
H55 C60 1_555 1_555
C61 C60 1_555 1_555
H56 C61 1_555 1_555
C62 C57 1_555 1_555
H57 C62 1_555 1_555
C63 C57 1_555 1_555
H58 C63 1_555 1_555
C64 C63 1_555 1_555
H59 C64 1_555 1_555
H60 C64 1_555 1_555
H61 C64 1_555 1_555
C65 H62 1_555 1_555
C66 C65 1_555 1_555
C67 H63 1_555 1_555
C68 C67 1_555 1_555
C69 C68 1_555 1_555
H64 C69 1_555 1_555
C70 C66 1_555 1_555
H65 C70 1_555 1_555
C71 C72 1_555 1_555
C72 H66 1_555 1_555
C73 C74 1_555 1_555
C74 H67 1_555 1_555
C75 C71 1_555 1_555
H68 C75 1_555 1_555
C76 C73 1_555 1_555
H69 C76 1_555 1_555
C77 H70 1_555 1_555
C78 C77 1_555 1_555
C79 C78 1_555 1_555
H71 C79 1_555 1_555
C80 C79 1_555 1_555
H72 C80 1_555 1_555
C81 C80 1_555 1_555
H73 C81 1_555 1_555
C82 C81 1_555 1_555
H74 C82 1_555 1_555
C83 C78 1_555 1_555
H75 C83 1_555 1_555
C84 C77 1_555 1_555
H76 C84 1_555 1_555
H77 C84 1_555 1_555
H78 C84 1_555 1_555
C85 F7 1_555 1_555
N1 C87 1_555 1_555
C87 C88 1_555 1_555
C88 H79 1_555 1_555
H80 C88 1_555 1_555
H81 C88 1_555 1_555
N2 C90 1_555 1_555
C89 H82 1_555 1_555
H83 C89 1_555 1_555
H84 C89 1_555 1_555
C90 C89 1_555 1_555
S2 C91 1_555 1_555
C91 F4 1_555 1_555
O4 S2 1_555 1_555
O5 S2 1_555 1_555
O6 S2 1_555 1_555
F5 C91 1_555 1_555
F6 C91 1_555 1_555
N3 C7 1_555 1_555
N4 C10 1_555 1_555
N5 C16 1_555 1_555
N6 C20 1_555 1_555
N7 C35 1_555 1_555
N8 C38 1_555 1_555
N9 C44 1_555 1_555
N10 C48 1_555 1_555
N11 C63 1_555 1_555
N12 C66 1_555 1_555
N13 C72 1_555 1_555
N14 C76 1_555 1_555
O7 S3 1_555 1_555
O8 S3 1_555 1_555
O9 S3 1_555 1_555
F8 C85 1_555 1_555
F9 C85 1_555 1_555
S3 C85 1_555 1_555
Fe1 N3 1_555 1_555
Fe2 N5 1_555 1_555
C1D C2D 1_555 1_555
C2D H1D 1_555 1_555
C3D C2D 1_555 1_555
H2D C3D 1_555 1_555
C4D C3D 1_555 1_555
H3D C4D 1_555 1_555
C5D C4D 1_555 1_555
H4D C5D 1_555 1_555
C6D C1D 1_555 1_555
H5D C6D 1_555 1_555
C7D C1D 1_555 1_555
H6D C7D 1_555 1_555
C8D C7D 1_555 1_555
H7D C8D 1_555 1_555
H8D C8D 1_555 1_555
H9D C8D 1_555 1_555
C9D H10D 1_555 1_555
C10D C9D 1_555 1_555
C11D H11D 1_555 1_555
C12D C11D 1_555 1_555
C13D C12D 1_555 1_555
H12D C13D 1_555 1_555
C14D C10D 1_555 1_555
H13D C14D 1_555 1_555
C15D C12D 1_555 1_555
C16D C15D 1_555 1_555
H14D C16D 1_555 1_555
C17D C18D 1_555 1_555
C18D H15D 1_555 1_555
C19D C15D 1_555 1_555
H16D C19D 1_555 1_555
C20D C17D 1_555 1_555
H17D C20D 1_555 1_555
C21D H18D 1_555 1_555
C22D C21D 1_555 1_555
H19D C22D 1_555 1_555
H20D C22D 1_555 1_555
H21D C22D 1_555 1_555
C23D C21D 1_555 1_555
C24D C23D 1_555 1_555
H22D C24D 1_555 1_555
C25D C24D 1_555 1_555
H23D C25D 1_555 1_555
C26D C25D 1_555 1_555
H24D C26D 1_555 1_555
C27D C26D 1_555 1_555
H25D C27D 1_555 1_555
C28D C23D 1_555 1_555
H26D C28D 1_555 1_555
C29D C30D 1_555 1_555
C30D H27D 1_555 1_555
C31D C30D 1_555 1_555
H28D C31D 1_555 1_555
C32D C31D 1_555 1_555
H29D C32D 1_555 1_555
C33D C32D 1_555 1_555
H30D C33D 1_555 1_555
C34D C29D 1_555 1_555
H31D C34D 1_555 1_555
C35D C29D 1_555 1_555
H32D C35D 1_555 1_555
C36D C35D 1_555 1_555
H33D C36D 1_555 1_555
H34D C36D 1_555 1_555
H35D C36D 1_555 1_555
C37D H36D 1_555 1_555
C38D C37D 1_555 1_555
C39D H37D 1_555 1_555
C40D C39D 1_555 1_555
C41D C40D 1_555 1_555
H38D C41D 1_555 1_555
C42D C38D 1_555 1_555
H39D C42D 1_555 1_555
C43D C40D 1_555 1_555
C44D C43D 1_555 1_555
H40D C44D 1_555 1_555
C45D C46D 1_555 1_555
C46D H41D 1_555 1_555
C47D C43D 1_555 1_555
H42D C47D 1_555 1_555
C48D C45D 1_555 1_555
H43D C48D 1_555 1_555
C49D H44D 1_555 1_555
C50D C49D 1_555 1_555
C51D C50D 1_555 1_555
H45D C51D 1_555 1_555
C52D C51D 1_555 1_555
H46D C52D 1_555 1_555
C53D C52D 1_555 1_555
H47D C53D 1_555 1_555
C54D C53D 1_555 1_555
H48D C54D 1_555 1_555
C55D C50D 1_555 1_555
H49D C55D 1_555 1_555
C56D C49D 1_555 1_555
H50D C56D 1_555 1_555
H51D C56D 1_555 1_555
H52D C56D 1_555 1_555
C57D C58D 1_555 1_555
C58D H53D 1_555 1_555
C59D C58D 1_555 1_555
H54D C59D 1_555 1_555
C60D C59D 1_555 1_555
H55D C60D 1_555 1_555
C61D C60D 1_555 1_555
H56D C61D 1_555 1_555
C62D C57D 1_555 1_555
H57D C62D 1_555 1_555
C63D C57D 1_555 1_555
H58D C63D 1_555 1_555
C64D C63D 1_555 1_555
H59D C64D 1_555 1_555
H60D C64D 1_555 1_555
H61D C64D 1_555 1_555
C65D H62D 1_555 1_555
C66D C65D 1_555 1_555
C67D H63D 1_555 1_555
C68D C68 1_555 1_555
C69D C68D 1_555 1_555
H64D C69D 1_555 1_555
C70D C66D 1_555 1_555
H65D C70D 1_555 1_555
C71D C71 1_555 1_555
C72D C71D 1_555 1_555
H66D C72D 1_555 1_555
C73D C74D 1_555 1_555
C74D H67D 1_555 1_555
C75D C71D 1_555 1_555
H68D C75D 1_555 1_555
C76D C73D 1_555 1_555
H69D C76D 1_555 1_555
C77D H70D 1_555 1_555
C78D C77D 1_555 1_555
C79D C78D 1_555 1_555
H71D C79D 1_555 1_555
C80D C79D 1_555 1_555
H72D C80D 1_555 1_555
C81D C80D 1_555 1_555
H73D C81D 1_555 1_555
C82D C81D 1_555 1_555
H74D C82D 1_555 1_555
C83D C78D 1_555 1_555
H75D C83D 1_555 1_555
C84D C77D 1_555 1_555
H76D C84D 1_555 1_555
H77D C84D 1_555 1_555
H78D C84D 1_555 1_555
N3D C7D 1_555 1_555
N4D C10D 1_555 1_555
N5D C16D 1_555 1_555
N6D C20D 1_555 1_555
N7D C35D 1_555 1_555
N8D C38D 1_555 1_555
N9D Fe2 1_555 1_555
N10D Fe2 1_555 1_555
N11D C63D 1_555 1_555
N12D C66D 1_555 1_555
N13D C72D 1_555 1_555
N14D C76D 1_555 1_555
Fe1D N3D 1_555 1_555
Fe2D N9 1_555 1_555
C5 C6 1_555 1_555
C9 N3 1_555 1_555
C11 N4 1_555 1_555
C13 C14 1_555 1_555
C17 N5 1_555 1_555
C18 C19 1_555 1_555
C21 N6 1_555 1_555
C27 C28 1_555 1_555
C33 C34 1_555 1_555
C37 N7 1_555 1_555
C39 N8 1_555 1_555
C41 C42 1_555 1_555
C45 N9 1_555 1_555
C46 C47 1_555 1_555
C49 N10 1_555 1_555
C54 C55 1_555 1_555
C61 C62 1_555 1_555
C65 N11 1_555 1_555
C67 N12 1_555 1_555
C69 C70 1_555 1_555
C73 N13 1_555 1_555
C74 C75 1_555 1_555
C77 N14 1_555 1_555
C82 C83 1_555 1_555
N4 Fe1 1_555 1_555
N6 Fe2 1_555 1_555
N7 Fe1 1_555 1_555
N8 Fe1 1_555 1_555
N10 Fe2D 1_555 1_555
N11 Fe1 1_555 1_555
N12 Fe1 1_555 1_555
N13 Fe2 1_555 1_555
N14 Fe2 1_555 1_555
C5D C6D 1_555 1_555
C9D N3D 1_555 1_555
C11D N4D 1_555 1_555
C13D C14D 1_555 1_555
C17D N5D 1_555 1_555
C18D C19D 1_555 1_555
C21D N6D 1_555 1_555
C27D C28D 1_555 1_555
C33D C34D 1_555 1_555
C37D N7D 1_555 1_555
C39D N8D 1_555 1_555
C41D C42D 1_555 1_555
C44D N9D 1_555 1_555
C45D N9D 1_555 1_555
C46D C47D 1_555 1_555
C48D N10D 1_555 1_555
C49D N10D 1_555 1_555
C54D C55D 1_555 1_555
C61D C62D 1_555 1_555
C65D N11D 1_555 1_555
C67D C68D 1_555 1_555
C67D N12D 1_555 1_555
C69D C70D 1_555 1_555
C73D N13D 1_555 1_555
C74D C75D 1_555 1_555
C77D N14D 1_555 1_555
C82D C83D 1_555 1_555
N4D Fe1D 1_555 1_555
N5D Fe2D 1_555 1_555
N6D Fe2D 1_555 1_555
N7D Fe1D 1_555 1_555
N8D Fe1D 1_555 1_555
N11D Fe1D 1_555 1_555
N12D Fe1D 1_555 1_555
N13D Fe2D 1_555 1_555
N14D Fe2D 1_555 1_555

#END
