# generated using pymatgen
data_Co4B9H144C204(N13F12)3
_symmetry_space_group_name_H-M   'P 1'
_cell_length_a   19.22100000
_cell_length_b   31.92900000
_cell_length_c   37.42100000
_cell_angle_alpha   90.00000000
_cell_angle_beta   90.00000000
_cell_angle_gamma   90.71000000
_symmetry_Int_Tables_number   1
_chemical_formula_structural   Co4B9H144C204(N13F12)3
_chemical_formula_sum   'Co16 B36 H576 C816 N156 F144'
_cell_volume   22963.77796548
_cell_formula_units_Z   4
loop_
 _symmetry_equiv_pos_site_id
 _symmetry_equiv_pos_as_xyz
  1  'x, y, z'
loop_
 _atom_site_type_symbol
 _atom_site_label
 _atom_site_symmetry_multiplicity
 _atom_site_fract_x
 _atom_site_fract_y
 _atom_site_fract_z
 _atom_site_occupancy
  Co  Co1  1  0.912480  0.631180  0.975780  1
  Co  Co2  1  0.587520  0.868820  0.475780  1
  Co  Co3  1  0.087520  0.368820  0.024220  1
  Co  Co4  1  0.412480  0.131180  0.524220  1
  Co  Co5  1  0.133800  0.935460  0.097080  1
  Co  Co6  1  0.366200  0.564540  0.597080  1
  Co  Co7  1  0.866200  0.064540  0.902920  1
  Co  Co8  1  0.633800  0.435460  0.402920  1
  Co  Co9  1  0.364470  0.820350  0.820020  1
  Co  Co10  1  0.135530  0.679650  0.320020  1
  Co  Co11  1  0.635530  0.179650  0.179980  1
  Co  Co12  1  0.864470  0.320350  0.679980  1
  Co  Co13  1  0.502480  0.653990  0.099980  1
  Co  Co14  1  0.997520  0.846010  0.599980  1
  Co  Co15  1  0.497520  0.346010  0.900020  1
  Co  Co16  1  0.002480  0.153990  0.400020  1
  B  B17  1  0.099800  0.863200  0.905400  1
  B  B18  1  0.400200  0.636800  0.405400  1
  B  B19  1  0.900200  0.136800  0.094600  1
  B  B20  1  0.599800  0.363200  0.594600  1
  B  B21  1  0.638200  0.867500  0.978200  1
  B  B22  1  0.861800  0.632500  0.478200  1
  B  B23  1  0.361800  0.132500  0.021800  1
  B  B24  1  0.138200  0.367500  0.521800  1
  B  B25  1  0.914200  0.487900  0.839400  1
  B  B26  1  0.585800  0.012100  0.339400  1
  B  B27  1  0.085800  0.512100  0.160600  1
  B  B28  1  0.414200  0.987900  0.660600  1
  B  B29  1  0.959500  0.291300  0.894500  1
  B  B30  1  0.540500  0.208700  0.394500  1
  B  B31  1  0.040500  0.708700  0.105500  1
  B  B32  1  0.459500  0.791300  0.605500  1
  B  B33  1  0.224800  0.791300  0.013000  1
  B  B34  1  0.275200  0.708700  0.513000  1
  B  B35  1  0.775200  0.208700  0.987000  1
  B  B36  1  0.724800  0.291300  0.487000  1
  B  B37  1  0.609100  0.582600  0.907800  1
  B  B38  1  0.890900  0.917400  0.407800  1
  B  B39  1  0.390900  0.417400  0.092200  1
  B  B40  1  0.109100  0.082600  0.592200  1
  B  B41  1  0.406800  0.528700  0.930800  1
  B  B42  1  0.093200  0.971300  0.430800  1
  B  B43  1  0.593200  0.471300  0.069200  1
  B  B44  1  0.906800  0.028700  0.569200  1
  B  B45  1  0.552600  0.884600  0.154200  1
  B  B46  1  0.947400  0.615400  0.654200  1
  B  B47  1  0.447400  0.115400  0.845800  1
  B  B48  1  0.052600  0.384600  0.345800  1
  B  B49  1  0.200500  0.051300  0.837000  1
  B  B50  1  0.299500  0.448700  0.337000  1
  B  B51  1  0.799500  0.948700  0.163000  1
  B  B52  1  0.700500  0.551300  0.663000  1
  H  H53  1  0.694800  0.558600  0.021300  1
  H  H54  1  0.805200  0.941400  0.521300  1
  H  H55  1  0.305200  0.441400  0.978700  1
  H  H56  1  0.194800  0.058600  0.478700  1
  H  H57  1  0.688500  0.504500  0.980000  1
  H  H58  1  0.811500  0.995500  0.480000  1
  H  H59  1  0.311500  0.495500  0.020000  1
  H  H60  1  0.188500  0.004500  0.520000  1
  H  H61  1  0.772600  0.499100  0.935800  1
  H  H62  1  0.727400  0.000900  0.435800  1
  H  H63  1  0.227400  0.500900  0.064200  1
  H  H64  1  0.272600  0.999100  0.564200  1
  H  H65  1  0.863000  0.547800  0.933000  1
  H  H66  1  0.637000  0.952200  0.433000  1
  H  H67  1  0.137000  0.452200  0.067000  1
  H  H68  1  0.363000  0.047800  0.567000  1
  H  H69  1  0.711700  0.619900  0.063600  1
  H  H70  1  0.788300  0.880100  0.563600  1
  H  H71  1  0.288300  0.380100  0.936400  1
  H  H72  1  0.211700  0.119900  0.436400  1
  H  H73  1  0.768000  0.685200  0.086200  1
  H  H74  1  0.732000  0.814800  0.586200  1
  H  H75  1  0.232000  0.314800  0.913800  1
  H  H76  1  0.268000  0.185200  0.413800  1
  H  H77  1  0.931300  0.706000  0.038100  1
  H  H78  1  0.568700  0.794000  0.538100  1
  H  H79  1  0.068700  0.294000  0.961900  1
  H  H80  1  0.431300  0.206000  0.461900  1
  H  H81  1  0.887900  0.724400  0.070800  1
  H  H82  1  0.612100  0.775600  0.570800  1
  H  H83  1  0.112100  0.275600  0.929200  1
  H  H84  1  0.387900  0.224400  0.429200  1
  H  H85  1  0.942600  0.787000  0.035500  1
  H  H86  1  0.557400  0.713000  0.535500  1
  H  H87  1  0.057400  0.213000  0.964500  1
  H  H88  1  0.442600  0.287000  0.464500  1
  H  H89  1  0.806700  0.841800  0.969300  1
  H  H90  1  0.693300  0.658200  0.469300  1
  H  H91  1  0.193300  0.158200  0.030700  1
  H  H92  1  0.306700  0.341800  0.530700  1
  H  H93  1  0.738000  0.781600  0.969800  1
  H  H94  1  0.762000  0.718400  0.469800  1
  H  H95  1  0.262000  0.218400  0.030200  1
  H  H96  1  0.238000  0.281600  0.530200  1
  H  H97  1  0.771500  0.724100  0.003200  1
  H  H98  1  0.728500  0.775900  0.503200  1
  H  H99  1  0.228500  0.275900  0.996800  1
  H  H100  1  0.271500  0.224100  0.496800  1
  H  H101  1  0.018000  0.829800  0.004500  1
  H  H102  1  0.482000  0.670200  0.504500  1
  H  H103  1  0.982000  0.170200  0.995500  1
  H  H104  1  0.518000  0.329800  0.495500  1
  H  H105  1  0.034600  0.955400  0.003400  1
  H  H106  1  0.465400  0.544600  0.503400  1
  H  H107  1  0.965400  0.044600  0.996600  1
  H  H108  1  0.534600  0.455400  0.496600  1
  H  H109  1  0.914400  0.960300  0.000700  1
  H  H110  1  0.585600  0.539700  0.500700  1
  H  H111  1  0.085600  0.039700  0.999300  1
  H  H112  1  0.414400  0.460300  0.499300  1
  H  H113  1  0.846000  0.899900  0.999900  1
  H  H114  1  0.654000  0.600100  0.499900  1
  H  H115  1  0.154000  0.100100  0.000100  1
  H  H116  1  0.346000  0.399900  0.500100  1
  H  H117  1  0.228900  0.008900  0.988300  1
  H  H118  1  0.271100  0.491100  0.488300  1
  H  H119  1  0.771100  0.991100  0.011700  1
  H  H120  1  0.728900  0.508900  0.511700  1
  H  H121  1  0.182400  0.944200  0.959500  1
  H  H122  1  0.317600  0.555800  0.459500  1
  H  H123  1  0.817600  0.055800  0.040500  1
  H  H124  1  0.682400  0.444200  0.540500  1
  H  H125  1  0.128100  0.869500  0.027900  1
  H  H126  1  0.371900  0.630500  0.527900  1
  H  H127  1  0.871900  0.130500  0.972100  1
  H  H128  1  0.628100  0.369500  0.472100  1
  H  H129  1  0.134300  0.872700  0.985300  1
  H  H130  1  0.365700  0.627300  0.485300  1
  H  H131  1  0.865700  0.127300  0.014700  1
  H  H132  1  0.634300  0.372700  0.514700  1
  H  H133  1  0.255500  0.059200  0.040000  1
  H  H134  1  0.244500  0.440800  0.540000  1
  H  H135  1  0.744500  0.940800  0.960000  1
  H  H136  1  0.755500  0.559200  0.460000  1
  H  H137  1  0.262200  0.102200  0.090000  1
  H  H138  1  0.237800  0.397800  0.590000  1
  H  H139  1  0.737800  0.897800  0.910000  1
  H  H140  1  0.762200  0.602200  0.410000  1
  H  H141  1  0.222500  0.077900  0.144800  1
  H  H142  1  0.277500  0.422100  0.644800  1
  H  H143  1  0.777500  0.922100  0.855200  1
  H  H144  1  0.722500  0.577900  0.355200  1
  H  H145  1  0.176200  0.010700  0.149800  1
  H  H146  1  0.323800  0.489300  0.649800  1
  H  H147  1  0.823800  0.989300  0.850200  1
  H  H148  1  0.676200  0.510700  0.350200  1
  H  H149  1  0.865400  0.761100  0.905400  1
  H  H150  1  0.634600  0.738900  0.405400  1
  H  H151  1  0.134600  0.238900  0.094600  1
  H  H152  1  0.365400  0.261100  0.594600  1
  H  H153  1  0.755000  0.743800  0.884600  1
  H  H154  1  0.745000  0.756200  0.384600  1
  H  H155  1  0.245000  0.256200  0.115400  1
  H  H156  1  0.255000  0.243800  0.615400  1
  H  H157  1  0.705900  0.679000  0.898000  1
  H  H158  1  0.794100  0.821000  0.398000  1
  H  H159  1  0.294100  0.321000  0.102000  1
  H  H160  1  0.205900  0.179000  0.602000  1
  H  H161  1  0.767100  0.631400  0.932200  1
  H  H162  1  0.732900  0.868600  0.432200  1
  H  H163  1  0.232900  0.368600  0.067800  1
  H  H164  1  0.267100  0.131400  0.567800  1
  H  H165  1  0.987200  0.771600  0.927000  1
  H  H166  1  0.512800  0.728400  0.427000  1
  H  H167  1  0.012800  0.228400  0.073000  1
  H  H168  1  0.487200  0.271600  0.573000  1
  H  H169  1  0.087300  0.759600  0.967700  1
  H  H170  1  0.412700  0.740400  0.467700  1
  H  H171  1  0.912700  0.240400  0.032300  1
  H  H172  1  0.587300  0.259600  0.532300  1
  H  H173  1  0.040800  0.676800  0.029800  1
  H  H174  1  0.459200  0.823200  0.529800  1
  H  H175  1  0.959200  0.323200  0.970200  1
  H  H176  1  0.540800  0.176800  0.470200  1
  H  H177  1  0.098400  0.712700  0.024300  1
  H  H178  1  0.401600  0.787300  0.524300  1
  H  H179  1  0.901600  0.287300  0.975700  1
  H  H180  1  0.598400  0.212700  0.475700  1
  H  H181  1  0.147600  0.646700  0.056300  1
  H  H182  1  0.352400  0.853300  0.556300  1
  H  H183  1  0.852400  0.353300  0.943700  1
  H  H184  1  0.647600  0.146700  0.443700  1
  H  H185  1  0.265100  0.576200  0.991600  1
  H  H186  1  0.234900  0.923800  0.491600  1
  H  H187  1  0.734900  0.423800  0.008400  1
  H  H188  1  0.765100  0.076200  0.508400  1
  H  H189  1  0.211200  0.605300  0.942200  1
  H  H190  1  0.288800  0.894700  0.442200  1
  H  H191  1  0.788800  0.394700  0.057800  1
  H  H192  1  0.711200  0.105300  0.557800  1
  H  H193  1  0.125500  0.655100  0.949800  1
  H  H194  1  0.374500  0.844900  0.449800  1
  H  H195  1  0.874500  0.344900  0.050200  1
  H  H196  1  0.625500  0.155100  0.550200  1
  H  H197  1  0.341200  0.580400  0.039400  1
  H  H198  1  0.158800  0.919600  0.539400  1
  H  H199  1  0.658800  0.419600  0.960600  1
  H  H200  1  0.841200  0.080400  0.460600  1
  H  H201  1  0.328000  0.538900  0.140500  1
  H  H202  1  0.172000  0.961100  0.640500  1
  H  H203  1  0.672000  0.461100  0.859500  1
  H  H204  1  0.828000  0.038900  0.359500  1
  H  H205  1  0.212900  0.559800  0.143100  1
  H  H206  1  0.287100  0.940200  0.643100  1
  H  H207  1  0.787100  0.440200  0.856900  1
  H  H208  1  0.712900  0.059800  0.356900  1
  H  H209  1  0.162000  0.591000  0.093700  1
  H  H210  1  0.338000  0.909000  0.593700  1
  H  H211  1  0.838000  0.409000  0.906300  1
  H  H212  1  0.662000  0.091000  0.406300  1
  H  H213  1  0.532800  0.569800  0.987000  1
  H  H214  1  0.967200  0.930200  0.487000  1
  H  H215  1  0.467200  0.430200  0.013000  1
  H  H216  1  0.032800  0.069800  0.513000  1
  H  H217  1  0.462600  0.518100  0.021700  1
  H  H218  1  0.037400  0.981900  0.521700  1
  H  H219  1  0.537400  0.481900  0.978300  1
  H  H220  1  0.962600  0.018100  0.478300  1
  H  H221  1  0.443200  0.554100  0.114500  1
  H  H222  1  0.056800  0.945900  0.614500  1
  H  H223  1  0.556800  0.445900  0.885500  1
  H  H224  1  0.943200  0.054100  0.385500  1
  H  H225  1  0.425600  0.513600  0.090600  1
  H  H226  1  0.074400  0.986400  0.590600  1
  H  H227  1  0.574400  0.486400  0.909400  1
  H  H228  1  0.925600  0.013600  0.409400  1
  H  H229  1  0.599600  0.636000  0.976300  1
  H  H230  1  0.900400  0.864000  0.476300  1
  H  H231  1  0.400400  0.364000  0.023700  1
  H  H232  1  0.099600  0.136000  0.523700  1
  H  H233  1  0.656200  0.700300  0.971000  1
  H  H234  1  0.843800  0.799700  0.471000  1
  H  H235  1  0.343800  0.299700  0.029000  1
  H  H236  1  0.156200  0.200300  0.529000  1
  H  H237  1  0.649200  0.749000  0.016800  1
  H  H238  1  0.850800  0.751000  0.516800  1
  H  H239  1  0.350800  0.251000  0.983200  1
  H  H240  1  0.149200  0.249000  0.483200  1
  H  H241  1  0.585700  0.733500  0.067900  1
  H  H242  1  0.914300  0.766500  0.567900  1
  H  H243  1  0.414300  0.266500  0.932100  1
  H  H244  1  0.085700  0.233500  0.432100  1
  H  H245  1  0.088700  0.522300  0.007200  1
  H  H246  1  0.411300  0.977700  0.507200  1
  H  H247  1  0.911300  0.477700  0.992800  1
  H  H248  1  0.588700  0.022300  0.492800  1
  H  H249  1  0.084300  0.527900  0.069000  1
  H  H250  1  0.415700  0.972100  0.569000  1
  H  H251  1  0.915700  0.472100  0.931000  1
  H  H252  1  0.584300  0.027900  0.431000  1
  H  H253  1  0.012400  0.576800  0.095500  1
  H  H254  1  0.487600  0.923200  0.595500  1
  H  H255  1  0.987600  0.423200  0.904500  1
  H  H256  1  0.512400  0.076800  0.404500  1
  H  H257  1  0.945100  0.620200  0.060200  1
  H  H258  1  0.554900  0.879800  0.560200  1
  H  H259  1  0.054900  0.379800  0.939800  1
  H  H260  1  0.445100  0.120200  0.439800  1
  H  H261  1  0.083500  0.519900  0.940400  1
  H  H262  1  0.416500  0.980100  0.440400  1
  H  H263  1  0.916500  0.480100  0.059600  1
  H  H264  1  0.583500  0.019900  0.559600  1
  H  H265  1  0.039300  0.537200  0.879800  1
  H  H266  1  0.460700  0.962800  0.379800  1
  H  H267  1  0.960700  0.462800  0.120200  1
  H  H268  1  0.539300  0.037200  0.620200  1
  H  H269  1  0.896000  0.610300  0.884800  1
  H  H270  1  0.604000  0.889700  0.384800  1
  H  H271  1  0.104000  0.389700  0.115200  1
  H  H272  1  0.396000  0.110300  0.615200  1
  H  H273  1  0.944100  0.589200  0.855200  1
  H  H274  1  0.555900  0.910800  0.355200  1
  H  H275  1  0.055900  0.410800  0.144800  1
  H  H276  1  0.444100  0.089200  0.644800  1
  H  H277  1  0.073800  0.636400  0.889700  1
  H  H278  1  0.426200  0.863600  0.389700  1
  H  H279  1  0.926200  0.363600  0.110300  1
  H  H280  1  0.573800  0.136400  0.610300  1
  H  H281  1  0.053000  0.752900  0.850900  1
  H  H282  1  0.447000  0.747100  0.350900  1
  H  H283  1  0.947000  0.247100  0.149100  1
  H  H284  1  0.553000  0.252900  0.649100  1
  H  H285  1  0.938400  0.737700  0.835700  1
  H  H286  1  0.561600  0.762300  0.335700  1
  H  H287  1  0.061600  0.262300  0.164300  1
  H  H288  1  0.438400  0.237700  0.664300  1
  H  H289  1  0.891600  0.671800  0.847500  1
  H  H290  1  0.608400  0.828200  0.347500  1
  H  H291  1  0.108400  0.328200  0.152500  1
  H  H292  1  0.391600  0.171800  0.652500  1
  H  H293  1  0.139400  0.767700  0.888800  1
  H  H294  1  0.360600  0.732300  0.388800  1
  H  H295  1  0.860600  0.232300  0.111200  1
  H  H296  1  0.639400  0.267700  0.611200  1
  H  H297  1  0.335900  0.729500  0.902800  1
  H  H298  1  0.164100  0.770500  0.402800  1
  H  H299  1  0.664100  0.270500  0.097200  1
  H  H300  1  0.835900  0.229500  0.597200  1
  H  H301  1  0.301900  0.661400  0.889000  1
  H  H302  1  0.198100  0.838600  0.389000  1
  H  H303  1  0.698100  0.338600  0.111000  1
  H  H304  1  0.801900  0.161400  0.611000  1
  H  H305  1  0.186600  0.646400  0.875100  1
  H  H306  1  0.313400  0.853600  0.375100  1
  H  H307  1  0.813400  0.353600  0.124900  1
  H  H308  1  0.686600  0.146400  0.624900  1
  H  H309  1  0.472000  0.838000  0.942000  1
  H  H310  1  0.028000  0.662000  0.442000  1
  H  H311  1  0.528000  0.162000  0.058000  1
  H  H312  1  0.972000  0.338000  0.558000  1
  H  H313  1  0.355200  0.811700  0.960700  1
  H  H314  1  0.144800  0.688300  0.460700  1
  H  H315  1  0.644800  0.188300  0.039300  1
  H  H316  1  0.855200  0.311700  0.539300  1
  H  H317  1  0.236500  0.818100  0.885800  1
  H  H318  1  0.263500  0.681900  0.385800  1
  H  H319  1  0.763500  0.181900  0.114200  1
  H  H320  1  0.736500  0.318100  0.614200  1
  H  H321  1  0.235700  0.808600  0.927700  1
  H  H322  1  0.264300  0.691400  0.427700  1
  H  H323  1  0.764300  0.191400  0.072300  1
  H  H324  1  0.735700  0.308600  0.572300  1
  H  H325  1  0.555700  0.873400  0.899800  1
  H  H326  1  0.944300  0.626600  0.399800  1
  H  H327  1  0.444300  0.126600  0.100200  1
  H  H328  1  0.055700  0.373400  0.600200  1
  H  H329  1  0.632000  0.897000  0.856000  1
  H  H330  1  0.868000  0.603000  0.356000  1
  H  H331  1  0.368000  0.103000  0.144000  1
  H  H332  1  0.132000  0.397000  0.644000  1
  H  H333  1  0.604400  0.887900  0.796100  1
  H  H334  1  0.895600  0.612100  0.296100  1
  H  H335  1  0.395600  0.112100  0.203900  1
  H  H336  1  0.104400  0.387900  0.703900  1
  H  H337  1  0.500600  0.855200  0.780000  1
  H  H338  1  0.999400  0.644800  0.280000  1
  H  H339  1  0.499400  0.144800  0.220000  1
  H  H340  1  0.000600  0.355200  0.720000  1
  H  H341  1  0.221400  0.909000  0.223100  1
  H  H342  1  0.278600  0.591000  0.723100  1
  H  H343  1  0.778600  0.091000  0.776900  1
  H  H344  1  0.721400  0.409000  0.276900  1
  H  H345  1  0.128200  0.936500  0.254300  1
  H  H346  1  0.371800  0.563500  0.754300  1
  H  H347  1  0.871800  0.063500  0.745700  1
  H  H348  1  0.628200  0.436500  0.245700  1
  H  H349  1  0.033200  0.962400  0.223500  1
  H  H350  1  0.466800  0.537600  0.723500  1
  H  H351  1  0.966800  0.037600  0.776500  1
  H  H352  1  0.533200  0.462400  0.276500  1
  H  H353  1  0.031500  0.960800  0.161500  1
  H  H354  1  0.468500  0.539200  0.661500  1
  H  H355  1  0.968500  0.039200  0.838500  1
  H  H356  1  0.531500  0.460800  0.338500  1
  H  H357  1  0.302800  0.890000  0.184700  1
  H  H358  1  0.197200  0.610000  0.684700  1
  H  H359  1  0.697200  0.110000  0.815300  1
  H  H360  1  0.802800  0.390000  0.315300  1
  H  H361  1  0.368100  0.870300  0.130000  1
  H  H362  1  0.131900  0.629700  0.630000  1
  H  H363  1  0.631900  0.129700  0.870000  1
  H  H364  1  0.868100  0.370300  0.370000  1
  H  H365  1  0.255400  0.871500  0.048300  1
  H  H366  1  0.244600  0.628500  0.548300  1
  H  H367  1  0.744600  0.128500  0.951700  1
  H  H368  1  0.755400  0.371500  0.451700  1
  H  H369  1  0.330600  0.855200  0.060000  1
  H  H370  1  0.169400  0.644800  0.560000  1
  H  H371  1  0.669400  0.144800  0.940000  1
  H  H372  1  0.830600  0.355200  0.440000  1
  H  H373  1  0.331400  0.891700  0.994900  1
  H  H374  1  0.168600  0.608300  0.494900  1
  H  H375  1  0.668600  0.108300  0.005100  1
  H  H376  1  0.831400  0.391700  0.505100  1
  H  H377  1  0.420600  0.006200  0.996000  1
  H  H378  1  0.079400  0.493800  0.496000  1
  H  H379  1  0.579400  0.993800  0.004000  1
  H  H380  1  0.920600  0.506200  0.504000  1
  H  H381  1  0.400200  0.011000  0.057000  1
  H  H382  1  0.099800  0.489000  0.557000  1
  H  H383  1  0.599800  0.989000  0.943000  1
  H  H384  1  0.900200  0.511000  0.443000  1
  H  H385  1  0.345400  0.956200  0.086900  1
  H  H386  1  0.154600  0.543800  0.586900  1
  H  H387  1  0.654600  0.043800  0.913100  1
  H  H388  1  0.845400  0.456200  0.413100  1
  H  H389  1  0.295600  0.919800  0.936400  1
  H  H390  1  0.204400  0.580200  0.436400  1
  H  H391  1  0.704400  0.080200  0.063600  1
  H  H392  1  0.795600  0.419800  0.563600  1
  H  H393  1  0.415600  0.945500  0.851100  1
  H  H394  1  0.084400  0.554500  0.351100  1
  H  H395  1  0.584400  0.054500  0.148900  1
  H  H396  1  0.915600  0.445500  0.648900  1
  H  H397  1  0.501100  0.972900  0.888500  1
  H  H398  1  0.998900  0.527100  0.388500  1
  H  H399  1  0.498900  0.027100  0.111500  1
  H  H400  1  0.001100  0.472900  0.611500  1
  H  H401  1  0.483800  0.973700  0.949800  1
  H  H402  1  0.016200  0.526300  0.449800  1
  H  H403  1  0.516200  0.026300  0.050200  1
  H  H404  1  0.983800  0.473700  0.550200  1
  H  H405  1  0.309700  0.953300  0.751900  1
  H  H406  1  0.190300  0.546700  0.251900  1
  H  H407  1  0.690300  0.046700  0.248100  1
  H  H408  1  0.809700  0.453300  0.748100  1
  H  H409  1  0.270000  0.975500  0.812100  1
  H  H410  1  0.230000  0.524500  0.312100  1
  H  H411  1  0.730000  0.024500  0.187900  1
  H  H412  1  0.770000  0.475500  0.687900  1
  H  H413  1  0.276400  0.884800  0.873100  1
  H  H414  1  0.223600  0.615200  0.373100  1
  H  H415  1  0.723600  0.115200  0.126900  1
  H  H416  1  0.776400  0.384800  0.626900  1
  H  H417  1  0.245100  0.930800  0.872300  1
  H  H418  1  0.254900  0.569200  0.372300  1
  H  H419  1  0.754900  0.069200  0.127700  1
  H  H420  1  0.745100  0.430800  0.627700  1
  H  H421  1  0.345700  0.902800  0.704900  1
  H  H422  1  0.154300  0.597200  0.204900  1
  H  H423  1  0.654300  0.097200  0.295100  1
  H  H424  1  0.845700  0.402800  0.795100  1
  H  H425  1  0.378500  0.851200  0.664900  1
  H  H426  1  0.121500  0.648800  0.164900  1
  H  H427  1  0.621500  0.148800  0.335100  1
  H  H428  1  0.878500  0.351200  0.835100  1
  H  H429  1  0.406700  0.785000  0.685600  1
  H  H430  1  0.093300  0.715000  0.185600  1
  H  H431  1  0.593300  0.215000  0.314400  1
  H  H432  1  0.906700  0.285000  0.814400  1
  H  H433  1  0.402200  0.770600  0.746400  1
  H  H434  1  0.097800  0.729400  0.246400  1
  H  H435  1  0.597800  0.229400  0.253600  1
  H  H436  1  0.902200  0.270600  0.753600  1
  H  H437  1  0.869800  0.936800  0.093700  1
  H  H438  1  0.630200  0.563200  0.593700  1
  H  H439  1  0.130200  0.063200  0.906300  1
  H  H440  1  0.369800  0.436800  0.406300  1
  H  H441  1  0.853000  0.007900  0.084700  1
  H  H442  1  0.647000  0.492100  0.584700  1
  H  H443  1  0.147000  0.992100  0.915300  1
  H  H444  1  0.353000  0.507900  0.415300  1
  H  H445  1  0.948100  0.052800  0.078700  1
  H  H446  1  0.551900  0.447200  0.578700  1
  H  H447  1  0.051900  0.947200  0.921300  1
  H  H448  1  0.448100  0.552800  0.421300  1
  H  H449  1  0.060000  0.026700  0.081800  1
  H  H450  1  0.440000  0.473300  0.581800  1
  H  H451  1  0.940000  0.973300  0.918200  1
  H  H452  1  0.560000  0.526700  0.418200  1
  H  H453  1  0.902900  0.859700  0.101400  1
  H  H454  1  0.597100  0.640300  0.601400  1
  H  H455  1  0.097100  0.140300  0.898600  1
  H  H456  1  0.402900  0.359700  0.398600  1
  H  H457  1  0.981900  0.798700  0.103000  1
  H  H458  1  0.518100  0.701300  0.603000  1
  H  H459  1  0.018100  0.201300  0.897000  1
  H  H460  1  0.481900  0.298700  0.397000  1
  H  H461  1  0.161500  0.831800  0.085600  1
  H  H462  1  0.338500  0.668200  0.585600  1
  H  H463  1  0.838500  0.168200  0.914400  1
  H  H464  1  0.661500  0.331800  0.414400  1
  H  H465  1  0.115000  0.790000  0.088000  1
  H  H466  1  0.385000  0.710000  0.588000  1
  H  H467  1  0.885000  0.210000  0.912000  1
  H  H468  1  0.615000  0.290000  0.412000  1
  H  H469  1  0.238500  0.781500  0.120400  1
  H  H470  1  0.261500  0.718500  0.620400  1
  H  H471  1  0.761500  0.218500  0.879600  1
  H  H472  1  0.738500  0.281500  0.379600  1
  H  H473  1  0.223600  0.790200  0.227200  1
  H  H474  1  0.276400  0.709800  0.727200  1
  H  H475  1  0.776400  0.209800  0.772800  1
  H  H476  1  0.723600  0.290200  0.272800  1
  H  H477  1  0.117700  0.823600  0.221300  1
  H  H478  1  0.382300  0.676400  0.721300  1
  H  H479  1  0.882300  0.176400  0.778700  1
  H  H480  1  0.617700  0.323600  0.278700  1
  H  H481  1  0.072200  0.835900  0.164900  1
  H  H482  1  0.427800  0.664100  0.664900  1
  H  H483  1  0.927800  0.164100  0.835100  1
  H  H484  1  0.572200  0.335900  0.335100  1
  H  H485  1  0.352500  0.787800  0.134700  1
  H  H486  1  0.147500  0.712200  0.634700  1
  H  H487  1  0.647500  0.212200  0.865300  1
  H  H488  1  0.852500  0.287800  0.365300  1
  H  H489  1  0.486100  0.718100  0.191200  1
  H  H490  1  0.013900  0.781900  0.691200  1
  H  H491  1  0.513900  0.281900  0.808800  1
  H  H492  1  0.986100  0.218100  0.308800  1
  H  H493  1  0.398800  0.702800  0.232100  1
  H  H494  1  0.101200  0.797200  0.732100  1
  H  H495  1  0.601200  0.297200  0.767900  1
  H  H496  1  0.898800  0.202800  0.267900  1
  H  H497  1  0.288500  0.730000  0.224400  1
  H  H498  1  0.211500  0.770000  0.724400  1
  H  H499  1  0.711500  0.270000  0.775600  1
  H  H500  1  0.788500  0.230000  0.275600  1
  H  H501  1  0.695500  0.728600  0.169600  1
  H  H502  1  0.804500  0.771400  0.669600  1
  H  H503  1  0.304500  0.271400  0.830400  1
  H  H504  1  0.195500  0.228600  0.330400  1
  H  H505  1  0.613600  0.787900  0.163400  1
  H  H506  1  0.886400  0.712100  0.663400  1
  H  H507  1  0.386400  0.212100  0.836600  1
  H  H508  1  0.113600  0.287900  0.336600  1
  H  H509  1  0.466600  0.757500  0.107300  1
  H  H510  1  0.033400  0.742500  0.607300  1
  H  H511  1  0.533400  0.242500  0.892700  1
  H  H512  1  0.966600  0.257500  0.392700  1
  H  H513  1  0.491300  0.796300  0.131400  1
  H  H514  1  0.008700  0.703700  0.631400  1
  H  H515  1  0.508700  0.203700  0.868600  1
  H  H516  1  0.991300  0.296300  0.368600  1
  H  H517  1  0.727100  0.652100  0.168500  1
  H  H518  1  0.772900  0.847900  0.668500  1
  H  H519  1  0.272900  0.347900  0.831500  1
  H  H520  1  0.227100  0.152100  0.331500  1
  H  H521  1  0.754700  0.582200  0.160500  1
  H  H522  1  0.745300  0.917800  0.660500  1
  H  H523  1  0.245300  0.417800  0.839500  1
  H  H524  1  0.254700  0.082200  0.339500  1
  H  H525  1  0.682200  0.539000  0.126800  1
  H  H526  1  0.817800  0.961000  0.626800  1
  H  H527  1  0.317800  0.461000  0.873200  1
  H  H528  1  0.182200  0.039000  0.373200  1
  H  H529  1  0.582100  0.565600  0.101200  1
  H  H530  1  0.917900  0.934400  0.601200  1
  H  H531  1  0.417900  0.434400  0.898800  1
  H  H532  1  0.082100  0.065600  0.398800  1
  H  H533  1  0.207000  0.698700  0.793000  1
  H  H534  1  0.293000  0.801300  0.293000  1
  H  H535  1  0.793000  0.301300  0.207000  1
  H  H536  1  0.707000  0.198700  0.707000  1
  H  H537  1  0.103000  0.734500  0.789700  1
  H  H538  1  0.397000  0.765500  0.289700  1
  H  H539  1  0.897000  0.265500  0.210300  1
  H  H540  1  0.603000  0.234500  0.710300  1
  H  H541  1  0.100900  0.805900  0.801300  1
  H  H542  1  0.399100  0.694100  0.301300  1
  H  H543  1  0.899100  0.194100  0.198700  1
  H  H544  1  0.600900  0.305900  0.698700  1
  H  H545  1  0.203000  0.841400  0.816000  1
  H  H546  1  0.297000  0.658600  0.316000  1
  H  H547  1  0.797000  0.158600  0.184000  1
  H  H548  1  0.703000  0.341400  0.684000  1
  H  H549  1  0.324100  0.667100  0.795500  1
  H  H550  1  0.175900  0.832900  0.295500  1
  H  H551  1  0.675900  0.332900  0.204500  1
  H  H552  1  0.824100  0.167100  0.704500  1
  H  H553  1  0.453100  0.666500  0.800000  1
  H  H554  1  0.046900  0.833500  0.300000  1
  H  H555  1  0.546900  0.333500  0.200000  1
  H  H556  1  0.953100  0.166500  0.700000  1
  H  H557  1  0.524200  0.771700  0.806200  1
  H  H558  1  0.975800  0.728300  0.306200  1
  H  H559  1  0.475800  0.228300  0.193800  1
  H  H560  1  0.024200  0.271700  0.693800  1
  H  H561  1  0.549500  0.724100  0.805900  1
  H  H562  1  0.950500  0.775900  0.305900  1
  H  H563  1  0.450500  0.275900  0.194100  1
  H  H564  1  0.049500  0.224100  0.694100  1
  H  H565  1  0.456900  0.710000  0.876100  1
  H  H566  1  0.043100  0.790000  0.376100  1
  H  H567  1  0.543100  0.290000  0.123900  1
  H  H568  1  0.956900  0.210000  0.623900  1
  H  H569  1  0.580400  0.758400  0.952700  1
  H  H570  1  0.919600  0.741600  0.452700  1
  H  H571  1  0.419600  0.241600  0.047300  1
  H  H572  1  0.080400  0.258400  0.547300  1
  H  H573  1  0.646400  0.792500  0.909400  1
  H  H574  1  0.853600  0.707500  0.409400  1
  H  H575  1  0.353600  0.207500  0.090600  1
  H  H576  1  0.146400  0.292500  0.590600  1
  H  H577  1  0.617700  0.785300  0.849500  1
  H  H578  1  0.882300  0.714700  0.349500  1
  H  H579  1  0.382300  0.214700  0.150500  1
  H  H580  1  0.117700  0.285300  0.650500  1
  H  H581  1  0.475000  0.753100  0.984400  1
  H  H582  1  0.025000  0.746900  0.484400  1
  H  H583  1  0.525000  0.246900  0.015600  1
  H  H584  1  0.975000  0.253100  0.515600  1
  H  H585  1  0.357600  0.654400  0.014700  1
  H  H586  1  0.142400  0.845600  0.514700  1
  H  H587  1  0.642400  0.345600  0.985300  1
  H  H588  1  0.857600  0.154400  0.485300  1
  H  H589  1  0.377300  0.622600  0.959900  1
  H  H590  1  0.122700  0.877400  0.459900  1
  H  H591  1  0.622700  0.377400  0.040100  1
  H  H592  1  0.877300  0.122600  0.540100  1
  H  H593  1  0.445900  0.656200  0.917300  1
  H  H594  1  0.054100  0.843800  0.417300  1
  H  H595  1  0.554100  0.343800  0.082700  1
  H  H596  1  0.945900  0.156200  0.582700  1
  H  H597  1  0.246700  0.676600  0.117200  1
  H  H598  1  0.253300  0.823400  0.617200  1
  H  H599  1  0.753300  0.323400  0.882800  1
  H  H600  1  0.746700  0.176600  0.382800  1
  H  H601  1  0.264200  0.720500  0.062900  1
  H  H602  1  0.235800  0.779500  0.562900  1
  H  H603  1  0.735800  0.279500  0.937100  1
  H  H604  1  0.764200  0.220500  0.437100  1
  H  H605  1  0.447300  0.738000  0.049100  1
  H  H606  1  0.052700  0.762000  0.549100  1
  H  H607  1  0.552700  0.262000  0.950900  1
  H  H608  1  0.947300  0.238000  0.450900  1
  H  H609  1  0.373700  0.753300  0.035000  1
  H  H610  1  0.126300  0.746700  0.535000  1
  H  H611  1  0.626300  0.246700  0.965000  1
  H  H612  1  0.873700  0.253300  0.465000  1
  H  H613  1  0.283600  0.642200  0.172300  1
  H  H614  1  0.216400  0.857800  0.672300  1
  H  H615  1  0.716400  0.357800  0.827700  1
  H  H616  1  0.783600  0.142200  0.327700  1
  H  H617  1  0.326400  0.604600  0.220500  1
  H  H618  1  0.173600  0.895400  0.720500  1
  H  H619  1  0.673600  0.395400  0.779500  1
  H  H620  1  0.826400  0.104600  0.279500  1
  H  H621  1  0.442300  0.585100  0.221600  1
  H  H622  1  0.057700  0.914900  0.721600  1
  H  H623  1  0.557700  0.414900  0.778400  1
  H  H624  1  0.942300  0.085100  0.278400  1
  H  H625  1  0.515400  0.603200  0.174600  1
  H  H626  1  0.984600  0.896800  0.674600  1
  H  H627  1  0.484600  0.396800  0.825400  1
  H  H628  1  0.015400  0.103200  0.325400  1
  C  C629  1  0.782600  0.585100  0.001600  1
  C  C630  1  0.717400  0.914900  0.501600  1
  C  C631  1  0.217400  0.414900  0.998400  1
  C  C632  1  0.282600  0.085100  0.498400  1
  C  C633  1  0.729200  0.556400  0.003200  1
  C  C634  1  0.770800  0.943600  0.503200  1
  C  C635  1  0.270800  0.443600  0.996800  1
  C  C636  1  0.229200  0.056400  0.496800  1
  C  C637  1  0.725500  0.524400  0.978800  1
  C  C638  1  0.774500  0.975600  0.478800  1
  C  C639  1  0.274500  0.475600  0.021200  1
  C  C640  1  0.225500  0.024400  0.521200  1
  C  C641  1  0.775200  0.521300  0.952700  1
  C  C642  1  0.724800  0.978700  0.452700  1
  C  C643  1  0.224800  0.478700  0.047300  1
  C  C644  1  0.275200  0.021300  0.547300  1
  C  C645  1  0.828600  0.550000  0.951100  1
  C  C646  1  0.671400  0.950000  0.451100  1
  C  C647  1  0.171400  0.450000  0.048900  1
  C  C648  1  0.328600  0.050000  0.548900  1
  C  C649  1  0.788500  0.620100  0.024600  1
  C  C650  1  0.711500  0.879900  0.524600  1
  C  C651  1  0.211500  0.379900  0.975400  1
  C  C652  1  0.288500  0.120100  0.475400  1
  C  C653  1  0.751700  0.633300  0.053700  1
  C  C654  1  0.748300  0.866700  0.553700  1
  C  C655  1  0.248300  0.366700  0.946300  1
  C  C656  1  0.251700  0.133300  0.446300  1
  C  C657  1  0.782700  0.669300  0.066200  1
  C  C658  1  0.717300  0.830700  0.566200  1
  C  C659  1  0.217300  0.330700  0.933800  1
  C  C660  1  0.282700  0.169300  0.433800  1
  C  C661  1  0.884300  0.714400  0.045800  1
  C  C662  1  0.615700  0.785600  0.545800  1
  C  C663  1  0.115700  0.285600  0.954200  1
  C  C664  1  0.384300  0.214400  0.454200  1
  C  C665  1  0.860100  0.750300  0.022400  1
  C  C666  1  0.639900  0.749700  0.522400  1
  C  C667  1  0.139900  0.249700  0.977600  1
  C  C668  1  0.360100  0.250300  0.477600  1
  C  C669  1  0.900700  0.785900  0.022100  1
  C  C670  1  0.599300  0.714100  0.522100  1
  C  C671  1  0.099300  0.214100  0.977900  1
  C  C672  1  0.400700  0.285900  0.477900  1
  C  C673  1  0.880900  0.819900  0.002400  1
  C  C674  1  0.619100  0.680100  0.502400  1
  C  C675  1  0.119100  0.180100  0.997600  1
  C  C676  1  0.380900  0.319900  0.497600  1
  C  C677  1  0.820500  0.818300  0.983000  1
  C  C678  1  0.679500  0.681700  0.483000  1
  C  C679  1  0.179500  0.181700  0.017000  1
  C  C680  1  0.320500  0.318300  0.517000  1
  C  C681  1  0.779900  0.782700  0.983300  1
  C  C682  1  0.720100  0.717300  0.483300  1
  C  C683  1  0.220100  0.217300  0.016700  1
  C  C684  1  0.279900  0.282700  0.516700  1
  C  C685  1  0.799700  0.748700  0.003000  1
  C  C686  1  0.700300  0.751300  0.503000  1
  C  C687  1  0.200300  0.251300  0.997000  1
  C  C688  1  0.299700  0.248700  0.497000  1
  C  C689  1  0.925800  0.859400  0.002100  1
  C  C690  1  0.574200  0.640600  0.502100  1
  C  C691  1  0.074200  0.140600  0.997900  1
  C  C692  1  0.425800  0.359400  0.497900  1
  C  C693  1  0.996800  0.856600  0.003700  1
  C  C694  1  0.503200  0.643400  0.503700  1
  C  C695  1  0.003200  0.143400  0.996300  1
  C  C696  1  0.496800  0.356600  0.496300  1
  C  C697  1  0.037200  0.892200  0.004200  1
  C  C698  1  0.462800  0.607800  0.504200  1
  C  C699  1  0.962800  0.107800  0.995800  1
  C  C700  1  0.537200  0.392200  0.495800  1
  C  C701  1  0.006600  0.930700  0.003100  1
  C  C702  1  0.493400  0.569300  0.503100  1
  C  C703  1  0.993400  0.069300  0.996900  1
  C  C704  1  0.506600  0.430700  0.496900  1
  C  C705  1  0.935600  0.933600  0.001500  1
  C  C706  1  0.564400  0.566400  0.501500  1
  C  C707  1  0.064400  0.066400  0.998500  1
  C  C708  1  0.435600  0.433600  0.498500  1
  C  C709  1  0.895200  0.897900  0.001000  1
  C  C710  1  0.604800  0.602100  0.501000  1
  C  C711  1  0.104800  0.102100  0.999000  1
  C  C712  1  0.395200  0.397900  0.499000  1
  C  C713  1  0.194000  0.983200  0.036100  1
  C  C714  1  0.306000  0.516800  0.536100  1
  C  C715  1  0.806000  0.016800  0.963900  1
  C  C716  1  0.694000  0.483200  0.463900  1
  C  C717  1  0.206500  0.986100  0.000200  1
  C  C718  1  0.293500  0.513900  0.500200  1
  C  C719  1  0.793500  0.013900  0.999800  1
  C  C720  1  0.706500  0.486100  0.499800  1
  C  C721  1  0.180900  0.950500  0.984300  1
  C  C722  1  0.319100  0.549500  0.484300  1
  C  C723  1  0.819100  0.049500  0.015700  1
  C  C724  1  0.680900  0.450500  0.515700  1
  C  C725  1  0.117300  0.887200  0.007000  1
  C  C726  1  0.382700  0.612800  0.507000  1
  C  C727  1  0.882700  0.112800  0.993000  1
  C  C728  1  0.617300  0.387200  0.493000  1
  C  C729  1  0.211900  0.009600  0.065400  1
  C  C730  1  0.288100  0.490400  0.565400  1
  C  C731  1  0.788100  0.990400  0.934600  1
  C  C732  1  0.711900  0.509600  0.434600  1
  C  C733  1  0.239300  0.049300  0.062500  1
  C  C734  1  0.260700  0.450700  0.562500  1
  C  C735  1  0.760700  0.950700  0.937500  1
  C  C736  1  0.739300  0.549300  0.437500  1
  C  C737  1  0.243200  0.074700  0.092000  1
  C  C738  1  0.256800  0.425300  0.592000  1
  C  C739  1  0.756800  0.925300  0.908000  1
  C  C740  1  0.743200  0.574700  0.408000  1
  C  C741  1  0.219800  0.060300  0.124400  1
  C  C742  1  0.280200  0.439700  0.624400  1
  C  C743  1  0.780200  0.939700  0.875600  1
  C  C744  1  0.719800  0.560300  0.375600  1
  C  C745  1  0.192400  0.020700  0.127300  1
  C  C746  1  0.307600  0.479300  0.627300  1
  C  C747  1  0.807600  0.979300  0.872700  1
  C  C748  1  0.692400  0.520700  0.372700  1
  C  C749  1  0.881500  0.706400  0.931100  1
  C  C750  1  0.618500  0.793600  0.431100  1
  C  C751  1  0.118500  0.293600  0.068900  1
  C  C752  1  0.381500  0.206400  0.568900  1
  C  C753  1  0.845300  0.734500  0.910900  1
  C  C754  1  0.654700  0.765500  0.410900  1
  C  C755  1  0.154700  0.265500  0.089100  1
  C  C756  1  0.345300  0.234500  0.589100  1
  C  C757  1  0.780100  0.724300  0.898600  1
  C  C758  1  0.719900  0.775700  0.398600  1
  C  C759  1  0.219900  0.275700  0.101400  1
  C  C760  1  0.280100  0.224300  0.601400  1
  C  C761  1  0.751100  0.686000  0.906500  1
  C  C762  1  0.748900  0.814000  0.406500  1
  C  C763  1  0.248900  0.314000  0.093500  1
  C  C764  1  0.251100  0.186000  0.593500  1
  C  C765  1  0.787300  0.657900  0.926700  1
  C  C766  1  0.712700  0.842100  0.426700  1
  C  C767  1  0.212700  0.342100  0.073300  1
  C  C768  1  0.287300  0.157900  0.573300  1
  C  C769  1  0.947400  0.715100  0.946000  1
  C  C770  1  0.552600  0.784900  0.446000  1
  C  C771  1  0.052600  0.284900  0.054000  1
  C  C772  1  0.447400  0.215100  0.554000  1
  C  C773  1  0.992900  0.748200  0.942400  1
  C  C774  1  0.507100  0.751800  0.442400  1
  C  C775  1  0.007100  0.251800  0.057600  1
  C  C776  1  0.492900  0.248200  0.557600  1
  C  C777  1  0.048100  0.741600  0.964800  1
  C  C778  1  0.451900  0.758400  0.464800  1
  C  C779  1  0.951900  0.258400  0.035200  1
  C  C780  1  0.548100  0.241600  0.535200  1
  C  C781  1  0.074500  0.688800  0.012500  1
  C  C782  1  0.425500  0.811200  0.512500  1
  C  C783  1  0.925500  0.311200  0.987500  1
  C  C784  1  0.574500  0.188800  0.487500  1
  C  C785  1  0.128800  0.655400  0.003800  1
  C  C786  1  0.371200  0.844600  0.503800  1
  C  C787  1  0.871200  0.344600  0.996200  1
  C  C788  1  0.628800  0.155400  0.496200  1
  C  C789  1  0.160700  0.638200  0.032950  1
  C  C790  1  0.339300  0.861800  0.532950  1
  C  C791  1  0.839300  0.361800  0.967050  1
  C  C792  1  0.660700  0.138200  0.467050  1
  C  C793  1  0.211300  0.608800  0.028400  1
  C  C794  1  0.288700  0.891200  0.528400  1
  C  C795  1  0.788700  0.391200  0.971600  1
  C  C796  1  0.711300  0.108800  0.471600  1
  C  C797  1  0.230000  0.596600  0.994700  1
  C  C798  1  0.270000  0.903400  0.494700  1
  C  C799  1  0.770000  0.403400  0.005300  1
  C  C800  1  0.730000  0.096600  0.505300  1
  C  C801  1  0.198200  0.613800  0.965500  1
  C  C802  1  0.301800  0.886200  0.465500  1
  C  C803  1  0.801800  0.386200  0.034500  1
  C  C804  1  0.698200  0.113800  0.534500  1
  C  C805  1  0.147600  0.643200  0.970000  1
  C  C806  1  0.352400  0.856800  0.470000  1
  C  C807  1  0.852400  0.356800  0.030000  1
  C  C808  1  0.647600  0.143200  0.530000  1
  C  C809  1  0.246900  0.588500  0.062100  1
  C  C810  1  0.253100  0.911500  0.562100  1
  C  C811  1  0.753100  0.411500  0.937900  1
  C  C812  1  0.746900  0.088500  0.437900  1
  C  C813  1  0.314900  0.576200  0.060600  1
  C  C814  1  0.185100  0.923800  0.560600  1
  C  C815  1  0.685100  0.423800  0.939400  1
  C  C816  1  0.814900  0.076200  0.439400  1
  C  C817  1  0.345000  0.557800  0.089700  1
  C  C818  1  0.155000  0.942200  0.589700  1
  C  C819  1  0.655000  0.442200  0.910300  1
  C  C820  1  0.845000  0.057800  0.410300  1
  C  C821  1  0.307100  0.551700  0.120300  1
  C  C822  1  0.192900  0.948300  0.620300  1
  C  C823  1  0.692900  0.448300  0.879700  1
  C  C824  1  0.807100  0.051700  0.379700  1
  C  C825  1  0.239200  0.564000  0.121800  1
  C  C826  1  0.260800  0.936000  0.621800  1
  C  C827  1  0.760800  0.436000  0.878200  1
  C  C828  1  0.739200  0.064000  0.378200  1
  C  C829  1  0.209100  0.582400  0.092700  1
  C  C830  1  0.290900  0.917600  0.592700  1
  C  C831  1  0.790900  0.417600  0.907300  1
  C  C832  1  0.709100  0.082400  0.407300  1
  C  C833  1  0.523400  0.609000  0.031000  1
  C  C834  1  0.976600  0.891000  0.531000  1
  C  C835  1  0.476600  0.391000  0.969000  1
  C  C836  1  0.023400  0.109000  0.469000  1
  C  C837  1  0.515000  0.573800  0.010400  1
  C  C838  1  0.985000  0.926200  0.510400  1
  C  C839  1  0.485000  0.426200  0.989600  1
  C  C840  1  0.015000  0.073800  0.489600  1
  C  C841  1  0.476300  0.545300  0.029600  1
  C  C842  1  0.023700  0.954700  0.529600  1
  C  C843  1  0.523700  0.454700  0.970400  1
  C  C844  1  0.976300  0.045300  0.470400  1
  C  C845  1  0.422600  0.544600  0.091600  1
  C  C846  1  0.077400  0.955400  0.591600  1
  C  C847  1  0.577400  0.455400  0.908400  1
  C  C848  1  0.922600  0.044600  0.408400  1
  C  C849  1  0.559200  0.646800  0.025200  1
  C  C850  1  0.940800  0.853200  0.525200  1
  C  C851  1  0.440800  0.353200  0.974800  1
  C  C852  1  0.059200  0.146800  0.474800  1
  C  C853  1  0.596800  0.655900  0.995000  1
  C  C854  1  0.903200  0.844100  0.495000  1
  C  C855  1  0.403200  0.344100  0.005000  1
  C  C856  1  0.096800  0.155900  0.505000  1
  C  C857  1  0.630200  0.693900  0.991900  1
  C  C858  1  0.869800  0.806100  0.491900  1
  C  C859  1  0.369800  0.306100  0.008100  1
  C  C860  1  0.130200  0.193900  0.508100  1
  C  C861  1  0.626100  0.722700  0.018900  1
  C  C862  1  0.873900  0.777300  0.518900  1
  C  C863  1  0.373900  0.277300  0.981100  1
  C  C864  1  0.126100  0.222700  0.481100  1
  C  C865  1  0.588500  0.713500  0.049100  1
  C  C866  1  0.911500  0.786500  0.549100  1
  C  C867  1  0.411500  0.286500  0.950900  1
  C  C868  1  0.088500  0.213500  0.450900  1
  C  C869  1  0.019500  0.568000  0.997220  1
  C  C870  1  0.480500  0.932000  0.497220  1
  C  C871  1  0.980500  0.432000  0.002780  1
  C  C872  1  0.519500  0.068000  0.502780  1
  C  C873  1  0.059300  0.542300  0.018100  1
  C  C874  1  0.440700  0.957700  0.518100  1
  C  C875  1  0.940700  0.457700  0.981900  1
  C  C876  1  0.559300  0.042300  0.481900  1
  C  C877  1  0.056700  0.545600  0.054500  1
  C  C878  1  0.443300  0.954400  0.554500  1
  C  C879  1  0.943300  0.454400  0.945500  1
  C  C880  1  0.556700  0.045600  0.445500  1
  C  C881  1  0.014300  0.574500  0.070170  1
  C  C882  1  0.485700  0.925500  0.570170  1
  C  C883  1  0.985700  0.425500  0.929830  1
  C  C884  1  0.514300  0.074500  0.429830  1
  C  C885  1  0.974500  0.600100  0.049300  1
  C  C886  1  0.525500  0.899900  0.549300  1
  C  C887  1  0.025500  0.399900  0.950700  1
  C  C888  1  0.474500  0.100100  0.450700  1
  C  C889  1  0.019300  0.567100  0.958900  1
  C  C890  1  0.480700  0.932900  0.458900  1
  C  C891  1  0.980700  0.432900  0.041100  1
  C  C892  1  0.519300  0.067100  0.541100  1
  C  C893  1  0.050700  0.541000  0.934900  1
  C  C894  1  0.449300  0.959000  0.434900  1
  C  C895  1  0.949300  0.459000  0.065100  1
  C  C896  1  0.550700  0.041000  0.565100  1
  C  C897  1  0.026300  0.550500  0.901500  1
  C  C898  1  0.473700  0.949500  0.401500  1
  C  C899  1  0.973700  0.449500  0.098500  1
  C  C900  1  0.526300  0.050500  0.598500  1
  C  C901  1  0.944900  0.605900  0.877400  1
  C  C902  1  0.555100  0.894100  0.377400  1
  C  C903  1  0.055100  0.394100  0.122600  1
  C  C904  1  0.444900  0.105900  0.622600  1
  C  C905  1  0.978500  0.648100  0.869600  1
  C  C906  1  0.521500  0.851900  0.369600  1
  C  C907  1  0.021500  0.351900  0.130400  1
  C  C908  1  0.478500  0.148100  0.630400  1
  C  C909  1  0.046100  0.657100  0.878600  1
  C  C910  1  0.453900  0.842900  0.378600  1
  C  C911  1  0.953900  0.342900  0.121400  1
  C  C912  1  0.546100  0.157100  0.621400  1
  C  C913  1  0.073800  0.696000  0.871600  1
  C  C914  1  0.426200  0.804000  0.371600  1
  C  C915  1  0.926200  0.304000  0.128400  1
  C  C916  1  0.573800  0.196000  0.628400  1
  C  C917  1  0.033800  0.725900  0.855700  1
  C  C918  1  0.466200  0.774100  0.355700  1
  C  C919  1  0.966200  0.274100  0.144300  1
  C  C920  1  0.533800  0.225900  0.644300  1
  C  C921  1  0.966100  0.716900  0.846700  1
  C  C922  1  0.533900  0.783100  0.346700  1
  C  C923  1  0.033900  0.283100  0.153300  1
  C  C924  1  0.466100  0.216900  0.653300  1
  C  C925  1  0.938500  0.678000  0.853700  1
  C  C926  1  0.561500  0.822000  0.353700  1
  C  C927  1  0.061500  0.322000  0.146300  1
  C  C928  1  0.438500  0.178000  0.646300  1
  C  C929  1  0.152600  0.705700  0.880700  1
  C  C930  1  0.347400  0.794300  0.380700  1
  C  C931  1  0.847400  0.294300  0.119300  1
  C  C932  1  0.652600  0.205700  0.619300  1
  C  C933  1  0.172700  0.745900  0.888800  1
  C  C934  1  0.327300  0.754100  0.388800  1
  C  C935  1  0.827300  0.254100  0.111200  1
  C  C936  1  0.672700  0.245900  0.611200  1
  C  C937  1  0.240700  0.754700  0.897000  1
  C  C938  1  0.259300  0.745300  0.397000  1
  C  C939  1  0.759300  0.245300  0.103000  1
  C  C940  1  0.740700  0.254700  0.603000  1
  C  C941  1  0.288700  0.723300  0.897100  1
  C  C942  1  0.211300  0.776700  0.397100  1
  C  C943  1  0.711300  0.276700  0.102900  1
  C  C944  1  0.788700  0.223300  0.602900  1
  C  C945  1  0.268600  0.683100  0.889000  1
  C  C946  1  0.231400  0.816900  0.389000  1
  C  C947  1  0.731400  0.316900  0.111000  1
  C  C948  1  0.768600  0.183100  0.611000  1
  C  C949  1  0.200500  0.674300  0.880800  1
  C  C950  1  0.299500  0.825700  0.380800  1
  C  C951  1  0.799500  0.325700  0.119200  1
  C  C952  1  0.700500  0.174300  0.619200  1
  C  C953  1  0.434700  0.834400  0.890000  1
  C  C954  1  0.065300  0.665600  0.390000  1
  C  C955  1  0.565300  0.165600  0.110000  1
  C  C956  1  0.934700  0.334400  0.610000  1
  C  C957  1  0.434300  0.831300  0.926500  1
  C  C958  1  0.065700  0.668700  0.426500  1
  C  C959  1  0.565700  0.168700  0.073500  1
  C  C960  1  0.934300  0.331300  0.573500  1
  C  C961  1  0.369900  0.816800  0.936800  1
  C  C962  1  0.130100  0.683200  0.436800  1
  C  C963  1  0.630100  0.183200  0.063200  1
  C  C964  1  0.869900  0.316800  0.563200  1
  C  C965  1  0.257700  0.800800  0.904700  1
  C  C966  1  0.242300  0.699200  0.404700  1
  C  C967  1  0.742300  0.199200  0.095300  1
  C  C968  1  0.757700  0.300800  0.595300  1
  C  C969  1  0.483100  0.850400  0.865800  1
  C  C970  1  0.016900  0.649600  0.365800  1
  C  C971  1  0.516900  0.149600  0.134200  1
  C  C972  1  0.983100  0.350400  0.634200  1
  C  C973  1  0.544400  0.869700  0.875300  1
  C  C974  1  0.955600  0.630300  0.375300  1
  C  C975  1  0.455600  0.130300  0.124700  1
  C  C976  1  0.044400  0.369700  0.624700  1
  C  C977  1  0.589500  0.883600  0.849400  1
  C  C978  1  0.910500  0.616400  0.349400  1
  C  C979  1  0.410500  0.116400  0.150600  1
  C  C980  1  0.089500  0.383600  0.650600  1
  C  C981  1  0.573200  0.878300  0.814000  1
  C  C982  1  0.926800  0.621700  0.314000  1
  C  C983  1  0.426800  0.121700  0.186000  1
  C  C984  1  0.073200  0.378300  0.686000  1
  C  C985  1  0.511900  0.859000  0.804600  1
  C  C986  1  0.988100  0.641000  0.304600  1
  C  C987  1  0.488100  0.141000  0.195400  1
  C  C988  1  0.011900  0.359000  0.695400  1
  C  C989  1  0.181500  0.918600  0.173900  1
  C  C990  1  0.318500  0.581400  0.673900  1
  C  C991  1  0.818500  0.081400  0.826100  1
  C  C992  1  0.681500  0.418600  0.326100  1
  C  C993  1  0.182500  0.919600  0.210500  1
  C  C994  1  0.317500  0.580400  0.710500  1
  C  C995  1  0.817500  0.080400  0.789500  1
  C  C996  1  0.682500  0.419600  0.289500  1
  C  C997  1  0.127500  0.935800  0.228900  1
  C  C998  1  0.372500  0.564200  0.728900  1
  C  C999  1  0.872500  0.064200  0.771100  1
  C  C1000  1  0.627500  0.435800  0.271100  1
  C  C1001  1  0.071400  0.951100  0.210700  1
  C  C1002  1  0.428600  0.548900  0.710700  1
  C  C1003  1  0.928600  0.048900  0.789300  1
  C  C1004  1  0.571400  0.451100  0.289300  1
  C  C1005  1  0.070400  0.950200  0.174100  1
  C  C1006  1  0.429600  0.549800  0.674100  1
  C  C1007  1  0.929600  0.049800  0.825900  1
  C  C1008  1  0.570400  0.450200  0.325900  1
  C  C1009  1  0.222900  0.906800  0.150500  1
  C  C1010  1  0.277100  0.593200  0.650500  1
  C  C1011  1  0.777100  0.093200  0.849500  1
  C  C1012  1  0.722900  0.406800  0.349500  1
  C  C1013  1  0.286500  0.892200  0.160800  1
  C  C1014  1  0.213500  0.607800  0.660800  1
  C  C1015  1  0.713500  0.107800  0.839200  1
  C  C1016  1  0.786500  0.392200  0.339200  1
  C  C1017  1  0.322400  0.881400  0.130700  1
  C  C1018  1  0.177600  0.618600  0.630700  1
  C  C1019  1  0.677600  0.118600  0.869300  1
  C  C1020  1  0.822400  0.381400  0.369300  1
  C  C1021  1  0.298600  0.879200  0.061300  1
  C  C1022  1  0.201400  0.620800  0.561300  1
  C  C1023  1  0.701400  0.120800  0.938700  1
  C  C1024  1  0.798600  0.379200  0.438700  1
  C  C1025  1  0.333500  0.919000  0.043600  1
  C  C1026  1  0.166500  0.581000  0.543600  1
  C  C1027  1  0.666500  0.081000  0.956400  1
  C  C1028  1  0.833500  0.419000  0.456400  1
  C  C1029  1  0.345500  0.916100  0.007600  1
  C  C1030  1  0.154500  0.583900  0.507600  1
  C  C1031  1  0.654500  0.083900  0.992400  1
  C  C1032  1  0.845500  0.416100  0.492400  1
  C  C1033  1  0.377900  0.948500  0.989900  1
  C  C1034  1  0.122100  0.551500  0.489900  1
  C  C1035  1  0.622100  0.051500  0.010100  1
  C  C1036  1  0.877900  0.448500  0.510100  1
  C  C1037  1  0.398200  0.983700  0.008200  1
  C  C1038  1  0.101800  0.516300  0.508200  1
  C  C1039  1  0.601800  0.016300  0.991800  1
  C  C1040  1  0.898200  0.483700  0.491800  1
  C  C1041  1  0.386100  0.986600  0.044200  1
  C  C1042  1  0.113900  0.513400  0.544200  1
  C  C1043  1  0.613900  0.013400  0.955800  1
  C  C1044  1  0.886100  0.486600  0.455800  1
  C  C1045  1  0.353800  0.954200  0.061900  1
  C  C1046  1  0.146200  0.545800  0.561900  1
  C  C1047  1  0.646200  0.045800  0.938100  1
  C  C1048  1  0.853800  0.454200  0.438100  1
  C  C1049  1  0.388100  0.946900  0.948700  1
  C  C1050  1  0.111900  0.553100  0.448700  1
  C  C1051  1  0.611900  0.053100  0.051300  1
  C  C1052  1  0.888100  0.446900  0.551300  1
  C  C1053  1  0.337700  0.930700  0.926600  1
  C  C1054  1  0.162300  0.569300  0.426600  1
  C  C1055  1  0.662300  0.069300  0.073400  1
  C  C1056  1  0.837700  0.430700  0.573400  1
  C  C1057  1  0.347900  0.930200  0.890400  1
  C  C1058  1  0.152100  0.569800  0.390400  1
  C  C1059  1  0.652100  0.069800  0.109600  1
  C  C1060  1  0.847900  0.430200  0.609600  1
  C  C1061  1  0.408500  0.945800  0.876200  1
  C  C1062  1  0.091500  0.554200  0.376200  1
  C  C1063  1  0.591500  0.054200  0.123800  1
  C  C1064  1  0.908500  0.445800  0.623800  1
  C  C1065  1  0.459000  0.962000  0.898300  1
  C  C1066  1  0.041000  0.538000  0.398300  1
  C  C1067  1  0.541000  0.038000  0.101700  1
  C  C1068  1  0.959000  0.462000  0.601700  1
  C  C1069  1  0.448800  0.962500  0.934500  1
  C  C1070  1  0.051200  0.537500  0.434500  1
  C  C1071  1  0.551200  0.037500  0.065500  1
  C  C1072  1  0.948800  0.462500  0.565500  1
  C  C1073  1  0.333700  0.896500  0.775500  1
  C  C1074  1  0.166300  0.603500  0.275500  1
  C  C1075  1  0.666300  0.103500  0.224500  1
  C  C1076  1  0.833700  0.396500  0.724500  1
  C  C1077  1  0.310500  0.936800  0.773000  1
  C  C1078  1  0.189500  0.563200  0.273000  1
  C  C1079  1  0.689500  0.063200  0.227000  1
  C  C1080  1  0.810500  0.436800  0.727000  1
  C  C1081  1  0.288600  0.949000  0.806200  1
  C  C1082  1  0.211400  0.551000  0.306200  1
  C  C1083  1  0.711400  0.051000  0.193800  1
  C  C1084  1  0.788600  0.449000  0.693800  1
  C  C1085  1  0.286900  0.914300  0.866600  1
  C  C1086  1  0.213100  0.585700  0.366600  1
  C  C1087  1  0.713100  0.085700  0.133400  1
  C  C1088  1  0.786900  0.414300  0.633400  1
  C  C1089  1  0.354600  0.867200  0.749200  1
  C  C1090  1  0.145400  0.632800  0.249200  1
  C  C1091  1  0.645400  0.132800  0.250800  1
  C  C1092  1  0.854600  0.367200  0.750800  1
  C  C1093  1  0.357300  0.875700  0.713400  1
  C  C1094  1  0.142700  0.624300  0.213400  1
  C  C1095  1  0.642700  0.124300  0.286600  1
  C  C1096  1  0.857300  0.375700  0.786600  1
  C  C1097  1  0.376600  0.845200  0.689800  1
  C  C1098  1  0.123400  0.654800  0.189800  1
  C  C1099  1  0.623400  0.154800  0.310200  1
  C  C1100  1  0.876600  0.345200  0.810200  1
  C  C1101  1  0.393300  0.806200  0.702000  1
  C  C1102  1  0.106700  0.693800  0.202000  1
  C  C1103  1  0.606700  0.193800  0.298000  1
  C  C1104  1  0.893300  0.306200  0.798000  1
  C  C1105  1  0.390600  0.797600  0.737900  1
  C  C1106  1  0.109400  0.702400  0.237900  1
  C  C1107  1  0.609400  0.202400  0.262100  1
  C  C1108  1  0.890600  0.297600  0.762100  1
  C  C1109  1  0.974900  0.939800  0.093100  1
  C  C1110  1  0.525100  0.560200  0.593100  1
  C  C1111  1  0.025100  0.060200  0.906900  1
  C  C1112  1  0.474900  0.439800  0.406900  1
  C  C1113  1  0.908800  0.955200  0.091200  1
  C  C1114  1  0.591200  0.544800  0.591200  1
  C  C1115  1  0.091200  0.044800  0.908800  1
  C  C1116  1  0.408800  0.455200  0.408800  1
  C  C1117  1  0.898800  0.997200  0.085900  1
  C  C1118  1  0.601200  0.502800  0.585900  1
  C  C1119  1  0.101200  0.002800  0.914100  1
  C  C1120  1  0.398800  0.497200  0.414100  1
  C  C1121  1  0.955000  0.023700  0.082400  1
  C  C1122  1  0.545000  0.476300  0.582400  1
  C  C1123  1  0.045000  0.976300  0.917600  1
  C  C1124  1  0.455000  0.523700  0.417600  1
  C  C1125  1  0.021100  0.008300  0.084200  1
  C  C1126  1  0.478900  0.491700  0.584200  1
  C  C1127  1  0.978900  0.991700  0.915800  1
  C  C1128  1  0.521100  0.508300  0.415800  1
  C  C1129  1  0.992400  0.896400  0.096400  1
  C  C1130  1  0.507600  0.603600  0.596400  1
  C  C1131  1  0.007600  0.103600  0.903600  1
  C  C1132  1  0.492400  0.396400  0.403600  1
  C  C1133  1  0.952200  0.860900  0.099900  1
  C  C1134  1  0.547800  0.639100  0.599900  1
  C  C1135  1  0.047800  0.139100  0.900100  1
  C  C1136  1  0.452200  0.360900  0.400100  1
  C  C1137  1  0.995700  0.827200  0.100700  1
  C  C1138  1  0.504300  0.672800  0.600700  1
  C  C1139  1  0.004300  0.172800  0.899300  1
  C  C1140  1  0.495700  0.327200  0.399300  1
  C  C1141  1  0.124400  0.817400  0.099500  1
  C  C1142  1  0.375600  0.682600  0.599500  1
  C  C1143  1  0.875600  0.182600  0.900500  1
  C  C1144  1  0.624400  0.317400  0.400500  1
  C  C1145  1  0.151200  0.809800  0.137500  1
  C  C1146  1  0.348800  0.690200  0.637500  1
  C  C1147  1  0.848800  0.190200  0.862500  1
  C  C1148  1  0.651200  0.309800  0.362500  1
  C  C1149  1  0.213700  0.790100  0.141000  1
  C  C1150  1  0.286300  0.709900  0.641000  1
  C  C1151  1  0.786300  0.209900  0.859000  1
  C  C1152  1  0.713700  0.290100  0.359000  1
  C  C1153  1  0.240600  0.782800  0.174300  1
  C  C1154  1  0.259400  0.717200  0.674300  1
  C  C1155  1  0.759400  0.217200  0.825700  1
  C  C1156  1  0.740600  0.282800  0.325700  1
  C  C1157  1  0.205000  0.795300  0.204100  1
  C  C1158  1  0.295000  0.704700  0.704100  1
  C  C1159  1  0.795000  0.204700  0.795900  1
  C  C1160  1  0.705000  0.295300  0.295900  1
  C  C1161  1  0.142400  0.815000  0.200600  1
  C  C1162  1  0.357600  0.685000  0.700600  1
  C  C1163  1  0.857600  0.185000  0.799400  1
  C  C1164  1  0.642400  0.315000  0.299400  1
  C  C1165  1  0.115500  0.822200  0.167300  1
  C  C1166  1  0.384500  0.677800  0.667300  1
  C  C1167  1  0.884500  0.177800  0.832700  1
  C  C1168  1  0.615500  0.322200  0.332700  1
  C  C1169  1  0.310500  0.761400  0.178800  1
  C  C1170  1  0.189500  0.738600  0.678800  1
  C  C1171  1  0.689500  0.238600  0.821200  1
  C  C1172  1  0.810500  0.261400  0.321200  1
  C  C1173  1  0.362000  0.770400  0.154600  1
  C  C1174  1  0.138000  0.729600  0.654600  1
  C  C1175  1  0.638000  0.229600  0.845400  1
  C  C1176  1  0.862000  0.270400  0.345400  1
  C  C1177  1  0.427200  0.754400  0.159200  1
  C  C1178  1  0.072800  0.745600  0.659200  1
  C  C1179  1  0.572800  0.245600  0.840800  1
  C  C1180  1  0.927200  0.254400  0.340800  1
  C  C1181  1  0.440900  0.729300  0.188000  1
  C  C1182  1  0.059100  0.770700  0.688000  1
  C  C1183  1  0.559100  0.270700  0.812000  1
  C  C1184  1  0.940900  0.229300  0.312000  1
  C  C1185  1  0.389400  0.720200  0.212200  1
  C  C1186  1  0.110600  0.779800  0.712200  1
  C  C1187  1  0.610600  0.279800  0.787800  1
  C  C1188  1  0.889400  0.220200  0.287800  1
  C  C1189  1  0.324200  0.736200  0.207600  1
  C  C1190  1  0.175800  0.763800  0.707600  1
  C  C1191  1  0.675800  0.263800  0.792400  1
  C  C1192  1  0.824200  0.236200  0.292400  1
  C  C1193  1  0.620400  0.692700  0.143500  1
  C  C1194  1  0.879600  0.807300  0.643500  1
  C  C1195  1  0.379600  0.307300  0.856500  1
  C  C1196  1  0.120400  0.192700  0.356500  1
  C  C1197  1  0.650900  0.727400  0.158700  1
  C  C1198  1  0.849100  0.772600  0.658700  1
  C  C1199  1  0.349100  0.272600  0.841300  1
  C  C1200  1  0.150900  0.227400  0.341300  1
  C  C1201  1  0.605700  0.760000  0.155300  1
  C  C1202  1  0.894300  0.740000  0.655300  1
  C  C1203  1  0.394300  0.240000  0.844700  1
  C  C1204  1  0.105700  0.260000  0.344700  1
  C  C1205  1  0.483500  0.765600  0.131300  1
  C  C1206  1  0.016500  0.734400  0.631300  1
  C  C1207  1  0.516500  0.234400  0.868700  1
  C  C1208  1  0.983500  0.265600  0.368700  1
  C  C1209  1  0.638300  0.650100  0.139600  1
  C  C1210  1  0.861700  0.849900  0.639600  1
  C  C1211  1  0.361700  0.349900  0.860400  1
  C  C1212  1  0.138300  0.150100  0.360400  1
  C  C1213  1  0.697400  0.634400  0.154700  1
  C  C1214  1  0.802600  0.865600  0.654700  1
  C  C1215  1  0.302600  0.365600  0.845300  1
  C  C1216  1  0.197400  0.134400  0.345300  1
  C  C1217  1  0.713700  0.593100  0.150000  1
  C  C1218  1  0.786300  0.906900  0.650000  1
  C  C1219  1  0.286300  0.406900  0.850000  1
  C  C1220  1  0.213700  0.093100  0.350000  1
  C  C1221  1  0.670900  0.567600  0.130100  1
  C  C1222  1  0.829100  0.932400  0.630100  1
  C  C1223  1  0.329100  0.432400  0.869900  1
  C  C1224  1  0.170900  0.067600  0.369900  1
  C  C1225  1  0.611800  0.583300  0.115000  1
  C  C1226  1  0.888200  0.916700  0.615000  1
  C  C1227  1  0.388200  0.416700  0.885000  1
  C  C1228  1  0.111800  0.083300  0.385000  1
  C  C1229  1  0.266500  0.748900  0.806400  1
  C  C1230  1  0.233500  0.751100  0.306400  1
  C  C1231  1  0.733500  0.251100  0.193600  1
  C  C1232  1  0.766500  0.248900  0.693600  1
  C  C1233  1  0.206200  0.727900  0.797700  1
  C  C1234  1  0.293800  0.772100  0.297700  1
  C  C1235  1  0.793800  0.272100  0.202300  1
  C  C1236  1  0.706200  0.227900  0.702300  1
  C  C1237  1  0.144700  0.749100  0.795800  1
  C  C1238  1  0.355300  0.750900  0.295800  1
  C  C1239  1  0.855300  0.250900  0.204200  1
  C  C1240  1  0.644700  0.249100  0.704200  1
  C  C1241  1  0.143500  0.791200  0.802600  1
  C  C1242  1  0.356500  0.708800  0.302600  1
  C  C1243  1  0.856500  0.208800  0.197400  1
  C  C1244  1  0.643500  0.291200  0.697400  1
  C  C1245  1  0.203800  0.812200  0.811300  1
  C  C1246  1  0.296200  0.687800  0.311300  1
  C  C1247  1  0.796200  0.187800  0.188700  1
  C  C1248  1  0.703800  0.312200  0.688700  1
  C  C1249  1  0.331700  0.730500  0.807600  1
  C  C1250  1  0.168300  0.769500  0.307600  1
  C  C1251  1  0.668300  0.269500  0.192400  1
  C  C1252  1  0.831700  0.230500  0.692400  1
  C  C1253  1  0.353300  0.690500  0.800900  1
  C  C1254  1  0.146700  0.809500  0.300900  1
  C  C1255  1  0.646700  0.309500  0.199100  1
  C  C1256  1  0.853300  0.190500  0.699100  1
  C  C1257  1  0.424400  0.690100  0.803400  1
  C  C1258  1  0.075600  0.809900  0.303400  1
  C  C1259  1  0.575600  0.309900  0.196600  1
  C  C1260  1  0.924400  0.190100  0.696600  1
  C  C1261  1  0.517300  0.743900  0.817500  1
  C  C1262  1  0.982700  0.756100  0.317500  1
  C  C1263  1  0.482700  0.256100  0.182500  1
  C  C1264  1  0.017300  0.243900  0.682500  1
  C  C1265  1  0.534700  0.747000  0.857400  1
  C  C1266  1  0.965300  0.753000  0.357400  1
  C  C1267  1  0.465300  0.253000  0.142600  1
  C  C1268  1  0.034700  0.247000  0.642600  1
  C  C1269  1  0.495700  0.726900  0.882900  1
  C  C1270  1  0.004300  0.773100  0.382900  1
  C  C1271  1  0.504300  0.273100  0.117100  1
  C  C1272  1  0.995700  0.226900  0.617100  1
  C  C1273  1  0.512700  0.731100  0.918300  1
  C  C1274  1  0.987300  0.768900  0.418300  1
  C  C1275  1  0.487300  0.268900  0.081700  1
  C  C1276  1  0.012700  0.231100  0.581700  1
  C  C1277  1  0.568600  0.755400  0.928200  1
  C  C1278  1  0.931400  0.744600  0.428200  1
  C  C1279  1  0.431400  0.244600  0.071800  1
  C  C1280  1  0.068600  0.255400  0.571800  1
  C  C1281  1  0.607600  0.775600  0.902600  1
  C  C1282  1  0.892400  0.724400  0.402600  1
  C  C1283  1  0.392400  0.224400  0.097400  1
  C  C1284  1  0.107600  0.275600  0.597400  1
  C  C1285  1  0.590600  0.771400  0.867200  1
  C  C1286  1  0.909400  0.728600  0.367200  1
  C  C1287  1  0.409400  0.228600  0.132800  1
  C  C1288  1  0.090600  0.271400  0.632800  1
  C  C1289  1  0.466700  0.707700  0.947000  1
  C  C1290  1  0.033300  0.792300  0.447000  1
  C  C1291  1  0.533300  0.292300  0.053000  1
  C  C1292  1  0.966700  0.207700  0.553000  1
  C  C1293  1  0.455000  0.726400  0.979300  1
  C  C1294  1  0.045000  0.773600  0.479300  1
  C  C1295  1  0.545000  0.273600  0.020700  1
  C  C1296  1  0.955000  0.226400  0.520700  1
  C  C1297  1  0.414500  0.706600  0.004500  1
  C  C1298  1  0.085500  0.793400  0.504500  1
  C  C1299  1  0.585500  0.293400  0.995500  1
  C  C1300  1  0.914500  0.206600  0.495500  1
  C  C1301  1  0.385700  0.668100  0.997200  1
  C  C1302  1  0.114300  0.831900  0.497200  1
  C  C1303  1  0.614300  0.331900  0.002800  1
  C  C1304  1  0.885700  0.168100  0.502800  1
  C  C1305  1  0.397300  0.649400  0.964900  1
  C  C1306  1  0.102700  0.850600  0.464900  1
  C  C1307  1  0.602700  0.350600  0.035100  1
  C  C1308  1  0.897300  0.149400  0.535100  1
  C  C1309  1  0.437800  0.669100  0.939700  1
  C  C1310  1  0.062200  0.830900  0.439700  1
  C  C1311  1  0.562200  0.330900  0.060300  1
  C  C1312  1  0.937800  0.169100  0.560300  1
  C  C1313  1  0.353100  0.666400  0.115300  1
  C  C1314  1  0.146900  0.833600  0.615300  1
  C  C1315  1  0.646900  0.333600  0.884700  1
  C  C1316  1  0.853100  0.166400  0.384700  1
  C  C1317  1  0.289800  0.681800  0.105400  1
  C  C1318  1  0.210200  0.818200  0.605400  1
  C  C1319  1  0.710200  0.318200  0.894600  1
  C  C1320  1  0.789800  0.181800  0.394600  1
  C  C1321  1  0.299400  0.706000  0.075500  1
  C  C1322  1  0.200600  0.794000  0.575500  1
  C  C1323  1  0.700600  0.294000  0.924500  1
  C  C1324  1  0.799400  0.206000  0.424500  1
  C  C1325  1  0.401700  0.728200  0.039800  1
  C  C1326  1  0.098300  0.771800  0.539800  1
  C  C1327  1  0.598300  0.271800  0.960200  1
  C  C1328  1  0.901700  0.228200  0.460200  1
  C  C1329  1  0.374300  0.644900  0.145000  1
  C  C1330  1  0.125700  0.855100  0.645000  1
  C  C1331  1  0.625700  0.355100  0.855000  1
  C  C1332  1  0.874300  0.144900  0.355000  1
  C  C1333  1  0.331100  0.634200  0.172800  1
  C  C1334  1  0.168900  0.865800  0.672800  1
  C  C1335  1  0.668900  0.365800  0.827200  1
  C  C1336  1  0.831100  0.134200  0.327200  1
  C  C1337  1  0.356400  0.612000  0.201200  1
  C  C1338  1  0.143600  0.888000  0.701200  1
  C  C1339  1  0.643600  0.388000  0.798800  1
  C  C1340  1  0.856400  0.112000  0.298800  1
  C  C1341  1  0.424800  0.600500  0.201900  1
  C  C1342  1  0.075200  0.899500  0.701900  1
  C  C1343  1  0.575200  0.399500  0.798100  1
  C  C1344  1  0.924800  0.100500  0.298100  1
  C  C1345  1  0.467900  0.611200  0.174100  1
  C  C1346  1  0.032100  0.888800  0.674100  1
  C  C1347  1  0.532100  0.388800  0.825900  1
  C  C1348  1  0.967900  0.111200  0.325900  1
  C  C1349  1  0.887000  0.552500  0.744600  1
  C  C1350  1  0.613000  0.947500  0.244600  1
  C  C1351  1  0.113000  0.447500  0.255400  1
  C  C1352  1  0.387000  0.052500  0.755400  1
  C  C1353  1  0.879000  0.585400  0.767000  1
  C  C1354  1  0.621000  0.914600  0.267000  1
  C  C1355  1  0.121000  0.414600  0.233000  1
  C  C1356  1  0.379000  0.085400  0.733000  1
  C  C1357  1  0.481000  0.860800  0.052100  1
  C  C1358  1  0.019000  0.639200  0.552100  1
  C  C1359  1  0.519000  0.139200  0.947900  1
  C  C1360  1  0.981000  0.360800  0.447900  1
  C  C1361  1  0.513000  0.900300  0.047800  1
  C  C1362  1  0.987000  0.599700  0.547800  1
  C  C1363  1  0.487000  0.099700  0.952200  1
  C  C1364  1  0.013000  0.400300  0.452200  1
  C  C1365  1  0.436000  0.969000  0.179600  1
  C  C1366  1  0.064000  0.531000  0.679600  1
  C  C1367  1  0.564000  0.031000  0.820400  1
  C  C1368  1  0.936000  0.469000  0.320400  1
  C  C1369  1  0.376000  0.995900  0.167900  1
  C  C1370  1  0.124000  0.504100  0.667900  1
  C  C1371  1  0.624000  0.004100  0.832100  1
  C  C1372  1  0.876000  0.495900  0.332100  1
  C  C1373  1  0.923000  0.845000  0.867900  1
  C  C1374  1  0.577000  0.655000  0.367900  1
  C  C1375  1  0.077000  0.155000  0.132100  1
  C  C1376  1  0.423000  0.345000  0.632100  1
  C  C1377  1  0.068000  0.945800  0.830300  1
  C  C1378  1  0.432000  0.554200  0.330300  1
  C  C1379  1  0.932000  0.054200  0.169700  1
  C  C1380  1  0.568000  0.445800  0.669700  1
  C  C1381  1  0.294000  0.061600  0.954700  1
  C  C1382  1  0.206000  0.438400  0.454700  1
  C  C1383  1  0.706000  0.938400  0.045300  1
  C  C1384  1  0.794000  0.561600  0.545300  1
  C  C1385  1  0.322600  0.049900  0.917200  1
  C  C1386  1  0.177400  0.450100  0.417200  1
  C  C1387  1  0.677400  0.950100  0.082800  1
  C  C1388  1  0.822600  0.549900  0.582800  1
  C  C1389  1  0.161000  0.462200  0.898000  1
  C  C1390  1  0.339000  0.037800  0.398000  1
  C  C1391  1  0.839000  0.537800  0.102000  1
  C  C1392  1  0.661000  0.962200  0.602000  1
  C  C1393  1  0.756000  0.554900  0.843400  1
  C  C1394  1  0.744000  0.945100  0.343400  1
  C  C1395  1  0.244000  0.445100  0.156600  1
  C  C1396  1  0.256000  0.054900  0.656600  1
  C  C1397  1  0.968000  0.859000  0.223800  1
  C  C1398  1  0.532000  0.641000  0.723800  1
  C  C1399  1  0.032000  0.141000  0.776200  1
  C  C1400  1  0.468000  0.359000  0.276200  1
  C  C1401  1  0.835000  0.750200  0.135400  1
  C  C1402  1  0.665000  0.749800  0.635400  1
  C  C1403  1  0.165000  0.249800  0.864600  1
  C  C1404  1  0.335000  0.250200  0.364600  1
  C  C1405  1  0.828000  0.824400  0.854100  1
  C  C1406  1  0.672000  0.675600  0.354100  1
  C  C1407  1  0.172000  0.175600  0.145900  1
  C  C1408  1  0.328000  0.324400  0.645900  1
  C  C1409  1  0.232000  0.556000  0.871500  1
  C  C1410  1  0.268000  0.944000  0.371500  1
  C  C1411  1  0.768000  0.444000  0.128500  1
  C  C1412  1  0.732000  0.056000  0.628500  1
  C  C1413  1  0.093000  0.573500  0.803200  1
  C  C1414  1  0.407000  0.926500  0.303200  1
  C  C1415  1  0.907000  0.426500  0.196800  1
  C  C1416  1  0.593000  0.073500  0.696800  1
  C  C1417  1  0.111000  0.911000  0.795400  1
  C  C1418  1  0.389000  0.589000  0.295400  1
  C  C1419  1  0.889000  0.089000  0.204600  1
  C  C1420  1  0.611000  0.411000  0.704600  1
  C  C1421  1  0.775000  0.826800  0.865800  1
  C  C1422  1  0.725000  0.673200  0.365800  1
  C  C1423  1  0.225000  0.173200  0.134200  1
  C  C1424  1  0.275000  0.326800  0.634200  1
  C  C1425  1  0.102000  0.611500  0.767200  1
  C  C1426  1  0.398000  0.888500  0.267200  1
  C  C1427  1  0.898000  0.388500  0.232800  1
  C  C1428  1  0.602000  0.111500  0.732800  1
  C  C1429  1  0.505000  0.952300  0.752500  1
  C  C1430  1  0.995000  0.547700  0.252500  1
  C  C1431  1  0.495000  0.047700  0.247500  1
  C  C1432  1  0.005000  0.452300  0.747500  1
  C  C1433  1  0.722600  0.829900  0.071900  1
  C  C1434  1  0.777400  0.670100  0.571900  1
  C  C1435  1  0.277400  0.170100  0.928100  1
  C  C1436  1  0.222600  0.329900  0.428100  1
  C  C1437  1  0.911000  0.851300  0.280300  1
  C  C1438  1  0.589000  0.648700  0.780300  1
  C  C1439  1  0.089000  0.148700  0.719700  1
  C  C1440  1  0.411000  0.351300  0.219700  1
  C  C1441  1  0.894000  0.865000  0.245000  1
  C  C1442  1  0.606000  0.635000  0.745000  1
  C  C1443  1  0.106000  0.135000  0.755000  1
  C  C1444  1  0.394000  0.365000  0.255000  1
  N  N1445  1  0.832300  0.581900  0.975500  1
  N  N1446  1  0.667700  0.918100  0.475500  1
  N  N1447  1  0.167700  0.418100  0.024500  1
  N  N1448  1  0.332300  0.081900  0.524500  1
  N  N1449  1  0.842300  0.647900  0.019100  1
  N  N1450  1  0.657700  0.852100  0.519100  1
  N  N1451  1  0.157700  0.352100  0.980900  1
  N  N1452  1  0.342300  0.147900  0.480900  1
  N  N1453  1  0.838700  0.678300  0.044800  1
  N  N1454  1  0.661300  0.821700  0.544800  1
  N  N1455  1  0.161300  0.321700  0.955200  1
  N  N1456  1  0.338700  0.178300  0.455200  1
  N  N1457  1  0.160700  0.945800  0.042400  1
  N  N1458  1  0.339300  0.554200  0.542400  1
  N  N1459  1  0.839300  0.054200  0.957600  1
  N  N1460  1  0.660700  0.445800  0.457600  1
  N  N1461  1  0.152500  0.925500  0.010400  1
  N  N1462  1  0.347500  0.574500  0.510400  1
  N  N1463  1  0.847500  0.074500  0.989600  1
  N  N1464  1  0.652500  0.425500  0.489600  1
  N  N1465  1  0.188500  0.995300  0.097800  1
  N  N1466  1  0.311500  0.504700  0.597800  1
  N  N1467  1  0.811500  0.004700  0.902200  1
  N  N1468  1  0.688500  0.495300  0.402200  1
  N  N1469  1  0.852500  0.668100  0.939000  1
  N  N1470  1  0.647500  0.831900  0.439000  1
  N  N1471  1  0.147500  0.331900  0.061000  1
  N  N1472  1  0.352500  0.168100  0.561000  1
  N  N1473  1  0.974400  0.688100  0.970600  1
  N  N1474  1  0.525600  0.811900  0.470600  1
  N  N1475  1  0.025600  0.311900  0.029400  1
  N  N1476  1  0.474400  0.188100  0.529400  1
  N  N1477  1  0.036600  0.704500  0.982200  1
  N  N1478  1  0.463400  0.795500  0.482200  1
  N  N1479  1  0.963400  0.295500  0.017800  1
  N  N1480  1  0.536600  0.204500  0.517800  1
  N  N1481  1  0.489900  0.602200  0.062900  1
  N  N1482  1  0.010100  0.897800  0.562900  1
  N  N1483  1  0.510100  0.397800  0.937100  1
  N  N1484  1  0.989900  0.102200  0.437100  1
  N  N1485  1  0.460800  0.562800  0.062000  1
  N  N1486  1  0.039200  0.937200  0.562000  1
  N  N1487  1  0.539200  0.437200  0.938000  1
  N  N1488  1  0.960800  0.062800  0.438000  1
  N  N1489  1  0.555100  0.675500  0.052300  1
  N  N1490  1  0.944900  0.824500  0.552300  1
  N  N1491  1  0.444900  0.324500  0.947700  1
  N  N1492  1  0.055100  0.175500  0.447700  1
  N  N1493  1  0.977100  0.596800  0.012900  1
  N  N1494  1  0.522900  0.903200  0.512900  1
  N  N1495  1  0.022900  0.403200  0.987100  1
  N  N1496  1  0.477100  0.096800  0.487100  1
  N  N1497  1  0.975600  0.592700  0.940400  1
  N  N1498  1  0.524400  0.907300  0.440400  1
  N  N1499  1  0.024400  0.407300  0.059600  1
  N  N1500  1  0.475600  0.092700  0.559600  1
  N  N1501  1  0.979900  0.582500  0.904900  1
  N  N1502  1  0.520100  0.917500  0.404900  1
  N  N1503  1  0.020100  0.417500  0.095100  1
  N  N1504  1  0.479900  0.082500  0.595100  1
  N  N1505  1  0.370600  0.821900  0.877700  1
  N  N1506  1  0.129400  0.678100  0.377700  1
  N  N1507  1  0.629400  0.178100  0.122300  1
  N  N1508  1  0.870600  0.321900  0.622300  1
  N  N1509  1  0.330600  0.811000  0.906700  1
  N  N1510  1  0.169400  0.689000  0.406700  1
  N  N1511  1  0.669400  0.189000  0.093300  1
  N  N1512  1  0.830600  0.311000  0.593300  1
  N  N1513  1  0.466800  0.845000  0.830400  1
  N  N1514  1  0.033200  0.655000  0.330400  1
  N  N1515  1  0.533200  0.155000  0.169600  1
  N  N1516  1  0.966800  0.345000  0.669600  1
  N  N1517  1  0.125400  0.933900  0.155700  1
  N  N1518  1  0.374600  0.566100  0.655700  1
  N  N1519  1  0.874600  0.066100  0.844300  1
  N  N1520  1  0.625400  0.433900  0.344300  1
  N  N1521  1  0.219500  0.905000  0.114000  1
  N  N1522  1  0.280500  0.595000  0.614000  1
  N  N1523  1  0.780500  0.095000  0.886000  1
  N  N1524  1  0.719500  0.405000  0.386000  1
  N  N1525  1  0.281000  0.889300  0.101700  1
  N  N1526  1  0.219000  0.610700  0.601700  1
  N  N1527  1  0.719000  0.110700  0.898300  1
  N  N1528  1  0.781000  0.389300  0.398300  1
  N  N1529  1  0.326100  0.883800  0.810300  1
  N  N1530  1  0.173900  0.616200  0.310300  1
  N  N1531  1  0.673900  0.116200  0.189700  1
  N  N1532  1  0.826100  0.383800  0.689700  1
  N  N1533  1  0.298300  0.916300  0.829300  1
  N  N1534  1  0.201700  0.583700  0.329300  1
  N  N1535  1  0.701700  0.083700  0.170700  1
  N  N1536  1  0.798300  0.416300  0.670700  1
  N  N1537  1  0.371300  0.828200  0.761500  1
  N  N1538  1  0.128700  0.671800  0.261500  1
  N  N1539  1  0.628700  0.171800  0.238500  1
  N  N1540  1  0.871300  0.328200  0.738500  1
  N  N1541  1  0.031000  0.966300  0.089500  1
  N  N1542  1  0.469000  0.533700  0.589500  1
  N  N1543  1  0.969000  0.033700  0.910500  1
  N  N1544  1  0.531000  0.466300  0.410500  1
  N  N1545  1  0.060700  0.884700  0.095200  1
  N  N1546  1  0.439300  0.615300  0.595200  1
  N  N1547  1  0.939300  0.115300  0.904800  1
  N  N1548  1  0.560700  0.384700  0.404800  1
  N  N1549  1  0.062700  0.841900  0.097800  1
  N  N1550  1  0.437300  0.658100  0.597800  1
  N  N1551  1  0.937300  0.158100  0.902200  1
  N  N1552  1  0.562700  0.341900  0.402200  1
  N  N1553  1  0.556400  0.703900  0.130800  1
  N  N1554  1  0.943600  0.796100  0.630800  1
  N  N1555  1  0.443600  0.296100  0.869200  1
  N  N1556  1  0.056400  0.203900  0.369200  1
  N  N1557  1  0.547400  0.745500  0.138000  1
  N  N1558  1  0.952600  0.754500  0.638000  1
  N  N1559  1  0.452600  0.254500  0.862000  1
  N  N1560  1  0.047400  0.245500  0.362000  1
  N  N1561  1  0.595500  0.624600  0.119800  1
  N  N1562  1  0.904500  0.875400  0.619800  1
  N  N1563  1  0.404500  0.375400  0.880200  1
  N  N1564  1  0.095500  0.124600  0.380200  1
  N  N1565  1  0.265200  0.791000  0.813200  1
  N  N1566  1  0.234800  0.709000  0.313200  1
  N  N1567  1  0.734800  0.209000  0.186800  1
  N  N1568  1  0.765200  0.291000  0.686800  1
  N  N1569  1  0.389500  0.754800  0.814300  1
  N  N1570  1  0.110500  0.745200  0.314300  1
  N  N1571  1  0.610500  0.245200  0.185700  1
  N  N1572  1  0.889500  0.254800  0.685700  1
  N  N1573  1  0.446800  0.729900  0.811700  1
  N  N1574  1  0.053200  0.770100  0.311700  1
  N  N1575  1  0.553200  0.270100  0.188300  1
  N  N1576  1  0.946800  0.229900  0.688300  1
  N  N1577  1  0.401900  0.681100  0.091600  1
  N  N1578  1  0.098100  0.818900  0.591600  1
  N  N1579  1  0.598100  0.318900  0.908400  1
  N  N1580  1  0.901900  0.181100  0.408400  1
  N  N1581  1  0.368700  0.705500  0.067000  1
  N  N1582  1  0.131300  0.794500  0.567000  1
  N  N1583  1  0.631300  0.294500  0.933000  1
  N  N1584  1  0.868700  0.205500  0.433000  1
  N  N1585  1  0.442700  0.633400  0.145700  1
  N  N1586  1  0.057300  0.866600  0.645700  1
  N  N1587  1  0.557300  0.366600  0.854300  1
  N  N1588  1  0.942700  0.133400  0.354300  1
  N  N1589  1  0.845000  0.611100  0.791300  1
  N  N1590  1  0.655000  0.888900  0.291300  1
  N  N1591  1  0.155000  0.388900  0.208700  1
  N  N1592  1  0.345000  0.111100  0.708700  1
  N  N1593  1  0.449400  0.829000  0.059700  1
  N  N1594  1  0.050600  0.671000  0.559700  1
  N  N1595  1  0.550600  0.171000  0.940300  1
  N  N1596  1  0.949400  0.329000  0.440300  1
  N  N1597  1  0.325000  0.009400  0.189000  1
  N  N1598  1  0.175000  0.490600  0.689000  1
  N  N1599  1  0.675000  0.990600  0.811000  1
  N  N1600  1  0.825000  0.509400  0.311000  1
  F  F1601  1  0.034400  0.879300  0.904400  1
  F  F1602  1  0.465600  0.620700  0.404400  1
  F  F1603  1  0.965600  0.120700  0.095600  1
  F  F1604  1  0.534400  0.379300  0.595600  1
  F  F1605  1  0.146100  0.894300  0.916200  1
  F  F1606  1  0.353900  0.605700  0.416200  1
  F  F1607  1  0.853900  0.105700  0.083800  1
  F  F1608  1  0.646100  0.394300  0.583800  1
  F  F1609  1  0.119400  0.849900  0.872300  1
  F  F1610  1  0.380600  0.650100  0.372300  1
  F  F1611  1  0.880600  0.150100  0.127700  1
  F  F1612  1  0.619400  0.349900  0.627700  1
  F  F1613  1  0.100800  0.830400  0.928800  1
  F  F1614  1  0.399200  0.669600  0.428800  1
  F  F1615  1  0.899200  0.169600  0.071200  1
  F  F1616  1  0.600800  0.330400  0.571200  1
  F  F1617  1  0.678400  0.891500  0.000600  1
  F  F1618  1  0.821600  0.608500  0.500600  1
  F  F1619  1  0.321600  0.108500  0.999400  1
  F  F1620  1  0.178400  0.391500  0.499400  1
  F  F1621  1  0.616600  0.832700  0.995700  1
  F  F1622  1  0.883400  0.667300  0.495700  1
  F  F1623  1  0.383400  0.167300  0.004300  1
  F  F1624  1  0.116600  0.332700  0.504300  1
  F  F1625  1  0.675900  0.856300  0.949200  1
  F  F1626  1  0.824100  0.643700  0.449200  1
  F  F1627  1  0.324100  0.143700  0.050800  1
  F  F1628  1  0.175900  0.356300  0.550800  1
  F  F1629  1  0.583500  0.890000  0.967300  1
  F  F1630  1  0.916500  0.610000  0.467300  1
  F  F1631  1  0.416500  0.110000  0.032700  1
  F  F1632  1  0.083500  0.390000  0.532700  1
  F  F1633  1  0.937700  0.449000  0.848700  1
  F  F1634  1  0.562300  0.051000  0.348700  1
  F  F1635  1  0.062300  0.551000  0.151300  1
  F  F1636  1  0.437700  0.949000  0.651300  1
  F  F1637  1  0.864100  0.483100  0.813300  1
  F  F1638  1  0.635900  0.016900  0.313300  1
  F  F1639  1  0.135900  0.516900  0.186700  1
  F  F1640  1  0.364100  0.983100  0.686700  1
  F  F1641  1  0.966500  0.513100  0.825900  1
  F  F1642  1  0.533500  0.986900  0.325900  1
  F  F1643  1  0.033500  0.486900  0.174100  1
  F  F1644  1  0.466500  0.013100  0.674100  1
  F  F1645  1  0.886500  0.506900  0.869100  1
  F  F1646  1  0.613500  0.993100  0.369100  1
  F  F1647  1  0.113500  0.493100  0.130900  1
  F  F1648  1  0.386500  0.006900  0.630900  1
  F  F1649  1  0.889000  0.298800  0.891200  1
  F  F1650  1  0.611000  0.201200  0.391200  1
  F  F1651  1  0.111000  0.701200  0.108800  1
  F  F1652  1  0.389000  0.798800  0.608800  1
  F  F1653  1  0.994500  0.328400  0.901700  1
  F  F1654  1  0.505500  0.171600  0.401700  1
  F  F1655  1  0.005500  0.671600  0.098300  1
  F  F1656  1  0.494500  0.828400  0.598300  1
  F  F1657  1  0.971200  0.263700  0.922300  1
  F  F1658  1  0.528800  0.236300  0.422300  1
  F  F1659  1  0.028800  0.736300  0.077700  1
  F  F1660  1  0.471200  0.763700  0.577700  1
  F  F1661  1  0.982800  0.273500  0.862700  1
  F  F1662  1  0.517200  0.226500  0.362700  1
  F  F1663  1  0.017200  0.726500  0.137300  1
  F  F1664  1  0.482800  0.773500  0.637300  1
  F  F1665  1  0.247500  0.756700  0.994800  1
  F  F1666  1  0.252500  0.743300  0.494800  1
  F  F1667  1  0.752500  0.243300  0.005200  1
  F  F1668  1  0.747500  0.256700  0.505200  1
  F  F1669  1  0.244700  0.827400  0.994900  1
  F  F1670  1  0.255300  0.672600  0.494900  1
  F  F1671  1  0.755300  0.172600  0.005100  1
  F  F1672  1  0.744700  0.327400  0.505100  1
  F  F1673  1  0.253000  0.791500  0.047100  1
  F  F1674  1  0.247000  0.708500  0.547100  1
  F  F1675  1  0.747000  0.208500  0.952900  1
  F  F1676  1  0.753000  0.291500  0.452900  1
  F  F1677  1  0.153100  0.790100  0.015800  1
  F  F1678  1  0.346900  0.709900  0.515800  1
  F  F1679  1  0.846900  0.209900  0.984200  1
  F  F1680  1  0.653100  0.290100  0.484200  1
  F  F1681  1  0.580100  0.562300  0.934200  1
  F  F1682  1  0.919900  0.937700  0.434200  1
  F  F1683  1  0.419900  0.437700  0.065800  1
  F  F1684  1  0.080100  0.062300  0.565800  1
  F  F1685  1  0.625900  0.556000  0.882700  1
  F  F1686  1  0.874100  0.944000  0.382700  1
  F  F1687  1  0.374100  0.444000  0.117300  1
  F  F1688  1  0.125900  0.056000  0.617300  1
  F  F1689  1  0.663900  0.600700  0.919000  1
  F  F1690  1  0.836100  0.899300  0.419000  1
  F  F1691  1  0.336100  0.399300  0.081000  1
  F  F1692  1  0.163900  0.100700  0.581000  1
  F  F1693  1  0.566000  0.608600  0.894100  1
  F  F1694  1  0.934000  0.891400  0.394100  1
  F  F1695  1  0.434000  0.391400  0.105900  1
  F  F1696  1  0.066000  0.108600  0.605900  1
  F  F1697  1  0.396800  0.497300  0.911700  1
  F  F1698  1  0.103200  0.002700  0.411700  1
  F  F1699  1  0.603200  0.502700  0.088300  1
  F  F1700  1  0.896800  0.997300  0.588300  1
  F  F1701  1  0.472200  0.532600  0.934300  1
  F  F1702  1  0.027800  0.967400  0.434300  1
  F  F1703  1  0.527800  0.467400  0.065700  1
  F  F1704  1  0.972200  0.032600  0.565700  1
  F  F1705  1  0.379400  0.523500  0.960000  1
  F  F1706  1  0.120600  0.976500  0.460000  1
  F  F1707  1  0.620600  0.476500  0.040000  1
  F  F1708  1  0.879400  0.023500  0.540000  1
  F  F1709  1  0.384700  0.559900  0.915400  1
  F  F1710  1  0.115300  0.940100  0.415400  1
  F  F1711  1  0.615300  0.440100  0.084600  1
  F  F1712  1  0.884700  0.059900  0.584600  1
  F  F1713  1  0.565100  0.865900  0.185100  1
  F  F1714  1  0.934900  0.634100  0.685100  1
  F  F1715  1  0.434900  0.134100  0.814900  1
  F  F1716  1  0.065100  0.365900  0.314900  1
  F  F1717  1  0.570500  0.925400  0.156600  1
  F  F1718  1  0.929500  0.574600  0.656600  1
  F  F1719  1  0.429500  0.074600  0.843400  1
  F  F1720  1  0.070500  0.425400  0.343400  1
  F  F1721  1  0.589600  0.866200  0.128600  1
  F  F1722  1  0.910400  0.633800  0.628600  1
  F  F1723  1  0.410400  0.133800  0.871400  1
  F  F1724  1  0.089600  0.366200  0.371400  1
  F  F1725  1  0.485100  0.881600  0.146800  1
  F  F1726  1  0.014900  0.618400  0.646800  1
  F  F1727  1  0.514900  0.118400  0.853200  1
  F  F1728  1  0.985100  0.381600  0.353200  1
  F  F1729  1  0.127200  0.044800  0.827100  1
  F  F1730  1  0.372800  0.455200  0.327100  1
  F  F1731  1  0.872800  0.955200  0.172900  1
  F  F1732  1  0.627200  0.544800  0.672900  1
  F  F1733  1  0.242900  0.051700  0.804200  1
  F  F1734  1  0.257100  0.448300  0.304200  1
  F  F1735  1  0.757100  0.948300  0.195800  1
  F  F1736  1  0.742900  0.551700  0.695800  1
  F  F1737  1  0.208600  0.091900  0.855500  1
  F  F1738  1  0.291400  0.408100  0.355500  1
  F  F1739  1  0.791400  0.908100  0.144500  1
  F  F1740  1  0.708600  0.591900  0.644500  1
  F  F1741  1  0.223800  0.017700  0.861200  1
  F  F1742  1  0.276200  0.482300  0.361200  1
  F  F1743  1  0.776200  0.982300  0.138800  1
  F  F1744  1  0.723800  0.517700  0.638800  1
