
#######################################################################
#
#                 Cambridge Crystallographic Data Centre
#                                CCDC 
#
#######################################################################
#
# If this CIF has been generated from an entry in the Cambridge 
# Structural Database, then it will include bibliographic, chemical, 
# crystal, experimental, refinement or atomic coordinate data resulting 
# from the CCDC's data processing and validation procedures.
#
#######################################################################

data_WAQQUA
_chemical_formula_moiety         'C180 H144 Co4 N36 8+,8(B1 F4 1-),6(C2 H3 N1)'
_chemical_name_systematic        
"hexakis(\m~2~-3,3'-bis(3-(2-Pyridyl)pyrazol-1-ylmethyl)biphenyl)-tetra-cobalt(ii) tetrafluoroborate clathrate heptakis(tetrafluoroborate) acetonitrile solvate"
_symmetry_cell_setting           monoclinic
_symmetry_space_group_name_H-M   'P 21/n'
_symmetry_Int_Tables_number      14
_space_group_name_Hall           '-P 2yn'
loop_
_symmetry_equiv_pos_site_id
_symmetry_equiv_pos_as_xyz
1 x,y,z
2 1/2-x,1/2+y,1/2-z
3 -x,-y,-z
4 1/2+x,1/2-y,1/2+z
_cell_length_a                   19.221(8)
_cell_length_b                   37.421(18)
_cell_length_c                   31.929(9)
_cell_angle_alpha                90
_cell_angle_beta                 90.71(2)
_cell_angle_gamma                90
_cell_volume                     22963.8
_exptl_crystal_colour            apricot
_exptl_crystal_description       block
_cell_formula_units_Z            4
_exptl_crystal_recrystallization_method 'diethyl ether/acetonitrile'
loop_
_atom_site_label
_atom_site_type_symbol
_atom_site_fract_x
_atom_site_fract_y
_atom_site_fract_z
Co1 Co 1.08752(11) 0.02422(5) 0.36882(7)
Co2 Co 0.8662(3) -0.09708(8) 0.06454(10)
Co3 Co 0.63553(13) 0.17998(6) 0.17965(8)
Co4 Co 0.49752(12) -0.09998(7) 0.34601(12)
N1 N 1.1677(4) 0.0245(3) 0.4181(3)
C1 C 1.2174(5) -0.0016(2) 0.4149(3)
C2 C 1.2708(5) -0.0032(3) 0.4436(3)
H1 H 1.3052 -0.0213 0.4414
C3 C 1.2745(5) 0.0212(3) 0.4756(3)
H2 H 1.3115 0.0200 0.4955
C4 C 1.2248(6) 0.0473(3) 0.4787(3)
H3 H 1.2274 0.0642 0.5009
C5 C 1.1714(5) 0.0489(2) 0.4500(3)
H4 H 1.1370 0.0670 0.4522
N2 N 1.1577(4) -0.0191(2) 0.3521(3)
C6 C 1.2115(5) -0.0246(3) 0.3799(3)
C7 C 1.2483(5) -0.0537(3) 0.3667(3)
H5 H 1.2883 -0.0636 0.3801
C8 C 1.2173(5) -0.0662(2) 0.3307(3)
H6 H 1.2320 -0.0862 0.3148
N3 N 1.1613(4) -0.0448(2) 0.3217(3)
C9 C 1.1157(8) -0.0458(4) 0.2856(5)
H7 H 1.0687 -0.0381 0.2940
H8 H 1.1121 -0.0708 0.2756
C10 C 1.1399(5) -0.0224(2) 0.2497(3)
C11 C 1.0993(4) -0.0221(3) 0.2141(3)
H9 H 1.0574 -0.0355 0.2130
C12 C 1.1191(5) -0.0024(3) 0.1801(3)
C13 C 1.1795(5) 0.0170(3) 0.1817(3)
H10 H 1.1933 0.0307 0.1582
C14 C 1.2201(4) 0.0167(3) 0.2173(3)
H11 H 1.2620 0.0302 0.2184
C15 C 1.2003(5) -0.0030(3) 0.2513(3)
H12 H 1.2285 -0.0032 0.2759
C16 C 1.0742(5) -0.0021(3) 0.1406(3)
C17 C 1.0032(5) -0.0037(3) 0.1434(3)
H13 H 0.9820 -0.0045 0.1702
C18 C 0.9628(4) -0.0042(3) 0.1078(4)
C19 C 0.9934(6) -0.0031(3) 0.0693(3)
H14 H 0.9654 -0.0034 0.0446
C20 C 1.0644(6) -0.0015(3) 0.0664(3)
H15 H 1.0856 -0.0007 0.0397
C21 C 1.1048(5) -0.0010(3) 0.1021(4)
H16 H 1.1540 0.0001 0.1001
N4 N 0.8393(7) -0.0424(2) 0.0542(4)
C22 C 0.8060(9) -0.0361(3) 0.0168(4)
C23 C 0.7935(8) -0.0002(3) 0.0139(4)
H17 H 0.7711 0.0117 -0.0089
C24 C 0.8191(7) 0.0157(2) 0.0495(4)
H18 H 0.8176 0.0405 0.0558
N5 N 0.8475(6) -0.0104(3) 0.0745(3)
C25 C 0.8827(9) -0.0070(5) 0.1128(6)
H19 H 0.8719 -0.0279 0.1305
H20 H 0.8657 0.0147 0.1273
N6 N 0.8115(12) -0.0978(4) 0.0047(4)
C26 C 0.7881(12) -0.0654(3) -0.0096(5)
C27 C 0.7607(12) -0.0625(4) -0.0493(6)
H21 H 0.7445 -0.0400 -0.0592
C28 C 0.7568(13) -0.0920(5) -0.0747(4)
H22 H 0.7378 -0.0900 -0.1022
C29 C 0.7802(12) -0.1244(4) -0.0603(5)
H23 H 0.7775 -0.1448 -0.0779
C30 C 0.8076(12) -0.1273(3) -0.0207(6)
H24 H 0.8238 -0.1498 -0.0107
N7 N 1.1475(5) 0.0610(2) 0.3319(3)
C31 C 1.1185(4) 0.0689(3) 0.2936(3)
C32 C 1.1547(6) 0.0891(3) 0.2655(3)
H25 H 1.1346 0.0946 0.2389
C33 C 1.2199(5) 0.1014(3) 0.2757(3)
H26 H 1.2450 0.1154 0.2562
C34 C 1.2489(4) 0.0935(3) 0.3140(4)
H27 H 1.2941 0.1020 0.3210
C35 C 1.2127(5) 0.0733(3) 0.3421(3)
H28 H 1.2329 0.0678 0.3686
N8 N 1.0256(5) 0.0294(2) 0.3119(2)
C36 C 1.0526(4) 0.0540(2) 0.2849(3)
C37 C 1.0071(6) 0.0576(3) 0.2518(3)
H29 H 1.0128 0.0730 0.2284
C38 C 0.9519(5) 0.0352(3) 0.2584(3)
H30 H 0.9127 0.0323 0.2404
N9 N 0.9634(4) 0.0178(2) 0.2955(3)
C39 C 0.9255(8) -0.0125(4) 0.3112(5)
H31 H 0.9592 -0.0298 0.3232
H32 H 0.9016 -0.0243 0.2873
C40 C 0.8712(5) -0.0038(3) 0.3446(3)
C41 C 0.8393(5) -0.03295(19) 0.3618(3)
H33 H 0.8524 -0.0563 0.3533
C42 C 0.7887(5) -0.0284(2) 0.3912(3)
C43 C 0.7700(5) 0.0053(3) 0.4034(3)
H34 H 0.7349 0.0084 0.4238
C44 C 0.8018(6) 0.0345(2) 0.3862(3)
H35 H 0.7888 0.0578 0.3947
C45 C 0.8524(5) 0.0300(2) 0.3568(3)
H36 H 0.8745 0.0502 0.3449
C46 C 0.7531(5) -0.0621(2) 0.4115(3)
C47 C 0.6851(5) -0.0606(2) 0.4238(4)
H37 H 0.6588 -0.0394 0.4196
C48 C 0.6550(4) -0.0897(3) 0.4422(4)
C49 C 0.6929(5) -0.1203(2) 0.4483(4)
H38 H 0.6720 -0.1405 0.4611
C50 C 0.7608(5) -0.1218(2) 0.4360(4)
H39 H 0.7871 -0.1431 0.4402
C51 C 0.7909(4) -0.0927(3) 0.4176(3)
H40 H 0.8380 -0.0937 0.4090
N10 N 0.5101(6) -0.0629(3) 0.3978(4)
C52 C 0.4766(6) -0.0310(4) 0.3910(4)
C53 C 0.4850(7) -0.0104(3) 0.4262(5)
H41 H 0.4672 0.0130 0.4302
C54 C 0.5237(7) -0.0296(4) 0.4547(4)
H42 H 0.5374 -0.0217 0.4819
N11 N 0.5392(6) -0.0620(3) 0.4372(5)
C55 C 0.5774(10) -0.0916(6) 0.4554(8)
H43 H 0.5568 -0.1145 0.4459
H44 H 0.5744 -0.0906 0.4864
N12 N 0.4449(5) -0.0523(2) 0.3245(4)
C56 C 0.4408(5) -0.0252(3) 0.3532(4)
C57 C 0.4032(6) 0.0050(3) 0.3441(4)
H45 H 0.4004 0.0237 0.3640
C58 C 0.3698(5) 0.0081(3) 0.3061(5)
H46 H 0.3438 0.0290 0.2997
C59 C 0.3739(5) -0.0189(4) 0.2773(4)
H47 H 0.3508 -0.0168 0.2510
C60 C 0.4115(6) -0.0491(3) 0.2865(4)
H48 H 0.4143 -0.0679 0.2665
N13 N 1.0229(4) -0.0129(2) 0.4032(3)
C61 C 0.9805(5) 0.00278(19) 0.4320(3)
C62 C 0.9407(5) -0.0181(3) 0.4577(3)
H49 H 0.9113 -0.0072 0.4777
C63 C 0.9433(5) -0.0545(3) 0.4544(3)
H50 H 0.9157 -0.0690 0.4721
C64 C 0.9857(5) -0.07017(18) 0.4255(3)
H51 H 0.9876 -0.0955 0.4232
C65 C 1.0255(5) -0.0493(2) 0.3999(3)
H52 H 1.0549 -0.0602 0.3798
N14 N 1.0244(5) 0.0596(2) 0.4073(3)
C66 C 0.9807(6) 0.0411(2) 0.4329(3)
C67 C 0.9493(5) 0.0651(3) 0.4590(3)
H53 H 0.9165 0.0596 0.4801
C68 C 0.9737(6) 0.0985(2) 0.4495(3)
H54 H 0.9607 0.1202 0.4628
N15 N 1.0201(5) 0.0951(2) 0.4175(3)
C69 C 1.0551(8) 0.1226(4) 0.3941(5)
H55 H 1.1040 0.1152 0.3897
H56 H 1.0559 0.1448 0.4108
C70 C 1.0215(6) 0.1304(3) 0.3519(3)
C71 C 0.9539(5) 0.1214(3) 0.3429(3)
H57 H 0.9262 0.1103 0.3636
C72 C 0.9262(4) 0.1284(3) 0.3040(3)
C73 C 0.9662(6) 0.1443(3) 0.2741(3)
H58 H 0.9470 0.1491 0.2471
C74 C 1.0339(5) 0.1533(3) 0.2831(3)
H59 H 1.0616 0.1643 0.2623
C75 C 1.0615(4) 0.1463(3) 0.3220(4)
H60 H 1.1084 0.1525 0.3282
C76 C 0.8474(4) 0.1193(3) 0.2943(3)
C77 C 0.8273(5) 0.1112(3) 0.2541(3)
H61 H 0.8606 0.1112 0.2323
C78 C 0.7593(5) 0.1030(3) 0.2453(3)
C79 C 0.7113(4) 0.1029(3) 0.2767(3)
H62 H 0.6641 0.0972 0.2705
C80 C 0.7314(5) 0.1110(3) 0.3169(3)
H63 H 0.6981 0.1110 0.3386
C81 C 0.7995(6) 0.1192(3) 0.3257(3)
H64 H 0.8134 0.1249 0.3536
N16 N 0.6294(5) 0.1223(2) 0.1781(3)
C82 C 0.5653(5) 0.1100(3) 0.1656(4)
C83 C 0.5657(5) 0.0735(3) 0.1687(4)
H65 H 0.5280 0.0580 0.1620
C84 C 0.6301(6) 0.0632(2) 0.1832(4)
H66 H 0.6448 0.0393 0.1883
N17 N 0.6694(4) 0.0933(3) 0.1890(3)
C85 C 0.7423(8) 0.0953(4) 0.1992(5)
H67 H 0.7635 0.1142 0.1819
H68 H 0.7643 0.0723 0.1914
N18 N 0.5332(5) 0.1696(3) 0.1550(4)
C86 C 0.5169(6) 0.1342(3) 0.1496(4)
C87 C 0.4556(7) 0.1247(3) 0.1303(5)
H69 H 0.4443 0.1002 0.1266
C88 C 0.4105(6) 0.1506(4) 0.1164(5)
H70 H 0.3680 0.1440 0.1030
C89 C 0.4268(7) 0.1860(4) 0.1217(6)
H71 H 0.3956 0.2039 0.1121
C90 C 0.4881(7) 0.1954(3) 0.1410(5)
H72 H 0.4994 0.2200 0.1448
N19 N 0.8746(13) -0.1557(3) 0.0661(6)
C91 C 0.8185(11) -0.1739(5) 0.0814(7)
C92 C 0.8175(13) -0.2105(5) 0.0804(8)
H73 H 0.7786 -0.2231 0.0910
C93 C 0.8725(16) -0.2289(3) 0.0642(8)
H74 H 0.8718 -0.2543 0.0635
C94 C 0.9286(15) -0.2107(5) 0.0489(8)
H75 H 0.9668 -0.2235 0.0376
C95 C 0.9296(13) -0.1741(5) 0.0498(7)
H76 H 0.9685 -0.1615 0.0392
N20 N 0.7805(9) -0.1140(4) 0.0950(5)
C96 C 0.7771(12) -0.1505(4) 0.0932(6)
C97 C 0.7135(13) -0.1608(3) 0.1078(6)
H77 H 0.6972 -0.1847 0.1100
C98 C 0.6776(9) -0.1307(5) 0.1186(6)
H78 H 0.6319 -0.1300 0.1297
N21 N 0.7190(10) -0.1017(3) 0.1107(5)
C99 C 0.7014(14) -0.0613(6) 0.1208(9)
H79 H 0.7446 -0.0483 0.1285
H80 H 0.6694 -0.0600 0.1448
C100 C 0.6665(8) -0.0436(4) 0.0810(5)
C101 C 0.6545(7) -0.0076(4) 0.0839(4)
H81 H 0.6686 0.0051 0.1083
C102 C 0.6221(7) 0.0101(3) 0.0515(6)
C103 C 0.6018(8) -0.0082(4) 0.0163(5)
H82 H 0.5794 0.0040 -0.0062
C104 C 0.6139(9) -0.0442(4) 0.0134(5)
H83 H 0.5998 -0.0570 -0.0110
C105 C 0.6462(9) -0.0619(3) 0.0458(6)
H84 H 0.6546 -0.0869 0.0438
C106 C 0.6119(7) 0.0513(3) 0.0531(5)
C107 C 0.6623(5) 0.0734(3) 0.0693(4)
H85 H 0.7044 0.0636 0.0802
C108 C 0.6521(6) 0.1096(3) 0.0698(4)
C109 C 0.5915(8) 0.1238(3) 0.0542(5)
H86 H 0.5844 0.1489 0.0545
C110 C 0.5410(6) 0.1017(4) 0.0380(6)
H87 H 0.4989 0.1115 0.0271
C111 C 0.5512(7) 0.0655(4) 0.0375(6)
H88 H 0.5162 0.0502 0.0263
N22 N 0.6739(6) 0.1897(3) 0.1162(3)
C112 C 0.6663(8) 0.2245(3) 0.1035(4)
C113 C 0.6895(9) 0.2270(3) 0.0632(4)
H89 H 0.6903 0.2481 0.0467
C114 C 0.7114(8) 0.1938(4) 0.0510(3)
H90 H 0.7300 0.1879 0.0245
N23 N 0.7017(7) 0.1707(2) 0.0837(4)
C115 C 0.7131(10) 0.1334(5) 0.0857(6)
H91 H 0.7236 0.1269 0.1152
H92 H 0.7549 0.1277 0.0692
N24 N 0.6287(6) 0.2385(2) 0.1718(4)
C116 C 0.6454(6) 0.2508(3) 0.1328(3)
C117 C 0.6427(7) 0.2866(3) 0.1243(3)
H93 H 0.6543 0.2951 0.0972
C118 C 0.6234(7) 0.3102(2) 0.1548(4)
H94 H 0.6215 0.3351 0.1488
C119 C 0.6067(8) 0.2980(3) 0.1938(4)
H95 H 0.5933 0.3144 0.2150
C120 C 0.6094(7) 0.2621(3) 0.2024(3)
H96 H 0.5978 0.2536 0.2294
N25 N 0.9690(10) -0.0895(4) 0.0337(6)
C121 C 1.0251(12) -0.0931(4) 0.0602(4)
C122 C 1.0912(10) -0.0912(5) 0.0448(6)
H97 H 1.1302 -0.0937 0.0632
C123 C 1.1012(10) -0.0859(5) 0.0028(6)
H98 H 1.1470 -0.0847 -0.0079
C124 C 1.0450(14) -0.0824(5) -0.0237(4)
H99 H 1.0519 -0.0787 -0.0528
C125 C 0.9789(12) -0.0842(5) -0.0083(5)
H100 H 0.9400 -0.0818 -0.0267
N26 N 0.9393(8) -0.0952(3) 0.1153(4)
C126 C 1.0076(9) -0.0964(3) 0.1036(3)
C127 C 1.0478(6) -0.0999(4) 0.1391(5)
H101 H 1.0971 -0.1014 0.1403
C128 C 1.0043(7) -0.1007(3) 0.1728(3)
H102 H 1.0181 -0.1030 0.2013
N27 N 0.9373(6) -0.0978(3) 0.1581(4)
C129 C 0.8756(10) -0.0995(4) 0.1826(5)
H103 H 0.8385 -0.0856 0.1682
H104 H 0.8850 -0.0880 0.2100
C130 C 0.8488(6) -0.1375(2) 0.1902(4)
C131 C 0.7863(6) -0.1410(2) 0.2099(4)
H105 H 0.7615 -0.1204 0.2185
C132 C 0.7594(5) -0.1743(3) 0.2172(4)
C133 C 0.7950(7) -0.2041(2) 0.2047(4)
H106 H 0.7764 -0.2272 0.2098
C134 C 0.8576(7) -0.2006(2) 0.1850(4)
H107 H 0.8823 -0.2213 0.1764
C135 C 0.8845(6) -0.1673(3) 0.1778(4)
H108 H 0.9278 -0.1649 0.1641
C136 C 0.6895(5) -0.1788(3) 0.2386(4)
C137 C 0.6380(7) -0.1546(3) 0.2296(4)
H109 H 0.6475 -0.1347 0.2122
C138 C 0.5728(6) -0.1592(3) 0.2456(5)
C139 C 0.5591(6) -0.1880(4) 0.2707(5)
H110 H 0.5139 -0.1912 0.2819
C140 C 0.6106(7) -0.2122(3) 0.2798(5)
H111 H 0.6012 -0.2321 0.2972
C141 C 0.6758(6) -0.2076(3) 0.2638(5)
H112 H 0.7115 -0.2244 0.2700
N28 N 0.4436(6) -0.1308(4) 0.2961(6)
C142 C 0.3796(8) -0.1435(5) 0.3073(6)
C143 C 0.3491(6) -0.1587(5) 0.2726(8)
H113 H 0.3045 -0.1696 0.2714
C144 C 0.3943(9) -0.1553(5) 0.2400(6)
H114 H 0.3864 -0.1634 0.2121
N29 N 0.4526(7) -0.1380(4) 0.2545(6)
C145 C 0.5165(10) -0.1313(6) 0.2344(9)
H115 H 0.5334 -0.1073 0.2425
H116 H 0.5087 -0.1314 0.2037
N30 N 0.4045(5) -0.1198(3) 0.3754(6)
C146 C 0.3617(8) -0.1396(4) 0.3499(5)
C147 C 0.3026(7) -0.1547(4) 0.3656(6)
H117 H 0.2729 -0.1685 0.3479
C148 C 0.2863(6) -0.1500(4) 0.4069(7)
H118 H 0.2453 -0.1605 0.4178
C149 C 0.3291(8) -0.1301(5) 0.4324(5)
H119 H 0.3178 -0.1268 0.4610
C150 C 0.3882(7) -0.1150(4) 0.4167(5)
H120 H 0.4179 -0.1012 0.4344
N31 N 0.7348(5) 0.1868(3) 0.2090(4)
C151 C 0.7335(6) 0.1936(3) 0.2511(4)
C152 C 0.7938(8) 0.2023(3) 0.2721(3)
H121 H 0.7930 0.2070 0.3013
C153 C 0.8553(6) 0.2042(3) 0.2509(5)
H122 H 0.8970 0.2103 0.2655
C154 C 0.8565(5) 0.1974(3) 0.2088(5)
H123 H 0.8991 0.1987 0.1941
C155 C 0.7962(7) 0.1887(3) 0.1878(3)
H124 H 0.7970 0.1840 0.1586
N32 N 0.6105(8) 0.1857(3) 0.2452(3)
C156 C 0.6683(6) 0.1924(3) 0.2695(5)
C157 C 0.6467(10) 0.1991(4) 0.3095(4)
H125 H 0.6759 0.2045 0.3329
C158 C 0.5756(10) 0.1966(4) 0.3099(4)
H126 H 0.5469 0.2000 0.3335
N33 N 0.5532(6) 0.1883(3) 0.2701(5)
C159 C 0.4827(13) 0.1825(6) 0.2561(9)
H127 H 0.4758 0.1938 0.2283
H128 H 0.4505 0.1941 0.2759
C160 C 0.4653(8) 0.1426(3) 0.2530(5)
C161 C 0.5043(6) 0.1171(4) 0.2731(4)
H129 H 0.5431 0.1239 0.2900
C162 C 0.4873(7) 0.0817(3) 0.2689(4)
C163 C 0.4314(7) 0.0718(3) 0.2446(5)
H130 H 0.4196 0.0473 0.2416
C164 C 0.3924(6) 0.0974(5) 0.2244(4)
H131 H 0.3536 0.0906 0.2075
C165 C 0.4094(7) 0.1328(4) 0.2286(5)
H132 H 0.3823 0.1505 0.2147
C166 C 0.5333(6) 0.0530(3) 0.2923(4)
C167 C 0.5450(6) 0.0207(3) 0.2736(3)
H133 H 0.5250 0.0156 0.2469
C168 C 0.5855(6) -0.0045(2) 0.2934(4)
C169 C 0.6143(5) 0.0028(3) 0.3319(4)
H134 H 0.6424 -0.0147 0.3456
C170 C 0.6027(6) 0.0351(3) 0.3506(3)
H135 H 0.6227 0.0401 0.3774
C171 C 0.5622(7) 0.0603(2) 0.3309(4)
H136 H 0.5541 0.0827 0.3438
N34 N 0.5981(4) -0.0916(3) 0.3189(4)
C172 C 0.6469(6) -0.1153(3) 0.3336(4)
C173 C 0.7102(4) -0.1054(3) 0.3182(4)
H137 H 0.7533 -0.1172 0.3234
C174 C 0.7006(5) -0.0755(3) 0.2940(4)
H138 H 0.7358 -0.0629 0.2795
N35 N 0.6313(5) -0.0670(3) 0.2945(3)
C175 C 0.5983(8) -0.0398(4) 0.2718(6)
H139 H 0.5527 -0.0491 0.2620
H140 H 0.6263 -0.0350 0.2467
N36 N 0.5573(5) -0.1457(3) 0.3666(5)
C176 C 0.6257(6) -0.1450(3) 0.3551(4)
C177 C 0.6689(5) -0.1728(3) 0.3658(5)
H141 H 0.7164 -0.1723 0.3578
C178 C 0.6436(7) -0.2012(3) 0.3880(6)
H142 H 0.6736 -0.2205 0.3954
C179 C 0.5752(7) -0.2019(3) 0.3995(6)
H143 H 0.5577 -0.2216 0.4149
C180 C 0.5321(5) -0.1741(4) 0.3888(6)
H144 H 0.4846 -0.1746 0.3968
B1 B 0.9002(7) 0.0946(4) 0.1368(4)
F1 F 0.9656(6) 0.0956(4) 0.1207(5)
F2 F 0.8539(7) 0.0838(3) 0.1057(4)
F3 F 0.8806(7) 0.1277(3) 0.1501(4)
F4 F 0.8992(6) 0.0712(3) 0.1696(3)
B2 B 0.3618(8) 0.0218(4) 0.1325(5)
F5 F 0.3216(8) -0.0006(4) 0.1085(6)
F6 F 0.3834(8) 0.0043(5) 0.1673(5)
F7 F 0.3241(7) 0.0508(4) 0.1437(5)
F8 F 0.4165(7) 0.0327(4) 0.1100(5)
B3 B 0.0858(7) 0.1606(4) 0.5121(4)
F9 F 0.0623(7) 0.1513(3) 0.5510(3)
F10 F 0.1359(6) 0.1867(3) 0.5169(3)
F11 F 0.0335(6) 0.1741(3) 0.4869(4)
F12 F 0.1135(6) 0.1309(2) 0.4931(3)
B4 B 0.0405(7) 0.1055(3) 0.7087(4)
F13 F 0.1110(5) 0.1088(3) 0.7012(4)
F14 F 0.0055(7) 0.0983(3) 0.6716(3)
F15 F 0.0288(5) 0.0777(2) 0.7363(3)
F16 F 0.0172(5) 0.1373(2) 0.7265(3)
B5 B 0.7752(6) 0.9870(3) 0.2087(4)
F17 F 0.7525(6) 1.0052(3) 0.2433(3)
F18 F 0.7553(4) 1.0051(2) 0.1726(3)
F19 F 0.7470(5) 0.9529(2) 0.2085(3)
F20 F 0.8469(4) 0.9842(2) 0.2099(3)
B6 B 0.3909(9) 0.0922(5) 0.4174(6)
F21 F 0.4199(11) 0.0658(5) 0.4377(6)
F22 F 0.3741(11) 0.1173(5) 0.4440(6)
F23 F 0.3361(11) 0.0810(5) 0.3993(6)
F24 F 0.4340(11) 0.1059(6) 0.3914(6)
B7 B 0.5932(9) 0.0692(5) 0.4713(6)
F25 F 0.6032(16) 0.0883(7) 0.5027(8)
F26 F 0.5278(10) 0.0657(6) 0.4674(8)
F27 F 0.6206(9) 0.0400(5) 0.4765(6)
F28 F 0.6153(12) 0.0846(6) 0.4401(7)
B8 B 0.4474(11) -0.1542(5) 0.1154(7)
F29 F 0.4349(13) -0.1851(6) 0.1341(8)
F30 F 0.4295(15) -0.1566(8) 0.0746(8)
F31 F 0.4104(11) -0.1286(6) 0.1338(7)
F32 F 0.5149(12) -0.1468(7) 0.1184(9)
B9 B 0.7995(13) 0.1630(6) -0.0513(8)
F33 F 0.8728(17) 0.1729(10) -0.0448(12)
F34 F 0.7571(17) 0.1958(8) -0.0517(10)
F35 F 0.7914(18) 0.1445(8) -0.0919(9)
F36 F 0.7762(14) 0.1388(7) -0.0177(8)
C181 C 1.113(2) 0.2554(11) 0.4475(14)
C182 C 1.121(2) 0.2330(14) 0.4146(17)
N37 N 1.155(2) 0.2087(12) 0.3889(15)
C183 C 0.519(2) -0.0521(11) 0.1392(15)
C184 C 0.487(2) -0.0478(10) 0.0997(13)
N38 N 0.5506(16) -0.0597(8) 0.1710(10)
C185? C 0.564(3) -0.1796(16) 0.031(2)
C186? C 0.624(3) -0.1679(16) 0.0041(19)
C187? C 1.077(3) 0.1321(17) 0.155(2)
C188? C 0.932(3) 0.1697(14) 0.0542(17)
C189? C 0.706(3) 0.0453(14) -0.0616(15)
C190? C 0.6774(17) 0.0828(9) -0.0499(10)
C191? C 0.839(3) 0.1020(14) 0.5378(17)
C192? C 0.244(3) 0.1566(15) 0.4451(17)
C193? C 1.032(4) -0.2238(18) 0.141(2)
C194? C 1.165(3) -0.1354(15) 0.2498(18)
C195? C 1.172(2) 0.1459(10) 0.1756(12)
C196? C 0.768(4) 0.1285(19) 0.444(2)
C197? C 0.907(3) 0.1968(15) 0.4265(18)
C198? C 0.889(2) 0.2046(12) 0.0890(14)
C199? C 1.225(2) 0.1342(11) 0.1732(14)
C200? C 0.898(3) 0.2328(15) 0.3885(18)
C201? C 0.495(2) 0.2475(12) 0.0477(14)
C202? C 0.2774(15) -0.0719(8) 0.1701(9)
C203? C 1.089(3) -0.2803(15) 0.1487(17)
C204? C 1.106(4) -0.245(2) 0.135(3)
N39? N 0.675(3) -0.1890(16) -0.0094(19)
loop_
_geom_bond_atom_site_label_1
_geom_bond_atom_site_label_2
_geom_bond_site_symmetry_1
_geom_bond_site_symmetry_2
Co1 N1 1_555 1_555
Co2 N4 1_555 1_555
Co3 N16 1_555 1_555
Co4 N10 1_555 1_555
N1 C1 1_555 1_555
C1 C2 1_555 1_555
C2 H1 1_555 1_555
C3 C2 1_555 1_555
H2 C3 1_555 1_555
C4 C3 1_555 1_555
H3 C4 1_555 1_555
C5 N1 1_555 1_555
H4 C5 1_555 1_555
N2 Co1 1_555 1_555
C6 C1 1_555 1_555
C7 C6 1_555 1_555
H5 C7 1_555 1_555
C8 C7 1_555 1_555
H6 C8 1_555 1_555
N3 N2 1_555 1_555
C9 N3 1_555 1_555
H7 C9 1_555 1_555
H8 C9 1_555 1_555
C10 C9 1_555 1_555
C11 C10 1_555 1_555
H9 C11 1_555 1_555
C12 C11 1_555 1_555
C13 C12 1_555 1_555
H10 C13 1_555 1_555
C14 C13 1_555 1_555
H11 C14 1_555 1_555
C15 C10 1_555 1_555
H12 C15 1_555 1_555
C16 C12 1_555 1_555
C17 C16 1_555 1_555
H13 C17 1_555 1_555
C18 C17 1_555 1_555
C19 C18 1_555 1_555
H14 C19 1_555 1_555
C20 C19 1_555 1_555
H15 C20 1_555 1_555
C21 C16 1_555 1_555
H16 C21 1_555 1_555
N4 C22 1_555 1_555
C22 C23 1_555 1_555
C23 H17 1_555 1_555
C24 C23 1_555 1_555
H18 C24 1_555 1_555
N5 N4 1_555 1_555
C25 C18 1_555 1_555
H19 C25 1_555 1_555
H20 C25 1_555 1_555
N6 Co2 1_555 1_555
C26 C22 1_555 1_555
C27 C26 1_555 1_555
H21 C27 1_555 1_555
C28 C27 1_555 1_555
H22 C28 1_555 1_555
C29 C28 1_555 1_555
H23 C29 1_555 1_555
C30 N6 1_555 1_555
H24 C30 1_555 1_555
N7 Co1 1_555 1_555
C31 N7 1_555 1_555
C32 C31 1_555 1_555
H25 C32 1_555 1_555
C33 C32 1_555 1_555
H26 C33 1_555 1_555
C34 C33 1_555 1_555
H27 C34 1_555 1_555
C35 N7 1_555 1_555
H28 C35 1_555 1_555
N8 Co1 1_555 1_555
C36 C31 1_555 1_555
C37 C36 1_555 1_555
H29 C37 1_555 1_555
C38 C37 1_555 1_555
H30 C38 1_555 1_555
N9 N8 1_555 1_555
C39 N9 1_555 1_555
H31 C39 1_555 1_555
H32 C39 1_555 1_555
C40 C39 1_555 1_555
C41 C40 1_555 1_555
H33 C41 1_555 1_555
C42 C41 1_555 1_555
C43 C42 1_555 1_555
H34 C43 1_555 1_555
C44 C43 1_555 1_555
H35 C44 1_555 1_555
C45 C40 1_555 1_555
H36 C45 1_555 1_555
C46 C42 1_555 1_555
C47 C46 1_555 1_555
H37 C47 1_555 1_555
C48 C47 1_555 1_555
C49 C48 1_555 1_555
H38 C49 1_555 1_555
C50 C49 1_555 1_555
H39 C50 1_555 1_555
C51 C46 1_555 1_555
H40 C51 1_555 1_555
N10 C52 1_555 1_555
C52 C53 1_555 1_555
C53 H41 1_555 1_555
C54 C53 1_555 1_555
H42 C54 1_555 1_555
N11 N10 1_555 1_555
C55 C48 1_555 1_555
H43 C55 1_555 1_555
H44 C55 1_555 1_555
N12 Co4 1_555 1_555
C56 C52 1_555 1_555
C57 C56 1_555 1_555
H45 C57 1_555 1_555
C58 C57 1_555 1_555
H46 C58 1_555 1_555
C59 C58 1_555 1_555
H47 C59 1_555 1_555
C60 N12 1_555 1_555
H48 C60 1_555 1_555
N13 Co1 1_555 1_555
C61 N13 1_555 1_555
C62 C61 1_555 1_555
H49 C62 1_555 1_555
C63 C62 1_555 1_555
H50 C63 1_555 1_555
C64 C63 1_555 1_555
H51 C64 1_555 1_555
C65 N13 1_555 1_555
H52 C65 1_555 1_555
N14 Co1 1_555 1_555
C66 C61 1_555 1_555
C67 C66 1_555 1_555
H53 C67 1_555 1_555
C68 C67 1_555 1_555
H54 C68 1_555 1_555
N15 N14 1_555 1_555
C69 N15 1_555 1_555
H55 C69 1_555 1_555
H56 C69 1_555 1_555
C70 C69 1_555 1_555
C71 C70 1_555 1_555
H57 C71 1_555 1_555
C72 C71 1_555 1_555
C73 C72 1_555 1_555
H58 C73 1_555 1_555
C74 C73 1_555 1_555
H59 C74 1_555 1_555
C75 C70 1_555 1_555
H60 C75 1_555 1_555
C76 C72 1_555 1_555
C77 C76 1_555 1_555
H61 C77 1_555 1_555
C78 C77 1_555 1_555
C79 C78 1_555 1_555
H62 C79 1_555 1_555
C80 C79 1_555 1_555
H63 C80 1_555 1_555
C81 C76 1_555 1_555
H64 C81 1_555 1_555
N16 C82 1_555 1_555
C82 C83 1_555 1_555
C83 H65 1_555 1_555
C84 C83 1_555 1_555
H66 C84 1_555 1_555
N17 N16 1_555 1_555
C85 C78 1_555 1_555
H67 C85 1_555 1_555
H68 C85 1_555 1_555
N18 Co3 1_555 1_555
C86 C82 1_555 1_555
C87 C86 1_555 1_555
H69 C87 1_555 1_555
C88 C87 1_555 1_555
H70 C88 1_555 1_555
C89 C88 1_555 1_555
H71 C89 1_555 1_555
C90 N18 1_555 1_555
H72 C90 1_555 1_555
N19 Co2 1_555 1_555
C91 N19 1_555 1_555
C92 C91 1_555 1_555
H73 C92 1_555 1_555
C93 C92 1_555 1_555
H74 C93 1_555 1_555
C94 C93 1_555 1_555
H75 C94 1_555 1_555
C95 N19 1_555 1_555
H76 C95 1_555 1_555
N20 Co2 1_555 1_555
C96 C91 1_555 1_555
C97 C96 1_555 1_555
H77 C97 1_555 1_555
C98 C97 1_555 1_555
H78 C98 1_555 1_555
N21 N20 1_555 1_555
C99 N21 1_555 1_555
H79 C99 1_555 1_555
H80 C99 1_555 1_555
C100 C99 1_555 1_555
C101 C100 1_555 1_555
H81 C101 1_555 1_555
C102 C101 1_555 1_555
C103 C102 1_555 1_555
H82 C103 1_555 1_555
C104 C103 1_555 1_555
H83 C104 1_555 1_555
C105 C100 1_555 1_555
H84 C105 1_555 1_555
C106 C102 1_555 1_555
C107 C106 1_555 1_555
H85 C107 1_555 1_555
C108 C107 1_555 1_555
C109 C108 1_555 1_555
H86 C109 1_555 1_555
C110 C109 1_555 1_555
H87 C110 1_555 1_555
C111 C106 1_555 1_555
H88 C111 1_555 1_555
N22 Co3 1_555 1_555
C112 N22 1_555 1_555
C113 C112 1_555 1_555
H89 C113 1_555 1_555
C114 C113 1_555 1_555
H90 C114 1_555 1_555
N23 N22 1_555 1_555
C115 C108 1_555 1_555
H91 C115 1_555 1_555
H92 C115 1_555 1_555
N24 Co3 1_555 1_555
C116 C112 1_555 1_555
C117 C116 1_555 1_555
H93 C117 1_555 1_555
C118 C117 1_555 1_555
H94 C118 1_555 1_555
C119 C118 1_555 1_555
H95 C119 1_555 1_555
C120 N24 1_555 1_555
H96 C120 1_555 1_555
N25 Co2 1_555 1_555
C121 N25 1_555 1_555
C122 C121 1_555 1_555
H97 C122 1_555 1_555
C123 C122 1_555 1_555
H98 C123 1_555 1_555
C124 C123 1_555 1_555
H99 C124 1_555 1_555
C125 N25 1_555 1_555
H100 C125 1_555 1_555
N26 Co2 1_555 1_555
C126 C121 1_555 1_555
C127 C126 1_555 1_555
H101 C127 1_555 1_555
C128 C127 1_555 1_555
H102 C128 1_555 1_555
N27 N26 1_555 1_555
C129 N27 1_555 1_555
H103 C129 1_555 1_555
H104 C129 1_555 1_555
C130 C129 1_555 1_555
C131 C130 1_555 1_555
H105 C131 1_555 1_555
C132 C131 1_555 1_555
C133 C132 1_555 1_555
H106 C133 1_555 1_555
C134 C133 1_555 1_555
H107 C134 1_555 1_555
C135 C130 1_555 1_555
H108 C135 1_555 1_555
C136 C132 1_555 1_555
C137 C136 1_555 1_555
H109 C137 1_555 1_555
C138 C137 1_555 1_555
C139 C138 1_555 1_555
H110 C139 1_555 1_555
C140 C139 1_555 1_555
H111 C140 1_555 1_555
C141 C136 1_555 1_555
H112 C141 1_555 1_555
N28 Co4 1_555 1_555
C142 N28 1_555 1_555
C143 C142 1_555 1_555
H113 C143 1_555 1_555
C144 C143 1_555 1_555
H114 C144 1_555 1_555
N29 N28 1_555 1_555
C145 C138 1_555 1_555
H115 C145 1_555 1_555
H116 C145 1_555 1_555
N30 Co4 1_555 1_555
C146 C142 1_555 1_555
C147 C146 1_555 1_555
H117 C147 1_555 1_555
C148 C147 1_555 1_555
H118 C148 1_555 1_555
C149 C148 1_555 1_555
H119 C149 1_555 1_555
C150 N30 1_555 1_555
H120 C150 1_555 1_555
N31 Co3 1_555 1_555
C151 N31 1_555 1_555
C152 C151 1_555 1_555
H121 C152 1_555 1_555
C153 C152 1_555 1_555
H122 C153 1_555 1_555
C154 C153 1_555 1_555
H123 C154 1_555 1_555
C155 N31 1_555 1_555
H124 C155 1_555 1_555
N32 Co3 1_555 1_555
C156 C151 1_555 1_555
C157 C156 1_555 1_555
H125 C157 1_555 1_555
C158 C157 1_555 1_555
H126 C158 1_555 1_555
N33 N32 1_555 1_555
C159 N33 1_555 1_555
H127 C159 1_555 1_555
H128 C159 1_555 1_555
C160 C159 1_555 1_555
C161 C160 1_555 1_555
H129 C161 1_555 1_555
C162 C161 1_555 1_555
C163 C162 1_555 1_555
H130 C163 1_555 1_555
C164 C163 1_555 1_555
H131 C164 1_555 1_555
C165 C160 1_555 1_555
H132 C165 1_555 1_555
C166 C162 1_555 1_555
C167 C166 1_555 1_555
H133 C167 1_555 1_555
C168 C167 1_555 1_555
C169 C168 1_555 1_555
H134 C169 1_555 1_555
C170 C169 1_555 1_555
H135 C170 1_555 1_555
C171 C166 1_555 1_555
H136 C171 1_555 1_555
N34 Co4 1_555 1_555
C172 N34 1_555 1_555
C173 C172 1_555 1_555
H137 C173 1_555 1_555
C174 C173 1_555 1_555
H138 C174 1_555 1_555
N35 N34 1_555 1_555
C175 C168 1_555 1_555
H139 C175 1_555 1_555
H140 C175 1_555 1_555
N36 Co4 1_555 1_555
C176 C172 1_555 1_555
C177 C176 1_555 1_555
H141 C177 1_555 1_555
C178 C177 1_555 1_555
H142 C178 1_555 1_555
C179 C178 1_555 1_555
H143 C179 1_555 1_555
C180 N36 1_555 1_555
H144 C180 1_555 1_555
B1 F1 1_555 1_555
F2 B1 1_555 1_555
F3 B1 1_555 1_555
F4 B1 1_555 1_555
B2 F5 1_555 1_555
F6 B2 1_555 1_555
F7 B2 1_555 1_555
F8 B2 1_555 1_555
B3 F9 1_555 1_555
F10 B3 1_555 1_555
F11 B3 1_555 1_555
F12 B3 1_555 1_555
B4 F13 1_555 1_555
F14 B4 1_555 1_555
F15 B4 1_555 1_555
F16 B4 1_555 1_555
B5 F17 1_555 1_555
F18 B5 1_555 1_555
F19 B5 1_555 1_555
F20 B5 1_555 1_555
B6 F21 1_555 1_555
F22 B6 1_555 1_555
F23 B6 1_555 1_555
F24 B6 1_555 1_555
B7 F25 1_555 1_555
F26 B7 1_555 1_555
F27 B7 1_555 1_555
F28 B7 1_555 1_555
B8 F29 1_555 1_555
F30 B8 1_555 1_555
F31 B8 1_555 1_555
F32 B8 1_555 1_555
B9 F33 1_555 1_555
F34 B9 1_555 1_555
F35 B9 1_555 1_555
F36 B9 1_555 1_555
C181 C182 1_555 1_555
C182 N37 1_555 1_555
C183 C184 1_555 1_555
N38 C183 1_555 1_555
C4 C5 1_555 1_555
N2 C6 1_555 1_555
C8 N3 1_555 1_555
C14 C15 1_555 1_555
C20 C21 1_555 1_555
C24 N5 1_555 1_555
N5 C25 1_555 1_555
N6 C26 1_555 1_555
C29 C30 1_555 1_555
C34 C35 1_555 1_555
N8 C36 1_555 1_555
C38 N9 1_555 1_555
C44 C45 1_555 1_555
C50 C51 1_555 1_555
C54 N11 1_555 1_555
N11 C55 1_555 1_555
N12 C56 1_555 1_555
C59 C60 1_555 1_555
C64 C65 1_555 1_555
N14 C66 1_555 1_555
C68 N15 1_555 1_555
C74 C75 1_555 1_555
C80 C81 1_555 1_555
C84 N17 1_555 1_555
N17 C85 1_555 1_555
N18 C86 1_555 1_555
C89 C90 1_555 1_555
C94 C95 1_555 1_555
N20 C96 1_555 1_555
C98 N21 1_555 1_555
C104 C105 1_555 1_555
C110 C111 1_555 1_555
C114 N23 1_555 1_555
N23 C115 1_555 1_555
N24 C116 1_555 1_555
C119 C120 1_555 1_555
C124 C125 1_555 1_555
N26 C126 1_555 1_555
C128 N27 1_555 1_555
C134 C135 1_555 1_555
C140 C141 1_555 1_555
C144 N29 1_555 1_555
N29 C145 1_555 1_555
N30 C146 1_555 1_555
C149 C150 1_555 1_555
C154 C155 1_555 1_555
N32 C156 1_555 1_555
C158 N33 1_555 1_555
C164 C165 1_555 1_555
C170 C171 1_555 1_555
C174 N35 1_555 1_555
N35 C175 1_555 1_555
N36 C176 1_555 1_555
C179 C180 1_555 1_555

#END
