
#######################################################################
#
#                 Cambridge Crystallographic Data Centre
#                                CCDC 
#
#######################################################################
#
# If this CIF has been generated from an entry in the Cambridge 
# Structural Database, then it will include bibliographic, chemical, 
# crystal, experimental, refinement or atomic coordinate data resulting 
# from the CCDC's data processing and validation procedures.
#
#######################################################################

data_WASQAJ
_chemical_formula_moiety         
'C90 H120 N30 Pd6 12+,2(C10 H14 O4 Pt1),12(N1 O3 1-),40(H2 O1)'
_chemical_name_systematic        
"bis(\m~3~-2,4,6-tris(4-Pyridyl)-1,3,5-triazine)-tris(\m~2~-2,2',6,6'-tetramethyl-4,4'-bipyridyl)-hexakis(ethylene-1,2-diamine)-hexa-palladium(ii) bis(bis(2,4-pentanedionato)-platinum(ii)) clathrate dodecanitrate hydrate"
_symmetry_cell_setting           monoclinic
_symmetry_space_group_name_H-M   'P 21/c'
_symmetry_Int_Tables_number      14
_space_group_name_Hall           '-P 2ybc'
loop_
_symmetry_equiv_pos_site_id
_symmetry_equiv_pos_as_xyz
1 x,y,z
2 -x,1/2+y,1/2-z
3 -x,-y,-z
4 x,1/2-y,1/2+z
_cell_length_a                   18.682(3)
_cell_length_b                   36.535(6)
_cell_length_c                   26.576(4)
_cell_angle_alpha                90
_cell_angle_beta                 108.157(3)
_cell_angle_gamma                90
_cell_volume                     17236.1
_exptl_crystal_colour            orange
_exptl_crystal_description       block
_cell_formula_units_Z            4
_exptl_crystal_recrystallization_method water
loop_
_atom_site_label
_atom_site_type_symbol
_atom_site_fract_x
_atom_site_fract_y
_atom_site_fract_z
Pt1 Pt 0.29911(5) 0.74899(2) 0.24894(3)
O1 O 0.2082(8) 0.7183(4) 0.2244(5)
O2 O 0.2455(9) 0.7965(4) 0.2349(6)
O3 O 0.3889(7) 0.7800(4) 0.2721(5)
O4 O 0.3534(9) 0.7008(4) 0.2622(6)
C1 C 0.0783(12) 0.7045(7) 0.1861(10)
H1 H 0.0987 0.6802 0.1921
H2 H 0.0536 0.7080 0.1489
H3 H 0.0427 0.7078 0.2051
C2 C 0.1403(13) 0.7316(6) 0.2050(8)
C3 C 0.1253(13) 0.7695(7) 0.2009(9)
H4 H 0.0747 0.7757 0.1869
C4 C 0.1738(12) 0.7989(6) 0.2142(8)
C5 C 0.1443(14) 0.8373(7) 0.2054(10)
H5 H 0.1854 0.8542 0.2169
H6 H 0.1100 0.8413 0.2253
H7 H 0.1184 0.8409 0.1684
C6 C 0.5185(13) 0.7941(6) 0.3026(10)
H8 H 0.4975 0.8183 0.2993
H9 H 0.5483 0.7915 0.2792
H10 H 0.5497 0.7902 0.3385
C7 C 0.4565(14) 0.7666(6) 0.2884(8)
C8 C 0.4746(13) 0.7300(6) 0.2902(8)
H11 H 0.5257 0.7245 0.3001
C9 C 0.4248(14) 0.6997(6) 0.2787(8)
C10 C 0.4581(16) 0.6612(7) 0.2871(11)
H12 H 0.4181 0.6435 0.2776
H13 H 0.4870 0.6581 0.3237
H14 H 0.4901 0.6578 0.2654
Pt2 Pt 0.30026(5) 0.75339(2) 0.37385(3)
O5 O 0.2435(9) 0.7066(4) 0.3628(6)
O6 O 0.2120(7) 0.7856(4) 0.3499(5)
O7 O 0.3566(8) 0.8010(4) 0.3869(6)
O8 O 0.3874(7) 0.7219(4) 0.3979(5)
C11 C 0.1371(15) 0.6690(6) 0.3379(11)
H15 H 0.1764 0.6510 0.3469
H16 H 0.1065 0.6657 0.3017
H17 H 0.1065 0.6664 0.3607
C12 C 0.1713(12) 0.7065(6) 0.3445(9)
C13 C 0.1252(12) 0.7374(6) 0.3335(8)
H18 H 0.0739 0.7324 0.3233
C14 C 0.1427(13) 0.7747(5) 0.3352(8)
C15 C 0.0836(12) 0.8027(6) 0.3181(9)
H19 H 0.1063 0.8265 0.3219
H20 H 0.0508 0.8011 0.3395
H21 H 0.0550 0.7986 0.2816
C16 C 0.4621(13) 0.8394(6) 0.4151(9)
H22 H 0.4225 0.8572 0.4046
H23 H 0.4947 0.8420 0.3936
H24 H 0.4906 0.8430 0.4516
C17 C 0.4291(11) 0.8021(5) 0.4081(8)
C18 C 0.4749(11) 0.7715(6) 0.4206(8)
H25 H 0.5262 0.7765 0.4340
C19 C 0.4566(12) 0.7345(6) 0.4164(8)
C20 C 0.5193(14) 0.7062(7) 0.4330(10)
H26 H 0.4979 0.6821 0.4278
H27 H 0.5472 0.7096 0.4697
H28 H 0.5524 0.7091 0.4119
Pd1 Pd 0.35154(10) 0.54702(4) 0.11870(7)
Pd2 Pd 0.57593(9) 0.89145(4) 0.18920(6)
Pd3 Pd -0.13709(11) 0.82427(6) 0.00385(8)
Pd4 Pd 0.25093(11) 0.55339(5) 0.51046(7)
Pd5 Pd 0.73779(10) 0.82519(5) 0.61864(7)
Pd6 Pd 0.01838(11) 0.89913(5) 0.42992(9)
N1 N 0.3223(10) 0.6009(5) 0.1227(5)
N2 N 0.4901(9) 0.8531(5) 0.1753(4)
N3 N -0.0322(10) 0.8034(5) 0.0288(4)
N4 N 0.3335(10) 0.7390(4) 0.1291(3)
N5 N 0.2458(10) 0.7866(5) 0.1058(3)
N6 N 0.2020(10) 0.7251(4) 0.0921(3)
C21 C 0.3726(17) 0.6266(8) 0.1373(6)
H29 H 0.4221 0.6184 0.1509
C22 C 0.3643(15) 0.6635(7) 0.1358(5)
H30 H 0.4050 0.6794 0.1475
C23 C 0.2933(11) 0.6752(5) 0.1164(4)
C24 C 0.2342(14) 0.6505(6) 0.0994(5)
H31 H 0.1844 0.6582 0.0857
C25 C 0.2536(14) 0.6135(6) 0.1039(6)
H32 H 0.2148 0.5965 0.0927
C26 C 0.4185(12) 0.8635(6) 0.1556(5)
H33 H 0.4067 0.8883 0.1529
C27 C 0.3634(12) 0.8389(6) 0.1397(4)
H34 H 0.3137 0.8467 0.1261
C28 C 0.3798(12) 0.8012(5) 0.1434(4)
C29 C 0.4525(13) 0.7914(6) 0.1634(4)
H35 H 0.4668 0.7670 0.1668
C30 C 0.5024(14) 0.8176(6) 0.1779(5)
H36 H 0.5524 0.8102 0.1916
C31 C -0.0178(14) 0.7676(7) 0.0319(5)
H37 H -0.0586 0.7518 0.0202
C32 C 0.0544(14) 0.7519(7) 0.0516(5)
H38 H 0.0613 0.7266 0.0530
C33 C 0.1146(11) 0.7758(6) 0.0690(4)
C34 C 0.0284(12) 0.8261(6) 0.0462(5)
H39 H 0.0210 0.8513 0.0447
C35 C 0.0975(14) 0.8131(6) 0.0651(5)
H40 H 0.1371 0.8296 0.0765
C36 C 0.2748(12) 0.7155(5) 0.1122(4)
C37 C 0.3159(12) 0.7747(5) 0.1250(4)
C38 C 0.1920(12) 0.7618(5) 0.0902(4)
N7 N 0.2786(10) 0.6084(6) 0.5047(5)
N8 N 0.6290(12) 0.8076(5) 0.5892(5)
N9 N 0.1031(11) 0.8608(5) 0.4445(5)
N10 N 0.3896(10) 0.7324(4) 0.5284(3)
N11 N 0.3504(10) 0.7948(5) 0.5146(3)
N12 N 0.2593(9) 0.7454(4) 0.4925(3)
C39 C 0.3479(14) 0.6206(6) 0.5228(6)
H41 H 0.3874 0.6040 0.5343
C40 C 0.3628(16) 0.6570(7) 0.5250(5)
H42 H 0.4123 0.6652 0.5379
C41 C 0.3029(13) 0.6825(6) 0.5075(5)
C42 C 0.2326(15) 0.6694(6) 0.4892(5)
H43 H 0.1934 0.6862 0.4778
C43 C 0.2144(15) 0.6327(8) 0.4862(6)
H44 H 0.1651 0.6242 0.4733
C44 C 0.5737(11) 0.8306(6) 0.5731(5)
H45 H 0.5843 0.8555 0.5747
C45 C 0.4978(11) 0.8190(5) 0.5532(4)
H46 H 0.4590 0.8360 0.5418
C46 C 0.4822(12) 0.7815(5) 0.5509(4)
C47 C 0.5412(14) 0.7579(7) 0.5680(5)
H47 H 0.5330 0.7328 0.5671
C48 C 0.6131(16) 0.7717(8) 0.5868(5)
H48 H 0.6529 0.7553 0.5984
C49 C 0.0886(12) 0.8247(6) 0.4424(5)
H49 H 0.0384 0.8176 0.4292
C50 C 0.1404(13) 0.7976(7) 0.4578(5)
H50 H 0.1266 0.7730 0.4553
C51 C 0.2186(13) 0.8088(6) 0.4783(4)
C52 C 0.1765(12) 0.8715(6) 0.4638(5)
H51 H 0.1882 0.8963 0.4656
C53 C 0.2336(15) 0.8462(6) 0.4805(5)
H52 H 0.2832 0.8543 0.4934
C54 C 0.3190(12) 0.7224(5) 0.5098(4)
C55 C 0.4044(12) 0.7683(5) 0.5305(4)
C56 C 0.2793(12) 0.7813(5) 0.4961(4)
N13 N 0.3369(10) 0.5446(4) 0.1929(7)
C57 C 0.4707(14) 0.5630(7) 0.2302(10)
H53 H 0.4675 0.5613 0.1935
H54 H 0.5076 0.5460 0.2505
H55 H 0.4852 0.5874 0.2426
C58 C 0.3941(12) 0.5541(5) 0.2366(9)
C59 C 0.3830(13) 0.5546(5) 0.2858(9)
H56 H 0.4231 0.5601 0.3157
C60 C 0.3123(12) 0.5469(5) 0.2911(8)
C61 C 0.2548(12) 0.5365(5) 0.2462(8)
H57 H 0.2076 0.5302 0.2484
C62 C 0.2693(11) 0.5356(5) 0.1969(9)
C63 C 0.2061(13) 0.5238(6) 0.1476(10)
H58 H 0.2239 0.5245 0.1174
H59 H 0.1641 0.5401 0.1420
H60 H 0.1906 0.4993 0.1524
C64 C 0.3942(14) 0.5252(7) 0.4852(10)
H61 H 0.3746 0.5279 0.5144
H62 H 0.4405 0.5386 0.4924
H63 H 0.4033 0.4998 0.4804
C65 C 0.3381(14) 0.5399(6) 0.4358(10)
C66 C 0.3538(13) 0.5391(6) 0.3892(8)
H64 H 0.4013 0.5320 0.3885
C67 C 0.2995(12) 0.5489(5) 0.3429(8)
C68 C 0.2265(11) 0.5583(5) 0.3449(7)
H65 H 0.1885 0.5638 0.3138
C69 C 0.2115(12) 0.5592(5) 0.3931(8)
C70 C 0.1392(12) 0.5708(6) 0.3965(9)
H66 H 0.1396 0.5696 0.4327
H67 H 0.1006 0.5549 0.3752
H68 H 0.1294 0.5955 0.3838
N14 N 0.2668(10) 0.5497(4) 0.4367(6)
N15 N 0.6037(9) 0.8771(4) 0.2672(7)
C71 C 0.5068(12) 0.9200(6) 0.2749(9)
H69 H 0.4869 0.9299 0.3012
H70 H 0.4676 0.9074 0.2485
H71 H 0.5259 0.9395 0.2585
C72 C 0.5712(11) 0.8930(5) 0.3013(9)
C73 C 0.5940(12) 0.8873(5) 0.3530(8)
H72 H 0.5712 0.9000 0.3742
C74 C 0.6514(13) 0.8626(5) 0.3764(7)
C75 C 0.6873(12) 0.8460(6) 0.3423(8)
H73 H 0.7261 0.8292 0.3557
C76 C 0.6642(11) 0.8550(5) 0.2880(9)
C77 C 0.7071(13) 0.8398(7) 0.2541(9)
H74 H 0.6848 0.8480 0.2183
H75 H 0.7058 0.8135 0.2551
H76 H 0.7584 0.8480 0.2670
C78 C 0.7339(15) 0.9030(7) 0.5650(9)
H77 H 0.7481 0.8919 0.5995
H78 H 0.6915 0.9188 0.5610
H79 H 0.7754 0.9169 0.5612
C79 C 0.7130(12) 0.8734(6) 0.5232(8)
C80 C 0.6912(13) 0.8825(6) 0.4705(9)
H80 H 0.6857 0.9069 0.4601
C81 C 0.6771(11) 0.8543(5) 0.4320(8)
C82 C 0.6903(12) 0.8189(5) 0.4502(8)
H81 H 0.6852 0.8000 0.4259
C83 C 0.7113(12) 0.8105(6) 0.5046(9)
C84 C 0.7217(18) 0.7722(6) 0.5221(10)
H82 H 0.7360 0.7712 0.5601
H83 H 0.7605 0.7612 0.5105
H84 H 0.6754 0.7590 0.5073
N16 N 0.7211(10) 0.8379(4) 0.5405(7)
N17 N -0.1113(10) 0.8413(6) 0.0815(9)
C85 C -0.1305(19) 0.7769(9) 0.1042(12)
H85 H -0.1239 0.7622 0.1352
H86 H -0.1004 0.7672 0.0839
H87 H -0.1825 0.7768 0.0831
C86 C -0.1063(13) 0.8153(7) 0.1203(10)
C87 C -0.0843(12) 0.8260(7) 0.1723(10)
H88 H -0.0838 0.8090 0.1984
C88 C -0.0628(13) 0.8617(7) 0.1868(11)
C89 C -0.0642(14) 0.8852(7) 0.1474(11)
H89 H -0.0451 0.9087 0.1562
C90 C -0.0920(15) 0.8763(8) 0.0961(11)
C91 C -0.0998(15) 0.9042(6) 0.0523(11)
H90 H -0.1205 0.8926 0.0185
H91 H -0.0512 0.9142 0.0551
H92 H -0.1328 0.9236 0.0557
C92 C -0.1062(13) 0.8497(6) 0.3621(10)
H93 H -0.0853 0.8587 0.3976
H94 H -0.1035 0.8234 0.3624
H95 H -0.1579 0.8572 0.3482
C93 C -0.0636(12) 0.8644(6) 0.3290(10)
C94 C -0.0825(12) 0.8552(7) 0.2752(10)
H96 H -0.1208 0.8385 0.2603
C95 C -0.0423(13) 0.8719(7) 0.2441(10)
C96 C 0.0139(13) 0.8961(6) 0.2671(12)
H97 H 0.0402 0.9073 0.2468
C97 C 0.0323(15) 0.9042(7) 0.3210(14)
C98 C 0.0996(15) 0.9299(7) 0.3476(12)
H98 H 0.1046 0.9325 0.3845
H99 H 0.0908 0.9535 0.3309
H100 H 0.1450 0.9196 0.3440
N18 N -0.0060(11) 0.8872(5) 0.3517(8)
N19 N 0.3880(11) 0.4945(5) 0.1215(7)
H101 H 0.4370 0.4933 0.1408
H102 H 0.3616 0.4802 0.1369
N20 N 0.3607(10) 0.5457(5) 0.0432(7)
H103 H 0.3146 0.5460 0.0190
H104 H 0.3861 0.5655 0.0379
N21 N 0.6605(10) 0.9282(5) 0.2039(6)
H105 H 0.6663 0.9391 0.2353
H106 H 0.7038 0.9167 0.2057
N22 N 0.5503(10) 0.9120(5) 0.1134(7)
H107 H 0.5447 0.8935 0.0901
H108 H 0.5067 0.9246 0.1052
N23 N -0.2432(14) 0.8425(8) -0.0170(9)
H109 H -0.2658 0.8346 0.0063
H110 H -0.2434 0.8672 -0.0167
N24 N -0.1636(12) 0.8086(7) -0.0736(8)
H111 H -0.1253 0.8138 -0.0862
H112 H -0.1719 0.7843 -0.0764
N25 N 0.2148(14) 0.5001(5) 0.5089(9)
H113 H 0.1675 0.4981 0.4868
H114 H 0.2446 0.4854 0.4969
N26 N 0.2375(12) 0.5536(6) 0.5851(8)
H115 H 0.2823 0.5574 0.6100
H116 H 0.2060 0.5717 0.5874
N27 N 0.8483(10) 0.8408(5) 0.6445(7)
H117 H 0.8721 0.8332 0.6216
H118 H 0.8518 0.8654 0.6470
N28 N 0.7573(10) 0.8118(5) 0.6956(7)
H119 H 0.7191 0.8199 0.7065
H120 H 0.7599 0.7873 0.6993
N29 N -0.0641(14) 0.9374(7) 0.4119(12)
H121 H -0.0562 0.9534 0.3883
H122 H -0.1089 0.9265 0.3970
N30 N 0.0298(14) 0.9120(7) 0.5049(11)
H123 H 0.0363 0.8917 0.5249
H124 H 0.0698 0.9268 0.5181
C99 C 0.3776(15) 0.4814(6) 0.0659(9)
H125 H 0.4080 0.4598 0.0665
H126 H 0.3252 0.4753 0.0484
C100 C 0.4016(15) 0.5116(6) 0.0372(10)
H127 H 0.3900 0.5055 0.0000
H128 H 0.4556 0.5154 0.0518
C101 C 0.6439(13) 0.9559(6) 0.1620(9)
H129 H 0.6896 0.9687 0.1625
H130 H 0.6081 0.9736 0.1670
C102 C 0.6115(12) 0.9363(6) 0.1104(8)
H131 H 0.5924 0.9539 0.0821
H132 H 0.6505 0.9220 0.1025
C103 C -0.2853(16) 0.8289(9) -0.0714(13)
H133 H -0.3286 0.8444 -0.0871
H134 H -0.3032 0.8042 -0.0691
C104 C -0.2344(12) 0.8291(9) -0.1054(11)
H135 H -0.2222 0.8539 -0.1125
H136 H -0.2582 0.8168 -0.1388
C105 C 0.217(3) 0.4887(9) 0.5617(15)
H137 H 0.1782 0.4705 0.5587
H138 H 0.2653 0.4772 0.5789
C106 C 0.2065(19) 0.5178(7) 0.5941(11)
H139 H 0.2295 0.5110 0.6309
H140 H 0.1529 0.5207 0.5882
C107 C 0.8825(14) 0.8239(7) 0.6968(9)
H141 H 0.9308 0.8353 0.7144
H142 H 0.8908 0.7980 0.6926
C108 C 0.8308(12) 0.8289(7) 0.7294(8)
H143 H 0.8241 0.8546 0.7357
H144 H 0.8500 0.8164 0.7632
C109 C -0.065(2) 0.9560(11) 0.4573(15)
H145 H -0.1150 0.9658 0.4522
H146 H -0.0301 0.9764 0.4634
C110 C -0.044(2) 0.9319(9) 0.5042(15)
H147 H -0.0837 0.9143 0.5020
H148 H -0.0359 0.9462 0.5362
O9 O 0.6856(8) 0.9543(4) 0.3123(5)
O10 O 0.7894(9) 0.9245(4) 0.3216(6)
O11 O 0.7558(9) 0.9383(4) 0.3912(6)
N31 N 0.7440(10) 0.9389(5) 0.3421(7)
O12 O 0.6315(11) 0.8274(5) 0.7412(8)
O13 O 0.5403(11) 0.7994(5) 0.6871(7)
N32 N 0.5714(13) 0.8291(6) 0.7048(9)
O14 O 0.5475(13) 0.8611(6) 0.6886(9)
O15 O 0.0558(10) 0.7054(5) 0.4346(7)
O16 O -0.0450(12) 0.6764(6) 0.3778(8)
O17 O 0.0514(13) 0.6464(6) 0.4345(9)
N33 N 0.0216(13) 0.6764(6) 0.4165(9)
O18 O 0.2521(11) 0.8665(5) 0.3390(7)
O19 O 0.7800(10) 0.6074(5) 0.6796(7)
O20 O 0.4108(10) 0.5480(5) 0.6249(7)
N34 N 0.4357(12) 0.5149(6) 0.6287(8)
O21 O 0.4818(10) 0.5055(5) 0.6077(7)
O22 O 0.4088(15) 0.4921(7) 0.6536(10)
O23 O 0.3567(10) 0.8604(5) 0.2798(7)
O24 O -0.0414(11) 0.7648(5) 0.3875(8)
O25 O 0.1819(12) 0.5513(6) 0.0196(9)
N35 N 0.1667(15) 0.5262(7) -0.0097(10)
O26 O 0.2147(15) 0.5057(7) -0.0186(10)
O27 O 0.0978(14) 0.5173(6) -0.0319(9)
O28 O 0.6641(12) 0.6921(6) 0.5462(9)
O29 O 0.6306(12) 0.6743(6) 0.6121(9)
N36 N 0.6754(14) 0.6740(7) 0.5846(10)
O30 O 0.7087(18) 0.6423(9) 0.5806(12)
O31 O 0.6408(13) 0.7423(6) 0.7428(9)
O32 O 0.2960(12) 0.5886(6) 0.7001(8)
O33 O 0.2666(11) 0.6346(5) 0.2657(8)
O34 O 0.5508(11) 0.4952(5) 0.1659(8)
O35 O 0.6734(15) 0.8999(7) 0.6791(10)
O36 O 0.3387(12) 0.6378(6) 0.3777(8)
O37 O 0.3527(11) 0.5194(5) 0.7318(7)
O38 O 0.4615(15) 0.5975(7) 0.0214(10)
N37 N 0.4995(16) 0.5826(7) -0.0049(11)
O39 O 0.5636(16) 0.5747(7) 0.0161(11)
O40 O 0.4676(16) 0.5717(8) -0.0514(12)
N38 N 0.9257(19) 0.8275(9) 0.5378(14)
O41 O 0.952(2) 0.8499(13) 0.5772(18)
O42 O 0.923(3) 0.8087(15) 0.572(2)
O43 O 0.963(2) 0.8299(9) 0.5063(14)
O44 O 0.3025(13) 0.9199(6) 0.4196(9)
O45 O 0.9783(17) 0.0804(8) 0.2401(11)
O46 O 0.5833(15) 0.5813(7) 0.3718(10)
O47 O 0.7887(16) 0.7640(8) 0.2049(11)
N39 N 0.843(2) 0.7615(9) 0.2582(13)
O48 O 0.9128(17) 0.7619(7) 0.2714(11)
O49 O 0.811(2) 0.7564(11) 0.2959(16)
O50 O 0.8752(15) 0.9867(7) 0.1101(10)
O51 O 0.8412(15) 0.9624(7) 0.1719(11)
O52 O 0.7651(14) 0.9597(7) 0.0894(10)
N40 N 0.8258(17) 0.9693(8) 0.1236(11)
O53 O 0.6644(16) 0.6105(8) 0.3105(11)
O54 O 0.8802(16) 0.9169(8) 0.6787(11)
O55 O 0.4842(16) 0.8913(7) 0.9215(12)
O56 O 0.564(3) 0.9229(15) 0.984(2)
O57 O 0.5123(18) 0.8734(9) 1.0124(13)
N41 N 0.507(3) 0.8951(16) 0.970(2)
O58 O 0.6224(15) 0.5398(7) 0.1135(10)
O59 O 0.1349(15) 0.0218(7) 0.3824(10)
O60 O 0.962(2) 0.0026(10) 0.2330(14)
O61 O 0.880(2) 0.1082(9) 0.2768(14)
O62 O 0.2596(19) 0.9890(9) 0.3643(13)
O63 O -0.0236(19) 0.5042(10) 0.8485(13)
O64 O 0.124(2) 0.9249(11) 0.1779(17)
O65 O 0.942(2) 0.8872(11) 0.8184(15)
O66 O 0.055(4) 0.501(2) 0.473(3)
O67 O 0.084(4) 0.9855(18) 0.208(3)
O68 O 0.226(4) 0.494(2) 0.756(3)
O69 O 0.015(6) 0.555(3) 0.487(4)
O70 O 0.915(6) 0.092(3) 0.343(4)
O71 O 0.899(6) 0.967(3) 0.282(4)
O72 O 0.206(5) 0.929(3) 0.266(4)
O73 O 0.033(6) 0.503(3) 0.635(5)
O74 O 0.088(7) 0.453(4) 0.631(5)
O75 O 0.544(6) 0.576(3) 0.120(4)
O76 O 0.216(6) 0.423(3) 0.765(5)
O77 O 0.929(3) 0.6015(16) 0.434(2)
O78 O 0.192(10) 0.415(5) 0.654(7)
O79 O 0.1201(19) 0.6003(9) 0.5906(13)
O80 O 0.711(11) 0.573(5) 0.522(7)
O81 O 0.265(11) 0.451(5) 0.714(8)
O82 O -0.012(11) 1.044(6) 0.366(7)
loop_
_geom_bond_atom_site_label_1
_geom_bond_atom_site_label_2
_geom_bond_site_symmetry_1
_geom_bond_site_symmetry_2
Pt1 O1 1_555 1_555
O1 C2 1_555 1_555
O2 Pt1 1_555 1_555
O3 Pt1 1_555 1_555
O4 Pt1 1_555 1_555
C1 H1 1_555 1_555
H2 C1 1_555 1_555
H3 C1 1_555 1_555
C2 C1 1_555 1_555
C3 C2 1_555 1_555
H4 C3 1_555 1_555
C4 O2 1_555 1_555
C5 C4 1_555 1_555
H5 C5 1_555 1_555
H6 C5 1_555 1_555
H7 C5 1_555 1_555
C6 H8 1_555 1_555
H9 C6 1_555 1_555
H10 C6 1_555 1_555
C7 O3 1_555 1_555
C8 C7 1_555 1_555
H11 C8 1_555 1_555
C9 O4 1_555 1_555
C10 C9 1_555 1_555
H12 C10 1_555 1_555
H13 C10 1_555 1_555
H14 C10 1_555 1_555
Pt2 O5 1_555 1_555
O5 C12 1_555 1_555
O6 Pt2 1_555 1_555
O7 Pt2 1_555 1_555
O8 Pt2 1_555 1_555
C11 H15 1_555 1_555
H16 C11 1_555 1_555
H17 C11 1_555 1_555
C12 C11 1_555 1_555
C13 C12 1_555 1_555
H18 C13 1_555 1_555
C14 O6 1_555 1_555
C15 C14 1_555 1_555
H19 C15 1_555 1_555
H20 C15 1_555 1_555
H21 C15 1_555 1_555
C16 H22 1_555 1_555
H23 C16 1_555 1_555
H24 C16 1_555 1_555
C17 O7 1_555 1_555
C18 C17 1_555 1_555
H25 C18 1_555 1_555
C19 O8 1_555 1_555
C20 C19 1_555 1_555
H26 C20 1_555 1_555
H27 C20 1_555 1_555
H28 C20 1_555 1_555
Pd1 N1 1_555 1_555
Pd2 N2 1_555 1_555
Pd3 N3 1_555 1_555
Pd4 N7 1_555 1_555
Pd5 N8 1_555 1_555
Pd6 N9 1_555 1_555
N1 C21 1_555 1_555
N2 C26 1_555 1_555
N3 C31 1_555 1_555
N4 C36 1_555 1_555
N5 C37 1_555 1_555
N6 C36 1_555 1_555
C21 H29 1_555 1_555
C22 C21 1_555 1_555
H30 C22 1_555 1_555
C23 C22 1_555 1_555
C24 C23 1_555 1_555
H31 C24 1_555 1_555
C25 N1 1_555 1_555
H32 C25 1_555 1_555
C26 H33 1_555 1_555
C27 C26 1_555 1_555
H34 C27 1_555 1_555
C28 C27 1_555 1_555
C29 C28 1_555 1_555
H35 C29 1_555 1_555
C30 N2 1_555 1_555
H36 C30 1_555 1_555
C31 H37 1_555 1_555
C32 C31 1_555 1_555
H38 C32 1_555 1_555
C33 C32 1_555 1_555
C34 N3 1_555 1_555
H39 C34 1_555 1_555
C35 C33 1_555 1_555
H40 C35 1_555 1_555
C36 C23 1_555 1_555
C37 N4 1_555 1_555
C38 N5 1_555 1_555
N7 C39 1_555 1_555
N8 C44 1_555 1_555
N9 C49 1_555 1_555
N10 C54 1_555 1_555
N11 C55 1_555 1_555
N12 C54 1_555 1_555
C39 H41 1_555 1_555
C40 C39 1_555 1_555
H42 C40 1_555 1_555
C41 C40 1_555 1_555
C42 C41 1_555 1_555
H43 C42 1_555 1_555
C43 N7 1_555 1_555
H44 C43 1_555 1_555
C44 H45 1_555 1_555
C45 C44 1_555 1_555
H46 C45 1_555 1_555
C46 C45 1_555 1_555
C47 C46 1_555 1_555
H47 C47 1_555 1_555
C48 N8 1_555 1_555
H48 C48 1_555 1_555
C49 H49 1_555 1_555
C50 C49 1_555 1_555
H50 C50 1_555 1_555
C51 C50 1_555 1_555
C52 N9 1_555 1_555
H51 C52 1_555 1_555
C53 C51 1_555 1_555
H52 C53 1_555 1_555
C54 C41 1_555 1_555
C55 N10 1_555 1_555
C56 N11 1_555 1_555
N13 Pd1 1_555 1_555
C57 H53 1_555 1_555
H54 C57 1_555 1_555
H55 C57 1_555 1_555
C58 N13 1_555 1_555
C59 C58 1_555 1_555
H56 C59 1_555 1_555
C60 C59 1_555 1_555
C61 C60 1_555 1_555
H57 C61 1_555 1_555
C62 N13 1_555 1_555
C63 C62 1_555 1_555
H58 C63 1_555 1_555
H59 C63 1_555 1_555
H60 C63 1_555 1_555
C64 H61 1_555 1_555
H62 C64 1_555 1_555
H63 C64 1_555 1_555
C65 C64 1_555 1_555
C66 C65 1_555 1_555
H64 C66 1_555 1_555
C67 C60 1_555 1_555
C68 C67 1_555 1_555
H65 C68 1_555 1_555
C69 C68 1_555 1_555
C70 C69 1_555 1_555
H66 C70 1_555 1_555
H67 C70 1_555 1_555
H68 C70 1_555 1_555
N14 Pd4 1_555 1_555
N15 Pd2 1_555 1_555
C71 H69 1_555 1_555
H70 C71 1_555 1_555
H71 C71 1_555 1_555
C72 N15 1_555 1_555
C73 C72 1_555 1_555
H72 C73 1_555 1_555
C74 C73 1_555 1_555
C75 C74 1_555 1_555
H73 C75 1_555 1_555
C76 N15 1_555 1_555
C77 C76 1_555 1_555
H74 C77 1_555 1_555
H75 C77 1_555 1_555
H76 C77 1_555 1_555
C78 H77 1_555 1_555
H78 C78 1_555 1_555
H79 C78 1_555 1_555
C79 C78 1_555 1_555
C80 C79 1_555 1_555
H80 C80 1_555 1_555
C81 C74 1_555 1_555
C82 C81 1_555 1_555
H81 C82 1_555 1_555
C83 C82 1_555 1_555
C84 C83 1_555 1_555
H82 C84 1_555 1_555
H83 C84 1_555 1_555
H84 C84 1_555 1_555
N16 Pd5 1_555 1_555
N17 Pd3 1_555 1_555
C85 H85 1_555 1_555
H86 C85 1_555 1_555
H87 C85 1_555 1_555
C86 N17 1_555 1_555
C87 C86 1_555 1_555
H88 C87 1_555 1_555
C88 C87 1_555 1_555
C89 C88 1_555 1_555
H89 C89 1_555 1_555
C90 N17 1_555 1_555
C91 C90 1_555 1_555
H90 C91 1_555 1_555
H91 C91 1_555 1_555
H92 C91 1_555 1_555
C92 H93 1_555 1_555
H94 C92 1_555 1_555
H95 C92 1_555 1_555
C93 C92 1_555 1_555
C94 C93 1_555 1_555
H96 C94 1_555 1_555
C95 C88 1_555 1_555
C96 C95 1_555 1_555
H97 C96 1_555 1_555
C97 C96 1_555 1_555
C98 C97 1_555 1_555
H98 C98 1_555 1_555
H99 C98 1_555 1_555
H100 C98 1_555 1_555
N18 Pd6 1_555 1_555
N19 Pd1 1_555 1_555
H101 N19 1_555 1_555
H102 N19 1_555 1_555
N20 Pd1 1_555 1_555
H103 N20 1_555 1_555
H104 N20 1_555 1_555
N21 Pd2 1_555 1_555
H105 N21 1_555 1_555
H106 N21 1_555 1_555
N22 Pd2 1_555 1_555
H107 N22 1_555 1_555
H108 N22 1_555 1_555
N23 Pd3 1_555 1_555
H109 N23 1_555 1_555
H110 N23 1_555 1_555
N24 Pd3 1_555 1_555
H111 N24 1_555 1_555
H112 N24 1_555 1_555
N25 Pd4 1_555 1_555
H113 N25 1_555 1_555
H114 N25 1_555 1_555
N26 Pd4 1_555 1_555
H115 N26 1_555 1_555
H116 N26 1_555 1_555
N27 Pd5 1_555 1_555
H117 N27 1_555 1_555
H118 N27 1_555 1_555
N28 Pd5 1_555 1_555
H119 N28 1_555 1_555
H120 N28 1_555 1_555
N29 Pd6 1_555 1_555
H121 N29 1_555 1_555
H122 N29 1_555 1_555
N30 Pd6 1_555 1_555
H123 N30 1_555 1_555
H124 N30 1_555 1_555
C99 N19 1_555 1_555
H125 C99 1_555 1_555
H126 C99 1_555 1_555
C100 N20 1_555 1_555
H127 C100 1_555 1_555
H128 C100 1_555 1_555
C101 N21 1_555 1_555
H129 C101 1_555 1_555
H130 C101 1_555 1_555
C102 N22 1_555 1_555
H131 C102 1_555 1_555
H132 C102 1_555 1_555
C103 N23 1_555 1_555
H133 C103 1_555 1_555
H134 C103 1_555 1_555
C104 N24 1_555 1_555
H135 C104 1_555 1_555
H136 C104 1_555 1_555
C105 N25 1_555 1_555
H137 C105 1_555 1_555
H138 C105 1_555 1_555
C106 N26 1_555 1_555
H139 C106 1_555 1_555
H140 C106 1_555 1_555
C107 N27 1_555 1_555
H141 C107 1_555 1_555
H142 C107 1_555 1_555
C108 N28 1_555 1_555
H143 C108 1_555 1_555
H144 C108 1_555 1_555
C109 N29 1_555 1_555
H145 C109 1_555 1_555
H146 C109 1_555 1_555
C110 N30 1_555 1_555
H147 C110 1_555 1_555
H148 C110 1_555 1_555
O9 N31 1_555 1_555
O10 N31 1_555 1_555
O11 N31 1_555 1_555
O12 N32 1_555 1_555
O13 N32 1_555 1_555
N32 O14 1_555 1_555
O15 N33 1_555 1_555
O16 N33 1_555 1_555
O17 N33 1_555 1_555
O20 N34 1_555 1_555
N34 O21 1_555 1_555
O22 N34 1_555 1_555
O25 N35 1_555 1_555
N35 O26 1_555 1_555
O27 N35 1_555 1_555
O28 N36 1_555 1_555
O29 N36 1_555 1_555
N36 O30 1_555 1_555
O38 N37 1_555 1_555
N37 O39 1_555 1_555
O40 N37 1_555 1_555
N38 O41 1_555 1_555
O42 N38 1_555 1_555
O43 N38 1_555 1_555
O47 N39 1_555 1_555
N39 O48 1_555 1_555
O49 N39 1_555 1_555
O50 N40 1_555 1_555
O51 N40 1_555 1_555
O52 N40 1_555 1_555
O55 N41 1_555 1_555
O56 N41 1_555 1_555
O57 N41 1_555 1_555
C3 C4 1_555 1_555
C6 C7 1_555 1_555
C8 C9 1_555 1_555
C13 C14 1_555 1_555
C16 C17 1_555 1_555
C18 C19 1_555 1_555
N6 C38 1_555 1_555
C24 C25 1_555 1_555
C28 C37 1_555 1_555
C29 C30 1_555 1_555
C33 C38 1_555 1_555
C34 C35 1_555 1_555
N12 C56 1_555 1_555
C42 C43 1_555 1_555
C46 C55 1_555 1_555
C47 C48 1_555 1_555
C51 C56 1_555 1_555
C52 C53 1_555 1_555
C57 C58 1_555 1_555
C61 C62 1_555 1_555
C65 N14 1_555 1_555
C66 C67 1_555 1_555
C69 N14 1_555 1_555
C71 C72 1_555 1_555
C75 C76 1_555 1_555
C79 N16 1_555 1_555
C80 C81 1_555 1_555
C83 N16 1_555 1_555
C85 C86 1_555 1_555
C89 C90 1_555 1_555
C93 N18 1_555 1_555
C94 C95 1_555 1_555
C97 N18 1_555 1_555
C99 C100 1_555 1_555
C101 C102 1_555 1_555
C103 C104 1_555 1_555
C105 C106 1_555 1_555
C107 C108 1_555 1_555
C109 C110 1_555 1_555

#END
