# generated using pymatgen
data_H148Pd6Pt2C110N42O89
_symmetry_space_group_name_H-M   'P 1'
_cell_length_a   18.68200000
_cell_length_b   26.57600000
_cell_length_c   36.53500000
_cell_angle_alpha   90.00000000
_cell_angle_beta   90.00000000
_cell_angle_gamma   108.15700000
_symmetry_Int_Tables_number   1
_chemical_formula_structural   H148Pd6Pt2C110N42O89
_chemical_formula_sum   'H592 Pd24 Pt8 C440 N168 O356'
_cell_volume   17236.13746845
_cell_formula_units_Z   4
loop_
 _symmetry_equiv_pos_site_id
 _symmetry_equiv_pos_as_xyz
  1  'x, y, z'
loop_
 _atom_site_type_symbol
 _atom_site_label
 _atom_site_symmetry_multiplicity
 _atom_site_fract_x
 _atom_site_fract_y
 _atom_site_fract_z
 _atom_site_occupancy
  H  H1  1  0.901300  0.807900  0.319800  1
  H  H2  1  0.098700  0.692100  0.819800  1
  H  H3  1  0.098700  0.192100  0.680200  1
  H  H4  1  0.901300  0.307900  0.180200  1
  H  H5  1  0.946400  0.851100  0.292000  1
  H  H6  1  0.053600  0.648900  0.792000  1
  H  H7  1  0.053600  0.148900  0.708000  1
  H  H8  1  0.946400  0.351100  0.208000  1
  H  H9  1  0.957300  0.794900  0.292200  1
  H  H10  1  0.042700  0.705100  0.792200  1
  H  H11  1  0.042700  0.205100  0.707800  1
  H  H12  1  0.957300  0.294900  0.207800  1
  H  H13  1  0.925300  0.813100  0.224300  1
  H  H14  1  0.074700  0.686900  0.724300  1
  H  H15  1  0.074700  0.186900  0.775700  1
  H  H16  1  0.925300  0.313100  0.275700  1
  H  H17  1  0.814600  0.783100  0.145800  1
  H  H18  1  0.185400  0.716900  0.645800  1
  H  H19  1  0.185400  0.216900  0.854200  1
  H  H20  1  0.814600  0.283100  0.354200  1
  H  H21  1  0.890000  0.774700  0.158700  1
  H  H22  1  0.110000  0.725300  0.658700  1
  H  H23  1  0.110000  0.225300  0.841300  1
  H  H24  1  0.890000  0.274700  0.341300  1
  H  H25  1  0.881600  0.831600  0.159100  1
  H  H26  1  0.118400  0.668400  0.659100  1
  H  H27  1  0.118400  0.168400  0.840900  1
  H  H28  1  0.881600  0.331600  0.340900  1
  H  H29  1  0.502500  0.700700  0.181700  1
  H  H30  1  0.497500  0.799300  0.681700  1
  H  H31  1  0.497500  0.299300  0.818300  1
  H  H32  1  0.502500  0.200700  0.318300  1
  H  H33  1  0.451700  0.720800  0.208500  1
  H  H34  1  0.548300  0.779200  0.708500  1
  H  H35  1  0.548300  0.279200  0.791500  1
  H  H36  1  0.451700  0.220800  0.291500  1
  H  H37  1  0.450300  0.661500  0.209800  1
  H  H38  1  0.549700  0.838500  0.709800  1
  H  H39  1  0.549700  0.338500  0.790200  1
  H  H40  1  0.450300  0.161500  0.290200  1
  H  H41  1  0.474300  0.699900  0.275500  1
  H  H42  1  0.525700  0.800100  0.775500  1
  H  H43  1  0.525700  0.300100  0.724500  1
  H  H44  1  0.474300  0.199900  0.224500  1
  H  H45  1  0.581900  0.722400  0.356500  1
  H  H46  1  0.418100  0.777600  0.856500  1
  H  H47  1  0.418100  0.277600  0.643500  1
  H  H48  1  0.581900  0.222400  0.143500  1
  H  H49  1  0.513000  0.676300  0.341900  1
  H  H50  1  0.487000  0.823700  0.841900  1
  H  H51  1  0.487000  0.323700  0.658100  1
  H  H52  1  0.513000  0.176300  0.158100  1
  H  H53  1  0.509900  0.734600  0.342200  1
  H  H54  1  0.490100  0.765400  0.842200  1
  H  H55  1  0.490100  0.265400  0.657800  1
  H  H56  1  0.509900  0.234600  0.157800  1
  H  H57  1  0.823600  0.653100  0.349000  1
  H  H58  1  0.176400  0.846900  0.849000  1
  H  H59  1  0.176400  0.346900  0.651000  1
  H  H60  1  0.823600  0.153100  0.151000  1
  H  H61  1  0.893500  0.698300  0.334300  1
  H  H62  1  0.106500  0.801700  0.834300  1
  H  H63  1  0.106500  0.301700  0.665700  1
  H  H64  1  0.893500  0.198300  0.165700  1
  H  H65  1  0.893500  0.639300  0.333600  1
  H  H66  1  0.106500  0.860700  0.833600  1
  H  H67  1  0.106500  0.360700  0.666400  1
  H  H68  1  0.893500  0.139300  0.166400  1
  H  H69  1  0.926100  0.676700  0.267600  1
  H  H70  1  0.073900  0.823300  0.767600  1
  H  H71  1  0.073900  0.323300  0.732400  1
  H  H72  1  0.926100  0.176700  0.232400  1
  H  H73  1  0.893700  0.678100  0.173500  1
  H  H74  1  0.106300  0.821900  0.673500  1
  H  H75  1  0.106300  0.321900  0.826500  1
  H  H76  1  0.893700  0.178100  0.326500  1
  H  H77  1  0.949200  0.660500  0.198900  1
  H  H78  1  0.050800  0.839500  0.698900  1
  H  H79  1  0.050800  0.339500  0.801100  1
  H  H80  1  0.949200  0.160500  0.301100  1
  H  H81  1  0.945000  0.718400  0.201400  1
  H  H82  1  0.055000  0.781600  0.701400  1
  H  H83  1  0.055000  0.281600  0.798600  1
  H  H84  1  0.945000  0.218400  0.298600  1
  H  H85  1  0.577500  0.595400  0.142800  1
  H  H86  1  0.422500  0.904600  0.642800  1
  H  H87  1  0.422500  0.404600  0.857200  1
  H  H88  1  0.577500  0.095400  0.357200  1
  H  H89  1  0.505300  0.606400  0.158000  1
  H  H90  1  0.494700  0.893600  0.658000  1
  H  H91  1  0.494700  0.393600  0.842000  1
  H  H92  1  0.505300  0.106400  0.342000  1
  H  H93  1  0.509400  0.548400  0.157000  1
  H  H94  1  0.490600  0.951600  0.657000  1
  H  H95  1  0.490600  0.451600  0.843000  1
  H  H96  1  0.509400  0.048400  0.343000  1
  H  H97  1  0.473800  0.566000  0.223500  1
  H  H98  1  0.526200  0.934000  0.723500  1
  H  H99  1  0.526200  0.434000  0.776500  1
  H  H100  1  0.473800  0.066000  0.276500  1
  H  H101  1  0.502100  0.572200  0.317900  1
  H  H102  1  0.497900  0.927800  0.817900  1
  H  H103  1  0.497900  0.427800  0.682100  1
  H  H104  1  0.502100  0.072200  0.182100  1
  H  H105  1  0.452800  0.530300  0.290400  1
  H  H106  1  0.547200  0.969700  0.790400  1
  H  H107  1  0.547200  0.469700  0.709600  1
  H  H108  1  0.452800  0.030300  0.209600  1
  H  H109  1  0.447600  0.588100  0.290900  1
  H  H110  1  0.552400  0.911900  0.790900  1
  H  H111  1  0.552400  0.411900  0.709100  1
  H  H112  1  0.447600  0.088100  0.209100  1
  H  H113  1  0.577900  0.849100  0.381600  1
  H  H114  1  0.422100  0.650900  0.881600  1
  H  H115  1  0.422100  0.150900  0.618400  1
  H  H116  1  0.577900  0.349100  0.118400  1
  H  H117  1  0.595000  0.852500  0.320600  1
  H  H118  1  0.405000  0.647500  0.820600  1
  H  H119  1  0.405000  0.147500  0.679400  1
  H  H120  1  0.595000  0.352500  0.179400  1
  H  H121  1  0.815600  0.914300  0.341800  1
  H  H122  1  0.184400  0.585700  0.841800  1
  H  H123  1  0.184400  0.085700  0.658200  1
  H  H124  1  0.815600  0.414300  0.158200  1
  H  H125  1  0.785200  0.907300  0.403500  1
  H  H126  1  0.214800  0.592700  0.903500  1
  H  H127  1  0.214800  0.092700  0.596500  1
  H  H128  1  0.785200  0.407300  0.096500  1
  H  H129  1  0.593300  0.847100  0.111700  1
  H  H130  1  0.406700  0.652900  0.611700  1
  H  H131  1  0.406700  0.152900  0.888300  1
  H  H132  1  0.593300  0.347100  0.388300  1
  H  H133  1  0.686300  0.873900  0.153300  1
  H  H134  1  0.313700  0.626100  0.653300  1
  H  H135  1  0.313700  0.126100  0.846700  1
  H  H136  1  0.686300  0.373900  0.346700  1
  H  H137  1  0.533200  0.833200  0.233000  1
  H  H138  1  0.466800  0.666800  0.733000  1
  H  H139  1  0.466800  0.166800  0.767000  1
  H  H140  1  0.533200  0.333200  0.267000  1
  H  H141  1  0.447600  0.808400  0.189800  1
  H  H142  1  0.552400  0.691600  0.689800  1
  H  H143  1  0.552400  0.191600  0.810200  1
  H  H144  1  0.447600  0.308400  0.310200  1
  H  H145  1  0.058600  0.979800  0.248200  1
  H  H146  1  0.941400  0.520200  0.748200  1
  H  H147  1  0.941400  0.020200  0.751800  1
  H  H148  1  0.058600  0.479800  0.251800  1
  H  H149  1  0.938700  0.947000  0.273400  1
  H  H150  1  0.061300  0.553000  0.773400  1
  H  H151  1  0.061300  0.053000  0.726600  1
  H  H152  1  0.938700  0.447000  0.226600  1
  H  H153  1  0.979000  0.955300  0.148700  1
  H  H154  1  0.021000  0.544700  0.648700  1
  H  H155  1  0.021000  0.044700  0.851300  1
  H  H156  1  0.979000  0.455300  0.351300  1
  H  H157  1  0.862900  0.923500  0.170400  1
  H  H158  1  0.137100  0.576500  0.670400  1
  H  H159  1  0.137100  0.076500  0.829600  1
  H  H160  1  0.862900  0.423500  0.329600  1
  H  H161  1  0.612600  0.465700  0.396000  1
  H  H162  1  0.387400  0.034300  0.896000  1
  H  H163  1  0.387400  0.534300  0.604000  1
  H  H164  1  0.612600  0.965700  0.104000  1
  H  H165  1  0.587700  0.462100  0.334800  1
  H  H166  1  0.412300  0.037900  0.834800  1
  H  H167  1  0.412300  0.537900  0.665200  1
  H  H168  1  0.587700  0.962100  0.165200  1
  H  H169  1  0.806600  0.522200  0.313800  1
  H  H170  1  0.193400  0.977800  0.813800  1
  H  H171  1  0.193400  0.477800  0.686200  1
  H  H172  1  0.806600  0.022200  0.186200  1
  H  H173  1  0.834900  0.526700  0.375800  1
  H  H174  1  0.165100  0.973300  0.875800  1
  H  H175  1  0.165100  0.473300  0.624200  1
  H  H176  1  0.834900  0.026700  0.124200  1
  H  H177  1  0.415700  0.425300  0.144500  1
  H  H178  1  0.584300  0.074700  0.644500  1
  H  H179  1  0.584300  0.574700  0.855500  1
  H  H180  1  0.415700  0.925300  0.355500  1
  H  H181  1  0.541000  0.458200  0.164000  1
  H  H182  1  0.459000  0.041800  0.664000  1
  H  H183  1  0.459000  0.541800  0.836000  1
  H  H184  1  0.541000  0.958200  0.336000  1
  H  H185  1  0.467000  0.432900  0.267200  1
  H  H186  1  0.533000  0.067100  0.767200  1
  H  H187  1  0.533000  0.567100  0.732800  1
  H  H188  1  0.467000  0.932900  0.232800  1
  H  H189  1  0.347100  0.401600  0.244700  1
  H  H190  1  0.652900  0.098400  0.744700  1
  H  H191  1  0.652900  0.598400  0.755300  1
  H  H192  1  0.347100  0.901600  0.255300  1
  H  H193  1  0.961600  0.570800  0.182400  1
  H  H194  1  0.038400  0.929200  0.682400  1
  H  H195  1  0.038400  0.429200  0.817600  1
  H  H196  1  0.961600  0.070800  0.317600  1
  H  H197  1  0.873400  0.544700  0.227000  1
  H  H198  1  0.126600  0.955300  0.727000  1
  H  H199  1  0.126600  0.455300  0.773000  1
  H  H200  1  0.873400  0.044700  0.273000  1
  H  H201  1  0.811800  0.534400  0.103700  1
  H  H202  1  0.188200  0.965600  0.603700  1
  H  H203  1  0.188200  0.465600  0.896300  1
  H  H204  1  0.811800  0.034400  0.396300  1
  H  H205  1  0.716800  0.506600  0.145700  1
  H  H206  1  0.283200  0.993400  0.645700  1
  H  H207  1  0.283200  0.493400  0.854300  1
  H  H208  1  0.716800  0.006600  0.354300  1
  H  H209  1  0.532500  0.806500  0.438700  1
  H  H210  1  0.467500  0.693500  0.938700  1
  H  H211  1  0.467500  0.193500  0.561300  1
  H  H212  1  0.532500  0.306500  0.061300  1
  H  H213  1  0.492400  0.749500  0.454000  1
  H  H214  1  0.507600  0.750500  0.954000  1
  H  H215  1  0.507600  0.250500  0.546000  1
  H  H216  1  0.492400  0.249500  0.046000  1
  H  H217  1  0.514800  0.757400  0.412600  1
  H  H218  1  0.485200  0.742600  0.912600  1
  H  H219  1  0.485200  0.242600  0.587400  1
  H  H220  1  0.514800  0.257400  0.087400  1
  H  H221  1  0.576900  0.684300  0.439900  1
  H  H222  1  0.423100  0.815700  0.939900  1
  H  H223  1  0.423100  0.315700  0.560100  1
  H  H224  1  0.576900  0.184300  0.060100  1
  H  H225  1  0.792400  0.751600  0.469800  1
  H  H226  1  0.207600  0.748400  0.969800  1
  H  H227  1  0.207600  0.248400  0.530200  1
  H  H228  1  0.792400  0.251600  0.030200  1
  H  H229  1  0.776100  0.882600  0.475500  1
  H  H230  1  0.223900  0.617400  0.975500  1
  H  H231  1  0.223900  0.117400  0.524500  1
  H  H232  1  0.776100  0.382600  0.024500  1
  H  H233  1  0.835900  0.858000  0.459900  1
  H  H234  1  0.164100  0.642000  0.959900  1
  H  H235  1  0.164100  0.142000  0.540100  1
  H  H236  1  0.835900  0.358000  0.040100  1
  H  H237  1  0.809400  0.847600  0.500700  1
  H  H238  1  0.190600  0.652400  0.000700  1
  H  H239  1  0.190600  0.152400  0.499300  1
  H  H240  1  0.809400  0.347600  0.999300  1
  H  H241  1  0.625400  0.485600  0.472100  1
  H  H242  1  0.374600  0.014400  0.972100  1
  H  H243  1  0.374600  0.514400  0.527900  1
  H  H244  1  0.625400  0.985600  0.027900  1
  H  H245  1  0.559500  0.507600  0.461400  1
  H  H246  1  0.440500  0.992400  0.961400  1
  H  H247  1  0.440500  0.492400  0.538600  1
  H  H248  1  0.559500  0.007600  0.038600  1
  H  H249  1  0.596700  0.519600  0.500200  1
  H  H250  1  0.403300  0.980400  0.000200  1
  H  H251  1  0.403300  0.480400  0.499800  1
  H  H252  1  0.596700  0.019600  0.999800  1
  H  H253  1  0.598700  0.611500  0.468000  1
  H  H254  1  0.401300  0.888500  0.968000  1
  H  H255  1  0.401300  0.388500  0.532000  1
  H  H256  1  0.598700  0.111500  0.032000  1
  H  H257  1  0.811500  0.686200  0.436200  1
  H  H258  1  0.188500  0.813800  0.936200  1
  H  H259  1  0.188500  0.313800  0.563800  1
  H  H260  1  0.811500  0.186200  0.063800  1
  H  H261  1  0.860400  0.567300  0.430400  1
  H  H262  1  0.139600  0.932700  0.930400  1
  H  H263  1  0.139600  0.432700  0.569600  1
  H  H264  1  0.860400  0.067300  0.069600  1
  H  H265  1  0.899400  0.624800  0.445100  1
  H  H266  1  0.100600  0.875200  0.945100  1
  H  H267  1  0.100600  0.375200  0.554900  1
  H  H268  1  0.899400  0.124800  0.054900  1
  H  H269  1  0.870600  0.616200  0.404500  1
  H  H270  1  0.129400  0.883800  0.904500  1
  H  H271  1  0.129400  0.383800  0.595500  1
  H  H272  1  0.870600  0.116200  0.095500  1
  H  H273  1  0.513100  0.698800  0.070100  1
  H  H274  1  0.486900  0.801200  0.570100  1
  H  H275  1  0.486900  0.301200  0.929900  1
  H  H276  1  0.513100  0.198800  0.429900  1
  H  H277  1  0.532400  0.751500  0.092600  1
  H  H278  1  0.467600  0.748500  0.592600  1
  H  H279  1  0.467600  0.248500  0.907400  1
  H  H280  1  0.532400  0.251500  0.407400  1
  H  H281  1  0.474100  0.741500  0.060500  1
  H  H282  1  0.525900  0.758500  0.560500  1
  H  H283  1  0.525900  0.258500  0.939500  1
  H  H284  1  0.474100  0.241500  0.439500  1
  H  H285  1  0.428800  0.625800  0.100000  1
  H  H286  1  0.571200  0.874200  0.600000  1
  H  H287  1  0.571200  0.374200  0.900000  1
  H  H288  1  0.428800  0.125800  0.400000  1
  H  H289  1  0.273900  0.644300  0.170800  1
  H  H290  1  0.726100  0.855700  0.670800  1
  H  H291  1  0.726100  0.355700  0.829200  1
  H  H292  1  0.273900  0.144300  0.329200  1
  H  H293  1  0.315200  0.781700  0.152000  1
  H  H294  1  0.684800  0.718300  0.652000  1
  H  H295  1  0.684800  0.218300  0.848000  1
  H  H296  1  0.315200  0.281700  0.348000  1
  H  H297  1  0.294200  0.744900  0.186500  1
  H  H298  1  0.705800  0.755100  0.686500  1
  H  H299  1  0.705800  0.255100  0.813500  1
  H  H300  1  0.294200  0.244900  0.313500  1
  H  H301  1  0.241600  0.733000  0.152000  1
  H  H302  1  0.758400  0.767000  0.652000  1
  H  H303  1  0.758400  0.267000  0.848000  1
  H  H304  1  0.241600  0.233000  0.348000  1
  H  H305  1  0.251900  0.400500  0.108100  1
  H  H306  1  0.748100  0.099500  0.608100  1
  H  H307  1  0.748100  0.599500  0.891900  1
  H  H308  1  0.251900  0.900500  0.391900  1
  H  H309  1  0.308500  0.439000  0.081200  1
  H  H310  1  0.691500  0.061000  0.581200  1
  H  H311  1  0.691500  0.561000  0.918800  1
  H  H312  1  0.308500  0.939000  0.418800  1
  H  H313  1  0.224600  0.438800  0.083100  1
  H  H314  1  0.775400  0.061200  0.583100  1
  H  H315  1  0.775400  0.561200  0.916900  1
  H  H316  1  0.224600  0.938800  0.416900  1
  H  H317  1  0.314300  0.539900  0.093100  1
  H  H318  1  0.685700  0.960100  0.593100  1
  H  H319  1  0.685700  0.460100  0.906900  1
  H  H320  1  0.314300  0.039900  0.406900  1
  H  H321  1  0.314800  0.574100  0.200000  1
  H  H322  1  0.685200  0.925900  0.700000  1
  H  H323  1  0.685200  0.425900  0.800000  1
  H  H324  1  0.314800  0.074100  0.300000  1
  H  H325  1  0.264000  0.439900  0.228800  1
  H  H326  1  0.736000  0.060100  0.728800  1
  H  H327  1  0.736000  0.560100  0.771200  1
  H  H328  1  0.264000  0.939900  0.271200  1
  H  H329  1  0.239500  0.489500  0.238800  1
  H  H330  1  0.760500  0.010500  0.738800  1
  H  H331  1  0.760500  0.510500  0.761200  1
  H  H332  1  0.239500  0.989500  0.261200  1
  H  H333  1  0.324600  0.492700  0.241000  1
  H  H334  1  0.675400  0.007300  0.741000  1
  H  H335  1  0.675400  0.507300  0.759000  1
  H  H336  1  0.324600  0.992700  0.259000  1
  H  H337  1  0.123900  0.864800  0.237800  1
  H  H338  1  0.876100  0.635200  0.737800  1
  H  H339  1  0.876100  0.135200  0.762200  1
  H  H340  1  0.123900  0.364800  0.262200  1
  H  H341  1  0.100400  0.916100  0.232800  1
  H  H342  1  0.899600  0.583900  0.732800  1
  H  H343  1  0.899600  0.083900  0.767200  1
  H  H344  1  0.100400  0.416100  0.267200  1
  H  H345  1  0.182500  0.916900  0.223200  1
  H  H346  1  0.817500  0.583100  0.723200  1
  H  H347  1  0.817500  0.083100  0.776800  1
  H  H348  1  0.182500  0.416900  0.276800  1
  H  H349  1  0.083800  0.801600  0.191000  1
  H  H350  1  0.916200  0.698400  0.691000  1
  H  H351  1  0.916200  0.198400  0.809000  1
  H  H352  1  0.083800  0.301600  0.309000  1
  H  H353  1  0.045100  0.843800  0.091300  1
  H  H354  1  0.954900  0.656200  0.591300  1
  H  H355  1  0.954900  0.156200  0.908700  1
  H  H356  1  0.045100  0.343800  0.408700  1
  H  H357  1  0.120500  0.981500  0.107400  1
  H  H358  1  0.879500  0.518500  0.607400  1
  H  H359  1  0.879500  0.018500  0.892600  1
  H  H360  1  0.120500  0.481500  0.392600  1
  H  H361  1  0.051200  0.944900  0.085800  1
  H  H362  1  0.948800  0.555100  0.585800  1
  H  H363  1  0.948800  0.055100  0.914200  1
  H  H364  1  0.051200  0.444900  0.414200  1
  H  H365  1  0.132800  0.944300  0.076400  1
  H  H366  1  0.867200  0.555700  0.576400  1
  H  H367  1  0.867200  0.055700  0.923600  1
  H  H368  1  0.132800  0.444300  0.423600  1
  H  H369  1  0.085300  0.602400  0.141300  1
  H  H370  1  0.914700  0.897600  0.641300  1
  H  H371  1  0.914700  0.397600  0.858700  1
  H  H372  1  0.085300  0.102400  0.358700  1
  H  H373  1  0.103500  0.637600  0.176600  1
  H  H374  1  0.896500  0.862400  0.676600  1
  H  H375  1  0.896500  0.362400  0.823400  1
  H  H376  1  0.103500  0.137600  0.323400  1
  H  H377  1  0.157900  0.651800  0.142800  1
  H  H378  1  0.842100  0.848200  0.642800  1
  H  H379  1  0.842100  0.348200  0.857200  1
  H  H380  1  0.157900  0.151800  0.357200  1
  H  H381  1  0.120800  0.739700  0.161500  1
  H  H382  1  0.879200  0.760300  0.661500  1
  H  H383  1  0.879200  0.260300  0.838500  1
  H  H384  1  0.120800  0.239700  0.338500  1
  H  H385  1  0.959800  0.753200  0.092700  1
  H  H386  1  0.040200  0.746800  0.592700  1
  H  H387  1  0.040200  0.246800  0.907300  1
  H  H388  1  0.959800  0.253200  0.407300  1
  H  H389  1  0.895400  0.615500  0.067500  1
  H  H390  1  0.104600  0.884500  0.567500  1
  H  H391  1  0.104600  0.384500  0.932500  1
  H  H392  1  0.895400  0.115500  0.432500  1
  H  H393  1  0.909200  0.669100  0.046500  1
  H  H394  1  0.090800  0.830900  0.546500  1
  H  H395  1  0.090800  0.330900  0.953500  1
  H  H396  1  0.909200  0.169100  0.453500  1
  H  H397  1  0.855000  0.656000  0.080400  1
  H  H398  1  0.145000  0.844000  0.580400  1
  H  H399  1  0.145000  0.344000  0.919600  1
  H  H400  1  0.855000  0.156000  0.419600  1
  H  H401  1  0.563000  0.859200  0.506700  1
  H  H402  1  0.437000  0.640800  0.006700  1
  H  H403  1  0.437000  0.140800  0.493300  1
  H  H404  1  0.563000  0.359200  0.993300  1
  H  H405  1  0.638400  0.863100  0.519800  1
  H  H406  1  0.361600  0.636900  0.019800  1
  H  H407  1  0.361600  0.136900  0.480200  1
  H  H408  1  0.638400  0.363100  0.980200  1
  H  H409  1  0.685400  0.981000  0.454000  1
  H  H410  1  0.314600  0.519000  0.954000  1
  H  H411  1  0.314600  0.019000  0.546000  1
  H  H412  1  0.685400  0.481000  0.046000  1
  H  H413  1  0.613900  0.962100  0.434500  1
  H  H414  1  0.386100  0.537900  0.934500  1
  H  H415  1  0.386100  0.037900  0.565500  1
  H  H416  1  0.613900  0.462100  0.065500  1
  H  H417  1  0.333700  0.764700  0.060900  1
  H  H418  1  0.666300  0.735300  0.560900  1
  H  H419  1  0.666300  0.235300  0.939100  1
  H  H420  1  0.333700  0.264700  0.439100  1
  H  H421  1  0.296200  0.794300  0.083300  1
  H  H422  1  0.703800  0.705700  0.583300  1
  H  H423  1  0.703800  0.205700  0.916700  1
  H  H424  1  0.296200  0.294300  0.416700  1
  H  H425  1  0.455300  0.909900  0.106500  1
  H  H426  1  0.544700  0.590100  0.606500  1
  H  H427  1  0.544700  0.090100  0.893500  1
  H  H428  1  0.455300  0.409900  0.393500  1
  H  H429  1  0.493300  0.894800  0.075400  1
  H  H430  1  0.506700  0.605200  0.575400  1
  H  H431  1  0.506700  0.105200  0.924600  1
  H  H432  1  0.493300  0.394800  0.424600  1
  H  H433  1  0.265800  0.993700  0.165400  1
  H  H434  1  0.734200  0.506300  0.665400  1
  H  H435  1  0.734200  0.006300  0.834600  1
  H  H436  1  0.265800  0.493700  0.334600  1
  H  H437  1  0.243400  0.016700  0.132800  1
  H  H438  1  0.756600  0.483300  0.632800  1
  H  H439  1  0.756600  0.983300  0.867200  1
  H  H440  1  0.243400  0.516700  0.367200  1
  H  H441  1  0.125300  0.086200  0.186200  1
  H  H442  1  0.874700  0.413800  0.686200  1
  H  H443  1  0.874700  0.913800  0.813800  1
  H  H444  1  0.125300  0.586200  0.313800  1
  H  H445  1  0.171900  0.076400  0.215700  1
  H  H446  1  0.828100  0.423600  0.715700  1
  H  H447  1  0.828100  0.923600  0.784300  1
  H  H448  1  0.171900  0.576400  0.284300  1
  H  H449  1  0.832500  0.513200  0.501900  1
  H  H450  1  0.167500  0.986800  0.001900  1
  H  H451  1  0.167500  0.486800  0.498100  1
  H  H452  1  0.832500  0.013200  0.998100  1
  H  H453  1  0.755400  0.503100  0.514600  1
  H  H454  1  0.244600  0.996900  0.014600  1
  H  H455  1  0.244600  0.496900  0.485400  1
  H  H456  1  0.755400  0.003100  0.985400  1
  H  H457  1  0.717700  0.390000  0.442600  1
  H  H458  1  0.282300  0.110000  0.942600  1
  H  H459  1  0.282300  0.610000  0.557400  1
  H  H460  1  0.717700  0.890000  0.057400  1
  H  H461  1  0.794000  0.412600  0.428300  1
  H  H462  1  0.206000  0.087400  0.928300  1
  H  H463  1  0.206000  0.587400  0.571700  1
  H  H464  1  0.794000  0.912600  0.071700  1
  H  H465  1  0.127900  0.378400  0.166800  1
  H  H466  1  0.872100  0.121600  0.666800  1
  H  H467  1  0.872100  0.621600  0.833200  1
  H  H468  1  0.127900  0.878400  0.333200  1
  H  H469  1  0.148200  0.353000  0.134600  1
  H  H470  1  0.851800  0.147000  0.634600  1
  H  H471  1  0.851800  0.647000  0.865400  1
  H  H472  1  0.148200  0.853000  0.365400  1
  H  H473  1  0.280900  0.293500  0.180100  1
  H  H474  1  0.719100  0.206500  0.680100  1
  H  H475  1  0.719100  0.706500  0.819900  1
  H  H476  1  0.280900  0.793500  0.319900  1
  H  H477  1  0.240100  0.300700  0.212700  1
  H  H478  1  0.759900  0.199300  0.712700  1
  H  H479  1  0.759900  0.699300  0.787300  1
  H  H480  1  0.240100  0.800700  0.287300  1
  H  H481  1  0.056200  0.611700  0.046600  1
  H  H482  1  0.943800  0.888300  0.546600  1
  H  H483  1  0.943800  0.388300  0.953400  1
  H  H484  1  0.056200  0.111700  0.453400  1
  H  H485  1  0.108900  0.603000  0.073500  1
  H  H486  1  0.891100  0.897000  0.573500  1
  H  H487  1  0.891100  0.397000  0.926500  1
  H  H488  1  0.108900  0.103000  0.426500  1
  H  H489  1  0.963700  0.475100  0.108300  1
  H  H490  1  0.036300  0.024900  0.608300  1
  H  H491  1  0.036300  0.524900  0.891700  1
  H  H492  1  0.963700  0.975100  0.391700  1
  H  H493  1  0.930200  0.481900  0.073200  1
  H  H494  1  0.069800  0.018100  0.573200  1
  H  H495  1  0.069800  0.518100  0.926800  1
  H  H496  1  0.930200  0.981900  0.426800  1
  H  H497  1  0.592000  0.933500  0.540200  1
  H  H498  1  0.408000  0.566500  0.040200  1
  H  H499  1  0.408000  0.066500  0.459800  1
  H  H500  1  0.592000  0.433500  0.959800  1
  H  H501  1  0.674800  0.951600  0.524700  1
  H  H502  1  0.325200  0.548400  0.024700  1
  H  H503  1  0.325200  0.048400  0.475300  1
  H  H504  1  0.674800  0.451600  0.975300  1
  H  H505  1  0.610000  0.000000  0.494500  1
  H  H506  1  0.390000  0.500000  0.994500  1
  H  H507  1  0.390000  0.000000  0.505500  1
  H  H508  1  0.610000  0.500000  0.005500  1
  H  H509  1  0.544400  0.948200  0.484600  1
  H  H510  1  0.455600  0.551800  0.984600  1
  H  H511  1  0.455600  0.051800  0.515400  1
  H  H512  1  0.544400  0.448200  0.015400  1
  H  H513  1  0.310400  0.837500  0.031300  1
  H  H514  1  0.689600  0.662500  0.531300  1
  H  H515  1  0.689600  0.162500  0.968700  1
  H  H516  1  0.310400  0.337500  0.468700  1
  H  H517  1  0.391900  0.833000  0.026400  1
  H  H518  1  0.608100  0.667000  0.526400  1
  H  H519  1  0.608100  0.167000  0.973600  1
  H  H520  1  0.391900  0.333000  0.473600  1
  H  H521  1  0.407600  0.917900  0.046100  1
  H  H522  1  0.592400  0.582100  0.546100  1
  H  H523  1  0.592400  0.082100  0.953900  1
  H  H524  1  0.407600  0.417900  0.453900  1
  H  H525  1  0.349500  0.897500  0.078000  1
  H  H526  1  0.650500  0.602500  0.578000  1
  H  H527  1  0.650500  0.102500  0.922000  1
  H  H528  1  0.349500  0.397500  0.422000  1
  H  H529  1  0.328600  0.087100  0.155600  1
  H  H530  1  0.671400  0.412900  0.655600  1
  H  H531  1  0.671400  0.912900  0.844400  1
  H  H532  1  0.328600  0.587100  0.344400  1
  H  H533  1  0.303200  0.069100  0.195800  1
  H  H534  1  0.696800  0.430900  0.695800  1
  H  H535  1  0.696800  0.930900  0.804200  1
  H  H536  1  0.303200  0.569100  0.304200  1
  H  H537  1  0.222200  0.112500  0.146100  1
  H  H538  1  0.777800  0.387500  0.646100  1
  H  H539  1  0.777800  0.887500  0.853900  1
  H  H540  1  0.222200  0.612500  0.353900  1
  H  H541  1  0.258200  0.138800  0.183200  1
  H  H542  1  0.741800  0.361200  0.683200  1
  H  H543  1  0.741800  0.861200  0.816800  1
  H  H544  1  0.258200  0.638800  0.316800  1
  H  H545  1  0.821800  0.441300  0.529500  1
  H  H546  1  0.178200  0.058700  0.029500  1
  H  H547  1  0.178200  0.558700  0.470500  1
  H  H548  1  0.821800  0.941300  0.970500  1
  H  H549  1  0.734700  0.421100  0.522800  1
  H  H550  1  0.265300  0.078900  0.022800  1
  H  H551  1  0.265300  0.578900  0.477200  1
  H  H552  1  0.734700  0.921100  0.977200  1
  H  H553  1  0.770500  0.369100  0.489000  1
  H  H554  1  0.229500  0.130900  0.989000  1
  H  H555  1  0.229500  0.630900  0.511000  1
  H  H556  1  0.770500  0.869100  0.011000  1
  H  H557  1  0.847100  0.411800  0.479300  1
  H  H558  1  0.152900  0.088200  0.979300  1
  H  H559  1  0.152900  0.588200  0.520700  1
  H  H560  1  0.847100  0.911800  0.020700  1
  H  H561  1  0.069200  0.285600  0.164700  1
  H  H562  1  0.930800  0.214400  0.664700  1
  H  H563  1  0.930800  0.714400  0.835300  1
  H  H564  1  0.069200  0.785600  0.335300  1
  H  H565  1  0.109200  0.307400  0.202000  1
  H  H566  1  0.890800  0.192600  0.702000  1
  H  H567  1  0.890800  0.692600  0.798000  1
  H  H568  1  0.109200  0.807400  0.298000  1
  H  H569  1  0.175900  0.264300  0.145400  1
  H  H570  1  0.824100  0.235700  0.645400  1
  H  H571  1  0.824100  0.735700  0.854600  1
  H  H572  1  0.175900  0.764300  0.354600  1
  H  H573  1  0.150000  0.236800  0.183600  1
  H  H574  1  0.850000  0.263200  0.683600  1
  H  H575  1  0.850000  0.763200  0.816400  1
  H  H576  1  0.150000  0.736800  0.316400  1
  H  H577  1  0.115000  0.547800  0.034200  1
  H  H578  1  0.885000  0.952200  0.534200  1
  H  H579  1  0.885000  0.452200  0.965800  1
  H  H580  1  0.115000  0.047800  0.465800  1
  H  H581  1  0.030100  0.536600  0.023600  1
  H  H582  1  0.969900  0.963400  0.523600  1
  H  H583  1  0.969900  0.463400  0.976400  1
  H  H584  1  0.030100  0.036600  0.476400  1
  H  H585  1  0.083700  0.498000  0.085700  1
  H  H586  1  0.916300  0.002000  0.585700  1
  H  H587  1  0.916300  0.502000  0.914300  1
  H  H588  1  0.083700  0.998000  0.414300  1
  H  H589  1  0.035900  0.463800  0.053800  1
  H  H590  1  0.964100  0.036200  0.553800  1
  H  H591  1  0.964100  0.536200  0.946200  1
  H  H592  1  0.035900  0.963800  0.446200  1
  Pd  Pd593  1  0.648460  0.881300  0.452980  1
  Pd  Pd594  1  0.351540  0.618700  0.952980  1
  Pd  Pd595  1  0.351540  0.118700  0.547020  1
  Pd  Pd596  1  0.648460  0.381300  0.047020  1
  Pd  Pd597  1  0.424070  0.810800  0.108550  1
  Pd  Pd598  1  0.575930  0.689200  0.608550  1
  Pd  Pd599  1  0.575930  0.189200  0.891450  1
  Pd  Pd600  1  0.424070  0.310800  0.391450  1
  Pd  Pd601  1  0.137090  0.996150  0.175730  1
  Pd  Pd602  1  0.862910  0.503850  0.675730  1
  Pd  Pd603  1  0.862910  0.003850  0.824270  1
  Pd  Pd604  1  0.137090  0.496150  0.324270  1
  Pd  Pd605  1  0.749070  0.489540  0.446610  1
  Pd  Pd606  1  0.250930  0.010460  0.946610  1
  Pd  Pd607  1  0.250930  0.510460  0.553390  1
  Pd  Pd608  1  0.749070  0.989540  0.053390  1
  Pd  Pd609  1  0.262210  0.381360  0.174810  1
  Pd  Pd610  1  0.737790  0.118640  0.674810  1
  Pd  Pd611  1  0.737790  0.618640  0.825190  1
  Pd  Pd612  1  0.262210  0.881360  0.325190  1
  Pd  Pd613  1  0.981620  0.570080  0.100870  1
  Pd  Pd614  1  0.018380  0.929920  0.600870  1
  Pd  Pd615  1  0.018380  0.429920  0.899130  1
  Pd  Pd616  1  0.981620  0.070080  0.399130  1
  Pt  Pt617  1  0.700890  0.751060  0.251010  1
  Pt  Pt618  1  0.299110  0.748940  0.751010  1
  Pt  Pt619  1  0.299110  0.248940  0.748990  1
  Pt  Pt620  1  0.700890  0.251060  0.248990  1
  Pt  Pt621  1  0.699740  0.626150  0.246610  1
  Pt  Pt622  1  0.300260  0.873850  0.746610  1
  Pt  Pt623  1  0.300260  0.373850  0.753390  1
  Pt  Pt624  1  0.699740  0.126150  0.253390  1
  C  C625  1  0.921700  0.813900  0.295500  1
  C  C626  1  0.078300  0.686100  0.795500  1
  C  C627  1  0.078300  0.186100  0.704500  1
  C  C628  1  0.921700  0.313900  0.204500  1
  C  C629  1  0.859700  0.795000  0.268400  1
  C  C630  1  0.140300  0.705000  0.768400  1
  C  C631  1  0.140300  0.205000  0.731600  1
  C  C632  1  0.859700  0.295000  0.231600  1
  C  C633  1  0.874700  0.799100  0.230500  1
  C  C634  1  0.125300  0.700900  0.730500  1
  C  C635  1  0.125300  0.200900  0.769500  1
  C  C636  1  0.874700  0.299100  0.269500  1
  C  C637  1  0.826200  0.785800  0.201100  1
  C  C638  1  0.173800  0.714200  0.701100  1
  C  C639  1  0.173800  0.214200  0.798900  1
  C  C640  1  0.826200  0.285800  0.298900  1
  C  C641  1  0.855700  0.794600  0.162700  1
  C  C642  1  0.144300  0.705400  0.662700  1
  C  C643  1  0.144300  0.205400  0.837300  1
  C  C644  1  0.855700  0.294600  0.337300  1
  C  C645  1  0.481500  0.697400  0.205900  1
  C  C646  1  0.518500  0.802600  0.705900  1
  C  C647  1  0.518500  0.302600  0.794100  1
  C  C648  1  0.481500  0.197400  0.294100  1
  C  C649  1  0.543500  0.711600  0.233400  1
  C  C650  1  0.456500  0.788400  0.733400  1
  C  C651  1  0.456500  0.288400  0.766600  1
  C  C652  1  0.543500  0.211600  0.266600  1
  C  C653  1  0.525400  0.709800  0.270000  1
  C  C654  1  0.474600  0.790200  0.770000  1
  C  C655  1  0.474600  0.290200  0.730000  1
  C  C656  1  0.525400  0.209800  0.230000  1
  C  C657  1  0.575200  0.721300  0.300300  1
  C  C658  1  0.424800  0.778700  0.800300  1
  C  C659  1  0.424800  0.278700  0.699700  1
  C  C660  1  0.575200  0.221300  0.199700  1
  C  C661  1  0.541900  0.712900  0.338800  1
  C  C662  1  0.458100  0.787100  0.838800  1
  C  C663  1  0.458100  0.287100  0.661200  1
  C  C664  1  0.541900  0.212900  0.161200  1
  C  C665  1  0.862900  0.662100  0.331000  1
  C  C666  1  0.137100  0.837900  0.831000  1
  C  C667  1  0.137100  0.337900  0.669000  1
  C  C668  1  0.862900  0.162100  0.169000  1
  C  C669  1  0.828700  0.655500  0.293500  1
  C  C670  1  0.171300  0.844500  0.793500  1
  C  C671  1  0.171300  0.344500  0.706500  1
  C  C672  1  0.828700  0.155500  0.206500  1
  C  C673  1  0.874800  0.666500  0.262600  1
  C  C674  1  0.125200  0.833500  0.762600  1
  C  C675  1  0.125200  0.333500  0.737400  1
  C  C676  1  0.874800  0.166500  0.237400  1
  C  C677  1  0.857300  0.664800  0.225300  1
  C  C678  1  0.142700  0.835200  0.725300  1
  C  C679  1  0.142700  0.335200  0.774700  1
  C  C680  1  0.857300  0.164800  0.274700  1
  C  C681  1  0.916400  0.681900  0.197300  1
  C  C682  1  0.083600  0.818100  0.697300  1
  C  C683  1  0.083600  0.318100  0.802700  1
  C  C684  1  0.916400  0.181900  0.302700  1
  C  C685  1  0.537900  0.584900  0.160600  1
  C  C686  1  0.462100  0.915100  0.660600  1
  C  C687  1  0.462100  0.415100  0.839400  1
  C  C688  1  0.537900  0.084900  0.339400  1
  C  C689  1  0.570900  0.591900  0.197900  1
  C  C690  1  0.429100  0.908100  0.697900  1
  C  C691  1  0.429100  0.408100  0.802100  1
  C  C692  1  0.570900  0.091900  0.302100  1
  C  C693  1  0.525100  0.579400  0.228500  1
  C  C694  1  0.474900  0.920600  0.728500  1
  C  C695  1  0.474900  0.420600  0.771500  1
  C  C696  1  0.525100  0.079400  0.271500  1
  C  C697  1  0.543400  0.583600  0.265500  1
  C  C698  1  0.456600  0.916400  0.765500  1
  C  C699  1  0.456600  0.416400  0.734500  1
  C  C700  1  0.543400  0.083600  0.234500  1
  C  C701  1  0.480700  0.567000  0.293800  1
  C  C702  1  0.519300  0.933000  0.793800  1
  C  C703  1  0.519300  0.433000  0.706200  1
  C  C704  1  0.480700  0.067000  0.206200  1
  C  C705  1  0.627400  0.862700  0.373400  1
  C  C706  1  0.372600  0.637300  0.873400  1
  C  C707  1  0.372600  0.137300  0.626600  1
  C  C708  1  0.627400  0.362700  0.126600  1
  C  C709  1  0.635700  0.864200  0.336500  1
  C  C710  1  0.364300  0.635800  0.836500  1
  C  C711  1  0.364300  0.135800  0.663500  1
  C  C712  1  0.635700  0.364200  0.163500  1
  C  C713  1  0.706700  0.883600  0.324800  1
  C  C714  1  0.293300  0.616400  0.824800  1
  C  C715  1  0.293300  0.116400  0.675200  1
  C  C716  1  0.706700  0.383600  0.175200  1
  C  C717  1  0.765800  0.900600  0.349500  1
  C  C718  1  0.234200  0.599400  0.849500  1
  C  C719  1  0.234200  0.099400  0.650500  1
  C  C720  1  0.765800  0.400600  0.150500  1
  C  C721  1  0.746400  0.896100  0.386500  1
  C  C722  1  0.253600  0.603900  0.886500  1
  C  C723  1  0.253600  0.103900  0.613500  1
  C  C724  1  0.746400  0.396100  0.113500  1
  C  C725  1  0.581500  0.844400  0.136500  1
  C  C726  1  0.418500  0.655600  0.636500  1
  C  C727  1  0.418500  0.155600  0.863500  1
  C  C728  1  0.581500  0.344400  0.363500  1
  C  C729  1  0.636600  0.860300  0.161100  1
  C  C730  1  0.363400  0.639700  0.661100  1
  C  C731  1  0.363400  0.139700  0.838900  1
  C  C732  1  0.636600  0.360300  0.338900  1
  C  C733  1  0.620200  0.856600  0.198800  1
  C  C734  1  0.379800  0.643400  0.698800  1
  C  C735  1  0.379800  0.143400  0.801200  1
  C  C736  1  0.620200  0.356600  0.301200  1
  C  C737  1  0.547500  0.836600  0.208600  1
  C  C738  1  0.452500  0.663400  0.708600  1
  C  C739  1  0.452500  0.163400  0.791400  1
  C  C740  1  0.547500  0.336600  0.291400  1
  C  C741  1  0.497600  0.822100  0.182400  1
  C  C742  1  0.502400  0.677900  0.682400  1
  C  C743  1  0.502400  0.177900  0.817600  1
  C  C744  1  0.497600  0.322100  0.317600  1
  C  C745  1  0.017800  0.968100  0.232400  1
  C  C746  1  0.982200  0.531900  0.732400  1
  C  C747  1  0.982200  0.031900  0.767600  1
  C  C748  1  0.017800  0.468100  0.267600  1
  C  C749  1  0.945600  0.948400  0.248100  1
  C  C750  1  0.054400  0.551600  0.748100  1
  C  C751  1  0.054400  0.051600  0.751900  1
  C  C752  1  0.945600  0.448400  0.251900  1
  C  C753  1  0.885400  0.931000  0.224200  1
  C  C754  1  0.114600  0.569000  0.724200  1
  C  C755  1  0.114600  0.069000  0.775800  1
  C  C756  1  0.885400  0.431000  0.275800  1
  C  C757  1  0.971600  0.953800  0.173900  1
  C  C758  1  0.028400  0.546200  0.673900  1
  C  C759  1  0.028400  0.046200  0.826100  1
  C  C760  1  0.971600  0.453800  0.326100  1
  C  C761  1  0.902500  0.934900  0.186900  1
  C  C762  1  0.097500  0.565100  0.686900  1
  C  C763  1  0.097500  0.065100  0.813100  1
  C  C764  1  0.902500  0.434900  0.313100  1
  C  C765  1  0.725200  0.887800  0.284500  1
  C  C766  1  0.274800  0.612200  0.784500  1
  C  C767  1  0.274800  0.112200  0.715500  1
  C  C768  1  0.725200  0.387800  0.215500  1
  C  C769  1  0.684100  0.875000  0.225300  1
  C  C770  1  0.315900  0.625000  0.725300  1
  C  C771  1  0.315900  0.125000  0.774700  1
  C  C772  1  0.684100  0.375000  0.274700  1
  C  C773  1  0.808000  0.909800  0.238200  1
  C  C774  1  0.192000  0.590200  0.738200  1
  C  C775  1  0.192000  0.090200  0.761800  1
  C  C776  1  0.808000  0.409800  0.261800  1
  C  C777  1  0.652100  0.477200  0.379400  1
  C  C778  1  0.347900  0.022800  0.879400  1
  C  C779  1  0.347900  0.522800  0.620600  1
  C  C780  1  0.652100  0.977200  0.120600  1
  C  C781  1  0.637200  0.475000  0.343000  1
  C  C782  1  0.362800  0.025000  0.843000  1
  C  C783  1  0.362800  0.525000  0.657000  1
  C  C784  1  0.637200  0.975000  0.157000  1
  C  C785  1  0.697100  0.492500  0.317500  1
  C  C786  1  0.302900  0.007500  0.817500  1
  C  C787  1  0.302900  0.507500  0.682500  1
  C  C788  1  0.697100  0.992500  0.182500  1
  C  C789  1  0.767400  0.510800  0.330600  1
  C  C790  1  0.232600  0.989200  0.830600  1
  C  C791  1  0.232600  0.489200  0.669400  1
  C  C792  1  0.767400  0.010800  0.169400  1
  C  C793  1  0.785600  0.513800  0.367300  1
  C  C794  1  0.214400  0.986200  0.867300  1
  C  C795  1  0.214400  0.486200  0.632700  1
  C  C796  1  0.785600  0.013800  0.132700  1
  C  C797  1  0.426300  0.426900  0.169400  1
  C  C798  1  0.573700  0.073100  0.669400  1
  C  C799  1  0.573700  0.573100  0.830600  1
  C  C800  1  0.426300  0.926900  0.330600  1
  C  C801  1  0.502200  0.446800  0.181000  1
  C  C802  1  0.497800  0.053200  0.681000  1
  C  C803  1  0.497800  0.553200  0.819000  1
  C  C804  1  0.502200  0.946800  0.319000  1
  C  C805  1  0.517800  0.449100  0.218500  1
  C  C806  1  0.482200  0.050900  0.718500  1
  C  C807  1  0.482200  0.550900  0.781500  1
  C  C808  1  0.517800  0.949100  0.281500  1
  C  C809  1  0.458800  0.432000  0.242100  1
  C  C810  1  0.541200  0.068000  0.742100  1
  C  C811  1  0.541200  0.568000  0.757900  1
  C  C812  1  0.458800  0.932000  0.257900  1
  C  C813  1  0.386900  0.413200  0.228300  1
  C  C814  1  0.613100  0.086800  0.728300  1
  C  C815  1  0.613100  0.586800  0.771700  1
  C  C816  1  0.386900  0.913200  0.271700  1
  C  C817  1  0.911400  0.557600  0.175300  1
  C  C818  1  0.088600  0.942400  0.675300  1
  C  C819  1  0.088600  0.442400  0.824700  1
  C  C820  1  0.911400  0.057600  0.324700  1
  C  C821  1  0.859600  0.542200  0.202400  1
  C  C822  1  0.140400  0.957800  0.702400  1
  C  C823  1  0.140400  0.457800  0.797600  1
  C  C824  1  0.859600  0.042200  0.297600  1
  C  C825  1  0.781400  0.521700  0.191200  1
  C  C826  1  0.218600  0.978300  0.691200  1
  C  C827  1  0.218600  0.478300  0.808800  1
  C  C828  1  0.781400  0.021700  0.308800  1
  C  C829  1  0.823500  0.536200  0.128500  1
  C  C830  1  0.176500  0.963800  0.628500  1
  C  C831  1  0.176500  0.463800  0.871500  1
  C  C832  1  0.823500  0.036200  0.371500  1
  C  C833  1  0.766400  0.519500  0.153800  1
  C  C834  1  0.233600  0.980500  0.653800  1
  C  C835  1  0.233600  0.480500  0.846200  1
  C  C836  1  0.766400  0.019500  0.346200  1
  C  C837  1  0.681000  0.490200  0.277600  1
  C  C838  1  0.319000  0.009800  0.777600  1
  C  C839  1  0.319000  0.509800  0.722400  1
  C  C840  1  0.681000  0.990200  0.222400  1
  C  C841  1  0.595600  0.469500  0.231700  1
  C  C842  1  0.404400  0.030500  0.731700  1
  C  C843  1  0.404400  0.530500  0.768300  1
  C  C844  1  0.595600  0.969500  0.268300  1
  C  C845  1  0.720700  0.503900  0.218700  1
  C  C846  1  0.279300  0.996100  0.718700  1
  C  C847  1  0.279300  0.496100  0.781300  1
  C  C848  1  0.720700  0.003900  0.281300  1
  C  C849  1  0.529300  0.769800  0.437000  1
  C  C850  1  0.470700  0.730200  0.937000  1
  C  C851  1  0.470700  0.230200  0.563000  1
  C  C852  1  0.529300  0.269800  0.063000  1
  C  C853  1  0.605900  0.763400  0.445900  1
  C  C854  1  0.394100  0.736600  0.945900  1
  C  C855  1  0.394100  0.236600  0.554100  1
  C  C856  1  0.605900  0.263400  0.054100  1
  C  C857  1  0.617000  0.714200  0.445400  1
  C  C858  1  0.383000  0.785800  0.945400  1
  C  C859  1  0.383000  0.285800  0.554600  1
  C  C860  1  0.617000  0.214200  0.054600  1
  C  C861  1  0.687700  0.708900  0.453100  1
  C  C862  1  0.312300  0.791100  0.953100  1
  C  C863  1  0.312300  0.291100  0.546900  1
  C  C864  1  0.687700  0.208900  0.046900  1
  C  C865  1  0.745200  0.753800  0.463500  1
  C  C866  1  0.254800  0.746200  0.963500  1
  C  C867  1  0.254800  0.246200  0.536500  1
  C  C868  1  0.745200  0.253800  0.036500  1
  C  C869  1  0.730700  0.803100  0.464400  1
  C  C870  1  0.269300  0.696900  0.964400  1
  C  C871  1  0.269300  0.196900  0.535600  1
  C  C872  1  0.730700  0.303100  0.035600  1
  C  C873  1  0.793900  0.852400  0.476200  1
  C  C874  1  0.206100  0.647600  0.976200  1
  C  C875  1  0.206100  0.147600  0.523800  1
  C  C876  1  0.793900  0.352400  0.023800  1
  C  C877  1  0.605800  0.514800  0.474800  1
  C  C878  1  0.394200  0.985200  0.974800  1
  C  C879  1  0.394200  0.485200  0.525200  1
  C  C880  1  0.605800  0.014800  0.025200  1
  C  C881  1  0.661900  0.564200  0.460100  1
  C  C882  1  0.338100  0.935800  0.960100  1
  C  C883  1  0.338100  0.435800  0.539900  1
  C  C884  1  0.661900  0.064200  0.039900  1
  C  C885  1  0.646200  0.610800  0.460900  1
  C  C886  1  0.353800  0.889200  0.960900  1
  C  C887  1  0.353800  0.389200  0.539100  1
  C  C888  1  0.646200  0.110800  0.039100  1
  C  C889  1  0.700500  0.657100  0.451100  1
  C  C890  1  0.299500  0.842900  0.951100  1
  C  C891  1  0.299500  0.342900  0.548900  1
  C  C892  1  0.700500  0.157100  0.048900  1
  C  C893  1  0.773500  0.655100  0.441700  1
  C  C894  1  0.226500  0.844900  0.941700  1
  C  C895  1  0.226500  0.344900  0.558300  1
  C  C896  1  0.773500  0.155100  0.058300  1
  C  C897  1  0.788500  0.606900  0.440800  1
  C  C898  1  0.211500  0.893100  0.940800  1
  C  C899  1  0.211500  0.393100  0.559200  1
  C  C900  1  0.788500  0.106900  0.059200  1
  C  C901  1  0.860800  0.603500  0.429200  1
  C  C902  1  0.139200  0.896500  0.929200  1
  C  C903  1  0.139200  0.396500  0.570800  1
  C  C904  1  0.860800  0.103500  0.070800  1
  C  C905  1  0.493200  0.725100  0.080000  1
  C  C906  1  0.506800  0.774900  0.580000  1
  C  C907  1  0.506800  0.274900  0.920000  1
  C  C908  1  0.493200  0.225100  0.420000  1
  C  C909  1  0.428800  0.698700  0.107000  1
  C  C910  1  0.571200  0.801300  0.607000  1
  C  C911  1  0.571200  0.301300  0.893000  1
  C  C912  1  0.428800  0.198700  0.393000  1
  C  C913  1  0.406000  0.647000  0.112700  1
  C  C914  1  0.594000  0.853000  0.612700  1
  C  C915  1  0.594000  0.353000  0.887300  1
  C  C916  1  0.406000  0.147000  0.387300  1
  C  C917  1  0.348600  0.623600  0.137400  1
  C  C918  1  0.651400  0.876400  0.637400  1
  C  C919  1  0.651400  0.376400  0.862600  1
  C  C920  1  0.348600  0.123600  0.362600  1
  C  C921  1  0.312700  0.657700  0.154000  1
  C  C922  1  0.687300  0.842300  0.654000  1
  C  C923  1  0.687300  0.342300  0.846000  1
  C  C924  1  0.312700  0.157700  0.346000  1
  C  C925  1  0.335800  0.712000  0.145000  1
  C  C926  1  0.664200  0.788000  0.645000  1
  C  C927  1  0.664200  0.288000  0.855000  1
  C  C928  1  0.335800  0.212000  0.355000  1
  C  C929  1  0.292900  0.745900  0.160200  1
  C  C930  1  0.707100  0.754100  0.660200  1
  C  C931  1  0.707100  0.254100  0.839800  1
  C  C932  1  0.292900  0.245900  0.339800  1
  C  C933  1  0.266100  0.435000  0.097000  1
  C  C934  1  0.733900  0.065000  0.597000  1
  C  C935  1  0.733900  0.565000  0.903000  1
  C  C936  1  0.266100  0.935000  0.403000  1
  C  C937  1  0.287000  0.476800  0.126600  1
  C  C938  1  0.713000  0.023200  0.626600  1
  C  C939  1  0.713000  0.523200  0.873400  1
  C  C940  1  0.287000  0.976800  0.373400  1
  C  C941  1  0.308800  0.529500  0.117500  1
  C  C942  1  0.691200  0.970500  0.617500  1
  C  C943  1  0.691200  0.470500  0.882500  1
  C  C944  1  0.308800  0.029500  0.382500  1
  C  C945  1  0.322900  0.568000  0.145700  1
  C  C946  1  0.677100  0.932000  0.645700  1
  C  C947  1  0.677100  0.432000  0.854300  1
  C  C948  1  0.322900  0.068000  0.354300  1
  C  C949  1  0.309700  0.549800  0.181100  1
  C  C950  1  0.690300  0.950200  0.681100  1
  C  C951  1  0.690300  0.450200  0.818900  1
  C  C952  1  0.309700  0.049800  0.318900  1
  C  C953  1  0.288700  0.495400  0.189500  1
  C  C954  1  0.711300  0.004600  0.689500  1
  C  C955  1  0.711300  0.504600  0.810500  1
  C  C956  1  0.288700  0.995400  0.310500  1
  C  C957  1  0.278300  0.477900  0.227800  1
  C  C958  1  0.721700  0.022100  0.727800  1
  C  C959  1  0.721700  0.522100  0.772200  1
  C  C960  1  0.278300  0.977900  0.272200  1
  C  C961  1  0.130500  0.895800  0.223100  1
  C  C962  1  0.869500  0.604200  0.723100  1
  C  C963  1  0.869500  0.104200  0.776900  1
  C  C964  1  0.130500  0.395800  0.276900  1
  C  C965  1  0.106300  0.879700  0.184700  1
  C  C966  1  0.893700  0.620300  0.684700  1
  C  C967  1  0.893700  0.120300  0.815300  1
  C  C968  1  0.106300  0.379700  0.315300  1
  C  C969  1  0.084300  0.827700  0.174000  1
  C  C970  1  0.915700  0.672300  0.674000  1
  C  C971  1  0.915700  0.172300  0.826000  1
  C  C972  1  0.084300  0.327700  0.326000  1
  C  C973  1  0.062800  0.813200  0.138300  1
  C  C974  1  0.937200  0.686800  0.638300  1
  C  C975  1  0.937200  0.186800  0.861700  1
  C  C976  1  0.062800  0.313200  0.361700  1
  C  C977  1  0.064200  0.852600  0.114800  1
  C  C978  1  0.935800  0.647400  0.614800  1
  C  C979  1  0.935800  0.147400  0.885200  1
  C  C980  1  0.064200  0.352600  0.385200  1
  C  C981  1  0.092000  0.903900  0.123700  1
  C  C982  1  0.908000  0.596100  0.623700  1
  C  C983  1  0.908000  0.096100  0.876300  1
  C  C984  1  0.092000  0.403900  0.376300  1
  C  C985  1  0.099800  0.947700  0.095800  1
  C  C986  1  0.900200  0.552300  0.595800  1
  C  C987  1  0.900200  0.052300  0.904200  1
  C  C988  1  0.099800  0.447700  0.404200  1
  C  C989  1  0.106200  0.637900  0.150300  1
  C  C990  1  0.893800  0.862100  0.650300  1
  C  C991  1  0.893800  0.362100  0.849700  1
  C  C992  1  0.106200  0.137900  0.349700  1
  C  C993  1  0.063600  0.671000  0.135600  1
  C  C994  1  0.936400  0.829000  0.635600  1
  C  C995  1  0.936400  0.329000  0.864400  1
  C  C996  1  0.063600  0.171000  0.364400  1
  C  C997  1  0.082500  0.724800  0.144800  1
  C  C998  1  0.917500  0.775200  0.644800  1
  C  C999  1  0.917500  0.275200  0.855200  1
  C  C1000  1  0.082500  0.224800  0.355200  1
  C  C1001  1  0.042300  0.755900  0.128100  1
  C  C1002  1  0.957700  0.744100  0.628100  1
  C  C1003  1  0.957700  0.244100  0.871900  1
  C  C1004  1  0.042300  0.255900  0.371900  1
  C  C1005  1  0.986100  0.732900  0.103900  1
  C  C1006  1  0.013900  0.767100  0.603900  1
  C  C1007  1  0.013900  0.267100  0.896100  1
  C  C1008  1  0.986100  0.232900  0.396100  1
  C  C1009  1  0.967700  0.679000  0.095800  1
  C  C1010  1  0.032300  0.821000  0.595800  1
  C  C1011  1  0.032300  0.321000  0.904200  1
  C  C1012  1  0.967700  0.179000  0.404200  1
  C  C1013  1  0.900400  0.652400  0.070100  1
  C  C1014  1  0.099600  0.847600  0.570100  1
  C  C1015  1  0.099600  0.347600  0.929900  1
  C  C1016  1  0.900400  0.152400  0.429900  1
  C  C1017  1  0.622400  0.934100  0.518600  1
  C  C1018  1  0.377600  0.565900  0.018600  1
  C  C1019  1  0.377600  0.065900  0.481400  1
  C  C1020  1  0.622400  0.434100  0.981400  1
  C  C1021  1  0.598400  0.962800  0.488400  1
  C  C1022  1  0.401600  0.537200  0.988400  1
  C  C1023  1  0.401600  0.037200  0.511600  1
  C  C1024  1  0.598400  0.462800  0.011600  1
  C  C1025  1  0.356100  0.838000  0.044100  1
  C  C1026  1  0.643900  0.662000  0.544100  1
  C  C1027  1  0.643900  0.162000  0.955900  1
  C  C1028  1  0.356100  0.338000  0.455900  1
  C  C1029  1  0.388500  0.889600  0.063700  1
  C  C1030  1  0.611500  0.610400  0.563700  1
  C  C1031  1  0.611500  0.110400  0.936300  1
  C  C1032  1  0.388500  0.389600  0.436300  1
  C  C1033  1  0.285300  0.071400  0.171100  1
  C  C1034  1  0.714700  0.428600  0.671100  1
  C  C1035  1  0.714700  0.928600  0.828900  1
  C  C1036  1  0.285300  0.571400  0.328900  1
  C  C1037  1  0.234400  0.105400  0.170900  1
  C  C1038  1  0.765600  0.394600  0.670900  1
  C  C1039  1  0.765600  0.894600  0.829100  1
  C  C1040  1  0.234400  0.605400  0.329100  1
  C  C1041  1  0.783000  0.438300  0.511300  1
  C  C1042  1  0.217000  0.061700  0.011300  1
  C  C1043  1  0.217000  0.561700  0.488700  1
  C  C1044  1  0.783000  0.938300  0.988700  1
  C  C1045  1  0.793500  0.405900  0.482200  1
  C  C1046  1  0.206500  0.094100  0.982200  1
  C  C1047  1  0.206500  0.594100  0.517800  1
  C  C1048  1  0.793500  0.905900  0.017800  1
  C  C1049  1  0.117500  0.303200  0.176100  1
  C  C1050  1  0.882500  0.196800  0.676100  1
  C  C1051  1  0.882500  0.696800  0.823900  1
  C  C1052  1  0.117500  0.803200  0.323900  1
  C  C1053  1  0.169200  0.270600  0.171100  1
  C  C1054  1  0.830800  0.229400  0.671100  1
  C  C1055  1  0.830800  0.729400  0.828900  1
  C  C1056  1  0.169200  0.770600  0.328900  1
  C  C1057  1  0.065000  0.542700  0.044000  1
  C  C1058  1  0.935000  0.957300  0.544000  1
  C  C1059  1  0.935000  0.457300  0.956000  1
  C  C1060  1  0.065000  0.042700  0.456000  1
  C  C1061  1  0.044000  0.495800  0.068100  1
  C  C1062  1  0.956000  0.004200  0.568100  1
  C  C1063  1  0.956000  0.504200  0.931900  1
  C  C1064  1  0.044000  0.995800  0.431900  1
  N  N1065  1  0.677700  0.877300  0.399100  1
  N  N1066  1  0.322300  0.622700  0.899100  1
  N  N1067  1  0.322300  0.122700  0.600900  1
  N  N1068  1  0.677700  0.377300  0.100900  1
  N  N1069  1  0.509900  0.824700  0.146900  1
  N  N1070  1  0.490100  0.675300  0.646900  1
  N  N1071  1  0.490100  0.175300  0.853100  1
  N  N1072  1  0.509900  0.324700  0.353100  1
  N  N1073  1  0.032200  0.971200  0.196600  1
  N  N1074  1  0.967800  0.528800  0.696600  1
  N  N1075  1  0.967800  0.028800  0.803400  1
  N  N1076  1  0.032200  0.471200  0.303400  1
  N  N1077  1  0.666500  0.870900  0.261000  1
  N  N1078  1  0.333500  0.629100  0.761000  1
  N  N1079  1  0.333500  0.129100  0.739000  1
  N  N1080  1  0.666500  0.370900  0.239000  1
  N  N1081  1  0.754200  0.894200  0.213400  1
  N  N1082  1  0.245800  0.605800  0.713400  1
  N  N1083  1  0.245800  0.105800  0.786600  1
  N  N1084  1  0.754200  0.394200  0.286600  1
  N  N1085  1  0.798000  0.907900  0.274900  1
  N  N1086  1  0.202000  0.592100  0.774900  1
  N  N1087  1  0.202000  0.092100  0.725100  1
  N  N1088  1  0.798000  0.407900  0.225100  1
  N  N1089  1  0.721400  0.495300  0.391600  1
  N  N1090  1  0.278600  0.004700  0.891600  1
  N  N1091  1  0.278600  0.504700  0.608400  1
  N  N1092  1  0.721400  0.995300  0.108400  1
  N  N1093  1  0.371000  0.410800  0.192400  1
  N  N1094  1  0.629000  0.089200  0.692400  1
  N  N1095  1  0.629000  0.589200  0.807600  1
  N  N1096  1  0.371000  0.910800  0.307600  1
  N  N1097  1  0.896900  0.555500  0.139200  1
  N  N1098  1  0.103100  0.944500  0.639200  1
  N  N1099  1  0.103100  0.444500  0.860800  1
  N  N1100  1  0.896900  0.055500  0.360800  1
  N  N1101  1  0.610400  0.471600  0.267600  1
  N  N1102  1  0.389600  0.028400  0.767600  1
  N  N1103  1  0.389600  0.528400  0.732400  1
  N  N1104  1  0.610400  0.971600  0.232400  1
  N  N1105  1  0.649600  0.485400  0.205200  1
  N  N1106  1  0.350400  0.014600  0.705200  1
  N  N1107  1  0.350400  0.514600  0.794800  1
  N  N1108  1  0.649600  0.985400  0.294800  1
  N  N1109  1  0.740700  0.507500  0.254600  1
  N  N1110  1  0.259300  0.992500  0.754600  1
  N  N1111  1  0.259300  0.492500  0.745400  1
  N  N1112  1  0.740700  0.007500  0.245400  1
  N  N1113  1  0.663100  0.807100  0.455400  1
  N  N1114  1  0.336900  0.692900  0.955400  1
  N  N1115  1  0.336900  0.192900  0.544600  1
  N  N1116  1  0.663100  0.307100  0.044600  1
  N  N1117  1  0.733200  0.563300  0.450300  1
  N  N1118  1  0.266800  0.936700  0.950300  1
  N  N1119  1  0.266800  0.436700  0.549700  1
  N  N1120  1  0.733200  0.063300  0.049700  1
  N  N1121  1  0.396300  0.732800  0.122900  1
  N  N1122  1  0.603700  0.767200  0.622900  1
  N  N1123  1  0.603700  0.267200  0.877100  1
  N  N1124  1  0.396300  0.232800  0.377100  1
  N  N1125  1  0.278900  0.459500  0.162100  1
  N  N1126  1  0.721100  0.040500  0.662100  1
  N  N1127  1  0.721100  0.540500  0.837900  1
  N  N1128  1  0.278900  0.959500  0.337900  1
  N  N1129  1  0.111300  0.918500  0.158700  1
  N  N1130  1  0.888700  0.581500  0.658700  1
  N  N1131  1  0.888700  0.081500  0.841300  1
  N  N1132  1  0.111300  0.418500  0.341300  1
  N  N1133  1  0.006000  0.648300  0.112800  1
  N  N1134  1  0.994000  0.851700  0.612800  1
  N  N1135  1  0.994000  0.351700  0.887200  1
  N  N1136  1  0.006000  0.148300  0.387200  1
  N  N1137  1  0.612000  0.878500  0.505500  1
  N  N1138  1  0.388000  0.621500  0.005500  1
  N  N1139  1  0.388000  0.121500  0.494500  1
  N  N1140  1  0.612000  0.378500  0.994500  1
  N  N1141  1  0.639300  0.956800  0.454300  1
  N  N1142  1  0.360700  0.543200  0.954300  1
  N  N1143  1  0.360700  0.043200  0.545700  1
  N  N1144  1  0.639300  0.456800  0.045700  1
  N  N1145  1  0.339500  0.796100  0.071800  1
  N  N1146  1  0.660500  0.703900  0.571800  1
  N  N1147  1  0.660500  0.203900  0.928200  1
  N  N1148  1  0.339500  0.296100  0.428200  1
  N  N1149  1  0.449700  0.886600  0.088000  1
  N  N1150  1  0.550300  0.613400  0.588000  1
  N  N1151  1  0.550300  0.113400  0.912000  1
  N  N1152  1  0.449700  0.386600  0.412000  1
  N  N1153  1  0.243200  0.017000  0.157500  1
  N  N1154  1  0.756800  0.483000  0.657500  1
  N  N1155  1  0.756800  0.983000  0.842500  1
  N  N1156  1  0.243200  0.517000  0.342500  1
  N  N1157  1  0.163600  0.073600  0.191400  1
  N  N1158  1  0.836400  0.426400  0.691400  1
  N  N1159  1  0.836400  0.926400  0.808600  1
  N  N1160  1  0.163600  0.573600  0.308600  1
  N  N1161  1  0.785200  0.491100  0.499900  1
  N  N1162  1  0.214800  0.008900  0.999900  1
  N  N1163  1  0.214800  0.508900  0.500100  1
  N  N1164  1  0.785200  0.991100  0.000100  1
  N  N1165  1  0.762500  0.414900  0.446400  1
  N  N1166  1  0.237500  0.085100  0.946400  1
  N  N1167  1  0.237500  0.585100  0.553600  1
  N  N1168  1  0.762500  0.914900  0.053600  1
  N  N1169  1  0.151700  0.355500  0.159200  1
  N  N1170  1  0.848300  0.144500  0.659200  1
  N  N1171  1  0.848300  0.644500  0.840800  1
  N  N1172  1  0.151700  0.855500  0.340800  1
  N  N1173  1  0.242700  0.304400  0.188200  1
  N  N1174  1  0.757300  0.195600  0.688200  1
  N  N1175  1  0.757300  0.695600  0.811800  1
  N  N1176  1  0.242700  0.804400  0.311800  1
  N  N1177  1  0.064100  0.588100  0.062600  1
  N  N1178  1  0.935900  0.911900  0.562600  1
  N  N1179  1  0.935900  0.411900  0.937400  1
  N  N1180  1  0.064100  0.088100  0.437400  1
  N  N1181  1  0.970200  0.495100  0.088000  1
  N  N1182  1  0.029800  0.004900  0.588000  1
  N  N1183  1  0.029800  0.504900  0.912000  1
  N  N1184  1  0.970200  0.995100  0.412000  1
  N  N1185  1  0.256000  0.657900  0.061100  1
  N  N1186  1  0.744000  0.842100  0.561100  1
  N  N1187  1  0.744000  0.342100  0.938900  1
  N  N1188  1  0.256000  0.157900  0.438900  1
  N  N1189  1  0.428600  0.295200  0.170900  1
  N  N1190  1  0.571400  0.204800  0.670900  1
  N  N1191  1  0.571400  0.704800  0.829100  1
  N  N1192  1  0.428600  0.795200  0.329100  1
  N  N1193  1  0.978400  0.583500  0.323600  1
  N  N1194  1  0.021600  0.916500  0.823600  1
  N  N1195  1  0.021600  0.416500  0.676400  1
  N  N1196  1  0.978400  0.083500  0.176400  1
  N  N1197  1  0.564300  0.371300  0.485100  1
  N  N1198  1  0.435700  0.128700  0.985100  1
  N  N1199  1  0.435700  0.628700  0.514900  1
  N  N1200  1  0.564300  0.871300  0.014900  1
  N  N1201  1  0.833300  0.009700  0.473800  1
  N  N1202  1  0.166700  0.490300  0.973800  1
  N  N1203  1  0.166700  0.990300  0.526200  1
  N  N1204  1  0.833300  0.509700  0.026200  1
  N  N1205  1  0.324600  0.415400  0.326000  1
  N  N1206  1  0.675400  0.084600  0.826000  1
  N  N1207  1  0.675400  0.584600  0.674000  1
  N  N1208  1  0.324600  0.915400  0.174000  1
  N  N1209  1  0.500500  0.004900  0.417400  1
  N  N1210  1  0.499500  0.495100  0.917400  1
  N  N1211  1  0.499500  0.995100  0.582600  1
  N  N1212  1  0.500500  0.504900  0.082600  1
  N  N1213  1  0.074300  0.462200  0.172500  1
  N  N1214  1  0.925700  0.037800  0.672500  1
  N  N1215  1  0.925700  0.537800  0.827500  1
  N  N1216  1  0.074300  0.962200  0.327500  1
  N  N1217  1  0.157000  0.741800  0.238500  1
  N  N1218  1  0.843000  0.758200  0.738500  1
  N  N1219  1  0.843000  0.258200  0.761500  1
  N  N1220  1  0.157000  0.241800  0.261500  1
  N  N1221  1  0.174200  0.876400  0.030700  1
  N  N1222  1  0.825800  0.623600  0.530700  1
  N  N1223  1  0.825800  0.123600  0.969300  1
  N  N1224  1  0.174200  0.376400  0.469300  1
  N  N1225  1  0.493000  0.030000  0.104900  1
  N  N1226  1  0.507000  0.470000  0.604900  1
  N  N1227  1  0.507000  0.970000  0.895100  1
  N  N1228  1  0.493000  0.530000  0.395100  1
  N  N1229  1  0.236000  0.641000  0.242000  1
  N  N1230  1  0.764000  0.859000  0.742000  1
  N  N1231  1  0.764000  0.359000  0.758000  1
  N  N1232  1  0.236000  0.141000  0.258000  1
  O  O1233  1  0.791800  0.775600  0.281700  1
  O  O1234  1  0.208200  0.724400  0.781700  1
  O  O1235  1  0.208200  0.224400  0.718300  1
  O  O1236  1  0.791800  0.275600  0.218300  1
  O  O1237  1  0.754500  0.765100  0.203500  1
  O  O1238  1  0.245500  0.734900  0.703500  1
  O  O1239  1  0.245500  0.234900  0.796500  1
  O  O1240  1  0.754500  0.265100  0.296500  1
  O  O1241  1  0.611100  0.727900  0.220000  1
  O  O1242  1  0.388900  0.772100  0.720000  1
  O  O1243  1  0.388900  0.272100  0.780000  1
  O  O1244  1  0.611100  0.227900  0.280000  1
  O  O1245  1  0.646600  0.737800  0.299200  1
  O  O1246  1  0.353400  0.762200  0.799200  1
  O  O1247  1  0.353400  0.262200  0.700800  1
  O  O1248  1  0.646600  0.237800  0.200800  1
  O  O1249  1  0.756500  0.637200  0.293400  1
  O  O1250  1  0.243500  0.862800  0.793400  1
  O  O1251  1  0.243500  0.362800  0.706600  1
  O  O1252  1  0.756500  0.137200  0.206600  1
  O  O1253  1  0.788000  0.650100  0.214400  1
  O  O1254  1  0.212000  0.849900  0.714400  1
  O  O1255  1  0.212000  0.349900  0.785600  1
  O  O1256  1  0.788000  0.150100  0.285600  1
  O  O1257  1  0.643400  0.613100  0.199000  1
  O  O1258  1  0.356600  0.886900  0.699000  1
  O  O1259  1  0.356600  0.386900  0.801000  1
  O  O1260  1  0.643400  0.113100  0.301000  1
  O  O1261  1  0.612600  0.602100  0.278100  1
  O  O1262  1  0.387400  0.897900  0.778100  1
  O  O1263  1  0.387400  0.397900  0.721900  1
  O  O1264  1  0.612600  0.102100  0.221900  1
  O  O1265  1  0.314400  0.687700  0.045700  1
  O  O1266  1  0.685600  0.812300  0.545700  1
  O  O1267  1  0.685600  0.312300  0.954300  1
  O  O1268  1  0.314400  0.187700  0.454300  1
  O  O1269  1  0.210600  0.678400  0.075500  1
  O  O1270  1  0.789400  0.821600  0.575500  1
  O  O1271  1  0.789400  0.321600  0.924500  1
  O  O1272  1  0.210600  0.178400  0.424500  1
  O  O1273  1  0.244200  0.608800  0.061700  1
  O  O1274  1  0.755800  0.891200  0.561700  1
  O  O1275  1  0.755800  0.391200  0.938300  1
  O  O1276  1  0.244200  0.108800  0.438300  1
  O  O1277  1  0.368500  0.258800  0.172600  1
  O  O1278  1  0.631500  0.241200  0.672600  1
  O  O1279  1  0.631500  0.741200  0.827400  1
  O  O1280  1  0.368500  0.758800  0.327400  1
  O  O1281  1  0.459700  0.312900  0.200600  1
  O  O1282  1  0.540300  0.187100  0.700600  1
  O  O1283  1  0.540300  0.687100  0.799400  1
  O  O1284  1  0.459700  0.812900  0.299400  1
  O  O1285  1  0.452500  0.311400  0.138900  1
  O  O1286  1  0.547500  0.188600  0.638900  1
  O  O1287  1  0.547500  0.688600  0.861100  1
  O  O1288  1  0.452500  0.811400  0.361100  1
  O  O1289  1  0.944200  0.565400  0.294600  1
  O  O1290  1  0.055800  0.934600  0.794600  1
  O  O1291  1  0.055800  0.434600  0.705400  1
  O  O1292  1  0.944200  0.065400  0.205400  1
  O  O1293  1  0.045000  0.622200  0.323600  1
  O  O1294  1  0.955000  0.877800  0.823600  1
  O  O1295  1  0.955000  0.377800  0.676400  1
  O  O1296  1  0.045000  0.122200  0.176400  1
  O  O1297  1  0.948600  0.565500  0.353600  1
  O  O1298  1  0.051400  0.934500  0.853600  1
  O  O1299  1  0.051400  0.434500  0.646400  1
  O  O1300  1  0.948600  0.065500  0.146400  1
  O  O1301  1  0.747900  0.661000  0.133500  1
  O  O1302  1  0.252100  0.839000  0.633500  1
  O  O1303  1  0.252100  0.339000  0.866500  1
  O  O1304  1  0.747900  0.161000  0.366500  1
  O  O1305  1  0.220000  0.320400  0.392600  1
  O  O1306  1  0.780000  0.179600  0.892600  1
  O  O1307  1  0.780000  0.679600  0.607400  1
  O  O1308  1  0.220000  0.820400  0.107400  1
  O  O1309  1  0.589200  0.375100  0.452000  1
  O  O1310  1  0.410800  0.124900  0.952000  1
  O  O1311  1  0.410800  0.624900  0.548000  1
  O  O1312  1  0.589200  0.875100  0.048000  1
  O  O1313  1  0.518200  0.392300  0.494500  1
  O  O1314  1  0.481800  0.107700  0.994500  1
  O  O1315  1  0.481800  0.607700  0.505500  1
  O  O1316  1  0.518200  0.892300  0.005500  1
  O  O1317  1  0.591200  0.346400  0.507900  1
  O  O1318  1  0.408800  0.153600  0.007900  1
  O  O1319  1  0.408800  0.653600  0.492100  1
  O  O1320  1  0.591200  0.846400  0.992100  1
  O  O1321  1  0.643300  0.720200  0.139600  1
  O  O1322  1  0.356700  0.779800  0.639600  1
  O  O1323  1  0.356700  0.279800  0.860400  1
  O  O1324  1  0.643300  0.220200  0.360400  1
  O  O1325  1  0.041400  0.612500  0.235200  1
  O  O1326  1  0.958600  0.887500  0.735200  1
  O  O1327  1  0.958600  0.387500  0.764800  1
  O  O1328  1  0.041400  0.112500  0.264800  1
  O  O1329  1  0.818100  0.980400  0.448700  1
  O  O1330  1  0.181900  0.519600  0.948700  1
  O  O1331  1  0.181900  0.019600  0.551300  1
  O  O1332  1  0.818100  0.480400  0.051300  1
  O  O1333  1  0.785300  0.018600  0.494300  1
  O  O1334  1  0.214700  0.481400  0.994300  1
  O  O1335  1  0.214700  0.981400  0.505700  1
  O  O1336  1  0.785300  0.518600  0.005700  1
  O  O1337  1  0.902200  0.031900  0.482700  1
  O  O1338  1  0.097800  0.468100  0.982700  1
  O  O1339  1  0.097800  0.968100  0.517300  1
  O  O1340  1  0.902200  0.531900  0.017300  1
  O  O1341  1  0.335900  0.453800  0.307900  1
  O  O1342  1  0.664100  0.046200  0.807900  1
  O  O1343  1  0.664100  0.546200  0.692100  1
  O  O1344  1  0.335900  0.953800  0.192100  1
  O  O1345  1  0.369400  0.387900  0.325700  1
  O  O1346  1  0.630600  0.112100  0.825700  1
  O  O1347  1  0.630600  0.612100  0.674300  1
  O  O1348  1  0.369400  0.887900  0.174300  1
  O  O1349  1  0.291300  0.419400  0.357700  1
  O  O1350  1  0.708700  0.080600  0.857700  1
  O  O1351  1  0.708700  0.580600  0.642300  1
  O  O1352  1  0.291300  0.919400  0.142300  1
  O  O1353  1  0.359200  0.257200  0.257700  1
  O  O1354  1  0.640800  0.242800  0.757700  1
  O  O1355  1  0.640800  0.742800  0.742300  1
  O  O1356  1  0.359200  0.757200  0.242300  1
  O  O1357  1  0.704000  0.299900  0.411400  1
  O  O1358  1  0.296000  0.200100  0.911400  1
  O  O1359  1  0.296000  0.700100  0.588600  1
  O  O1360  1  0.704000  0.799900  0.088600  1
  O  O1361  1  0.733400  0.734300  0.365400  1
  O  O1362  1  0.266600  0.765700  0.865400  1
  O  O1363  1  0.266600  0.265700  0.634600  1
  O  O1364  1  0.733400  0.234300  0.134600  1
  O  O1365  1  0.449200  0.834100  0.504800  1
  O  O1366  1  0.550800  0.665900  0.004800  1
  O  O1367  1  0.550800  0.165900  0.495200  1
  O  O1368  1  0.449200  0.334100  0.995200  1
  O  O1369  1  0.326600  0.320900  0.100100  1
  O  O1370  1  0.673400  0.179100  0.600100  1
  O  O1371  1  0.673400  0.679100  0.899900  1
  O  O1372  1  0.326600  0.820900  0.399900  1
  O  O1373  1  0.661300  0.622300  0.362200  1
  O  O1374  1  0.338700  0.877700  0.862200  1
  O  O1375  1  0.338700  0.377700  0.637800  1
  O  O1376  1  0.661300  0.122300  0.137800  1
  O  O1377  1  0.647300  0.268200  0.480600  1
  O  O1378  1  0.352700  0.231800  0.980600  1
  O  O1379  1  0.352700  0.731800  0.519400  1
  O  O1380  1  0.647300  0.768200  0.019400  1
  O  O1381  1  0.538500  0.978600  0.402500  1
  O  O1382  1  0.461500  0.521400  0.902500  1
  O  O1383  1  0.461500  0.021400  0.597500  1
  O  O1384  1  0.538500  0.478600  0.097500  1
  O  O1385  1  0.436400  0.983900  0.425300  1
  O  O1386  1  0.563600  0.516100  0.925300  1
  O  O1387  1  0.563600  0.016100  0.574700  1
  O  O1388  1  0.436400  0.483900  0.074700  1
  O  O1389  1  0.532400  0.051400  0.428300  1
  O  O1390  1  0.467600  0.448600  0.928300  1
  O  O1391  1  0.467600  0.948600  0.571700  1
  O  O1392  1  0.532400  0.551400  0.071700  1
  O  O1393  1  0.048000  0.422800  0.150100  1
  O  O1394  1  0.952000  0.077200  0.650100  1
  O  O1395  1  0.952000  0.577200  0.849900  1
  O  O1396  1  0.048000  0.922800  0.349900  1
  O  O1397  1  0.077000  0.428000  0.191300  1
  O  O1398  1  0.923000  0.072000  0.691300  1
  O  O1399  1  0.923000  0.572000  0.808700  1
  O  O1400  1  0.077000  0.928000  0.308700  1
  O  O1401  1  0.037000  0.493700  0.170100  1
  O  O1402  1  0.963000  0.006300  0.670100  1
  O  O1403  1  0.963000  0.506300  0.829900  1
  O  O1404  1  0.037000  0.993700  0.329900  1
  O  O1405  1  0.697500  0.580400  0.080100  1
  O  O1406  1  0.302500  0.919600  0.580100  1
  O  O1407  1  0.302500  0.419600  0.919900  1
  O  O1408  1  0.697500  0.080400  0.419900  1
  O  O1409  1  0.021700  0.759900  0.919600  1
  O  O1410  1  0.978300  0.740100  0.419600  1
  O  O1411  1  0.978300  0.240100  0.080400  1
  O  O1412  1  0.021700  0.259900  0.580400  1
  O  O1413  1  0.416700  0.628200  0.418700  1
  O  O1414  1  0.583300  0.871800  0.918700  1
  O  O1415  1  0.583300  0.371800  0.581300  1
  O  O1416  1  0.416700  0.128200  0.081300  1
  O  O1417  1  0.211300  0.795100  0.236000  1
  O  O1418  1  0.788700  0.704900  0.736000  1
  O  O1419  1  0.788700  0.204900  0.764000  1
  O  O1420  1  0.211300  0.295100  0.264000  1
  O  O1421  1  0.087200  0.728600  0.238100  1
  O  O1422  1  0.912800  0.771400  0.738100  1
  O  O1423  1  0.912800  0.271400  0.761900  1
  O  O1424  1  0.087200  0.228600  0.261900  1
  O  O1425  1  0.189000  0.704100  0.243600  1
  O  O1426  1  0.811000  0.795900  0.743600  1
  O  O1427  1  0.811000  0.295900  0.756400  1
  O  O1428  1  0.189000  0.204100  0.256400  1
  O  O1429  1  0.124800  0.889900  0.013300  1
  O  O1430  1  0.875200  0.610100  0.513300  1
  O  O1431  1  0.875200  0.110100  0.986700  1
  O  O1432  1  0.124800  0.389900  0.486700  1
  O  O1433  1  0.158800  0.828100  0.037600  1
  O  O1434  1  0.841200  0.671900  0.537600  1
  O  O1435  1  0.841200  0.171900  0.962400  1
  O  O1436  1  0.158800  0.328100  0.462400  1
  O  O1437  1  0.234900  0.910600  0.040300  1
  O  O1438  1  0.765100  0.589400  0.540300  1
  O  O1439  1  0.765100  0.089400  0.959700  1
  O  O1440  1  0.234900  0.410600  0.459700  1
  O  O1441  1  0.335600  0.689500  0.389500  1
  O  O1442  1  0.664400  0.810500  0.889500  1
  O  O1443  1  0.664400  0.310500  0.610500  1
  O  O1444  1  0.335600  0.189500  0.110500  1
  O  O1445  1  0.119800  0.321300  0.083100  1
  O  O1446  1  0.880200  0.178700  0.583100  1
  O  O1447  1  0.880200  0.678700  0.916900  1
  O  O1448  1  0.119800  0.821300  0.416900  1
  O  O1449  1  0.515800  0.078500  0.108700  1
  O  O1450  1  0.484200  0.421500  0.608700  1
  O  O1451  1  0.484200  0.921500  0.891300  1
  O  O1452  1  0.515800  0.578500  0.391300  1
  O  O1453  1  0.436000  0.016000  0.077100  1
  O  O1454  1  0.564000  0.484000  0.577100  1
  O  O1455  1  0.564000  0.984000  0.922900  1
  O  O1456  1  0.436000  0.516000  0.422900  1
  O  O1457  1  0.487700  0.987600  0.126600  1
  O  O1458  1  0.512300  0.512400  0.626600  1
  O  O1459  1  0.512300  0.012400  0.873400  1
  O  O1460  1  0.487700  0.487600  0.373400  1
  O  O1461  1  0.377600  0.886500  0.460200  1
  O  O1462  1  0.622400  0.613500  0.960200  1
  O  O1463  1  0.622400  0.113500  0.539800  1
  O  O1464  1  0.377600  0.386500  0.039800  1
  O  O1465  1  0.865100  0.617600  0.978200  1
  O  O1466  1  0.134900  0.882400  0.478200  1
  O  O1467  1  0.134900  0.382400  0.021800  1
  O  O1468  1  0.865100  0.117600  0.521800  1
  O  O1469  1  0.038000  0.767000  0.997400  1
  O  O1470  1  0.962000  0.733000  0.497400  1
  O  O1471  1  0.962000  0.233000  0.002600  1
  O  O1472  1  0.038000  0.267000  0.502600  1
  O  O1473  1  0.120000  0.723200  0.891800  1
  O  O1474  1  0.880000  0.776800  0.391800  1
  O  O1475  1  0.880000  0.276800  0.108200  1
  O  O1476  1  0.120000  0.223200  0.608200  1
  O  O1477  1  0.740400  0.635700  0.011000  1
  O  O1478  1  0.259600  0.864300  0.511000  1
  O  O1479  1  0.259600  0.364300  0.989000  1
  O  O1480  1  0.740400  0.135700  0.489000  1
  O  O1481  1  0.023600  0.151500  0.495800  1
  O  O1482  1  0.976400  0.348500  0.995800  1
  O  O1483  1  0.976400  0.848500  0.504200  1
  O  O1484  1  0.023600  0.651500  0.004200  1
  O  O1485  1  0.876000  0.822100  0.075100  1
  O  O1486  1  0.124000  0.677900  0.575100  1
  O  O1487  1  0.124000  0.177900  0.924900  1
  O  O1488  1  0.876000  0.322100  0.424900  1
  O  O1489  1  0.058000  0.181600  0.112800  1
  O  O1490  1  0.942000  0.318400  0.612800  1
  O  O1491  1  0.942000  0.818400  0.887200  1
  O  O1492  1  0.058000  0.681600  0.387200  1
  O  O1493  1  0.945000  0.527000  0.499000  1
  O  O1494  1  0.055000  0.973000  0.999000  1
  O  O1495  1  0.055000  0.473000  0.501000  1
  O  O1496  1  0.945000  0.027000  0.001000  1
  O  O1497  1  0.916000  0.792000  0.014500  1
  O  O1498  1  0.084000  0.708000  0.514500  1
  O  O1499  1  0.084000  0.208000  0.985500  1
  O  O1500  1  0.916000  0.292000  0.485500  1
  O  O1501  1  0.774000  0.244000  0.506000  1
  O  O1502  1  0.226000  0.256000  0.006000  1
  O  O1503  1  0.226000  0.756000  0.494000  1
  O  O1504  1  0.774000  0.744000  0.994000  1
  O  O1505  1  0.985000  0.513000  0.445000  1
  O  O1506  1  0.015000  0.987000  0.945000  1
  O  O1507  1  0.015000  0.487000  0.555000  1
  O  O1508  1  0.985000  0.013000  0.055000  1
  O  O1509  1  0.085000  0.657000  0.908000  1
  O  O1510  1  0.915000  0.843000  0.408000  1
  O  O1511  1  0.915000  0.343000  0.092000  1
  O  O1512  1  0.085000  0.157000  0.592000  1
  O  O1513  1  0.101000  0.718000  0.033000  1
  O  O1514  1  0.899000  0.782000  0.533000  1
  O  O1515  1  0.899000  0.282000  0.967000  1
  O  O1516  1  0.101000  0.218000  0.467000  1
  O  O1517  1  0.794000  0.734000  0.071000  1
  O  O1518  1  0.206000  0.766000  0.571000  1
  O  O1519  1  0.206000  0.266000  0.929000  1
  O  O1520  1  0.794000  0.234000  0.429000  1
  O  O1521  1  0.967000  0.365000  0.497000  1
  O  O1522  1  0.033000  0.135000  0.997000  1
  O  O1523  1  0.033000  0.635000  0.503000  1
  O  O1524  1  0.967000  0.865000  0.003000  1
  O  O1525  1  0.912000  0.369000  0.547000  1
  O  O1526  1  0.088000  0.131000  0.047000  1
  O  O1527  1  0.088000  0.631000  0.453000  1
  O  O1528  1  0.912000  0.869000  0.953000  1
  O  O1529  1  0.456000  0.880000  0.424000  1
  O  O1530  1  0.544000  0.620000  0.924000  1
  O  O1531  1  0.544000  0.120000  0.576000  1
  O  O1532  1  0.456000  0.380000  0.076000  1
  O  O1533  1  0.784000  0.235000  0.577000  1
  O  O1534  1  0.216000  0.265000  0.077000  1
  O  O1535  1  0.216000  0.765000  0.423000  1
  O  O1536  1  0.784000  0.735000  0.923000  1
  O  O1537  1  0.071000  0.566000  0.398500  1
  O  O1538  1  0.929000  0.934000  0.898500  1
  O  O1539  1  0.929000  0.434000  0.601500  1
  O  O1540  1  0.071000  0.066000  0.101500  1
  O  O1541  1  0.808000  0.346000  0.585000  1
  O  O1542  1  0.192000  0.154000  0.085000  1
  O  O1543  1  0.192000  0.654000  0.415000  1
  O  O1544  1  0.808000  0.846000  0.915000  1
  O  O1545  1  0.879900  0.409400  0.399700  1
  O  O1546  1  0.120100  0.090600  0.899700  1
  O  O1547  1  0.120100  0.590600  0.600300  1
  O  O1548  1  0.879900  0.909400  0.100300  1
  O  O1549  1  0.289000  0.478000  0.427000  1
  O  O1550  1  0.711000  0.022000  0.927000  1
  O  O1551  1  0.711000  0.522000  0.573000  1
  O  O1552  1  0.289000  0.978000  0.073000  1
  O  O1553  1  0.735000  0.286000  0.549000  1
  O  O1554  1  0.265000  0.214000  0.049000  1
  O  O1555  1  0.265000  0.714000  0.451000  1
  O  O1556  1  0.735000  0.786000  0.951000  1
  O  O1557  1  0.012000  0.634000  0.956000  1
  O  O1558  1  0.988000  0.866000  0.456000  1
  O  O1559  1  0.988000  0.366000  0.044000  1
  O  O1560  1  0.012000  0.134000  0.544000  1
  O  O1561  1  0.310600  0.637400  0.248800  1
  O  O1562  1  0.689400  0.862600  0.748800  1
  O  O1563  1  0.689400  0.362600  0.751200  1
  O  O1564  1  0.310600  0.137400  0.251200  1
  O  O1565  1  0.168200  0.580400  0.227200  1
  O  O1566  1  0.831800  0.919600  0.727200  1
  O  O1567  1  0.831800  0.419600  0.772800  1
  O  O1568  1  0.168200  0.080400  0.272800  1
  O  O1569  1  0.130000  0.474400  0.195900  1
  O  O1570  1  0.870000  0.025600  0.695900  1
  O  O1571  1  0.870000  0.525600  0.804100  1
  O  O1572  1  0.130000  0.974400  0.304100  1
  O  O1573  1  0.292200  0.528900  0.421100  1
  O  O1574  1  0.707800  0.971100  0.921100  1
  O  O1575  1  0.707800  0.471100  0.578900  1
  O  O1576  1  0.292200  0.028900  0.078900  1
  O  O1577  1  0.079000  0.613000  0.882000  1
  O  O1578  1  0.921000  0.887000  0.382000  1
  O  O1579  1  0.921000  0.387000  0.118000  1
  O  O1580  1  0.079000  0.113000  0.618000  1
  O  O1581  1  0.922000  0.877000  0.075000  1
  O  O1582  1  0.078000  0.623000  0.575000  1
  O  O1583  1  0.078000  0.123000  0.925000  1
  O  O1584  1  0.922000  0.377000  0.425000  1
  O  O1585  1  0.946000  0.496000  0.417000  1
  O  O1586  1  0.054000  0.004000  0.917000  1
  O  O1587  1  0.054000  0.504000  0.583000  1
  O  O1588  1  0.946000  0.996000  0.083000  1
