# generated using pymatgen
data_H116Pt5C180N20Cl10(O7F6)4
_symmetry_space_group_name_H-M   'P 1'
_cell_length_a   35.85446507
_cell_length_b   35.85446507
_cell_length_c   35.85446507
_cell_angle_alpha   100.49293980
_cell_angle_beta   100.49293980
_cell_angle_gamma   100.49293980
_symmetry_Int_Tables_number   1
_chemical_formula_structural   H116Pt5C180N20Cl10(O7F6)4
_chemical_formula_sum   'H696 Pt30 C1080 N120 Cl60 O168 F144'
_cell_volume   43444.98853026
_cell_formula_units_Z   6
loop_
 _symmetry_equiv_pos_site_id
 _symmetry_equiv_pos_as_xyz
  1  'x, y, z'
loop_
 _atom_site_type_symbol
 _atom_site_label
 _atom_site_symmetry_multiplicity
 _atom_site_fract_x
 _atom_site_fract_y
 _atom_site_fract_z
 _atom_site_occupancy
  C  C1  1  0.750011  0.179844  0.320178  1
  C  C2  1  0.320178  0.750011  0.179844  1
  C  C3  1  0.179844  0.320178  0.750011  1
  C  C4  1  0.249989  0.820156  0.679822  1
  C  C5  1  0.679822  0.249989  0.820156  1
  C  C6  1  0.820156  0.679822  0.249989  1
  C  C7  1  0.750011  0.352344  0.147678  1
  C  C8  1  0.147678  0.750011  0.352344  1
  C  C9  1  0.352344  0.147678  0.750011  1
  C  C10  1  0.249989  0.647656  0.852322  1
  C  C11  1  0.852322  0.249989  0.647656  1
  C  C12  1  0.647656  0.852322  0.249989  1
  C  C13  1  0.594820  0.295260  0.347540  1.0
  C  C14  1  0.347540  0.594820  0.295260  1.0
  C  C15  1  0.295260  0.347540  0.594820  1.0
  C  C16  1  0.204740  0.905180  0.152460  1.0
  C  C17  1  0.905180  0.152460  0.204740  1.0
  C  C18  1  0.152460  0.204740  0.905180  1.0
  C  C19  1  0.405180  0.704740  0.652460  1.0
  C  C20  1  0.652460  0.405180  0.704740  1.0
  C  C21  1  0.704740  0.652460  0.405180  1.0
  C  C22  1  0.795260  0.094820  0.847540  1.0
  C  C23  1  0.094820  0.847540  0.795260  1.0
  C  C24  1  0.847540  0.795260  0.094820  1.0
  C  C25  1  0.576400  0.258430  0.351370  1.0
  C  C26  1  0.351370  0.576400  0.258430  1.0
  C  C27  1  0.258430  0.351370  0.576400  1.0
  C  C28  1  0.241570  0.923600  0.148630  1.0
  C  C29  1  0.923600  0.148630  0.241570  1.0
  C  C30  1  0.148630  0.241570  0.923600  1.0
  C  C31  1  0.423600  0.741570  0.648630  1.0
  C  C32  1  0.648630  0.423600  0.741570  1.0
  C  C33  1  0.741570  0.648630  0.423600  1.0
  C  C34  1  0.758430  0.076400  0.851370  1.0
  C  C35  1  0.076400  0.851370  0.758430  1.0
  C  C36  1  0.851370  0.758430  0.076400  1.0
  C  C37  1  0.535660  0.251740  0.345610  1.0
  C  C38  1  0.345610  0.535660  0.251740  1.0
  C  C39  1  0.251740  0.345610  0.535660  1.0
  C  C40  1  0.248260  0.964340  0.154390  1.0
  C  C41  1  0.964340  0.154390  0.248260  1.0
  C  C42  1  0.154390  0.248260  0.964340  1.0
  C  C43  1  0.464340  0.748260  0.654390  1.0
  C  C44  1  0.654390  0.464340  0.748260  1.0
  C  C45  1  0.748260  0.654390  0.464340  1.0
  C  C46  1  0.751740  0.035660  0.845610  1.0
  C  C47  1  0.035660  0.845610  0.751740  1.0
  C  C48  1  0.845610  0.751740  0.035660  1.0
  C  C49  1  0.516360  0.280530  0.336810  1.0
  C  C50  1  0.336810  0.516360  0.280530  1.0
  C  C51  1  0.280530  0.336810  0.516360  1.0
  C  C52  1  0.219470  0.983640  0.163190  1.0
  C  C53  1  0.983640  0.163190  0.219470  1.0
  C  C54  1  0.163190  0.219470  0.983640  1.0
  C  C55  1  0.483640  0.719470  0.663190  1.0
  C  C56  1  0.663190  0.483640  0.719470  1.0
  C  C57  1  0.719470  0.663190  0.483640  1.0
  C  C58  1  0.780530  0.016360  0.836810  1.0
  C  C59  1  0.016360  0.836810  0.780530  1.0
  C  C60  1  0.836810  0.780530  0.016360  1.0
  C  C61  1  0.538300  0.315800  0.333900  1.0
  C  C62  1  0.333900  0.538300  0.315800  1.0
  C  C63  1  0.315800  0.333900  0.538300  1.0
  C  C64  1  0.184200  0.961700  0.166100  1.0
  C  C65  1  0.961700  0.166100  0.184200  1.0
  C  C66  1  0.166100  0.184200  0.961700  1.0
  C  C67  1  0.461700  0.684200  0.666100  1.0
  C  C68  1  0.666100  0.461700  0.684200  1.0
  C  C69  1  0.684200  0.666100  0.461700  1.0
  C  C70  1  0.815800  0.038300  0.833900  1.0
  C  C71  1  0.038300  0.833900  0.815800  1.0
  C  C72  1  0.833900  0.815800  0.038300  1.0
  C  C73  1  0.627610  0.242470  0.396310  1.0
  C  C74  1  0.396310  0.627610  0.242470  1.0
  C  C75  1  0.242470  0.396310  0.627610  1.0
  C  C76  1  0.257530  0.872390  0.103690  1.0
  C  C77  1  0.872390  0.103690  0.257530  1.0
  C  C78  1  0.103690  0.257530  0.872390  1.0
  C  C79  1  0.372390  0.757530  0.603690  1.0
  C  C80  1  0.603690  0.372390  0.757530  1.0
  C  C81  1  0.757530  0.603690  0.372390  1.0
  C  C82  1  0.742470  0.127610  0.896310  1.0
  C  C83  1  0.127610  0.896310  0.742470  1.0
  C  C84  1  0.896310  0.742470  0.127610  1.0
  C  C85  1  0.642620  0.206850  0.398380  1.0
  C  C86  1  0.398380  0.642620  0.206850  1.0
  C  C87  1  0.206850  0.398380  0.642620  1.0
  C  C88  1  0.293150  0.857380  0.101620  1.0
  C  C89  1  0.857380  0.101620  0.293150  1.0
  C  C90  1  0.101620  0.293150  0.857380  1.0
  C  C91  1  0.357380  0.793150  0.601620  1.0
  C  C92  1  0.601620  0.357380  0.793150  1.0
  C  C93  1  0.793150  0.601620  0.357380  1.0
  C  C94  1  0.706850  0.142620  0.898380  1.0
  C  C95  1  0.142620  0.898380  0.706850  1.0
  C  C96  1  0.898380  0.706850  0.142620  1.0
  C  C97  1  0.673430  0.201150  0.424810  1.0
  C  C98  1  0.424810  0.673430  0.201150  1.0
  C  C99  1  0.201150  0.424810  0.673430  1.0
  C  C100  1  0.298850  0.826570  0.075190  1.0
  C  C101  1  0.826570  0.075190  0.298850  1.0
  C  C102  1  0.075190  0.298850  0.826570  1.0
  C  C103  1  0.326570  0.798850  0.575190  1.0
  C  C104  1  0.575190  0.326570  0.798850  1.0
  C  C105  1  0.798850  0.575190  0.326570  1.0
  C  C106  1  0.701150  0.173430  0.924810  1.0
  C  C107  1  0.173430  0.924810  0.701150  1.0
  C  C108  1  0.924810  0.701150  0.173430  1.0
  C  C109  1  0.678390  0.162830  0.418330  1.0
  C  C110  1  0.418330  0.678390  0.162830  1.0
  C  C111  1  0.162830  0.418330  0.678390  1.0
  C  C112  1  0.337170  0.821610  0.081670  1.0
  C  C113  1  0.821610  0.081670  0.337170  1.0
  C  C114  1  0.081670  0.337170  0.821610  1.0
  C  C115  1  0.321610  0.837170  0.581670  1.0
  C  C116  1  0.581670  0.321610  0.837170  1.0
  C  C117  1  0.837170  0.581670  0.321610  1.0
  C  C118  1  0.662830  0.178390  0.918330  1.0
  C  C119  1  0.178390  0.918330  0.662830  1.0
  C  C120  1  0.918330  0.662830  0.178390  1.0
  C  C121  1  0.706870  0.144550  0.441310  1.0
  C  C122  1  0.441310  0.706870  0.144550  1.0
  C  C123  1  0.144550  0.441310  0.706870  1.0
  C  C124  1  0.355450  0.793130  0.058690  1.0
  C  C125  1  0.793130  0.058690  0.355450  1.0
  C  C126  1  0.058690  0.355450  0.793130  1.0
  C  C127  1  0.293130  0.855450  0.558690  1.0
  C  C128  1  0.558690  0.293130  0.855450  1.0
  C  C129  1  0.855450  0.558690  0.293130  1.0
  C  C130  1  0.644550  0.206870  0.941310  1.0
  C  C131  1  0.206870  0.941310  0.644550  1.0
  C  C132  1  0.941310  0.644550  0.206870  1.0
  C  C133  1  0.734950  0.134520  0.414860  1.0
  C  C134  1  0.414860  0.734950  0.134520  1.0
  C  C135  1  0.134520  0.414860  0.734950  1.0
  C  C136  1  0.365480  0.765050  0.085140  1.0
  C  C137  1  0.765050  0.085140  0.365480  1.0
  C  C138  1  0.085140  0.365480  0.765050  1.0
  C  C139  1  0.265050  0.865480  0.585140  1.0
  C  C140  1  0.585140  0.265050  0.865480  1.0
  C  C141  1  0.865480  0.585140  0.265050  1.0
  C  C142  1  0.634520  0.234950  0.914860  1.0
  C  C143  1  0.234950  0.914860  0.634520  1.0
  C  C144  1  0.914860  0.634520  0.234950  1.0
  C  C145  1  0.708460  0.101370  0.380990  1.0
  C  C146  1  0.380990  0.708460  0.101370  1.0
  C  C147  1  0.101370  0.380990  0.708460  1.0
  C  C148  1  0.398630  0.791540  0.119010  1.0
  C  C149  1  0.791540  0.119010  0.398630  1.0
  C  C150  1  0.119010  0.398630  0.791540  1.0
  C  C151  1  0.291540  0.898630  0.619010  1.0
  C  C152  1  0.619010  0.291540  0.898630  1.0
  C  C153  1  0.898630  0.619010  0.291540  1.0
  C  C154  1  0.601370  0.208460  0.880990  1.0
  C  C155  1  0.208460  0.880990  0.601370  1.0
  C  C156  1  0.880990  0.601370  0.208460  1.0
  C  C157  1  0.668350  0.096370  0.392020  1.0
  C  C158  1  0.392020  0.668350  0.096370  1.0
  C  C159  1  0.096370  0.392020  0.668350  1.0
  C  C160  1  0.403630  0.831650  0.107980  1.0
  C  C161  1  0.831650  0.107980  0.403630  1.0
  C  C162  1  0.107980  0.403630  0.831650  1.0
  C  C163  1  0.331650  0.903630  0.607980  1.0
  C  C164  1  0.607980  0.331650  0.903630  1.0
  C  C165  1  0.903630  0.607980  0.331650  1.0
  C  C166  1  0.596370  0.168350  0.892020  1.0
  C  C167  1  0.168350  0.892020  0.596370  1.0
  C  C168  1  0.892020  0.596370  0.168350  1.0
  C  C169  1  0.654740  0.133250  0.388070  1.0
  C  C170  1  0.388070  0.654740  0.133250  1.0
  C  C171  1  0.133250  0.388070  0.654740  1.0
  C  C172  1  0.366750  0.845260  0.111930  1.0
  C  C173  1  0.845260  0.111930  0.366750  1.0
  C  C174  1  0.111930  0.366750  0.845260  1.0
  C  C175  1  0.345260  0.866750  0.611930  1.0
  C  C176  1  0.611930  0.345260  0.866750  1.0
  C  C177  1  0.866750  0.611930  0.345260  1.0
  C  C178  1  0.633250  0.154740  0.888070  1.0
  C  C179  1  0.154740  0.888070  0.633250  1.0
  C  C180  1  0.888070  0.633250  0.154740  1.0
  C  C181  1  0.623850  0.139110  0.361320  1.0
  C  C182  1  0.361320  0.623850  0.139110  1.0
  C  C183  1  0.139110  0.361320  0.623850  1.0
  C  C184  1  0.360890  0.876150  0.138680  1.0
  C  C185  1  0.876150  0.138680  0.360890  1.0
  C  C186  1  0.138680  0.360890  0.876150  1.0
  C  C187  1  0.376150  0.860890  0.638680  1.0
  C  C188  1  0.638680  0.376150  0.860890  1.0
  C  C189  1  0.860890  0.638680  0.376150  1.0
  C  C190  1  0.639110  0.123850  0.861320  1.0
  C  C191  1  0.123850  0.861320  0.639110  1.0
  C  C192  1  0.861320  0.639110  0.123850  1.0
  C  C193  1  0.618860  0.177150  0.367990  1.0
  C  C194  1  0.367990  0.618860  0.177150  1.0
  C  C195  1  0.177150  0.367990  0.618860  1.0
  C  C196  1  0.322850  0.881140  0.132010  1.0
  C  C197  1  0.881140  0.132010  0.322850  1.0
  C  C198  1  0.132010  0.322850  0.881140  1.0
  C  C199  1  0.381140  0.822850  0.632010  1.0
  C  C200  1  0.632010  0.381140  0.822850  1.0
  C  C201  1  0.822850  0.632010  0.381140  1.0
  C  C202  1  0.677150  0.118860  0.867990  1.0
  C  C203  1  0.118860  0.867990  0.677150  1.0
  C  C204  1  0.867990  0.677150  0.118860  1.0
  C  C205  1  0.589220  0.194350  0.346950  1.0
  C  C206  1  0.346950  0.589220  0.194350  1.0
  C  C207  1  0.194350  0.346950  0.589220  1.0
  C  C208  1  0.305650  0.910780  0.153050  1.0
  C  C209  1  0.910780  0.153050  0.305650  1.0
  C  C210  1  0.153050  0.305650  0.910780  1.0
  C  C211  1  0.410780  0.805650  0.653050  1.0
  C  C212  1  0.653050  0.410780  0.805650  1.0
  C  C213  1  0.805650  0.653050  0.410780  1.0
  C  C214  1  0.694350  0.089220  0.846950  1.0
  C  C215  1  0.089220  0.846950  0.694350  1.0
  C  C216  1  0.846950  0.694350  0.089220  1.0
  C  C217  1  0.678750  0.105020  0.437020  1.0
  C  C218  1  0.437020  0.678750  0.105020  1.0
  C  C219  1  0.105020  0.437020  0.678750  1.0
  C  C220  1  0.394980  0.821250  0.062980  1.0
  C  C221  1  0.821250  0.062980  0.394980  1.0
  C  C222  1  0.062980  0.394980  0.821250  1.0
  C  C223  1  0.321250  0.894980  0.562980  1.0
  C  C224  1  0.562980  0.321250  0.894980  1.0
  C  C225  1  0.894980  0.562980  0.321250  1.0
  C  C226  1  0.605020  0.178750  0.937020  1.0
  C  C227  1  0.178750  0.937020  0.605020  1.0
  C  C228  1  0.937020  0.605020  0.178750  1.0
  C  C229  1  0.768320  0.114900  0.428890  1.0
  C  C230  1  0.428890  0.768320  0.114900  1.0
  C  C231  1  0.114900  0.428890  0.768320  1.0
  C  C232  1  0.385100  0.731680  0.071110  1.0
  C  C233  1  0.731680  0.071110  0.385100  1.0
  C  C234  1  0.071110  0.385100  0.731680  1.0
  C  C235  1  0.231680  0.885100  0.571110  1.0
  C  C236  1  0.571110  0.231680  0.885100  1.0
  C  C237  1  0.885100  0.571110  0.231680  1.0
  C  C238  1  0.614900  0.268320  0.928890  1.0
  C  C239  1  0.268320  0.928890  0.614900  1.0
  C  C240  1  0.928890  0.614900  0.268320  1.0
  C  C241  1  0.789630  0.129880  0.469610  1.0
  C  C242  1  0.469610  0.789630  0.129880  1.0
  C  C243  1  0.129880  0.469610  0.789630  1.0
  C  C244  1  0.370120  0.710370  0.030390  1.0
  C  C245  1  0.710370  0.030390  0.370120  1.0
  C  C246  1  0.030390  0.370120  0.710370  1.0
  C  C247  1  0.210370  0.870120  0.530390  1.0
  C  C248  1  0.530390  0.210370  0.870120  1.0
  C  C249  1  0.870120  0.530390  0.210370  1.0
  C  C250  1  0.629880  0.289630  0.969610  1.0
  C  C251  1  0.289630  0.969610  0.629880  1.0
  C  C252  1  0.969610  0.629880  0.289630  1.0
  C  C253  1  0.671950  0.391830  0.394880  1.0
  C  C254  1  0.394880  0.671950  0.391830  1.0
  C  C255  1  0.391830  0.394880  0.671950  1.0
  C  C256  1  0.108170  0.828050  0.105120  1.0
  C  C257  1  0.828050  0.105120  0.108170  1.0
  C  C258  1  0.105120  0.108170  0.828050  1.0
  C  C259  1  0.328050  0.608170  0.605120  1.0
  C  C260  1  0.605120  0.328050  0.608170  1.0
  C  C261  1  0.608170  0.605120  0.328050  1.0
  C  C262  1  0.891830  0.171950  0.894880  1.0
  C  C263  1  0.171950  0.894880  0.891830  1.0
  C  C264  1  0.894880  0.891830  0.171950  1.0
  C  C265  1  0.695370  0.391560  0.430830  1.0
  C  C266  1  0.430830  0.695370  0.391560  1.0
  C  C267  1  0.391560  0.430830  0.695370  1.0
  C  C268  1  0.108440  0.804630  0.069170  1.0
  C  C269  1  0.804630  0.069170  0.108440  1.0
  C  C270  1  0.069170  0.108440  0.804630  1.0
  C  C271  1  0.304630  0.608440  0.569170  1.0
  C  C272  1  0.569170  0.304630  0.608440  1.0
  C  C273  1  0.608440  0.569170  0.304630  1.0
  C  C274  1  0.891560  0.195370  0.930830  1.0
  C  C275  1  0.195370  0.930830  0.891560  1.0
  C  C276  1  0.930830  0.891560  0.195370  1.0
  C  C277  1  0.675110  0.384820  0.459930  1.0
  C  C278  1  0.459930  0.675110  0.384820  1.0
  C  C279  1  0.384820  0.459930  0.675110  1.0
  C  C280  1  0.115180  0.824890  0.040070  1.0
  C  C281  1  0.824890  0.040070  0.115180  1.0
  C  C282  1  0.040070  0.115180  0.824890  1.0
  C  C283  1  0.324890  0.615180  0.540070  1.0
  C  C284  1  0.540070  0.324890  0.615180  1.0
  C  C285  1  0.615180  0.540070  0.324890  1.0
  C  C286  1  0.884820  0.175110  0.959930  1.0
  C  C287  1  0.175110  0.959930  0.884820  1.0
  C  C288  1  0.959930  0.884820  0.175110  1.0
  C  C289  1  0.634690  0.378970  0.452200  1.0
  C  C290  1  0.452200  0.634690  0.378970  1.0
  C  C291  1  0.378970  0.452200  0.634690  1.0
  C  C292  1  0.121030  0.865310  0.047800  1.0
  C  C293  1  0.865310  0.047800  0.121030  1.0
  C  C294  1  0.047800  0.121030  0.865310  1.0
  C  C295  1  0.365310  0.621030  0.547800  1.0
  C  C296  1  0.547800  0.365310  0.621030  1.0
  C  C297  1  0.621030  0.547800  0.365310  1.0
  C  C298  1  0.878970  0.134690  0.952200  1.0
  C  C299  1  0.134690  0.952200  0.878970  1.0
  C  C300  1  0.952200  0.878970  0.134690  1.0
  C  C301  1  0.614960  0.379990  0.415140  1.0
  C  C302  1  0.415140  0.614960  0.379990  1.0
  C  C303  1  0.379990  0.415140  0.614960  1.0
  C  C304  1  0.120010  0.885040  0.084860  1.0
  C  C305  1  0.885040  0.084860  0.120010  1.0
  C  C306  1  0.084860  0.120010  0.885040  1.0
  C  C307  1  0.385040  0.620010  0.584860  1.0
  C  C308  1  0.584860  0.385040  0.620010  1.0
  C  C309  1  0.620010  0.584860  0.385040  1.0
  C  C310  1  0.879990  0.114960  0.915140  1.0
  C  C311  1  0.114960  0.915140  0.879990  1.0
  C  C312  1  0.915140  0.879990  0.114960  1.0
  C  C313  1  0.929760  0.243350  0.170950  1.0
  C  C314  1  0.170950  0.929760  0.243350  1.0
  C  C315  1  0.243350  0.170950  0.929760  1.0
  C  C316  1  0.256650  0.570240  0.329050  1.0
  C  C317  1  0.570240  0.329050  0.256650  1.0
  C  C318  1  0.329050  0.256650  0.570240  1.0
  C  C319  1  0.070240  0.756650  0.829050  1.0
  C  C320  1  0.829050  0.070240  0.756650  1.0
  C  C321  1  0.756650  0.829050  0.070240  1.0
  C  C322  1  0.743350  0.429760  0.670950  1.0
  C  C323  1  0.429760  0.670950  0.743350  1.0
  C  C324  1  0.670950  0.743350  0.429760  1.0
  C  C325  1  0.958000  0.278520  0.181880  1.0
  C  C326  1  0.181880  0.958000  0.278520  1.0
  C  C327  1  0.278520  0.181880  0.958000  1.0
  C  C328  1  0.221480  0.542000  0.318120  1.0
  C  C329  1  0.542000  0.318120  0.221480  1.0
  C  C330  1  0.318120  0.221480  0.542000  1.0
  C  C331  1  0.042000  0.721480  0.818120  1.0
  C  C332  1  0.818120  0.042000  0.721480  1.0
  C  C333  1  0.721480  0.818120  0.042000  1.0
  C  C334  1  0.778520  0.458000  0.681880  1.0
  C  C335  1  0.458000  0.681880  0.778520  1.0
  C  C336  1  0.681880  0.778520  0.458000  1.0
  C  C337  1  0.979460  0.286070  0.153860  1.0
  C  C338  1  0.153860  0.979460  0.286070  1.0
  C  C339  1  0.286070  0.153860  0.979460  1.0
  C  C340  1  0.213930  0.520540  0.346140  1.0
  C  C341  1  0.520540  0.346140  0.213930  1.0
  C  C342  1  0.346140  0.213930  0.520540  1.0
  C  C343  1  0.020540  0.713930  0.846140  1.0
  C  C344  1  0.846140  0.020540  0.713930  1.0
  C  C345  1  0.713930  0.846140  0.020540  1.0
  C  C346  1  0.786070  0.479460  0.653860  1.0
  C  C347  1  0.479460  0.653860  0.786070  1.0
  C  C348  1  0.653860  0.786070  0.479460  1.0
  C  C349  1  0.972100  0.259650  0.118250  1.0
  C  C350  1  0.118250  0.972100  0.259650  1.0
  C  C351  1  0.259650  0.118250  0.972100  1.0
  C  C352  1  0.240350  0.527900  0.381750  1.0
  C  C353  1  0.527900  0.381750  0.240350  1.0
  C  C354  1  0.381750  0.240350  0.527900  1.0
  C  C355  1  0.027900  0.740350  0.881750  1.0
  C  C356  1  0.881750  0.027900  0.740350  1.0
  C  C357  1  0.740350  0.881750  0.027900  1.0
  C  C358  1  0.759650  0.472100  0.618250  1.0
  C  C359  1  0.472100  0.618250  0.759650  1.0
  C  C360  1  0.618250  0.759650  0.472100  1.0
  C  C361  1  0.943130  0.225710  0.111170  1.0
  C  C362  1  0.111170  0.943130  0.225710  1.0
  C  C363  1  0.225710  0.111170  0.943130  1.0
  C  C364  1  0.274290  0.556870  0.388830  1.0
  C  C365  1  0.556870  0.388830  0.274290  1.0
  C  C366  1  0.388830  0.274290  0.556870  1.0
  C  C367  1  0.056870  0.774290  0.888830  1.0
  C  C368  1  0.888830  0.056870  0.774290  1.0
  C  C369  1  0.774290  0.888830  0.056870  1.0
  C  C370  1  0.725710  0.443130  0.611170  1.0
  C  C371  1  0.443130  0.611170  0.725710  1.0
  C  C372  1  0.611170  0.725710  0.443130  1.0
  C  C373  1  0.756410  0.434070  0.429970  1.0
  C  C374  1  0.429970  0.756410  0.434070  1.0
  C  C375  1  0.434070  0.429970  0.756410  1.0
  C  C376  1  0.065930  0.743590  0.070030  1.0
  C  C377  1  0.743590  0.070030  0.065930  1.0
  C  C378  1  0.070030  0.065930  0.743590  1.0
  C  C379  1  0.243590  0.565930  0.570030  1.0
  C  C380  1  0.570030  0.243590  0.565930  1.0
  C  C381  1  0.565930  0.570030  0.243590  1.0
  C  C382  1  0.934070  0.256410  0.929970  1.0
  C  C383  1  0.256410  0.929970  0.934070  1.0
  C  C384  1  0.929970  0.934070  0.256410  1.0
  C  C385  1  0.797920  0.432590  0.440670  1.0
  C  C386  1  0.440670  0.797920  0.432590  1.0
  C  C387  1  0.432590  0.440670  0.797920  1.0
  C  C388  1  0.067410  0.702080  0.059330  1.0
  C  C389  1  0.702080  0.059330  0.067410  1.0
  C  C390  1  0.059330  0.067410  0.702080  1.0
  C  C391  1  0.202080  0.567410  0.559330  1.0
  C  C392  1  0.559330  0.202080  0.567410  1.0
  C  C393  1  0.567410  0.559330  0.202080  1.0
  C  C394  1  0.932590  0.297920  0.940670  1.0
  C  C395  1  0.297920  0.940670  0.932590  1.0
  C  C396  1  0.940670  0.932590  0.297920  1.0
  C  C397  1  0.830930  0.457990  0.437610  1.0
  C  C398  1  0.437610  0.830930  0.457990  1.0
  C  C399  1  0.457990  0.437610  0.830930  1.0
  C  C400  1  0.042010  0.669070  0.062390  1.0
  C  C401  1  0.669070  0.062390  0.042010  1.0
  C  C402  1  0.062390  0.042010  0.669070  1.0
  C  C403  1  0.169070  0.542010  0.562390  1.0
  C  C404  1  0.562390  0.169070  0.542010  1.0
  C  C405  1  0.542010  0.562390  0.169070  1.0
  C  C406  1  0.957990  0.330930  0.937610  1.0
  C  C407  1  0.330930  0.937610  0.957990  1.0
  C  C408  1  0.937610  0.957990  0.330930  1.0
  C  C409  1  0.865800  0.447810  0.451920  1.0
  C  C410  1  0.451920  0.865800  0.447810  1.0
  C  C411  1  0.447810  0.451920  0.865800  1.0
  C  C412  1  0.052190  0.634200  0.048080  1.0
  C  C413  1  0.634200  0.048080  0.052190  1.0
  C  C414  1  0.048080  0.052190  0.634200  1.0
  C  C415  1  0.134200  0.552190  0.548080  1.0
  C  C416  1  0.548080  0.134200  0.552190  1.0
  C  C417  1  0.552190  0.548080  0.134200  1.0
  C  C418  1  0.947810  0.365800  0.951920  1.0
  C  C419  1  0.365800  0.951920  0.947810  1.0
  C  C420  1  0.951920  0.947810  0.365800  1.0
  C  C421  1  0.907430  0.468530  0.455570  1.0
  C  C422  1  0.455570  0.907430  0.468530  1.0
  C  C423  1  0.468530  0.455570  0.907430  1.0
  C  C424  1  0.031470  0.592570  0.044430  1.0
  C  C425  1  0.592570  0.044430  0.031470  1.0
  C  C426  1  0.044430  0.031470  0.592570  1.0
  C  C427  1  0.092570  0.531470  0.544430  1.0
  C  C428  1  0.544430  0.092570  0.531470  1.0
  C  C429  1  0.531470  0.544430  0.092570  1.0
  C  C430  1  0.968530  0.407430  0.955570  1.0
  C  C431  1  0.407430  0.955570  0.968530  1.0
  C  C432  1  0.955570  0.968530  0.407430  1.0
  C  C433  1  0.923450  0.442190  0.426050  1.0
  C  C434  1  0.426050  0.923450  0.442190  1.0
  C  C435  1  0.442190  0.426050  0.923450  1.0
  C  C436  1  0.057810  0.576550  0.073950  1.0
  C  C437  1  0.576550  0.073950  0.057810  1.0
  C  C438  1  0.073950  0.057810  0.576550  1.0
  C  C439  1  0.076550  0.557810  0.573950  1.0
  C  C440  1  0.573950  0.076550  0.557810  1.0
  C  C441  1  0.557810  0.573950  0.076550  1.0
  C  C442  1  0.942190  0.423450  0.926050  1.0
  C  C443  1  0.423450  0.926050  0.942190  1.0
  C  C444  1  0.926050  0.942190  0.423450  1.0
  C  C445  1  0.965900  0.454170  0.421780  1.0
  C  C446  1  0.421780  0.965900  0.454170  1.0
  C  C447  1  0.454170  0.421780  0.965900  1.0
  C  C448  1  0.045830  0.534100  0.078220  1.0
  C  C449  1  0.534100  0.078220  0.045830  1.0
  C  C450  1  0.078220  0.045830  0.534100  1.0
  C  C451  1  0.034100  0.545830  0.578220  1.0
  C  C452  1  0.578220  0.034100  0.545830  1.0
  C  C453  1  0.545830  0.578220  0.034100  1.0
  C  C454  1  0.954170  0.465900  0.921780  1.0
  C  C455  1  0.465900  0.921780  0.954170  1.0
  C  C456  1  0.921780  0.954170  0.465900  1.0
  C  C457  1  0.966010  0.424930  0.384730  1.0
  C  C458  1  0.384730  0.966010  0.424930  1.0
  C  C459  1  0.424930  0.384730  0.966010  1.0
  C  C460  1  0.075070  0.533990  0.115270  1.0
  C  C461  1  0.533990  0.115270  0.075070  1.0
  C  C462  1  0.115270  0.075070  0.533990  1.0
  C  C463  1  0.033990  0.575070  0.615270  1.0
  C  C464  1  0.615270  0.033990  0.575070  1.0
  C  C465  1  0.575070  0.615270  0.033990  1.0
  C  C466  1  0.924930  0.466010  0.884730  1.0
  C  C467  1  0.466010  0.884730  0.924930  1.0
  C  C468  1  0.884730  0.924930  0.466010  1.0
  C  C469  1  0.001410  0.428790  0.365480  1.0
  C  C470  1  0.365480  0.001410  0.428790  1.0
  C  C471  1  0.428790  0.365480  0.001410  1.0
  C  C472  1  0.071210  0.498590  0.134520  1.0
  C  C473  1  0.498590  0.134520  0.071210  1.0
  C  C474  1  0.134520  0.071210  0.498590  1.0
  C  C475  1  0.998590  0.571210  0.634520  1.0
  C  C476  1  0.634520  0.998590  0.571210  1.0
  C  C477  1  0.571210  0.634520  0.998590  1.0
  C  C478  1  0.928790  0.501410  0.865480  1.0
  C  C479  1  0.501410  0.865480  0.928790  1.0
  C  C480  1  0.865480  0.928790  0.501410  1.0
  C  C481  1  0.991930  0.393870  0.331790  1.0
  C  C482  1  0.331790  0.991930  0.393870  1.0
  C  C483  1  0.393870  0.331790  0.991930  1.0
  C  C484  1  0.106130  0.508070  0.168210  1.0
  C  C485  1  0.508070  0.168210  0.106130  1.0
  C  C486  1  0.168210  0.106130  0.508070  1.0
  C  C487  1  0.008070  0.606130  0.668210  1.0
  C  C488  1  0.668210  0.008070  0.606130  1.0
  C  C489  1  0.606130  0.668210  0.008070  1.0
  C  C490  1  0.893870  0.491930  0.831790  1.0
  C  C491  1  0.491930  0.831790  0.893870  1.0
  C  C492  1  0.831790  0.893870  0.491930  1.0
  C  C493  1  0.984130  0.391790  0.291660  1.0
  C  C494  1  0.291660  0.984130  0.391790  1.0
  C  C495  1  0.391790  0.291660  0.984130  1.0
  C  C496  1  0.108210  0.515870  0.208340  1.0
  C  C497  1  0.515870  0.208340  0.108210  1.0
  C  C498  1  0.208340  0.108210  0.515870  1.0
  C  C499  1  0.015870  0.608210  0.708340  1.0
  C  C500  1  0.708340  0.015870  0.608210  1.0
  C  C501  1  0.608210  0.708340  0.015870  1.0
  C  C502  1  0.891790  0.484130  0.791660  1.0
  C  C503  1  0.484130  0.791660  0.891790  1.0
  C  C504  1  0.791660  0.891790  0.484130  1.0
  C  C505  1  0.978570  0.354380  0.269290  1.0
  C  C506  1  0.269290  0.978570  0.354380  1.0
  C  C507  1  0.354380  0.269290  0.978570  1.0
  C  C508  1  0.145620  0.521430  0.230710  1.0
  C  C509  1  0.521430  0.230710  0.145620  1.0
  C  C510  1  0.230710  0.145620  0.521430  1.0
  C  C511  1  0.021430  0.645620  0.730710  1.0
  C  C512  1  0.730710  0.021430  0.645620  1.0
  C  C513  1  0.645620  0.730710  0.021430  1.0
  C  C514  1  0.854380  0.478570  0.769290  1.0
  C  C515  1  0.478570  0.769290  0.854380  1.0
  C  C516  1  0.769290  0.854380  0.478570  1.0
  C  C517  1  0.970810  0.340670  0.226500  1.0
  C  C518  1  0.226500  0.970810  0.340670  1.0
  C  C519  1  0.340670  0.226500  0.970810  1.0
  C  C520  1  0.159330  0.529190  0.273500  1.0
  C  C521  1  0.529190  0.273500  0.159330  1.0
  C  C522  1  0.273500  0.159330  0.529190  1.0
  C  C523  1  0.029190  0.659330  0.773500  1.0
  C  C524  1  0.773500  0.029190  0.659330  1.0
  C  C525  1  0.659330  0.773500  0.029190  1.0
  C  C526  1  0.840670  0.470810  0.726500  1.0
  C  C527  1  0.470810  0.726500  0.840670  1.0
  C  C528  1  0.726500  0.840670  0.470810  1.0
  C  C529  1  0.973850  0.287920  0.252480  1.0
  C  C530  1  0.252480  0.973850  0.287920  1.0
  C  C531  1  0.287920  0.252480  0.973850  1.0
  C  C532  1  0.212080  0.526150  0.247520  1.0
  C  C533  1  0.526150  0.247520  0.212080  1.0
  C  C534  1  0.247520  0.212080  0.526150  1.0
  C  C535  1  0.026150  0.712080  0.747520  1.0
  C  C536  1  0.747520  0.026150  0.712080  1.0
  C  C537  1  0.712080  0.747520  0.026150  1.0
  C  C538  1  0.787920  0.473850  0.752480  1.0
  C  C539  1  0.473850  0.752480  0.787920  1.0
  C  C540  1  0.752480  0.787920  0.473850  1.0
  C  C541  1  0.980340  0.321820  0.285320  1.0
  C  C542  1  0.285320  0.980340  0.321820  1.0
  C  C543  1  0.321820  0.285320  0.980340  1.0
  C  C544  1  0.178180  0.519660  0.214680  1.0
  C  C545  1  0.519660  0.214680  0.178180  1.0
  C  C546  1  0.214680  0.178180  0.519660  1.0
  C  C547  1  0.019660  0.678180  0.714680  1.0
  C  C548  1  0.714680  0.019660  0.678180  1.0
  C  C549  1  0.678180  0.714680  0.019660  1.0
  C  C550  1  0.821820  0.480340  0.785320  1.0
  C  C551  1  0.480340  0.785320  0.821820  1.0
  C  C552  1  0.785320  0.821820  0.480340  1.0
  C  C553  1  0.987860  0.323790  0.325150  1.0
  C  C554  1  0.325150  0.987860  0.323790  1.0
  C  C555  1  0.323790  0.325150  0.987860  1.0
  C  C556  1  0.176210  0.512140  0.174850  1.0
  C  C557  1  0.512140  0.174850  0.176210  1.0
  C  C558  1  0.174850  0.176210  0.512140  1.0
  C  C559  1  0.012140  0.676210  0.674850  1.0
  C  C560  1  0.674850  0.012140  0.676210  1.0
  C  C561  1  0.676210  0.674850  0.012140  1.0
  C  C562  1  0.823790  0.487860  0.825150  1.0
  C  C563  1  0.487860  0.825150  0.823790  1.0
  C  C564  1  0.825150  0.823790  0.487860  1.0
  C  C565  1  0.993690  0.361440  0.347760  1.0
  C  C566  1  0.347760  0.993690  0.361440  1.0
  C  C567  1  0.361440  0.347760  0.993690  1.0
  C  C568  1  0.138560  0.506310  0.152240  1.0
  C  C569  1  0.506310  0.152240  0.138560  1.0
  C  C570  1  0.152240  0.138560  0.506310  1.0
  C  C571  1  0.006310  0.638560  0.652240  1.0
  C  C572  1  0.652240  0.006310  0.638560  1.0
  C  C573  1  0.638560  0.652240  0.006310  1.0
  C  C574  1  0.861440  0.493690  0.847760  1.0
  C  C575  1  0.493690  0.847760  0.861440  1.0
  C  C576  1  0.847760  0.861440  0.493690  1.0
  C  C577  1  0.004270  0.375970  0.391470  1.0
  C  C578  1  0.391470  0.004270  0.375970  1.0
  C  C579  1  0.375970  0.391470  0.004270  1.0
  C  C580  1  0.124030  0.495730  0.108530  1.0
  C  C581  1  0.495730  0.108530  0.124030  1.0
  C  C582  1  0.108530  0.124030  0.495730  1.0
  C  C583  1  0.995730  0.624030  0.608530  1.0
  C  C584  1  0.608530  0.995730  0.624030  1.0
  C  C585  1  0.624030  0.608530  0.995730  1.0
  C  C586  1  0.875970  0.504270  0.891470  1.0
  C  C587  1  0.504270  0.891470  0.875970  1.0
  C  C588  1  0.891470  0.875970  0.504270  1.0
  C  C589  1  0.967980  0.388620  0.402600  1.0
  C  C590  1  0.402600  0.967980  0.388620  1.0
  C  C591  1  0.388620  0.402600  0.967980  1.0
  C  C592  1  0.111380  0.532020  0.097400  1.0
  C  C593  1  0.532020  0.097400  0.111380  1.0
  C  C594  1  0.097400  0.111380  0.532020  1.0
  C  C595  1  0.032020  0.611380  0.597400  1.0
  C  C596  1  0.597400  0.032020  0.611380  1.0
  C  C597  1  0.611380  0.597400  0.032020  1.0
  C  C598  1  0.888620  0.467980  0.902600  1.0
  C  C599  1  0.467980  0.902600  0.888620  1.0
  C  C600  1  0.902600  0.888620  0.467980  1.0
  C  C601  1  0.968210  0.405470  0.445580  1.0
  C  C602  1  0.445580  0.968210  0.405470  1.0
  C  C603  1  0.405470  0.445580  0.968210  1.0
  C  C604  1  0.094530  0.531790  0.054420  1.0
  C  C605  1  0.531790  0.054420  0.094530  1.0
  C  C606  1  0.054420  0.094530  0.531790  1.0
  C  C607  1  0.031790  0.594530  0.554420  1.0
  C  C608  1  0.554420  0.031790  0.594530  1.0
  C  C609  1  0.594530  0.554420  0.031790  1.0
  C  C610  1  0.905470  0.468210  0.945580  1.0
  C  C611  1  0.468210  0.945580  0.905470  1.0
  C  C612  1  0.945580  0.905470  0.468210  1.0
  C  C613  1  0.925090  0.405660  0.443630  1.0
  C  C614  1  0.443630  0.925090  0.405660  1.0
  C  C615  1  0.405660  0.443630  0.925090  1.0
  C  C616  1  0.094340  0.574910  0.056370  1.0
  C  C617  1  0.574910  0.056370  0.094340  1.0
  C  C618  1  0.056370  0.094340  0.574910  1.0
  C  C619  1  0.074910  0.594340  0.556370  1.0
  C  C620  1  0.556370  0.074910  0.594340  1.0
  C  C621  1  0.594340  0.556370  0.074910  1.0
  C  C622  1  0.905660  0.425090  0.943630  1.0
  C  C623  1  0.425090  0.943630  0.905660  1.0
  C  C624  1  0.943630  0.905660  0.425090  1.0
  C  C625  1  0.909790  0.415380  0.481100  1.0
  C  C626  1  0.481100  0.909790  0.415380  1.0
  C  C627  1  0.415380  0.481100  0.909790  1.0
  C  C628  1  0.084620  0.590210  0.018900  1.0
  C  C629  1  0.590210  0.018900  0.084620  1.0
  C  C630  1  0.018900  0.084620  0.590210  1.0
  C  C631  1  0.090210  0.584620  0.518900  1.0
  C  C632  1  0.518900  0.090210  0.584620  1.0
  C  C633  1  0.584620  0.518900  0.090210  1.0
  C  C634  1  0.915380  0.409790  0.981100  1.0
  C  C635  1  0.409790  0.981100  0.915380  1.0
  C  C636  1  0.981100  0.915380  0.409790  1.0
  C  C637  1  0.867250  0.415170  0.467600  1.0
  C  C638  1  0.467600  0.867250  0.415170  1.0
  C  C639  1  0.415170  0.467600  0.867250  1.0
  C  C640  1  0.084830  0.632750  0.032400  1.0
  C  C641  1  0.632750  0.032400  0.084830  1.0
  C  C642  1  0.032400  0.084830  0.632750  1.0
  C  C643  1  0.132750  0.584830  0.532400  1.0
  C  C644  1  0.532400  0.132750  0.584830  1.0
  C  C645  1  0.584830  0.532400  0.132750  1.0
  C  C646  1  0.915170  0.367250  0.967600  1.0
  C  C647  1  0.367250  0.967600  0.915170  1.0
  C  C648  1  0.967600  0.915170  0.367250  1.0
  C  C649  1  0.833950  0.389510  0.470460  1.0
  C  C650  1  0.470460  0.833950  0.389510  1.0
  C  C651  1  0.389510  0.470460  0.833950  1.0
  C  C652  1  0.110490  0.666050  0.029540  1.0
  C  C653  1  0.666050  0.029540  0.110490  1.0
  C  C654  1  0.029540  0.110490  0.666050  1.0
  C  C655  1  0.166050  0.610490  0.529540  1.0
  C  C656  1  0.529540  0.166050  0.610490  1.0
  C  C657  1  0.610490  0.529540  0.166050  1.0
  C  C658  1  0.889510  0.333950  0.970460  1.0
  C  C659  1  0.333950  0.970460  0.889510  1.0
  C  C660  1  0.970460  0.889510  0.333950  1.0
  C  C661  1  0.799380  0.399810  0.456420  1.0
  C  C662  1  0.456420  0.799380  0.399810  1.0
  C  C663  1  0.399810  0.456420  0.799380  1.0
  C  C664  1  0.100190  0.700620  0.043580  1.0
  C  C665  1  0.700620  0.043580  0.100190  1.0
  C  C666  1  0.043580  0.100190  0.700620  1.0
  C  C667  1  0.200620  0.600190  0.543580  1.0
  C  C668  1  0.543580  0.200620  0.600190  1.0
  C  C669  1  0.600190  0.543580  0.200620  1.0
  C  C670  1  0.899810  0.299380  0.956420  1.0
  C  C671  1  0.299380  0.956420  0.899810  1.0
  C  C672  1  0.956420  0.899810  0.299380  1.0
  C  C673  1  0.758760  0.380860  0.455330  1.0
  C  C674  1  0.455330  0.758760  0.380860  1.0
  C  C675  1  0.380860  0.455330  0.758760  1.0
  C  C676  1  0.119140  0.741240  0.044670  1.0
  C  C677  1  0.741240  0.044670  0.119140  1.0
  C  C678  1  0.044670  0.119140  0.741240  1.0
  C  C679  1  0.241240  0.619140  0.544670  1.0
  C  C680  1  0.544670  0.241240  0.619140  1.0
  C  C681  1  0.619140  0.544670  0.241240  1.0
  C  C682  1  0.880860  0.258760  0.955330  1.0
  C  C683  1  0.258760  0.955330  0.880860  1.0
  C  C684  1  0.955330  0.880860  0.258760  1.0
  C  C685  1  0.924550  0.459990  0.495140  1.0
  C  C686  1  0.495140  0.924550  0.459990  1.0
  C  C687  1  0.459990  0.495140  0.924550  1.0
  C  C688  1  0.040010  0.575450  0.004860  1.0
  C  C689  1  0.575450  0.004860  0.040010  1.0
  C  C690  1  0.004860  0.040010  0.575450  1.0
  C  C691  1  0.075450  0.540010  0.504860  1.0
  C  C692  1  0.504860  0.075450  0.540010  1.0
  C  C693  1  0.540010  0.504860  0.075450  1.0
  C  C694  1  0.959990  0.424550  0.995140  1.0
  C  C695  1  0.424550  0.995140  0.959990  1.0
  C  C696  1  0.995140  0.959990  0.424550  1.0
  C  C697  1  0.979940  0.495430  0.422070  1.0
  C  C698  1  0.422070  0.979940  0.495430  1.0
  C  C699  1  0.495430  0.422070  0.979940  1.0
  C  C700  1  0.004570  0.520060  0.077930  1.0
  C  C701  1  0.520060  0.077930  0.004570  1.0
  C  C702  1  0.077930  0.004570  0.520060  1.0
  C  C703  1  0.020060  0.504570  0.577930  1.0
  C  C704  1  0.577930  0.020060  0.504570  1.0
  C  C705  1  0.504570  0.577930  0.020060  1.0
  C  C706  1  0.995430  0.479940  0.922070  1.0
  C  C707  1  0.479940  0.922070  0.995430  1.0
  C  C708  1  0.922070  0.995430  0.479940  1.0
  C  C709  1  0.032050  0.414830  0.392630  1.0
  C  C710  1  0.392630  0.032050  0.414830  1.0
  C  C711  1  0.414830  0.392630  0.032050  1.0
  C  C712  1  0.085170  0.467950  0.107370  1.0
  C  C713  1  0.467950  0.107370  0.085170  1.0
  C  C714  1  0.107370  0.085170  0.467950  1.0
  C  C715  1  0.967950  0.585170  0.607370  1.0
  C  C716  1  0.607370  0.967950  0.585170  1.0
  C  C717  1  0.585170  0.607370  0.967950  1.0
  C  C718  1  0.914830  0.532050  0.892630  1.0
  C  C719  1  0.532050  0.892630  0.914830  1.0
  C  C720  1  0.892630  0.914830  0.532050  1.0
  C  C721  1  0.986210  0.385840  0.474360  1.0
  C  C722  1  0.474360  0.986210  0.385840  1.0
  C  C723  1  0.385840  0.474360  0.986210  1.0
  C  C724  1  0.114160  0.513790  0.025640  1.0
  C  C725  1  0.513790  0.025640  0.114160  1.0
  C  C726  1  0.025640  0.114160  0.513790  1.0
  C  C727  1  0.013790  0.614160  0.525640  1.0
  C  C728  1  0.525640  0.013790  0.614160  1.0
  C  C729  1  0.614160  0.525640  0.013790  1.0
  C  C730  1  0.885840  0.486210  0.974360  1.0
  C  C731  1  0.486210  0.974360  0.885840  1.0
  C  C732  1  0.974360  0.885840  0.486210  1.0
  C  C733  1  0.653430  0.420710  0.294910  1.0
  C  C734  1  0.294910  0.653430  0.420710  1.0
  C  C735  1  0.420710  0.294910  0.653430  1.0
  C  C736  1  0.079290  0.846570  0.205090  1.0
  C  C737  1  0.846570  0.205090  0.079290  1.0
  C  C738  1  0.205090  0.079290  0.846570  1.0
  C  C739  1  0.346570  0.579290  0.705090  1.0
  C  C740  1  0.705090  0.346570  0.579290  1.0
  C  C741  1  0.579290  0.705090  0.346570  1.0
  C  C742  1  0.920710  0.153430  0.794910  1.0
  C  C743  1  0.153430  0.794910  0.920710  1.0
  C  C744  1  0.794910  0.920710  0.153430  1.0
  C  C745  1  0.671220  0.457360  0.290120  1.0
  C  C746  1  0.290120  0.671220  0.457360  1.0
  C  C747  1  0.457360  0.290120  0.671220  1.0
  C  C748  1  0.042640  0.828780  0.209880  1.0
  C  C749  1  0.828780  0.209880  0.042640  1.0
  C  C750  1  0.209880  0.042640  0.828780  1.0
  C  C751  1  0.328780  0.542640  0.709880  1.0
  C  C752  1  0.709880  0.328780  0.542640  1.0
  C  C753  1  0.542640  0.709880  0.328780  1.0
  C  C754  1  0.957360  0.171220  0.790120  1.0
  C  C755  1  0.171220  0.790120  0.957360  1.0
  C  C756  1  0.790120  0.957360  0.171220  1.0
  C  C757  1  0.675510  0.488550  0.321840  1.0
  C  C758  1  0.321840  0.675510  0.488550  1.0
  C  C759  1  0.488550  0.321840  0.675510  1.0
  C  C760  1  0.011450  0.824490  0.178160  1.0
  C  C761  1  0.824490  0.178160  0.011450  1.0
  C  C762  1  0.178160  0.011450  0.824490  1.0
  C  C763  1  0.324490  0.511450  0.678160  1.0
  C  C764  1  0.678160  0.324490  0.511450  1.0
  C  C765  1  0.511450  0.678160  0.324490  1.0
  C  C766  1  0.988550  0.175510  0.821840  1.0
  C  C767  1  0.175510  0.821840  0.988550  1.0
  C  C768  1  0.821840  0.988550  0.175510  1.0
  C  C769  1  0.662600  0.482090  0.355010  1.0
  C  C770  1  0.355010  0.662600  0.482090  1.0
  C  C771  1  0.482090  0.355010  0.662600  1.0
  C  C772  1  0.017910  0.837400  0.144990  1.0
  C  C773  1  0.837400  0.144990  0.017910  1.0
  C  C774  1  0.144990  0.017910  0.837400  1.0
  C  C775  1  0.337400  0.517910  0.644990  1.0
  C  C776  1  0.644990  0.337400  0.517910  1.0
  C  C777  1  0.517910  0.644990  0.337400  1.0
  C  C778  1  0.982090  0.162600  0.855010  1.0
  C  C779  1  0.162600  0.855010  0.982090  1.0
  C  C780  1  0.855010  0.982090  0.162600  1.0
  C  C781  1  0.645400  0.444100  0.355900  1.0
  C  C782  1  0.355900  0.645400  0.444100  1.0
  C  C783  1  0.444100  0.355900  0.645400  1.0
  C  C784  1  0.055900  0.854600  0.144100  1.0
  C  C785  1  0.854600  0.144100  0.055900  1.0
  C  C786  1  0.144100  0.055900  0.854600  1.0
  C  C787  1  0.354600  0.555900  0.644100  1.0
  C  C788  1  0.644100  0.354600  0.555900  1.0
  C  C789  1  0.555900  0.644100  0.354600  1.0
  C  C790  1  0.944100  0.145400  0.855900  1.0
  C  C791  1  0.145400  0.855900  0.944100  1.0
  C  C792  1  0.855900  0.944100  0.145400  1.0
  C  C793  1  0.654110  0.448720  0.219630  1.0
  C  C794  1  0.219630  0.654110  0.448720  1.0
  C  C795  1  0.448720  0.219630  0.654110  1.0
  C  C796  1  0.051280  0.845890  0.280370  1.0
  C  C797  1  0.845890  0.280370  0.051280  1.0
  C  C798  1  0.280370  0.051280  0.845890  1.0
  C  C799  1  0.345890  0.551280  0.780370  1.0
  C  C800  1  0.780370  0.345890  0.551280  1.0
  C  C801  1  0.551280  0.780370  0.345890  1.0
  C  C802  1  0.948720  0.154110  0.719630  1.0
  C  C803  1  0.154110  0.719630  0.948720  1.0
  C  C804  1  0.719630  0.948720  0.154110  1.0
  C  C805  1  0.675580  0.459480  0.190160  1.0
  C  C806  1  0.190160  0.675580  0.459480  1.0
  C  C807  1  0.459480  0.190160  0.675580  1.0
  C  C808  1  0.040520  0.824420  0.309840  1.0
  C  C809  1  0.824420  0.309840  0.040520  1.0
  C  C810  1  0.309840  0.040520  0.824420  1.0
  C  C811  1  0.324420  0.540520  0.809840  1.0
  C  C812  1  0.809840  0.324420  0.540520  1.0
  C  C813  1  0.540520  0.809840  0.324420  1.0
  C  C814  1  0.959480  0.175580  0.690160  1.0
  C  C815  1  0.175580  0.690160  0.959480  1.0
  C  C816  1  0.690160  0.959480  0.175580  1.0
  C  C817  1  0.663360  0.451770  0.149880  1.0
  C  C818  1  0.149880  0.663360  0.451770  1.0
  C  C819  1  0.451770  0.149880  0.663360  1.0
  C  C820  1  0.048230  0.836640  0.350120  1.0
  C  C821  1  0.836640  0.350120  0.048230  1.0
  C  C822  1  0.350120  0.048230  0.836640  1.0
  C  C823  1  0.336640  0.548230  0.850120  1.0
  C  C824  1  0.850120  0.336640  0.548230  1.0
  C  C825  1  0.548230  0.850120  0.336640  1.0
  C  C826  1  0.951770  0.163360  0.649880  1.0
  C  C827  1  0.163360  0.649880  0.951770  1.0
  C  C828  1  0.649880  0.951770  0.163360  1.0
  C  C829  1  0.691490  0.467730  0.131350  1.0
  C  C830  1  0.131350  0.691490  0.467730  1.0
  C  C831  1  0.467730  0.131350  0.691490  1.0
  C  C832  1  0.032270  0.808510  0.368650  1.0
  C  C833  1  0.808510  0.368650  0.032270  1.0
  C  C834  1  0.368650  0.032270  0.808510  1.0
  C  C835  1  0.308510  0.532270  0.868650  1.0
  C  C836  1  0.868650  0.308510  0.532270  1.0
  C  C837  1  0.532270  0.868650  0.308510  1.0
  C  C838  1  0.967730  0.191490  0.631350  1.0
  C  C839  1  0.191490  0.631350  0.967730  1.0
  C  C840  1  0.631350  0.967730  0.191490  1.0
  C  C841  1  0.689080  0.467540  0.088770  1.0
  C  C842  1  0.088770  0.689080  0.467540  1.0
  C  C843  1  0.467540  0.088770  0.689080  1.0
  C  C844  1  0.032460  0.810920  0.411230  1.0
  C  C845  1  0.810920  0.411230  0.032460  1.0
  C  C846  1  0.411230  0.032460  0.810920  1.0
  C  C847  1  0.310920  0.532460  0.911230  1.0
  C  C848  1  0.911230  0.310920  0.532460  1.0
  C  C849  1  0.532460  0.911230  0.310920  1.0
  C  C850  1  0.967540  0.189080  0.588770  1.0
  C  C851  1  0.189080  0.588770  0.967540  1.0
  C  C852  1  0.588770  0.967540  0.189080  1.0
  C  C853  1  0.716340  0.441440  0.075520  1.0
  C  C854  1  0.075520  0.716340  0.441440  1.0
  C  C855  1  0.441440  0.075520  0.716340  1.0
  C  C856  1  0.058560  0.783660  0.424480  1.0
  C  C857  1  0.783660  0.424480  0.058560  1.0
  C  C858  1  0.424480  0.058560  0.783660  1.0
  C  C859  1  0.283660  0.558560  0.924480  1.0
  C  C860  1  0.924480  0.283660  0.558560  1.0
  C  C861  1  0.558560  0.924480  0.283660  1.0
  C  C862  1  0.941440  0.216340  0.575520  1.0
  C  C863  1  0.216340  0.575520  0.941440  1.0
  C  C864  1  0.575520  0.941440  0.216340  1.0
  C  C865  1  0.757630  0.465500  0.097980  1.0
  C  C866  1  0.097980  0.757630  0.465500  1.0
  C  C867  1  0.465500  0.097980  0.757630  1.0
  C  C868  1  0.034500  0.742370  0.402020  1.0
  C  C869  1  0.742370  0.402020  0.034500  1.0
  C  C870  1  0.402020  0.034500  0.742370  1.0
  C  C871  1  0.242370  0.534500  0.902020  1.0
  C  C872  1  0.902020  0.242370  0.534500  1.0
  C  C873  1  0.534500  0.902020  0.242370  1.0
  C  C874  1  0.965500  0.257630  0.597980  1.0
  C  C875  1  0.257630  0.597980  0.965500  1.0
  C  C876  1  0.597980  0.965500  0.257630  1.0
  C  C877  1  0.749150  0.502520  0.121430  1.0
  C  C878  1  0.121430  0.749150  0.502520  1.0
  C  C879  1  0.502520  0.121430  0.749150  1.0
  C  C880  1  0.997480  0.750850  0.378570  1.0
  C  C881  1  0.750850  0.378570  0.997480  1.0
  C  C882  1  0.378570  0.997480  0.750850  1.0
  C  C883  1  0.250850  0.497480  0.878570  1.0
  C  C884  1  0.878570  0.250850  0.497480  1.0
  C  C885  1  0.497480  0.878570  0.250850  1.0
  C  C886  1  0.002520  0.249150  0.621430  1.0
  C  C887  1  0.249150  0.621430  0.002520  1.0
  C  C888  1  0.621430  0.002520  0.249150  1.0
  C  C889  1  0.728370  0.489200  0.151420  1.0
  C  C890  1  0.151420  0.728370  0.489200  1.0
  C  C891  1  0.489200  0.151420  0.728370  1.0
  C  C892  1  0.010800  0.771630  0.348580  1.0
  C  C893  1  0.771630  0.348580  0.010800  1.0
  C  C894  1  0.348580  0.010800  0.771630  1.0
  C  C895  1  0.271630  0.510800  0.848580  1.0
  C  C896  1  0.848580  0.271630  0.510800  1.0
  C  C897  1  0.510800  0.848580  0.271630  1.0
  C  C898  1  0.989200  0.228370  0.651420  1.0
  C  C899  1  0.228370  0.651420  0.989200  1.0
  C  C900  1  0.651420  0.989200  0.228370  1.0
  C  C901  1  0.740700  0.496760  0.191950  1.0
  C  C902  1  0.191950  0.740700  0.496760  1.0
  C  C903  1  0.496760  0.191950  0.740700  1.0
  C  C904  1  0.003240  0.759300  0.308050  1.0
  C  C905  1  0.759300  0.308050  0.003240  1.0
  C  C906  1  0.308050  0.003240  0.759300  1.0
  C  C907  1  0.259300  0.503240  0.808050  1.0
  C  C908  1  0.808050  0.259300  0.503240  1.0
  C  C909  1  0.503240  0.808050  0.259300  1.0
  C  C910  1  0.996760  0.240700  0.691950  1.0
  C  C911  1  0.240700  0.691950  0.996760  1.0
  C  C912  1  0.691950  0.996760  0.240700  1.0
  C  C913  1  0.712610  0.481030  0.210300  1.0
  C  C914  1  0.210300  0.712610  0.481030  1.0
  C  C915  1  0.481030  0.210300  0.712610  1.0
  C  C916  1  0.018970  0.787390  0.289700  1.0
  C  C917  1  0.787390  0.289700  0.018970  1.0
  C  C918  1  0.289700  0.018970  0.787390  1.0
  C  C919  1  0.287390  0.518970  0.789700  1.0
  C  C920  1  0.789700  0.287390  0.518970  1.0
  C  C921  1  0.518970  0.789700  0.287390  1.0
  C  C922  1  0.981030  0.212610  0.710300  1.0
  C  C923  1  0.212610  0.710300  0.981030  1.0
  C  C924  1  0.710300  0.981030  0.212610  1.0
  C  C925  1  0.714220  0.483530  0.252270  1.0
  C  C926  1  0.252270  0.714220  0.483530  1.0
  C  C927  1  0.483530  0.252270  0.714220  1.0
  C  C928  1  0.016470  0.785780  0.247730  1.0
  C  C929  1  0.785780  0.247730  0.016470  1.0
  C  C930  1  0.247730  0.016470  0.785780  1.0
  C  C931  1  0.285780  0.516470  0.747730  1.0
  C  C932  1  0.747730  0.285780  0.516470  1.0
  C  C933  1  0.516470  0.747730  0.285780  1.0
  C  C934  1  0.983530  0.214220  0.752270  1.0
  C  C935  1  0.214220  0.752270  0.983530  1.0
  C  C936  1  0.752270  0.983530  0.214220  1.0
  C  C937  1  0.713310  0.509350  0.094490  1.0
  C  C938  1  0.094490  0.713310  0.509350  1.0
  C  C939  1  0.509350  0.094490  0.713310  1.0
  C  C940  1  0.990650  0.786690  0.405510  1.0
  C  C941  1  0.786690  0.405510  0.990650  1.0
  C  C942  1  0.405510  0.990650  0.786690  1.0
  C  C943  1  0.286690  0.490650  0.905510  1.0
  C  C944  1  0.905510  0.286690  0.490650  1.0
  C  C945  1  0.490650  0.905510  0.286690  1.0
  C  C946  1  0.009350  0.213310  0.594490  1.0
  C  C947  1  0.213310  0.594490  0.009350  1.0
  C  C948  1  0.594490  0.009350  0.213310  1.0
  C  C949  1  0.721450  0.434600  0.033060  1.0
  C  C950  1  0.033060  0.721450  0.434600  1.0
  C  C951  1  0.434600  0.033060  0.721450  1.0
  C  C952  1  0.065400  0.778550  0.466940  1.0
  C  C953  1  0.778550  0.466940  0.065400  1.0
  C  C954  1  0.466940  0.065400  0.778550  1.0
  C  C955  1  0.278550  0.565400  0.966940  1.0
  C  C956  1  0.966940  0.278550  0.565400  1.0
  C  C957  1  0.565400  0.966940  0.278550  1.0
  C  C958  1  0.934600  0.221450  0.533060  1.0
  C  C959  1  0.221450  0.533060  0.934600  1.0
  C  C960  1  0.533060  0.934600  0.221450  1.0
  C  C961  1  0.685820  0.427880  0.002660  1.0
  C  C962  1  0.002660  0.685820  0.427880  1.0
  C  C963  1  0.427880  0.002660  0.685820  1.0
  C  C964  1  0.072120  0.814180  0.497340  1.0
  C  C965  1  0.814180  0.497340  0.072120  1.0
  C  C966  1  0.497340  0.072120  0.814180  1.0
  C  C967  1  0.314180  0.572120  0.997340  1.0
  C  C968  1  0.997340  0.314180  0.572120  1.0
  C  C969  1  0.572120  0.997340  0.314180  1.0
  C  C970  1  0.927880  0.185820  0.502660  1.0
  C  C971  1  0.185820  0.502660  0.927880  1.0
  C  C972  1  0.502660  0.927880  0.185820  1.0
  C  C973  1  0.788900  0.321700  0.304200  1.0
  C  C974  1  0.304200  0.788900  0.321700  1.0
  C  C975  1  0.321700  0.304200  0.788900  1.0
  C  C976  1  0.178300  0.711100  0.195800  1.0
  C  C977  1  0.711100  0.195800  0.178300  1.0
  C  C978  1  0.195800  0.178300  0.711100  1.0
  C  C979  1  0.211100  0.678300  0.695800  1.0
  C  C980  1  0.695800  0.211100  0.678300  1.0
  C  C981  1  0.678300  0.695800  0.211100  1.0
  C  C982  1  0.821700  0.288900  0.804200  1.0
  C  C983  1  0.288900  0.804200  0.821700  1.0
  C  C984  1  0.804200  0.821700  0.288900  1.0
  C  C985  1  0.818600  0.348300  0.333100  1.0
  C  C986  1  0.333100  0.818600  0.348300  1.0
  C  C987  1  0.348300  0.333100  0.818600  1.0
  C  C988  1  0.151700  0.681400  0.166900  1.0
  C  C989  1  0.681400  0.166900  0.151700  1.0
  C  C990  1  0.166900  0.151700  0.681400  1.0
  C  C991  1  0.181400  0.651700  0.666900  1.0
  C  C992  1  0.666900  0.181400  0.651700  1.0
  C  C993  1  0.651700  0.666900  0.181400  1.0
  C  C994  1  0.848300  0.318600  0.833100  1.0
  C  C995  1  0.318600  0.833100  0.848300  1.0
  C  C996  1  0.833100  0.848300  0.318600  1.0
  C  C997  1  0.855900  0.352900  0.325100  1.0
  C  C998  1  0.325100  0.855900  0.352900  1.0
  C  C999  1  0.352900  0.325100  0.855900  1.0
  C  C1000  1  0.147100  0.644100  0.174900  1.0
  C  C1001  1  0.644100  0.174900  0.147100  1.0
  C  C1002  1  0.174900  0.147100  0.644100  1.0
  C  C1003  1  0.144100  0.647100  0.674900  1.0
  C  C1004  1  0.674900  0.144100  0.647100  1.0
  C  C1005  1  0.647100  0.674900  0.144100  1.0
  C  C1006  1  0.852900  0.355900  0.825100  1.0
  C  C1007  1  0.355900  0.825100  0.852900  1.0
  C  C1008  1  0.825100  0.852900  0.355900  1.0
  C  C1009  1  0.861600  0.331800  0.290700  1.0
  C  C1010  1  0.290700  0.861600  0.331800  1.0
  C  C1011  1  0.331800  0.290700  0.861600  1.0
  C  C1012  1  0.168200  0.638400  0.209300  1.0
  C  C1013  1  0.638400  0.209300  0.168200  1.0
  C  C1014  1  0.209300  0.168200  0.638400  1.0
  C  C1015  1  0.138400  0.668200  0.709300  1.0
  C  C1016  1  0.709300  0.138400  0.668200  1.0
  C  C1017  1  0.668200  0.709300  0.138400  1.0
  C  C1018  1  0.831800  0.361600  0.790700  1.0
  C  C1019  1  0.361600  0.790700  0.831800  1.0
  C  C1020  1  0.790700  0.831800  0.361600  1.0
  C  C1021  1  0.829500  0.306500  0.264400  1.0
  C  C1022  1  0.264400  0.829500  0.306500  1.0
  C  C1023  1  0.306500  0.264400  0.829500  1.0
  C  C1024  1  0.193500  0.670500  0.235600  1.0
  C  C1025  1  0.670500  0.235600  0.193500  1.0
  C  C1026  1  0.235600  0.193500  0.670500  1.0
  C  C1027  1  0.170500  0.693500  0.735600  1.0
  C  C1028  1  0.735600  0.170500  0.693500  1.0
  C  C1029  1  0.693500  0.735600  0.170500  1.0
  C  C1030  1  0.806500  0.329500  0.764400  1.0
  C  C1031  1  0.329500  0.764400  0.806500  1.0
  C  C1032  1  0.764400  0.806500  0.329500  1.0
  C  C1033  1  0.721900  0.224600  0.289500  1.0
  C  C1034  1  0.289500  0.721900  0.224600  1.0
  C  C1035  1  0.224600  0.289500  0.721900  1.0
  C  C1036  1  0.275400  0.778100  0.210500  1.0
  C  C1037  1  0.778100  0.210500  0.275400  1.0
  C  C1038  1  0.210500  0.275400  0.778100  1.0
  C  C1039  1  0.278100  0.775400  0.710500  1.0
  C  C1040  1  0.710500  0.278100  0.775400  1.0
  C  C1041  1  0.775400  0.710500  0.278100  1.0
  C  C1042  1  0.724600  0.221900  0.789500  1.0
  C  C1043  1  0.221900  0.789500  0.724600  1.0
  C  C1044  1  0.789500  0.724600  0.221900  1.0
  C  C1045  1  0.721600  0.201900  0.317600  1.0
  C  C1046  1  0.317600  0.721600  0.201900  1.0
  C  C1047  1  0.201900  0.317600  0.721600  1.0
  C  C1048  1  0.298100  0.778400  0.182400  1.0
  C  C1049  1  0.778400  0.182400  0.298100  1.0
  C  C1050  1  0.182400  0.298100  0.778400  1.0
  C  C1051  1  0.278400  0.798100  0.682400  1.0
  C  C1052  1  0.682400  0.278400  0.798100  1.0
  C  C1053  1  0.798100  0.682400  0.278400  1.0
  C  C1054  1  0.701900  0.221600  0.817600  1.0
  C  C1055  1  0.221600  0.817600  0.701900  1.0
  C  C1056  1  0.817600  0.701900  0.221600  1.0
  C  C1057  1  0.737900  0.335400  0.206200  1.0
  C  C1058  1  0.206200  0.737900  0.335400  1.0
  C  C1059  1  0.335400  0.206200  0.737900  1.0
  C  C1060  1  0.164600  0.762100  0.293800  1.0
  C  C1061  1  0.762100  0.293800  0.164600  1.0
  C  C1062  1  0.293800  0.164600  0.762100  1.0
  C  C1063  1  0.262100  0.664600  0.793800  1.0
  C  C1064  1  0.793800  0.262100  0.664600  1.0
  C  C1065  1  0.664600  0.793800  0.262100  1.0
  C  C1066  1  0.835400  0.237900  0.706200  1.0
  C  C1067  1  0.237900  0.706200  0.835400  1.0
  C  C1068  1  0.706200  0.835400  0.237900  1.0
  C  C1069  1  0.738900  0.363300  0.183000  1.0
  C  C1070  1  0.183000  0.738900  0.363300  1.0
  C  C1071  1  0.363300  0.183000  0.738900  1.0
  C  C1072  1  0.136700  0.761100  0.317000  1.0
  C  C1073  1  0.761100  0.317000  0.136700  1.0
  C  C1074  1  0.317000  0.136700  0.761100  1.0
  C  C1075  1  0.261100  0.636700  0.817000  1.0
  C  C1076  1  0.817000  0.261100  0.636700  1.0
  C  C1077  1  0.636700  0.817000  0.261100  1.0
  C  C1078  1  0.863300  0.238900  0.683000  1.0
  C  C1079  1  0.238900  0.683000  0.863300  1.0
  C  C1080  1  0.683000  0.863300  0.238900  1.0
  Cl  Cl1081  1  0.630400  0.260400  0.272300  1
  Cl  Cl1082  1  0.272300  0.630400  0.260400  1
  Cl  Cl1083  1  0.260400  0.272300  0.630400  1
  Cl  Cl1084  1  0.239600  0.869600  0.227700  1
  Cl  Cl1085  1  0.869600  0.227700  0.239600  1
  Cl  Cl1086  1  0.227700  0.239600  0.869600  1
  Cl  Cl1087  1  0.369600  0.739600  0.727700  1
  Cl  Cl1088  1  0.727700  0.369600  0.739600  1
  Cl  Cl1089  1  0.739600  0.727700  0.369600  1
  Cl  Cl1090  1  0.760400  0.130400  0.772300  1
  Cl  Cl1091  1  0.130400  0.772300  0.760400  1
  Cl  Cl1092  1  0.772300  0.760400  0.130400  1
  Cl  Cl1093  1  0.697700  0.302300  0.350000  1
  Cl  Cl1094  1  0.350000  0.697700  0.302300  1
  Cl  Cl1095  1  0.302300  0.350000  0.697700  1
  Cl  Cl1096  1  0.197700  0.802300  0.150000  1
  Cl  Cl1097  1  0.802300  0.150000  0.197700  1
  Cl  Cl1098  1  0.150000  0.197700  0.802300  1
  Cl  Cl1099  1  0.302300  0.697700  0.650000  1
  Cl  Cl1100  1  0.650000  0.302300  0.697700  1
  Cl  Cl1101  1  0.697700  0.650000  0.302300  1
  Cl  Cl1102  1  0.802300  0.197700  0.850000  1
  Cl  Cl1103  1  0.197700  0.850000  0.802300  1
  Cl  Cl1104  1  0.850000  0.802300  0.197700  1
  Cl  Cl1105  1  0.720300  0.375400  0.311300  1
  Cl  Cl1106  1  0.311300  0.720300  0.375400  1
  Cl  Cl1107  1  0.375400  0.311300  0.720300  1
  Cl  Cl1108  1  0.124600  0.779700  0.188700  1
  Cl  Cl1109  1  0.779700  0.188700  0.124600  1
  Cl  Cl1110  1  0.188700  0.124600  0.779700  1
  Cl  Cl1111  1  0.279700  0.624600  0.688700  1
  Cl  Cl1112  1  0.688700  0.279700  0.624600  1
  Cl  Cl1113  1  0.624600  0.688700  0.279700  1
  Cl  Cl1114  1  0.875400  0.220300  0.811300  1
  Cl  Cl1115  1  0.220300  0.811300  0.875400  1
  Cl  Cl1116  1  0.811300  0.875400  0.220300  1
  Cl  Cl1117  1  0.654200  0.335000  0.233300  1
  Cl  Cl1118  1  0.233300  0.654200  0.335000  1
  Cl  Cl1119  1  0.335000  0.233300  0.654200  1
  Cl  Cl1120  1  0.165000  0.845800  0.266700  1
  Cl  Cl1121  1  0.845800  0.266700  0.165000  1
  Cl  Cl1122  1  0.266700  0.165000  0.845800  1
  Cl  Cl1123  1  0.345800  0.665000  0.766700  1
  Cl  Cl1124  1  0.766700  0.345800  0.665000  1
  Cl  Cl1125  1  0.665000  0.766700  0.345800  1
  Cl  Cl1126  1  0.835000  0.154200  0.733300  1
  Cl  Cl1127  1  0.154200  0.733300  0.835000  1
  Cl  Cl1128  1  0.733300  0.835000  0.154200  1
  Cl  Cl1129  1  0.539200  0.442100  0.369300  1
  Cl  Cl1130  1  0.369300  0.539200  0.442100  1
  Cl  Cl1131  1  0.442100  0.369300  0.539200  1
  Cl  Cl1132  1  0.057900  0.960800  0.130700  1
  Cl  Cl1133  1  0.960800  0.130700  0.057900  1
  Cl  Cl1134  1  0.130700  0.057900  0.960800  1
  Cl  Cl1135  1  0.460800  0.557900  0.630700  1
  Cl  Cl1136  1  0.630700  0.460800  0.557900  1
  Cl  Cl1137  1  0.557900  0.630700  0.460800  1
  Cl  Cl1138  1  0.942100  0.039200  0.869300  1
  Cl  Cl1139  1  0.039200  0.869300  0.942100  1
  Cl  Cl1140  1  0.869300  0.942100  0.039200  1
  F  F1141  1  0.766640  0.127900  0.494520  1.0
  F  F1142  1  0.494520  0.766640  0.127900  1.0
  F  F1143  1  0.127900  0.494520  0.766640  1.0
  F  F1144  1  0.372100  0.733360  0.005480  1.0
  F  F1145  1  0.733360  0.005480  0.372100  1.0
  F  F1146  1  0.005480  0.372100  0.733360  1.0
  F  F1147  1  0.233360  0.872100  0.505480  1.0
  F  F1148  1  0.505480  0.233360  0.872100  1.0
  F  F1149  1  0.872100  0.505480  0.233360  1.0
  F  F1150  1  0.627900  0.266640  0.994520  1.0
  F  F1151  1  0.266640  0.994520  0.627900  1.0
  F  F1152  1  0.994520  0.627900  0.266640  1.0
  F  F1153  1  0.807390  0.166910  0.475150  1.0
  F  F1154  1  0.475150  0.807390  0.166910  1.0
  F  F1155  1  0.166910  0.475150  0.807390  1.0
  F  F1156  1  0.333090  0.692610  0.024850  1.0
  F  F1157  1  0.692610  0.024850  0.333090  1.0
  F  F1158  1  0.024850  0.333090  0.692610  1.0
  F  F1159  1  0.192610  0.833090  0.524850  1.0
  F  F1160  1  0.524850  0.192610  0.833090  1.0
  F  F1161  1  0.833090  0.524850  0.192610  1.0
  F  F1162  1  0.666910  0.307390  0.975150  1.0
  F  F1163  1  0.307390  0.975150  0.666910  1.0
  F  F1164  1  0.975150  0.666910  0.307390  1.0
  F  F1165  1  0.816560  0.110620  0.480090  1.0
  F  F1166  1  0.480090  0.816560  0.110620  1.0
  F  F1167  1  0.110620  0.480090  0.816560  1.0
  F  F1168  1  0.389380  0.683440  0.019910  1.0
  F  F1169  1  0.683440  0.019910  0.389380  1.0
  F  F1170  1  0.019910  0.389380  0.683440  1.0
  F  F1171  1  0.183440  0.889380  0.519910  1.0
  F  F1172  1  0.519910  0.183440  0.889380  1.0
  F  F1173  1  0.889380  0.519910  0.183440  1.0
  F  F1174  1  0.610620  0.316560  0.980090  1.0
  F  F1175  1  0.316560  0.980090  0.610620  1.0
  F  F1176  1  0.980090  0.610620  0.316560  1.0
  F  F1177  1  0.977150  0.519100  0.453900  1.0
  F  F1178  1  0.453900  0.977150  0.519100  1.0
  F  F1179  1  0.519100  0.453900  0.977150  1.0
  F  F1180  1  0.980900  0.522850  0.046100  1.0
  F  F1181  1  0.522850  0.046100  0.980900  1.0
  F  F1182  1  0.046100  0.980900  0.522850  1.0
  F  F1183  1  0.022850  0.480900  0.546100  1.0
  F  F1184  1  0.546100  0.022850  0.480900  1.0
  F  F1185  1  0.480900  0.546100  0.022850  1.0
  F  F1186  1  0.019100  0.477150  0.953900  1.0
  F  F1187  1  0.477150  0.953900  0.019100  1.0
  F  F1188  1  0.953900  0.019100  0.477150  1.0
  F  F1189  1  0.959370  0.504820  0.391970  1.0
  F  F1190  1  0.391970  0.959370  0.504820  1.0
  F  F1191  1  0.504820  0.391970  0.959370  1.0
  F  F1192  1  0.995180  0.540630  0.108030  1.0
  F  F1193  1  0.540630  0.108030  0.995180  1.0
  F  F1194  1  0.108030  0.995180  0.540630  1.0
  F  F1195  1  0.040630  0.495180  0.608030  1.0
  F  F1196  1  0.608030  0.040630  0.495180  1.0
  F  F1197  1  0.495180  0.608030  0.040630  1.0
  F  F1198  1  0.004820  0.459370  0.891970  1.0
  F  F1199  1  0.459370  0.891970  0.004820  1.0
  F  F1200  1  0.891970  0.004820  0.459370  1.0
  F  F1201  1  0.016910  0.503870  0.420010  1.0
  F  F1202  1  0.420010  0.016910  0.503870  1.0
  F  F1203  1  0.503870  0.420010  0.016910  1.0
  F  F1204  1  0.996130  0.483090  0.079990  1.0
  F  F1205  1  0.483090  0.079990  0.996130  1.0
  F  F1206  1  0.079990  0.996130  0.483090  1.0
  F  F1207  1  0.983090  0.496130  0.579990  1.0
  F  F1208  1  0.579990  0.983090  0.496130  1.0
  F  F1209  1  0.496130  0.579990  0.983090  1.0
  F  F1210  1  0.003870  0.516910  0.920010  1.0
  F  F1211  1  0.516910  0.920010  0.003870  1.0
  F  F1212  1  0.920010  0.003870  0.516910  1.0
  F  F1213  1  0.022700  0.384930  0.473100  1.0
  F  F1214  1  0.473100  0.022700  0.384930  1.0
  F  F1215  1  0.384930  0.473100  0.022700  1.0
  F  F1216  1  0.115070  0.477300  0.026900  1.0
  F  F1217  1  0.477300  0.026900  0.115070  1.0
  F  F1218  1  0.026900  0.115070  0.477300  1.0
  F  F1219  1  0.977300  0.615070  0.526900  1.0
  F  F1220  1  0.526900  0.977300  0.615070  1.0
  F  F1221  1  0.615070  0.526900  0.977300  1.0
  F  F1222  1  0.884930  0.522700  0.973100  1.0
  F  F1223  1  0.522700  0.973100  0.884930  1.0
  F  F1224  1  0.973100  0.884930  0.522700  1.0
  F  F1225  1  0.966640  0.349350  0.468050  1.0
  F  F1226  1  0.468050  0.966640  0.349350  1.0
  F  F1227  1  0.349350  0.468050  0.966640  1.0
  F  F1228  1  0.150650  0.533360  0.031950  1.0
  F  F1229  1  0.533360  0.031950  0.150650  1.0
  F  F1230  1  0.031950  0.150650  0.533360  1.0
  F  F1231  1  0.033360  0.650650  0.531950  1.0
  F  F1232  1  0.531950  0.033360  0.650650  1.0
  F  F1233  1  0.650650  0.531950  0.033360  1.0
  F  F1234  1  0.849350  0.466640  0.968050  1.0
  F  F1235  1  0.466640  0.968050  0.849350  1.0
  F  F1236  1  0.968050  0.849350  0.466640  1.0
  F  F1237  1  0.986870  0.402810  0.510550  1.0
  F  F1238  1  0.510550  0.986870  0.402810  1.0
  F  F1239  1  0.402810  0.510550  0.986870  1.0
  F  F1240  1  0.097190  0.513130  0.989450  1.0
  F  F1241  1  0.513130  0.989450  0.097190  1.0
  F  F1242  1  0.989450  0.097190  0.513130  1.0
  F  F1243  1  0.013130  0.597190  0.489450  1.0
  F  F1244  1  0.489450  0.013130  0.597190  1.0
  F  F1245  1  0.597190  0.489450  0.013130  1.0
  F  F1246  1  0.902810  0.486870  0.010550  1.0
  F  F1247  1  0.486870  0.010550  0.902810  1.0
  F  F1248  1  0.010550  0.902810  0.486870  1.0
  F  F1249  1  0.667370  0.456660  0.007060  1.0
  F  F1250  1  0.007060  0.667370  0.456660  1.0
  F  F1251  1  0.456660  0.007060  0.667370  1.0
  F  F1252  1  0.043340  0.832630  0.492940  1.0
  F  F1253  1  0.832630  0.492940  0.043340  1.0
  F  F1254  1  0.492940  0.043340  0.832630  1.0
  F  F1255  1  0.332630  0.543340  0.992940  1.0
  F  F1256  1  0.992940  0.332630  0.543340  1.0
  F  F1257  1  0.543340  0.992940  0.332630  1.0
  F  F1258  1  0.956660  0.167370  0.507060  1.0
  F  F1259  1  0.167370  0.507060  0.956660  1.0
  F  F1260  1  0.507060  0.956660  0.167370  1.0
  F  F1261  1  0.661300  0.395630  0.003270  1.0
  F  F1262  1  0.003270  0.661300  0.395630  1.0
  F  F1263  1  0.395630  0.003270  0.661300  1.0
  F  F1264  1  0.104370  0.838700  0.496730  1.0
  F  F1265  1  0.838700  0.496730  0.104370  1.0
  F  F1266  1  0.496730  0.104370  0.838700  1.0
  F  F1267  1  0.338700  0.604370  0.996730  1.0
  F  F1268  1  0.996730  0.338700  0.604370  1.0
  F  F1269  1  0.604370  0.996730  0.338700  1.0
  F  F1270  1  0.895630  0.161300  0.503270  1.0
  F  F1271  1  0.161300  0.503270  0.895630  1.0
  F  F1272  1  0.503270  0.895630  0.161300  1.0
  F  F1273  1  0.692640  0.423970  0.967290  1.0
  F  F1274  1  0.967290  0.692640  0.423970  1.0
  F  F1275  1  0.423970  0.967290  0.692640  1.0
  F  F1276  1  0.076030  0.807360  0.532710  1.0
  F  F1277  1  0.807360  0.532710  0.076030  1.0
  F  F1278  1  0.532710  0.076030  0.807360  1.0
  F  F1279  1  0.307360  0.576030  0.032710  1.0
  F  F1280  1  0.032710  0.307360  0.576030  1.0
  F  F1281  1  0.576030  0.032710  0.307360  1.0
  F  F1282  1  0.923970  0.192640  0.467290  1.0
  F  F1283  1  0.192640  0.467290  0.923970  1.0
  F  F1284  1  0.467290  0.923970  0.192640  1.0
  H  H1285  1  0.750011  0.162944  0.337078  1
  H  H1286  1  0.337078  0.750011  0.162944  1
  H  H1287  1  0.162944  0.337078  0.750011  1
  H  H1288  1  0.249989  0.837056  0.662922  1
  H  H1289  1  0.662922  0.249989  0.837056  1
  H  H1290  1  0.837056  0.662922  0.249989  1
  H  H1291  1  0.750011  0.369144  0.130878  1
  H  H1292  1  0.130878  0.750011  0.369144  1
  H  H1293  1  0.369144  0.130878  0.750011  1
  H  H1294  1  0.249989  0.630856  0.869122  1
  H  H1295  1  0.869122  0.249989  0.630856  1
  H  H1296  1  0.630856  0.869122  0.249989  1
  H  H1297  1  0.621700  0.300600  0.351200  1.0
  H  H1298  1  0.351200  0.621700  0.300600  1.0
  H  H1299  1  0.300600  0.351200  0.621700  1.0
  H  H1300  1  0.199400  0.878300  0.148800  1.0
  H  H1301  1  0.878300  0.148800  0.199400  1.0
  H  H1302  1  0.148800  0.199400  0.878300  1.0
  H  H1303  1  0.378300  0.699400  0.648800  1.0
  H  H1304  1  0.648800  0.378300  0.699400  1.0
  H  H1305  1  0.699400  0.648800  0.378300  1.0
  H  H1306  1  0.800600  0.121700  0.851200  1.0
  H  H1307  1  0.121700  0.851200  0.800600  1.0
  H  H1308  1  0.851200  0.800600  0.121700  1.0
  H  H1309  1  0.521600  0.228100  0.347700  1.0
  H  H1310  1  0.347700  0.521600  0.228100  1.0
  H  H1311  1  0.228100  0.347700  0.521600  1.0
  H  H1312  1  0.271900  0.978400  0.152300  1.0
  H  H1313  1  0.978400  0.152300  0.271900  1.0
  H  H1314  1  0.152300  0.271900  0.978400  1.0
  H  H1315  1  0.478400  0.771900  0.652300  1.0
  H  H1316  1  0.652300  0.478400  0.771900  1.0
  H  H1317  1  0.771900  0.652300  0.478400  1.0
  H  H1318  1  0.728100  0.021600  0.847700  1.0
  H  H1319  1  0.021600  0.847700  0.728100  1.0
  H  H1320  1  0.847700  0.728100  0.021600  1.0
  H  H1321  1  0.489400  0.276300  0.332900  1.0
  H  H1322  1  0.332900  0.489400  0.276300  1.0
  H  H1323  1  0.276300  0.332900  0.489400  1.0
  H  H1324  1  0.223700  0.010600  0.167100  1.0
  H  H1325  1  0.010600  0.167100  0.223700  1.0
  H  H1326  1  0.167100  0.223700  0.010600  1.0
  H  H1327  1  0.510600  0.723700  0.667100  1.0
  H  H1328  1  0.667100  0.510600  0.723700  1.0
  H  H1329  1  0.723700  0.667100  0.510600  1.0
  H  H1330  1  0.776300  0.989400  0.832900  1.0
  H  H1331  1  0.989400  0.832900  0.776300  1.0
  H  H1332  1  0.832900  0.776300  0.989400  1.0
  H  H1333  1  0.525300  0.335000  0.328000  1.0
  H  H1334  1  0.328000  0.525300  0.335000  1.0
  H  H1335  1  0.335000  0.328000  0.525300  1.0
  H  H1336  1  0.165000  0.974700  0.172000  1.0
  H  H1337  1  0.974700  0.172000  0.165000  1.0
  H  H1338  1  0.172000  0.165000  0.974700  1.0
  H  H1339  1  0.474700  0.665000  0.672000  1.0
  H  H1340  1  0.672000  0.474700  0.665000  1.0
  H  H1341  1  0.665000  0.672000  0.474700  1.0
  H  H1342  1  0.835000  0.025300  0.828000  1.0
  H  H1343  1  0.025300  0.828000  0.835000  1.0
  H  H1344  1  0.828000  0.835000  0.025300  1.0
  H  H1345  1  0.689300  0.220900  0.444900  1.0
  H  H1346  1  0.444900  0.689300  0.220900  1.0
  H  H1347  1  0.220900  0.444900  0.689300  1.0
  H  H1348  1  0.279100  0.810700  0.055100  1.0
  H  H1349  1  0.810700  0.055100  0.279100  1.0
  H  H1350  1  0.055100  0.279100  0.810700  1.0
  H  H1351  1  0.310700  0.779100  0.555100  1.0
  H  H1352  1  0.555100  0.310700  0.779100  1.0
  H  H1353  1  0.779100  0.555100  0.310700  1.0
  H  H1354  1  0.720900  0.189300  0.944900  1.0
  H  H1355  1  0.189300  0.944900  0.720900  1.0
  H  H1356  1  0.944900  0.720900  0.189300  1.0
  H  H1357  1  0.719100  0.159000  0.468000  1.0
  H  H1358  1  0.468000  0.719100  0.159000  1.0
  H  H1359  1  0.159000  0.468000  0.719100  1.0
  H  H1360  1  0.341000  0.780900  0.032000  1.0
  H  H1361  1  0.780900  0.032000  0.341000  1.0
  H  H1362  1  0.032000  0.341000  0.780900  1.0
  H  H1363  1  0.280900  0.841000  0.532000  1.0
  H  H1364  1  0.532000  0.280900  0.841000  1.0
  H  H1365  1  0.841000  0.532000  0.280900  1.0
  H  H1366  1  0.659000  0.219100  0.968000  1.0
  H  H1367  1  0.219100  0.968000  0.659000  1.0
  H  H1368  1  0.968000  0.659000  0.219100  1.0
  H  H1369  1  0.744900  0.157100  0.404800  1.0
  H  H1370  1  0.404800  0.744900  0.157100  1.0
  H  H1371  1  0.157100  0.404800  0.744900  1.0
  H  H1372  1  0.342900  0.755100  0.095200  1.0
  H  H1373  1  0.755100  0.095200  0.342900  1.0
  H  H1374  1  0.095200  0.342900  0.755100  1.0
  H  H1375  1  0.255100  0.842900  0.595200  1.0
  H  H1376  1  0.595200  0.255100  0.842900  1.0
  H  H1377  1  0.842900  0.595200  0.255100  1.0
  H  H1378  1  0.657100  0.244900  0.904800  1.0
  H  H1379  1  0.244900  0.904800  0.657100  1.0
  H  H1380  1  0.904800  0.657100  0.244900  1.0
  H  H1381  1  0.707300  0.108500  0.355700  1.0
  H  H1382  1  0.355700  0.707300  0.108500  1.0
  H  H1383  1  0.108500  0.355700  0.707300  1.0
  H  H1384  1  0.391500  0.792700  0.144300  1.0
  H  H1385  1  0.792700  0.144300  0.391500  1.0
  H  H1386  1  0.144300  0.391500  0.792700  1.0
  H  H1387  1  0.292700  0.891500  0.644300  1.0
  H  H1388  1  0.644300  0.292700  0.891500  1.0
  H  H1389  1  0.891500  0.644300  0.292700  1.0
  H  H1390  1  0.608500  0.207300  0.855700  1.0
  H  H1391  1  0.207300  0.855700  0.608500  1.0
  H  H1392  1  0.855700  0.608500  0.207300  1.0
  H  H1393  1  0.649500  0.071900  0.379000  1.0
  H  H1394  1  0.379000  0.649500  0.071900  1.0
  H  H1395  1  0.071900  0.379000  0.649500  1.0
  H  H1396  1  0.428100  0.850500  0.121000  1.0
  H  H1397  1  0.850500  0.121000  0.428100  1.0
  H  H1398  1  0.121000  0.428100  0.850500  1.0
  H  H1399  1  0.350500  0.928100  0.621000  1.0
  H  H1400  1  0.621000  0.350500  0.928100  1.0
  H  H1401  1  0.928100  0.621000  0.350500  1.0
  H  H1402  1  0.571900  0.149500  0.879000  1.0
  H  H1403  1  0.149500  0.879000  0.571900  1.0
  H  H1404  1  0.879000  0.571900  0.149500  1.0
  H  H1405  1  0.608200  0.119400  0.341000  1.0
  H  H1406  1  0.341000  0.608200  0.119400  1.0
  H  H1407  1  0.119400  0.341000  0.608200  1.0
  H  H1408  1  0.380600  0.891800  0.159000  1.0
  H  H1409  1  0.891800  0.159000  0.380600  1.0
  H  H1410  1  0.159000  0.380600  0.891800  1.0
  H  H1411  1  0.391800  0.880600  0.659000  1.0
  H  H1412  1  0.659000  0.391800  0.880600  1.0
  H  H1413  1  0.880600  0.659000  0.391800  1.0
  H  H1414  1  0.619400  0.108200  0.841000  1.0
  H  H1415  1  0.108200  0.841000  0.619400  1.0
  H  H1416  1  0.841000  0.619400  0.108200  1.0
  H  H1417  1  0.656500  0.107500  0.448300  1.0
  H  H1418  1  0.448300  0.656500  0.107500  1.0
  H  H1419  1  0.107500  0.448300  0.656500  1.0
  H  H1420  1  0.392500  0.843500  0.051700  1.0
  H  H1421  1  0.843500  0.051700  0.392500  1.0
  H  H1422  1  0.051700  0.392500  0.843500  1.0
  H  H1423  1  0.343500  0.892500  0.551700  1.0
  H  H1424  1  0.551700  0.343500  0.892500  1.0
  H  H1425  1  0.892500  0.551700  0.343500  1.0
  H  H1426  1  0.607500  0.156500  0.948300  1.0
  H  H1427  1  0.156500  0.948300  0.607500  1.0
  H  H1428  1  0.948300  0.607500  0.156500  1.0
  H  H1429  1  0.691600  0.086200  0.447100  1.0
  H  H1430  1  0.447100  0.691600  0.086200  1.0
  H  H1431  1  0.086200  0.447100  0.691600  1.0
  H  H1432  1  0.413800  0.808400  0.052900  1.0
  H  H1433  1  0.808400  0.052900  0.413800  1.0
  H  H1434  1  0.052900  0.413800  0.808400  1.0
  H  H1435  1  0.308400  0.913800  0.552900  1.0
  H  H1436  1  0.552900  0.308400  0.913800  1.0
  H  H1437  1  0.913800  0.552900  0.308400  1.0
  H  H1438  1  0.586200  0.191600  0.947100  1.0
  H  H1439  1  0.191600  0.947100  0.586200  1.0
  H  H1440  1  0.947100  0.586200  0.191600  1.0
  H  H1441  1  0.684500  0.396300  0.375100  1.0
  H  H1442  1  0.375100  0.684500  0.396300  1.0
  H  H1443  1  0.396300  0.375100  0.684500  1.0
  H  H1444  1  0.103700  0.815500  0.124900  1.0
  H  H1445  1  0.815500  0.124900  0.103700  1.0
  H  H1446  1  0.124900  0.103700  0.815500  1.0
  H  H1447  1  0.315500  0.603700  0.624900  1.0
  H  H1448  1  0.624900  0.315500  0.603700  1.0
  H  H1449  1  0.603700  0.624900  0.315500  1.0
  H  H1450  1  0.896300  0.184500  0.875100  1.0
  H  H1451  1  0.184500  0.875100  0.896300  1.0
  H  H1452  1  0.875100  0.896300  0.184500  1.0
  H  H1453  1  0.688700  0.384200  0.484400  1.0
  H  H1454  1  0.484400  0.688700  0.384200  1.0
  H  H1455  1  0.384200  0.484400  0.688700  1.0
  H  H1456  1  0.115800  0.811300  0.015600  1.0
  H  H1457  1  0.811300  0.015600  0.115800  1.0
  H  H1458  1  0.015600  0.115800  0.811300  1.0
  H  H1459  1  0.311300  0.615800  0.515600  1.0
  H  H1460  1  0.515600  0.311300  0.615800  1.0
  H  H1461  1  0.615800  0.515600  0.311300  1.0
  H  H1462  1  0.884200  0.188700  0.984400  1.0
  H  H1463  1  0.188700  0.984400  0.884200  1.0
  H  H1464  1  0.984400  0.884200  0.188700  1.0
  H  H1465  1  0.621100  0.374600  0.471300  1.0
  H  H1466  1  0.471300  0.621100  0.374600  1.0
  H  H1467  1  0.374600  0.471300  0.621100  1.0
  H  H1468  1  0.125400  0.878900  0.028700  1.0
  H  H1469  1  0.878900  0.028700  0.125400  1.0
  H  H1470  1  0.028700  0.125400  0.878900  1.0
  H  H1471  1  0.378900  0.625400  0.528700  1.0
  H  H1472  1  0.528700  0.378900  0.625400  1.0
  H  H1473  1  0.625400  0.528700  0.378900  1.0
  H  H1474  1  0.874600  0.121100  0.971300  1.0
  H  H1475  1  0.121100  0.971300  0.874600  1.0
  H  H1476  1  0.971300  0.874600  0.121100  1.0
  H  H1477  1  0.588000  0.376000  0.410000  1.0
  H  H1478  1  0.410000  0.588000  0.376000  1.0
  H  H1479  1  0.376000  0.410000  0.588000  1.0
  H  H1480  1  0.124000  0.912000  0.090000  1.0
  H  H1481  1  0.912000  0.090000  0.124000  1.0
  H  H1482  1  0.090000  0.124000  0.912000  1.0
  H  H1483  1  0.412000  0.624000  0.590000  1.0
  H  H1484  1  0.590000  0.412000  0.624000  1.0
  H  H1485  1  0.624000  0.590000  0.412000  1.0
  H  H1486  1  0.876000  0.088000  0.910000  1.0
  H  H1487  1  0.088000  0.910000  0.876000  1.0
  H  H1488  1  0.910000  0.876000  0.088000  1.0
  H  H1489  1  0.915100  0.237600  0.188900  1.0
  H  H1490  1  0.188900  0.915100  0.237600  1.0
  H  H1491  1  0.237600  0.188900  0.915100  1.0
  H  H1492  1  0.262400  0.584900  0.311100  1.0
  H  H1493  1  0.584900  0.311100  0.262400  1.0
  H  H1494  1  0.311100  0.262400  0.584900  1.0
  H  H1495  1  0.084900  0.762400  0.811100  1.0
  H  H1496  1  0.811100  0.084900  0.762400  1.0
  H  H1497  1  0.762400  0.811100  0.084900  1.0
  H  H1498  1  0.737600  0.415100  0.688900  1.0
  H  H1499  1  0.415100  0.688900  0.737600  1.0
  H  H1500  1  0.688900  0.737600  0.415100  1.0
  H  H1501  1  0.998700  0.308800  0.159200  1.0
  H  H1502  1  0.159200  0.998700  0.308800  1.0
  H  H1503  1  0.308800  0.159200  0.998700  1.0
  H  H1504  1  0.191200  0.501300  0.340800  1.0
  H  H1505  1  0.501300  0.340800  0.191200  1.0
  H  H1506  1  0.340800  0.191200  0.501300  1.0
  H  H1507  1  0.001300  0.691200  0.840800  1.0
  H  H1508  1  0.840800  0.001300  0.691200  1.0
  H  H1509  1  0.691200  0.840800  0.001300  1.0
  H  H1510  1  0.808800  0.498700  0.659200  1.0
  H  H1511  1  0.498700  0.659200  0.808800  1.0
  H  H1512  1  0.659200  0.808800  0.498700  1.0
  H  H1513  1  0.986200  0.264500  0.099600  1.0
  H  H1514  1  0.099600  0.986200  0.264500  1.0
  H  H1515  1  0.264500  0.099600  0.986200  1.0
  H  H1516  1  0.235500  0.513800  0.400400  1.0
  H  H1517  1  0.513800  0.400400  0.235500  1.0
  H  H1518  1  0.400400  0.235500  0.513800  1.0
  H  H1519  1  0.013800  0.735500  0.900400  1.0
  H  H1520  1  0.900400  0.013800  0.735500  1.0
  H  H1521  1  0.735500  0.900400  0.013800  1.0
  H  H1522  1  0.764500  0.486200  0.599600  1.0
  H  H1523  1  0.486200  0.599600  0.764500  1.0
  H  H1524  1  0.599600  0.764500  0.486200  1.0
  H  H1525  1  0.938300  0.208200  0.087400  1.0
  H  H1526  1  0.087400  0.938300  0.208200  1.0
  H  H1527  1  0.208200  0.087400  0.938300  1.0
  H  H1528  1  0.291800  0.561700  0.412600  1.0
  H  H1529  1  0.561700  0.412600  0.291800  1.0
  H  H1530  1  0.412600  0.291800  0.561700  1.0
  H  H1531  1  0.061700  0.791800  0.912600  1.0
  H  H1532  1  0.912600  0.061700  0.791800  1.0
  H  H1533  1  0.791800  0.912600  0.061700  1.0
  H  H1534  1  0.708200  0.438300  0.587400  1.0
  H  H1535  1  0.438300  0.587400  0.708200  1.0
  H  H1536  1  0.587400  0.708200  0.438300  1.0
  H  H1537  1  0.830000  0.479700  0.427000  1.0
  H  H1538  1  0.427000  0.830000  0.479700  1.0
  H  H1539  1  0.479700  0.427000  0.830000  1.0
  H  H1540  1  0.020300  0.670000  0.073000  1.0
  H  H1541  1  0.670000  0.073000  0.020300  1.0
  H  H1542  1  0.073000  0.020300  0.670000  1.0
  H  H1543  1  0.170000  0.520300  0.573000  1.0
  H  H1544  1  0.573000  0.170000  0.520300  1.0
  H  H1545  1  0.520300  0.573000  0.170000  1.0
  H  H1546  1  0.979700  0.330000  0.927000  1.0
  H  H1547  1  0.330000  0.927000  0.979700  1.0
  H  H1548  1  0.927000  0.979700  0.330000  1.0
  H  H1549  1  0.911600  0.496100  0.454400  1.0
  H  H1550  1  0.454400  0.911600  0.496100  1.0
  H  H1551  1  0.496100  0.454400  0.911600  1.0
  H  H1552  1  0.003900  0.588400  0.045600  1.0
  H  H1553  1  0.588400  0.045600  0.003900  1.0
  H  H1554  1  0.045600  0.003900  0.588400  1.0
  H  H1555  1  0.088400  0.503900  0.545600  1.0
  H  H1556  1  0.545600  0.088400  0.503900  1.0
  H  H1557  1  0.503900  0.545600  0.088400  1.0
  H  H1558  1  0.996100  0.411600  0.954400  1.0
  H  H1559  1  0.411600  0.954400  0.996100  1.0
  H  H1560  1  0.954400  0.996100  0.411600  1.0
  H  H1561  1  0.905500  0.434900  0.400500  1.0
  H  H1562  1  0.400500  0.905500  0.434900  1.0
  H  H1563  1  0.434900  0.400500  0.905500  1.0
  H  H1564  1  0.065100  0.594500  0.099500  1.0
  H  H1565  1  0.594500  0.099500  0.065100  1.0
  H  H1566  1  0.099500  0.065100  0.594500  1.0
  H  H1567  1  0.094500  0.565100  0.599500  1.0
  H  H1568  1  0.599500  0.094500  0.565100  1.0
  H  H1569  1  0.565100  0.599500  0.094500  1.0
  H  H1570  1  0.934900  0.405500  0.900500  1.0
  H  H1571  1  0.405500  0.900500  0.934900  1.0
  H  H1572  1  0.900500  0.934900  0.405500  1.0
  H  H1573  1  0.941600  0.420500  0.365300  1.0
  H  H1574  1  0.365300  0.941600  0.420500  1.0
  H  H1575  1  0.420500  0.365300  0.941600  1.0
  H  H1576  1  0.079500  0.558400  0.134700  1.0
  H  H1577  1  0.558400  0.134700  0.079500  1.0
  H  H1578  1  0.134700  0.079500  0.558400  1.0
  H  H1579  1  0.058400  0.579500  0.634700  1.0
  H  H1580  1  0.634700  0.058400  0.579500  1.0
  H  H1581  1  0.579500  0.634700  0.058400  1.0
  H  H1582  1  0.920500  0.441600  0.865300  1.0
  H  H1583  1  0.441600  0.865300  0.920500  1.0
  H  H1584  1  0.865300  0.920500  0.441600  1.0
  H  H1585  1  0.010200  0.454000  0.359500  1.0
  H  H1586  1  0.359500  0.010200  0.454000  1.0
  H  H1587  1  0.454000  0.359500  0.010200  1.0
  H  H1588  1  0.046000  0.489800  0.140500  1.0
  H  H1589  1  0.489800  0.140500  0.046000  1.0
  H  H1590  1  0.140500  0.046000  0.489800  1.0
  H  H1591  1  0.989800  0.546000  0.640500  1.0
  H  H1592  1  0.640500  0.989800  0.546000  1.0
  H  H1593  1  0.546000  0.640500  0.989800  1.0
  H  H1594  1  0.954000  0.510200  0.859500  1.0
  H  H1595  1  0.510200  0.859500  0.954000  1.0
  H  H1596  1  0.859500  0.954000  0.510200  1.0
  H  H1597  1  0.982800  0.413500  0.281000  1.0
  H  H1598  1  0.281000  0.982800  0.413500  1.0
  H  H1599  1  0.413500  0.281000  0.982800  1.0
  H  H1600  1  0.086500  0.517200  0.219000  1.0
  H  H1601  1  0.517200  0.219000  0.086500  1.0
  H  H1602  1  0.219000  0.086500  0.517200  1.0
  H  H1603  1  0.017200  0.586500  0.719000  1.0
  H  H1604  1  0.719000  0.017200  0.586500  1.0
  H  H1605  1  0.586500  0.719000  0.017200  1.0
  H  H1606  1  0.913500  0.482800  0.781000  1.0
  H  H1607  1  0.482800  0.781000  0.913500  1.0
  H  H1608  1  0.781000  0.913500  0.482800  1.0
  H  H1609  1  0.988900  0.302200  0.335800  1.0
  H  H1610  1  0.335800  0.988900  0.302200  1.0
  H  H1611  1  0.302200  0.335800  0.988900  1.0
  H  H1612  1  0.197800  0.511100  0.164200  1.0
  H  H1613  1  0.511100  0.164200  0.197800  1.0
  H  H1614  1  0.164200  0.197800  0.511100  1.0
  H  H1615  1  0.011100  0.697800  0.664200  1.0
  H  H1616  1  0.664200  0.011100  0.697800  1.0
  H  H1617  1  0.697800  0.664200  0.011100  1.0
  H  H1618  1  0.802200  0.488900  0.835800  1.0
  H  H1619  1  0.488900  0.835800  0.802200  1.0
  H  H1620  1  0.835800  0.802200  0.488900  1.0
  H  H1621  1  0.015400  0.358700  0.406400  1.0
  H  H1622  1  0.406400  0.015400  0.358700  1.0
  H  H1623  1  0.358700  0.406400  0.015400  1.0
  H  H1624  1  0.141300  0.484600  0.093600  1.0
  H  H1625  1  0.484600  0.093600  0.141300  1.0
  H  H1626  1  0.093600  0.141300  0.484600  1.0
  H  H1627  1  0.984600  0.641300  0.593600  1.0
  H  H1628  1  0.593600  0.984600  0.641300  1.0
  H  H1629  1  0.641300  0.593600  0.984600  1.0
  H  H1630  1  0.858700  0.515400  0.906400  1.0
  H  H1631  1  0.515400  0.906400  0.858700  1.0
  H  H1632  1  0.906400  0.858700  0.515400  1.0
  H  H1633  1  0.944600  0.368100  0.390700  1.0
  H  H1634  1  0.390700  0.944600  0.368100  1.0
  H  H1635  1  0.368100  0.390700  0.944600  1.0
  H  H1636  1  0.131900  0.555400  0.109300  1.0
  H  H1637  1  0.555400  0.109300  0.131900  1.0
  H  H1638  1  0.109300  0.131900  0.555400  1.0
  H  H1639  1  0.055400  0.631900  0.609300  1.0
  H  H1640  1  0.609300  0.055400  0.631900  1.0
  H  H1641  1  0.631900  0.609300  0.055400  1.0
  H  H1642  1  0.868100  0.444600  0.890700  1.0
  H  H1643  1  0.444600  0.890700  0.868100  1.0
  H  H1644  1  0.890700  0.868100  0.444600  1.0
  H  H1645  1  0.908300  0.382300  0.425700  1.0
  H  H1646  1  0.425700  0.908300  0.382300  1.0
  H  H1647  1  0.382300  0.425700  0.908300  1.0
  H  H1648  1  0.117700  0.591700  0.074300  1.0
  H  H1649  1  0.591700  0.074300  0.117700  1.0
  H  H1650  1  0.074300  0.117700  0.591700  1.0
  H  H1651  1  0.091700  0.617700  0.574300  1.0
  H  H1652  1  0.574300  0.091700  0.617700  1.0
  H  H1653  1  0.617700  0.574300  0.091700  1.0
  H  H1654  1  0.882300  0.408300  0.925700  1.0
  H  H1655  1  0.408300  0.925700  0.882300  1.0
  H  H1656  1  0.925700  0.882300  0.408300  1.0
  H  H1657  1  0.915800  0.400100  0.500600  1.0
  H  H1658  1  0.500600  0.915800  0.400100  1.0
  H  H1659  1  0.400100  0.500600  0.915800  1.0
  H  H1660  1  0.099900  0.584200  0.999400  1.0
  H  H1661  1  0.584200  0.999400  0.099900  1.0
  H  H1662  1  0.999400  0.099900  0.584200  1.0
  H  H1663  1  0.084200  0.599900  0.499400  1.0
  H  H1664  1  0.499400  0.084200  0.599900  1.0
  H  H1665  1  0.599900  0.499400  0.084200  1.0
  H  H1666  1  0.900100  0.415800  0.000600  1.0
  H  H1667  1  0.415800  0.000600  0.900100  1.0
  H  H1668  1  0.000600  0.900100  0.415800  1.0
  H  H1669  1  0.834900  0.367600  0.480800  1.0
  H  H1670  1  0.480800  0.834900  0.367600  1.0
  H  H1671  1  0.367600  0.480800  0.834900  1.0
  H  H1672  1  0.132400  0.665100  0.019200  1.0
  H  H1673  1  0.665100  0.019200  0.132400  1.0
  H  H1674  1  0.019200  0.132400  0.665100  1.0
  H  H1675  1  0.165100  0.632400  0.519200  1.0
  H  H1676  1  0.519200  0.165100  0.632400  1.0
  H  H1677  1  0.632400  0.519200  0.165100  1.0
  H  H1678  1  0.867600  0.334900  0.980800  1.0
  H  H1679  1  0.334900  0.980800  0.867600  1.0
  H  H1680  1  0.980800  0.867600  0.334900  1.0
  H  H1681  1  0.913200  0.471000  0.516000  1.0
  H  H1682  1  0.516000  0.913200  0.471000  1.0
  H  H1683  1  0.471000  0.516000  0.913200  1.0
  H  H1684  1  0.029000  0.586800  0.984000  1.0
  H  H1685  1  0.586800  0.984000  0.029000  1.0
  H  H1686  1  0.984000  0.029000  0.586800  1.0
  H  H1687  1  0.086800  0.529000  0.484000  1.0
  H  H1688  1  0.484000  0.086800  0.529000  1.0
  H  H1689  1  0.529000  0.484000  0.086800  1.0
  H  H1690  1  0.971000  0.413200  0.016000  1.0
  H  H1691  1  0.413200  0.016000  0.971000  1.0
  H  H1692  1  0.016000  0.971000  0.413200  1.0
  H  H1693  1  0.952700  0.468000  0.502600  1.0
  H  H1694  1  0.502600  0.952700  0.468000  1.0
  H  H1695  1  0.468000  0.502600  0.952700  1.0
  H  H1696  1  0.032000  0.547300  0.997400  1.0
  H  H1697  1  0.547300  0.997400  0.032000  1.0
  H  H1698  1  0.997400  0.032000  0.547300  1.0
  H  H1699  1  0.047300  0.532000  0.497400  1.0
  H  H1700  1  0.497400  0.047300  0.532000  1.0
  H  H1701  1  0.532000  0.497400  0.047300  1.0
  H  H1702  1  0.968000  0.452700  0.002600  1.0
  H  H1703  1  0.452700  0.002600  0.968000  1.0
  H  H1704  1  0.002600  0.968000  0.452700  1.0
  H  H1705  1  0.054300  0.411100  0.381700  1.0
  H  H1706  1  0.381700  0.054300  0.411100  1.0
  H  H1707  1  0.411100  0.381700  0.054300  1.0
  H  H1708  1  0.088900  0.445700  0.118300  1.0
  H  H1709  1  0.445700  0.118300  0.088900  1.0
  H  H1710  1  0.118300  0.088900  0.445700  1.0
  H  H1711  1  0.945700  0.588900  0.618300  1.0
  H  H1712  1  0.618300  0.945700  0.588900  1.0
  H  H1713  1  0.588900  0.618300  0.945700  1.0
  H  H1714  1  0.911100  0.554300  0.881700  1.0
  H  H1715  1  0.554300  0.881700  0.911100  1.0
  H  H1716  1  0.881700  0.911100  0.554300  1.0
  H  H1717  1  0.040500  0.431600  0.418500  1.0
  H  H1718  1  0.418500  0.040500  0.431600  1.0
  H  H1719  1  0.431600  0.418500  0.040500  1.0
  H  H1720  1  0.068400  0.459500  0.081500  1.0
  H  H1721  1  0.459500  0.081500  0.068400  1.0
  H  H1722  1  0.081500  0.068400  0.459500  1.0
  H  H1723  1  0.959500  0.568400  0.581500  1.0
  H  H1724  1  0.581500  0.959500  0.568400  1.0
  H  H1725  1  0.568400  0.581500  0.959500  1.0
  H  H1726  1  0.931600  0.540500  0.918500  1.0
  H  H1727  1  0.540500  0.918500  0.931600  1.0
  H  H1728  1  0.918500  0.931600  0.540500  1.0
  H  H1729  1  0.650200  0.399600  0.274400  1.0
  H  H1730  1  0.274400  0.650200  0.399600  1.0
  H  H1731  1  0.399600  0.274400  0.650200  1.0
  H  H1732  1  0.100400  0.849800  0.225600  1.0
  H  H1733  1  0.849800  0.225600  0.100400  1.0
  H  H1734  1  0.225600  0.100400  0.849800  1.0
  H  H1735  1  0.349800  0.600400  0.725600  1.0
  H  H1736  1  0.725600  0.349800  0.600400  1.0
  H  H1737  1  0.600400  0.725600  0.349800  1.0
  H  H1738  1  0.899600  0.150200  0.774400  1.0
  H  H1739  1  0.150200  0.774400  0.899600  1.0
  H  H1740  1  0.774400  0.899600  0.150200  1.0
  H  H1741  1  0.687000  0.513600  0.320700  1.0
  H  H1742  1  0.320700  0.687000  0.513600  1.0
  H  H1743  1  0.513600  0.320700  0.687000  1.0
  H  H1744  1  0.986400  0.813000  0.179300  1.0
  H  H1745  1  0.813000  0.179300  0.986400  1.0
  H  H1746  1  0.179300  0.986400  0.813000  1.0
  H  H1747  1  0.313000  0.486400  0.679300  1.0
  H  H1748  1  0.679300  0.313000  0.486400  1.0
  H  H1749  1  0.486400  0.679300  0.313000  1.0
  H  H1750  1  0.013600  0.187000  0.820700  1.0
  H  H1751  1  0.187000  0.820700  0.013600  1.0
  H  H1752  1  0.820700  0.013600  0.187000  1.0
  H  H1753  1  0.665300  0.502500  0.376000  1.0
  H  H1754  1  0.376000  0.665300  0.502500  1.0
  H  H1755  1  0.502500  0.376000  0.665300  1.0
  H  H1756  1  0.997500  0.834700  0.124000  1.0
  H  H1757  1  0.834700  0.124000  0.997500  1.0
  H  H1758  1  0.124000  0.997500  0.834700  1.0
  H  H1759  1  0.334700  0.497500  0.624000  1.0
  H  H1760  1  0.624000  0.334700  0.497500  1.0
  H  H1761  1  0.497500  0.624000  0.334700  1.0
  H  H1762  1  0.002500  0.165300  0.876000  1.0
  H  H1763  1  0.165300  0.876000  0.002500  1.0
  H  H1764  1  0.876000  0.002500  0.165300  1.0
  H  H1765  1  0.636700  0.439800  0.377900  1.0
  H  H1766  1  0.377900  0.636700  0.439800  1.0
  H  H1767  1  0.439800  0.377900  0.636700  1.0
  H  H1768  1  0.060200  0.863300  0.122100  1.0
  H  H1769  1  0.863300  0.122100  0.060200  1.0
  H  H1770  1  0.122100  0.060200  0.863300  1.0
  H  H1771  1  0.363300  0.560200  0.622100  1.0
  H  H1772  1  0.622100  0.363300  0.560200  1.0
  H  H1773  1  0.560200  0.622100  0.363300  1.0
  H  H1774  1  0.939800  0.136700  0.877900  1.0
  H  H1775  1  0.136700  0.877900  0.939800  1.0
  H  H1776  1  0.877900  0.939800  0.136700  1.0
  H  H1777  1  0.638800  0.437300  0.136500  1.0
  H  H1778  1  0.136500  0.638800  0.437300  1.0
  H  H1779  1  0.437300  0.136500  0.638800  1.0
  H  H1780  1  0.062700  0.861200  0.363500  1.0
  H  H1781  1  0.861200  0.363500  0.062700  1.0
  H  H1782  1  0.363500  0.062700  0.861200  1.0
  H  H1783  1  0.361200  0.562700  0.863500  1.0
  H  H1784  1  0.863500  0.361200  0.562700  1.0
  H  H1785  1  0.562700  0.863500  0.361200  1.0
  H  H1786  1  0.937300  0.138800  0.636500  1.0
  H  H1787  1  0.138800  0.636500  0.937300  1.0
  H  H1788  1  0.636500  0.937300  0.138800  1.0
  H  H1789  1  0.662800  0.461800  0.072400  1.0
  H  H1790  1  0.072400  0.662800  0.461800  1.0
  H  H1791  1  0.461800  0.072400  0.662800  1.0
  H  H1792  1  0.038200  0.837200  0.427600  1.0
  H  H1793  1  0.837200  0.427600  0.038200  1.0
  H  H1794  1  0.427600  0.038200  0.837200  1.0
  H  H1795  1  0.337200  0.538200  0.927600  1.0
  H  H1796  1  0.927600  0.337200  0.538200  1.0
  H  H1797  1  0.538200  0.927600  0.337200  1.0
  H  H1798  1  0.961800  0.162800  0.572400  1.0
  H  H1799  1  0.162800  0.572400  0.961800  1.0
  H  H1800  1  0.572400  0.961800  0.162800  1.0
  H  H1801  1  0.710600  0.416600  0.083300  1.0
  H  H1802  1  0.083300  0.710600  0.416600  1.0
  H  H1803  1  0.416600  0.083300  0.710600  1.0
  H  H1804  1  0.083400  0.789400  0.416700  1.0
  H  H1805  1  0.789400  0.416700  0.083400  1.0
  H  H1806  1  0.416700  0.083400  0.789400  1.0
  H  H1807  1  0.289400  0.583400  0.916700  1.0
  H  H1808  1  0.916700  0.289400  0.583400  1.0
  H  H1809  1  0.583400  0.916700  0.289400  1.0
  H  H1810  1  0.916600  0.210600  0.583300  1.0
  H  H1811  1  0.210600  0.583300  0.916600  1.0
  H  H1812  1  0.583300  0.916600  0.210600  1.0
  H  H1813  1  0.769600  0.451100  0.115800  1.0
  H  H1814  1  0.115800  0.769600  0.451100  1.0
  H  H1815  1  0.451100  0.115800  0.769600  1.0
  H  H1816  1  0.048900  0.730400  0.384200  1.0
  H  H1817  1  0.730400  0.384200  0.048900  1.0
  H  H1818  1  0.384200  0.048900  0.730400  1.0
  H  H1819  1  0.230400  0.548900  0.884200  1.0
  H  H1820  1  0.884200  0.230400  0.548900  1.0
  H  H1821  1  0.548900  0.884200  0.230400  1.0
  H  H1822  1  0.951100  0.269600  0.615800  1.0
  H  H1823  1  0.269600  0.615800  0.951100  1.0
  H  H1824  1  0.615800  0.951100  0.269600  1.0
  H  H1825  1  0.771200  0.524900  0.131300  1.0
  H  H1826  1  0.131300  0.771200  0.524900  1.0
  H  H1827  1  0.524900  0.131300  0.771200  1.0
  H  H1828  1  0.975100  0.728800  0.368700  1.0
  H  H1829  1  0.728800  0.368700  0.975100  1.0
  H  H1830  1  0.368700  0.975100  0.728800  1.0
  H  H1831  1  0.228800  0.475100  0.868700  1.0
  H  H1832  1  0.868700  0.228800  0.475100  1.0
  H  H1833  1  0.475100  0.868700  0.228800  1.0
  H  H1834  1  0.024900  0.271200  0.631300  1.0
  H  H1835  1  0.271200  0.631300  0.024900  1.0
  H  H1836  1  0.631300  0.024900  0.271200  1.0
  H  H1837  1  0.765400  0.510900  0.205400  1.0
  H  H1838  1  0.205400  0.765400  0.510900  1.0
  H  H1839  1  0.510900  0.205400  0.765400  1.0
  H  H1840  1  0.989100  0.734600  0.294600  1.0
  H  H1841  1  0.734600  0.294600  0.989100  1.0
  H  H1842  1  0.294600  0.989100  0.734600  1.0
  H  H1843  1  0.234600  0.489100  0.794600  1.0
  H  H1844  1  0.794600  0.234600  0.489100  1.0
  H  H1845  1  0.489100  0.794600  0.234600  1.0
  H  H1846  1  0.010900  0.265400  0.705400  1.0
  H  H1847  1  0.265400  0.705400  0.010900  1.0
  H  H1848  1  0.705400  0.010900  0.265400  1.0
  H  H1849  1  0.701700  0.529000  0.107300  1.0
  H  H1850  1  0.107300  0.701700  0.529000  1.0
  H  H1851  1  0.529000  0.107300  0.701700  1.0
  H  H1852  1  0.971000  0.798300  0.392700  1.0
  H  H1853  1  0.798300  0.392700  0.971000  1.0
  H  H1854  1  0.392700  0.971000  0.798300  1.0
  H  H1855  1  0.298300  0.471000  0.892700  1.0
  H  H1856  1  0.892700  0.298300  0.471000  1.0
  H  H1857  1  0.471000  0.892700  0.298300  1.0
  H  H1858  1  0.029000  0.201700  0.607300  1.0
  H  H1859  1  0.201700  0.607300  0.029000  1.0
  H  H1860  1  0.607300  0.029000  0.201700  1.0
  H  H1861  1  0.718700  0.515300  0.070400  1.0
  H  H1862  1  0.070400  0.718700  0.515300  1.0
  H  H1863  1  0.515300  0.070400  0.718700  1.0
  H  H1864  1  0.984700  0.781300  0.429600  1.0
  H  H1865  1  0.781300  0.429600  0.984700  1.0
  H  H1866  1  0.429600  0.984700  0.781300  1.0
  H  H1867  1  0.281300  0.484700  0.929600  1.0
  H  H1868  1  0.929600  0.281300  0.484700  1.0
  H  H1869  1  0.484700  0.929600  0.281300  1.0
  H  H1870  1  0.015300  0.218700  0.570400  1.0
  H  H1871  1  0.218700  0.570400  0.015300  1.0
  H  H1872  1  0.570400  0.015300  0.218700  1.0
  H  H1873  1  0.763900  0.318200  0.308700  1.0
  H  H1874  1  0.308700  0.763900  0.318200  1.0
  H  H1875  1  0.318200  0.308700  0.763900  1.0
  H  H1876  1  0.181800  0.736100  0.191300  1.0
  H  H1877  1  0.736100  0.191300  0.181800  1.0
  H  H1878  1  0.191300  0.181800  0.736100  1.0
  H  H1879  1  0.236100  0.681800  0.691300  1.0
  H  H1880  1  0.691300  0.236100  0.681800  1.0
  H  H1881  1  0.681800  0.691300  0.236100  1.0
  H  H1882  1  0.818200  0.263900  0.808700  1.0
  H  H1883  1  0.263900  0.808700  0.818200  1.0
  H  H1884  1  0.808700  0.818200  0.263900  1.0
  H  H1885  1  0.813800  0.361900  0.355800  1.0
  H  H1886  1  0.355800  0.813800  0.361900  1.0
  H  H1887  1  0.361900  0.355800  0.813800  1.0
  H  H1888  1  0.138100  0.686200  0.144200  1.0
  H  H1889  1  0.686200  0.144200  0.138100  1.0
  H  H1890  1  0.144200  0.138100  0.686200  1.0
  H  H1891  1  0.186200  0.638100  0.644200  1.0
  H  H1892  1  0.644200  0.186200  0.638100  1.0
  H  H1893  1  0.638100  0.644200  0.186200  1.0
  H  H1894  1  0.861900  0.313800  0.855800  1.0
  H  H1895  1  0.313800  0.855800  0.861900  1.0
  H  H1896  1  0.855800  0.861900  0.313800  1.0
  H  H1897  1  0.877000  0.370000  0.343000  1.0
  H  H1898  1  0.343000  0.877000  0.370000  1.0
  H  H1899  1  0.370000  0.343000  0.877000  1.0
  H  H1900  1  0.130000  0.623000  0.157000  1.0
  H  H1901  1  0.623000  0.157000  0.130000  1.0
  H  H1902  1  0.157000  0.130000  0.623000  1.0
  H  H1903  1  0.123000  0.630000  0.657000  1.0
  H  H1904  1  0.657000  0.123000  0.630000  1.0
  H  H1905  1  0.630000  0.657000  0.123000  1.0
  H  H1906  1  0.870000  0.377000  0.843000  1.0
  H  H1907  1  0.377000  0.843000  0.870000  1.0
  H  H1908  1  0.843000  0.870000  0.377000  1.0
  H  H1909  1  0.886300  0.334700  0.285300  1.0
  H  H1910  1  0.285300  0.886300  0.334700  1.0
  H  H1911  1  0.334700  0.285300  0.886300  1.0
  H  H1912  1  0.165300  0.613700  0.214700  1.0
  H  H1913  1  0.613700  0.214700  0.165300  1.0
  H  H1914  1  0.214700  0.165300  0.613700  1.0
  H  H1915  1  0.113700  0.665300  0.714700  1.0
  H  H1916  1  0.714700  0.113700  0.665300  1.0
  H  H1917  1  0.665300  0.714700  0.113700  1.0
  H  H1918  1  0.834700  0.386300  0.785300  1.0
  H  H1919  1  0.386300  0.785300  0.834700  1.0
  H  H1920  1  0.785300  0.834700  0.386300  1.0
  H  H1921  1  0.833300  0.292400  0.241400  1.0
  H  H1922  1  0.241400  0.833300  0.292400  1.0
  H  H1923  1  0.292400  0.241400  0.833300  1.0
  H  H1924  1  0.207600  0.666700  0.258600  1.0
  H  H1925  1  0.666700  0.258600  0.207600  1.0
  H  H1926  1  0.258600  0.207600  0.666700  1.0
  H  H1927  1  0.166700  0.707600  0.758600  1.0
  H  H1928  1  0.758600  0.166700  0.707600  1.0
  H  H1929  1  0.707600  0.758600  0.166700  1.0
  H  H1930  1  0.792400  0.333300  0.741400  1.0
  H  H1931  1  0.333300  0.741400  0.792400  1.0
  H  H1932  1  0.741400  0.792400  0.333300  1.0
  H  H1933  1  0.701100  0.236500  0.284300  1.0
  H  H1934  1  0.284300  0.701100  0.236500  1.0
  H  H1935  1  0.236500  0.284300  0.701100  1.0
  H  H1936  1  0.263500  0.798900  0.215700  1.0
  H  H1937  1  0.798900  0.215700  0.263500  1.0
  H  H1938  1  0.215700  0.263500  0.798900  1.0
  H  H1939  1  0.298900  0.763500  0.715700  1.0
  H  H1940  1  0.715700  0.298900  0.763500  1.0
  H  H1941  1  0.763500  0.715700  0.298900  1.0
  H  H1942  1  0.736500  0.201100  0.784300  1.0
  H  H1943  1  0.201100  0.784300  0.736500  1.0
  H  H1944  1  0.784300  0.736500  0.201100  1.0
  H  H1945  1  0.703600  0.201500  0.333300  1.0
  H  H1946  1  0.333300  0.703600  0.201500  1.0
  H  H1947  1  0.201500  0.333300  0.703600  1.0
  H  H1948  1  0.298500  0.796400  0.166700  1.0
  H  H1949  1  0.796400  0.166700  0.298500  1.0
  H  H1950  1  0.166700  0.298500  0.796400  1.0
  H  H1951  1  0.296400  0.798500  0.666700  1.0
  H  H1952  1  0.666700  0.296400  0.798500  1.0
  H  H1953  1  0.798500  0.666700  0.296400  1.0
  H  H1954  1  0.701500  0.203600  0.833300  1.0
  H  H1955  1  0.203600  0.833300  0.701500  1.0
  H  H1956  1  0.833300  0.701500  0.203600  1.0
  H  H1957  1  0.728200  0.340300  0.228400  1.0
  H  H1958  1  0.228400  0.728200  0.340300  1.0
  H  H1959  1  0.340300  0.228400  0.728200  1.0
  H  H1960  1  0.159700  0.771800  0.271600  1.0
  H  H1961  1  0.771800  0.271600  0.159700  1.0
  H  H1962  1  0.271600  0.159700  0.771800  1.0
  H  H1963  1  0.271800  0.659700  0.771600  1.0
  H  H1964  1  0.771600  0.271800  0.659700  1.0
  H  H1965  1  0.659700  0.771600  0.271800  1.0
  H  H1966  1  0.840300  0.228200  0.728400  1.0
  H  H1967  1  0.228200  0.728400  0.840300  1.0
  H  H1968  1  0.728400  0.840300  0.228200  1.0
  H  H1969  1  0.732700  0.387200  0.190500  1.0
  H  H1970  1  0.190500  0.732700  0.387200  1.0
  H  H1971  1  0.387200  0.190500  0.732700  1.0
  H  H1972  1  0.112800  0.767300  0.309500  1.0
  H  H1973  1  0.767300  0.309500  0.112800  1.0
  H  H1974  1  0.309500  0.112800  0.767300  1.0
  H  H1975  1  0.267300  0.612800  0.809500  1.0
  H  H1976  1  0.809500  0.267300  0.612800  1.0
  H  H1977  1  0.612800  0.809500  0.267300  1.0
  H  H1978  1  0.887200  0.232700  0.690500  1.0
  H  H1979  1  0.232700  0.690500  0.887200  1.0
  H  H1980  1  0.690500  0.887200  0.232700  1.0
  N  N1981  1  0.750011  0.230544  0.269478  1
  N  N1982  1  0.269478  0.750011  0.230544  1
  N  N1983  1  0.230544  0.269478  0.750011  1
  N  N1984  1  0.249989  0.769456  0.730522  1
  N  N1985  1  0.730522  0.249989  0.769456  1
  N  N1986  1  0.769456  0.730522  0.249989  1
  N  N1987  1  0.750011  0.301944  0.198078  1
  N  N1988  1  0.198078  0.750011  0.301944  1
  N  N1989  1  0.301944  0.198078  0.750011  1
  N  N1990  1  0.249989  0.698056  0.801922  1
  N  N1991  1  0.801922  0.249989  0.698056  1
  N  N1992  1  0.698056  0.801922  0.249989  1
  N  N1993  1  0.576900  0.323340  0.339060  1.0
  N  N1994  1  0.339060  0.576900  0.323340  1.0
  N  N1995  1  0.323340  0.339060  0.576900  1.0
  N  N1996  1  0.176660  0.923100  0.160940  1.0
  N  N1997  1  0.923100  0.160940  0.176660  1.0
  N  N1998  1  0.160940  0.176660  0.923100  1.0
  N  N1999  1  0.423100  0.676660  0.660940  1.0
  N  N2000  1  0.660940  0.423100  0.676660  1.0
  N  N2001  1  0.676660  0.660940  0.423100  1.0
  N  N2002  1  0.823340  0.076900  0.839060  1.0
  N  N2003  1  0.076900  0.839060  0.823340  1.0
  N  N2004  1  0.839060  0.823340  0.076900  1.0
  N  N2005  1  0.594430  0.234090  0.365270  1.0
  N  N2006  1  0.365270  0.594430  0.234090  1.0
  N  N2007  1  0.234090  0.365270  0.594430  1.0
  N  N2008  1  0.265910  0.905570  0.134730  1.0
  N  N2009  1  0.905570  0.134730  0.265910  1.0
  N  N2010  1  0.134730  0.265910  0.905570  1.0
  N  N2011  1  0.405570  0.765910  0.634730  1.0
  N  N2012  1  0.634730  0.405570  0.765910  1.0
  N  N2013  1  0.765910  0.634730  0.405570  1.0
  N  N2014  1  0.734090  0.094430  0.865270  1.0
  N  N2015  1  0.094430  0.865270  0.734090  1.0
  N  N2016  1  0.865270  0.734090  0.094430  1.0
  N  N2017  1  0.633090  0.386270  0.386740  1.0
  N  N2018  1  0.386740  0.633090  0.386270  1.0
  N  N2019  1  0.386270  0.386740  0.633090  1.0
  N  N2020  1  0.113730  0.866910  0.113260  1.0
  N  N2021  1  0.866910  0.113260  0.113730  1.0
  N  N2022  1  0.113260  0.113730  0.866910  1.0
  N  N2023  1  0.366910  0.613730  0.613260  1.0
  N  N2024  1  0.613260  0.366910  0.613730  1.0
  N  N2025  1  0.613730  0.613260  0.366910  1.0
  N  N2026  1  0.886270  0.133090  0.886740  1.0
  N  N2027  1  0.133090  0.886740  0.886270  1.0
  N  N2028  1  0.886740  0.886270  0.133090  1.0
  N  N2029  1  0.922120  0.217520  0.136920  1.0
  N  N2030  1  0.136920  0.922120  0.217520  1.0
  N  N2031  1  0.217520  0.136920  0.922120  1.0
  N  N2032  1  0.282480  0.577880  0.363080  1.0
  N  N2033  1  0.577880  0.363080  0.282480  1.0
  N  N2034  1  0.363080  0.282480  0.577880  1.0
  N  N2035  1  0.077880  0.782480  0.863080  1.0
  N  N2036  1  0.863080  0.077880  0.782480  1.0
  N  N2037  1  0.782480  0.863080  0.077880  1.0
  N  N2038  1  0.717520  0.422120  0.636920  1.0
  N  N2039  1  0.422120  0.636920  0.717520  1.0
  N  N2040  1  0.636920  0.717520  0.422120  1.0
  N  N2041  1  0.732930  0.402740  0.439960  1.0
  N  N2042  1  0.439960  0.732930  0.402740  1.0
  N  N2043  1  0.402740  0.439960  0.732930  1.0
  N  N2044  1  0.097260  0.767070  0.060040  1.0
  N  N2045  1  0.767070  0.060040  0.097260  1.0
  N  N2046  1  0.060040  0.097260  0.767070  1.0
  N  N2047  1  0.267070  0.597260  0.560040  1.0
  N  N2048  1  0.560040  0.267070  0.597260  1.0
  N  N2049  1  0.597260  0.560040  0.267070  1.0
  N  N2050  1  0.902740  0.232930  0.939960  1.0
  N  N2051  1  0.232930  0.939960  0.902740  1.0
  N  N2052  1  0.939960  0.902740  0.232930  1.0
  N  N2053  1  0.968980  0.300120  0.216770  1.0
  N  N2054  1  0.216770  0.968980  0.300120  1.0
  N  N2055  1  0.300120  0.216770  0.968980  1.0
  N  N2056  1  0.199880  0.531020  0.283230  1.0
  N  N2057  1  0.531020  0.283230  0.199880  1.0
  N  N2058  1  0.283230  0.199880  0.531020  1.0
  N  N2059  1  0.031020  0.699880  0.783230  1.0
  N  N2060  1  0.783230  0.031020  0.699880  1.0
  N  N2061  1  0.699880  0.783230  0.031020  1.0
  N  N2062  1  0.800120  0.468980  0.716770  1.0
  N  N2063  1  0.468980  0.716770  0.800120  1.0
  N  N2064  1  0.716770  0.800120  0.468980  1.0
  N  N2065  1  0.640800  0.413670  0.326430  1.0
  N  N2066  1  0.326430  0.640800  0.413670  1.0
  N  N2067  1  0.413670  0.326430  0.640800  1.0
  N  N2068  1  0.086330  0.859200  0.173570  1.0
  N  N2069  1  0.859200  0.173570  0.086330  1.0
  N  N2070  1  0.173570  0.086330  0.859200  1.0
  N  N2071  1  0.359200  0.586330  0.673570  1.0
  N  N2072  1  0.673570  0.359200  0.586330  1.0
  N  N2073  1  0.586330  0.673570  0.359200  1.0
  N  N2074  1  0.913670  0.140800  0.826430  1.0
  N  N2075  1  0.140800  0.826430  0.913670  1.0
  N  N2076  1  0.826430  0.913670  0.140800  1.0
  N  N2077  1  0.677870  0.464450  0.257510  1.0
  N  N2078  1  0.257510  0.677870  0.464450  1.0
  N  N2079  1  0.464450  0.257510  0.677870  1.0
  N  N2080  1  0.035550  0.822130  0.242490  1.0
  N  N2081  1  0.822130  0.242490  0.035550  1.0
  N  N2082  1  0.242490  0.035550  0.822130  1.0
  N  N2083  1  0.322130  0.535550  0.742490  1.0
  N  N2084  1  0.742490  0.322130  0.535550  1.0
  N  N2085  1  0.535550  0.742490  0.322130  1.0
  N  N2086  1  0.964450  0.177870  0.757510  1.0
  N  N2087  1  0.177870  0.757510  0.964450  1.0
  N  N2088  1  0.757510  0.964450  0.177870  1.0
  N  N2089  1  0.793600  0.301400  0.270900  1.0
  N  N2090  1  0.270900  0.793600  0.301400  1.0
  N  N2091  1  0.301400  0.270900  0.793600  1.0
  N  N2092  1  0.198600  0.706400  0.229100  1.0
  N  N2093  1  0.706400  0.229100  0.198600  1.0
  N  N2094  1  0.229100  0.198600  0.706400  1.0
  N  N2095  1  0.206400  0.698600  0.729100  1.0
  N  N2096  1  0.729100  0.206400  0.698600  1.0
  N  N2097  1  0.698600  0.729100  0.206400  1.0
  N  N2098  1  0.801400  0.293600  0.770900  1.0
  N  N2099  1  0.293600  0.770900  0.801400  1.0
  N  N2100  1  0.770900  0.801400  0.293600  1.0
  O  O2101  1  0.750011  0.077094  0.422928  1
  O  O2102  1  0.422928  0.750011  0.077094  1
  O  O2103  1  0.077094  0.422928  0.750011  1
  O  O2104  1  0.249989  0.922906  0.577072  1
  O  O2105  1  0.577072  0.249989  0.922906  1
  O  O2106  1  0.922906  0.577072  0.249989  1
  O  O2107  1  0.750008  0.467141  0.032874  1
  O  O2108  1  0.032874  0.750008  0.467141  1
  O  O2109  1  0.467141  0.032874  0.750008  1
  O  O2110  1  0.249992  0.532859  0.967126  1
  O  O2111  1  0.967126  0.249992  0.532859  1
  O  O2112  1  0.532859  0.967126  0.249992  1
  O  O2113  1  0.520700  0.401400  0.356800  1
  O  O2114  1  0.356800  0.520700  0.401400  1
  O  O2115  1  0.401400  0.356800  0.520700  1
  O  O2116  1  0.098600  0.979300  0.143200  1
  O  O2117  1  0.979300  0.143200  0.098600  1
  O  O2118  1  0.143200  0.098600  0.979300  1
  O  O2119  1  0.479300  0.598600  0.643200  1
  O  O2120  1  0.643200  0.479300  0.598600  1
  O  O2121  1  0.598600  0.643200  0.479300  1
  O  O2122  1  0.901400  0.020700  0.856800  1
  O  O2123  1  0.020700  0.856800  0.901400  1
  O  O2124  1  0.856800  0.901400  0.020700  1
  O  O2125  1  0.553600  0.455400  0.338000  1
  O  O2126  1  0.338000  0.553600  0.455400  1
  O  O2127  1  0.455400  0.338000  0.553600  1
  O  O2128  1  0.044600  0.946400  0.162000  1
  O  O2129  1  0.946400  0.162000  0.044600  1
  O  O2130  1  0.162000  0.044600  0.946400  1
  O  O2131  1  0.446400  0.544600  0.662000  1
  O  O2132  1  0.662000  0.446400  0.544600  1
  O  O2133  1  0.544600  0.662000  0.446400  1
  O  O2134  1  0.955400  0.053600  0.838000  1
  O  O2135  1  0.053600  0.838000  0.955400  1
  O  O2136  1  0.838000  0.955400  0.053600  1
  O  O2137  1  0.571100  0.447800  0.402200  1
  O  O2138  1  0.402200  0.571100  0.447800  1
  O  O2139  1  0.447800  0.402200  0.571100  1
  O  O2140  1  0.052200  0.928900  0.097800  1
  O  O2141  1  0.928900  0.097800  0.052200  1
  O  O2142  1  0.097800  0.052200  0.928900  1
  O  O2143  1  0.428900  0.552200  0.597800  1
  O  O2144  1  0.597800  0.428900  0.552200  1
  O  O2145  1  0.552200  0.597800  0.428900  1
  O  O2146  1  0.947800  0.071100  0.902200  1
  O  O2147  1  0.071100  0.902200  0.947800  1
  O  O2148  1  0.902200  0.947800  0.071100  1
  O  O2149  1  0.511400  0.464000  0.380300  1
  O  O2150  1  0.380300  0.511400  0.464000  1
  O  O2151  1  0.464000  0.380300  0.511400  1
  O  O2152  1  0.036000  0.988600  0.119700  1
  O  O2153  1  0.988600  0.119700  0.036000  1
  O  O2154  1  0.119700  0.036000  0.988600  1
  O  O2155  1  0.488600  0.536000  0.619700  1
  O  O2156  1  0.619700  0.488600  0.536000  1
  O  O2157  1  0.536000  0.619700  0.488600  1
  O  O2158  1  0.964000  0.011400  0.880300  1
  O  O2159  1  0.011400  0.880300  0.964000  1
  O  O2160  1  0.880300  0.964000  0.011400  1
  O  O2161  1  0.642060  0.273920  0.419140  1.0
  O  O2162  1  0.419140  0.642060  0.273920  1.0
  O  O2163  1  0.273920  0.419140  0.642060  1.0
  O  O2164  1  0.226080  0.857940  0.080860  1.0
  O  O2165  1  0.857940  0.080860  0.226080  1.0
  O  O2166  1  0.080860  0.226080  0.857940  1.0
  O  O2167  1  0.357940  0.726080  0.580860  1.0
  O  O2168  1  0.580860  0.357940  0.726080  1.0
  O  O2169  1  0.726080  0.580860  0.357940  1.0
  O  O2170  1  0.773920  0.142060  0.919140  1.0
  O  O2171  1  0.142060  0.919140  0.773920  1.0
  O  O2172  1  0.919140  0.773920  0.142060  1.0
  O  O2173  1  0.564780  0.176260  0.317570  1.0
  O  O2174  1  0.317570  0.564780  0.176260  1.0
  O  O2175  1  0.176260  0.317570  0.564780  1.0
  O  O2176  1  0.323740  0.935220  0.182430  1.0
  O  O2177  1  0.935220  0.182430  0.323740  1.0
  O  O2178  1  0.182430  0.323740  0.935220  1.0
  O  O2179  1  0.435220  0.823740  0.682430  1.0
  O  O2180  1  0.682430  0.435220  0.823740  1.0
  O  O2181  1  0.823740  0.682430  0.435220  1.0
  O  O2182  1  0.676260  0.064780  0.817570  1.0
  O  O2183  1  0.064780  0.817570  0.676260  1.0
  O  O2184  1  0.817570  0.676260  0.064780  1.0
  O  O2185  1  0.987900  0.443900  0.452590  1.0
  O  O2186  1  0.452590  0.987900  0.443900  1.0
  O  O2187  1  0.443900  0.452590  0.987900  1.0
  O  O2188  1  0.056100  0.512100  0.047410  1.0
  O  O2189  1  0.512100  0.047410  0.056100  1.0
  O  O2190  1  0.047410  0.056100  0.512100  1.0
  O  O2191  1  0.012100  0.556100  0.547410  1.0
  O  O2192  1  0.547410  0.012100  0.556100  1.0
  O  O2193  1  0.556100  0.547410  0.012100  1.0
  O  O2194  1  0.943900  0.487900  0.952590  1.0
  O  O2195  1  0.487900  0.952590  0.943900  1.0
  O  O2196  1  0.952590  0.943900  0.487900  1.0
  O  O2197  1  0.745100  0.459580  0.415380  1.0
  O  O2198  1  0.415380  0.745100  0.459580  1.0
  O  O2199  1  0.459580  0.415380  0.745100  1.0
  O  O2200  1  0.040420  0.754900  0.084620  1.0
  O  O2201  1  0.754900  0.084620  0.040420  1.0
  O  O2202  1  0.084620  0.040420  0.754900  1.0
  O  O2203  1  0.254900  0.540420  0.584620  1.0
  O  O2204  1  0.584620  0.254900  0.540420  1.0
  O  O2205  1  0.540420  0.584620  0.254900  1.0
  O  O2206  1  0.959580  0.245100  0.915380  1.0
  O  O2207  1  0.245100  0.915380  0.959580  1.0
  O  O2208  1  0.915380  0.959580  0.245100  1.0
  O  O2209  1  0.965920  0.361910  0.203610  1.0
  O  O2210  1  0.203610  0.965920  0.361910  1.0
  O  O2211  1  0.361910  0.203610  0.965920  1.0
  O  O2212  1  0.138090  0.534080  0.296390  1.0
  O  O2213  1  0.534080  0.296390  0.138090  1.0
  O  O2214  1  0.296390  0.138090  0.534080  1.0
  O  O2215  1  0.034080  0.638090  0.796390  1.0
  O  O2216  1  0.796390  0.034080  0.638090  1.0
  O  O2217  1  0.638090  0.796390  0.034080  1.0
  O  O2218  1  0.861910  0.465920  0.703610  1.0
  O  O2219  1  0.465920  0.703610  0.861910  1.0
  O  O2220  1  0.703610  0.861910  0.465920  1.0
  O  O2221  1  0.973710  0.254670  0.256680  1.0
  O  O2222  1  0.256680  0.973710  0.254670  1.0
  O  O2223  1  0.254670  0.256680  0.973710  1.0
  O  O2224  1  0.245330  0.526290  0.243320  1.0
  O  O2225  1  0.526290  0.243320  0.245330  1.0
  O  O2226  1  0.243320  0.245330  0.526290  1.0
  O  O2227  1  0.026290  0.745330  0.743320  1.0
  O  O2228  1  0.743320  0.026290  0.745330  1.0
  O  O2229  1  0.745330  0.743320  0.026290  1.0
  O  O2230  1  0.754670  0.473710  0.756680  1.0
  O  O2231  1  0.473710  0.756680  0.754670  1.0
  O  O2232  1  0.756680  0.754670  0.473710  1.0
  O  O2233  1  0.749730  0.350210  0.465580  1.0
  O  O2234  1  0.465580  0.749730  0.350210  1.0
  O  O2235  1  0.350210  0.465580  0.749730  1.0
  O  O2236  1  0.149790  0.750270  0.034420  1.0
  O  O2237  1  0.750270  0.034420  0.149790  1.0
  O  O2238  1  0.034420  0.149790  0.750270  1.0
  O  O2239  1  0.250270  0.649790  0.534420  1.0
  O  O2240  1  0.534420  0.250270  0.649790  1.0
  O  O2241  1  0.649790  0.534420  0.250270  1.0
  O  O2242  1  0.850210  0.249730  0.965580  1.0
  O  O2243  1  0.249730  0.965580  0.850210  1.0
  O  O2244  1  0.965580  0.850210  0.249730  1.0
  O  O2245  1  0.620470  0.429670  0.211480  1.0
  O  O2246  1  0.211480  0.620470  0.429670  1.0
  O  O2247  1  0.429670  0.211480  0.620470  1.0
  O  O2248  1  0.070330  0.879530  0.288520  1.0
  O  O2249  1  0.879530  0.288520  0.070330  1.0
  O  O2250  1  0.288520  0.070330  0.879530  1.0
  O  O2251  1  0.379530  0.570330  0.788520  1.0
  O  O2252  1  0.788520  0.379530  0.570330  1.0
  O  O2253  1  0.570330  0.788520  0.379530  1.0
  O  O2254  1  0.929670  0.120470  0.711480  1.0
  O  O2255  1  0.120470  0.711480  0.929670  1.0
  O  O2256  1  0.711480  0.929670  0.120470  1.0
  O  O2257  1  0.743440  0.499230  0.277910  1.0
  O  O2258  1  0.277910  0.743440  0.499230  1.0
  O  O2259  1  0.499230  0.277910  0.743440  1.0
  O  O2260  1  0.000770  0.756560  0.222090  1.0
  O  O2261  1  0.756560  0.222090  0.000770  1.0
  O  O2262  1  0.222090  0.000770  0.756560  1.0
  O  O2263  1  0.256560  0.500770  0.722090  1.0
  O  O2264  1  0.722090  0.256560  0.500770  1.0
  O  O2265  1  0.500770  0.722090  0.256560  1.0
  O  O2266  1  0.999230  0.243440  0.777910  1.0
  O  O2267  1  0.243440  0.777910  0.999230  1.0
  O  O2268  1  0.777910  0.999230  0.243440  1.0
  Pt  Pt2269  1  0.675810  0.318300  0.291330  1
  Pt  Pt2270  1  0.291330  0.675810  0.318300  1
  Pt  Pt2271  1  0.318300  0.291330  0.675810  1
  Pt  Pt2272  1  0.181700  0.824190  0.208670  1
  Pt  Pt2273  1  0.824190  0.208670  0.181700  1
  Pt  Pt2274  1  0.208670  0.181700  0.824190  1
  Pt  Pt2275  1  0.324190  0.681700  0.708670  1
  Pt  Pt2276  1  0.708670  0.324190  0.681700  1
  Pt  Pt2277  1  0.681700  0.708670  0.324190  1
  Pt  Pt2278  1  0.818300  0.175810  0.791330  1
  Pt  Pt2279  1  0.175810  0.791330  0.818300  1
  Pt  Pt2280  1  0.791330  0.818300  0.175810  1
  Pt  Pt2281  1  0.750011  0.265484  0.234538  1
  Pt  Pt2282  1  0.234538  0.750011  0.265484  1
  Pt  Pt2283  1  0.265484  0.234538  0.750011  1
  Pt  Pt2284  1  0.249989  0.734516  0.765462  1
  Pt  Pt2285  1  0.765462  0.249989  0.734516  1
  Pt  Pt2286  1  0.734516  0.765462  0.249989  1
  Pt  Pt2287  1  0.605070  0.371570  0.333910  1.0
  Pt  Pt2288  1  0.333910  0.605070  0.371570  1.0
  Pt  Pt2289  1  0.371570  0.333910  0.605070  1.0
  Pt  Pt2290  1  0.128430  0.894930  0.166090  1.0
  Pt  Pt2291  1  0.894930  0.166090  0.128430  1.0
  Pt  Pt2292  1  0.166090  0.128430  0.894930  1.0
  Pt  Pt2293  1  0.394930  0.628430  0.666090  1.0
  Pt  Pt2294  1  0.666090  0.394930  0.628430  1.0
  Pt  Pt2295  1  0.628430  0.666090  0.394930  1.0
  Pt  Pt2296  1  0.871570  0.105070  0.833910  1.0
  Pt  Pt2297  1  0.105070  0.833910  0.871570  1.0
  Pt  Pt2298  1  0.833910  0.871570  0.105070  1.0
