
#######################################################################
#
#                 Cambridge Crystallographic Data Centre
#                                CCDC 
#
#######################################################################
#
# If this CIF has been generated from an entry in the Cambridge 
# Structural Database, then it will include bibliographic, chemical, 
# crystal, experimental, refinement or atomic coordinate data resulting 
# from the CCDC's data processing and validation procedures.
#
#######################################################################

data_WAWPAN
_chemical_formula_moiety         
'C160 H96 F24 N16 O20 Pt2 4+,C20 H20 N4 Pt1 2+,2(Cl4 Pt1 2-),2(Cl1 O4 1-)'
_chemical_name_systematic        
'tetrakis(\m~2~-8,22-bis(pyridin-3-yl)-1,15-bis(trifluoromethyl)-29-oxa-8,22-diazadecacyclo-[13.13.1.1^3,13^.1^17,27^.0^2,14^.0^4,12^.0^6,10^.0^16,28^.0^18,26^.0^20,24^]-hentriaconta-4(12),5,10,18(26),19,24-hexaene-7,9,21,23-tetrone)-di-platinum tetrakis(pyridine)-platinum bis(tetrachloroplatinate) diperchlorate'
_symmetry_cell_setting           rhombohedral
_symmetry_space_group_name_H-M   'R -3 c'
_symmetry_Int_Tables_number      167
_space_group_name_Hall           '-R 3 2"c'
loop_
_symmetry_equiv_pos_site_id
_symmetry_equiv_pos_as_xyz
1 x,y,z
2 -y,x-y,z
3 -x+y,-x,z
4 x-y,-y,1/2-z
5 -x,-x+y,1/2-z
6 y,x,1/2-z
7 2/3+x,1/3+y,1/3+z
8 2/3-y,1/3+x-y,1/3+z
9 2/3-x+y,1/3-x,1/3+z
10 2/3+x-y,1/3-y,5/6-z
11 2/3-x,1/3-x+y,5/6-z
12 2/3+y,1/3+x,5/6-z
13 1/3+x,2/3+y,2/3+z
14 1/3-y,2/3+x-y,2/3+z
15 1/3-x+y,2/3-x,2/3+z
16 1/3+x-y,2/3-y,1/6-z
17 1/3-x,2/3-x+y,1/6-z
18 1/3+y,2/3+x,1/6-z
19 -x,-y,-z
20 y,-x+y,-z
21 x-y,x,-z
22 -x+y,y,1/2+z
23 x,x-y,1/2+z
24 -y,-x,1/2+z
25 1/3-x,2/3-y,2/3-z
26 1/3+y,2/3-x+y,2/3-z
27 1/3+x-y,2/3+x,2/3-z
28 1/3-x+y,2/3+y,1/6+z
29 1/3+x,2/3+x-y,1/6+z
30 1/3-y,2/3-x,1/6+z
31 2/3-x,1/3-y,1/3-z
32 2/3+y,1/3-x+y,1/3-z
33 2/3+x-y,1/3+x,1/3-z
34 2/3-x+y,1/3+y,5/6+z
35 2/3+x,1/3+x-y,5/6+z
36 2/3-y,1/3-x,5/6+z
_cell_length_a                   55.13(2)
_cell_length_b                   55.13(2)
_cell_length_c                   49.517(18)
_cell_angle_alpha                90
_cell_angle_beta                 90
_cell_angle_gamma                120
_cell_volume                     130335
_exptl_crystal_colour            colorless
_exptl_crystal_description       block
_cell_formula_units_Z            18
loop_
_atom_site_label
_atom_site_type_symbol
_atom_site_fract_x
_atom_site_fract_y
_atom_site_fract_z
Pt1 Pt 0.16822(4) 0.10294(4) 0.43685(4)
O1 O 0.3333 -0.00625(16) 0.4167
O2 O 0.19702(17) 0.02590(19) 0.44504(15)
O3 O 0.21191(15) 0.0353(2) 0.35287(14)
N1 N 0.1638(2) 0.07404(19) 0.4131(3)
N2 N 0.19650(13) 0.03266(13) 0.39793(15)
C1 C 0.18228(19) 0.06500(17) 0.41254(19)
H1 H 0.1972 0.0733 0.4245
C2 C 0.18100(15) 0.04403(15) 0.39540(17)
C3 C 0.15799(15) 0.03206(17) 0.37767(19)
H2 H 0.1558 0.0181 0.3658
C4 C 0.13846(18) 0.04109(19) 0.3779(3)
H3 H 0.1232 0.0333 0.3662
C5 C 0.1423(2) 0.0621(2) 0.3960(3)
H4 H 0.1292 0.0681 0.3961
C6 C 0.20548(13) 0.02582(14) 0.42213(14)
C7 C 0.22667(10) 0.01757(12) 0.41595(12)
C8 C 0.24030(10) 0.00832(13) 0.43313(10)
H5 H 0.2376 0.0068 0.4517
C9 C 0.25854(6) 0.00152(11) 0.41985(9)
C10 C 0.27596(5) -0.01040(12) 0.43091(8)
H6 H 0.2704 -0.0193 0.4487
C11 C 0.30684(6) 0.01325(12) 0.42811(5)
H7 H 0.3093 0.0308 0.4356
C12 C 0.31152(5) 0.01595(15) 0.39694(5)
H8 H 0.3168 0.0348 0.3905
C13 C 0.28277(6) -0.00644(16) 0.38558(6)
H9 H 0.2827 -0.0122 0.3668
C14 C 0.26272(6) 0.00395(13) 0.39202(8)
C15 C 0.24909(10) 0.01344(16) 0.37476(9)
H10 H 0.2520 0.0152 0.3562
C16 C 0.23086(10) 0.02001(13) 0.38800(11)
C17 C 0.21238(12) 0.02989(15) 0.37684(14)
C18 C 0.27182(2) -0.03009(12) 0.40693(12)
H11 H 0.2524 -0.0442 0.4041
H12 H 0.2833 -0.0388 0.4083
C19 C 0.33095(6) 0.00848(14) 0.43737(4)
C20 C 0.32659(11) -0.00657(18) 0.463040(10)
F1 F 0.30362(10) -0.03150(17) 0.46302(9)
F2 F 0.32424(16) 0.0080(3) 0.48315(3)
F3 F 0.34747(11) -0.0110(2) 0.46909(2)
O4 O 0.35977(12) 0.17554(13) 0.62813(10)
O5 O 0.20508(9) 0.12464(12) 0.54002(13)
O6 O 0.45544(11) 0.30687(12) 0.51048(16)
O7 O 0.47869(10) 0.23834(16) 0.49502(14)
O8 O 0.22789(11) 0.05626(10) 0.52184(13)
N3 N 0.16439(11) 0.08196(13) 0.46870(14)
N4 N 0.49660(13) 0.2886(2) 0.42552(16)
N5 N 0.20772(10) 0.08525(11) 0.52521(13)
N6 N 0.47369(10) 0.27852(14) 0.49529(15)
C21 C 0.18573(10) 0.09134(12) 0.48622(13)
H13 H 0.1992 0.1102 0.4853
C22 C 0.18945(10) 0.07509(11) 0.50592(13)
C23 C 0.16849(10) 0.04669(12) 0.50662(15)
H14 H 0.1696 0.0347 0.5191
C24 C 0.14607(11) 0.03642(12) 0.48862(16)
H15 H 0.1321 0.0177 0.4890
C25 C 0.14493(11) 0.05489(13) 0.47003(16)
H16 H 0.1300 0.0480 0.4580
C26 C 0.48174(11) 0.27707(18) 0.44802(15)
H17 H 0.4679 0.2583 0.4472
C27 C 0.48520(11) 0.29092(16) 0.47280(16)
C28 C 0.50633(11) 0.31927(16) 0.47313(17)
H18 H 0.5098 0.3297 0.4889
C29 C 0.52210(12) 0.33175(18) 0.45000(18)
H19 H 0.5361 0.3505 0.4501
C30 C 0.51646(13) 0.3155(2) 0.42667(17)
H20 H 0.5270 0.3239 0.4113
C31 C 0.21626(9) 0.11018(11) 0.54015(12)
C32 C 0.24086(10) 0.11639(11) 0.55706(11)
C33 C 0.25542(10) 0.13790(12) 0.57551(11)
H21 H 0.2511 0.1519 0.5789
C34 C 0.27729(10) 0.13659(11) 0.58851(10)
C35 C 0.29692(11) 0.15494(12) 0.61051(10)
H22 H 0.2909 0.1663 0.6207
C36 C 0.32622(10) 0.17118(11) 0.59723(9)
H23 H 0.3252 0.1798 0.5803
C37 C 0.35195(11) 0.19217(12) 0.61395(10)
C38 C 0.37412(10) 0.20716(11) 0.59189(10)
H24 H 0.3658 0.2105 0.5758
C39 C 0.40285(11) 0.23308(11) 0.59856(11)
H25 H 0.4023 0.2484 0.6079
C40 C 0.41940(10) 0.24074(11) 0.57253(12)
C41 C 0.42827(10) 0.26420(11) 0.55586(13)
H26 H 0.4237 0.2781 0.5591
C42 C 0.44449(10) 0.26479(12) 0.53408(13)
C43 C 0.45815(10) 0.28616(12) 0.51266(15)
C44 C 0.46910(10) 0.25227(15) 0.50475(14)
C45 C 0.45118(9) 0.24384(13) 0.52916(13)
C46 C 0.44226(9) 0.22045(13) 0.54560(13)
H27 H 0.4466 0.2065 0.5423
C47 C 0.42606(10) 0.21987(12) 0.56763(12)
C48 C 0.41370(10) 0.19910(12) 0.59057(11)
H28 H 0.4219 0.1871 0.5935
C49 C 0.38158(10) 0.18380(11) 0.58640(10)
H29 H 0.3768 0.1771 0.5678
C50 C 0.36179(11) 0.16084(12) 0.60642(10)
C51 C 0.33363(10) 0.14783(11) 0.59146(10)
H30 H 0.3362 0.1464 0.5721
C52 C 0.30770(11) 0.12099(11) 0.60209(10)
H31 H 0.3103 0.1049 0.6055
C53 C 0.28391(10) 0.11574(11) 0.58334(10)
C54 C 0.26931(10) 0.09418(10) 0.56464(11)
H32 H 0.2738 0.0803 0.5611
C55 C 0.24751(10) 0.09545(10) 0.55187(11)
C56 C 0.22711(10) 0.07632(10) 0.53165(12)
C57 C 0.29799(12) 0.13142(13) 0.62656(10)
H33 H 0.2798 0.1174 0.6334
H34 H 0.3116 0.1385 0.6411
C58 C 0.34746(12) 0.21041(13) 0.63248(10)
C59 C 0.41888(11) 0.22054(12) 0.61317(12)
H35 H 0.4386 0.2340 0.6157
H36 H 0.4103 0.2117 0.6302
C60 C 0.37074(12) 0.14111(12) 0.61547(11)
F4 F 0.32710(13) 0.19615(15) 0.65005(10)
F5 F 0.34065(12) 0.22675(13) 0.61872(11)
F6 F 0.36998(13) 0.22692(14) 0.64693(11)
F7 F 0.39579(12) 0.15381(13) 0.62691(12)
F8 F 0.37196(12) 0.12663(12) 0.59468(12)
F9 F 0.35346(13) 0.12286(13) 0.63341(12)
O9 O 0.19993(17) 0.20906(12) 0.42054(16)
O10 O 0.23658(16) 0.22895(14) 0.50686(14)
O11 O 0.33331(12) 0.38380(14) 0.41669(19)
N7 N 0.1805(3) 0.13387(12) 0.4603(2)
N8 N 0.21126(13) 0.20910(12) 0.46661(15)
C61 C 0.19708(19) 0.16144(12) 0.45635(18)
H37 H 0.2088 0.1670 0.4414
C62 C 0.19832(15) 0.18278(12) 0.47290(16)
C63 C 0.18021(16) 0.17346(13) 0.49530(18)
H38 H 0.1799 0.1864 0.5071
C64 C 0.16270(18) 0.14489(13) 0.4999(2)
H39 H 0.1507 0.1386 0.5146
C65 C 0.1636(2) 0.12590(12) 0.4818(2)
H40 H 0.1519 0.1069 0.4848
C66 C 0.21329(13) 0.22119(12) 0.44082(15)
C67 C 0.23384(11) 0.25158(12) 0.44174(13)
C68 C 0.24169(11) 0.27179(12) 0.42167(14)
H41 H 0.2346 0.2677 0.4042
C69 C 0.26130(9) 0.29884(12) 0.43019(14)
C70 C 0.27395(10) 0.32636(12) 0.41513(15)
H42 H 0.2638 0.3266 0.3990
C71 C 0.30524(11) 0.33558(14) 0.41110(16)
H43 H 0.3071 0.3202 0.4035
C72 C 0.31726(10) 0.34239(14) 0.44037(17)
H44 H 0.3241 0.3297 0.4455
C73 C 0.29145(12) 0.33627(12) 0.45770(15)
H45 H 0.2954 0.3445 0.4758
C74 C 0.27204(10) 0.30491(12) 0.45633(14)
C75 C 0.26423(12) 0.28452(13) 0.47647(13)
H46 H 0.2715 0.2885 0.4939
C76 C 0.24463(11) 0.25768(12) 0.46798(13)
C77 C 0.23088(13) 0.23107(13) 0.48334(13)
C78 C 0.27426(12) 0.34456(12) 0.43905(18)
H47 H 0.2557 0.3387 0.4460
H48 H 0.2839 0.3644 0.4348
C79 C 0.32508(13) 0.36331(15) 0.39637(18)
C80 C 0.31370(16) 0.36946(16) 0.37212(18)
F10 F 0.29034(15) 0.36997(15) 0.37703(19)
F11 F 0.3079(2) 0.35013(17) 0.35340(16)
F12 F 0.33134(18) 0.39401(17) 0.3613(2)
Pt1J Pt 0.49845(4) 0.26805(6) 0.39648(4)
O2J O 0.46965(17) 0.16221(25) 0.38829(15)
O3J O 0.45476(15) 0.15672(25) 0.48046(14)
N1J N 0.5029(2) 0.24357(28) 0.4202(3)
N2J N 0.47017(13) 0.16949(18) 0.43540(15)
C1J C 0.48439(19) 0.21605(25) 0.42079(19)
H1J H 0.4695 0.2094 0.4088
C2J C 0.48567(15) 0.19636(21) 0.43793(17)
C3J C 0.50868(15) 0.20740(23) 0.45566(19)
H2J H 0.5109 0.1956 0.4675
C4J C 0.52821(18) 0.23596(26) 0.4554(3)
H3J H 0.5435 0.2434 0.4671
C5J C 0.5244(2) 0.2531(3) 0.4373(3)
H4J H 0.5375 0.2722 0.4372
C6J C 0.46119(13) 0.15367(19) 0.41120(14)
C7J C 0.44000(10) 0.12423(16) 0.41738(12)
C8J C 0.42637(10) 0.10135(16) 0.40020(10)
H5J H 0.4291 0.1025 0.3816
C9J C 0.40813(6) 0.07631(13) 0.41348(9)
C10J C 0.39071(5) 0.04697(13) 0.40242(8)
H6J H 0.3963 0.0436 0.3846
C11J C 0.35983(6) 0.03974(13) 0.40522(5)
H7J H 0.3574 0.0548 0.3977
C12J C 0.35515(5) 0.03776(16) 0.43639(5)
H8J H 0.3499 0.0513 0.4428
C13J C 0.38390(6) 0.04412(17) 0.44775(6)
H9J H 0.3840 0.0384 0.4665
C14J C 0.40395(6) 0.07456(14) 0.44131(8)
C15J C 0.41758(10) 0.09768(19) 0.45857(9)
H10J H 0.4147 0.0965 0.4771
C16J C 0.43581(10) 0.12248(16) 0.44533(11)
C17J C 0.45429(12) 0.15084(19) 0.45649(14)
C18J C 0.39485(2) 0.03142(12) 0.42640(12)
H11J H 0.4143 0.0367 0.4292
H12J H 0.3834 0.0112 0.4250
C19J C 0.33572(6) 0.01086(15) 0.39596(4)
C20J C 0.34008(11) 0.00017(21) 0.370293(10)
F1J F 0.36305(10) -0.00179(20) 0.37031(9)
F2J F 0.34243(16) 0.01709(34) 0.35018(3)
F3J F 0.31920(11) -0.02514(23) 0.36424(2)
O4J O 0.30690(12) 0.14910(18) 0.20520(10)
O5J O 0.46159(9) 0.25289(15) 0.29331(13)
O6J O 0.21123(11) 0.18476(16) 0.32285(16)
O7J O 0.18798(10) 0.09298(19) 0.33831(14)
O8J O 0.43878(11) 0.16170(15) 0.31149(13)
N3J N 0.50228(11) 0.25090(17) 0.36463(14)
N4J N 0.17007(13) 0.12533(24) 0.40781(16)
N5J N 0.45895(10) 0.21086(15) 0.30812(13)
N6J N 0.19298(10) 0.13816(17) 0.33804(15)
C21J C 0.48094(10) 0.23894(16) 0.34711(13)
H13J H 0.4675 0.2443 0.3480
C22J C 0.47722(10) 0.21897(15) 0.32741(13)
C23J C 0.49818(10) 0.21153(16) 0.32671(15)
H14J H 0.4971 0.1984 0.3142
C24J C 0.52060(11) 0.22368(16) 0.34471(16)
H15J H 0.5346 0.2189 0.3443
C25J C 0.52174(11) 0.24329(17) 0.36330(16)
H16J H 0.5367 0.2513 0.3753
C26J C 0.18493(11) 0.12866(21) 0.38531(15)
H17J H 0.1988 0.1237 0.3861
C27J C 0.18147(11) 0.13905(19) 0.36053(16)
C28J C 0.16034(11) 0.14627(19) 0.36020(17)
H18J H 0.1569 0.1532 0.3444
C29J C 0.14457(12) 0.14298(22) 0.38333(18)
H19J H 0.1306 0.1477 0.3832
C30J C 0.15021(13) 0.13237(24) 0.40666(17)
H20J H 0.1397 0.1302 0.4220
C31J C 0.45041(9) 0.22725(14) 0.29318(12)
C32J C 0.42581(10) 0.20886(15) 0.27627(11)
C33J C 0.41125(10) 0.21581(16) 0.25782(11)
H21J H 0.4156 0.2341 0.2544
C34J C 0.38938(10) 0.19263(15) 0.24482(10)
C35J C 0.36975(11) 0.19135(16) 0.22282(10)
H22J H 0.3758 0.2087 0.2126
C36J C 0.34045(10) 0.17829(15) 0.23610(9)
H23J H 0.3415 0.1879 0.2530
C37J C 0.31472(11) 0.17355(16) 0.21938(10)
C38J C 0.29255(10) 0.16637(15) 0.24144(10)
H24J H 0.3009 0.1780 0.2575
C39J C 0.26382(11) 0.16356(16) 0.23477(11)
H25J H 0.2644 0.1794 0.2254
C40J C 0.24727(10) 0.15467(15) 0.26080(12)
C41J C 0.23840(10) 0.16926(15) 0.27747(13)
H26J H 0.2430 0.1877 0.2742
C42J C 0.22218(10) 0.15363(16) 0.29925(13)
C43J C 0.20852(10) 0.16134(16) 0.32067(15)
C44J C 0.19757(10) 0.11650(18) 0.32858(14)
C45J C 0.21549(9) 0.12599(16) 0.30417(13)
C46J C 0.22441(9) 0.11152(16) 0.28773(13)
H27J H 0.2201 0.0932 0.2910
C47J C 0.24061(10) 0.12714(16) 0.26570(12)
C48J C 0.25297(10) 0.11873(16) 0.24276(11)
H28J H 0.2448 0.0985 0.2398
C49J C 0.28509(10) 0.13555(15) 0.24693(10)
H29J H 0.2899 0.1336 0.2655
C50J C 0.30488(11) 0.13238(16) 0.22691(10)
C51J C 0.33304(10) 0.14753(15) 0.24187(10)
H30J H 0.3305 0.1435 0.2612
C52J C 0.35897(11) 0.14662(16) 0.23124(10)
H31J H 0.3564 0.1279 0.2278
C53J C 0.38276(10) 0.16516(15) 0.24999(10)
C54J C 0.39736(10) 0.15820(14) 0.26869(11)
H32J H 0.3929 0.1398 0.2722
C55J C 0.41916(10) 0.18127(14) 0.28146(11)
C56J C 0.43956(10) 0.18254(14) 0.30168(12)
C57J C 0.36868(12) 0.16676(18) 0.20677(10)
H33J H 0.3869 0.1709 0.1999
H34J H 0.3551 0.1602 0.1922
C58J C 0.31921(12) 0.19628(18) 0.20085(10)
C59J C 0.24779(11) 0.13499(16) 0.22016(12)
H35J H 0.2281 0.1287 0.2176
H36J H 0.2564 0.1347 0.2031
C60J C 0.29593(12) 0.10370(17) 0.21786(11)
F4J F 0.33957(13) 0.20238(20) 0.18328(10)
F5J F 0.32602(12) 0.21943(18) 0.21461(11)
F6J F 0.29669(13) 0.19027(19) 0.18640(11)
F7J F 0.27088(12) 0.09135(18) 0.20642(12)
F8J F 0.29471(12) 0.08800(17) 0.23865(12)
F9J F 0.31321(13) 0.10273(18) 0.19992(12)
O9J O 0.46674(17) 0.34246(21) 0.41279(16)
O10J O 0.43009(16) 0.32570(21) 0.32647(14)
N7J N 0.4862(3) 0.28670(32) 0.3730(2)
N8J N 0.45541(13) 0.33117(18) 0.36672(15)
C61J C 0.46959(19) 0.29769(22) 0.37698(18)
H37J H 0.4579 0.2915 0.3919
C62J C 0.46835(15) 0.31779(19) 0.36043(16)
C63J C 0.48646(16) 0.32658(21) 0.33803(18)
H38J H 0.4868 0.3398 0.3262
C64J C 0.50397(18) 0.31552(22) 0.3334(2)
H39J H 0.5160 0.3212 0.3187
C65J C 0.5031(2) 0.29563(23) 0.3515(2)
H40J H 0.5148 0.2883 0.3485
C66J C 0.45338(13) 0.34123(18) 0.39251(15)
C67J C 0.43283(11) 0.35107(16) 0.39159(13)
C68J C 0.42498(11) 0.36343(16) 0.41166(14)
H41J H 0.4321 0.3664 0.4291
C69J C 0.40537(9) 0.37087(15) 0.40314(14)
C70J C 0.39272(10) 0.38574(16) 0.41820(15)
H42J H 0.4029 0.3961 0.4343
C71J C 0.36143(11) 0.36367(18) 0.42223(16)
H43J H 0.3596 0.3464 0.4298
C72J C 0.34941(10) 0.35846(17) 0.39296(17)
H44J H 0.3426 0.3389 0.3878
C73J C 0.37522(12) 0.37815(17) 0.37563(15)
H45J H 0.3713 0.3824 0.3575
C74J C 0.39463(10) 0.36620(16) 0.37700(14)
C75J C 0.40244(12) 0.35362(18) 0.35686(13)
H46J H 0.3952 0.3503 0.3394
C76J C 0.42204(11) 0.34638(16) 0.36535(13)
C77J C 0.43579(13) 0.33352(18) 0.34999(13)
C78J C 0.39241(12) 0.40363(17) 0.39428(18)
H47J H 0.4110 0.4163 0.3873
H48J H 0.3828 0.4138 0.3985
C79J C 0.34159(13) 0.37156(20) 0.43696(18)
C80J C 0.35297(16) 0.38909(23) 0.46121(18)
F10J F 0.37633(15) 0.41296(21) 0.45630(19)
F11J F 0.3588(2) 0.37556(26) 0.47993(16)
F12J F 0.33533(18) 0.39600(25) 0.4720(2)
Pt2 Pt 0.24733(4) 0.13715(4) 0.42848(4)
Cl1 Cl 0.2427(3) 0.1154(3) 0.3877(3)
Cl2 Cl 0.2477(3) 0.1000(3) 0.4500(3)
Cl3 Cl 0.2513(3) 0.1577(3) 0.4690(3)
Cl4 Cl 0.2467(3) 0.1742(3) 0.4075(3)
Pt3 Pt 0.3333 0.18214(5) 0.4167
N9 N 0.3383(7) 0.1844(6) 0.4553(4)
C81 C 0.3173(5) 0.1674(5) 0.4716(7)
H49 H 0.3003 0.1549 0.4636
C82 C 0.3186(5) 0.1669(5) 0.5000(7)
H50 H 0.3033 0.1547 0.5105
C83 C 0.3446(7) 0.1862(6) 0.5113(4)
H51 H 0.3470 0.1870 0.5300
C84 C 0.3669(5) 0.2040(5) 0.4947(7)
H52 H 0.3842 0.2168 0.5021
C85 C 0.3627(6) 0.2024(5) 0.4668(6)
H53 H 0.3776 0.2143 0.4557
N10 N 0.3333 0.1472(5) 0.4167
C86 C 0.3099(4) 0.1225(5) 0.4120(7)
H54 H 0.2938 0.1230 0.4073
C87 C 0.3079(3) 0.0961(5) 0.4137(8)
H55 H 0.2908 0.0795 0.4128
C88 C 0.3333 0.0965(5) 0.4167
H56 H 0.3333 0.0796 0.4167
N11 N 0.3333 0.2186(6) 0.4167
C89 C 0.3114(5) 0.2203(6) 0.4265(8)
H57 H 0.2959 0.2039 0.4323
C90 C 0.3105(5) 0.2454(6) 0.4284(8)
H58 H 0.2959 0.2463 0.4368
C91 C 0.3333 0.2690(6) 0.4167
H59 H 0.3333 0.2858 0.4167
N9J N 0.3284(7) 0.1794(9) 0.3780(4)
C81J C 0.3494(5) 0.1834(7) 0.3617(7)
H49J H 0.3664 0.1879 0.3697
C82J C 0.3481(5) 0.1816(7) 0.3333(7)
H50J H 0.3634 0.1847 0.3228
C83J C 0.3221(7) 0.1749(9) 0.3220(4)
H51J H 0.3197 0.1733 0.3033
C84J C 0.2998(5) 0.1704(7) 0.3386(7)
H52J H 0.2825 0.1659 0.3312
C85J C 0.3040(6) 0.1730(8) 0.3665(6)
H53J H 0.2891 0.1700 0.3776
C86J C 0.3568(4) 0.1459(6) 0.4213(7)
H54J H 0.3729 0.1625 0.4260
C87J C 0.3588(3) 0.1215(6) 0.4196(8)
H55J H 0.3759 0.1220 0.4205
C89J C 0.3553(5) 0.2422(8) 0.4068(8)
H57J H 0.3708 0.2413 0.4010
C90J C 0.3562(5) 0.2682(8) 0.4049(8)
H58J H 0.3708 0.2837 0.3965
Cl5 Cl 0.0890(3) 0.0809(4) 0.4502(4)
O12 O 0.0944(8) 0.0695(8) 0.4263(6)
O13 O 0.1046(7) 0.1110(4) 0.4490(8)
O14 O 0.0974(8) 0.0715(8) 0.4737(6)
O15 O 0.0595(4) 0.0716(8) 0.4519(8)
loop_
_geom_bond_atom_site_label_1
_geom_bond_atom_site_label_2
_geom_bond_site_symmetry_1
_geom_bond_site_symmetry_2
Pt1 N1 1_555 1_555
O1 C19 1_555 1_555
O2 C6 1_555 1_555
O3 C17 1_555 1_555
N1 C1 1_555 1_555
N2 C2 1_555 1_555
C1 H1 1_555 1_555
C2 C1 1_555 1_555
C3 C2 1_555 1_555
H2 C3 1_555 1_555
C4 C3 1_555 1_555
H3 C4 1_555 1_555
C5 N1 1_555 1_555
H4 C5 1_555 1_555
C6 N2 1_555 1_555
C7 C6 1_555 1_555
C8 C7 1_555 1_555
H5 C8 1_555 1_555
C9 C8 1_555 1_555
C10 C9 1_555 1_555
H6 C10 1_555 1_555
C11 C10 1_555 1_555
H7 C11 1_555 1_555
C12 C11 1_555 1_555
H8 C12 1_555 1_555
C13 C12 1_555 1_555
H9 C13 1_555 1_555
C14 C9 1_555 1_555
C15 C14 1_555 1_555
H10 C15 1_555 1_555
C16 C7 1_555 1_555
C17 N2 1_555 1_555
C18 C10 1_555 1_555
H11 C18 1_555 1_555
H12 C18 1_555 1_555
C19 C11 1_555 1_555
C20 C19 1_555 1_555
F1 C20 1_555 1_555
F2 C20 1_555 1_555
F3 C20 1_555 1_555
O4 C37 1_555 1_555
O5 C31 1_555 1_555
O6 C43 1_555 1_555
O7 C44 1_555 1_555
O8 C56 1_555 1_555
N3 Pt1 1_555 1_555
N4 C26 1_555 1_555
N5 C22 1_555 1_555
N6 C27 1_555 1_555
C21 N3 1_555 1_555
H13 C21 1_555 1_555
C22 C21 1_555 1_555
C23 C22 1_555 1_555
H14 C23 1_555 1_555
C24 C23 1_555 1_555
H15 C24 1_555 1_555
C25 N3 1_555 1_555
H16 C25 1_555 1_555
C26 H17 1_555 1_555
C27 C26 1_555 1_555
C28 C27 1_555 1_555
H18 C28 1_555 1_555
C29 C28 1_555 1_555
H19 C29 1_555 1_555
C30 N4 1_555 1_555
H20 C30 1_555 1_555
C31 N5 1_555 1_555
C32 C31 1_555 1_555
C33 C32 1_555 1_555
H21 C33 1_555 1_555
C34 C33 1_555 1_555
C35 C34 1_555 1_555
H22 C35 1_555 1_555
C36 C35 1_555 1_555
H23 C36 1_555 1_555
C37 C36 1_555 1_555
C38 C37 1_555 1_555
H24 C38 1_555 1_555
C39 C38 1_555 1_555
H25 C39 1_555 1_555
C40 C39 1_555 1_555
C41 C40 1_555 1_555
H26 C41 1_555 1_555
C42 C41 1_555 1_555
C43 N6 1_555 1_555
C44 N6 1_555 1_555
C45 C42 1_555 1_555
C46 C45 1_555 1_555
H27 C46 1_555 1_555
C47 C40 1_555 1_555
C48 C47 1_555 1_555
H28 C48 1_555 1_555
C49 C38 1_555 1_555
H29 C49 1_555 1_555
C50 O4 1_555 1_555
C51 C36 1_555 1_555
H30 C51 1_555 1_555
C52 C51 1_555 1_555
H31 C52 1_555 1_555
C53 C34 1_555 1_555
C54 C53 1_555 1_555
H32 C54 1_555 1_555
C55 C32 1_555 1_555
C56 N5 1_555 1_555
C57 C35 1_555 1_555
H33 C57 1_555 1_555
H34 C57 1_555 1_555
C58 C37 1_555 1_555
C59 C39 1_555 1_555
H35 C59 1_555 1_555
H36 C59 1_555 1_555
C60 C50 1_555 1_555
F4 C58 1_555 1_555
F5 C58 1_555 1_555
F6 C58 1_555 1_555
F7 C60 1_555 1_555
F8 C60 1_555 1_555
F9 C60 1_555 1_555
O9 C66 1_555 1_555
O10 C77 1_555 1_555
O11 C79 1_555 1_555
N7 Pt1 1_555 1_555
N8 C62 1_555 1_555
C61 N7 1_555 1_555
H37 C61 1_555 1_555
C62 C61 1_555 1_555
C63 C62 1_555 1_555
H38 C63 1_555 1_555
C64 C63 1_555 1_555
H39 C64 1_555 1_555
C65 N7 1_555 1_555
H40 C65 1_555 1_555
C66 N8 1_555 1_555
C67 C66 1_555 1_555
C68 C67 1_555 1_555
H41 C68 1_555 1_555
C69 C68 1_555 1_555
C70 C69 1_555 1_555
H42 C70 1_555 1_555
C71 C70 1_555 1_555
H43 C71 1_555 1_555
C72 C71 1_555 1_555
H44 C72 1_555 1_555
C73 C72 1_555 1_555
H45 C73 1_555 1_555
C74 C69 1_555 1_555
C75 C74 1_555 1_555
H46 C75 1_555 1_555
C76 C67 1_555 1_555
C77 N8 1_555 1_555
C78 C70 1_555 1_555
H47 C78 1_555 1_555
H48 C78 1_555 1_555
C79 C71 1_555 1_555
C80 C79 1_555 1_555
F10 C80 1_555 1_555
F11 C80 1_555 1_555
F12 C80 1_555 1_555
Pt2 Cl1 1_555 1_555
Cl2 Pt2 1_555 1_555
Cl3 Pt2 1_555 1_555
Cl4 Pt2 1_555 1_555
Pt3 N9 1_555 1_555
N9 C81 1_555 1_555
C81 H49 1_555 1_555
C82 C81 1_555 1_555
H50 C82 1_555 1_555
C83 C82 1_555 1_555
H51 C83 1_555 1_555
C84 C83 1_555 1_555
H52 C84 1_555 1_555
C85 N9 1_555 1_555
H53 C85 1_555 1_555
N10 Pt3 1_555 1_555
C86 N10 1_555 1_555
H54 C86 1_555 1_555
C87 C86 1_555 1_555
H55 C87 1_555 1_555
C88 C87 1_555 1_555
H56 C88 1_555 1_555
N11 Pt3 1_555 1_555
C89 N11 1_555 1_555
H57 C89 1_555 1_555
C90 C89 1_555 1_555
H58 C90 1_555 1_555
C91 C90 1_555 1_555
H59 C91 1_555 1_555
Cl5 O12 1_555 1_555
O13 Cl5 1_555 1_555
O14 Cl5 1_555 1_555
O15 Cl5 1_555 1_555
Pt1J N4 1_555 1_555
O2J C6J 1_555 1_555
O3J C17J 1_555 1_555
N1J Pt1J 1_555 1_555
N2J C2J 1_555 1_555
C1J N1J 1_555 1_555
H1J C1J 1_555 1_555
C2J C1J 1_555 1_555
C3J C2J 1_555 1_555
H2J C3J 1_555 1_555
C4J C3J 1_555 1_555
H3J C4J 1_555 1_555
C5J N1J 1_555 1_555
H4J C5J 1_555 1_555
C6J N2J 1_555 1_555
C7J C6J 1_555 1_555
C8J C7J 1_555 1_555
H5J C8J 1_555 1_555
C9J C8J 1_555 1_555
C10J C9J 1_555 1_555
H6J C10J 1_555 1_555
C11J C10J 1_555 1_555
H7J C11J 1_555 1_555
C12J C19 1_555 1_555
H8J C12J 1_555 1_555
C13J C12J 1_555 1_555
H9J C13J 1_555 1_555
C14J C9J 1_555 1_555
C15J C14J 1_555 1_555
H10J C15J 1_555 1_555
C16J C7J 1_555 1_555
C17J N2J 1_555 1_555
C18J C10J 1_555 1_555
H11J C18J 1_555 1_555
H12J C18J 1_555 1_555
C19J O1 1_555 1_555
C20J C19J 1_555 1_555
F1J C20J 1_555 1_555
F2J C20J 1_555 1_555
F3J C20J 1_555 1_555
O4J C37J 1_555 1_555
O5J C31J 1_555 1_555
O6J C43J 1_555 1_555
O7J C44J 1_555 1_555
O8J C56J 1_555 1_555
N3J Pt1J 1_555 1_555
N4J Pt1 1_555 1_555
N5J C22J 1_555 1_555
N6J C27J 1_555 1_555
C21J N3J 1_555 1_555
H13J C21J 1_555 1_555
C22J C21J 1_555 1_555
C23J C22J 1_555 1_555
H14J C23J 1_555 1_555
C24J C23J 1_555 1_555
H15J C24J 1_555 1_555
C25J N3J 1_555 1_555
H16J C25J 1_555 1_555
C26J N4J 1_555 1_555
H17J C26J 1_555 1_555
C27J C26J 1_555 1_555
C28J C27J 1_555 1_555
H18J C28J 1_555 1_555
C29J C28J 1_555 1_555
H19J C29J 1_555 1_555
C30J N4J 1_555 1_555
H20J C30J 1_555 1_555
C31J N5J 1_555 1_555
C32J C31J 1_555 1_555
C33J C32J 1_555 1_555
H21J C33J 1_555 1_555
C34J C33J 1_555 1_555
C35J C34J 1_555 1_555
H22J C35J 1_555 1_555
C36J C35J 1_555 1_555
H23J C36J 1_555 1_555
C37J C36J 1_555 1_555
C38J C37J 1_555 1_555
H24J C38J 1_555 1_555
C39J C38J 1_555 1_555
H25J C39J 1_555 1_555
C40J C39J 1_555 1_555
C41J C40J 1_555 1_555
H26J C41J 1_555 1_555
C42J C41J 1_555 1_555
C43J N6J 1_555 1_555
C44J N6J 1_555 1_555
C45J C42J 1_555 1_555
C46J C45J 1_555 1_555
H27J C46J 1_555 1_555
C47J C40J 1_555 1_555
C48J C47J 1_555 1_555
H28J C48J 1_555 1_555
C49J C38J 1_555 1_555
H29J C49J 1_555 1_555
C50J O4J 1_555 1_555
C51J C36J 1_555 1_555
H30J C51J 1_555 1_555
C52J C51J 1_555 1_555
H31J C52J 1_555 1_555
C53J C34J 1_555 1_555
C54J C53J 1_555 1_555
H32J C54J 1_555 1_555
C55J C32J 1_555 1_555
C56J N5J 1_555 1_555
C57J C35J 1_555 1_555
H33J C57J 1_555 1_555
H34J C57J 1_555 1_555
C58J C37J 1_555 1_555
C59J C39J 1_555 1_555
H35J C59J 1_555 1_555
H36J C59J 1_555 1_555
C60J C50J 1_555 1_555
F4J C58J 1_555 1_555
F5J C58J 1_555 1_555
F6J C58J 1_555 1_555
F7J C60J 1_555 1_555
F8J C60J 1_555 1_555
F9J C60J 1_555 1_555
O9J C66J 1_555 1_555
O10J C77J 1_555 1_555
N7J Pt1J 1_555 1_555
N8J C62J 1_555 1_555
C61J N7J 1_555 1_555
H37J C61J 1_555 1_555
C62J C61J 1_555 1_555
C63J C62J 1_555 1_555
H38J C63J 1_555 1_555
C64J C63J 1_555 1_555
H39J C64J 1_555 1_555
C65J N7J 1_555 1_555
H40J C65J 1_555 1_555
C66J N8J 1_555 1_555
C67J C66J 1_555 1_555
C68J C67J 1_555 1_555
H41J C68J 1_555 1_555
C69J C68J 1_555 1_555
C70J C69J 1_555 1_555
H42J C70J 1_555 1_555
C71J C70J 1_555 1_555
H43J C71J 1_555 1_555
C72J C79 1_555 1_555
H44J C72J 1_555 1_555
C73J C72J 1_555 1_555
H45J C73J 1_555 1_555
C74J C69J 1_555 1_555
C75J C74J 1_555 1_555
H46J C75J 1_555 1_555
C76J C67J 1_555 1_555
C77J N8J 1_555 1_555
C78J C70J 1_555 1_555
H47J C78J 1_555 1_555
H48J C78J 1_555 1_555
C79J O11 1_555 1_555
C80J C79J 1_555 1_555
F10J C80J 1_555 1_555
F11J C80J 1_555 1_555
F12J C80J 1_555 1_555
N9J Pt3 1_555 1_555
C81J N9J 1_555 1_555
H49J C81J 1_555 1_555
C82J C81J 1_555 1_555
H50J C82J 1_555 1_555
C83J C82J 1_555 1_555
H51J C83J 1_555 1_555
C84J C83J 1_555 1_555
H52J C84J 1_555 1_555
C85J N9J 1_555 1_555
H53J C85J 1_555 1_555
C86J N10 1_555 1_555
H54J C86J 1_555 1_555
C87J C88 1_555 1_555
H55J C87J 1_555 1_555
C89J N11 1_555 1_555
H57J C89J 1_555 1_555
C90J C91 1_555 1_555
H58J C90J 1_555 1_555
C4 C5 1_555 1_555
C12 C19J 1_555 1_555
C13 C14 1_555 1_555
C13 C18 1_555 1_555
C15 C16 1_555 1_555
C16 C17 1_555 1_555
C24 C25 1_555 1_555
C29 C30 1_555 1_555
C42 C43 1_555 1_555
C44 C45 1_555 1_555
C46 C47 1_555 1_555
C48 C49 1_555 1_555
C48 C59 1_555 1_555
C49 C50 1_555 1_555
C50 C51 1_555 1_555
C52 C53 1_555 1_555
C52 C57 1_555 1_555
C54 C55 1_555 1_555
C55 C56 1_555 1_555
C64 C65 1_555 1_555
C72 C79J 1_555 1_555
C73 C74 1_555 1_555
C73 C78 1_555 1_555
C75 C76 1_555 1_555
C76 C77 1_555 1_555
C84 C85 1_555 1_555
C4J C5J 1_555 1_555
C11J C12J 1_555 1_555
C11J C19J 1_555 1_555
C13J C14J 1_555 1_555
C13J C18J 1_555 1_555
C15J C16J 1_555 1_555
C16J C17J 1_555 1_555
C24J C25J 1_555 1_555
C29J C30J 1_555 1_555
C42J C43J 1_555 1_555
C44J C45J 1_555 1_555
C46J C47J 1_555 1_555
C48J C49J 1_555 1_555
C48J C59J 1_555 1_555
C49J C50J 1_555 1_555
C50J C51J 1_555 1_555
C52J C53J 1_555 1_555
C52J C57J 1_555 1_555
C54J C55J 1_555 1_555
C55J C56J 1_555 1_555
C64J C65J 1_555 1_555
C71J C72J 1_555 1_555
C71J C79J 1_555 1_555
C73J C74J 1_555 1_555
C73J C78J 1_555 1_555
C75J C76J 1_555 1_555
C76J C77J 1_555 1_555
C84J C85J 1_555 1_555
C86J C87J 1_555 1_555
C89J C90J 1_555 1_555

#END
