# generated using pymatgen
data_Fe16Sb8.9H528C672N192F53.4
_symmetry_space_group_name_H-M   'P 1'
_cell_length_a   25.48390000
_cell_length_b   33.59540000
_cell_length_c   37.40350000
_cell_angle_alpha   89.22000000
_cell_angle_beta   83.44000000
_cell_angle_gamma   80.43800000
_symmetry_Int_Tables_number   1
_chemical_formula_structural   Fe16Sb8.9H528C672N192F53.4
_chemical_formula_sum   'Fe16 Sb8.9 H528 C672 N192 F53.4'
_cell_volume   31370.57301392
_cell_formula_units_Z   1
loop_
 _symmetry_equiv_pos_site_id
 _symmetry_equiv_pos_as_xyz
  1  'x, y, z'
loop_
 _atom_site_type_symbol
 _atom_site_label
 _atom_site_symmetry_multiplicity
 _atom_site_fract_x
 _atom_site_fract_y
 _atom_site_fract_z
 _atom_site_occupancy
  Fe  Fe1  1  0.578470  0.867540  0.320530  1.0
  Fe  Fe2  1  0.421530  0.132460  0.679470  1.0
  Fe  Fe3  1  0.696640  0.264130  0.173850  1.0
  Fe  Fe4  1  0.303360  0.735870  0.826150  1.0
  Fe  Fe5  1  0.048530  0.939180  0.170620  1.0
  Fe  Fe6  1  0.951470  0.060820  0.829380  1.0
  Fe  Fe7  1  0.171250  0.333450  0.024230  1.0
  Fe  Fe8  1  0.828750  0.666550  0.975770  1.0
  Fe  Fe9  1  0.058880  0.465940  0.700760  1.0
  Fe  Fe10  1  0.941120  0.534060  0.299240  1.0
  Fe  Fe11  1  0.173980  0.849400  0.529600  1.0
  Fe  Fe12  1  0.826020  0.150600  0.470400  1.0
  Fe  Fe13  1  0.270740  0.216630  0.373730  1.0
  Fe  Fe14  1  0.729260  0.783370  0.626270  1.0
  Fe  Fe15  1  0.380720  0.603450  0.199210  1.0
  Fe  Fe16  1  0.619280  0.396550  0.800790  1.0
  Sb  Sb17  1  0.702600  0.001600  0.397300  0.15
  Sb  Sb18  1  0.297400  0.998400  0.602700  0.15
  Sb  Sb19  1  0.730800  0.985500  0.398500  0.2
  Sb  Sb20  1  0.269200  0.014500  0.601500  0.2
  Sb  Sb21  1  0.512100  0.262900  0.751270  0.35
  Sb  Sb22  1  0.487900  0.737100  0.248730  0.35
  Sb  Sb23  1  0.260300  0.823560  0.666320  0.4
  Sb  Sb24  1  0.739700  0.176440  0.333680  0.4
  Sb  Sb25  1  0.143900  0.040070  0.272620  0.4
  Sb  Sb26  1  0.856100  0.959930  0.727380  0.4
  Sb  Sb27  1  0.076800  0.696300  0.916570  0.5
  Sb  Sb28  1  0.923200  0.303700  0.083430  0.5
  Sb  Sb29  1  0.334400  0.859260  0.408640  0.5
  Sb  Sb30  1  0.665600  0.140740  0.591360  0.5
  Sb  Sb31  1  0.421380  0.515070  0.712600  0.5
  Sb  Sb32  1  0.578620  0.484930  0.287400  0.5
  Sb  Sb33  1  0.252550  0.461710  0.140620  0.65
  Sb  Sb34  1  0.747450  0.538290  0.859380  0.65
  Sb  Sb35  1  0.150500  0.434950  0.863360  0.8
  Sb  Sb36  1  0.849500  0.565050  0.136640  0.8
  H  H37  1  0.960000  0.925800  0.270500  1.0
  H  H38  1  0.040000  0.074200  0.729500  1.0
  H  H39  1  0.886000  0.961800  0.304000  1.0
  H  H40  1  0.114000  0.038200  0.696000  1.0
  H  H41  1  0.908900  0.063300  0.252700  1.0
  H  H42  1  0.091100  0.936700  0.747300  1.0
  H  H43  1  0.983200  0.028400  0.218100  1.0
  H  H44  1  0.016800  0.971600  0.781900  1.0
  H  H45  1  0.848700  0.062800  0.311200  1.0
  H  H46  1  0.151300  0.937200  0.688800  1.0
  H  H47  1  0.826700  0.021700  0.321500  1.0
  H  H48  1  0.173300  0.978300  0.678500  1.0
  H  H49  1  0.808800  0.046600  0.286900  1.0
  H  H50  1  0.191200  0.953400  0.713100  1.0
  H  H51  1  0.066000  0.951400  0.266100  1.0
  H  H52  1  0.934000  0.048600  0.733900  1.0
  H  H53  1  0.171600  0.922900  0.262500  1.0
  H  H54  1  0.828400  0.077100  0.737500  1.0
  H  H55  1  0.243900  0.880300  0.166100  1.0
  H  H56  1  0.756100  0.119700  0.833900  1.0
  H  H57  1  0.162600  0.894600  0.142800  1.0
  H  H58  1  0.837400  0.105400  0.857200  1.0
  H  H59  1  0.539600  0.844100  0.248100  1.0
  H  H60  1  0.460400  0.155900  0.751900  1.0
  H  H61  1  0.458100  0.856300  0.223800  1.0
  H  H62  1  0.541900  0.143700  0.776200  1.0
  H  H63  1  0.384400  0.893200  0.322200  1.0
  H  H64  1  0.615600  0.106800  0.677800  1.0
  H  H65  1  0.447100  0.898400  0.372900  1.0
  H  H66  1  0.552900  0.101600  0.627100  1.0
  H  H67  1  0.509000  0.844200  0.421100  1.0
  H  H68  1  0.491000  0.155800  0.578900  1.0
  H  H69  1  0.527200  0.857700  0.479400  1.0
  H  H70  1  0.472800  0.142300  0.520600  1.0
  H  H71  1  0.593900  0.952700  0.444000  1.0
  H  H72  1  0.406100  0.047300  0.556000  1.0
  H  H73  1  0.560900  0.947700  0.388000  1.0
  H  H74  1  0.439100  0.052300  0.612000  1.0
  H  H75  1  0.601200  0.915000  0.512100  1.0
  H  H76  1  0.398800  0.085000  0.487900  1.0
  H  H77  1  0.542900  0.903600  0.522700  1.0
  H  H78  1  0.457100  0.096400  0.477300  1.0
  H  H79  1  0.549000  0.948100  0.508900  1.0
  H  H80  1  0.451000  0.051900  0.491100  1.0
  H  H81  1  0.959300  0.932000  0.095400  1.0
  H  H82  1  0.040700  0.068000  0.904600  1.0
  H  H83  1  0.882200  0.906900  0.084500  1.0
  H  H84  1  0.117800  0.093100  0.915500  1.0
  H  H85  1  0.817100  0.934900  0.186900  1.0
  H  H86  1  0.182900  0.065100  0.813100  1.0
  H  H87  1  0.894200  0.959900  0.197800  1.0
  H  H88  1  0.105800  0.040100  0.802200  1.0
  H  H89  1  0.760400  0.918700  0.135600  1.0
  H  H90  1  0.239600  0.081300  0.864400  1.0
  H  H91  1  0.792800  0.875100  0.143800  1.0
  H  H92  1  0.207200  0.124900  0.856200  1.0
  H  H93  1  0.795000  0.891700  0.103500  1.0
  H  H94  1  0.205000  0.108300  0.896500  1.0
  H  H95  1  0.954000  0.016800  0.129100  1.0
  H  H96  1  0.046000  0.983200  0.870900  1.0
  H  H97  1  0.010600  0.077300  0.125200  1.0
  H  H98  1  0.989400  0.922700  0.874800  1.0
  H  H99  1  0.158500  0.051400  0.156600  1.0
  H  H100  1  0.841500  0.948600  0.843400  1.0
  H  H101  1  0.139800  0.989200  0.175800  1.0
  H  H102  1  0.860200  0.010800  0.824200  1.0
  H  H103  1  0.227200  0.268400  0.072400  1.0
  H  H104  1  0.772800  0.731600  0.927600  1.0
  H  H105  1  0.206200  0.211300  0.102700  1.0
  H  H106  1  0.793800  0.788700  0.897300  1.0
  H  H107  1  0.060400  0.234500  0.065900  1.0
  H  H108  1  0.939600  0.765500  0.934100  1.0
  H  H109  1  0.038700  0.302100  0.029900  1.0
  H  H110  1  0.961300  0.697900  0.970100  1.0
  H  H111  1  0.035700  0.403400  0.038700  1.0
  H  H112  1  0.964300  0.596600  0.961300  1.0
  H  H113  1  0.985800  0.452200  0.006000  1.0
  H  H114  1  0.014200  0.547800  0.994000  1.0
  H  H115  1  0.035800  0.388100  0.916400  1.0
  H  H116  1  0.964200  0.611900  0.083600  1.0
  H  H117  1  0.075200  0.334100  0.950100  1.0
  H  H118  1  0.924800  0.665900  0.049900  1.0
  H  H119  1  0.001400  0.467600  0.917900  1.0
  H  H120  1  0.998600  0.532400  0.082100  1.0
  H  H121  1  0.961500  0.481900  0.953200  1.0
  H  H122  1  0.038500  0.518100  0.046800  1.0
  H  H123  1  0.946700  0.449900  0.926300  1.0
  H  H124  1  0.053300  0.550100  0.073700  1.0
  H  H125  1  0.080700  0.334800  0.103900  1.0
  H  H126  1  0.919300  0.665200  0.896100  1.0
  H  H127  1  0.998700  0.367800  0.132300  1.0
  H  H128  1  0.001300  0.632200  0.867700  1.0
  H  H129  1  0.045800  0.475100  0.110300  1.0
  H  H130  1  0.954200  0.524900  0.889700  1.0
  H  H131  1  0.126500  0.443100  0.078400  1.0
  H  H132  1  0.873500  0.556900  0.921600  1.0
  H  H133  1  0.933400  0.450800  0.123800  1.0
  H  H134  1  0.066600  0.549200  0.876200  1.0
  H  H135  1  0.964700  0.473100  0.150200  1.0
  H  H136  1  0.035300  0.526900  0.849800  1.0
  H  H137  1  0.947200  0.430700  0.161400  1.0
  H  H138  1  0.052800  0.569300  0.838600  1.0
  H  H139  1  0.203100  0.380900  0.105600  1.0
  H  H140  1  0.796900  0.619100  0.894400  1.0
  H  H141  1  0.307600  0.358600  0.098600  1.0
  H  H142  1  0.692400  0.641400  0.901400  1.0
  H  H143  1  0.370800  0.290400  0.011900  1.0
  H  H144  1  0.629200  0.709600  0.988100  1.0
  H  H145  1  0.287400  0.293600  0.993100  1.0
  H  H146  1  0.712600  0.706400  0.006900  1.0
  H  H147  1  0.663700  0.249800  0.097800  1.0
  H  H148  1  0.336300  0.750200  0.902200  1.0
  H  H149  1  0.586700  0.264000  0.069100  1.0
  H  H150  1  0.413300  0.736000  0.930900  1.0
  H  H151  1  0.515500  0.330000  0.157200  1.0
  H  H152  1  0.484500  0.670000  0.842800  1.0
  H  H153  1  0.573700  0.331100  0.210100  1.0
  H  H154  1  0.426300  0.668900  0.789900  1.0
  H  H155  1  0.644700  0.258200  0.268600  1.0
  H  H156  1  0.355300  0.741800  0.731400  1.0
  H  H157  1  0.659100  0.278500  0.325500  1.0
  H  H158  1  0.340900  0.721500  0.674500  1.0
  H  H159  1  0.670900  0.388800  0.290200  1.0
  H  H160  1  0.329100  0.611200  0.709800  1.0
  H  H161  1  0.661400  0.369000  0.232100  1.0
  H  H162  1  0.338600  0.631000  0.767900  1.0
  H  H163  1  0.717100  0.333500  0.354300  1.0
  H  H164  1  0.282900  0.666500  0.645700  1.0
  H  H165  1  0.654900  0.340700  0.369400  1.0
  H  H166  1  0.345100  0.659300  0.630600  1.0
  H  H167  1  0.681300  0.376900  0.350600  1.0
  H  H168  1  0.318700  0.623100  0.649400  1.0
  H  H169  1  0.842100  0.250600  0.166200  1.0
  H  H170  1  0.157900  0.749400  0.833800  1.0
  H  H171  1  0.913100  0.283200  0.174600  1.0
  H  H172  1  0.086900  0.716800  0.825400  1.0
  H  H173  1  0.833700  0.333400  0.266500  1.0
  H  H174  1  0.166300  0.666600  0.733500  1.0
  H  H175  1  0.763900  0.297100  0.259800  1.0
  H  H176  1  0.236100  0.702900  0.740200  1.0
  H  H177  1  0.946600  0.325100  0.241600  1.0
  H  H178  1  0.053400  0.674900  0.758400  1.0
  H  H179  1  0.907900  0.364900  0.231000  1.0
  H  H180  1  0.092100  0.635100  0.769000  1.0
  H  H181  1  0.945400  0.337700  0.200200  1.0
  H  H182  1  0.054600  0.662300  0.799800  1.0
  H  H183  1  0.772400  0.204300  0.239300  1.0
  H  H184  1  0.227600  0.795700  0.760700  1.0
  H  H185  1  0.713800  0.146600  0.252200  1.0
  H  H186  1  0.286200  0.853400  0.747800  1.0
  H  H187  1  0.580400  0.158700  0.202100  1.0
  H  H188  1  0.419600  0.841300  0.797900  1.0
  H  H189  1  0.599500  0.218500  0.175800  1.0
  H  H190  1  0.400500  0.781500  0.824200  1.0
  H  H191  1  0.516100  0.938800  0.281700  1.0
  H  H192  1  0.483900  0.061200  0.718300  1.0
  H  H193  1  0.528800  0.003000  0.264600  1.0
  H  H194  1  0.471200  0.997000  0.735400  1.0
  H  H195  1  0.667200  0.985300  0.309600  1.0
  H  H196  1  0.332800  0.014700  0.690400  1.0
  H  H197  1  0.691000  0.914200  0.341500  1.0
  H  H198  1  0.309000  0.085800  0.658500  1.0
  H  H199  1  0.637600  0.856100  0.411700  1.0
  H  H200  1  0.362400  0.143900  0.588300  1.0
  H  H201  1  0.694200  0.807500  0.440800  1.0
  H  H202  1  0.305800  0.192500  0.559200  1.0
  H  H203  1  0.790200  0.783800  0.349800  1.0
  H  H204  1  0.209800  0.216200  0.650200  1.0
  H  H205  1  0.728900  0.825500  0.317900  1.0
  H  H206  1  0.271100  0.174500  0.682100  1.0
  H  H207  1  0.815200  0.746400  0.399100  1.0
  H  H208  1  0.184800  0.253600  0.600900  1.0
  H  H209  1  0.798200  0.769500  0.436900  1.0
  H  H210  1  0.201800  0.230500  0.563100  1.0
  H  H211  1  0.764700  0.736500  0.425200  1.0
  H  H212  1  0.235300  0.263500  0.574800  1.0
  H  H213  1  0.200000  0.650500  0.827800  1.0
  H  H214  1  0.800000  0.349500  0.172200  1.0
  H  H215  1  0.209100  0.581100  0.819200  1.0
  H  H216  1  0.790900  0.418900  0.180800  1.0
  H  H217  1  0.354400  0.566300  0.853800  1.0
  H  H218  1  0.645600  0.433700  0.146200  1.0
  H  H219  1  0.349600  0.636800  0.857300  1.0
  H  H220  1  0.650400  0.363200  0.142700  1.0
  H  H221  1  0.325500  0.511700  0.810400  1.0
  H  H222  1  0.674500  0.488300  0.189600  1.0
  H  H223  1  0.261700  0.515100  0.815300  1.0
  H  H224  1  0.738300  0.484900  0.184700  1.0
  H  H225  1  0.294000  0.509600  0.849800  1.0
  H  H226  1  0.706000  0.490400  0.150200  1.0
  H  H227  1  0.214600  0.690700  0.894900  1.0
  H  H228  1  0.785400  0.309300  0.105100  1.0
  H  H229  1  0.177000  0.755400  0.935800  1.0
  H  H230  1  0.823000  0.244600  0.064200  1.0
  H  H231  1  0.228900  0.858400  0.903100  1.0
  H  H232  1  0.771100  0.141600  0.096900  1.0
  H  H233  1  0.279200  0.824400  0.854200  1.0
  H  H234  1  0.720800  0.175600  0.145800  1.0
  H  H235  1  0.100100  0.967800  0.097700  1.0
  H  H236  1  0.899900  0.032200  0.902300  1.0
  H  H237  1  0.131300  0.939500  0.041700  1.0
  H  H238  1  0.868700  0.060500  0.958300  1.0
  H  H239  1  0.070500  0.840000  0.073200  1.0
  H  H240  1  0.929500  0.160000  0.926800  1.0
  H  H241  1  0.035400  0.835300  0.142500  1.0
  H  H242  1  0.964600  0.164700  0.857500  1.0
  H  H243  1  0.066900  0.857700  0.232800  1.0
  H  H244  1  0.933100  0.142300  0.767200  1.0
  H  H245  1  0.027700  0.821700  0.279500  1.0
  H  H246  1  0.972300  0.178300  0.720500  1.0
  H  H247  1  0.894100  0.830600  0.234400  1.0
  H  H248  1  0.105900  0.169400  0.765600  1.0
  H  H249  1  0.932600  0.861800  0.184000  1.0
  H  H250  1  0.067400  0.138200  0.816000  1.0
  H  H251  1  0.888800  0.814900  0.297900  1.0
  H  H252  1  0.111200  0.185100  0.702100  1.0
  H  H253  1  0.936000  0.823800  0.319900  1.0
  H  H254  1  0.064000  0.176200  0.680100  1.0
  H  H255  1  0.941400  0.781600  0.299200  1.0
  H  H256  1  0.058600  0.218400  0.700800  1.0
  H  H257  1  0.242300  0.414600  0.028500  1.0
  H  H258  1  0.757700  0.585400  0.971500  1.0
  H  H259  1  0.242300  0.483500  0.036700  1.0
  H  H260  1  0.757700  0.516500  0.963300  1.0
  H  H261  1  0.114600  0.510100  0.981800  1.0
  H  H262  1  0.885400  0.489900  0.018200  1.0
  H  H263  1  0.110800  0.441500  0.976600  1.0
  H  H264  1  0.889200  0.558500  0.023400  1.0
  H  H265  1  0.209700  0.554800  0.015300  1.0
  H  H266  1  0.790300  0.445200  0.984700  1.0
  H  H267  1  0.156100  0.556500  0.042500  1.0
  H  H268  1  0.843900  0.443500  0.957500  1.0
  H  H269  1  0.152600  0.563400  0.000400  1.0
  H  H270  1  0.847400  0.436600  0.999600  1.0
  H  H271  1  0.198200  0.386600  0.938800  1.0
  H  H272  1  0.801800  0.613400  0.061200  1.0
  H  H273  1  0.217000  0.323200  0.894500  1.0
  H  H274  1  0.783000  0.676800  0.105500  1.0
  H  H275  1  0.206400  0.215700  0.938700  1.0
  H  H276  1  0.793600  0.784300  0.061300  1.0
  H  H277  1  0.189900  0.244900  0.995400  1.0
  H  H278  1  0.810100  0.755100  0.004600  1.0
  H  H279  1  0.363700  0.102200  0.750000  1.0
  H  H280  1  0.636300  0.897800  0.250000  1.0
  H  H281  1  0.312200  0.132400  0.800600  1.0
  H  H282  1  0.687800  0.867600  0.199400  1.0
  H  H283  1  0.324100  0.242400  0.757200  1.0
  H  H284  1  0.675900  0.757600  0.242800  1.0
  H  H285  1  0.379000  0.242200  0.693200  1.0
  H  H286  1  0.621000  0.757800  0.306800  1.0
  H  H287  1  0.368500  0.235800  0.618300  1.0
  H  H288  1  0.631500  0.764200  0.381700  1.0
  H  H289  1  0.409900  0.264500  0.567900  1.0
  H  H290  1  0.590100  0.735500  0.432100  1.0
  H  H291  1  0.553000  0.233000  0.602400  1.0
  H  H292  1  0.447000  0.767000  0.397600  1.0
  H  H293  1  0.514900  0.199000  0.651500  1.0
  H  H294  1  0.485100  0.801000  0.348500  1.0
  H  H295  1  0.483900  0.283500  0.532300  1.0
  H  H296  1  0.516100  0.716500  0.467700  1.0
  H  H297  1  0.537000  0.250600  0.532800  1.0
  H  H298  1  0.463000  0.749400  0.467200  1.0
  H  H299  1  0.530600  0.292000  0.554900  1.0
  H  H300  1  0.469400  0.708000  0.445100  1.0
  H  H301  1  0.962400  0.479500  0.789900  1.0
  H  H302  1  0.037600  0.520500  0.210100  1.0
  H  H303  1  0.894700  0.527800  0.816800  1.0
  H  H304  1  0.105300  0.472200  0.183200  1.0
  H  H305  1  0.969400  0.617200  0.775700  1.0
  H  H306  1  0.030600  0.382800  0.224300  1.0
  H  H307  1  0.042100  0.568700  0.752000  1.0
  H  H308  1  0.957900  0.431300  0.248000  1.0
  H  H309  1  0.888500  0.626100  0.829400  1.0
  H  H310  1  0.111500  0.373900  0.170600  1.0
  H  H311  1  0.846800  0.597000  0.822500  1.0
  H  H312  1  0.153200  0.403000  0.177500  1.0
  H  H313  1  0.864400  0.627100  0.791700  1.0
  H  H314  1  0.135600  0.372900  0.208300  1.0
  H  H315  1  0.099700  0.497100  0.786100  1.0
  H  H316  1  0.900300  0.502900  0.213900  1.0
  H  H317  1  0.201600  0.460400  0.778100  1.0
  H  H318  1  0.798400  0.539600  0.221900  1.0
  H  H319  1  0.250500  0.395100  0.686700  1.0
  H  H320  1  0.749500  0.604900  0.313300  1.0
  H  H321  1  0.163800  0.409100  0.671300  1.0
  H  H322  1  0.836200  0.590900  0.328700  1.0
  H  H323  1  0.565500  0.369700  0.737200  1.0
  H  H324  1  0.434500  0.630300  0.262800  1.0
  H  H325  1  0.478500  0.373300  0.723400  1.0
  H  H326  1  0.521500  0.626700  0.276600  1.0
  H  H327  1  0.424900  0.426000  0.820200  1.0
  H  H328  1  0.575100  0.574000  0.179800  1.0
  H  H329  1  0.499000  0.433200  0.862400  1.0
  H  H330  1  0.501000  0.566800  0.137600  1.0
  H  H331  1  0.565200  0.383400  0.910200  1.0
  H  H332  1  0.434800  0.616600  0.089800  1.0
  H  H333  1  0.603500  0.399100  0.961300  1.0
  H  H334  1  0.396500  0.600900  0.038700  1.0
  H  H335  1  0.644800  0.498800  0.915500  1.0
  H  H336  1  0.355200  0.501200  0.084500  1.0
  H  H337  1  0.615200  0.480900  0.860900  1.0
  H  H338  1  0.384800  0.519100  0.139100  1.0
  H  H339  1  0.688500  0.449600  0.976200  1.0
  H  H340  1  0.311500  0.550400  0.023800  1.0
  H  H341  1  0.630800  0.449900  0.998200  1.0
  H  H342  1  0.369200  0.550100  0.001800  1.0
  H  H343  1  0.645600  0.490300  0.979400  1.0
  H  H344  1  0.354400  0.509700  0.020600  1.0
  H  H345  1  0.955900  0.441400  0.649000  1.0
  H  H346  1  0.044100  0.558600  0.351000  1.0
  H  H347  1  0.873900  0.418000  0.654900  1.0
  H  H348  1  0.126100  0.582000  0.345100  1.0
  H  H349  1  0.820300  0.492300  0.739600  1.0
  H  H350  1  0.179700  0.507700  0.260400  1.0
  H  H351  1  0.903000  0.516100  0.734600  1.0
  H  H352  1  0.097000  0.483900  0.265400  1.0
  H  H353  1  0.789900  0.415900  0.727400  1.0
  H  H354  1  0.210100  0.584100  0.272600  1.0
  H  H355  1  0.788800  0.414000  0.684800  1.0
  H  H356  1  0.211200  0.586000  0.315200  1.0
  H  H357  1  0.758300  0.453000  0.707100  1.0
  H  H358  1  0.241700  0.547000  0.292900  1.0
  H  H359  1  0.958700  0.545700  0.669800  1.0
  H  H360  1  0.041300  0.454300  0.330200  1.0
  H  H361  1  0.017800  0.603300  0.656900  1.0
  H  H362  1  0.982200  0.396700  0.343100  1.0
  H  H363  1  0.175500  0.570200  0.664600  1.0
  H  H364  1  0.824500  0.429800  0.335400  1.0
  H  H365  1  0.159400  0.507500  0.683500  1.0
  H  H366  1  0.840600  0.492500  0.316500  1.0
  H  H367  1  0.235500  0.788600  0.579500  1.0
  H  H368  1  0.764500  0.211400  0.420500  1.0
  H  H369  1  0.218000  0.731600  0.611600  1.0
  H  H370  1  0.782000  0.268400  0.388400  1.0
  H  H371  1  0.064300  0.758900  0.589100  1.0
  H  H372  1  0.935700  0.241100  0.410900  1.0
  H  H373  1  0.038300  0.822800  0.551100  1.0
  H  H374  1  0.961700  0.177200  0.448900  1.0
  H  H375  1  0.040900  0.926600  0.549300  1.0
  H  H376  1  0.959100  0.073400  0.450700  1.0
  H  H377  1  0.986600  0.969700  0.514400  1.0
  H  H378  1  0.013400  0.030300  0.485600  1.0
  H  H379  1  0.000800  0.886100  0.438400  1.0
  H  H380  1  0.999200  0.113900  0.561600  1.0
  H  H381  1  0.063400  0.843400  0.469400  1.0
  H  H382  1  0.936600  0.156600  0.530600  1.0
  H  H383  1  0.969600  0.963100  0.425200  1.0
  H  H384  1  0.030400  0.036900  0.574800  1.0
  H  H385  1  0.947400  0.989200  0.460800  1.0
  H  H386  1  0.052600  0.010800  0.539200  1.0
  H  H387  1  0.920000  0.951800  0.451200  1.0
  H  H388  1  0.080000  0.048200  0.548800  1.0
  H  H389  1  0.322600  0.216300  0.278600  1.0
  H  H390  1  0.677400  0.783700  0.721400  1.0
  H  H391  1  0.301100  0.199000  0.222900  1.0
  H  H392  1  0.698900  0.801000  0.777100  1.0
  H  H393  1  0.265200  0.093500  0.262200  1.0
  H  H394  1  0.734800  0.906500  0.737800  1.0
  H  H395  1  0.271900  0.116100  0.320000  1.0
  H  H396  1  0.728100  0.883900  0.680000  1.0
  H  H397  1  0.269000  0.153000  0.183400  1.0
  H  H398  1  0.731000  0.847000  0.816600  1.0
  H  H399  1  0.247000  0.114200  0.200700  1.0
  H  H400  1  0.753000  0.885800  0.799300  1.0
  H  H401  1  0.309800  0.112300  0.189000  1.0
  H  H402  1  0.690200  0.887700  0.811000  1.0
  H  H403  1  0.384700  0.144300  0.333700  1.0
  H  H404  1  0.615300  0.855700  0.666300  1.0
  H  H405  1  0.453100  0.148100  0.382200  1.0
  H  H406  1  0.546900  0.851900  0.617800  1.0
  H  H407  1  0.397500  0.219900  0.467800  1.0
  H  H408  1  0.602500  0.780100  0.532200  1.0
  H  H409  1  0.315500  0.234100  0.445900  1.0
  H  H410  1  0.684500  0.765900  0.554100  1.0
  H  H411  1  0.719900  0.198800  0.508700  1.0
  H  H412  1  0.280100  0.801200  0.491300  1.0
  H  H413  1  0.629800  0.200900  0.502900  1.0
  H  H414  1  0.370200  0.799100  0.497100  1.0
  H  H415  1  0.669100  0.116600  0.423700  1.0
  H  H416  1  0.330900  0.883400  0.576300  1.0
  H  H417  1  0.770900  0.093800  0.403300  1.0
  H  H418  1  0.229100  0.906200  0.596700  1.0
  H  H419  1  0.897100  0.136400  0.383400  1.0
  H  H420  1  0.102900  0.863600  0.616600  1.0
  H  H421  1  0.964500  0.095900  0.345800  1.0
  H  H422  1  0.035500  0.904100  0.654200  1.0
  H  H423  1  0.914400  0.996200  0.383200  1.0
  H  H424  1  0.085600  0.003800  0.616800  1.0
  H  H425  1  0.848600  0.034800  0.424300  1.0
  H  H426  1  0.151400  0.965200  0.575700  1.0
  H  H427  1  0.015000  0.034100  0.323200  1.0
  H  H428  1  0.985000  0.965900  0.676800  1.0
  H  H429  1  0.981100  0.998000  0.324200  1.0
  H  H430  1  0.018900  0.002000  0.675800  1.0
  H  H431  1  0.020900  0.000600  0.353900  1.0
  H  H432  1  0.979100  0.999400  0.646100  1.0
  H  H433  1  0.309400  0.120000  0.420400  1.0
  H  H434  1  0.690600  0.880000  0.579600  1.0
  H  H435  1  0.319200  0.050100  0.412300  1.0
  H  H436  1  0.680800  0.949900  0.587700  1.0
  H  H437  1  0.179900  0.064800  0.367400  1.0
  H  H438  1  0.820100  0.935200  0.632600  1.0
  H  H439  1  0.170100  0.134700  0.375600  1.0
  H  H440  1  0.829900  0.865300  0.624400  1.0
  H  H441  1  0.248400  0.996000  0.364900  1.0
  H  H442  1  0.751600  0.004000  0.635100  1.0
  H  H443  1  0.221400  0.998700  0.405800  1.0
  H  H444  1  0.778600  0.001300  0.594200  1.0
  H  H445  1  0.285300  0.991500  0.397100  1.0
  H  H446  1  0.714700  0.008500  0.602900  1.0
  H  H447  1  0.186700  0.178300  0.449100  1.0
  H  H448  1  0.813300  0.821700  0.550900  1.0
  H  H449  1  0.154900  0.245600  0.486300  1.0
  H  H450  1  0.845100  0.754400  0.513700  1.0
  H  H451  1  0.202300  0.345900  0.443500  1.0
  H  H452  1  0.797700  0.654100  0.556500  1.0
  H  H453  1  0.248100  0.308200  0.394900  1.0
  H  H454  1  0.751900  0.691800  0.605100  1.0
  H  H455  1  0.098400  0.481700  0.620900  1.0
  H  H456  1  0.901600  0.518300  0.379100  1.0
  H  H457  1  0.115600  0.442900  0.568600  1.0
  H  H458  1  0.884400  0.557100  0.431400  1.0
  H  H459  1  0.064500  0.349300  0.624400  1.0
  H  H460  1  0.935500  0.650700  0.375600  1.0
  H  H461  1  0.030300  0.363000  0.692700  1.0
  H  H462  1  0.969700  0.637000  0.307300  1.0
  H  H463  1  0.932900  0.402700  0.734000  1.0
  H  H464  1  0.067100  0.597300  0.266000  1.0
  H  H465  1  0.891900  0.394400  0.792600  1.0
  H  H466  1  0.108100  0.605600  0.207400  1.0
  H  H467  1  0.033900  0.382600  0.831200  1.0
  H  H468  1  0.966100  0.617400  0.168800  1.0
  H  H469  1  0.071000  0.406600  0.775700  1.0
  H  H470  1  0.929000  0.593400  0.224300  1.0
  H  H471  1  0.964400  0.365200  0.869400  1.0
  H  H472  1  0.035600  0.634800  0.130600  1.0
  H  H473  1  0.906300  0.389200  0.863600  1.0
  H  H474  1  0.093700  0.610800  0.136400  1.0
  H  H475  1  0.924100  0.343700  0.849500  1.0
  H  H476  1  0.075900  0.656300  0.150500  1.0
  H  H477  1  0.128900  0.243400  0.389600  1.0
  H  H478  1  0.871100  0.756600  0.610400  1.0
  H  H479  1  0.047900  0.219500  0.388900  1.0
  H  H480  1  0.952100  0.780500  0.611100  1.0
  H  H481  1  0.107800  0.155300  0.298000  1.0
  H  H482  1  0.892200  0.844700  0.702000  1.0
  H  H483  1  0.183300  0.188500  0.292700  1.0
  H  H484  1  0.816700  0.811500  0.707300  1.0
  H  H485  1  0.016200  0.156500  0.319800  1.0
  H  H486  1  0.983800  0.843500  0.680200  1.0
  H  H487  1  0.987100  0.196000  0.342000  1.0
  H  H488  1  0.012900  0.804000  0.658000  1.0
  H  H489  1  0.007700  0.155500  0.362800  1.0
  H  H490  1  0.992300  0.844500  0.637200  1.0
  H  H491  1  0.198000  0.272200  0.304000  1.0
  H  H492  1  0.802000  0.727800  0.696000  1.0
  H  H493  1  0.258900  0.328300  0.288300  1.0
  H  H494  1  0.741100  0.671700  0.711700  1.0
  H  H495  1  0.390600  0.319600  0.339200  1.0
  H  H496  1  0.609400  0.680400  0.660800  1.0
  H  H497  1  0.370300  0.261600  0.367300  1.0
  H  H498  1  0.629700  0.738400  0.632700  1.0
  H  H499  1  0.451000  0.536300  0.239000  1.0
  H  H500  1  0.549000  0.463700  0.761000  1.0
  H  H501  1  0.440100  0.474400  0.264500  1.0
  H  H502  1  0.559900  0.525600  0.735500  1.0
  H  H503  1  0.295400  0.485200  0.227700  1.0
  H  H504  1  0.704600  0.514800  0.772300  1.0
  H  H505  1  0.265300  0.552500  0.193000  1.0
  H  H506  1  0.734700  0.447500  0.807000  1.0
  H  H507  1  0.295200  0.595500  0.116400  1.0
  H  H508  1  0.704800  0.404500  0.883600  1.0
  H  H509  1  0.227800  0.635800  0.088100  1.0
  H  H510  1  0.772200  0.364200  0.911900  1.0
  H  H511  1  0.170900  0.692300  0.180300  1.0
  H  H512  1  0.829100  0.307700  0.819700  1.0
  H  H513  1  0.235500  0.650900  0.211000  1.0
  H  H514  1  0.764500  0.349100  0.789000  1.0
  H  H515  1  0.152400  0.689400  0.089100  1.0
  H  H516  1  0.847600  0.310600  0.910900  1.0
  H  H517  1  0.164400  0.727500  0.110000  1.0
  H  H518  1  0.835600  0.272500  0.890000  1.0
  H  H519  1  0.121300  0.701500  0.128100  1.0
  H  H520  1  0.878700  0.298500  0.871900  1.0
  H  H521  1  0.319200  0.690300  0.128800  1.0
  H  H522  1  0.680800  0.309700  0.871200  1.0
  H  H523  1  0.351800  0.719800  0.076500  1.0
  H  H524  1  0.648200  0.280200  0.923500  1.0
  H  H525  1  0.501200  0.694700  0.105000  1.0
  H  H526  1  0.498800  0.305300  0.895000  1.0
  H  H527  1  0.468000  0.668000  0.159800  1.0
  H  H528  1  0.532000  0.332000  0.840200  1.0
  H  H529  1  0.441200  0.717800  0.029700  1.0
  H  H530  1  0.558800  0.282200  0.970300  1.0
  H  H531  1  0.490600  0.726300  0.049700  1.0
  H  H532  1  0.509400  0.273700  0.950300  1.0
  H  H533  1  0.436400  0.758400  0.052700  1.0
  H  H534  1  0.563600  0.241600  0.947300  1.0
  H  H535  1  0.339900  0.714500  0.203900  1.0
  H  H536  1  0.660100  0.285500  0.796100  1.0
  H  H537  1  0.284900  0.720600  0.268500  1.0
  H  H538  1  0.715100  0.279400  0.731500  1.0
  H  H539  1  0.290300  0.619200  0.327200  1.0
  H  H540  1  0.709700  0.380800  0.672800  1.0
  H  H541  1  0.341400  0.584100  0.279000  1.0
  H  H542  1  0.658600  0.415900  0.721000  1.0
  H  H543  1  0.183100  0.757400  0.512400  1.0
  H  H544  1  0.816900  0.242600  0.487600  1.0
  H  H545  1  0.200000  0.717000  0.461100  1.0
  H  H546  1  0.800000  0.283000  0.538900  1.0
  H  H547  1  0.201600  0.818300  0.400900  1.0
  H  H548  1  0.798400  0.181700  0.599100  1.0
  H  H549  1  0.184200  0.887400  0.435900  1.0
  H  H550  1  0.815800  0.112600  0.564100  1.0
  H  H551  1  0.113900  0.944200  0.456800  1.0
  H  H552  1  0.886100  0.055800  0.543200  1.0
  H  H553  1  0.113400  0.014100  0.455700  1.0
  H  H554  1  0.886600  0.985900  0.544300  1.0
  H  H555  1  0.234700  0.004000  0.514200  1.0
  H  H556  1  0.765300  0.996000  0.485800  1.0
  H  H557  1  0.236100  0.934100  0.517800  1.0
  H  H558  1  0.763900  0.065900  0.482200  1.0
  H  H559  1  0.205400  0.068900  0.482900  1.0
  H  H560  1  0.794600  0.931100  0.517100  1.0
  H  H561  1  0.150600  0.073800  0.509200  1.0
  H  H562  1  0.849400  0.926200  0.490800  1.0
  H  H563  1  0.149300  0.074200  0.466500  1.0
  H  H564  1  0.850700  0.925800  0.533500  1.0
  C  C565  1  0.979900  0.973800  0.240800  1.0
  C  C566  1  0.020100  0.026200  0.759200  1.0
  C  C567  1  0.949600  0.953800  0.266300  1.0
  C  C568  1  0.050400  0.046200  0.733700  1.0
  C  C569  1  0.904900  0.975000  0.285300  1.0
  C  C570  1  0.095100  0.025000  0.714700  1.0
  C  C571  1  0.886500  0.014600  0.278100  1.0
  C  C572  1  0.113500  0.985400  0.721900  1.0
  C  C573  1  0.918000  0.034900  0.255200  1.0
  C  C574  1  0.082000  0.965100  0.744800  1.0
  C  C575  1  0.963300  0.014300  0.235500  1.0
  C  C576  1  0.036700  0.985700  0.764500  1.0
  C  C577  1  0.838300  0.038600  0.301600  1.0
  C  C578  1  0.161700  0.961400  0.698400  1.0
  C  C579  1  0.070200  0.945100  0.241200  1.0
  C  C580  1  0.929800  0.054900  0.758800  1.0
  C  C581  1  0.121300  0.925900  0.223100  1.0
  C  C582  1  0.878700  0.074100  0.776900  1.0
  C  C583  1  0.170000  0.917000  0.238000  1.0
  C  C584  1  0.830000  0.083000  0.762000  1.0
  C  C585  1  0.216300  0.899500  0.216400  1.0
  C  C586  1  0.783700  0.100500  0.783600  1.0
  C  C587  1  0.212700  0.891900  0.181200  1.0
  C  C588  1  0.787300  0.108100  0.818800  1.0
  C  C589  1  0.164300  0.900700  0.167300  1.0
  C  C590  1  0.835700  0.099300  0.832700  1.0
  C  C591  1  0.267800  0.891600  0.232200  1.0
  C  C592  1  0.732200  0.108400  0.767800  1.0
  C  C593  1  0.359200  0.881100  0.256600  1.0
  C  C594  1  0.640800  0.118900  0.743400  1.0
  C  C595  1  0.508100  0.855500  0.262900  1.0
  C  C596  1  0.491900  0.144500  0.737100  1.0
  C  C597  1  0.459300  0.861100  0.248700  1.0
  C  C598  1  0.540700  0.138900  0.751300  1.0
  C  C599  1  0.412500  0.873900  0.271100  1.0
  C  C600  1  0.587500  0.126100  0.728900  1.0
  C  C601  1  0.416000  0.883800  0.306600  1.0
  C  C602  1  0.584000  0.116200  0.693400  1.0
  C  C603  1  0.465600  0.879900  0.319100  1.0
  C  C604  1  0.534400  0.120100  0.680900  1.0
  C  C605  1  0.476100  0.889500  0.355000  1.0
  C  C606  1  0.523900  0.110500  0.645000  1.0
  C  C607  1  0.536100  0.893800  0.398800  1.0
  C  C608  1  0.463900  0.106200  0.601200  1.0
  C  C609  1  0.524800  0.867100  0.425800  1.0
  C  C610  1  0.475200  0.132900  0.574200  1.0
  C  C611  1  0.537100  0.874600  0.460100  1.0
  C  C612  1  0.462900  0.125400  0.539900  1.0
  C  C613  1  0.563100  0.905600  0.466800  1.0
  C  C614  1  0.436900  0.094400  0.533200  1.0
  C  C615  1  0.574500  0.931700  0.439800  1.0
  C  C616  1  0.425500  0.068300  0.560200  1.0
  C  C617  1  0.557600  0.927600  0.405900  1.0
  C  C618  1  0.442400  0.072400  0.594100  1.0
  C  C619  1  0.564100  0.919400  0.506300  1.0
  C  C620  1  0.435900  0.080600  0.493700  1.0
  C  C621  1  0.934000  0.948300  0.147600  1.0
  C  C622  1  0.066000  0.051700  0.852400  1.0
  C  C623  1  0.930400  0.932600  0.114000  1.0
  C  C624  1  0.069600  0.067400  0.886000  1.0
  C  C625  1  0.884600  0.917700  0.107500  1.0
  C  C626  1  0.115400  0.082300  0.892500  1.0
  C  C627  1  0.842400  0.918600  0.134700  1.0
  C  C628  1  0.157600  0.081400  0.865300  1.0
  C  C629  1  0.846000  0.934300  0.168300  1.0
  C  C630  1  0.154000  0.065700  0.831700  1.0
  C  C631  1  0.891800  0.949200  0.174800  1.0
  C  C632  1  0.108200  0.050800  0.825200  1.0
  C  C633  1  0.793100  0.899200  0.128900  1.0
  C  C634  1  0.206900  0.100800  0.871100  1.0
  C  C635  1  0.982200  0.002500  0.141200  1.0
  C  C636  1  0.017800  0.997500  0.858800  1.0
  C  C637  1  0.028000  0.020300  0.146600  1.0
  C  C638  1  0.972000  0.979700  0.853400  1.0
  C  C639  1  0.037200  0.059200  0.135800  1.0
  C  C640  1  0.962800  0.940800  0.864200  1.0
  C  C641  1  0.085800  0.070600  0.141000  1.0
  C  C642  1  0.914200  0.929400  0.859000  1.0
  C  C643  1  0.124500  0.044300  0.154400  1.0
  C  C644  1  0.875500  0.955700  0.845600  1.0
  C  C645  1  0.113300  0.006900  0.164800  1.0
  C  C646  1  0.886700  0.993100  0.835200  1.0
  C  C647  1  0.096500  0.110700  0.128200  1.0
  C  C648  1  0.903500  0.889300  0.871800  1.0
  C  C649  1  0.116600  0.178900  0.104100  1.0
  C  C650  1  0.883400  0.821100  0.895900  1.0
  C  C651  1  0.192700  0.261500  0.071400  1.0
  C  C652  1  0.807300  0.738500  0.928600  1.0
  C  C653  1  0.181100  0.227200  0.089100  1.0
  C  C654  1  0.818900  0.772800  0.910900  1.0
  C  C655  1  0.131000  0.216700  0.086400  1.0
  C  C656  1  0.869000  0.783300  0.913600  1.0
  C  C657  1  0.094800  0.241300  0.067600  1.0
  C  C658  1  0.905200  0.758700  0.932400  1.0
  C  C659  1  0.108800  0.275800  0.051300  1.0
  C  C660  1  0.891200  0.724200  0.948700  1.0
  C  C661  1  0.074900  0.304600  0.031900  1.0
  C  C662  1  0.925100  0.695400  0.968100  1.0
  C  C663  1  0.062500  0.365000  0.997300  1.0
  C  C664  1  0.937500  0.635000  0.002700  1.0
  C  C665  1  0.034900  0.399400  0.013700  1.0
  C  C666  1  0.965100  0.600600  0.986300  1.0
  C  C667  1  0.005700  0.428700  0.994100  1.0
  C  C668  1  0.994300  0.571300  0.005900  1.0
  C  C669  1  0.005000  0.424400  0.958300  1.0
  C  C670  1  0.995000  0.575600  0.041700  1.0
  C  C671  1  0.033600  0.390500  0.941900  1.0
  C  C672  1  0.966400  0.609500  0.058100  1.0
  C  C673  1  0.059700  0.359100  0.961400  1.0
  C  C674  1  0.940300  0.640900  0.038600  1.0
  C  C675  1  0.976000  0.459100  0.937000  1.0
  C  C676  1  0.024000  0.540900  0.063000  1.0
  C  C677  1  0.109700  0.386100  0.087300  1.0
  C  C678  1  0.890300  0.613900  0.912700  1.0
  C  C679  1  0.072800  0.363400  0.104200  1.0
  C  C680  1  0.927200  0.636600  0.895800  1.0
  C  C681  1  0.024400  0.383000  0.121400  1.0
  C  C682  1  0.975600  0.617000  0.878600  1.0
  C  C683  1  0.014000  0.424600  0.122500  1.0
  C  C684  1  0.986000  0.575400  0.877500  1.0
  C  C685  1  0.052400  0.446600  0.107800  1.0
  C  C686  1  0.947600  0.553400  0.892200  1.0
  C  C687  1  0.100800  0.427800  0.089200  1.0
  C  C688  1  0.899200  0.572200  0.910800  1.0
  C  C689  1  0.959800  0.446900  0.141200  1.0
  C  C690  1  0.040200  0.553100  0.858800  1.0
  C  C691  1  0.203900  0.367300  0.083400  1.0
  C  C692  1  0.796100  0.632700  0.916600  1.0
  C  C693  1  0.253600  0.348000  0.064200  1.0
  C  C694  1  0.746400  0.652000  0.935800  1.0
  C  C695  1  0.303700  0.345500  0.076900  1.0
  C  C696  1  0.696300  0.654500  0.923100  1.0
  C  C697  1  0.348100  0.322900  0.056400  1.0
  C  C698  1  0.651900  0.677100  0.943600  1.0
  C  C699  1  0.340600  0.305000  0.026100  1.0
  C  C700  1  0.659400  0.695000  0.973900  1.0
  C  C701  1  0.290800  0.307000  0.014700  1.0
  C  C702  1  0.709200  0.693000  0.985300  1.0
  C  C703  1  0.401100  0.320400  0.069800  1.0
  C  C704  1  0.598900  0.679600  0.930200  1.0
  C  C705  1  0.491300  0.309000  0.094800  1.0
  C  C706  1  0.508700  0.691000  0.905200  1.0
  C  C707  1  0.632600  0.265200  0.110400  1.0
  C  C708  1  0.367400  0.734800  0.889600  1.0
  C  C709  1  0.587400  0.274000  0.092600  1.0
  C  C710  1  0.412600  0.726000  0.907400  1.0
  C  C711  1  0.543300  0.297900  0.110600  1.0
  C  C712  1  0.456700  0.702100  0.889400  1.0
  C  C713  1  0.545500  0.313200  0.144800  1.0
  C  C714  1  0.454500  0.686800  0.855200  1.0
  C  C715  1  0.592900  0.303300  0.160100  1.0
  C  C716  1  0.407100  0.696700  0.839900  1.0
  C  C717  1  0.601200  0.313900  0.195700  1.0
  C  C718  1  0.398800  0.686100  0.804300  1.0
  C  C719  1  0.652000  0.312300  0.245100  1.0
  C  C720  1  0.348000  0.687700  0.754900  1.0
  C  C721  1  0.650900  0.284800  0.272600  1.0
  C  C722  1  0.349100  0.715200  0.727400  1.0
  C  C723  1  0.659200  0.297300  0.306400  1.0
  C  C724  1  0.340800  0.702700  0.693600  1.0
  C  C725  1  0.667500  0.335100  0.313200  1.0
  C  C726  1  0.332500  0.664900  0.686800  1.0
  C  C727  1  0.666800  0.361800  0.285800  1.0
  C  C728  1  0.333200  0.638200  0.714200  1.0
  C  C729  1  0.660200  0.350300  0.251300  1.0
  C  C730  1  0.339800  0.649700  0.748700  1.0
  C  C731  1  0.681500  0.347700  0.350300  1.0
  C  C732  1  0.318500  0.652300  0.649700  1.0
  C  C733  1  0.797300  0.268600  0.213400  1.0
  C  C734  1  0.202700  0.731400  0.786600  1.0
  C  C735  1  0.840800  0.266400  0.187300  1.0
  C  C736  1  0.159200  0.733600  0.812700  1.0
  C  C737  1  0.882100  0.286800  0.191600  1.0
  C  C738  1  0.117900  0.713200  0.808400  1.0
  C  C739  1  0.878900  0.312200  0.220500  1.0
  C  C740  1  0.121100  0.687800  0.779500  1.0
  C  C741  1  0.835700  0.316200  0.246300  1.0
  C  C742  1  0.164300  0.683800  0.753700  1.0
  C  C743  1  0.794400  0.294300  0.242300  1.0
  C  C744  1  0.205600  0.705700  0.757700  1.0
  C  C745  1  0.923800  0.337300  0.223600  1.0
  C  C746  1  0.076200  0.662700  0.776400  1.0
  C  C747  1  0.746800  0.215900  0.224000  1.0
  C  C748  1  0.253200  0.784100  0.776000  1.0
  C  C749  1  0.702500  0.195900  0.218800  1.0
  C  C750  1  0.297500  0.804100  0.781200  1.0
  C  C751  1  0.690900  0.160600  0.236200  1.0
  C  C752  1  0.309100  0.839400  0.763800  1.0
  C  C753  1  0.644500  0.146800  0.228900  1.0
  C  C754  1  0.355500  0.853200  0.771100  1.0
  C  C755  1  0.612000  0.168300  0.206800  1.0
  C  C756  1  0.388000  0.831700  0.793200  1.0
  C  C757  1  0.623400  0.203800  0.190800  1.0
  C  C758  1  0.376600  0.796200  0.809200  1.0
  C  C759  1  0.632400  0.108500  0.246100  1.0
  C  C760  1  0.367600  0.891500  0.753900  1.0
  C  C761  1  0.611900  0.040800  0.271000  1.0
  C  C762  1  0.388100  0.959200  0.729000  1.0
  C  C763  1  0.546900  0.948300  0.287900  1.0
  C  C764  1  0.453100  0.051700  0.712100  1.0
  C  C765  1  0.554600  0.986400  0.277100  1.0
  C  C766  1  0.445400  0.013600  0.722900  1.0
  C  C767  1  0.600000  0.000500  0.284600  1.0
  C  C768  1  0.400000  0.999500  0.715400  1.0
  C  C769  1  0.635700  0.976200  0.304000  1.0
  C  C770  1  0.364300  0.023800  0.696000  1.0
  C  C771  1  0.625400  0.938400  0.315300  1.0
  C  C772  1  0.374600  0.061600  0.684700  1.0
  C  C773  1  0.658100  0.908800  0.334600  1.0
  C  C774  1  0.341900  0.091200  0.665400  1.0
  C  C775  1  0.679000  0.845800  0.362200  1.0
  C  C776  1  0.321000  0.154200  0.637800  1.0
  C  C777  1  0.668100  0.840600  0.398600  1.0
  C  C778  1  0.331900  0.159400  0.601400  1.0
  C  C779  1  0.702500  0.812300  0.415800  1.0
  C  C780  1  0.297500  0.187700  0.584200  1.0
  C  C781  1  0.747400  0.791500  0.398000  1.0
  C  C782  1  0.252600  0.208500  0.602000  1.0
  C  C783  1  0.757900  0.797600  0.362300  1.0
  C  C784  1  0.242100  0.202400  0.637700  1.0
  C  C785  1  0.722700  0.823500  0.343300  1.0
  C  C786  1  0.277300  0.176500  0.656700  1.0
  C  C787  1  0.784900  0.757800  0.416500  1.0
  C  C788  1  0.215100  0.242200  0.583500  1.0
  C  C789  1  0.272800  0.650900  0.844500  1.0
  C  C790  1  0.727200  0.349100  0.155500  1.0
  C  C791  1  0.232500  0.633700  0.832100  1.0
  C  C792  1  0.767500  0.366300  0.167900  1.0
  C  C793  1  0.238200  0.592600  0.825900  1.0
  C  C794  1  0.761800  0.407400  0.174100  1.0
  C  C795  1  0.286600  0.568500  0.829600  1.0
  C  C796  1  0.713400  0.431500  0.170400  1.0
  C  C797  1  0.325000  0.584000  0.845800  1.0
  C  C798  1  0.675000  0.416000  0.154200  1.0
  C  C799  1  0.320400  0.625600  0.850300  1.0
  C  C800  1  0.679600  0.374400  0.149700  1.0
  C  C801  1  0.292500  0.521900  0.826000  1.0
  C  C802  1  0.707500  0.478100  0.174000  1.0
  C  C803  1  0.234700  0.707900  0.880800  1.0
  C  C804  1  0.765300  0.292100  0.119200  1.0
  C  C805  1  0.230900  0.749600  0.889900  1.0
  C  C806  1  0.769100  0.250400  0.110100  1.0
  C  C807  1  0.198100  0.769700  0.919200  1.0
  C  C808  1  0.801900  0.230300  0.080800  1.0
  C  C809  1  0.197400  0.811200  0.923500  1.0
  C  C810  1  0.802600  0.188800  0.076500  1.0
  C  C811  1  0.227900  0.830500  0.899700  1.0
  C  C812  1  0.772100  0.169500  0.100300  1.0
  C  C813  1  0.257800  0.810100  0.870500  1.0
  C  C814  1  0.742200  0.189900  0.129500  1.0
  C  C815  1  0.170700  0.831000  0.957500  1.0
  C  C816  1  0.829300  0.169000  0.042500  1.0
  C  C817  1  0.122400  0.867800  0.015000  1.0
  C  C818  1  0.877600  0.132200  0.985000  1.0
  C  C819  1  0.095300  0.940900  0.093300  1.0
  C  C820  1  0.904700  0.059100  0.906700  1.0
  C  C821  1  0.113600  0.924400  0.059500  1.0
  C  C822  1  0.886400  0.075600  0.940500  1.0
  C  C823  1  0.105800  0.885900  0.052100  1.0
  C  C824  1  0.894200  0.114100  0.947900  1.0
  C  C825  1  0.079500  0.865500  0.078600  1.0
  C  C826  1  0.920500  0.134500  0.921400  1.0
  C  C827  1  0.065900  0.881500  0.113100  1.0
  C  C828  1  0.934100  0.118500  0.886900  1.0
  C  C829  1  0.041100  0.862400  0.143700  1.0
  C  C830  1  0.958900  0.137600  0.856300  1.0
  C  C831  1  0.002600  0.863500  0.204100  1.0
  C  C832  1  0.997400  0.136500  0.795900  1.0
  C  C833  1  0.031500  0.852300  0.232600  1.0
  C  C834  1  0.968500  0.147700  0.767400  1.0
  C  C835  1  0.006900  0.832900  0.261100  1.0
  C  C836  1  0.993100  0.167100  0.738900  1.0
  C  C837  1  0.954700  0.829100  0.263900  1.0
  C  C838  1  0.045300  0.170900  0.736100  1.0
  C  C839  1  0.928900  0.837300  0.234500  1.0
  C  C840  1  0.071100  0.162700  0.765500  1.0
  C  C841  1  0.951900  0.855300  0.204200  1.0
  C  C842  1  0.048100  0.144700  0.795800  1.0
  C  C843  1  0.927700  0.810600  0.298500  1.0
  C  C844  1  0.072300  0.189400  0.701500  1.0
  C  C845  1  0.179000  0.421500  0.998800  1.0
  C  C846  1  0.821000  0.578500  0.001200  1.0
  C  C847  1  0.216300  0.434000  0.018800  1.0
  C  C848  1  0.783700  0.566000  0.981200  1.0
  C  C849  1  0.215300  0.474900  0.024600  1.0
  C  C850  1  0.784700  0.525100  0.975400  1.0
  C  C851  1  0.175600  0.502800  0.013000  1.0
  C  C852  1  0.824400  0.497200  0.987000  1.0
  C  C853  1  0.139300  0.490500  0.992500  1.0
  C  C854  1  0.860700  0.509500  0.007500  1.0
  C  C855  1  0.138900  0.449900  0.987700  1.0
  C  C856  1  0.861100  0.550100  0.012300  1.0
  C  C857  1  0.173300  0.548600  0.018300  1.0
  C  C858  1  0.826700  0.451400  0.981700  1.0
  C  C859  1  0.194000  0.367400  0.957400  1.0
  C  C860  1  0.806000  0.632600  0.042600  1.0
  C  C861  1  0.200500  0.324900  0.949300  1.0
  C  C862  1  0.799500  0.675100  0.050700  1.0
  C  C863  1  0.213100  0.306800  0.915200  1.0
  C  C864  1  0.786900  0.693200  0.084800  1.0
  C  C865  1  0.219800  0.265200  0.911200  1.0
  C  C866  1  0.780200  0.734800  0.088800  1.0
  C  C867  1  0.207100  0.243700  0.941100  1.0
  C  C868  1  0.792900  0.756300  0.058900  1.0
  C  C869  1  0.195200  0.261400  0.974900  1.0
  C  C870  1  0.804800  0.738600  0.025100  1.0
  C  C871  1  0.238900  0.246100  0.875700  1.0
  C  C872  1  0.761100  0.753900  0.124300  1.0
  C  C873  1  0.280800  0.211200  0.816600  1.0
  C  C874  1  0.719200  0.788800  0.183400  1.0
  C  C875  1  0.355600  0.130800  0.751400  1.0
  C  C876  1  0.644400  0.869200  0.248600  1.0
  C  C877  1  0.324800  0.148600  0.781500  1.0
  C  C878  1  0.675200  0.851400  0.218500  1.0
  C  C879  1  0.312500  0.190400  0.783700  1.0
  C  C880  1  0.687500  0.809600  0.216300  1.0
  C  C881  1  0.331400  0.213700  0.755800  1.0
  C  C882  1  0.668600  0.786300  0.244200  1.0
  C  C883  1  0.361500  0.194200  0.725800  1.0
  C  C884  1  0.638500  0.805800  0.274200  1.0
  C  C885  1  0.385100  0.213600  0.694800  1.0
  C  C886  1  0.614900  0.786400  0.305200  1.0
  C  C887  1  0.438700  0.212600  0.638200  1.0
  C  C888  1  0.561300  0.787400  0.361800  1.0
  C  C889  1  0.406300  0.233700  0.614500  1.0
  C  C890  1  0.593700  0.766300  0.385500  1.0
  C  C891  1  0.431200  0.251500  0.585300  1.0
  C  C892  1  0.568800  0.748500  0.414700  1.0
  C  C893  1  0.485200  0.251200  0.580400  1.0
  C  C894  1  0.514800  0.748800  0.419600  1.0
  C  C895  1  0.515600  0.232500  0.605100  1.0
  C  C896  1  0.484400  0.767500  0.394900  1.0
  C  C897  1  0.493200  0.212400  0.634500  1.0
  C  C898  1  0.506800  0.787600  0.365500  1.0
  C  C899  1  0.511600  0.271200  0.547000  1.0
  C  C900  1  0.488400  0.728800  0.453000  1.0
  C  C901  1  0.008300  0.519400  0.767100  1.0
  C  C902  1  0.991700  0.480600  0.232900  1.0
  C  C903  1  0.964300  0.507300  0.786900  1.0
  C  C904  1  0.035700  0.492700  0.213100  1.0
  C  C905  1  0.923600  0.536200  0.802000  1.0
  C  C906  1  0.076400  0.463800  0.198000  1.0
  C  C907  1  0.923200  0.576900  0.796500  1.0
  C  C908  1  0.076800  0.423100  0.203500  1.0
  C  C909  1  0.967800  0.589200  0.778400  1.0
  C  C910  1  0.032200  0.410800  0.221600  1.0
  C  C911  1  0.010900  0.560300  0.764000  1.0
  C  C912  1  0.989100  0.439700  0.236000  1.0
  C  C913  1  0.876500  0.609800  0.811400  1.0
  C  C914  1  0.123500  0.390200  0.188600  1.0
  C  C915  1  0.097000  0.484600  0.763900  1.0
  C  C916  1  0.903000  0.515400  0.236100  1.0
  C  C917  1  0.142600  0.459100  0.744900  1.0
  C  C918  1  0.857400  0.540900  0.255100  1.0
  C  C919  1  0.194300  0.450400  0.755900  1.0
  C  C920  1  0.805700  0.549600  0.244100  1.0
  C  C921  1  0.234700  0.426500  0.733300  1.0
  C  C922  1  0.765300  0.573500  0.266700  1.0
  C  C923  1  0.223400  0.411500  0.702100  1.0
  C  C924  1  0.776600  0.588500  0.297900  1.0
  C  C925  1  0.171500  0.420300  0.692900  1.0
  C  C926  1  0.828500  0.579700  0.307100  1.0
  C  C927  1  0.289800  0.420600  0.743800  1.0
  C  C928  1  0.710200  0.579400  0.256200  1.0
  C  C929  1  0.385700  0.406800  0.761100  1.0
  C  C930  1  0.614300  0.593200  0.238900  1.0
  C  C931  1  0.536800  0.380800  0.754600  1.0
  C  C932  1  0.463200  0.619200  0.245400  1.0
  C  C933  1  0.484800  0.383300  0.745900  1.0
  C  C934  1  0.515200  0.616700  0.254100  1.0
  C  C935  1  0.442300  0.400200  0.770200  1.0
  C  C936  1  0.557700  0.599800  0.229800  1.0
  C  C937  1  0.453300  0.414000  0.803000  1.0
  C  C938  1  0.546700  0.586000  0.197000  1.0
  C  C939  1  0.506300  0.410100  0.810500  1.0
  C  C940  1  0.493700  0.589900  0.189500  1.0
  C  C941  1  0.524500  0.422200  0.843000  1.0
  C  C942  1  0.475500  0.577800  0.157000  1.0
  C  C943  1  0.590700  0.429400  0.880300  1.0
  C  C944  1  0.409300  0.570600  0.119700  1.0
  C  C945  1  0.583700  0.405700  0.910400  1.0
  C  C946  1  0.416300  0.594300  0.089600  1.0
  C  C947  1  0.605200  0.416100  0.940800  1.0
  C  C948  1  0.394800  0.583900  0.059200  1.0
  C  C949  1  0.628500  0.449500  0.942600  1.0
  C  C950  1  0.371500  0.550500  0.057400  1.0
  C  C951  1  0.630800  0.474400  0.913800  1.0
  C  C952  1  0.369200  0.525600  0.086200  1.0
  C  C953  1  0.612500  0.464200  0.881500  1.0
  C  C954  1  0.387500  0.535800  0.118500  1.0
  C  C955  1  0.650400  0.460900  0.977300  1.0
  C  C956  1  0.349600  0.539100  0.022700  1.0
  C  C957  1  0.937500  0.479200  0.692700  1.0
  C  C958  1  0.062500  0.520800  0.307300  1.0
  C  C959  1  0.928900  0.451000  0.668000  1.0
  C  C960  1  0.071100  0.549000  0.332000  1.0
  C  C961  1  0.880300  0.437200  0.671600  1.0
  C  C962  1  0.119700  0.562800  0.328400  1.0
  C  C963  1  0.840900  0.451000  0.699400  1.0
  C  C964  1  0.159100  0.549000  0.300600  1.0
  C  C965  1  0.848400  0.481100  0.721900  1.0
  C  C966  1  0.151600  0.518900  0.278100  1.0
  C  C967  1  0.897500  0.495600  0.718900  1.0
  C  C968  1  0.102500  0.504400  0.281100  1.0
  C  C969  1  0.789800  0.431800  0.705200  1.0
  C  C970  1  0.210200  0.568200  0.294800  1.0
  C  C971  1  0.990200  0.529700  0.676700  1.0
  C  C972  1  0.009800  0.470300  0.323300  1.0
  C  C973  1  0.039900  0.544900  0.673400  1.0
  C  C974  1  0.960100  0.455100  0.326600  1.0
  C  C975  1  0.047200  0.583800  0.662600  1.0
  C  C976  1  0.952800  0.416200  0.337400  1.0
  C  C977  1  0.099000  0.593400  0.660200  1.0
  C  C978  1  0.901000  0.406600  0.339800  1.0
  C  C979  1  0.139900  0.564600  0.667300  1.0
  C  C980  1  0.860100  0.435400  0.332700  1.0
  C  C981  1  0.129900  0.527100  0.678300  1.0
  C  C982  1  0.870100  0.472900  0.321700  1.0
  C  C983  1  0.107200  0.633700  0.647600  1.0
  C  C984  1  0.892800  0.366300  0.352400  1.0
  C  C985  1  0.125400  0.702100  0.622800  1.0
  C  C986  1  0.874600  0.297900  0.377200  1.0
  C  C987  1  0.200600  0.781800  0.581000  1.0
  C  C988  1  0.799400  0.218200  0.419000  1.0
  C  C989  1  0.190500  0.748000  0.600500  1.0
  C  C990  1  0.809500  0.252000  0.399500  1.0
  C  C991  1  0.139000  0.738800  0.603300  1.0
  C  C992  1  0.861000  0.261200  0.396700  1.0
  C  C993  1  0.099800  0.764600  0.587400  1.0
  C  C994  1  0.900200  0.235400  0.412600  1.0
  C  C995  1  0.112000  0.798500  0.569300  1.0
  C  C996  1  0.888000  0.201500  0.430700  1.0
  C  C997  1  0.075000  0.825600  0.550100  1.0
  C  C998  1  0.925000  0.174400  0.449900  1.0
  C  C999  1  0.058800  0.881400  0.511500  1.0
  C  C1000  1  0.941200  0.118600  0.488500  1.0
  C  C1001  1  0.035200  0.918700  0.526000  1.0
  C  C1002  1  0.964800  0.081300  0.474000  1.0
  C  C1003  1  0.002900  0.943800  0.505000  1.0
  C  C1004  1  0.997100  0.056200  0.495000  1.0
  C  C1005  1  0.993200  0.933500  0.471800  1.0
  C  C1006  1  0.006800  0.066500  0.528200  1.0
  C  C1007  1  0.011900  0.895300  0.459800  1.0
  C  C1008  1  0.988100  0.104700  0.540200  1.0
  C  C1009  1  0.047400  0.869200  0.478900  1.0
  C  C1010  1  0.952600  0.130800  0.521100  1.0
  C  C1011  1  0.954000  0.962000  0.450300  1.0
  C  C1012  1  0.046000  0.038000  0.549700  1.0
  C  C1013  1  0.303900  0.165600  0.304000  1.0
  C  C1014  1  0.696100  0.834400  0.696000  1.0
  C  C1015  1  0.310300  0.191600  0.275400  1.0
  C  C1016  1  0.689700  0.808400  0.724600  1.0
  C  C1017  1  0.298700  0.180800  0.242400  1.0
  C  C1018  1  0.701300  0.819200  0.757600  1.0
  C  C1019  1  0.283500  0.144100  0.236900  1.0
  C  C1020  1  0.716500  0.855900  0.763100  1.0
  C  C1021  1  0.275400  0.119000  0.265700  1.0
  C  C1022  1  0.724600  0.881000  0.734300  1.0
  C  C1023  1  0.282200  0.131400  0.299600  1.0
  C  C1024  1  0.717800  0.868600  0.700400  1.0
  C  C1025  1  0.276700  0.129600  0.199000  1.0
  C  C1026  1  0.723300  0.870400  0.801000  1.0
  C  C1027  1  0.359900  0.162300  0.349200  1.0
  C  C1028  1  0.640100  0.837700  0.650800  1.0
  C  C1029  1  0.373500  0.173600  0.383500  1.0
  C  C1030  1  0.626500  0.826400  0.616500  1.0
  C  C1031  1  0.424500  0.165200  0.395800  1.0
  C  C1032  1  0.575500  0.834800  0.604200  1.0
  C  C1033  1  0.432200  0.182300  0.428000  1.0
  C  C1034  1  0.567800  0.817700  0.572000  1.0
  C  C1035  1  0.392400  0.207900  0.445900  1.0
  C  C1036  1  0.607600  0.792100  0.554100  1.0
  C  C1037  1  0.343800  0.216800  0.432200  1.0
  C  C1038  1  0.656200  0.783200  0.567800  1.0
  C  C1039  1  0.485600  0.171400  0.440800  1.0
  C  C1040  1  0.514400  0.828600  0.559200  1.0
  C  C1041  1  0.581300  0.161000  0.458000  1.0
  C  C1042  1  0.418700  0.839000  0.542000  1.0
  C  C1043  1  0.709600  0.182600  0.491000  1.0
  C  C1044  1  0.290400  0.817400  0.509000  1.0
  C  C1045  1  0.656000  0.183800  0.487500  1.0
  C  C1046  1  0.344000  0.816200  0.512500  1.0
  C  C1047  1  0.639800  0.160400  0.462000  1.0
  C  C1048  1  0.360200  0.839600  0.538000  1.0
  C  C1049  1  0.678900  0.134400  0.440300  1.0
  C  C1050  1  0.321100  0.865600  0.559700  1.0
  C  C1051  1  0.732100  0.135400  0.443800  1.0
  C  C1052  1  0.267900  0.864600  0.556200  1.0
  C  C1053  1  0.776500  0.110500  0.422300  1.0
  C  C1054  1  0.223500  0.889500  0.577700  1.0
  C  C1055  1  0.869300  0.088600  0.408800  1.0
  C  C1056  1  0.130700  0.911400  0.591200  1.0
  C  C1057  1  0.901700  0.107800  0.384800  1.0
  C  C1058  1  0.098300  0.892200  0.615200  1.0
  C  C1059  1  0.941700  0.083200  0.362500  1.0
  C  C1060  1  0.058300  0.916800  0.637500  1.0
  C  C1061  1  0.949500  0.042400  0.363500  1.0
  C  C1062  1  0.050500  0.957600  0.636500  1.0
  C  C1063  1  0.912900  0.024600  0.384600  1.0
  C  C1064  1  0.087100  0.975400  0.615400  1.0
  C  C1065  1  0.872700  0.047600  0.408600  1.0
  C  C1066  1  0.127300  0.952400  0.591400  1.0
  C  C1067  1  0.995900  0.016300  0.338900  1.0
  C  C1068  1  0.004100  0.983700  0.661100  1.0
  C  C1069  1  0.238800  0.133900  0.398800  1.0
  C  C1070  1  0.761200  0.866100  0.601200  1.0
  C  C1071  1  0.283100  0.108800  0.409700  1.0
  C  C1072  1  0.716900  0.891200  0.590300  1.0
  C  C1073  1  0.289000  0.067300  0.404800  1.0
  C  C1074  1  0.711000  0.932700  0.595200  1.0
  C  C1075  1  0.250500  0.050900  0.389100  1.0
  C  C1076  1  0.749500  0.949100  0.610900  1.0
  C  C1077  1  0.206200  0.076000  0.378200  1.0
  C  C1078  1  0.793800  0.924000  0.621800  1.0
  C  C1079  1  0.200300  0.117500  0.383100  1.0
  C  C1080  1  0.799700  0.882500  0.616900  1.0
  C  C1081  1  0.251500  0.005200  0.389200  1.0
  C  C1082  1  0.748500  0.994800  0.610800  1.0
  C  C1083  1  0.205200  0.194200  0.432300  1.0
  C  C1084  1  0.794800  0.805800  0.567700  1.0
  C  C1085  1  0.202800  0.236400  0.438300  1.0
  C  C1086  1  0.797200  0.763600  0.561700  1.0
  C  C1087  1  0.174500  0.258600  0.467800  1.0
  C  C1088  1  0.825500  0.741400  0.532200  1.0
  C  C1089  1  0.175400  0.299400  0.469800  1.0
  C  C1090  1  0.824600  0.700600  0.530200  1.0
  C  C1091  1  0.202300  0.317600  0.442700  1.0
  C  C1092  1  0.797700  0.682400  0.557300  1.0
  C  C1093  1  0.229800  0.295000  0.413900  1.0
  C  C1094  1  0.770200  0.705000  0.586100  1.0
  C  C1095  1  0.150900  0.322700  0.502100  1.0
  C  C1096  1  0.849100  0.677300  0.497900  1.0
  C  C1097  1  0.107200  0.365800  0.557700  1.0
  C  C1098  1  0.892800  0.634200  0.442300  1.0
  C  C1099  1  0.091400  0.454800  0.621600  1.0
  C  C1100  1  0.908600  0.545200  0.378400  1.0
  C  C1101  1  0.102200  0.431700  0.590600  1.0
  C  C1102  1  0.897800  0.568300  0.409400  1.0
  C  C1103  1  0.093500  0.391700  0.591600  1.0
  C  C1104  1  0.906500  0.608300  0.408400  1.0
  C  C1105  1  0.071900  0.376100  0.623500  1.0
  C  C1106  1  0.928100  0.623900  0.376500  1.0
  C  C1107  1  0.061300  0.400500  0.654100  1.0
  C  C1108  1  0.938700  0.599500  0.345900  1.0
  C  C1109  1  0.039900  0.389000  0.689000  1.0
  C  C1110  1  0.960100  0.611000  0.311000  1.0
  C  C1111  1  0.006500  0.403700  0.749900  1.0
  C  C1112  1  0.993500  0.596300  0.250100  1.0
  C  C1113  1  0.953100  0.400300  0.754000  1.0
  C  C1114  1  0.046900  0.599700  0.246000  1.0
  C  C1115  1  0.929600  0.393300  0.788400  1.0
  C  C1116  1  0.070400  0.606700  0.211600  1.0
  C  C1117  1  0.959700  0.385000  0.816100  1.0
  C  C1118  1  0.040300  0.615000  0.183900  1.0
  C  C1119  1  0.012800  0.388400  0.811800  1.0
  C  C1120  1  0.987200  0.611600  0.188200  1.0
  C  C1121  1  0.035600  0.400600  0.778400  1.0
  C  C1122  1  0.964400  0.599400  0.221600  1.0
  C  C1123  1  0.936500  0.369300  0.853100  1.0
  C  C1124  1  0.063500  0.630700  0.146900  1.0
  C  C1125  1  0.163400  0.218400  0.340900  1.0
  C  C1126  1  0.836600  0.781600  0.659100  1.0
  C  C1127  1  0.123500  0.227200  0.370100  1.0
  C  C1128  1  0.876500  0.772800  0.629900  1.0
  C  C1129  1  0.076200  0.212100  0.370200  1.0
  C  C1130  1  0.923800  0.787900  0.629800  1.0
  C  C1131  1  0.070100  0.185900  0.343100  1.0
  C  C1132  1  0.929900  0.814100  0.656900  1.0
  C  C1133  1  0.111000  0.174900  0.315300  1.0
  C  C1134  1  0.889000  0.825100  0.684700  1.0
  C  C1135  1  0.157000  0.193200  0.313000  1.0
  C  C1136  1  0.843000  0.806800  0.687000  1.0
  C  C1137  1  0.015300  0.172200  0.341800  1.0
  C  C1138  1  0.984700  0.827800  0.658200  1.0
  C  C1139  1  0.222400  0.262500  0.320700  1.0
  C  C1140  1  0.777600  0.737500  0.679300  1.0
  C  C1141  1  0.269800  0.280000  0.322700  1.0
  C  C1142  1  0.730200  0.720000  0.677300  1.0
  C  C1143  1  0.282300  0.314500  0.304200  1.0
  C  C1144  1  0.717700  0.685500  0.695800  1.0
  C  C1145  1  0.329400  0.328000  0.309600  1.0
  C  C1146  1  0.670600  0.672000  0.690400  1.0
  C  C1147  1  0.359800  0.309300  0.334000  1.0
  C  C1148  1  0.640200  0.690700  0.666000  1.0
  C  C1149  1  0.346600  0.275300  0.351600  1.0
  C  C1150  1  0.653400  0.724700  0.648400  1.0
  C  C1151  1  0.342200  0.365200  0.290800  1.0
  C  C1152  1  0.657800  0.634800  0.709200  1.0
  C  C1153  1  0.360600  0.432000  0.261600  1.0
  C  C1154  1  0.639400  0.568000  0.738400  1.0
  C  C1155  1  0.419300  0.525800  0.236400  1.0
  C  C1156  1  0.580700  0.474200  0.763600  1.0
  C  C1157  1  0.413400  0.488600  0.251100  1.0
  C  C1158  1  0.586600  0.511400  0.748900  1.0
  C  C1159  1  0.368600  0.472300  0.246100  1.0
  C  C1160  1  0.631400  0.527700  0.753900  1.0
  C  C1161  1  0.328100  0.494800  0.229200  1.0
  C  C1162  1  0.671900  0.505200  0.770800  1.0
  C  C1163  1  0.336300  0.531800  0.214600  1.0
  C  C1164  1  0.663700  0.468200  0.785400  1.0
  C  C1165  1  0.298800  0.559500  0.196800  1.0
  C  C1166  1  0.701200  0.440500  0.803200  1.0
  C  C1167  1  0.272800  0.620900  0.165900  1.0
  C  C1168  1  0.727200  0.379100  0.834100  1.0
  C  C1169  1  0.270600  0.615800  0.129600  1.0
  C  C1170  1  0.729400  0.384200  0.870400  1.0
  C  C1171  1  0.232000  0.640800  0.112500  1.0
  C  C1172  1  0.768000  0.359200  0.887500  1.0
  C  C1173  1  0.200400  0.672500  0.130700  1.0
  C  C1174  1  0.799600  0.327500  0.869300  1.0
  C  C1175  1  0.198300  0.673900  0.167100  1.0
  C  C1176  1  0.801700  0.326100  0.832900  1.0
  C  C1177  1  0.235800  0.648700  0.185600  1.0
  C  C1178  1  0.764200  0.351300  0.814400  1.0
  C  C1179  1  0.155400  0.700300  0.112800  1.0
  C  C1180  1  0.844600  0.299700  0.887200  1.0
  C  C1181  1  0.390400  0.677400  0.149500  1.0
  C  C1182  1  0.609600  0.322600  0.850500  1.0
  C  C1183  1  0.356300  0.691800  0.124300  1.0
  C  C1184  1  0.643700  0.308200  0.875700  1.0
  C  C1185  1  0.375700  0.708200  0.092900  1.0
  C  C1186  1  0.624300  0.291800  0.907100  1.0
  C  C1187  1  0.429900  0.708000  0.085000  1.0
  C  C1188  1  0.570100  0.292000  0.915000  1.0
  C  C1189  1  0.464000  0.693800  0.110000  1.0
  C  C1190  1  0.536000  0.306200  0.890000  1.0
  C  C1191  1  0.444400  0.678000  0.142600  1.0
  C  C1192  1  0.555600  0.322000  0.857400  1.0
  C  C1193  1  0.451500  0.729600  0.051200  1.0
  C  C1194  1  0.548500  0.270400  0.948800  1.0
  C  C1195  1  0.345200  0.686200  0.208100  1.0
  C  C1196  1  0.654800  0.313800  0.791900  1.0
  C  C1197  1  0.326200  0.670300  0.242100  1.0
  C  C1198  1  0.673800  0.329700  0.757900  1.0
  C  C1199  1  0.297100  0.692500  0.271100  1.0
  C  C1200  1  0.702900  0.307500  0.728900  1.0
  C  C1201  1  0.285600  0.673800  0.304000  1.0
  C  C1202  1  0.714400  0.326200  0.696000  1.0
  C  C1203  1  0.300000  0.633200  0.305800  1.0
  C  C1204  1  0.700000  0.366800  0.694200  1.0
  C  C1205  1  0.329100  0.612100  0.276400  1.0
  C  C1206  1  0.670900  0.387900  0.723600  1.0
  C  C1207  1  0.257100  0.698400  0.335100  1.0
  C  C1208  1  0.742900  0.301600  0.664900  1.0
  C  C1209  1  0.217100  0.739800  0.391500  1.0
  C  C1210  1  0.782900  0.260200  0.608500  1.0
  C  C1211  1  0.186600  0.770000  0.489600  1.0
  C  C1212  1  0.813400  0.230000  0.510400  1.0
  C  C1213  1  0.196500  0.745500  0.459100  1.0
  C  C1214  1  0.803500  0.254500  0.540900  1.0
  C  C1215  1  0.201100  0.763700  0.425800  1.0
  C  C1216  1  0.798900  0.236300  0.574200  1.0
  C  C1217  1  0.197100  0.805700  0.423600  1.0
  C  C1218  1  0.802900  0.194300  0.576400  1.0
  C  C1219  1  0.186300  0.828600  0.455200  1.0
  C  C1220  1  0.813700  0.171400  0.544800  1.0
  C  C1221  1  0.182900  0.871800  0.457300  1.0
  C  C1222  1  0.817100  0.128200  0.542700  1.0
  C  C1223  1  0.174600  0.933300  0.488300  1.0
  C  C1224  1  0.825400  0.066700  0.511700  1.0
  C  C1225  1  0.138100  0.956000  0.469200  1.0
  C  C1226  1  0.861900  0.044000  0.530800  1.0
  C  C1227  1  0.138300  0.997600  0.468900  1.0
  C  C1228  1  0.861700  0.002400  0.531100  1.0
  C  C1229  1  0.171700  0.016000  0.486200  1.0
  C  C1230  1  0.828300  0.984000  0.513800  1.0
  C  C1231  1  0.209000  0.992200  0.503300  1.0
  C  C1232  1  0.791000  0.007800  0.496700  1.0
  C  C1233  1  0.210400  0.950500  0.505000  1.0
  C  C1234  1  0.789600  0.049500  0.495000  1.0
  C  C1235  1  0.169000  0.062500  0.486200  1.0
  C  C1236  1  0.831000  0.937500  0.513800  1.0
  N  N1237  1  0.031200  0.953000  0.222300  1.0
  N  N1238  1  0.968800  0.047000  0.777700  1.0
  N  N1239  1  0.119500  0.917800  0.187700  1.0
  N  N1240  1  0.880500  0.082200  0.812300  1.0
  N  N1241  1  0.311600  0.879300  0.208900  1.0
  N  N1242  1  0.688400  0.120700  0.791100  1.0
  N  N1243  1  0.359400  0.871600  0.222100  1.0
  N  N1244  1  0.640600  0.128400  0.777900  1.0
  N  N1245  1  0.268500  0.902500  0.265600  1.0
  N  N1246  1  0.731500  0.097500  0.734400  1.0
  N  N1247  1  0.316000  0.894500  0.279200  1.0
  N  N1248  1  0.684000  0.105500  0.720800  1.0
  N  N1249  1  0.512100  0.865600  0.297000  1.0
  N  N1250  1  0.487900  0.134400  0.703000  1.0
  N  N1251  1  0.524100  0.885900  0.362400  1.0
  N  N1252  1  0.475900  0.114100  0.637600  1.0
  N  N1253  1  0.980200  0.966800  0.153000  1.0
  N  N1254  1  0.019800  0.033200  0.847000  1.0
  N  N1255  1  0.067400  0.993700  0.160300  1.0
  N  N1256  1  0.932600  0.006300  0.839700  1.0
  N  N1257  1  0.143200  0.120700  0.134500  1.0
  N  N1258  1  0.856800  0.879300  0.865500  1.0
  N  N1259  1  0.154800  0.155000  0.120100  1.0
  N  N1260  1  0.845200  0.845000  0.879900  1.0
  N  N1261  1  0.057600  0.134800  0.114600  1.0
  N  N1262  1  0.942400  0.865200  0.885400  1.0
  N  N1263  1  0.068400  0.170300  0.100400  1.0
  N  N1264  1  0.931600  0.829700  0.899600  1.0
  N  N1265  1  0.158500  0.285500  0.052900  1.0
  N  N1266  1  0.841500  0.714500  0.947100  1.0
  N  N1267  1  0.095600  0.333600  0.017500  1.0
  N  N1268  1  0.904400  0.666400  0.982500  1.0
  N  N1269  1  0.160400  0.365500  0.069400  1.0
  N  N1270  1  0.839600  0.634500  0.930600  1.0
  N  N1271  1  0.246500  0.327900  0.033700  1.0
  N  N1272  1  0.753500  0.672100  0.966300  1.0
  N  N1273  1  0.442700  0.299100  0.048500  1.0
  N  N1274  1  0.557300  0.700900  0.951500  1.0
  N  N1275  1  0.490300  0.294100  0.061900  1.0
  N  N1276  1  0.509700  0.705900  0.938100  1.0
  N  N1277  1  0.403300  0.336800  0.101200  1.0
  N  N1278  1  0.596700  0.663200  0.898800  1.0
  N  N1279  1  0.450500  0.331200  0.115000  1.0
  N  N1280  1  0.549500  0.668800  0.885000  1.0
  N  N1281  1  0.635500  0.276800  0.143800  1.0
  N  N1282  1  0.364500  0.723200  0.856200  1.0
  N  N1283  1  0.644800  0.300700  0.208200  1.0
  N  N1284  1  0.355200  0.699300  0.791800  1.0
  N  N1285  1  0.751800  0.249000  0.208100  1.0
  N  N1286  1  0.248200  0.751000  0.791900  1.0
  N  N1287  1  0.668600  0.217300  0.196800  1.0
  N  N1288  1  0.331400  0.782700  0.803200  1.0
  N  N1289  1  0.586700  0.097100  0.238000  1.0
  N  N1290  1  0.413300  0.902900  0.762000  1.0
  N  N1291  1  0.575000  0.062800  0.252900  1.0
  N  N1292  1  0.425000  0.937200  0.747100  1.0
  N  N1293  1  0.667900  0.087600  0.264800  1.0
  N  N1294  1  0.332100  0.912400  0.735200  1.0
  N  N1295  1  0.658000  0.051500  0.277600  1.0
  N  N1296  1  0.342000  0.948500  0.722400  1.0
  N  N1297  1  0.580800  0.923800  0.306800  1.0
  N  N1298  1  0.419200  0.076200  0.693200  1.0
  N  N1299  1  0.642800  0.875200  0.342300  1.0
  N  N1300  1  0.357200  0.124800  0.657700  1.0
  N  N1301  1  0.266300  0.694400  0.852700  1.0
  N  N1302  1  0.733700  0.305600  0.147300  1.0
  N  N1303  1  0.257700  0.770600  0.864300  1.0
  N  N1304  1  0.742300  0.229400  0.135700  1.0
  N  N1305  1  0.177100  0.869500  0.961800  1.0
  N  N1306  1  0.822900  0.130500  0.038200  1.0
  N  N1307  1  0.152100  0.888500  0.992200  1.0
  N  N1308  1  0.847900  0.111500  0.007800  1.0
  N  N1309  1  0.143800  0.810700  0.980600  1.0
  N  N1310  1  0.856200  0.189300  0.019400  1.0
  N  N1311  1  0.119300  0.829400  0.011300  1.0
  N  N1312  1  0.880700  0.170600  0.988700  1.0
  N  N1313  1  0.071100  0.920900  0.120100  1.0
  N  N1314  1  0.928900  0.079100  0.879900  1.0
  N  N1315  1  0.027100  0.883100  0.172400  1.0
  N  N1316  1  0.972900  0.116900  0.827600  1.0
  N  N1317  1  0.182600  0.378500  0.990100  1.0
  N  N1318  1  0.817400  0.621500  0.009900  1.0
  N  N1319  1  0.190700  0.302200  0.979100  1.0
  N  N1320  1  0.809300  0.697800  0.020900  1.0
  N  N1321  1  0.244600  0.205000  0.874900  1.0
  N  N1322  1  0.755400  0.795000  0.125100  1.0
  N  N1323  1  0.265600  0.187800  0.843500  1.0
  N  N1324  1  0.734400  0.812200  0.156500  1.0
  N  N1325  1  0.249200  0.269200  0.848500  1.0
  N  N1326  1  0.750800  0.730800  0.151500  1.0
  N  N1327  1  0.274600  0.251000  0.817900  1.0
  N  N1328  1  0.725400  0.749000  0.182100  1.0
  N  N1329  1  0.374500  0.152600  0.724000  1.0
  N  N1330  1  0.625500  0.847400  0.276000  1.0
  N  N1331  1  0.413900  0.192600  0.669700  1.0
  N  N1332  1  0.586100  0.807400  0.330300  1.0
  N  N1333  1  0.052700  0.490000  0.749800  1.0
  N  N1334  1  0.947300  0.510000  0.250200  1.0
  N  N1335  1  0.131100  0.444300  0.713200  1.0
  N  N1336  1  0.868900  0.555700  0.286800  1.0
  N  N1337  1  0.328700  0.402600  0.718500  1.0
  N  N1338  1  0.671300  0.597400  0.281500  1.0
  N  N1339  1  0.378400  0.395200  0.728100  1.0
  N  N1340  1  0.621600  0.604800  0.271900  1.0
  N  N1341  1  0.297200  0.433600  0.775900  1.0
  N  N1342  1  0.702800  0.566400  0.224100  1.0
  N  N1343  1  0.347900  0.426400  0.784900  1.0
  N  N1344  1  0.652100  0.573600  0.215100  1.0
  N  N1345  1  0.548500  0.393400  0.786100  1.0
  N  N1346  1  0.451500  0.606600  0.213900  1.0
  N  N1347  1  0.573600  0.418400  0.846200  1.0
  N  N1348  1  0.426400  0.581600  0.153800  1.0
  N  N1349  1  0.988900  0.494200  0.689200  1.0
  N  N1350  1  0.011100  0.505800  0.310800  1.0
  N  N1351  1  0.081200  0.516400  0.682300  1.0
  N  N1352  1  0.918800  0.483600  0.317700  1.0
  N  N1353  1  0.153700  0.644800  0.653900  1.0
  N  N1354  1  0.846300  0.355200  0.346100  1.0
  N  N1355  1  0.163900  0.680500  0.639800  1.0
  N  N1356  1  0.836100  0.319500  0.360200  1.0
  N  N1357  1  0.068500  0.655700  0.632300  1.0
  N  N1358  1  0.931500  0.344300  0.367700  1.0
  N  N1359  1  0.077400  0.691900  0.619300  1.0
  N  N1360  1  0.922600  0.308100  0.380700  1.0
  N  N1361  1  0.163800  0.805100  0.564300  1.0
  N  N1362  1  0.836200  0.194900  0.435700  1.0
  N  N1363  1  0.093500  0.853100  0.531900  1.0
  N  N1364  1  0.906500  0.146900  0.468100  1.0
  N  N1365  1  0.313800  0.176900  0.339800  1.0
  N  N1366  1  0.686200  0.823100  0.660200  1.0
  N  N1367  1  0.334300  0.202300  0.400800  1.0
  N  N1368  1  0.665700  0.797700  0.599200  1.0
  N  N1369  1  0.496000  0.194000  0.467400  1.0
  N  N1370  1  0.504000  0.806000  0.532600  1.0
  N  N1371  1  0.546000  0.187700  0.477900  1.0
  N  N1372  1  0.454000  0.812300  0.522100  1.0
  N  N1373  1  0.518600  0.142400  0.423200  1.0
  N  N1374  1  0.481400  0.857600  0.576800  1.0
  N  N1375  1  0.569400  0.139000  0.431300  1.0
  N  N1376  1  0.430600  0.861000  0.568700  1.0
  N  N1377  1  0.747000  0.158600  0.469500  1.0
  N  N1378  1  0.253000  0.841400  0.530500  1.0
  N  N1379  1  0.822700  0.112500  0.430300  1.0
  N  N1380  1  0.177300  0.887500  0.569700  1.0
  N  N1381  1  0.232700  0.178200  0.403700  1.0
  N  N1382  1  0.767300  0.821800  0.596300  1.0
  N  N1383  1  0.231400  0.254800  0.411900  1.0
  N  N1384  1  0.768600  0.745200  0.588100  1.0
  N  N1385  1  0.146300  0.363100  0.498300  1.0
  N  N1386  1  0.853700  0.636900  0.501700  1.0
  N  N1387  1  0.124000  0.384600  0.528300  1.0
  N  N1388  1  0.876000  0.615400  0.471700  1.0
  N  N1389  1  0.130600  0.304100  0.530000  1.0
  N  N1390  1  0.869400  0.695900  0.470000  1.0
  N  N1391  1  0.111400  0.326300  0.560200  1.0
  N  N1392  1  0.888600  0.673700  0.439800  1.0
  N  N1393  1  0.070900  0.439900  0.653100  1.0
  N  N1394  1  0.929100  0.560100  0.346900  1.0
  N  N1395  1  0.033900  0.413600  0.714800  1.0
  N  N1396  1  0.966100  0.586400  0.285200  1.0
  N  N1397  1  0.214000  0.233400  0.342100  1.0
  N  N1398  1  0.786000  0.766600  0.657900  1.0
  N  N1399  1  0.301700  0.260800  0.347300  1.0
  N  N1400  1  0.698300  0.739200  0.652700  1.0
  N  N1401  1  0.382200  0.381300  0.302300  1.0
  N  N1402  1  0.617800  0.618700  0.697700  1.0
  N  N1403  1  0.391800  0.415700  0.286200  1.0
  N  N1404  1  0.608200  0.584300  0.713800  1.0
  N  N1405  1  0.311700  0.380600  0.266200  1.0
  N  N1406  1  0.688300  0.619400  0.733800  1.0
  N  N1407  1  0.321900  0.415100  0.249800  1.0
  N  N1408  1  0.678100  0.584900  0.750200  1.0
  N  N1409  1  0.382000  0.547500  0.218600  1.0
  N  N1410  1  0.618000  0.452500  0.781400  1.0
  N  N1411  1  0.310500  0.593400  0.186100  1.0
  N  N1412  1  0.689500  0.406600  0.813900  1.0
  N  N1413  1  0.369500  0.661400  0.183700  1.0
  N  N1414  1  0.630500  0.338600  0.816300  1.0
  N  N1415  1  0.340800  0.629200  0.244300  1.0
  N  N1416  1  0.659200  0.370800  0.755700  1.0
  N  N1417  1  0.245900  0.678100  0.365600  1.0
  N  N1418  1  0.754100  0.321900  0.634400  1.0
  N  N1419  1  0.225700  0.700000  0.395300  1.0
  N  N1420  1  0.774300  0.300000  0.604700  1.0
  N  N1421  1  0.246400  0.738000  0.331400  1.0
  N  N1422  1  0.753600  0.262000  0.668600  1.0
  N  N1423  1  0.221700  0.759600  0.360600  1.0
  N  N1424  1  0.778300  0.240400  0.639400  1.0
  N  N1425  1  0.181700  0.810600  0.488600  1.0
  N  N1426  1  0.818300  0.189400  0.511400  1.0
  N  N1427  1  0.178200  0.888800  0.488000  1.0
  N  N1428  1  0.821800  0.111200  0.512000  1.0
  F  F1429  1  0.661000  0.010300  0.439500  0.15
  F  F1430  1  0.339000  0.989700  0.560500  0.15
  F  F1431  1  0.723000  0.039300  0.423400  0.15
  F  F1432  1  0.277000  0.960700  0.576600  0.15
  F  F1433  1  0.640000  0.992800  0.387700  0.15
  F  F1434  1  0.360000  0.007200  0.612300  0.15
  F  F1435  1  0.738100  0.984900  0.353500  0.15
  F  F1436  1  0.261900  0.015100  0.646500  0.15
  F  F1437  1  0.696000  0.049300  0.377500  0.15
  F  F1438  1  0.304000  0.950700  0.622500  0.15
  F  F1439  1  0.766700  0.975200  0.400400  0.15
  F  F1440  1  0.233300  0.024800  0.599600  0.15
  F  F1441  1  0.708500  0.968500  0.442400  0.2
  F  F1442  1  0.291500  0.031500  0.557600  0.2
  F  F1443  1  0.789100  0.970000  0.421400  0.2
  F  F1444  1  0.210900  0.030000  0.578600  0.2
  F  F1445  1  0.668900  0.016000  0.409000  0.2
  F  F1446  1  0.331100  0.984000  0.591000  0.2
  F  F1447  1  0.739000  0.002000  0.351600  0.2
  F  F1448  1  0.261000  0.998000  0.648400  0.2
  F  F1449  1  0.765000  0.024800  0.405600  0.2
  F  F1450  1  0.235000  0.975200  0.594400  0.2
  F  F1451  1  0.763000  0.946000  0.369700  0.2
  F  F1452  1  0.237000  0.054000  0.630300  0.2
  F  F1453  1  0.328400  0.811400  0.683600  0.4
  F  F1454  1  0.671600  0.188600  0.316400  0.4
  F  F1455  1  0.215800  0.851800  0.705100  0.4
  F  F1456  1  0.784200  0.148200  0.294900  0.4
  F  F1457  1  0.194900  0.837800  0.647800  0.4
  F  F1458  1  0.805100  0.162200  0.352200  0.4
  F  F1459  1  0.293800  0.792600  0.625400  0.4
  F  F1460  1  0.706200  0.207400  0.374600  0.4
  F  F1461  1  0.292900  0.870600  0.653300  0.4
  F  F1462  1  0.707100  0.129400  0.346700  0.4
  F  F1463  1  0.235800  0.777900  0.679700  0.4
  F  F1464  1  0.764200  0.222100  0.320300  0.4
  F  F1465  1  0.132300  0.990000  0.298400  0.4
  F  F1466  1  0.867700  0.010000  0.701600  0.4
  F  F1467  1  0.211000  0.037600  0.291200  0.4
  F  F1468  1  0.789000  0.962400  0.708800  0.4
  F  F1469  1  0.141500  0.089200  0.243100  0.4
  F  F1470  1  0.858500  0.910800  0.756900  0.4
  F  F1471  1  0.100100  0.071800  0.306100  0.4
  F  F1472  1  0.899900  0.928200  0.693900  0.4
  F  F1473  1  0.087200  0.038300  0.250600  0.4
  F  F1474  1  0.912800  0.961700  0.749400  0.4
  F  F1475  1  0.191900  0.010300  0.233500  0.4
  F  F1476  1  0.808100  0.989700  0.766500  0.4
  F  F1477  1  0.058100  0.655500  0.941600  0.5
  F  F1478  1  0.941900  0.344500  0.058400  0.5
  F  F1479  1  0.104600  0.737100  0.890400  0.5
  F  F1480  1  0.895400  0.262900  0.109600  0.5
  F  F1481  1  0.042200  0.733200  0.950100  0.5
  F  F1482  1  0.957800  0.266800  0.049900  0.5
  F  F1483  1  0.107100  0.654000  0.879800  0.5
  F  F1484  1  0.892900  0.346000  0.120200  0.5
  F  F1485  1  0.138900  0.692900  0.943200  0.5
  F  F1486  1  0.861100  0.307100  0.056800  0.5
  F  F1487  1  0.017500  0.703700  0.894400  0.5
  F  F1488  1  0.982500  0.296300  0.105600  0.5
  F  F1489  1  0.322500  0.812100  0.424900  0.5
  F  F1490  1  0.677500  0.187900  0.575100  0.5
  F  F1491  1  0.331700  0.906600  0.388500  0.5
  F  F1492  1  0.668300  0.093400  0.611500  0.5
  F  F1493  1  0.301800  0.887400  0.448700  0.5
  F  F1494  1  0.698200  0.112600  0.551300  0.5
  F  F1495  1  0.370700  0.834900  0.368900  0.5
  F  F1496  1  0.629300  0.165100  0.631100  0.5
  F  F1497  1  0.386000  0.861100  0.433400  0.5
  F  F1498  1  0.614000  0.138900  0.566600  0.5
  F  F1499  1  0.279200  0.870100  0.376200  0.5
  F  F1500  1  0.720800  0.129900  0.623800  0.5
  F  F1501  1  0.389000  0.550800  0.749400  0.5
  F  F1502  1  0.611000  0.449200  0.250600  0.5
  F  F1503  1  0.457900  0.490000  0.748600  0.5
  F  F1504  1  0.542100  0.510000  0.251400  0.5
  F  F1505  1  0.363900  0.488200  0.722200  0.5
  F  F1506  1  0.636100  0.511800  0.277800  0.5
  F  F1507  1  0.379500  0.541700  0.676600  0.5
  F  F1508  1  0.620500  0.458300  0.323400  0.5
  F  F1509  1  0.477500  0.546000  0.701900  0.5
  F  F1510  1  0.522500  0.454000  0.298100  0.5
  F  F1511  1  0.456200  0.482700  0.683300  0.5
  F  F1512  1  0.543800  0.517300  0.316700  0.5
  F  F1513  1  0.256900  0.404800  0.150800  0.65
  F  F1514  1  0.743100  0.595200  0.849200  0.65
  F  F1515  1  0.221300  0.505500  0.134500  0.65
  F  F1516  1  0.778700  0.494500  0.865500  0.65
  F  F1517  1  0.222200  0.476200  0.189200  0.65
  F  F1518  1  0.777800  0.523800  0.810800  0.65
  F  F1519  1  0.322300  0.458900  0.153600  0.65
  F  F1520  1  0.677700  0.541100  0.846400  0.65
  F  F1521  1  0.282500  0.443700  0.096000  0.65
  F  F1522  1  0.717500  0.556300  0.904000  0.65
  F  F1523  1  0.186600  0.459900  0.127100  0.65
  F  F1524  1  0.813400  0.540100  0.872900  0.65
  F  F1525  1  0.117300  0.465800  0.902700  0.8
  F  F1526  1  0.882700  0.534200  0.097300  0.8
  F  F1527  1  0.163500  0.405400  0.821000  0.8
  F  F1528  1  0.836500  0.594600  0.179000  0.8
  F  F1529  1  0.164700  0.484100  0.840200  0.8
  F  F1530  1  0.835300  0.515900  0.159800  0.8
  F  F1531  1  0.211200  0.441200  0.891600  0.8
  F  F1532  1  0.788800  0.558800  0.108400  0.8
  F  F1533  1  0.091400  0.444400  0.845800  0.8
  F  F1534  1  0.908600  0.555600  0.154200  0.8
  F  F1535  1  0.132100  0.387200  0.885400  0.8
  F  F1536  1  0.867900  0.612800  0.114600  0.8
  F  F1537  1  0.547900  0.232300  0.784700  0.35
  F  F1538  1  0.452100  0.767700  0.215300  0.35
  F  F1539  1  0.479300  0.295700  0.714600  0.35
  F  F1540  1  0.520700  0.704300  0.285400  0.35
  F  F1541  1  0.474700  0.295200  0.788400  0.35
  F  F1542  1  0.525300  0.704800  0.211600  0.35
  F  F1543  1  0.457000  0.243700  0.763300  0.35
  F  F1544  1  0.543000  0.756300  0.236700  0.35
  F  F1545  1  0.566800  0.290800  0.742000  0.35
  F  F1546  1  0.433200  0.709200  0.258000  0.35
  F  F1547  1  0.537100  0.226000  0.711300  0.35
  F  F1548  1  0.462900  0.774000  0.288700  0.35
