
#######################################################################
#
#                 Cambridge Crystallographic Data Centre
#                                CCDC 
#
#######################################################################
#
# If this CIF has been generated from an entry in the Cambridge 
# Structural Database, then it will include bibliographic, chemical, 
# crystal, experimental, refinement or atomic coordinate data resulting 
# from the CCDC's data processing and validation procedures.
#
#######################################################################

data_WAYDIM
_chemical_formula_moiety         
'C216 H168 Fe4 N36 O24 8+,0.5(C6 H14 O1),8(F6 P1 1-),6.5(C2 H3 N1)'
_chemical_name_systematic        
"hexakis(\m-1,1'-[[3,3'-bipyridine]-6,6'-diylbis(methylylideneazanylylidene-4,1-phenyleneethane-2,1-diyl)]bis(1H-pyrrole-2,5-dione))-tetra-iron(ii) octakis(hexafluorophosphate) diisopropyl  ether acetonitrile unknown solvate solvate"
_symmetry_cell_setting           triclinic
_symmetry_space_group_name_H-M   'P -1'
_symmetry_Int_Tables_number      2
_space_group_name_Hall           '-P 1'
loop_
_symmetry_equiv_pos_site_id
_symmetry_equiv_pos_as_xyz
1 x,y,z
2 -x,-y,-z
_cell_length_a                   22.2379(10)
_cell_length_b                   22.4501(9)
_cell_length_c                   30.1489(16)
_cell_angle_alpha                69.385(2)
_cell_angle_beta                 86.301(3)
_cell_angle_gamma                78.614(2)
_cell_volume                     13810.4
_exptl_crystal_colour            purple
_exptl_crystal_description       plate
_cell_formula_units_Z            2
loop_
_atom_site_label
_atom_site_type_symbol
_atom_site_fract_x
_atom_site_fract_y
_atom_site_fract_z
Fe1 Fe 1.08383(8) 0.43019(9) 0.32867(6)
Fe2 Fe 0.77201(8) 0.19185(9) 0.45826(6)
Fe3 Fe 0.67146(8) 0.61592(9) 0.22466(7)
Fe4 Fe 0.89174(9) 0.26885(10) 0.13690(7)
N1 N 0.7706(5) -0.1834(5) 0.5124(4)
N2 N 0.8119(4) 0.0997(4) 0.4815(3)
N3 N 0.8594(4) 0.2007(5) 0.4529(3)
N4 N 1.0290(4) 0.3913(4) 0.3812(3)
N5 N 1.0846(4) 0.4865(4) 0.3662(3)
N6 N 1.1371(6) 0.7600(6) 0.3613(4)
O1 O 0.8554(4) -0.1848(5) 0.5537(4)
O2 O 0.7101(6) -0.1883(6) 0.4551(4)
O3 O 1.1091(7) 0.8391(6) 0.2897(5)
O4 O 1.1358(5) 0.6950(5) 0.4413(4)
C1 C 0.8335(7) -0.1871(7) 0.5185(5)
C2 C 0.8641(7) -0.1926(8) 0.4744(5)
H1 H 0.9063 -0.1931 0.4670
C3 C 0.8214(7) -0.1970(8) 0.4473(6)
H2 H 0.8289 -0.2037 0.4179
C4 C 0.7605(7) -0.1897(7) 0.4697(6)
C5 C 0.7241(6) -0.1748(6) 0.5465(5)
H3 H 0.7445 -0.1794 0.5761
H4 H 0.7000 -0.2098 0.5541
C6 C 0.6808(6) -0.1103(5) 0.5299(5)
H5 H 0.6580 -0.1064 0.5015
H6 H 0.6507 -0.1077 0.5551
C7 C 0.7155(5) -0.0555(6) 0.5179(5)
C8 C 0.7295(6) -0.0331(6) 0.5515(5)
H7 H 0.7177 -0.0531 0.5833
C9 C 0.7609(6) 0.0187(6) 0.5406(4)
H8 H 0.7689 0.0346 0.5645
C10 C 0.7799(5) 0.0463(5) 0.4950(4)
C11 C 0.7672(6) 0.0239(6) 0.4598(5)
H9 H 0.7814 0.0417 0.4284
C12 C 0.7325(6) -0.0260(6) 0.4718(5)
H10 H 0.7206 -0.0394 0.4476
C13 C 0.8705(5) 0.0879(5) 0.4789(4)
H11 H 0.8936 0.0451 0.4872
C14 C 0.8991(5) 0.1445(6) 0.4623(4)
C15 C 0.9616(5) 0.1427(6) 0.4579(4)
H12 H 0.9891 0.1025 0.4633
C16 C 0.9837(5) 0.1987(6) 0.4459(4)
H13 H 1.0266 0.1976 0.4432
C17 C 0.9445(5) 0.2563(5) 0.4379(4)
C18 C 0.8824(5) 0.2559(6) 0.4404(4)
H14 H 0.8546 0.2961 0.4331
C19 C 1.0038(5) 0.3390(5) 0.3901(4)
H15 H 1.0122 0.3156 0.3690
C20 C 0.9666(5) 0.3173(5) 0.4280(4)
C21 C 0.9508(5) 0.3533(5) 0.4575(4)
H16 H 0.9238 0.3403 0.4833
C22 C 0.9752(5) 0.4087(6) 0.4488(4)
H17 H 0.9646 0.4347 0.4681
C23 C 1.0152(5) 0.4252(5) 0.4115(4)
C24 C 1.0478(5) 0.4787(5) 0.4015(4)
H18 H 1.0421 0.5061 0.4199
C25 C 1.1165(5) 0.5401(5) 0.3539(4)
C26 C 1.1771(5) 0.5328(6) 0.3638(5)
H19 H 1.2001 0.4909 0.3799
C27 C 1.2050(6) 0.5858(6) 0.3507(5)
H20 H 1.2466 0.5804 0.3593
C28 C 1.1740(6) 0.6464(6) 0.3253(4)
C29 C 1.1138(6) 0.6531(6) 0.3157(5)
H21 H 1.0911 0.6951 0.2996
C30 C 1.0842(6) 0.6002(6) 0.3288(5)
H22 H 1.0425 0.6057 0.3204
C31 C 1.2064(7) 0.7053(6) 0.3117(5)
H23 H 1.2505 0.6910 0.3064
H24 H 1.1888 0.7377 0.2815
C32 C 1.2005(6) 0.7370(7) 0.3488(5)
H25 H 1.2219 0.7056 0.3779
H26 H 1.2218 0.7743 0.3373
C33 C 1.0940(8) 0.8122(9) 0.3303(6)
C34 C 1.0387(8) 0.8170(9) 0.3587(6)
H27 H 1.0017 0.8470 0.3475
C35 C 1.0469(7) 0.7746(8) 0.4018(6)
H28 H 1.0169 0.7692 0.4261
C36 C 1.1100(7) 0.7364(7) 0.4066(6)
N7 N 1.4289(5) 0.4357(6) 0.2894(4)
N8 N 1.1348(4) 0.4771(4) 0.2756(3)
N9 N 1.0166(4) 0.4998(4) 0.2913(3)
N10 N 0.7460(4) 0.6076(4) 0.2618(3)
N11 N 0.6320(4) 0.6547(5) 0.2707(3)
N12 N 0.3780(4) 0.8640(6) 0.2174(4)
O5 O 1.4580(5) 0.5349(5) 0.2491(4)
O6 O 1.3920(5) 0.3541(6) 0.3480(4)
O7 O 0.3658(6) 0.9320(6) 0.2620(5)
O8 O 0.4038(6) 0.8200(7) 0.1587(5)
C37 C 1.4394(8) 0.4969(8) 0.2852(5)
C38 C 1.4230(8) 0.5061(8) 0.3308(5)
H29 H 1.4277 0.5421 0.3390
C39 C 1.4008(9) 0.4553(8) 0.3580(6)
H30 H 1.3836 0.4504 0.3884
C40 C 1.4064(8) 0.4074(8) 0.3343(6)
C41 C 1.4329(6) 0.4087(8) 0.2517(5)
H31 H 1.4305 0.3622 0.2658
H32 H 1.4733 0.4119 0.2361
C42 C 1.3838(5) 0.4420(7) 0.2155(5)
H33 H 1.3859 0.4180 0.1933
H34 H 1.3913 0.4860 0.1971
C43 C 1.3196(5) 0.4476(7) 0.2362(5)
C44 C 1.2860(5) 0.4003(6) 0.2432(4)
H35 H 1.3042 0.3614 0.2378
C45 C 1.2251(5) 0.4085(6) 0.2583(4)
H36 H 1.2018 0.3755 0.2631
C46 C 1.1994(5) 0.4641(6) 0.2662(4)
C47 C 1.2318(5) 0.5120(6) 0.2610(5)
H37 H 1.2137 0.5500 0.2675
C48 C 1.2933(5) 0.5028(7) 0.2455(5)
H38 H 1.3168 0.5354 0.2414
C49 C 1.1030(5) 0.5264(6) 0.2444(4)
H39 H 1.1221 0.5534 0.2179
C50 C 1.0370(5) 0.5396(6) 0.2509(4)
C51 C 0.9972(5) 0.5895(7) 0.2200(5)
H40 H 1.0123 0.6162 0.1911
C52 C 0.9360(5) 0.6016(7) 0.2302(5)
H41 H 0.9084 0.6357 0.2087
C53 C 0.9161(4) 0.5633(6) 0.2720(4)
C54 C 0.9569(5) 0.5119(5) 0.3004(4)
H42 H 0.9417 0.4832 0.3283
C55 C 0.8045(5) 0.5860(6) 0.2545(4)
H43 H 0.8150 0.5764 0.2264
C56 C 0.8509(4) 0.5767(6) 0.2861(4)
C57 C 0.8354(5) 0.5872(6) 0.3281(4)
H44 H 0.8658 0.5780 0.3516
C58 C 0.7744(5) 0.6117(6) 0.3357(4)
H45 H 0.7628 0.6206 0.3639
C59 C 0.7311(5) 0.6227(5) 0.3016(4)
C60 C 0.6672(5) 0.6502(6) 0.3043(4)
H46 H 0.6519 0.6643 0.3298
C61 C 0.5683(5) 0.6858(6) 0.2738(4)
C62 C 0.5560(5) 0.7479(6) 0.2760(5)
H47 H 0.5884 0.7712 0.2725
C63 C 0.4972(5) 0.7753(6) 0.2832(5)
H48 H 0.4891 0.8169 0.2863
C64 C 0.4499(5) 0.7429(6) 0.2862(5)
C65 C 0.4619(5) 0.6837(6) 0.2819(5)
H49 H 0.4290 0.6616 0.2839
C66 C 0.5210(5) 0.6543(6) 0.2746(4)
H50 H 0.5285 0.6135 0.2703
C67 C 0.3837(6) 0.7741(7) 0.2943(5)
H51 H 0.3619 0.7395 0.3141
H52 H 0.3853 0.8033 0.3121
C68 C 0.3478(6) 0.8119(7) 0.2495(5)
H53 H 0.3428 0.7822 0.2329
H54 H 0.3065 0.8312 0.2575
C69 C 0.3850(5) 0.9206(7) 0.2260(5)
C70 C 0.4179(8) 0.9579(8) 0.1846(6)
H55 H 0.4294 0.9983 0.1797
C71 C 0.4285(8) 0.9247(9) 0.1556(6)
H56 H 0.4493 0.9383 0.1262
C72 C 0.4043(6) 0.8643(8) 0.1740(5)
N13 N 1.3778(5) 0.3969(6) 0.5328(4)
N14 N 1.1505(4) 0.3583(5) 0.3619(3)
N15 N 1.0788(4) 0.3704(5) 0.2947(3)
N16 N 0.9478(4) 0.3222(5) 0.1469(3)
N17 N 0.8994(4) 0.3259(5) 0.0714(3)
N18 N 0.7857(7) 0.4373(8) -0.1308(5)
O9 O 1.3307(5) 0.4343(5) 0.5886(4)
O10 O 1.4510(6) 0.3502(8) 0.4923(6)
O11 O 0.6807(7) 0.4435(9) -0.1207(6)
O12 O 0.8813(6) 0.4669(7) -0.1396(5)
C73 C 1.3774(6) 0.4120(7) 0.5739(5)
C74 C 1.4396(6) 0.3912(8) 0.5942(6)
H57 H 1.4519 0.3929 0.6232
C75 C 1.4749(7) 0.3697(9) 0.5644(7)
H58 H 1.5182 0.3568 0.5670
C76 C 1.4373(7) 0.3685(10) 0.5261(6)
C77 C 1.3268(6) 0.4057(6) 0.5024(5)
H59 H 1.3388 0.4243 0.4688
H60 H 1.2920 0.4366 0.5087
C78 C 1.3067(6) 0.3416(6) 0.5106(5)
H61 H 1.3434 0.3076 0.5122
H62 H 1.2852 0.3285 0.5413
C79 C 1.2649(5) 0.3471(6) 0.4715(4)
C80 C 1.2041(5) 0.3496(6) 0.4779(4)
H63 H 1.1869 0.3490 0.5077
C81 C 1.1652(5) 0.3531(6) 0.4418(4)
H64 H 1.1227 0.3529 0.4474
C82 C 1.1898(5) 0.3567(5) 0.3983(4)
C83 C 1.2516(5) 0.3545(6) 0.3899(4)
H65 H 1.2686 0.3556 0.3599
C84 C 1.2886(5) 0.3503(6) 0.4275(4)
H66 H 1.3313 0.3496 0.4224
C85 C 1.1550(5) 0.3076(6) 0.3509(4)
H67 H 1.1820 0.2685 0.3674
C86 C 1.1164(5) 0.3127(6) 0.3119(4)
C87 C 1.1199(6) 0.2641(6) 0.2926(4)
H68 H 1.1467 0.2235 0.3056
C88 C 1.0835(6) 0.2768(6) 0.2545(4)
H69 H 1.0828 0.2435 0.2421
C89 C 1.0487(5) 0.3356(6) 0.2341(4)
C90 C 1.0461(5) 0.3806(6) 0.2559(4)
H70 H 1.0196 0.4214 0.2428
C91 C 0.9753(5) 0.3136(6) 0.1867(4)
H71 H 0.9681 0.2788 0.2143
C92 C 1.0136(5) 0.3525(5) 0.1898(4)
C93 C 1.0206(5) 0.4052(6) 0.1505(4)
H72 H 1.0455 0.4342 0.1521
C94 C 0.9913(6) 0.4160(6) 0.1085(4)
H73 H 0.9952 0.4524 0.0810
C95 C 0.9562(5) 0.3719(6) 0.1078(4)
C96 C 0.9271(5) 0.3730(7) 0.0653(4)
H74 H 0.9286 0.4063 0.0354
C97 C 0.8695(6) 0.3236(7) 0.0312(4)
C98 C 0.8093(7) 0.3535(10) 0.0197(6)
H75 H 0.7864 0.3770 0.0380
C99 C 0.7830(7) 0.3487(10) -0.0189(6)
H76 H 0.7409 0.3672 -0.0260
C100 C 0.8156(8) 0.3180(9) -0.0471(5)
C101 C 0.8749(7) 0.2939(8) -0.0379(5)
H77 H 0.8990 0.2768 -0.0593
C102 C 0.9024(7) 0.2933(7) 0.0025(5)
H78 H 0.9437 0.2721 0.0102
C103 C 0.7852(9) 0.3188(9) -0.0922(5)
H79 H 0.7990 0.2764 -0.0964
H80 H 0.7401 0.3254 -0.0882
C104 C 0.8011(9) 0.3713(8) -0.1351(5)
H81 H 0.7789 0.3719 -0.1628
H82 H 0.8456 0.3613 -0.1412
C105 C 0.7252(9) 0.4670(10) -0.1217(8)
C106 C 0.7321(9) 0.5277(10) -0.1159(7)
H83 H 0.6997 0.5580 -0.1095
C107 C 0.7910(9) 0.5335(10) -0.1210(7)
H84 H 0.8068 0.5692 -0.1196
C108 C 0.8276(8) 0.4759(10) -0.1291(7)
N19 N 0.3922(5) 0.1660(6) 0.6161(4)
N20 N 0.6866(4) 0.1776(4) 0.4598(3)
N21 N 0.7688(4) 0.1848(4) 0.3944(3)
N22 N 0.8915(4) 0.2139(5) 0.2051(3)
N23 N 0.9652(4) 0.2024(5) 0.1379(4)
N24 N 1.2240(7) 0.1553(8) 0.0001(6)
O13 O 0.3843(9) 0.0622(7) 0.6238(7)
O14 O 0.3696(5) 0.2688(5) 0.6195(4)
O15 O 1.2388(8) 0.1870(8) 0.0646(6)
O16 O 1.2422(8) 0.1121(8) -0.0596(6)
C109 C 0.3662(9) 0.1094(8) 0.6343(7)
C110 C 0.3162(8) 0.1230(9) 0.6658(7)
H85 H 0.2930 0.0925 0.6856
C111 C 0.3089(7) 0.1842(8) 0.6622(6)
H86 H 0.2772 0.2060 0.6768
C112 C 0.3581(7) 0.2136(8) 0.6318(5)
C113 C 0.4418(5) 0.1745(7) 0.5814(5)
H87 H 0.4343 0.2197 0.5589
H88 H 0.4418 0.1456 0.5630
C114 C 0.5042(5) 0.1596(8) 0.6045(5)
H89 H 0.5057 0.1909 0.6206
H90 H 0.5106 0.1156 0.6287
C115 C 0.5545(6) 0.1636(7) 0.5681(4)
C116 C 0.5766(6) 0.1120(7) 0.5543(5)
H91 H 0.5611 0.0730 0.5684
C117 C 0.6221(6) 0.1155(6) 0.5195(5)
H92 H 0.6387 0.0784 0.5113
C118 C 0.6425(5) 0.1726(6) 0.4973(4)
C119 C 0.6192(5) 0.2262(6) 0.5096(4)
H93 H 0.6326 0.2661 0.4943
C120 C 0.5750(6) 0.2200(7) 0.5455(5)
H94 H 0.5588 0.2566 0.5545
C121 C 0.6686(5) 0.1750(6) 0.4214(4)
H95 H 0.6278 0.1705 0.4175
C122 C 0.7133(5) 0.1792(6) 0.3840(4)
C123 C 0.6999(5) 0.1801(7) 0.3394(4)
H96 H 0.6593 0.1794 0.3317
C124 C 0.7456(5) 0.1819(7) 0.3068(4)
H97 H 0.7369 0.1830 0.2761
C125 C 0.8039(5) 0.1823(6) 0.3184(4)
C126 C 0.8131(5) 0.1849(5) 0.3622(4)
H98 H 0.8531 0.1869 0.3701
C127 C 0.8490(5) 0.2195(6) 0.2378(4)
H99 H 0.8138 0.2530 0.2286
C128 C 0.8545(5) 0.1779(6) 0.2847(4)
C129 C 0.9073(6) 0.1314(6) 0.2979(4)
H100 H 0.9139 0.1047 0.3302
C130 C 0.9508(6) 0.1233(7) 0.2643(4)
H101 H 0.9857 0.0894 0.2727
C131 C 0.9418(5) 0.1660(6) 0.2183(4)
C132 C 0.9822(6) 0.1632(6) 0.1792(4)
H102 H 1.0200 0.1332 0.1841
C133 C 1.0052(6) 0.2012(6) 0.0982(4)
C134 C 1.0051(6) 0.1558(7) 0.0771(5)
H103 H 0.9795 0.1245 0.0890
C135 C 1.0421(7) 0.1559(7) 0.0388(5)
H104 H 1.0408 0.1250 0.0241
C136 C 1.0807(7) 0.1991(8) 0.0212(5)
C137 C 1.0807(6) 0.2431(7) 0.0419(5)
H105 H 1.1072 0.2737 0.0301
C138 C 1.0433(6) 0.2453(6) 0.0799(5)
H106 H 1.0440 0.2775 0.0935
C139 C 1.1150(6) 0.1990(8) -0.0249(5)
H107 H 1.1182 0.1559 -0.0279
H108 H 1.0908 0.2314 -0.0523
C140 C 1.1784(7) 0.2140(9) -0.0267(6)
H109 H 1.1914 0.2306 -0.0602
H110 H 1.1774 0.2484 -0.0131
C141 C 1.2540(11) 0.1487(12) 0.0429(8)
C142 C 1.3036(11) 0.0914(11) 0.0509(8)
H111 H 1.3308 0.0729 0.0773
C143 C 1.3039(11) 0.0698(12) 0.0147(9)
H112 H 1.3310 0.0326 0.0123
C144 C 1.2570(11) 0.1112(12) -0.0206(8)
N25 N 0.6048(6) 0.7712(6) -0.0249(4)
N26 N 0.5979(4) 0.6129(5) 0.1912(3)
N27 N 0.6547(4) 0.5293(4) 0.2658(3)
N28 N 0.7406(4) 0.2868(4) 0.4333(3)
N29 N 0.7684(4) 0.2084(4) 0.5187(3)
N30 N 0.8071(7) -0.0244(8) 0.7890(6)
O17 O 0.5545(7) 0.7589(7) -0.0845(6)
O18 O 0.6795(6) 0.7578(6) 0.0304(4)
O19 O 0.7530(10) 0.0594(9) 0.8160(7)
O20 O 0.8699(7) -0.1221(8) 0.7861(6)
C145 C 0.5989(8) 0.7436(7) -0.0594(5)
C146 C 0.6552(8) 0.6956(8) -0.0567(6)
H113 H 0.6641 0.6693 -0.0758
C147 C 0.6918(8) 0.6949(7) -0.0235(6)
H114 H 0.7311 0.6680 -0.0149
C148 C 0.6615(7) 0.7428(6) -0.0020(5)
C149 C 0.5593(8) 0.8216(7) -0.0141(6)
H115 H 0.5447 0.8565 -0.0442
H116 H 0.5797 0.8408 0.0044
C150 C 0.5047(7) 0.7975(8) 0.0133(5)
H117 H 0.4837 0.7782 -0.0047
H118 H 0.4753 0.8341 0.0180
C151 C 0.5260(8) 0.7473(7) 0.0609(5)
C152 C 0.5492(7) 0.6839(7) 0.0647(5)
H119 H 0.5488 0.6711 0.0379
C153 C 0.5735(7) 0.6379(7) 0.1083(4)
H120 H 0.5898 0.5943 0.1111
C154 C 0.5729(6) 0.6581(6) 0.1470(4)
C155 C 0.5448(6) 0.7186(6) 0.1447(4)
H121 H 0.5415 0.7305 0.1722
C156 C 0.5204(6) 0.7639(7) 0.1007(5)
H122 H 0.5000 0.8061 0.0989
C157 C 0.5812(6) 0.5570(6) 0.2063(4)
H123 H 0.5500 0.5484 0.1905
C158 C 0.6121(5) 0.5077(6) 0.2483(4)
C159 C 0.6015(5) 0.4458(6) 0.2687(4)
H124 H 0.5725 0.4311 0.2552
C160 C 0.6333(5) 0.4052(6) 0.3090(4)
H125 H 0.6283 0.3614 0.3223
C161 C 0.6722(5) 0.4276(5) 0.3300(4)
C162 C 0.6823(5) 0.4900(5) 0.3068(4)
H126 H 0.7102 0.5057 0.3205
C163 C 0.7201(5) 0.3241(5) 0.3903(4)
H127 H 0.7198 0.3043 0.3671
C164 C 0.6992(5) 0.3897(5) 0.3772(4)
C165 C 0.7036(6) 0.4192(6) 0.4103(4)
H128 H 0.6932 0.4649 0.4020
C166 C 0.7236(6) 0.3798(5) 0.4556(4)
H129 H 0.7257 0.3985 0.4791
C167 C 0.7403(5) 0.3142(5) 0.4669(4)
C168 C 0.7549(5) 0.2679(5) 0.5138(4)
H130 H 0.7545 0.2816 0.5402
C169 C 0.7816(5) 0.1634(5) 0.5667(4)
C170 C 0.8399(5) 0.1283(6) 0.5787(4)
H131 H 0.8720 0.1334 0.5560
C171 C 0.8504(6) 0.0863(6) 0.6235(4)
H132 H 0.8905 0.0616 0.6319
C172 C 0.8054(7) 0.0781(7) 0.6574(4)
C173 C 0.7485(6) 0.1101(7) 0.6451(5)
H133 H 0.7166 0.1026 0.6678
C174 C 0.7349(6) 0.1545(6) 0.5996(4)
H134 H 0.6945 0.1782 0.5913
C175 C 0.8288(8) 0.0397(9) 0.7096(5)
H135 H 0.8701 0.0136 0.7091
H136 H 0.8323 0.0708 0.7254
C176 C 0.7877(11) -0.0026(11) 0.7365(6)
H137 H 0.7916 -0.0406 0.7263
H138 H 0.7447 0.0208 0.7319
C177 C 0.7868(8) 0.0067(10) 0.8226(8)
C178 C 0.8158(9) -0.0392(10) 0.8688(7)
H139 H 0.8115 -0.0330 0.8985
C179 C 0.8487(9) -0.0906(10) 0.8601(7)
H140 H 0.8715 -0.1267 0.8838
C180 C 0.8462(7) -0.0856(9) 0.8093(8)
N31 N 0.5916(10) 1.0738(8) 0.1145(8)
N32 N 0.6890(5) 0.6957(5) 0.1762(4)
N33 N 0.7180(4) 0.5778(5) 0.1797(3)
N34 N 0.8173(4) 0.3316(5) 0.1415(3)
N35 N 0.8303(5) 0.2240(5) 0.1243(4)
N36 N 0.9001(7) 0.0075(7) 0.0191(6)
O21 O 0.6664(10) 1.0850(10) 0.0569(9)
O22 O 0.5196(12) 1.0903(10) 0.1687(10)
O23 O 0.8280(8) -0.0066(8) -0.0263(6)
O24 O 0.9770(8) 0.0445(8) 0.0448(7)
C181 C 0.6342(14) 1.1079(11) 0.0834(10)
C182 C 0.6211(14) 1.1730(10) 0.0853(10)
H141 H 0.6386 1.2085 0.0656
C183 C 0.5807(14) 1.1741(10) 0.1192(10)
H142 H 0.5663 1.2107 0.1285
C184 C 0.5610(14) 1.1108(11) 0.1407(11)
C185 C 0.5918(11) 1.0047(8) 0.1252(9)
H143 H 0.5984 0.9950 0.0955
H144 H 0.5511 0.9954 0.1377
C186 C 0.6403(11) 0.9607(7) 0.1606(8)
H145 H 0.6301 0.9651 0.1919
H146 H 0.6803 0.9742 0.1507
C187 C 0.6458(10) 0.8904(7) 0.1652(7)
C188 C 0.6331(10) 0.8729(8) 0.1284(6)
H147 H 0.6155 0.9051 0.1001
C189 C 0.6458(8) 0.8078(7) 0.1322(5)
H148 H 0.6360 0.7951 0.1071
C190 C 0.6732(7) 0.7623(6) 0.1735(5)
C191 C 0.6908(8) 0.7785(7) 0.2096(5)
H149 H 0.7114 0.7468 0.2369
C192 C 0.6769(9) 0.8447(7) 0.2042(6)
H150 H 0.6893 0.8580 0.2282
C193 C 0.7195(6) 0.6865(6) 0.1402(5)
H151 H 0.7312 0.7216 0.1149
C194 C 0.7350(6) 0.6215(6) 0.1398(5)
C195 C 0.7636(7) 0.6030(7) 0.1038(5)
H152 H 0.7753 0.6346 0.0759
C196 C 0.7753(8) 0.5397(7) 0.1080(5)
H153 H 0.7981 0.5266 0.0842
C197 C 0.7549(6) 0.4954(6) 0.1458(5)
C198 C 0.7293(5) 0.5161(6) 0.1818(4)
H154 H 0.7189 0.4843 0.2102
C199 C 0.8133(5) 0.3903(6) 0.1444(4)
H155 H 0.8499 0.4058 0.1451
C200 C 0.7574(6) 0.4290(6) 0.1465(5)
C201 C 0.7048(6) 0.4054(7) 0.1478(6)
H156 H 0.6662 0.4293 0.1526
C202 C 0.7086(6) 0.3460(8) 0.1420(7)
H157 H 0.6726 0.3298 0.1409
C203 C 0.7647(6) 0.3120(7) 0.1379(5)
C204 C 0.7754(6) 0.2511(7) 0.1288(6)
H158 H 0.7419 0.2319 0.1264
C205 C 0.8355(7) 0.1655(7) 0.1128(5)
C206 C 0.8081(9) 0.1695(7) 0.0713(5)
H159 H 0.7892 0.2101 0.0495
C207 C 0.8092(10) 0.1134(8) 0.0630(6)
H160 H 0.7905 0.1147 0.0351
C208 C 0.8373(10) 0.0543(8) 0.0948(7)
C209 C 0.8633(9) 0.0502(8) 0.1354(6)
H161 H 0.8816 0.0094 0.1573
C210 C 0.8625(8) 0.1074(7) 0.1443(6)
H162 H 0.8808 0.1057 0.1725
C211 C 0.8284(9) -0.0089(8) 0.0877(7)
H163 H 0.8192 -0.0407 0.1186
H164 H 0.7931 0.0010 0.0662
C212 C 0.8848(9) -0.0375(8) 0.0672(6)
H165 H 0.8788 -0.0786 0.0644
H166 H 0.9197 -0.0477 0.0891
C213 C 0.8677(8) 0.0234(8) -0.0242(7)
C214 C 0.8927(10) 0.0779(10) -0.0591(7)
H167 H 0.8802 0.0992 -0.0912
C215 C 0.9354(10) 0.0917(9) -0.0378(8)
H168 H 0.9582 0.1250 -0.0529
C216 C 0.9433(7) 0.0493(8) 0.0120(8)
P1 P 0.85734(17) 0.3710(2) 0.28824(14)
F1 F 0.8928(7) 0.3156(7) 0.2709(6)
F2 F 0.9172(7) 0.3787(8) 0.3067(5)
F3 F 0.8413(7) 0.3231(7) 0.3359(5)
F4 F 0.7947(6) 0.3668(8) 0.2647(5)
F5 F 0.8199(7) 0.4303(7) 0.2998(6)
F6 F 0.8708(7) 0.4222(8) 0.2352(5)
P2 P 0.1241(2) 0.4308(2) 0.01509(16)
F13 F 0.1891(6) 0.4453(8) 0.0140(6)
F14 F 0.1089(7) 0.4788(6) -0.0393(4)
F15 F 0.0909(6) 0.4855(7) 0.0334(5)
F16 F 0.0592(6) 0.4077(8) 0.0166(5)
F17 F 0.1329(7) 0.3787(7) 0.0670(4)
F18 F 0.1549(8) 0.3746(7) -0.0058(5)
P3 P 0.05991(18) 0.3712(2) 0.57111(16)
F25 F 0.1343(6) 0.3693(8) 0.5754(6)
F26 F 0.0719(8) 0.3511(9) 0.5259(5)
F27 F 0.0553(7) 0.4460(7) 0.5399(6)
F28 F -0.0105(6) 0.3751(8) 0.5684(7)
F29 F 0.0489(8) 0.3879(9) 0.6191(5)
F30 F 0.0708(8) 0.2958(7) 0.6041(6)
P4 P 0.0396(2) 0.0365(2) 0.58028(16)
F37 F 0.0074(4) 0.0130(4) 0.6307(3)
F38 F 0.0730(4) 0.0590(4) 0.5305(3)
F39 F -0.0140(6) 0.0994(7) 0.5628(5)
F40 F 0.0023(7) 0.0031(7) 0.5553(5)
F41 F 0.0903(7) -0.0297(7) 0.5960(5)
F42 F 0.0791(6) 0.0702(7) 0.6026(4)
P5 P 0.3572(2) 0.5963(3) 0.4255(2)
F47 F 0.3315(8) 0.5397(10) 0.4136(9)
F48 F 0.2871(7) 0.6190(10) 0.4379(9)
F49 F 0.3551(9) 0.5428(10) 0.4846(7)
F50 F 0.4201(7) 0.5578(10) 0.4224(8)
F51 F 0.3517(10) 0.6354(13) 0.3747(8)
F52 F 0.3751(7) 0.6393(9) 0.4528(7)
P6 P 0.0287(5) 0.7637(5) 0.1553(4)
F59 F 0.0947(10) 0.7776(12) 0.1261(8)
F60 F 0.0511(10) 0.7913(11) 0.1984(8)
F61 F -0.0206(10) 0.7360(11) 0.1941(8)
F62 F 0.0157(11) 0.7221(10) 0.1253(8)
F63 F 0.0821(10) 0.6905(9) 0.1905(8)
F64 F -0.0102(11) 0.8268(10) 0.1298(8)
P7 P 0.5825(5) 0.2848(7) 0.2274(4)
F71 F 0.5764(11) 0.2936(10) 0.2743(8)
F72 F 0.5136(11) 0.2937(10) 0.2213(8)
F73 F 0.6013(13) 0.2141(12) 0.2521(9)
F74 F 0.6525(14) 0.2858(13) 0.2330(11)
F75 F 0.5898(10) 0.2721(9) 0.1778(7)
F76 F 0.5778(10) 0.3617(9) 0.1970(7)
P8 P 0.5000 0.0000 0.0000
F77 F 0.5281(8) -0.0684(7) 0.0372(5)
F78 F 0.5537(9) 0.0332(10) 0.0017(8)
F79 F 0.4706(9) 0.0191(8) 0.0430(6)
F77A F 0.4719(8) 0.0684(7) -0.0372(5)
F78A F 0.4463(9) -0.0332(10) -0.0017(8)
F79A F 0.5294(9) -0.0191(8) -0.0430(6)
N37 N 0.5530(12) 0.3025(12) 0.3960(10)
C217 C 0.5171(13) 0.2698(14) 0.4097(11)
C218 C 0.4673(11) 0.2389(11) 0.4388(9)
H169 H 0.4486 0.2177 0.4214
H170 H 0.4361 0.2722 0.4454
H171 H 0.4846 0.2067 0.4688
N38 N 0.1819(13) 0.2456(12) 0.7199(10)
C219 C 0.1312(15) 0.2436(19) 0.7147(15)
C220 C 0.0650(13) 0.2428(15) 0.7177(12)
H172 H 0.0548 0.2199 0.6977
H173 H 0.0420 0.2874 0.7068
H174 H 0.0542 0.2206 0.7506
N39 N 0.5364(14) 0.4339(12) 0.4430(8)
C221 C 0.5464(14) 0.4668(13) 0.4036(9)
C222 C 0.5541(9) 0.5007(9) 0.3552(7)
H175 H 0.5138 0.5192 0.3398
H176 H 0.5773 0.4708 0.3403
H177 H 0.5766 0.5355 0.3516
N40 N 0.3080(12) 0.6688(11) 0.2223(9)
C223 C 0.3470(15) 0.6700(15) 0.1939(11)
C224 C 0.3926(12) 0.6611(11) 0.1578(9)
H178 H 0.3767 0.6398 0.1389
H179 H 0.4309 0.6341 0.1735
H180 H 0.4007 0.7034 0.1369
N41 N 0.582(3) 0.382(3) -0.0243(17)
C225 C 0.609(3) 0.349(3) 0.0110(16)
C226 C 0.6511(14) 0.3177(13) 0.0499(11)
H181 H 0.6288 0.2964 0.0784
H182 H 0.6706 0.3499 0.0555
H183 H 0.6826 0.2853 0.0426
N42 N 0.663(2) 1.2316(19) -0.0464(18)
C227 C 0.670(3) 1.186(2) -0.0580(18)
C228 C 0.679(2) 1.1206(18) -0.0584(15)
H184 H 0.7179 1.1044 -0.0698
H185 H 0.6477 1.1288 -0.0814
H186 H 0.6696 1.0891 -0.0290
N43 N 0.8238(7) 0.4765(7) 0.4354(5)
C229 C 0.8273(8) 0.4745(7) 0.4743(6)
C230 C 0.8347(8) 0.4692(7) 0.5225(5)
H187 H 0.8582 0.5014 0.5233
H188 H 0.8567 0.4257 0.5405
H189 H 0.7943 0.4770 0.5366
N44 N 1.0110(14) 1.0089(14) 0.2189(11)
C231 C 1.0226(15) 0.9729(15) 0.1996(12)
C232 C 1.045(2) 0.9252(18) 0.1777(15)
H190 H 1.0870 0.9034 0.1892
H191 H 1.0461 0.9465 0.1432
H192 H 1.0185 0.8932 0.1857
O25 O 0.2514(13) 0.0006(12) 0.7316(10)
C233 C 0.1985(15) 0.0034(19) 0.7035(13)
H193 H 0.1848 -0.0392 0.7178
C234 C 0.1467(16) 0.053(2) 0.7054(16)
H194 H 0.1130 0.0524 0.6861
H195 H 0.1332 0.0440 0.7383
H196 H 0.1587 0.0953 0.6930
C235 C 0.2230(16) 0.0069(16) 0.6561(11)
H197 H 0.2578 -0.0289 0.6594
H198 H 0.1908 0.0035 0.6369
H199 H 0.2366 0.0483 0.6407
C236 C 0.2967(15) -0.0590(16) 0.7411(14)
H200 H 0.2934 -0.0781 0.7162
C237 C 0.2834(17) -0.1056(14) 0.7883(12)
H201 H 0.3135 -0.1460 0.7952
H202 H 0.2858 -0.0867 0.8128
H203 H 0.2421 -0.1146 0.7880
C238 C 0.3591(15) -0.047(2) 0.7411(17)
H204 H 0.3887 -0.0874 0.7475
H205 H 0.3677 -0.0160 0.7100
H206 H 0.3627 -0.0282 0.7656
F7? F 0.8997(9) 0.2994(8) 0.3116(7)
F8? F 0.9177(8) 0.3977(10) 0.2876(7)
F9? F 0.8441(8) 0.3787(11) 0.3399(6)
F10? F 0.7987(8) 0.3365(9) 0.2957(8)
F11? F 0.8160(9) 0.4369(8) 0.2683(7)
F12? F 0.8699(8) 0.3613(11) 0.2406(6)
F19? F 0.1516(14) 0.4903(11) -0.0226(9)
F20? F 0.0596(10) 0.4558(15) -0.0067(10)
F21? F 0.1081(14) 0.4735(13) 0.0512(9)
F22? F 0.1033(14) 0.3745(13) 0.0562(10)
F23? F 0.1922(10) 0.4068(15) 0.0437(10)
F24? F 0.1481(16) 0.3908(14) -0.0164(10)
F31? F 0.1291(7) 0.3377(10) 0.5856(7)
F32? F 0.0761(8) 0.4229(9) 0.5225(6)
F33? F 0.0570(9) 0.4192(9) 0.5994(8)
F34? F -0.0125(7) 0.4020(10) 0.5574(8)
F35? F 0.0377(9) 0.3158(9) 0.6154(6)
F36? F 0.0595(10) 0.3222(9) 0.5417(7)
F43? F 0.0139(15) 0.1111(14) 0.5692(13)
F44? F -0.0260(13) 0.0365(17) 0.5609(11)
F45? F 0.0497(16) -0.0398(13) 0.5867(11)
F46? F 0.1092(12) 0.0142(18) 0.6040(10)
F53? F 0.3293(11) 0.6290(16) 0.3690(9)
F54? F 0.2916(9) 0.5977(15) 0.4413(12)
F55? F 0.3596(12) 0.5278(12) 0.4198(12)
F56? F 0.4207(9) 0.6045(15) 0.3964(9)
F57? F 0.3566(11) 0.6700(11) 0.4196(10)
F58? F 0.3847(11) 0.5583(13) 0.4728(9)
F65? F 0.0774(13) 0.8111(14) 0.1323(11)
F66? F 0.0454(14) 0.7466(16) 0.2071(9)
F67? F -0.0356(12) 0.7345(14) 0.1694(12)
F68? F -0.0043(14) 0.7920(15) 0.0961(9)
F69? F 0.0639(15) 0.7024(13) 0.1469(12)
F70? F -0.0221(13) 0.8366(12) 0.1572(12)
loop_
_geom_bond_atom_site_label_1
_geom_bond_atom_site_label_2
_geom_bond_site_symmetry_1
_geom_bond_site_symmetry_2
Fe1 N4 1_555 1_555
Fe2 N2 1_555 1_555
Fe3 N10 1_555 1_555
Fe4 N16 1_555 1_555
N1 C1 1_555 1_555
N2 C10 1_555 1_555
N3 Fe2 1_555 1_555
N4 C19 1_555 1_555
N5 Fe1 1_555 1_555
N6 C32 1_555 1_555
O1 C1 1_555 1_555
O2 C4 1_555 1_555
O3 C33 1_555 1_555
O4 C36 1_555 1_555
C1 C2 1_555 1_555
C2 H1 1_555 1_555
C3 C2 1_555 1_555
H2 C3 1_555 1_555
C4 N1 1_555 1_555
C5 N1 1_555 1_555
H3 C5 1_555 1_555
H4 C5 1_555 1_555
C6 C5 1_555 1_555
H5 C6 1_555 1_555
H6 C6 1_555 1_555
C7 C6 1_555 1_555
C8 C7 1_555 1_555
H7 C8 1_555 1_555
C9 C8 1_555 1_555
H8 C9 1_555 1_555
C10 C9 1_555 1_555
C11 C10 1_555 1_555
H9 C11 1_555 1_555
C12 C7 1_555 1_555
H10 C12 1_555 1_555
C13 N2 1_555 1_555
H11 C13 1_555 1_555
C14 N3 1_555 1_555
C15 C14 1_555 1_555
H12 C15 1_555 1_555
C16 C15 1_555 1_555
H13 C16 1_555 1_555
C17 C16 1_555 1_555
C18 N3 1_555 1_555
H14 C18 1_555 1_555
C19 H15 1_555 1_555
C20 C17 1_555 1_555
C21 C20 1_555 1_555
H16 C21 1_555 1_555
C22 C21 1_555 1_555
H17 C22 1_555 1_555
C23 N4 1_555 1_555
C24 N5 1_555 1_555
H18 C24 1_555 1_555
C25 N5 1_555 1_555
C26 C25 1_555 1_555
H19 C26 1_555 1_555
C27 C26 1_555 1_555
H20 C27 1_555 1_555
C28 C27 1_555 1_555
C29 C28 1_555 1_555
H21 C29 1_555 1_555
C30 C25 1_555 1_555
H22 C30 1_555 1_555
C31 C28 1_555 1_555
H23 C31 1_555 1_555
H24 C31 1_555 1_555
C32 C31 1_555 1_555
H25 C32 1_555 1_555
H26 C32 1_555 1_555
C33 N6 1_555 1_555
C34 C33 1_555 1_555
H27 C34 1_555 1_555
C35 C34 1_555 1_555
H28 C35 1_555 1_555
C36 N6 1_555 1_555
N7 C37 1_555 1_555
N8 Fe1 1_555 1_555
N9 Fe1 1_555 1_555
N10 C55 1_555 1_555
N11 Fe3 1_555 1_555
N12 C68 1_555 1_555
O5 C37 1_555 1_555
O6 C40 1_555 1_555
O7 C69 1_555 1_555
O8 C72 1_555 1_555
C37 C38 1_555 1_555
C38 H29 1_555 1_555
C39 C38 1_555 1_555
H30 C39 1_555 1_555
C40 N7 1_555 1_555
C41 N7 1_555 1_555
H31 C41 1_555 1_555
H32 C41 1_555 1_555
C42 C41 1_555 1_555
H33 C42 1_555 1_555
H34 C42 1_555 1_555
C43 C42 1_555 1_555
C44 C43 1_555 1_555
H35 C44 1_555 1_555
C45 C44 1_555 1_555
H36 C45 1_555 1_555
C46 N8 1_555 1_555
C47 C46 1_555 1_555
H37 C47 1_555 1_555
C48 C43 1_555 1_555
H38 C48 1_555 1_555
C49 N8 1_555 1_555
H39 C49 1_555 1_555
C50 N9 1_555 1_555
C51 C50 1_555 1_555
H40 C51 1_555 1_555
C52 C51 1_555 1_555
H41 C52 1_555 1_555
C53 C52 1_555 1_555
C54 N9 1_555 1_555
H42 C54 1_555 1_555
C55 H43 1_555 1_555
C56 C53 1_555 1_555
C57 C56 1_555 1_555
H44 C57 1_555 1_555
C58 C57 1_555 1_555
H45 C58 1_555 1_555
C59 N10 1_555 1_555
C60 N11 1_555 1_555
H46 C60 1_555 1_555
C61 N11 1_555 1_555
C62 C61 1_555 1_555
H47 C62 1_555 1_555
C63 C62 1_555 1_555
H48 C63 1_555 1_555
C64 C63 1_555 1_555
C65 C64 1_555 1_555
H49 C65 1_555 1_555
C66 C61 1_555 1_555
H50 C66 1_555 1_555
C67 C64 1_555 1_555
H51 C67 1_555 1_555
H52 C67 1_555 1_555
C68 C67 1_555 1_555
H53 C68 1_555 1_555
H54 C68 1_555 1_555
C69 N12 1_555 1_555
C70 C69 1_555 1_555
H55 C70 1_555 1_555
C71 C70 1_555 1_555
H56 C71 1_555 1_555
C72 N12 1_555 1_555
N13 C73 1_555 1_555
N14 Fe1 1_555 1_555
N15 Fe1 1_555 1_555
N16 C91 1_555 1_555
N17 Fe4 1_555 1_555
N18 C104 1_555 1_555
O9 C73 1_555 1_555
O10 C76 1_555 1_555
O11 C105 1_555 1_555
O12 C108 1_555 1_555
C73 C74 1_555 1_555
C74 H57 1_555 1_555
C75 C74 1_555 1_555
H58 C75 1_555 1_555
C76 N13 1_555 1_555
C77 N13 1_555 1_555
H59 C77 1_555 1_555
H60 C77 1_555 1_555
C78 C77 1_555 1_555
H61 C78 1_555 1_555
H62 C78 1_555 1_555
C79 C78 1_555 1_555
C80 C79 1_555 1_555
H63 C80 1_555 1_555
C81 C80 1_555 1_555
H64 C81 1_555 1_555
C82 N14 1_555 1_555
C83 C82 1_555 1_555
H65 C83 1_555 1_555
C84 C79 1_555 1_555
H66 C84 1_555 1_555
C85 N14 1_555 1_555
H67 C85 1_555 1_555
C86 N15 1_555 1_555
C87 C86 1_555 1_555
H68 C87 1_555 1_555
C88 C87 1_555 1_555
H69 C88 1_555 1_555
C89 C88 1_555 1_555
C90 N15 1_555 1_555
H70 C90 1_555 1_555
C91 H71 1_555 1_555
C92 C89 1_555 1_555
C93 C92 1_555 1_555
H72 C93 1_555 1_555
C94 C93 1_555 1_555
H73 C94 1_555 1_555
C95 N16 1_555 1_555
C96 N17 1_555 1_555
H74 C96 1_555 1_555
C97 N17 1_555 1_555
C98 C97 1_555 1_555
H75 C98 1_555 1_555
C99 C98 1_555 1_555
H76 C99 1_555 1_555
C100 C99 1_555 1_555
C101 C100 1_555 1_555
H77 C101 1_555 1_555
C102 C97 1_555 1_555
H78 C102 1_555 1_555
C103 C100 1_555 1_555
H79 C103 1_555 1_555
H80 C103 1_555 1_555
C104 C103 1_555 1_555
H81 C104 1_555 1_555
H82 C104 1_555 1_555
C105 N18 1_555 1_555
C106 C105 1_555 1_555
H83 C106 1_555 1_555
C107 C106 1_555 1_555
H84 C107 1_555 1_555
C108 N18 1_555 1_555
N19 C109 1_555 1_555
N20 Fe2 1_555 1_555
N21 Fe2 1_555 1_555
N22 Fe4 1_555 1_555
N23 Fe4 1_555 1_555
N24 C140 1_555 1_555
O13 C109 1_555 1_555
O14 C112 1_555 1_555
O15 C141 1_555 1_555
O16 C144 1_555 1_555
C109 C110 1_555 1_555
C110 H85 1_555 1_555
C111 C110 1_555 1_555
H86 C111 1_555 1_555
C112 N19 1_555 1_555
C113 N19 1_555 1_555
H87 C113 1_555 1_555
H88 C113 1_555 1_555
C114 C113 1_555 1_555
H89 C114 1_555 1_555
H90 C114 1_555 1_555
C115 C114 1_555 1_555
C116 C115 1_555 1_555
H91 C116 1_555 1_555
C117 C116 1_555 1_555
H92 C117 1_555 1_555
C118 N20 1_555 1_555
C119 C118 1_555 1_555
H93 C119 1_555 1_555
C120 C115 1_555 1_555
H94 C120 1_555 1_555
C121 N20 1_555 1_555
H95 C121 1_555 1_555
C122 N21 1_555 1_555
C123 C122 1_555 1_555
H96 C123 1_555 1_555
C124 C123 1_555 1_555
H97 C124 1_555 1_555
C125 C124 1_555 1_555
C126 N21 1_555 1_555
H98 C126 1_555 1_555
C127 N22 1_555 1_555
H99 C127 1_555 1_555
C128 C125 1_555 1_555
C129 C128 1_555 1_555
H100 C129 1_555 1_555
C130 C129 1_555 1_555
H101 C130 1_555 1_555
C131 N22 1_555 1_555
C132 N23 1_555 1_555
H102 C132 1_555 1_555
C133 N23 1_555 1_555
C134 C133 1_555 1_555
H103 C134 1_555 1_555
C135 C134 1_555 1_555
H104 C135 1_555 1_555
C136 C135 1_555 1_555
C137 C136 1_555 1_555
H105 C137 1_555 1_555
C138 C133 1_555 1_555
H106 C138 1_555 1_555
C139 C136 1_555 1_555
H107 C139 1_555 1_555
H108 C139 1_555 1_555
C140 C139 1_555 1_555
H109 C140 1_555 1_555
H110 C140 1_555 1_555
C141 N24 1_555 1_555
C142 C141 1_555 1_555
H111 C142 1_555 1_555
C143 C142 1_555 1_555
H112 C143 1_555 1_555
C144 N24 1_555 1_555
N25 C145 1_555 1_555
N26 Fe3 1_555 1_555
N27 Fe3 1_555 1_555
N28 Fe2 1_555 1_555
N29 Fe2 1_555 1_555
N30 C176 1_555 1_555
O17 C145 1_555 1_555
O18 C148 1_555 1_555
O19 C177 1_555 1_555
O20 C180 1_555 1_555
C145 C146 1_555 1_555
C146 H113 1_555 1_555
C147 C146 1_555 1_555
H114 C147 1_555 1_555
C148 N25 1_555 1_555
C149 N25 1_555 1_555
H115 C149 1_555 1_555
H116 C149 1_555 1_555
C150 C149 1_555 1_555
H117 C150 1_555 1_555
H118 C150 1_555 1_555
C151 C150 1_555 1_555
C152 C151 1_555 1_555
H119 C152 1_555 1_555
C153 C152 1_555 1_555
H120 C153 1_555 1_555
C154 N26 1_555 1_555
C155 C154 1_555 1_555
H121 C155 1_555 1_555
C156 C151 1_555 1_555
H122 C156 1_555 1_555
C157 N26 1_555 1_555
H123 C157 1_555 1_555
C158 N27 1_555 1_555
C159 C158 1_555 1_555
H124 C159 1_555 1_555
C160 C159 1_555 1_555
H125 C160 1_555 1_555
C161 C160 1_555 1_555
C162 N27 1_555 1_555
H126 C162 1_555 1_555
C163 N28 1_555 1_555
H127 C163 1_555 1_555
C164 C161 1_555 1_555
C165 C164 1_555 1_555
H128 C165 1_555 1_555
C166 C165 1_555 1_555
H129 C166 1_555 1_555
C167 N28 1_555 1_555
C168 N29 1_555 1_555
H130 C168 1_555 1_555
C169 N29 1_555 1_555
C170 C169 1_555 1_555
H131 C170 1_555 1_555
C171 C170 1_555 1_555
H132 C171 1_555 1_555
C172 C171 1_555 1_555
C173 C172 1_555 1_555
H133 C173 1_555 1_555
C174 C169 1_555 1_555
H134 C174 1_555 1_555
C175 C172 1_555 1_555
H135 C175 1_555 1_555
H136 C175 1_555 1_555
C176 C175 1_555 1_555
H137 C176 1_555 1_555
H138 C176 1_555 1_555
C177 N30 1_555 1_555
C178 C177 1_555 1_555
H139 C178 1_555 1_555
C179 C178 1_555 1_555
H140 C179 1_555 1_555
C180 N30 1_555 1_555
N31 C181 1_555 1_555
N32 Fe3 1_555 1_555
N33 Fe3 1_555 1_555
N34 Fe4 1_555 1_555
N35 Fe4 1_555 1_555
N36 C212 1_555 1_555
O21 C181 1_555 1_555
O22 C184 1_555 1_555
O23 C213 1_555 1_555
O24 C216 1_555 1_555
C181 C182 1_555 1_555
C182 H141 1_555 1_555
C183 C182 1_555 1_555
H142 C183 1_555 1_555
C184 N31 1_555 1_555
C185 N31 1_555 1_555
H143 C185 1_555 1_555
H144 C185 1_555 1_555
C186 C185 1_555 1_555
H145 C186 1_555 1_555
H146 C186 1_555 1_555
C187 C186 1_555 1_555
C188 C187 1_555 1_555
H147 C188 1_555 1_555
C189 C188 1_555 1_555
H148 C189 1_555 1_555
C190 N32 1_555 1_555
C191 C190 1_555 1_555
H149 C191 1_555 1_555
C192 C187 1_555 1_555
H150 C192 1_555 1_555
C193 N32 1_555 1_555
H151 C193 1_555 1_555
C194 N33 1_555 1_555
C195 C194 1_555 1_555
H152 C195 1_555 1_555
C196 C195 1_555 1_555
H153 C196 1_555 1_555
C197 C196 1_555 1_555
C198 N33 1_555 1_555
H154 C198 1_555 1_555
C199 N34 1_555 1_555
H155 C199 1_555 1_555
C200 C197 1_555 1_555
C201 C200 1_555 1_555
H156 C201 1_555 1_555
C202 C201 1_555 1_555
H157 C202 1_555 1_555
C203 N34 1_555 1_555
C204 N35 1_555 1_555
H158 C204 1_555 1_555
C205 N35 1_555 1_555
C206 C205 1_555 1_555
H159 C206 1_555 1_555
C207 C206 1_555 1_555
H160 C207 1_555 1_555
C208 C207 1_555 1_555
C209 C208 1_555 1_555
H161 C209 1_555 1_555
C210 C205 1_555 1_555
H162 C210 1_555 1_555
C211 C208 1_555 1_555
H163 C211 1_555 1_555
H164 C211 1_555 1_555
C212 C211 1_555 1_555
H165 C212 1_555 1_555
H166 C212 1_555 1_555
C213 N36 1_555 1_555
C214 C213 1_555 1_555
H167 C214 1_555 1_555
C215 C214 1_555 1_555
H168 C215 1_555 1_555
C216 N36 1_555 1_555
P1 F1 1_555 1_555
F2 P1 1_555 1_555
F3 P1 1_555 1_555
F4 P1 1_555 1_555
F5 P1 1_555 1_555
F6 P1 1_555 1_555
P2 F13 1_555 1_555
F14 P2 1_555 1_555
F15 P2 1_555 1_555
F16 P2 1_555 1_555
F17 P2 1_555 1_555
F18 P2 1_555 1_555
P3 F25 1_555 1_555
F26 P3 1_555 1_555
F27 P3 1_555 1_555
F28 P3 1_555 1_555
F29 P3 1_555 1_555
F30 P3 1_555 1_555
P4 F37 1_555 1_555
F38 P4 1_555 1_555
F39 P4 1_555 1_555
F40 P4 1_555 1_555
F41 P4 1_555 1_555
F42 P4 1_555 1_555
P5 F47 1_555 1_555
F48 P5 1_555 1_555
F49 P5 1_555 1_555
F50 P5 1_555 1_555
F51 P5 1_555 1_555
F52 P5 1_555 1_555
P6 F59 1_555 1_555
F60 P6 1_555 1_555
F61 P6 1_555 1_555
F62 P6 1_555 1_555
F63 P6 1_555 1_555
F64 P6 1_555 1_555
P7 F71 1_555 1_555
F72 P7 1_555 1_555
F73 P7 1_555 1_555
F74 P7 1_555 1_555
F75 P7 1_555 1_555
F76 P7 1_555 1_555
P8 F77 1_555 1_555
F78 P8 1_555 1_555
F79 P8 1_555 1_555
N37 C217 1_555 1_555
C217 C218 1_555 1_555
C218 H169 1_555 1_555
H170 C218 1_555 1_555
H171 C218 1_555 1_555
N38 C219 1_555 1_555
C219 C220 1_555 1_555
C220 H172 1_555 1_555
H173 C220 1_555 1_555
H174 C220 1_555 1_555
N39 C221 1_555 1_555
C221 C222 1_555 1_555
C222 H175 1_555 1_555
H176 C222 1_555 1_555
H177 C222 1_555 1_555
N40 C223 1_555 1_555
C223 C224 1_555 1_555
C224 H178 1_555 1_555
H179 C224 1_555 1_555
H180 C224 1_555 1_555
N41 C225 1_555 1_555
C225 C226 1_555 1_555
C226 H181 1_555 1_555
H182 C226 1_555 1_555
H183 C226 1_555 1_555
N42 C227 1_555 1_555
C227 C228 1_555 1_555
C228 H184 1_555 1_555
H185 C228 1_555 1_555
H186 C228 1_555 1_555
N43 C229 1_555 1_555
C229 C230 1_555 1_555
C230 H187 1_555 1_555
H188 C230 1_555 1_555
H189 C230 1_555 1_555
N44 C231 1_555 1_555
C231 C232 1_555 1_555
C232 H190 1_555 1_555
H191 C232 1_555 1_555
H192 C232 1_555 1_555
O25 C233 1_555 1_555
C233 H193 1_555 1_555
C234 C233 1_555 1_555
H194 C234 1_555 1_555
H195 C234 1_555 1_555
H196 C234 1_555 1_555
C235 C233 1_555 1_555
H197 C235 1_555 1_555
H198 C235 1_555 1_555
H199 C235 1_555 1_555
C236 O25 1_555 1_555
H200 C236 1_555 1_555
C237 C236 1_555 1_555
H201 C237 1_555 1_555
H202 C237 1_555 1_555
H203 C237 1_555 1_555
C238 C236 1_555 1_555
H204 C238 1_555 1_555
H205 C238 1_555 1_555
H206 C238 1_555 1_555
F77A P8 1_555 1_555
F78A P8 1_555 1_555
F79A P8 1_555 1_555
C3 C4 1_555 1_555
C11 C12 1_555 1_555
C13 C14 1_555 1_555
C17 C18 1_555 1_555
C19 C20 1_555 1_555
C22 C23 1_555 1_555
C23 C24 1_555 1_555
C29 C30 1_555 1_555
C35 C36 1_555 1_555
C39 C40 1_555 1_555
C45 C46 1_555 1_555
C47 C48 1_555 1_555
C49 C50 1_555 1_555
C53 C54 1_555 1_555
C55 C56 1_555 1_555
C58 C59 1_555 1_555
C59 C60 1_555 1_555
C65 C66 1_555 1_555
C71 C72 1_555 1_555
C75 C76 1_555 1_555
C81 C82 1_555 1_555
C83 C84 1_555 1_555
C85 C86 1_555 1_555
C89 C90 1_555 1_555
C91 C92 1_555 1_555
C94 C95 1_555 1_555
C95 C96 1_555 1_555
C101 C102 1_555 1_555
C107 C108 1_555 1_555
C111 C112 1_555 1_555
C117 C118 1_555 1_555
C119 C120 1_555 1_555
C121 C122 1_555 1_555
C125 C126 1_555 1_555
C127 C128 1_555 1_555
C130 C131 1_555 1_555
C131 C132 1_555 1_555
C137 C138 1_555 1_555
C143 C144 1_555 1_555
C147 C148 1_555 1_555
C153 C154 1_555 1_555
C155 C156 1_555 1_555
C157 C158 1_555 1_555
C161 C162 1_555 1_555
C163 C164 1_555 1_555
C166 C167 1_555 1_555
C167 C168 1_555 1_555
C173 C174 1_555 1_555
C179 C180 1_555 1_555
C183 C184 1_555 1_555
C189 C190 1_555 1_555
C191 C192 1_555 1_555
C193 C194 1_555 1_555
C197 C198 1_555 1_555
C199 C200 1_555 1_555
C202 C203 1_555 1_555
C203 C204 1_555 1_555
C209 C210 1_555 1_555
C215 C216 1_555 1_555

#END
