
#######################################################################
#
#                 Cambridge Crystallographic Data Centre
#                                CCDC 
#
#######################################################################
#
# If this CIF has been generated from an entry in the Cambridge 
# Structural Database, then it will include bibliographic, chemical, 
# crystal, experimental, refinement or atomic coordinate data resulting 
# from the CCDC's data processing and validation procedures.
#
#######################################################################

data_WAYDOS
_chemical_formula_moiety         
'C276 H240 Fe4 N36 O24 8+,8(As1 F6 1-),1.5(C2 H3 N1)'
_chemical_name_systematic        
"hexakis(\m-2,2'-[[3,3'-bipyridine]-6,6'-diylbis(methylylideneazanylylidene-4,1-phenyleneethane-2,1-diyl)]bis(3a,4,7,7a-tetrahydro-1H-4,7-methanoisoindole-1,3(2H)-dione))-tetra-iron(ii) octakis(hexafluoroarsenate) acetonitrile unknown solvate"
_symmetry_cell_setting           monoclinic
_symmetry_space_group_name_H-M   'C 2/c'
_symmetry_Int_Tables_number      15
_space_group_name_Hall           '-C 2yn'
loop_
_symmetry_equiv_pos_site_id
_symmetry_equiv_pos_as_xyz
1 x,y,z
2 -x,y,1/2-z
3 1/2+x,1/2+y,z
4 1/2-x,1/2+y,1/2-z
5 -x,-y,-z
6 x,-y,1/2+z
7 1/2-x,1/2-y,-z
8 1/2+x,1/2-y,1/2+z
_cell_length_a                   53.942(2)
_cell_length_b                   28.5390(7)
_cell_length_c                   41.2325(15)
_cell_angle_alpha                90
_cell_angle_beta                 90.231(3)
_cell_angle_gamma                90
_cell_volume                     63474.9
_exptl_crystal_colour            purple
_exptl_crystal_description       block
_cell_formula_units_Z            8
loop_
_atom_site_label
_atom_site_type_symbol
_atom_site_fract_x
_atom_site_fract_y
_atom_site_fract_z
Fe1 Fe 0.35601(4) 0.30471(6) 0.44891(5)
Fe2 Fe 0.41325(4) 0.61854(6) 0.45535(4)
Fe3 Fe 0.33750(4) 0.48369(7) 0.64010(4)
Fe4 Fe 0.23989(4) 0.55245(6) 0.45364(4)
O1 O 0.15077(19) 0.7565(3) 0.5428(2)
O2 O 0.1372(2) 0.6247(3) 0.6010(2)
O3 O 0.5624(3) 0.5872(6) 0.3452(5)
O4 O 0.4856(3) 0.5817(7) 0.3005(4)
N1 N 0.14198(16) 0.6852(3) 0.5653(2)
N2 N 0.22455(16) 0.6089(3) 0.4731(2)
N3 N 0.26951(16) 0.5951(3) 0.45328(19)
N4 N 0.37985(16) 0.6158(3) 0.43400(19)
N5 N 0.42388(17) 0.6224(3) 0.4095(2)
N6 N 0.5228(2) 0.5939(4) 0.3260(3)
C1 C 0.1553(2) 0.7266(3) 0.5630(2)
C2 C 0.1759(2) 0.7256(4) 0.5874(2)
H1 H 0.1922 0.7242 0.5760
C3 C 0.1717(2) 0.6797(4) 0.6066(2)
H2 H 0.1861 0.6580 0.6036
C4 C 0.1487(2) 0.6587(3) 0.5921(2)
C5 C 0.1768(3) 0.7636(4) 0.6143(3)
H3 H 0.1843 0.7942 0.6080
C6 C 0.1513(3) 0.7658(5) 0.6288(3)
H4 H 0.1399 0.7909 0.6267
C7 C 0.1477(2) 0.7265(5) 0.6450(3)
H5 H 0.1331 0.7183 0.6566
C8 C 0.1707(3) 0.6970(4) 0.6420(3)
H6 H 0.1731 0.6725 0.6591
C9 C 0.1904(2) 0.7362(5) 0.6411(3)
H7 H 0.1917 0.7538 0.6617
H8 H 0.2070 0.7248 0.6343
C10 C 0.1223(2) 0.6727(4) 0.5427(3)
H9 H 0.1209 0.6975 0.5260
H10 H 0.1064 0.6714 0.5546
C11 C 0.1266(2) 0.6258(4) 0.5260(3)
H11 H 0.1240 0.6003 0.5419
H12 H 0.1142 0.6219 0.5085
C12 C 0.15228(18) 0.6211(4) 0.5119(3)
C13 C 0.17123(19) 0.6002(4) 0.5290(3)
H13 H 0.1680 0.5885 0.5502
C14 C 0.1948(2) 0.5956(4) 0.5163(2)
H14 H 0.2075 0.5805 0.5286
C15 C 0.20013(16) 0.6131(3) 0.4857(2)
C16 C 0.18137(19) 0.6344(4) 0.4683(3)
H15 H 0.1846 0.6470 0.4474
C17 C 0.15777(19) 0.6377(5) 0.4813(3)
H16 H 0.1450 0.6518 0.4687
C18 C 0.23854(15) 0.6443(4) 0.4765(2)
H17 H 0.2328 0.6731 0.4852
C19 C 0.26395(15) 0.6376(3) 0.4661(2)
C20 C 0.28190(17) 0.6718(3) 0.4693(2)
H18 H 0.2780 0.7013 0.4786
C21 C 0.30574(17) 0.6624(3) 0.4587(2)
H19 H 0.3184 0.6851 0.4617
C22 C 0.31121(16) 0.6203(3) 0.4439(2)
C23 C 0.29265(17) 0.5870(3) 0.4425(2)
H20 H 0.2964 0.5571 0.4336
C24 C 0.35741(17) 0.6172(3) 0.4473(3)
H21 H 0.3563 0.6229 0.4700
C25 C 0.33596(17) 0.6110(3) 0.4304(2)
C26 C 0.33814(18) 0.6026(4) 0.3970(2)
H22 H 0.3238 0.5965 0.3843
C27 C 0.36117(17) 0.6031(4) 0.3827(2)
H23 H 0.3626 0.5986 0.3600
C28 C 0.38212(15) 0.6103(3) 0.4015(2)
C29 C 0.40693(17) 0.6148(4) 0.3886(3)
H24 H 0.4103 0.6124 0.3661
C30 C 0.44800(17) 0.6305(4) 0.3971(3)
C31 C 0.4670(2) 0.5989(4) 0.4012(3)
H25 H 0.4639 0.5698 0.4117
C32 C 0.4907(2) 0.6091(5) 0.3899(3)
H26 H 0.5037 0.5871 0.3931
C33 C 0.4954(2) 0.6507(5) 0.3742(3)
C34 C 0.4759(2) 0.6816(5) 0.3688(4)
H27 H 0.4788 0.7098 0.3571
C35 C 0.4524(2) 0.6716(4) 0.3802(4)
H28 H 0.4392 0.6931 0.3764
C36 C 0.5209(2) 0.6624(6) 0.3616(4)
H29 H 0.5337 0.6469 0.3752
H30 H 0.5236 0.6967 0.3626
C37 C 0.5230(4) 0.6453(5) 0.3263(4)
H31 H 0.5089 0.6574 0.3133
H32 H 0.5386 0.6570 0.3166
C38 C 0.5429(3) 0.5689(5) 0.3378(4)
C39 C 0.5363(3) 0.5174(5) 0.3371(4)
H33 H 0.5362 0.5036 0.3594
C40 C 0.5105(3) 0.5153(5) 0.3210(4)
H34 H 0.4980 0.5002 0.3354
C41 C 0.5041(2) 0.5660(5) 0.3141(4)
C42 C 0.5532(3) 0.4892(6) 0.3138(4)
H35 H 0.5695 0.4783 0.3228
C43 C 0.5541(3) 0.5172(7) 0.2830(5)
H36 H 0.5680 0.5339 0.2750
C44 C 0.5321(4) 0.5146(7) 0.2688(4)
H37 H 0.5275 0.5287 0.2488
C45 C 0.5155(3) 0.4852(6) 0.2901(5)
H38 H 0.5007 0.4710 0.2793
C46 C 0.5346(4) 0.4508(6) 0.3039(5)
H39 H 0.5413 0.4292 0.2873
H40 H 0.5283 0.4328 0.3226
O5 O 0.2196(3) 0.4636(5) 0.7230(2)
O6 O 0.2170(3) 0.5031(4) 0.8298(2)
N7 N 0.2201(2) 0.4931(4) 0.7751(2)
N8 N 0.3081(2) 0.4591(4) 0.6637(2)
N9 N 0.33134(17) 0.4266(3) 0.6135(2)
N10 N 0.36360(18) 0.3241(3) 0.4943(2)
N11 N 0.3897(2) 0.2795(4) 0.4526(3)
C47 C 0.2145(2) 0.4604(5) 0.7515(2)
C48 C 0.1994(3) 0.4215(4) 0.7668(3)
H41 H 0.2072 0.3899 0.7639
C49 C 0.1972(3) 0.4357(5) 0.8026(3)
H42 H 0.2036 0.4107 0.8174
C50 C 0.2121(3) 0.4801(5) 0.8056(2)
C51 C 0.1718(3) 0.4232(6) 0.7547(4)
H43 H 0.1682 0.4064 0.7339
C52 C 0.1640(4) 0.4740(6) 0.7559(4)
H44 H 0.1612 0.4939 0.7378
C53 C 0.1617(3) 0.4859(6) 0.7869(5)
H45 H 0.1568 0.5157 0.7949
C54 C 0.1685(3) 0.4436(6) 0.8071(4)
H46 H 0.1623 0.4436 0.8299
C55 C 0.1586(4) 0.4043(6) 0.7851(4)
H47 H 0.1403 0.4044 0.7830
H48 H 0.1645 0.3728 0.7916
C56 C 0.2321(3) 0.5382(5) 0.7702(4)
H49 H 0.2249 0.5610 0.7857
H50 H 0.2282 0.5493 0.7481
C57 C 0.2601(3) 0.5383(6) 0.7745(3)
H51 H 0.2657 0.5709 0.7782
H52 H 0.2644 0.5198 0.7940
C58 C 0.2735(2) 0.5184(4) 0.7456(2)
C59 C 0.2832(3) 0.4737(5) 0.7466(3)
H53 H 0.2819 0.4560 0.7661
C60 C 0.2946(3) 0.4538(4) 0.7199(3)
H54 H 0.3010 0.4229 0.7211
C61 C 0.2965(2) 0.4792(4) 0.6913(2)
C62 C 0.2870(2) 0.5243(4) 0.6903(2)
H55 H 0.2883 0.5421 0.6709
C63 C 0.2758(2) 0.5437(4) 0.7172(2)
H56 H 0.2695 0.5748 0.7162
C64 C 0.2981(2) 0.4222(4) 0.6513(2)
H57 H 0.2835 0.4084 0.6598
C65 C 0.31084(19) 0.4035(3) 0.6231(2)
C66 C 0.3029(2) 0.3644(4) 0.6062(3)
H58 H 0.2882 0.3485 0.6125
C67 C 0.3165(2) 0.3486(4) 0.5798(3)
H59 H 0.3106 0.3231 0.5672
C68 C 0.33840(19) 0.3696(4) 0.5721(2)
C69 C 0.3447(2) 0.4100(4) 0.5887(2)
H60 H 0.3591 0.4267 0.5822
C70 C 0.3486(2) 0.3430(4) 0.5164(2)
H61 H 0.3320 0.3494 0.5101
C71 C 0.35550(19) 0.3536(4) 0.5473(2)
C72 C 0.3800(2) 0.3431(4) 0.5559(3)
H62 H 0.3859 0.3497 0.5771
C73 C 0.3956(2) 0.3232(4) 0.5334(2)
H63 H 0.4123 0.3163 0.5392
C74 C 0.3872(2) 0.3134(4) 0.5025(2)
C75 C 0.4018(2) 0.2884(4) 0.4786(3)
H64 H 0.4186 0.2796 0.4820
O7 O 0.4631(7) 0.2404(8) 0.2837(8)
O8 O 0.4783(7) 0.1018(11) 0.3365(5)
N12 N 0.4690(4) 0.1753(8) 0.3162(4)
C76 C 0.4028(3) 0.2533(6) 0.4291(4)
C77 C 0.4094(3) 0.2077(6) 0.4370(4)
H65 H 0.4053 0.1951 0.4576
C78 C 0.4220(4) 0.1806(6) 0.4146(4)
H66 H 0.4264 0.1492 0.4197
C79 C 0.4282(3) 0.1993(7) 0.3848(4)
C80 C 0.4218(4) 0.2447(7) 0.3768(4)
H67 H 0.4261 0.2572 0.3562
C81 C 0.4089(3) 0.2719(6) 0.3993(4)
H68 H 0.4043 0.3031 0.3940
C82 C 0.4430(5) 0.1688(8) 0.3620(6)
H69 H 0.4324 0.1587 0.3437
H70 H 0.4488 0.1404 0.3737
C83 C 0.4655(5) 0.1958(11) 0.3489(6)
H71 H 0.4620 0.2298 0.3476
H72 H 0.4803 0.1908 0.3627
C84 C 0.4661(4) 0.1981(8) 0.2871(5)
C85 C 0.4683(2) 0.1624(8) 0.2602(4)
H73 H 0.4811 0.1718 0.2440
C86 C 0.4757(3) 0.1161(8) 0.2783(3)
H74 H 0.4934 0.1093 0.2730
C87 C 0.4744(4) 0.1280(8) 0.3135(3)
C88 C 0.4436(4) 0.1474(9) 0.2434(7)
H75 H 0.4364 0.1705 0.2277
C89 C 0.4255(3) 0.1240(10) 0.2658(8)
H76 H 0.4098 0.1367 0.2715
C90 C 0.4341(5) 0.0840(11) 0.2763(8)
H77 H 0.4260 0.0624 0.2902
C91 C 0.4597(5) 0.0791(8) 0.2617(7)
H78 H 0.4667 0.0467 0.2611
C92 C 0.4542(4) 0.1021(11) 0.2283(5)
H79 H 0.4693 0.1076 0.2154
H80 H 0.4417 0.0845 0.2155
O9 O 0.2553(2) 0.0426(4) 0.3661(2)
O10 O 0.3367(2) 0.0233(4) 0.3391(4)
O11 O 0.4956(4) 0.7352(6) 0.6134(5)
O12 O 0.5501(3) 0.6563(5) 0.5499(4)
N13 N 0.29737(18) 0.0415(3) 0.3571(2)
N14 N 0.3494(2) 0.2897(3) 0.4030(2)
N15 N 0.37016(18) 0.3624(3) 0.4285(2)
N16 N 0.41782(16) 0.5488(3) 0.4533(2)
N17 N 0.44639(18) 0.6144(3) 0.4751(3)
N18 N 0.5221(3) 0.7022(5) 0.5763(3)
C93 C 0.27360(19) 0.0237(3) 0.3557(3)
C94 C 0.2745(2) -0.0228(3) 0.3382(3)
H81 H 0.2637 -0.0225 0.3184
C95 C 0.3018(2) -0.0295(3) 0.3293(3)
H82 H 0.3039 -0.0330 0.3053
C96 C 0.31466(19) 0.0141(3) 0.3417(3)
C97 C 0.2687(2) -0.0662(4) 0.3600(3)
H83 H 0.2508 -0.0743 0.3628
C98 C 0.2839(3) -0.0603(5) 0.3907(3)
H84 H 0.2776 -0.0540 0.4117
C99 C 0.3074(3) -0.0654(5) 0.3833(3)
H85 H 0.3210 -0.0635 0.3980
C100 C 0.3091(2) -0.0750(4) 0.3474(3)
H86 H 0.3246 -0.0907 0.3399
C101 C 0.2849(3) -0.1028(4) 0.3426(3)
H87 H 0.2851 -0.1335 0.3538
H88 H 0.2804 -0.1068 0.3195
C102 C 0.3036(3) 0.0862(4) 0.3727(3)
H89 H 0.3193 0.0829 0.3849
H90 H 0.2904 0.0948 0.3882
C103 C 0.3063(3) 0.1247(4) 0.3473(3)
H91 H 0.3170 0.1137 0.3294
H92 H 0.2898 0.1327 0.3381
C104 C 0.3177(3) 0.1674(4) 0.3631(3)
C105 C 0.3430(3) 0.1710(4) 0.3678(4)
H93 H 0.3534 0.1457 0.3617
C106 C 0.3535(2) 0.2107(4) 0.3814(4)
H94 H 0.3709 0.2124 0.3845
C107 C 0.3385(2) 0.2481(3) 0.3904(3)
C108 C 0.3134(2) 0.2441(4) 0.3863(4)
H95 H 0.3029 0.2692 0.3927
C109 C 0.3029(2) 0.2042(4) 0.3730(4)
H96 H 0.2854 0.2021 0.3707
C110 C 0.3534(2) 0.3227(3) 0.3828(3)
H97 H 0.3491 0.3203 0.3605
C111 C 0.36490(19) 0.3642(3) 0.3964(2)
C112 C 0.3715(2) 0.4031(3) 0.3785(2)
H98 H 0.3671 0.4052 0.3561
C113 C 0.3844(2) 0.4391(4) 0.3934(2)
H99 H 0.3883 0.4666 0.3816
C114 C 0.39174(18) 0.4352(3) 0.4255(2)
C115 C 0.3835(2) 0.3967(3) 0.4426(3)
H100 H 0.3875 0.3943 0.4650
C116 C 0.4027(2) 0.5169(3) 0.4406(3)
H101 H 0.3879 0.5273 0.4302
C117 C 0.40724(18) 0.4698(3) 0.4418(2)
C118 C 0.42925(19) 0.4553(3) 0.4566(3)
H102 H 0.4331 0.4229 0.4580
C119 C 0.4455(2) 0.4881(3) 0.4693(3)
H103 H 0.4605 0.4786 0.4792
C120 C 0.43933(18) 0.5354(3) 0.4673(2)
C121 C 0.4550(2) 0.5731(3) 0.4792(3)
H104 H 0.4705 0.5674 0.4893
C122 C 0.4604(2) 0.6517(4) 0.4892(3)
C123 C 0.4558(3) 0.6648(5) 0.5212(3)
H105 H 0.4432 0.6492 0.5332
C124 C 0.4693(3) 0.7003(5) 0.5355(4)
H106 H 0.4657 0.7091 0.5572
C125 C 0.4880(3) 0.7234(5) 0.5191(4)
C126 C 0.4925(3) 0.7106(5) 0.4873(4)
H107 H 0.5052 0.7263 0.4754
C127 C 0.4789(3) 0.6753(5) 0.4723(3)
H108 H 0.4821 0.6672 0.4504
C128 C 0.5028(3) 0.7604(5) 0.5369(5)
H109 H 0.4917 0.7763 0.5524
H110 H 0.5082 0.7842 0.5210
C129 C 0.5256(3) 0.7435(6) 0.5555(5)
H111 H 0.5388 0.7363 0.5396
H112 H 0.5317 0.7696 0.5692
C130 C 0.5068(3) 0.7007(5) 0.6031(4)
C131 C 0.5058(3) 0.6510(6) 0.6152(4)
H113 H 0.4891 0.6370 0.6112
C132 C 0.5259(4) 0.6249(5) 0.5954(4)
H114 H 0.5182 0.5978 0.5836
C133 C 0.5348(3) 0.6606(5) 0.5714(4)
C134 C 0.5142(4) 0.6421(8) 0.6510(4)
H115 H 0.5013 0.6467 0.6680
C135 C 0.5379(5) 0.6691(8) 0.6557(6)
H116 H 0.5399 0.6966 0.6684
C136 C 0.5553(4) 0.6478(9) 0.6391(6)
H117 H 0.5722 0.6570 0.6380
C137 C 0.5440(4) 0.6064(7) 0.6220(5)
H118 H 0.5558 0.5813 0.6151
C138 C 0.5250(5) 0.5923(7) 0.6482(6)
H119 H 0.5128 0.5690 0.6404
H120 H 0.5329 0.5813 0.6686
O13 O 0.3885(3) 0.2494(7) 0.7302(4)
O14 O 0.3926(3) 0.3232(5) 0.8282(3)
N19 N 0.3849(2) 0.2894(4) 0.7784(3)
N20 N 0.3630(2) 0.4474(4) 0.6634(2)
N21 N 0.36644(17) 0.5017(3) 0.6137(2)
N22 N 0.39985(17) 0.6167(3) 0.5001(2)
N23 N 0.40985(19) 0.6865(3) 0.4628(2)
C139 C 0.3979(3) 0.2674(5) 0.7539(3)
C140 C 0.4252(2) 0.2705(6) 0.7617(4)
H121 H 0.4330 0.2388 0.7639
C141 C 0.4265(2) 0.2987(6) 0.7940(3)
H122 H 0.4353 0.2806 0.8114
C142 C 0.3998(2) 0.3071(5) 0.8027(3)
C143 C 0.4399(3) 0.3022(7) 0.7381(4)
H123 H 0.4460 0.2868 0.7179
C144 C 0.4244(4) 0.3454(8) 0.7334(5)
H124 H 0.4154 0.3536 0.7144
C145 C 0.4254(4) 0.3699(6) 0.7607(6)
H125 H 0.4176 0.3991 0.7646
C146 C 0.4412(3) 0.3430(7) 0.7843(4)
H126 H 0.4484 0.3616 0.8026
C147 C 0.4600(3) 0.3203(8) 0.7614(5)
H127 H 0.4696 0.2948 0.7718
H128 H 0.4713 0.3433 0.7512
C148 C 0.3578(3) 0.2898(6) 0.7791(4)
H129 H 0.3521 0.2742 0.7992
H130 H 0.3514 0.2715 0.7604
C149 C 0.3472(4) 0.3386(6) 0.7777(4)
H131 H 0.3544 0.3572 0.7957
H132 H 0.3291 0.3367 0.7811
C150 C 0.3520(3) 0.3640(5) 0.7461(3)
C151 C 0.3606(4) 0.4094(6) 0.7483(3)
H133 H 0.3642 0.4223 0.7690
C152 C 0.3639(4) 0.4365(5) 0.7210(3)
H134 H 0.3693 0.4680 0.7230
C153 C 0.3593(2) 0.4177(5) 0.6906(2)
C154 C 0.3516(4) 0.3716(5) 0.6881(3)
H135 H 0.3490 0.3581 0.6674
C155 C 0.3478(4) 0.3451(5) 0.7159(3)
H136 H 0.3421 0.3137 0.7140
C156 C 0.3846(2) 0.4465(4) 0.6501(3)
H137 H 0.3978 0.4276 0.6579
C157 C 0.38700(18) 0.4770(3) 0.6220(2)
C158 C 0.4087(2) 0.4822(4) 0.6047(3)
H138 H 0.4227 0.4632 0.6096
C159 C 0.4099(2) 0.5154(4) 0.5802(3)
H139 H 0.4245 0.5186 0.5676
C160 C 0.38970(19) 0.5438(3) 0.5742(2)
C161 C 0.36796(19) 0.5341(4) 0.5902(2)
H140 H 0.3534 0.5510 0.5845
C162 C 0.3977(2) 0.5798(4) 0.5200(2)
H141 H 0.4025 0.5500 0.5120
C163 C 0.38899(19) 0.5823(3) 0.5512(2)
C164 C 0.3822(2) 0.6268(3) 0.5623(3)
H142 H 0.3759 0.6306 0.5836
C165 C 0.3848(2) 0.6652(4) 0.5422(2)
H143 H 0.3803 0.6954 0.5497
C166 C 0.39387(19) 0.6598(3) 0.5112(2)
C167 C 0.3997(2) 0.6986(3) 0.4898(3)
H144 H 0.3964 0.7303 0.4953
O15 O 0.3985(7) 0.7919(12) 0.3177(11)
O16 O 0.4486(7) 0.9199(14) 0.3141(12)
N24 N 0.4274(5) 0.8506(10) 0.3198(5)
C168 C 0.4161(4) 0.7240(6) 0.4414(5)
C169 C 0.4343(5) 0.7560(9) 0.4508(5)
H145 H 0.4421 0.7530 0.4714
C170 C 0.4408(5) 0.7922(9) 0.4302(6)
H146 H 0.4535 0.8134 0.4367
C171 C 0.4293(5) 0.7982(8) 0.4004(5)
C172 C 0.4112(5) 0.7666(9) 0.3914(5)
H147 H 0.4030 0.7702 0.3711
C173 C 0.4047(5) 0.7298(8) 0.4117(6)
H148 H 0.3922 0.7083 0.4050
C174 C 0.4362(7) 0.8398(9) 0.3795(6)
H149 H 0.4220 0.8617 0.3792
H150 H 0.4503 0.8562 0.3900
C175 C 0.4434(6) 0.8296(13) 0.3449(6)
H151 H 0.4605 0.8408 0.3415
H152 H 0.4434 0.7952 0.3417
C176 C 0.4066(5) 0.8286(9) 0.3076(7)
C177 C 0.3963(7) 0.8574(10) 0.2800(7)
H153 H 0.3987 0.8411 0.2588
C178 C 0.4114(6) 0.9035(12) 0.2814(8)
H154 H 0.4188 0.9107 0.2598
C179 C 0.4313(5) 0.8944(10) 0.3064(7)
C180 C 0.3689(6) 0.8733(11) 0.2841(13)
H155 H 0.3558 0.8513 0.2761
C181 C 0.3672(8) 0.888(2) 0.3192(12)
H156 H 0.3583 0.8726 0.3358
C182 C 0.3802(10) 0.927(2) 0.3226(10)
H157 H 0.3825 0.9438 0.3422
C183 C 0.3910(7) 0.9398(10) 0.2900(13)
H158 H 0.3956 0.9735 0.2871
C184 C 0.3699(8) 0.9217(11) 0.2678(11)
H159 H 0.3544 0.9397 0.2702
H160 H 0.3748 0.9201 0.2447
O17 O 0.1987(4) 0.6835(4) 0.2923(4)
O18 O 0.1762(4) 0.8210(5) 0.3395(4)
N25 N 0.1825(3) 0.7479(4) 0.3183(3)
N26 N 0.23317(18) 0.5712(3) 0.4081(2)
N27 N 0.25834(17) 0.5013(3) 0.43116(18)
N28 N 0.32179(18) 0.3308(3) 0.4496(2)
N29 N 0.3384(2) 0.2502(3) 0.4676(3)
C185 C 0.1979(3) 0.7256(4) 0.2964(4)
C186 C 0.2131(3) 0.7624(5) 0.2791(4)
H161 H 0.2098 0.7618 0.2552
C187 C 0.2049(3) 0.8095(5) 0.2942(4)
H162 H 0.1978 0.8314 0.2776
C188 C 0.1861(3) 0.7957(4) 0.3197(4)
C189 C 0.2414(3) 0.7600(6) 0.2864(4)
H163 H 0.2514 0.7379 0.2729
C190 C 0.2431(4) 0.7540(6) 0.3227(5)
H164 H 0.2482 0.7265 0.3339
C191 C 0.2360(4) 0.7944(7) 0.3361(4)
H165 H 0.2353 0.8006 0.3587
C192 C 0.2295(4) 0.8286(5) 0.3095(5)
H166 H 0.2298 0.8626 0.3154
C193 C 0.2481(4) 0.8126(6) 0.2840(5)
H167 H 0.2655 0.8192 0.2903
H168 H 0.2446 0.8259 0.2622
C194 C 0.1634(3) 0.7243(6) 0.3371(3)
H169 H 0.1614 0.6920 0.3287
H170 H 0.1475 0.7409 0.3338
C195 C 0.1690(3) 0.7220(5) 0.3730(3)
H171 H 0.1534 0.7173 0.3851
H172 H 0.1765 0.7520 0.3801
C196 C 0.1868(2) 0.6822(4) 0.3802(3)
C197 C 0.1786(2) 0.6365(4) 0.3783(3)
H173 H 0.1622 0.6300 0.3710
C198 C 0.1942(2) 0.5998(4) 0.3871(3)
H174 H 0.1884 0.5684 0.3859
C199 C 0.2182(2) 0.6091(3) 0.3974(2)
C200 C 0.2266(2) 0.6548(4) 0.3986(3)
H175 H 0.2431 0.6613 0.4055
C201 C 0.2108(2) 0.6910(4) 0.3898(3)
H176 H 0.2166 0.7224 0.3905
C202 C 0.2449(2) 0.5478(3) 0.3867(3)
H177 H 0.2441 0.5554 0.3643
C203 C 0.25946(19) 0.5086(3) 0.3988(2)
C204 C 0.2728(2) 0.4786(4) 0.3792(2)
H178 H 0.2744 0.4847 0.3566
C205 C 0.2839(2) 0.4396(4) 0.3929(2)
H179 H 0.2940 0.4197 0.3800
C206 C 0.2803(2) 0.4296(3) 0.4254(2)
C207 C 0.2683(2) 0.4623(3) 0.4441(3)
H180 H 0.2671 0.4573 0.4668
C208 C 0.31344(19) 0.3720(3) 0.4385(2)
H181 H 0.3251 0.3927 0.4288
C209 C 0.28945(19) 0.3863(3) 0.4402(2)
C210 C 0.2726(2) 0.3550(4) 0.4539(3)
H182 H 0.2556 0.3635 0.4559
C211 C 0.28056(19) 0.3116(4) 0.4644(3)
H183 H 0.2691 0.2898 0.4731
C212 C 0.30531(18) 0.3003(3) 0.4621(3)
C213 C 0.3150(2) 0.2552(3) 0.4722(3)
H184 H 0.3049 0.2314 0.4814
O19 O 0.3984(8) -0.0191(15) 0.4635(12)
O20 O 0.4550(8) 0.0542(13) 0.5263(12)
N30 N 0.4210(5) 0.0260(9) 0.4988(8)
C214 C 0.3501(5) 0.2079(7) 0.4774(7)
C215 C 0.3625(8) 0.2059(9) 0.5070(8)
H185 H 0.3629 0.2327 0.5206
C216 C 0.3744(8) 0.1651(11) 0.5167(8)
H186 H 0.3830 0.1643 0.5368
C217 C 0.3738(5) 0.1256(8) 0.4972(8)
C218 C 0.3613(7) 0.1277(8) 0.4679(8)
H187 H 0.3607 0.1006 0.4545
C219 C 0.3495(6) 0.1685(9) 0.4577(7)
H188 H 0.3412 0.1694 0.4374
C220 C 0.3862(7) 0.0807(11) 0.5081(11)
H189 H 0.3746 0.0542 0.5050
H190 H 0.3902 0.0829 0.5315
C221 C 0.4100(7) 0.0712(11) 0.4890(11)
H191 H 0.4062 0.0707 0.4655
H192 H 0.4220 0.0968 0.4931
C222 C 0.4124(5) -0.0161(10) 0.4867(9)
C223 C 0.4253(6) -0.0553(9) 0.5046(11)
H193 H 0.4139 -0.0719 0.5198
C224 C 0.4467(7) -0.0303(11) 0.5229(9)
H194 H 0.4466 -0.0383 0.5466
C225 C 0.4421(6) 0.0213(10) 0.5175(8)
C226 C 0.4391(8) -0.0901(12) 0.4817(13)
H195 H 0.4291 -0.1171 0.4735
C227 C 0.4510(11) -0.059(2) 0.4562(10)
H196 H 0.4464 -0.0571 0.4341
C228 C 0.4691(10) -0.0361(17) 0.4706(14)
H197 H 0.4797 -0.0138 0.4606
C229 C 0.4701(6) -0.0509(14) 0.5058(13)
H198 H 0.4862 -0.0456 0.5172
C230 C 0.4621(9) -0.1024(12) 0.5020(13)
H199 H 0.4743 -0.1214 0.4899
H200 H 0.4580 -0.1175 0.5229
N31 N 0.34175(19) 0.5443(4) 0.6632(2)
N32 N 0.31475(18) 0.5230(3) 0.6137(2)
N33 N 0.24678(16) 0.5284(3) 0.4981(2)
N34 N 0.21093(17) 0.5110(3) 0.4584(2)
O21 O 0.3923(6) 0.6735(10) 0.8219(5)
O22 O 0.4292(5) 0.6628(9) 0.7230(6)
N35 N 0.4098(3) 0.6575(6) 0.7723(5)
C231 C 0.3974(4) 0.6853(7) 0.7942(4)
C232 C 0.3926(4) 0.7323(7) 0.7787(5)
H201 H 0.3998 0.7582 0.7920
C233 C 0.4055(4) 0.7290(7) 0.7450(6)
H202 H 0.4189 0.7531 0.7430
C234 C 0.4162(4) 0.6803(7) 0.7440(5)
C235 C 0.3653(4) 0.7428(10) 0.7695(6)
H203 H 0.3547 0.7554 0.7872
C236 C 0.3554(5) 0.7003(10) 0.7518(9)
H204 H 0.3435 0.6787 0.7599
C237 C 0.3660(6) 0.6986(10) 0.7232(8)
H205 H 0.3630 0.6758 0.7068
C238 C 0.3840(5) 0.7390(10) 0.7210(5)
H206 H 0.3889 0.7485 0.6986
C239 C 0.3696(6) 0.7758(8) 0.7405(7)
H207 H 0.3540 0.7857 0.7298
H208 H 0.3798 0.8035 0.7462
C240 C 0.4168(4) 0.6087(6) 0.7790(7)
H209 H 0.4265 0.6072 0.7994
H210 H 0.4274 0.5968 0.7612
C241 C 0.3937(4) 0.5776(8) 0.7820(4)
H211 H 0.3987 0.5467 0.7908
H212 H 0.3822 0.5921 0.7977
C242 C 0.3803(3) 0.5705(7) 0.7501(4)
C243 C 0.3551(3) 0.5788(9) 0.7478(4)
H213 H 0.3465 0.5907 0.7661
C244 C 0.3422(3) 0.5700(8) 0.7195(4)
H214 H 0.3249 0.5754 0.7184
C245 C 0.3549(3) 0.5531(7) 0.6925(3)
C246 C 0.3800(3) 0.5456(8) 0.6945(4)
H215 H 0.3887 0.5343 0.6761
C247 C 0.3929(3) 0.5545(8) 0.7231(4)
H216 H 0.4103 0.5495 0.7241
C248 C 0.3317(2) 0.5798(4) 0.6495(2)
H217 H 0.3343 0.6109 0.6569
C249 C 0.31614(17) 0.5688(3) 0.6218(2)
C250 C 0.3032(2) 0.6019(3) 0.6040(2)
H218 H 0.3047 0.6343 0.6090
C251 C 0.2881(2) 0.5874(3) 0.5788(2)
H219 H 0.2797 0.6099 0.5657
C252 C 0.28508(17) 0.5400(3) 0.5727(2)
C253 C 0.29937(19) 0.5084(4) 0.5900(2)
H220 H 0.2983 0.4759 0.5850
C254 C 0.2643(2) 0.5418(3) 0.5190(2)
H221 H 0.2750 0.5668 0.5129
C255 C 0.26782(17) 0.5213(3) 0.5487(2)
C256 C 0.2520(2) 0.4845(4) 0.5571(2)
H222 H 0.2543 0.4684 0.5770
C257 C 0.2329(2) 0.4717(4) 0.5364(2)
H223 H 0.2217 0.4474 0.5422
C258 C 0.23045(17) 0.4951(3) 0.5071(2)
C259 C 0.2105(2) 0.4858(4) 0.4844(2)
H224 H 0.1980 0.4630 0.4884
O23 O 0.0750(9) 0.5220(16) 0.4042(12)
O24 O 0.0879(8) 0.4066(16) 0.3299(11)
N36 N 0.0855(4) 0.4588(10) 0.3721(7)
C260 C 0.1905(4) 0.5049(10) 0.4368(5)
C261 C 0.1926(4) 0.4836(14) 0.4067(7)
H225 H 0.2081 0.4714 0.4000
C262 C 0.1721(4) 0.4799(13) 0.3866(6)
H226 H 0.1737 0.4651 0.3660
C263 C 0.1493(4) 0.4975(10) 0.3958(6)
C264 C 0.1472(4) 0.5185(15) 0.4259(7)
H227 H 0.1317 0.5306 0.4326
C265 C 0.1675(5) 0.5222(15) 0.4463(7)
H228 H 0.1657 0.5365 0.4670
C266 C 0.1273(5) 0.4930(13) 0.3732(8)
H229 H 0.1331 0.4880 0.3508
H230 H 0.1174 0.5223 0.3737
C267 C 0.1110(5) 0.4517(12) 0.3838(10)
H231 H 0.1177 0.4222 0.3747
H232 H 0.1112 0.4492 0.4077
C268 C 0.0695(6) 0.4915(12) 0.3847(7)
C269 C 0.0447(5) 0.4866(14) 0.3675(8)
H233 H 0.0310 0.4760 0.3821
C270 C 0.0500(6) 0.4522(11) 0.3394(10)
H234 H 0.0376 0.4262 0.3380
C271 C 0.0761(5) 0.4348(10) 0.3459(8)
C272 C 0.0388(8) 0.5341(13) 0.3492(9)
H235 H 0.0291 0.5583 0.3614
C273 C 0.0645(8) 0.5479(14) 0.3377(10)
H236 H 0.0742 0.5733 0.3457
C274 C 0.0709(6) 0.5182(17) 0.3146(12)
H237 H 0.0863 0.5178 0.3035
C275 C 0.0496(8) 0.4851(13) 0.3088(8)
H238 H 0.0489 0.4693 0.2872
C276 C 0.0272(5) 0.5153(13) 0.3180(10)
H239 H 0.0238 0.5402 0.3019
H240 H 0.0121 0.4965 0.3219
As1 As 0.33688(3) 0.48723(5) 0.49645(3)
F1 F 0.3344(3) 0.4987(6) 0.5361(2)
F2 F 0.3403(3) 0.4724(6) 0.4559(2)
F3 F 0.3212(3) 0.4357(4) 0.5019(4)
F4 F 0.3641(2) 0.4569(5) 0.5039(3)
F5 F 0.3538(3) 0.5351(4) 0.4898(4)
F6 F 0.31038(19) 0.5132(5) 0.4877(3)
As2 As 0.24816(3) 0.70636(5) 0.56135(3)
F7 F 0.23320(19) 0.6690(3) 0.58625(19)
F8 F 0.26360(17) 0.7441(3) 0.5362(2)
F9 F 0.25783(18) 0.6600(3) 0.53777(17)
F10 F 0.23829(17) 0.7524(3) 0.58444(18)
F11 F 0.27441(17) 0.7002(3) 0.5847(2)
F12 F 0.22245(16) 0.7122(3) 0.53677(18)
As3 As 0.48434(4) 0.51786(9) 0.56415(5)
F13 F 0.4683(2) 0.4757(4) 0.5853(3)
F14 F 0.4988(2) 0.5580(4) 0.5415(3)
F15 F 0.4952(3) 0.4759(5) 0.5392(4)
F16 F 0.4726(3) 0.5567(6) 0.5895(4)
F17 F 0.4581(2) 0.5231(6) 0.5398(3)
F18 F 0.5098(2) 0.5098(5) 0.5873(3)
As4 As 0.40816(7) 0.80306(12) 0.56448(10)
F19 F 0.4211(7) 0.8189(15) 0.5274(7)
F20 F 0.3941(6) 0.7818(13) 0.5995(6)
F21 F 0.4226(5) 0.7498(8) 0.5559(8)
F22 F 0.3933(6) 0.8548(9) 0.5744(8)
F23 F 0.3850(4) 0.7829(8) 0.5389(7)
F24 F 0.4338(5) 0.8226(11) 0.5856(10)
As5 As 0.24292(6) 0.33572(10) 0.54321(8)
F25 F 0.2399(5) 0.3040(8) 0.5090(5)
F26 F 0.2454(6) 0.3606(9) 0.5797(5)
F27 F 0.2266(4) 0.2882(5) 0.5633(4)
F28 F 0.2617(4) 0.3748(7) 0.5325(7)
F29 F 0.2676(4) 0.3009(9) 0.5508(7)
F30 F 0.2144(3) 0.3609(7) 0.5409(7)
As6 As 0.30075(7) 0.64442(10) 0.81177(7)
F31 F 0.3037(2) 0.6278(5) 0.7723(3)
F32 F 0.3003(3) 0.6586(6) 0.8518(4)
F33 F 0.2975(4) 0.5850(5) 0.8200(4)
F34 F 0.2689(3) 0.6506(11) 0.8100(6)
F35 F 0.3028(5) 0.7036(5) 0.8015(5)
F36 F 0.3332(2) 0.6359(7) 0.8155(4)
As7 As 0.28458(5) 0.62024(8) 0.32417(5)
F37 F 0.2842(3) 0.6111(8) 0.3658(3)
F38 F 0.2830(4) 0.6267(8) 0.2835(3)
F39 F 0.2532(2) 0.6311(8) 0.3251(5)
F40 F 0.2949(5) 0.6749(6) 0.3286(6)
F41 F 0.2741(4) 0.5616(5) 0.3193(5)
F42 F 0.3143(3) 0.5975(8) 0.3229(5)
N37 N 0.3264(4) 0.6520(7) 0.5348(5)
C277 C 0.3249(4) 0.6927(8) 0.5359(6)
C278 C 0.3235(4) 0.7430(7) 0.5336(5)
H241 H 0.3259 0.7565 0.5552
H242 H 0.3361 0.7551 0.5189
H243 H 0.3070 0.7516 0.5255
N38 N 0.4653(6) 0.3812(15) 0.5291(10)
C279 C 0.4475(7) 0.4021(17) 0.5373(11)
C280 C 0.4237(6) 0.4251(8) 0.5337(8)
H244 H 0.4197 0.4377 0.5552
H245 H 0.4239 0.4507 0.5179
H246 H 0.4111 0.4020 0.5274
O25? O 0.4002(9) 0.8895(14) 0.3332(12)
O26? O 0.4655(7) 0.9503(16) 0.3891(12)
N39? N 0.4325(6) 0.9118(9) 0.3662(8)
C281? C 0.4181(4) 0.7261(6) 0.4453(6)
C282? C 0.4364(4) 0.7553(8) 0.4580(6)
H247? H 0.4422 0.7508 0.4795
C283? C 0.4461(5) 0.7910(9) 0.4391(7)
H248? H 0.4589 0.8104 0.4476
C284? C 0.4373(5) 0.7986(8) 0.4079(6)
C285? C 0.4184(5) 0.7706(9) 0.3961(5)
H249? H 0.4120 0.7762 0.3750
C286? C 0.4088(4) 0.7344(7) 0.4147(6)
H250? H 0.3958 0.7153 0.4062
C287? C 0.4487(6) 0.8362(10) 0.3865(9)
H251? H 0.4606 0.8218 0.3714
H252? H 0.4577 0.8592 0.4001
C288? C 0.4282(7) 0.8611(11) 0.3674(10)
H253? H 0.4276 0.8485 0.3450
H254? H 0.4120 0.8548 0.3777
C289? C 0.4131(7) 0.9205(11) 0.3450(8)
C290? C 0.4120(8) 0.9725(11) 0.3386(8)
H255? H 0.4159 0.9794 0.3154
C291? C 0.4321(7) 0.9935(9) 0.3613(12)
H256? H 0.4437 1.0138 0.3487
C292? C 0.4458(6) 0.9515(11) 0.3745(9)
C293? C 0.3882(8) 0.9988(15) 0.3494(14)
H257? H 0.3746 1.0002 0.3330
C294? C 0.3809(9) 0.9802(18) 0.3824(18)
H258? H 0.3666 0.9620 0.3873
C295? C 0.3981(12) 0.994(2) 0.4030(11)
H259? H 0.3987 0.9870 0.4255
C296? C 0.4166(9) 1.0236(14) 0.3847(13)
H260? H 0.4263 1.0460 0.3984
C297? C 0.3989(10) 1.0466(12) 0.3600(14)
H261? H 0.4077 1.0631 0.3423
H262? H 0.3865 1.0674 0.3701
O27? O 0.3843(6) -0.0270(12) 0.4991(10)
O28? O 0.4361(7) 0.0627(11) 0.5605(10)
N40? N 0.4091(4) 0.0262(8) 0.5254(7)
C298? C 0.3472(4) 0.2055(6) 0.4778(6)
C299? C 0.3639(7) 0.2019(7) 0.5033(8)
H263? H 0.3705 0.2294 0.5130
C300? C 0.3710(6) 0.1581(9) 0.5147(8)
H264? H 0.3826 0.1559 0.5321
C301? C 0.3614(5) 0.1177(7) 0.5009(7)
C302? C 0.3449(5) 0.1214(7) 0.4755(7)
H265? H 0.3383 0.0938 0.4659
C303? C 0.3377(5) 0.1650(8) 0.4636(6)
H266? H 0.3264 0.1671 0.4460
C304? C 0.3695(5) 0.0702(9) 0.5142(10)
H267? H 0.3621 0.0446 0.5011
H268? H 0.3641 0.0666 0.5369
C305? C 0.3977(5) 0.0688(10) 0.5121(10)
H269? H 0.4025 0.0718 0.4890
H270? H 0.4045 0.0962 0.5238
C306? C 0.4018(4) -0.0185(9) 0.5167(8)
C307? C 0.4187(5) -0.0531(8) 0.5335(9)
H271? H 0.4092 -0.0765 0.5464
C308? C 0.4356(6) -0.0227(11) 0.5554(7)
H272? H 0.4339 -0.0309 0.5789
C309? C 0.4276(5) 0.0271(9) 0.5485(7)
C310? C 0.4374(6) -0.0774(12) 0.5102(11)
H273? H 0.4312 -0.1055 0.4982
C311? C 0.4478(9) -0.0381(19) 0.4898(9)
H274? H 0.4445 -0.0329 0.4675
C312? C 0.4623(8) -0.0121(14) 0.5087(13)
H275? H 0.4712 0.0150 0.5023
C313? C 0.4622(5) -0.0334(13) 0.5423(11)
H276? H 0.4764 -0.0251 0.5568
C314? C 0.4592(7) -0.0854(12) 0.5337(11)
H277? H 0.4546 -0.1050 0.5526
H278? H 0.4740 -0.0986 0.5228
O29? O 0.3879(6) 0.6816(12) 0.8283(5)
O30? O 0.3810(6) 0.6943(11) 0.7185(5)
N41? N 0.3884(4) 0.6809(7) 0.7725(5)
C315? C 0.3795(4) 0.6946(7) 0.8024(5)
C316? C 0.3589(4) 0.7296(8) 0.7972(6)
H279? H 0.3435 0.7213 0.8093
C317? C 0.3548(4) 0.7305(8) 0.7600(6)
H280? H 0.3381 0.7185 0.7535
C318? C 0.3756(4) 0.7005(8) 0.7468(5)
C319? C 0.3678(6) 0.7807(8) 0.8042(5)
H281? H 0.3683 0.7902 0.8276
C320? C 0.3915(5) 0.7867(10) 0.7859(7)
H282? H 0.4077 0.7878 0.7951
C321? C 0.3582(5) 0.7839(8) 0.7516(6)
H283? H 0.3505 0.7950 0.7309
C322? C 0.3860(5) 0.7900(10) 0.7546(7)
H284? H 0.3973 0.7952 0.7374
C323? C 0.3496(6) 0.8078(10) 0.7826(8)
H285? H 0.3321 0.8012 0.7878
H286? H 0.3527 0.8420 0.7827
C324? C 0.4096(4) 0.6492(8) 0.7687(8)
H287? H 0.4221 0.6565 0.7855
H288? H 0.4172 0.6549 0.7473
C325? C 0.4026(5) 0.5976(8) 0.7712(6)
H289? H 0.4179 0.5786 0.7727
H290? H 0.3929 0.5926 0.7913
C326? C 0.3874(4) 0.5812(8) 0.7424(5)
C327? C 0.3633(4) 0.5662(10) 0.7473(4)
H291? H 0.3571 0.5645 0.7688
C328? C 0.3482(4) 0.5537(9) 0.7216(5)
H292? H 0.3316 0.5442 0.7254
C329? C 0.3573(4) 0.5552(7) 0.6902(4)
C330? C 0.3815(4) 0.5694(9) 0.6850(4)
H293? H 0.3879 0.5705 0.6636
C331? C 0.3965(4) 0.5821(10) 0.7111(5)
H294? H 0.4132 0.5915 0.7074
O31? O 0.0728(6) 0.3992(18) 0.3802(8)
O32? O 0.1390(6) 0.3911(17) 0.3122(9)
N42? N 0.1091(5) 0.3967(9) 0.3513(6)
C332? C 0.1912(4) 0.5028(9) 0.4361(5)
C333? C 0.1959(4) 0.4777(12) 0.4079(6)
H295? H 0.2123 0.4679 0.4030
C334? C 0.1766(4) 0.4670(12) 0.3869(6)
H296? H 0.1798 0.4498 0.3676
C335? C 0.1525(4) 0.4810(9) 0.3936(6)
C336? C 0.1482(4) 0.5068(13) 0.4214(7)
H297? H 0.1318 0.5173 0.4260
C337? C 0.1673(4) 0.5177(13) 0.4426(7)
H298? H 0.1640 0.5353 0.4616
C338? C 0.1312(5) 0.4661(11) 0.3719(8)
H299? H 0.1355 0.4720 0.3489
H300? H 0.1162 0.4845 0.3772
C339? C 0.1261(7) 0.4134(11) 0.3770(8)
H301? H 0.1418 0.3956 0.3762
H302? H 0.1185 0.4084 0.3985
C340? C 0.0840(5) 0.3911(11) 0.3551(7)
C341? C 0.0731(6) 0.3747(14) 0.3232(8)
H303? H 0.0646 0.3437 0.3256
C342? C 0.0956(6) 0.3713(13) 0.3001(8)
H304? H 0.0979 0.3386 0.2919
C343? C 0.1174(5) 0.3868(11) 0.3205(7)
C344? C 0.0561(6) 0.411(2) 0.3059(9)
H305? H 0.0384 0.4116 0.3131
C345? C 0.0694(12) 0.4575(14) 0.3062(13)
H306? H 0.0649 0.4842 0.3186
C346? C 0.0884(10) 0.4544(16) 0.2862(14)
H307? H 0.0999 0.4786 0.2815
C347? C 0.0885(7) 0.406(2) 0.2721(7)
H308? H 0.0979 0.4015 0.2514
C348? C 0.0604(8) 0.3966(19) 0.2703(9)
H309? H 0.0563 0.3634 0.2660
H310? H 0.0519 0.4173 0.2546
F43? F 0.3400(5) 0.4811(8) 0.5367(3)
F44? F 0.3318(4) 0.4956(8) 0.4550(3)
F45? F 0.3075(3) 0.4657(9) 0.5005(6)
F46? F 0.3454(4) 0.4331(4) 0.4863(5)
F47? F 0.3636(3) 0.5141(7) 0.4900(5)
F48? F 0.3238(4) 0.5414(5) 0.5019(5)
F49? F 0.4079(8) 0.7877(14) 0.5239(5)
F50? F 0.4066(7) 0.8155(15) 0.6054(4)
F51? F 0.4179(5) 0.7455(7) 0.5718(9)
F52? F 0.4004(5) 0.8615(7) 0.5581(8)
F53? F 0.3786(3) 0.7798(9) 0.5624(8)
F54? F 0.4387(4) 0.8222(12) 0.5615(12)
F55? F 0.2324(4) 0.3054(7) 0.5115(4)
F56? F 0.2585(5) 0.3797(8) 0.5640(7)
F57? F 0.2460(6) 0.2984(8) 0.5705(5)
F58? F 0.2486(3) 0.3820(5) 0.5130(4)
F59? F 0.2725(3) 0.3222(9) 0.5310(7)
F60? F 0.2179(4) 0.3613(8) 0.5570(7)
F61? F 0.2779(6) 0.6031(12) 0.8229(10)
F62? F 0.3214(9) 0.5987(15) 0.8221(6)
F63? F 0.2754(7) 0.6833(14) 0.8075(9)
F64? F 0.3181(7) 0.6959(10) 0.8073(9)
F65? F 0.2762(5) 0.6348(10) 0.3625(4)
F66? F 0.2959(5) 0.6115(8) 0.2856(4)
F67? F 0.2567(3) 0.5985(11) 0.3141(6)
F68? F 0.2790(6) 0.6772(6) 0.3125(8)
F69? F 0.2940(5) 0.5646(6) 0.3332(6)
F70? F 0.3145(3) 0.6422(9) 0.3346(5)
loop_
_geom_bond_atom_site_label_1
_geom_bond_atom_site_label_2
_geom_bond_site_symmetry_1
_geom_bond_site_symmetry_2
Fe1 N10 1_555 1_555
Fe2 N4 1_555 1_555
Fe3 N8 1_555 1_555
Fe4 N2 1_555 1_555
O1 C1 1_555 1_555
O2 C4 1_555 1_555
O3 C38 1_555 1_555
O4 C41 1_555 1_555
N1 C1 1_555 1_555
N2 C15 1_555 1_555
N3 Fe4 1_555 1_555
N4 C24 1_555 1_555
N5 Fe2 1_555 1_555
N6 C37 1_555 1_555
C1 C2 1_555 1_555
C2 H1 1_555 1_555
C3 C2 1_555 1_555
H2 C3 1_555 1_555
C4 N1 1_555 1_555
C5 C2 1_555 1_555
H3 C5 1_555 1_555
C6 C5 1_555 1_555
H4 C6 1_555 1_555
C7 C6 1_555 1_555
H5 C7 1_555 1_555
C8 C3 1_555 1_555
H6 C8 1_555 1_555
C9 C5 1_555 1_555
H7 C9 1_555 1_555
H8 C9 1_555 1_555
C10 N1 1_555 1_555
H9 C10 1_555 1_555
H10 C10 1_555 1_555
C11 C10 1_555 1_555
H11 C11 1_555 1_555
H12 C11 1_555 1_555
C12 C11 1_555 1_555
C13 C12 1_555 1_555
H13 C13 1_555 1_555
C14 C13 1_555 1_555
H14 C14 1_555 1_555
C15 C14 1_555 1_555
C16 C15 1_555 1_555
H15 C16 1_555 1_555
C17 C12 1_555 1_555
H16 C17 1_555 1_555
C18 N2 1_555 1_555
H17 C18 1_555 1_555
C19 N3 1_555 1_555
C20 C19 1_555 1_555
H18 C20 1_555 1_555
C21 C20 1_555 1_555
H19 C21 1_555 1_555
C22 C21 1_555 1_555
C23 N3 1_555 1_555
H20 C23 1_555 1_555
C24 H21 1_555 1_555
C25 C22 1_555 1_555
C26 C25 1_555 1_555
H22 C26 1_555 1_555
C27 C26 1_555 1_555
H23 C27 1_555 1_555
C28 N4 1_555 1_555
C29 N5 1_555 1_555
H24 C29 1_555 1_555
C30 N5 1_555 1_555
C31 C30 1_555 1_555
H25 C31 1_555 1_555
C32 C31 1_555 1_555
H26 C32 1_555 1_555
C33 C32 1_555 1_555
C34 C33 1_555 1_555
H27 C34 1_555 1_555
C35 C30 1_555 1_555
H28 C35 1_555 1_555
C36 C33 1_555 1_555
H29 C36 1_555 1_555
H30 C36 1_555 1_555
C37 C36 1_555 1_555
H31 C37 1_555 1_555
H32 C37 1_555 1_555
C38 N6 1_555 1_555
C39 C38 1_555 1_555
H33 C39 1_555 1_555
C40 C39 1_555 1_555
H34 C40 1_555 1_555
C41 N6 1_555 1_555
C42 C39 1_555 1_555
H35 C42 1_555 1_555
C43 C42 1_555 1_555
H36 C43 1_555 1_555
C44 C43 1_555 1_555
H37 C44 1_555 1_555
C45 C40 1_555 1_555
H38 C45 1_555 1_555
C46 C42 1_555 1_555
H39 C46 1_555 1_555
H40 C46 1_555 1_555
O5 C47 1_555 1_555
O6 C50 1_555 1_555
N7 C47 1_555 1_555
N8 C61 1_555 1_555
N9 Fe3 1_555 1_555
N10 C70 1_555 1_555
N11 Fe1 1_555 1_555
C47 C48 1_555 1_555
C48 H41 1_555 1_555
C49 C48 1_555 1_555
H42 C49 1_555 1_555
C50 N7 1_555 1_555
C51 C48 1_555 1_555
H43 C51 1_555 1_555
C52 C51 1_555 1_555
H44 C52 1_555 1_555
C53 C52 1_555 1_555
H45 C53 1_555 1_555
C54 C49 1_555 1_555
H46 C54 1_555 1_555
C55 C51 1_555 1_555
H47 C55 1_555 1_555
H48 C55 1_555 1_555
C56 N7 1_555 1_555
H49 C56 1_555 1_555
H50 C56 1_555 1_555
C57 C56 1_555 1_555
H51 C57 1_555 1_555
H52 C57 1_555 1_555
C58 C57 1_555 1_555
C59 C58 1_555 1_555
H53 C59 1_555 1_555
C60 C59 1_555 1_555
H54 C60 1_555 1_555
C61 C60 1_555 1_555
C62 C61 1_555 1_555
H55 C62 1_555 1_555
C63 C58 1_555 1_555
H56 C63 1_555 1_555
C64 N8 1_555 1_555
H57 C64 1_555 1_555
C65 N9 1_555 1_555
C66 C65 1_555 1_555
H58 C66 1_555 1_555
C67 C66 1_555 1_555
H59 C67 1_555 1_555
C68 C67 1_555 1_555
C69 N9 1_555 1_555
H60 C69 1_555 1_555
C70 H61 1_555 1_555
C71 C68 1_555 1_555
C72 C71 1_555 1_555
H62 C72 1_555 1_555
C73 C72 1_555 1_555
H63 C73 1_555 1_555
C74 N10 1_555 1_555
C75 N11 1_555 1_555
H64 C75 1_555 1_555
O7 C84 1_555 1_555
O8 C87 1_555 1_555
N12 C83 1_555 1_555
C76 N11 1_555 1_555
C77 C76 1_555 1_555
H65 C77 1_555 1_555
C78 C77 1_555 1_555
H66 C78 1_555 1_555
C79 C78 1_555 1_555
C80 C79 1_555 1_555
H67 C80 1_555 1_555
C81 C76 1_555 1_555
H68 C81 1_555 1_555
C82 C79 1_555 1_555
H69 C82 1_555 1_555
H70 C82 1_555 1_555
C83 C82 1_555 1_555
H71 C83 1_555 1_555
H72 C83 1_555 1_555
C84 N12 1_555 1_555
C85 C84 1_555 1_555
H73 C85 1_555 1_555
C86 C85 1_555 1_555
H74 C86 1_555 1_555
C87 N12 1_555 1_555
C88 C85 1_555 1_555
H75 C88 1_555 1_555
C89 C88 1_555 1_555
H76 C89 1_555 1_555
C90 C89 1_555 1_555
H77 C90 1_555 1_555
C91 C86 1_555 1_555
H78 C91 1_555 1_555
C92 C88 1_555 1_555
H79 C92 1_555 1_555
H80 C92 1_555 1_555
O9 C93 1_555 1_555
O10 C96 1_555 1_555
O11 C130 1_555 1_555
O12 C133 1_555 1_555
N13 C93 1_555 1_555
N14 Fe1 1_555 1_555
N15 Fe1 1_555 1_555
N16 Fe2 1_555 1_555
N17 Fe2 1_555 1_555
N18 C129 1_555 1_555
C93 C94 1_555 1_555
C94 H81 1_555 1_555
C95 C94 1_555 1_555
H82 C95 1_555 1_555
C96 N13 1_555 1_555
C97 C94 1_555 1_555
H83 C97 1_555 1_555
C98 C97 1_555 1_555
H84 C98 1_555 1_555
C99 C98 1_555 1_555
H85 C99 1_555 1_555
C100 C95 1_555 1_555
H86 C100 1_555 1_555
C101 C97 1_555 1_555
H87 C101 1_555 1_555
H88 C101 1_555 1_555
C102 N13 1_555 1_555
H89 C102 1_555 1_555
H90 C102 1_555 1_555
C103 C102 1_555 1_555
H91 C103 1_555 1_555
H92 C103 1_555 1_555
C104 C103 1_555 1_555
C105 C104 1_555 1_555
H93 C105 1_555 1_555
C106 C105 1_555 1_555
H94 C106 1_555 1_555
C107 N14 1_555 1_555
C108 C107 1_555 1_555
H95 C108 1_555 1_555
C109 C104 1_555 1_555
H96 C109 1_555 1_555
C110 N14 1_555 1_555
H97 C110 1_555 1_555
C111 N15 1_555 1_555
C112 C111 1_555 1_555
H98 C112 1_555 1_555
C113 C112 1_555 1_555
H99 C113 1_555 1_555
C114 C113 1_555 1_555
C115 N15 1_555 1_555
H100 C115 1_555 1_555
C116 N16 1_555 1_555
H101 C116 1_555 1_555
C117 C114 1_555 1_555
C118 C117 1_555 1_555
H102 C118 1_555 1_555
C119 C118 1_555 1_555
H103 C119 1_555 1_555
C120 N16 1_555 1_555
C121 N17 1_555 1_555
H104 C121 1_555 1_555
C122 N17 1_555 1_555
C123 C122 1_555 1_555
H105 C123 1_555 1_555
C124 C123 1_555 1_555
H106 C124 1_555 1_555
C125 C124 1_555 1_555
C126 C125 1_555 1_555
H107 C126 1_555 1_555
C127 C122 1_555 1_555
H108 C127 1_555 1_555
C128 C125 1_555 1_555
H109 C128 1_555 1_555
H110 C128 1_555 1_555
C129 C128 1_555 1_555
H111 C129 1_555 1_555
H112 C129 1_555 1_555
C130 N18 1_555 1_555
C131 C130 1_555 1_555
H113 C131 1_555 1_555
C132 C131 1_555 1_555
H114 C132 1_555 1_555
C133 N18 1_555 1_555
C134 C131 1_555 1_555
H115 C134 1_555 1_555
C135 C134 1_555 1_555
H116 C135 1_555 1_555
C136 C135 1_555 1_555
H117 C136 1_555 1_555
C137 C132 1_555 1_555
H118 C137 1_555 1_555
C138 C134 1_555 1_555
H119 C138 1_555 1_555
H120 C138 1_555 1_555
O13 C139 1_555 1_555
O14 C142 1_555 1_555
N19 C139 1_555 1_555
N20 Fe3 1_555 1_555
N21 Fe3 1_555 1_555
N22 Fe2 1_555 1_555
N23 Fe2 1_555 1_555
C139 C140 1_555 1_555
C140 H121 1_555 1_555
C141 C140 1_555 1_555
H122 C141 1_555 1_555
C142 N19 1_555 1_555
C143 C140 1_555 1_555
H123 C143 1_555 1_555
C144 C143 1_555 1_555
H124 C144 1_555 1_555
C145 C144 1_555 1_555
H125 C145 1_555 1_555
C146 C141 1_555 1_555
H126 C146 1_555 1_555
C147 C143 1_555 1_555
H127 C147 1_555 1_555
H128 C147 1_555 1_555
C148 N19 1_555 1_555
H129 C148 1_555 1_555
H130 C148 1_555 1_555
C149 C148 1_555 1_555
H131 C149 1_555 1_555
H132 C149 1_555 1_555
C150 C149 1_555 1_555
C151 C150 1_555 1_555
H133 C151 1_555 1_555
C152 C151 1_555 1_555
H134 C152 1_555 1_555
C153 N20 1_555 1_555
C154 C153 1_555 1_555
H135 C154 1_555 1_555
C155 C150 1_555 1_555
H136 C155 1_555 1_555
C156 N20 1_555 1_555
H137 C156 1_555 1_555
C157 N21 1_555 1_555
C158 C157 1_555 1_555
H138 C158 1_555 1_555
C159 C158 1_555 1_555
H139 C159 1_555 1_555
C160 C159 1_555 1_555
C161 N21 1_555 1_555
H140 C161 1_555 1_555
C162 N22 1_555 1_555
H141 C162 1_555 1_555
C163 C160 1_555 1_555
C164 C163 1_555 1_555
H142 C164 1_555 1_555
C165 C164 1_555 1_555
H143 C165 1_555 1_555
C166 N22 1_555 1_555
C167 N23 1_555 1_555
H144 C167 1_555 1_555
O15 C176 1_555 1_555
O16 C179 1_555 1_555
N24 C175 1_555 1_555
C168 N23 1_555 1_555
C169 C168 1_555 1_555
H145 C169 1_555 1_555
C170 C169 1_555 1_555
H146 C170 1_555 1_555
C171 C170 1_555 1_555
C172 C171 1_555 1_555
H147 C172 1_555 1_555
C173 C168 1_555 1_555
H148 C173 1_555 1_555
C174 C171 1_555 1_555
H149 C174 1_555 1_555
H150 C174 1_555 1_555
C175 C174 1_555 1_555
H151 C175 1_555 1_555
H152 C175 1_555 1_555
C176 N24 1_555 1_555
C177 C176 1_555 1_555
H153 C177 1_555 1_555
C178 C177 1_555 1_555
H154 C178 1_555 1_555
C179 N24 1_555 1_555
C180 C177 1_555 1_555
H155 C180 1_555 1_555
C181 C180 1_555 1_555
H156 C181 1_555 1_555
C182 C181 1_555 1_555
H157 C182 1_555 1_555
C183 C178 1_555 1_555
H158 C183 1_555 1_555
C184 C180 1_555 1_555
H159 C184 1_555 1_555
H160 C184 1_555 1_555
O17 C185 1_555 1_555
O18 C188 1_555 1_555
N25 C185 1_555 1_555
N26 Fe4 1_555 1_555
N27 Fe4 1_555 1_555
N28 Fe1 1_555 1_555
N29 Fe1 1_555 1_555
C185 C186 1_555 1_555
C186 H161 1_555 1_555
C187 C186 1_555 1_555
H162 C187 1_555 1_555
C188 N25 1_555 1_555
C189 C186 1_555 1_555
H163 C189 1_555 1_555
C190 C189 1_555 1_555
H164 C190 1_555 1_555
C191 C190 1_555 1_555
H165 C191 1_555 1_555
C192 C187 1_555 1_555
H166 C192 1_555 1_555
C193 C189 1_555 1_555
H167 C193 1_555 1_555
H168 C193 1_555 1_555
C194 N25 1_555 1_555
H169 C194 1_555 1_555
H170 C194 1_555 1_555
C195 C194 1_555 1_555
H171 C195 1_555 1_555
H172 C195 1_555 1_555
C196 C195 1_555 1_555
C197 C196 1_555 1_555
H173 C197 1_555 1_555
C198 C197 1_555 1_555
H174 C198 1_555 1_555
C199 N26 1_555 1_555
C200 C199 1_555 1_555
H175 C200 1_555 1_555
C201 C196 1_555 1_555
H176 C201 1_555 1_555
C202 N26 1_555 1_555
H177 C202 1_555 1_555
C203 N27 1_555 1_555
C204 C203 1_555 1_555
H178 C204 1_555 1_555
C205 C204 1_555 1_555
H179 C205 1_555 1_555
C206 C205 1_555 1_555
C207 N27 1_555 1_555
H180 C207 1_555 1_555
C208 N28 1_555 1_555
H181 C208 1_555 1_555
C209 C206 1_555 1_555
C210 C209 1_555 1_555
H182 C210 1_555 1_555
C211 C210 1_555 1_555
H183 C211 1_555 1_555
C212 N28 1_555 1_555
C213 N29 1_555 1_555
H184 C213 1_555 1_555
O19 C222 1_555 1_555
O20 C225 1_555 1_555
N30 C221 1_555 1_555
C214 N29 1_555 1_555
C215 C214 1_555 1_555
H185 C215 1_555 1_555
C216 C215 1_555 1_555
H186 C216 1_555 1_555
C217 C216 1_555 1_555
C218 C217 1_555 1_555
H187 C218 1_555 1_555
C219 C214 1_555 1_555
H188 C219 1_555 1_555
C220 C217 1_555 1_555
H189 C220 1_555 1_555
H190 C220 1_555 1_555
C221 C220 1_555 1_555
H191 C221 1_555 1_555
H192 C221 1_555 1_555
C222 N30 1_555 1_555
C223 C222 1_555 1_555
H193 C223 1_555 1_555
C224 C223 1_555 1_555
H194 C224 1_555 1_555
C225 N30 1_555 1_555
C226 C223 1_555 1_555
H195 C226 1_555 1_555
C227 C226 1_555 1_555
H196 C227 1_555 1_555
C228 C227 1_555 1_555
H197 C228 1_555 1_555
C229 C224 1_555 1_555
H198 C229 1_555 1_555
C230 C226 1_555 1_555
H199 C230 1_555 1_555
H200 C230 1_555 1_555
N31 Fe3 1_555 1_555
N32 Fe3 1_555 1_555
N33 Fe4 1_555 1_555
N34 Fe4 1_555 1_555
O21 C231 1_555 1_555
O22 C234 1_555 1_555
N35 C231 1_555 1_555
C231 C232 1_555 1_555
C232 H201 1_555 1_555
C233 C232 1_555 1_555
H202 C233 1_555 1_555
C234 N35 1_555 1_555
C235 C232 1_555 1_555
H203 C235 1_555 1_555
C236 C235 1_555 1_555
H204 C236 1_555 1_555
C237 C236 1_555 1_555
H205 C237 1_555 1_555
C238 C233 1_555 1_555
H206 C238 1_555 1_555
C239 C235 1_555 1_555
H207 C239 1_555 1_555
H208 C239 1_555 1_555
C240 N35 1_555 1_555
H209 C240 1_555 1_555
H210 C240 1_555 1_555
C241 C240 1_555 1_555
H211 C241 1_555 1_555
H212 C241 1_555 1_555
C242 C241 1_555 1_555
C243 C242 1_555 1_555
H213 C243 1_555 1_555
C244 C243 1_555 1_555
H214 C244 1_555 1_555
C245 N31 1_555 1_555
C246 C245 1_555 1_555
H215 C246 1_555 1_555
C247 C242 1_555 1_555
H216 C247 1_555 1_555
C248 N31 1_555 1_555
H217 C248 1_555 1_555
C249 N32 1_555 1_555
C250 C249 1_555 1_555
H218 C250 1_555 1_555
C251 C250 1_555 1_555
H219 C251 1_555 1_555
C252 C251 1_555 1_555
C253 N32 1_555 1_555
H220 C253 1_555 1_555
C254 N33 1_555 1_555
H221 C254 1_555 1_555
C255 C252 1_555 1_555
C256 C255 1_555 1_555
H222 C256 1_555 1_555
C257 C256 1_555 1_555
H223 C257 1_555 1_555
C258 N33 1_555 1_555
C259 N34 1_555 1_555
H224 C259 1_555 1_555
O23 C268 1_555 1_555
O24 C271 1_555 1_555
N36 C267 1_555 1_555
C260 N34 1_555 1_555
C261 C260 1_555 1_555
H225 C261 1_555 1_555
C262 C261 1_555 1_555
H226 C262 1_555 1_555
C263 C262 1_555 1_555
C264 C263 1_555 1_555
H227 C264 1_555 1_555
C265 C260 1_555 1_555
H228 C265 1_555 1_555
C266 C263 1_555 1_555
H229 C266 1_555 1_555
H230 C266 1_555 1_555
C267 C266 1_555 1_555
H231 C267 1_555 1_555
H232 C267 1_555 1_555
C268 N36 1_555 1_555
C269 C268 1_555 1_555
H233 C269 1_555 1_555
C270 C269 1_555 1_555
H234 C270 1_555 1_555
C271 N36 1_555 1_555
C272 C269 1_555 1_555
H235 C272 1_555 1_555
C273 C272 1_555 1_555
H236 C273 1_555 1_555
C274 C273 1_555 1_555
H237 C274 1_555 1_555
C275 C270 1_555 1_555
H238 C275 1_555 1_555
C276 C272 1_555 1_555
H239 C276 1_555 1_555
H240 C276 1_555 1_555
As1 F1 1_555 1_555
F2 As1 1_555 1_555
F3 As1 1_555 1_555
F4 As1 1_555 1_555
F5 As1 1_555 1_555
F6 As1 1_555 1_555
As2 F7 1_555 1_555
F8 As2 1_555 1_555
F9 As2 1_555 1_555
F10 As2 1_555 1_555
F11 As2 1_555 1_555
F12 As2 1_555 1_555
As3 F13 1_555 1_555
F14 As3 1_555 1_555
F15 As3 1_555 1_555
F16 As3 1_555 1_555
F17 As3 1_555 1_555
F18 As3 1_555 1_555
As4 F19 1_555 1_555
F20 As4 1_555 1_555
F21 As4 1_555 1_555
F22 As4 1_555 1_555
F23 As4 1_555 1_555
F24 As4 1_555 1_555
As5 F25 1_555 1_555
F26 As5 1_555 1_555
F27 As5 1_555 1_555
F28 As5 1_555 1_555
F29 As5 1_555 1_555
F30 As5 1_555 1_555
As6 F31 1_555 1_555
F32 As6 1_555 1_555
F33 As6 1_555 1_555
F34 As6 1_555 1_555
F35 As6 1_555 1_555
F36 As6 1_555 1_555
As7 F37 1_555 1_555
F38 As7 1_555 1_555
F39 As7 1_555 1_555
F40 As7 1_555 1_555
F41 As7 1_555 1_555
F42 As7 1_555 1_555
N37 C277 1_555 1_555
C277 C278 1_555 1_555
C278 H241 1_555 1_555
H242 C278 1_555 1_555
H243 C278 1_555 1_555
N38 C279 1_555 1_555
C279 C280 1_555 1_555
C280 H244 1_555 1_555
H245 C280 1_555 1_555
H246 C280 1_555 1_555
C3 C4 1_555 1_555
C7 C8 1_555 1_555
C8 C9 1_555 1_555
C16 C17 1_555 1_555
C18 C19 1_555 1_555
C22 C23 1_555 1_555
C24 C25 1_555 1_555
C27 C28 1_555 1_555
C28 C29 1_555 1_555
C34 C35 1_555 1_555
C40 C41 1_555 1_555
C44 C45 1_555 1_555
C45 C46 1_555 1_555
C49 C50 1_555 1_555
C53 C54 1_555 1_555
C54 C55 1_555 1_555
C62 C63 1_555 1_555
C64 C65 1_555 1_555
C68 C69 1_555 1_555
C70 C71 1_555 1_555
C73 C74 1_555 1_555
C74 C75 1_555 1_555
C80 C81 1_555 1_555
C86 C87 1_555 1_555
C90 C91 1_555 1_555
C91 C92 1_555 1_555
C95 C96 1_555 1_555
C99 C100 1_555 1_555
C100 C101 1_555 1_555
C106 C107 1_555 1_555
C108 C109 1_555 1_555
C110 C111 1_555 1_555
C114 C115 1_555 1_555
C116 C117 1_555 1_555
C119 C120 1_555 1_555
C120 C121 1_555 1_555
C126 C127 1_555 1_555
C132 C133 1_555 1_555
C136 C137 1_555 1_555
C137 C138 1_555 1_555
C141 C142 1_555 1_555
C145 C146 1_555 1_555
C146 C147 1_555 1_555
C152 C153 1_555 1_555
C154 C155 1_555 1_555
C156 C157 1_555 1_555
C160 C161 1_555 1_555
C162 C163 1_555 1_555
C165 C166 1_555 1_555
C166 C167 1_555 1_555
C172 C173 1_555 1_555
C178 C179 1_555 1_555
C182 C183 1_555 1_555
C183 C184 1_555 1_555
C187 C188 1_555 1_555
C191 C192 1_555 1_555
C192 C193 1_555 1_555
C198 C199 1_555 1_555
C200 C201 1_555 1_555
C202 C203 1_555 1_555
C206 C207 1_555 1_555
C208 C209 1_555 1_555
C211 C212 1_555 1_555
C212 C213 1_555 1_555
C218 C219 1_555 1_555
C224 C225 1_555 1_555
C228 C229 1_555 1_555
C229 C230 1_555 1_555
C233 C234 1_555 1_555
C237 C238 1_555 1_555
C238 C239 1_555 1_555
C244 C245 1_555 1_555
C246 C247 1_555 1_555
C248 C249 1_555 1_555
C252 C253 1_555 1_555
C254 C255 1_555 1_555
C257 C258 1_555 1_555
C258 C259 1_555 1_555
C264 C265 1_555 1_555
C270 C271 1_555 1_555
C274 C275 1_555 1_555
C275 C276 1_555 1_555

#END
