# generated using pymatgen
data_Fe8P15H412C476N88(O25F79)2
_symmetry_space_group_name_H-M   'P 1'
_cell_length_a   22.23790000
_cell_length_b   22.45010000
_cell_length_c   30.14890000
_cell_angle_alpha   69.38500000
_cell_angle_beta   86.30100000
_cell_angle_gamma   78.61400000
_symmetry_Int_Tables_number   1
_chemical_formula_structural   Fe8P15H412C476N88(O25F79)2
_chemical_formula_sum   'Fe8 P15 H412 C476 N88 O50 F158'
_cell_volume   13810.37360535
_cell_formula_units_Z   1
loop_
 _symmetry_equiv_pos_site_id
 _symmetry_equiv_pos_as_xyz
  1  'x, y, z'
loop_
 _atom_site_type_symbol
 _atom_site_label
 _atom_site_symmetry_multiplicity
 _atom_site_fract_x
 _atom_site_fract_y
 _atom_site_fract_z
 _atom_site_occupancy
  Fe  Fe1  1  0.083830  0.430190  0.328670  1
  Fe  Fe2  1  0.916170  0.569810  0.671330  1
  Fe  Fe3  1  0.772010  0.191850  0.458260  1
  Fe  Fe4  1  0.227990  0.808150  0.541740  1
  Fe  Fe5  1  0.671460  0.615920  0.224660  1
  Fe  Fe6  1  0.328540  0.384080  0.775340  1
  Fe  Fe7  1  0.891740  0.268850  0.136900  1
  Fe  Fe8  1  0.108260  0.731150  0.863100  1
  P  P9  1  0.857340  0.371000  0.288240  1
  P  P10  1  0.142660  0.629000  0.711760  1
  P  P11  1  0.124100  0.430800  0.015090  1
  P  P12  1  0.875900  0.569200  0.984910  1
  P  P13  1  0.059910  0.371200  0.571110  1
  P  P14  1  0.940090  0.628800  0.428890  1
  P  P15  1  0.039600  0.036500  0.580280  1
  P  P16  1  0.960400  0.963500  0.419720  1
  P  P17  1  0.357200  0.596300  0.425500  1
  P  P18  1  0.642800  0.403700  0.574500  1
  P  P19  1  0.028700  0.763700  0.155300  1
  P  P20  1  0.971300  0.236300  0.844700  1
  P  P21  1  0.582500  0.284800  0.227400  1
  P  P22  1  0.417500  0.715200  0.772600  1
  P  P23  1  0.500000  0.000000  0.000000  1
  H  H24  1  0.906300  0.806900  0.467000  1
  H  H25  1  0.093700  0.193100  0.533000  1
  H  H26  1  0.828900  0.796300  0.417900  1
  H  H27  1  0.171100  0.203700  0.582100  1
  H  H28  1  0.744500  0.820600  0.576100  1
  H  H29  1  0.255500  0.179400  0.423900  1
  H  H30  1  0.700000  0.790200  0.554100  1
  H  H31  1  0.300000  0.209800  0.445900  1
  H  H32  1  0.658000  0.893600  0.501500  1
  H  H33  1  0.342000  0.106400  0.498500  1
  H  H34  1  0.650700  0.892300  0.555100  1
  H  H35  1  0.349300  0.107700  0.444900  1
  H  H36  1  0.717700  0.946900  0.583300  1
  H  H37  1  0.282300  0.053100  0.416700  1
  H  H38  1  0.768900  0.034600  0.564500  1
  H  H39  1  0.231100  0.965400  0.435500  1
  H  H40  1  0.781400  0.041700  0.428400  1
  H  H41  1  0.218600  0.958300  0.571600  1
  H  H42  1  0.720600  0.960600  0.447600  1
  H  H43  1  0.279400  0.039400  0.552400  1
  H  H44  1  0.893600  0.045100  0.487200  1
  H  H45  1  0.106400  0.954900  0.512800  1
  H  H46  1  0.989100  0.102500  0.463300  1
  H  H47  1  0.010900  0.897500  0.536700  1
  H  H48  1  0.026600  0.197600  0.443200  1
  H  H49  1  0.973400  0.802400  0.556800  1
  H  H50  1  0.854600  0.296100  0.433100  1
  H  H51  1  0.145400  0.703900  0.566900  1
  H  H52  1  0.012200  0.315600  0.369000  1
  H  H53  1  0.987800  0.684400  0.631000  1
  H  H54  1  0.923800  0.340300  0.483300  1
  H  H55  1  0.076200  0.659700  0.516700  1
  H  H56  1  0.964600  0.434700  0.468100  1
  H  H57  1  0.035400  0.565300  0.531900  1
  H  H58  1  0.042100  0.506100  0.419900  1
  H  H59  1  0.957900  0.493900  0.580100  1
  H  H60  1  0.200100  0.490900  0.379900  1
  H  H61  1  0.799900  0.509100  0.620100  1
  H  H62  1  0.246600  0.580400  0.359300  1
  H  H63  1  0.753400  0.419600  0.640700  1
  H  H64  1  0.091100  0.695100  0.299600  1
  H  H65  1  0.908900  0.304900  0.700400  1
  H  H66  1  0.042500  0.605700  0.320400  1
  H  H67  1  0.957500  0.394300  0.679600  1
  H  H68  1  0.250500  0.691000  0.306400  1
  H  H69  1  0.749500  0.309000  0.693600  1
  H  H70  1  0.188800  0.737700  0.281500  1
  H  H71  1  0.811200  0.262300  0.718500  1
  H  H72  1  0.221900  0.705600  0.377900  1
  H  H73  1  0.778100  0.294400  0.622100  1
  H  H74  1  0.221800  0.774300  0.337300  1
  H  H75  1  0.778200  0.225700  0.662700  1
  H  H76  1  0.001700  0.847000  0.347500  1
  H  H77  1  0.998300  0.153000  0.652500  1
  H  H78  1  0.016900  0.769200  0.426100  1
  H  H79  1  0.983100  0.230800  0.573900  1
  H  H80  1  0.427700  0.542100  0.339000  1
  H  H81  1  0.572300  0.457900  0.661000  1
  H  H82  1  0.383600  0.450400  0.388400  1
  H  H83  1  0.616400  0.549600  0.611600  1
  H  H84  1  0.430500  0.362200  0.265800  1
  H  H85  1  0.569500  0.637800  0.734200  1
  H  H86  1  0.473300  0.411900  0.236100  1
  H  H87  1  0.526700  0.588100  0.763900  1
  H  H88  1  0.385900  0.418000  0.193300  1
  H  H89  1  0.614100  0.582000  0.806700  1
  H  H90  1  0.391300  0.486000  0.197100  1
  H  H91  1  0.608700  0.514000  0.802900  1
  H  H92  1  0.304200  0.361400  0.237800  1
  H  H93  1  0.695800  0.638600  0.762200  1
  H  H94  1  0.201800  0.375500  0.263100  1
  H  H95  1  0.798200  0.624500  0.736900  1
  H  H96  1  0.213700  0.550000  0.267500  1
  H  H97  1  0.786300  0.450000  0.732500  1
  H  H98  1  0.316800  0.535400  0.241400  1
  H  H99  1  0.683200  0.464600  0.758600  1
  H  H100  1  0.122100  0.553400  0.217900  1
  H  H101  1  0.877900  0.446600  0.782100  1
  H  H102  1  0.012300  0.616200  0.191100  1
  H  H103  1  0.987700  0.383800  0.808900  1
  H  H104  1  0.908400  0.635700  0.208700  1
  H  H105  1  0.091600  0.364300  0.791300  1
  H  H106  1  0.941700  0.483200  0.328300  1
  H  H107  1  0.058300  0.516800  0.671700  1
  H  H108  1  0.815000  0.576400  0.226400  1
  H  H109  1  0.185000  0.423600  0.773600  1
  H  H110  1  0.865800  0.578000  0.351600  1
  H  H111  1  0.134200  0.422000  0.648400  1
  H  H112  1  0.762800  0.620600  0.363900  1
  H  H113  1  0.237200  0.379400  0.636100  1
  H  H114  1  0.651900  0.664300  0.329800  1
  H  H115  1  0.348100  0.335700  0.670200  1
  H  H116  1  0.588400  0.771200  0.272500  1
  H  H117  1  0.411600  0.228800  0.727500  1
  H  H118  1  0.489100  0.816900  0.286300  1
  H  H119  1  0.510900  0.183100  0.713700  1
  H  H120  1  0.429000  0.661600  0.283900  1
  H  H121  1  0.571000  0.338400  0.716100  1
  H  H122  1  0.528500  0.613500  0.270300  1
  H  H123  1  0.471500  0.386500  0.729700  1
  H  H124  1  0.361900  0.739500  0.314100  1
  H  H125  1  0.638100  0.260500  0.685900  1
  H  H126  1  0.385300  0.803300  0.312100  1
  H  H127  1  0.614700  0.196700  0.687900  1
  H  H128  1  0.342800  0.782200  0.232900  1
  H  H129  1  0.657200  0.217800  0.767100  1
  H  H130  1  0.306500  0.831200  0.257500  1
  H  H131  1  0.693500  0.168800  0.742500  1
  H  H132  1  0.429400  0.998300  0.179700  1
  H  H133  1  0.570600  0.001700  0.820300  1
  H  H134  1  0.449300  0.938300  0.126200  1
  H  H135  1  0.550700  0.061700  0.873800  1
  H  H136  1  0.451900  0.392900  0.623200  1
  H  H137  1  0.548100  0.607100  0.376800  1
  H  H138  1  0.518200  0.356800  0.567000  1
  H  H139  1  0.481800  0.643200  0.433000  1
  H  H140  1  0.338800  0.424300  0.468800  1
  H  H141  1  0.661200  0.575700  0.531200  1
  H  H142  1  0.292000  0.436600  0.508700  1
  H  H143  1  0.708000  0.563400  0.491300  1
  H  H144  1  0.343400  0.307600  0.512200  1
  H  H145  1  0.656600  0.692400  0.487800  1
  H  H146  1  0.285200  0.328500  0.541300  1
  H  H147  1  0.714800  0.671500  0.458700  1
  H  H148  1  0.186900  0.349000  0.507700  1
  H  H149  1  0.813100  0.651000  0.492300  1
  H  H150  1  0.122700  0.352900  0.447400  1
  H  H151  1  0.877300  0.647100  0.552600  1
  H  H152  1  0.268600  0.355600  0.359900  1
  H  H153  1  0.731400  0.644400  0.640100  1
  H  H154  1  0.331300  0.349600  0.422400  1
  H  H155  1  0.668700  0.650400  0.577600  1
  H  H156  1  0.182000  0.268500  0.367400  1
  H  H157  1  0.818000  0.731500  0.632600  1
  H  H158  1  0.146700  0.223500  0.305600  1
  H  H159  1  0.853300  0.776500  0.694400  1
  H  H160  1  0.082800  0.243500  0.242100  1
  H  H161  1  0.917200  0.756500  0.757900  1
  H  H162  1  0.019600  0.421400  0.242800  1
  H  H163  1  0.980400  0.578600  0.757200  1
  H  H164  1  0.968100  0.278800  0.214300  1
  H  H165  1  0.031900  0.721200  0.785700  1
  H  H166  1  0.045500  0.434200  0.152100  1
  H  H167  1  0.954500  0.565800  0.847900  1
  H  H168  1  0.995200  0.452400  0.081000  1
  H  H169  1  0.004800  0.547600  0.919000  1
  H  H170  1  0.928600  0.406300  0.035400  1
  H  H171  1  0.071400  0.593700  0.964600  1
  H  H172  1  0.786400  0.377000  0.038000  1
  H  H173  1  0.213600  0.623000  0.962000  1
  H  H174  1  0.740900  0.367200  0.974000  1
  H  H175  1  0.259100  0.632800  0.026000  1
  H  H176  1  0.899000  0.276800  0.940700  1
  H  H177  1  0.101000  0.723200  0.059300  1
  H  H178  1  0.943700  0.272100  0.010200  1
  H  H179  1  0.056300  0.727900  0.989800  1
  H  H180  1  0.799000  0.276400  0.903600  1
  H  H181  1  0.201000  0.723600  0.096400  1
  H  H182  1  0.740100  0.325400  0.911800  1
  H  H183  1  0.259900  0.674600  0.088200  1
  H  H184  1  0.778900  0.371900  0.837200  1
  H  H185  1  0.221100  0.628100  0.162800  1
  H  H186  1  0.845600  0.361300  0.858800  1
  H  H187  1  0.154400  0.638700  0.141200  1
  H  H188  1  0.699700  0.558000  0.890500  1
  H  H189  1  0.300300  0.442000  0.109500  1
  H  H190  1  0.806800  0.569200  0.880400  1
  H  H191  1  0.193200  0.430800  0.119600  1
  H  H192  1  0.293000  0.092500  0.685600  1
  H  H193  1  0.707000  0.907500  0.314400  1
  H  H194  1  0.277200  0.206000  0.676800  1
  H  H195  1  0.722800  0.794000  0.323200  1
  H  H196  1  0.434300  0.219700  0.558900  1
  H  H197  1  0.565700  0.780300  0.441100  1
  H  H198  1  0.441800  0.145600  0.563000  1
  H  H199  1  0.558200  0.854400  0.437000  1
  H  H200  1  0.505700  0.190900  0.620600  1
  H  H201  1  0.494300  0.809100  0.379400  1
  H  H202  1  0.510600  0.115600  0.628700  1
  H  H203  1  0.489400  0.884400  0.371300  1
  H  H204  1  0.561100  0.073000  0.568400  1
  H  H205  1  0.438900  0.927000  0.431600  1
  H  H206  1  0.638700  0.078400  0.511300  1
  H  H207  1  0.361300  0.921600  0.488700  1
  H  H208  1  0.632600  0.266100  0.494300  1
  H  H209  1  0.367400  0.733900  0.505700  1
  H  H210  1  0.558800  0.256600  0.554500  1
  H  H211  1  0.441200  0.743400  0.445500  1
  H  H212  1  0.627800  0.170500  0.417500  1
  H  H213  1  0.372200  0.829500  0.582500  1
  H  H214  1  0.659300  0.179400  0.331700  1
  H  H215  1  0.340700  0.820600  0.668300  1
  H  H216  1  0.736900  0.183000  0.276100  1
  H  H217  1  0.263100  0.817000  0.723900  1
  H  H218  1  0.853100  0.186900  0.370100  1
  H  H219  1  0.146900  0.813100  0.629900  1
  H  H220  1  0.813800  0.253000  0.228600  1
  H  H221  1  0.186200  0.747000  0.771400  1
  H  H222  1  0.913900  0.104700  0.330200  1
  H  H223  1  0.086100  0.895300  0.669800  1
  H  H224  1  0.985700  0.089400  0.272700  1
  H  H225  1  0.014300  0.910600  0.727300  1
  H  H226  1  0.020000  0.133200  0.184100  1
  H  H227  1  0.980000  0.866800  0.815900  1
  H  H228  1  0.979500  0.124500  0.089000  1
  H  H229  1  0.020500  0.875500  0.911000  1
  H  H230  1  0.040800  0.125000  0.024100  1
  H  H231  1  0.959200  0.875000  0.975900  1
  H  H232  1  0.107200  0.273700  0.030100  1
  H  H233  1  0.892800  0.726300  0.969900  1
  H  H234  1  0.044000  0.277500  0.093500  1
  H  H235  1  0.956000  0.722500  0.906500  1
  H  H236  1  0.118200  0.155900  0.972100  1
  H  H237  1  0.881800  0.844100  0.027900  1
  H  H238  1  0.090800  0.231400  0.947700  1
  H  H239  1  0.909200  0.768600  0.052300  1
  H  H240  1  0.191400  0.230600  0.939800  1
  H  H241  1  0.808600  0.769400  0.060200  1
  H  H242  1  0.177400  0.248400  0.986900  1
  H  H243  1  0.822600  0.751600  0.013100  1
  H  H244  1  0.330800  0.072900  0.077300  1
  H  H245  1  0.669200  0.927100  0.922700  1
  H  H246  1  0.331000  0.032600  0.012300  1
  H  H247  1  0.669000  0.967400  0.987700  1
  H  H248  1  0.664100  0.669300  0.924200  1
  H  H249  1  0.335900  0.330700  0.075800  1
  H  H250  1  0.731100  0.668000  0.985100  1
  H  H251  1  0.268900  0.332000  0.014900  1
  H  H252  1  0.544700  0.856500  0.955800  1
  H  H253  1  0.455300  0.143500  0.044200  1
  H  H254  1  0.579700  0.840800  0.004400  1
  H  H255  1  0.420300  0.159200  0.995600  1
  H  H256  1  0.483700  0.778200  0.995300  1
  H  H257  1  0.516300  0.221800  0.004700  1
  H  H258  1  0.475300  0.834100  0.018000  1
  H  H259  1  0.524700  0.165900  0.982000  1
  H  H260  1  0.548800  0.671100  0.037900  1
  H  H261  1  0.451200  0.328900  0.962100  1
  H  H262  1  0.589800  0.594300  0.111100  1
  H  H263  1  0.410200  0.405700  0.888900  1
  H  H264  1  0.541500  0.730500  0.172200  1
  H  H265  1  0.458500  0.269500  0.827800  1
  H  H266  1  0.500000  0.806100  0.098900  1
  H  H267  1  0.500000  0.193900  0.901100  1
  H  H268  1  0.550000  0.548400  0.190500  1
  H  H269  1  0.450000  0.451600  0.809500  1
  H  H270  1  0.572500  0.431100  0.255200  1
  H  H271  1  0.427500  0.568900  0.744800  1
  H  H272  1  0.628300  0.361400  0.322300  1
  H  H273  1  0.371700  0.638600  0.677700  1
  H  H274  1  0.710200  0.505700  0.320500  1
  H  H275  1  0.289800  0.494300  0.679500  1
  H  H276  1  0.719800  0.304300  0.367100  1
  H  H277  1  0.280200  0.695700  0.632900  1
  H  H278  1  0.693200  0.464900  0.402000  1
  H  H279  1  0.306800  0.535100  0.598000  1
  H  H280  1  0.725700  0.398500  0.479100  1
  H  H281  1  0.274300  0.601500  0.520900  1
  H  H282  1  0.754500  0.281600  0.540200  1
  H  H283  1  0.245500  0.718400  0.459800  1
  H  H284  1  0.872000  0.133400  0.556000  1
  H  H285  1  0.128000  0.866600  0.444000  1
  H  H286  1  0.890500  0.061600  0.631900  1
  H  H287  1  0.109500  0.938400  0.368100  1
  H  H288  1  0.716600  0.102600  0.667800  1
  H  H289  1  0.283400  0.897400  0.332200  1
  H  H290  1  0.694500  0.178200  0.591300  1
  H  H291  1  0.305500  0.821800  0.408700  1
  H  H292  1  0.870100  0.013600  0.709100  1
  H  H293  1  0.129900  0.986400  0.290900  1
  H  H294  1  0.832300  0.070800  0.725400  1
  H  H295  1  0.167700  0.929200  0.274600  1
  H  H296  1  0.791600  0.959400  0.726300  1
  H  H297  1  0.208400  0.040600  0.273700  1
  H  H298  1  0.744700  0.020800  0.731900  1
  H  H299  1  0.255300  0.979200  0.268100  1
  H  H300  1  0.811500  0.967000  0.898500  1
  H  H301  1  0.188500  0.033000  0.101500  1
  H  H302  1  0.871500  0.873300  0.883800  1
  H  H303  1  0.128500  0.126700  0.116200  1
  H  H304  1  0.638600  0.208500  0.065600  1
  H  H305  1  0.361400  0.791500  0.934400  1
  H  H306  1  0.566300  0.210700  0.128500  1
  H  H307  1  0.433700  0.789300  0.871500  1
  H  H308  1  0.598400  0.995000  0.095500  1
  H  H309  1  0.401600  0.005000  0.904500  1
  H  H310  1  0.551100  0.995400  0.137700  1
  H  H311  1  0.448900  0.004600  0.862300  1
  H  H312  1  0.630100  0.965100  0.191900  1
  H  H313  1  0.369900  0.034900  0.808100  1
  H  H314  1  0.680300  0.974200  0.150700  1
  H  H315  1  0.319700  0.025800  0.849300  1
  H  H316  1  0.615500  0.905100  0.100100  1
  H  H317  1  0.384500  0.094900  0.899900  1
  H  H318  1  0.636000  0.795100  0.107100  1
  H  H319  1  0.364000  0.204900  0.892900  1
  H  H320  1  0.711400  0.746800  0.236900  1
  H  H321  1  0.288600  0.253200  0.763100  1
  H  H322  1  0.689300  0.858000  0.228200  1
  H  H323  1  0.310700  0.142000  0.771800  1
  H  H324  1  0.731200  0.721600  0.114900  1
  H  H325  1  0.268800  0.278400  0.885100  1
  H  H326  1  0.775300  0.634600  0.075900  1
  H  H327  1  0.224700  0.365400  0.924100  1
  H  H328  1  0.798100  0.526600  0.084200  1
  H  H329  1  0.201900  0.473400  0.915800  1
  H  H330  1  0.718900  0.484300  0.210200  1
  H  H331  1  0.281100  0.515700  0.789800  1
  H  H332  1  0.849900  0.405800  0.145100  1
  H  H333  1  0.150100  0.594200  0.854900  1
  H  H334  1  0.666200  0.429300  0.152600  1
  H  H335  1  0.333800  0.570700  0.847400  1
  H  H336  1  0.672600  0.329800  0.140900  1
  H  H337  1  0.327400  0.670200  0.859100  1
  H  H338  1  0.741900  0.231900  0.126400  1
  H  H339  1  0.258100  0.768100  0.873600  1
  H  H340  1  0.789200  0.210100  0.049500  1
  H  H341  1  0.210800  0.789900  0.950500  1
  H  H342  1  0.790500  0.114700  0.035100  1
  H  H343  1  0.209500  0.885300  0.964900  1
  H  H344  1  0.881600  0.009400  0.157300  1
  H  H345  1  0.118400  0.990600  0.842700  1
  H  H346  1  0.880800  0.105700  0.172500  1
  H  H347  1  0.119200  0.894300  0.827500  1
  H  H348  1  0.819200  0.959300  0.118600  1
  H  H349  1  0.180800  0.040700  0.881400  1
  H  H350  1  0.793100  0.001000  0.066200  1
  H  H351  1  0.206900  0.999000  0.933800  1
  H  H352  1  0.878800  0.921400  0.064400  1
  H  H353  1  0.121200  0.078600  0.935600  1
  H  H354  1  0.919700  0.952300  0.089100  1
  H  H355  1  0.080300  0.047700  0.910900  1
  H  H356  1  0.880200  0.099200  0.908800  1
  H  H357  1  0.119800  0.900800  0.091200  1
  H  H358  1  0.958200  0.125000  0.947100  1
  H  H359  1  0.041800  0.875000  0.052900  1
  H  H360  1  0.448600  0.217700  0.421400  1
  H  H361  1  0.551400  0.782300  0.578600  1
  H  H362  1  0.436100  0.272200  0.445400  1
  H  H363  1  0.563900  0.727800  0.554600  1
  H  H364  1  0.484600  0.206700  0.468800  1
  H  H365  1  0.515400  0.793300  0.531200  1
  H  H366  1  0.054800  0.219900  0.697700  1
  H  H367  1  0.945200  0.780100  0.302300  1
  H  H368  1  0.042000  0.287400  0.706800  1
  H  H369  1  0.958000  0.712600  0.293200  1
  H  H370  1  0.054200  0.220600  0.750600  1
  H  H371  1  0.945800  0.779400  0.249400  1
  H  H372  1  0.513800  0.519200  0.339800  1
  H  H373  1  0.486200  0.480800  0.660200  1
  H  H374  1  0.577300  0.470800  0.340300  1
  H  H375  1  0.422700  0.529200  0.659700  1
  H  H376  1  0.576600  0.535500  0.351600  1
  H  H377  1  0.423400  0.464500  0.648400  1
  H  H378  1  0.376700  0.639800  0.138900  1
  H  H379  1  0.623300  0.360200  0.861100  1
  H  H380  1  0.430900  0.634100  0.173500  1
  H  H381  1  0.569100  0.365900  0.826500  1
  H  H382  1  0.400700  0.703400  0.136900  1
  H  H383  1  0.599300  0.296600  0.863100  1
  H  H384  1  0.628800  0.296400  0.078400  1
  H  H385  1  0.371200  0.703600  0.921600  1
  H  H386  1  0.670600  0.349900  0.055500  1
  H  H387  1  0.329400  0.650100  0.944500  1
  H  H388  1  0.682600  0.285300  0.042600  1
  H  H389  1  0.317400  0.714700  0.957400  1
  H  H390  1  0.717900  0.104400  0.930200  1
  H  H391  1  0.282100  0.895600  0.069800  1
  H  H392  1  0.647700  0.128800  0.918600  1
  H  H393  1  0.352300  0.871200  0.081400  1
  H  H394  1  0.669600  0.089100  0.971000  1
  H  H395  1  0.330400  0.910900  0.029000  1
  H  H396  1  0.858200  0.501400  0.523300  1
  H  H397  1  0.141800  0.498600  0.476700  1
  H  H398  1  0.856700  0.425700  0.540500  1
  H  H399  1  0.143300  0.574300  0.459500  1
  H  H400  1  0.794300  0.477000  0.536600  1
  H  H401  1  0.205700  0.523000  0.463400  1
  H  H402  1  0.087000  0.903400  0.189200  1
  H  H403  1  0.913000  0.096600  0.810800  1
  H  H404  1  0.046100  0.946500  0.143200  1
  H  H405  1  0.953900  0.053500  0.856800  1
  H  H406  1  0.018500  0.893200  0.185700  1
  H  H407  1  0.981500  0.106800  0.814300  1
  H  H408  1  0.184800  0.960800  0.717800  1
  H  H409  1  0.815200  0.039200  0.282200  1
  H  H410  1  0.113000  0.052400  0.686100  1
  H  H411  1  0.887000  0.947600  0.313900  1
  H  H412  1  0.133200  0.044000  0.738300  1
  H  H413  1  0.866800  0.956000  0.261700  1
  H  H414  1  0.158700  0.095300  0.693000  1
  H  H415  1  0.841300  0.904700  0.307000  1
  H  H416  1  0.257800  0.971100  0.659400  1
  H  H417  1  0.742200  0.028900  0.340600  1
  H  H418  1  0.190800  0.003500  0.636900  1
  H  H419  1  0.809200  0.996500  0.363100  1
  H  H420  1  0.236600  0.048300  0.640700  1
  H  H421  1  0.763400  0.951700  0.359300  1
  H  H422  1  0.293400  0.921900  0.716200  1
  H  H423  1  0.706600  0.078100  0.283800  1
  H  H424  1  0.313500  0.854000  0.795200  1
  H  H425  1  0.686500  0.146000  0.204800  1
  H  H426  1  0.285800  0.913300  0.812800  1
  H  H427  1  0.714200  0.086700  0.187200  1
  H  H428  1  0.242100  0.885400  0.788000  1
  H  H429  1  0.757900  0.114600  0.212000  1
  H  H430  1  0.388700  0.912600  0.747500  1
  H  H431  1  0.611300  0.087400  0.252500  1
  H  H432  1  0.367700  0.984000  0.710000  1
  H  H433  1  0.632300  0.016000  0.290000  1
  H  H434  1  0.362700  0.971800  0.765600  1
  H  H435  1  0.637300  0.028200  0.234400  1
  C  C436  1  0.833500  0.812900  0.518500  1
  C  C437  1  0.166500  0.187100  0.481500  1
  C  C438  1  0.864100  0.807400  0.474400  1
  C  C439  1  0.135900  0.192600  0.525600  1
  C  C440  1  0.821400  0.803000  0.447300  1
  C  C441  1  0.178600  0.197000  0.552700  1
  C  C442  1  0.760500  0.810300  0.469700  1
  C  C443  1  0.239500  0.189700  0.530300  1
  C  C444  1  0.724100  0.825200  0.546500  1
  C  C445  1  0.275900  0.174800  0.453500  1
  C  C446  1  0.680800  0.889700  0.529900  1
  C  C447  1  0.319200  0.110300  0.470100  1
  C  C448  1  0.715500  0.944500  0.517900  1
  C  C449  1  0.284500  0.055500  0.482100  1
  C  C450  1  0.729500  0.966900  0.551500  1
  C  C451  1  0.270500  0.033100  0.448500  1
  C  C452  1  0.760900  0.018700  0.540600  1
  C  C453  1  0.239100  0.981300  0.459400  1
  C  C454  1  0.779900  0.046300  0.495000  1
  C  C455  1  0.220100  0.953700  0.505000  1
  C  C456  1  0.767200  0.023900  0.459800  1
  C  C457  1  0.232800  0.976100  0.540200  1
  C  C458  1  0.732500  0.974000  0.471800  1
  C  C459  1  0.267500  0.026000  0.528200  1
  C  C460  1  0.870500  0.087900  0.478900  1
  C  C461  1  0.129500  0.912100  0.521100  1
  C  C462  1  0.899100  0.144500  0.462300  1
  C  C463  1  0.100900  0.855500  0.537700  1
  C  C464  1  0.961600  0.142700  0.457900  1
  C  C465  1  0.038400  0.857300  0.542100  1
  C  C466  1  0.983700  0.198700  0.445900  1
  C  C467  1  0.016300  0.801300  0.554100  1
  C  C468  1  0.944500  0.256300  0.437900  1
  C  C469  1  0.055500  0.743700  0.562100  1
  C  C470  1  0.882400  0.255900  0.440400  1
  C  C471  1  0.117600  0.744100  0.559600  1
  C  C472  1  0.003800  0.339000  0.390100  1
  C  C473  1  0.996200  0.661000  0.609900  1
  C  C474  1  0.966600  0.317300  0.428000  1
  C  C475  1  0.033400  0.682700  0.572000  1
  C  C476  1  0.950800  0.353300  0.457500  1
  C  C477  1  0.049200  0.646700  0.542500  1
  C  C478  1  0.975200  0.408700  0.448800  1
  C  C479  1  0.024800  0.591300  0.551200  1
  C  C480  1  0.015200  0.425200  0.411500  1
  C  C481  1  0.984800  0.574800  0.588500  1
  C  C482  1  0.047800  0.478700  0.401500  1
  C  C483  1  0.952200  0.521300  0.598500  1
  C  C484  1  0.116500  0.540100  0.353900  1
  C  C485  1  0.883500  0.459900  0.646100  1
  C  C486  1  0.177100  0.532800  0.363800  1
  C  C487  1  0.822900  0.467200  0.636200  1
  C  C488  1  0.205000  0.585800  0.350700  1
  C  C489  1  0.795000  0.414200  0.649300  1
  C  C490  1  0.174000  0.646400  0.325300  1
  C  C491  1  0.826000  0.353600  0.674700  1
  C  C492  1  0.113800  0.653100  0.315700  1
  C  C493  1  0.886200  0.346900  0.684300  1
  C  C494  1  0.084200  0.600200  0.328800  1
  C  C495  1  0.915800  0.399800  0.671200  1
  C  C496  1  0.206400  0.705300  0.311700  1
  C  C497  1  0.793600  0.294700  0.688300  1
  C  C498  1  0.200500  0.737000  0.348800  1
  C  C499  1  0.799500  0.263000  0.651200  1
  C  C500  1  0.094000  0.812200  0.330300  1
  C  C501  1  0.906000  0.187800  0.669700  1
  C  C502  1  0.038700  0.817000  0.358700  1
  C  C503  1  0.961300  0.183000  0.641300  1
  C  C504  1  0.046900  0.774600  0.401800  1
  C  C505  1  0.953100  0.225400  0.598200  1
  C  C506  1  0.110000  0.736400  0.406600  1
  C  C507  1  0.890000  0.263600  0.593400  1
  C  C508  1  0.439400  0.496900  0.285200  1
  C  C509  1  0.560600  0.503100  0.714800  1
  C  C510  1  0.423000  0.506100  0.330800  1
  C  C511  1  0.577000  0.493900  0.669200  1
  C  C512  1  0.400800  0.455300  0.358000  1
  C  C513  1  0.599200  0.544700  0.642000  1
  C  C514  1  0.406400  0.407400  0.334300  1
  C  C515  1  0.593600  0.592600  0.665700  1
  C  C516  1  0.432900  0.408700  0.251700  1
  C  C517  1  0.567100  0.591300  0.748300  1
  C  C518  1  0.383800  0.442000  0.215500  1
  C  C519  1  0.616200  0.558000  0.784500  1
  C  C520  1  0.319600  0.447600  0.236200  1
  C  C521  1  0.680400  0.552400  0.763800  1
  C  C522  1  0.286000  0.400300  0.243200  1
  C  C523  1  0.714000  0.599700  0.756800  1
  C  C524  1  0.225100  0.408500  0.258300  1
  C  C525  1  0.774900  0.591500  0.741700  1
  C  C526  1  0.199400  0.464100  0.266200  1
  C  C527  1  0.800600  0.535900  0.733800  1
  C  C528  1  0.231800  0.512000  0.261000  1
  C  C529  1  0.768200  0.488000  0.739000  1
  C  C530  1  0.293300  0.502800  0.245500  1
  C  C531  1  0.706700  0.497200  0.754500  1
  C  C532  1  0.103000  0.526400  0.244400  1
  C  C533  1  0.897000  0.473600  0.755600  1
  C  C534  1  0.037000  0.539600  0.250900  1
  C  C535  1  0.963000  0.460400  0.749100  1
  C  C536  1  0.997200  0.589500  0.220000  1
  C  C537  1  0.002800  0.410500  0.780000  1
  C  C538  1  0.936000  0.601600  0.230200  1
  C  C539  1  0.064000  0.398400  0.769800  1
  C  C540  1  0.916100  0.563300  0.272000  1
  C  C541  1  0.083900  0.436700  0.728000  1
  C  C542  1  0.956900  0.511900  0.300400  1
  C  C543  1  0.043100  0.488100  0.699600  1
  C  C544  1  0.804500  0.586000  0.254500  1
  C  C545  1  0.195500  0.414000  0.745500  1
  C  C546  1  0.850900  0.576700  0.286100  1
  C  C547  1  0.149100  0.423300  0.713900  1
  C  C548  1  0.835400  0.587200  0.328100  1
  C  C549  1  0.164600  0.412800  0.671900  1
  C  C550  1  0.774400  0.611700  0.335700  1
  C  C551  1  0.225600  0.388300  0.664300  1
  C  C552  1  0.731100  0.622700  0.301600  1
  C  C553  1  0.268900  0.377300  0.698400  1
  C  C554  1  0.667200  0.650200  0.304300  1
  C  C555  1  0.332800  0.349800  0.695700  1
  C  C556  1  0.568300  0.685800  0.273800  1
  C  C557  1  0.431700  0.314200  0.726200  1
  C  C558  1  0.556000  0.747900  0.276000  1
  C  C559  1  0.444000  0.252100  0.724000  1
  C  C560  1  0.497200  0.775300  0.283200  1
  C  C561  1  0.502800  0.224700  0.716800  1
  C  C562  1  0.449900  0.742900  0.286200  1
  C  C563  1  0.550100  0.257100  0.713800  1
  C  C564  1  0.461900  0.683700  0.281900  1
  C  C565  1  0.538100  0.316300  0.718100  1
  C  C566  1  0.521000  0.654300  0.274600  1
  C  C567  1  0.479000  0.345700  0.725400  1
  C  C568  1  0.383700  0.774100  0.294300  1
  C  C569  1  0.616300  0.225900  0.705700  1
  C  C570  1  0.347800  0.811900  0.249500  1
  C  C571  1  0.652200  0.188100  0.750500  1
  C  C572  1  0.385000  0.920600  0.226000  1
  C  C573  1  0.615000  0.079400  0.774000  1
  C  C574  1  0.417900  0.957900  0.184600  1
  C  C575  1  0.582100  0.042100  0.815400  1
  C  C576  1  0.428500  0.924700  0.155600  1
  C  C577  1  0.571500  0.075300  0.844400  1
  C  C578  1  0.404300  0.864300  0.174000  1
  C  C579  1  0.595700  0.135700  0.826000  1
  C  C580  1  0.377400  0.412000  0.573900  1
  C  C581  1  0.622600  0.588000  0.426100  1
  C  C582  1  0.439600  0.391200  0.594200  1
  C  C583  1  0.560400  0.608800  0.405800  1
  C  C584  1  0.474900  0.369700  0.564400  1
  C  C585  1  0.525100  0.630300  0.435600  1
  C  C586  1  0.437300  0.368500  0.526100  1
  C  C587  1  0.562700  0.631500  0.473900  1
  C  C588  1  0.326800  0.405700  0.502400  1
  C  C589  1  0.673200  0.594300  0.497600  1
  C  C590  1  0.306700  0.341600  0.510600  1
  C  C591  1  0.693300  0.658400  0.489400  1
  C  C592  1  0.264900  0.347100  0.471500  1
  C  C593  1  0.735100  0.652900  0.528500  1
  C  C594  1  0.204100  0.349600  0.477900  1
  C  C595  1  0.795900  0.650400  0.522100  1
  C  C596  1  0.165200  0.353100  0.441800  1
  C  C597  1  0.834800  0.646900  0.558200  1
  C  C598  1  0.189800  0.356700  0.398300  1
  C  C599  1  0.810200  0.643300  0.601700  1
  C  C600  1  0.251600  0.354500  0.389900  1
  C  C601  1  0.748400  0.645500  0.610100  1
  C  C602  1  0.288600  0.350300  0.427500  1
  C  C603  1  0.711400  0.649700  0.572500  1
  C  C604  1  0.155000  0.307600  0.350900  1
  C  C605  1  0.845000  0.692400  0.649100  1
  C  C606  1  0.116400  0.312700  0.311900  1
  C  C607  1  0.883600  0.687300  0.688100  1
  C  C608  1  0.119900  0.264100  0.292600  1
  C  C609  1  0.880100  0.735900  0.707400  1
  C  C610  1  0.083500  0.276800  0.254500  1
  C  C611  1  0.916500  0.723200  0.745500  1
  C  C612  1  0.048700  0.335600  0.234100  1
  C  C613  1  0.951300  0.664400  0.765900  1
  C  C614  1  0.046100  0.380600  0.255900  1
  C  C615  1  0.953900  0.619400  0.744100  1
  C  C616  1  0.975300  0.313600  0.186700  1
  C  C617  1  0.024700  0.686400  0.813300  1
  C  C618  1  0.013600  0.352500  0.189800  1
  C  C619  1  0.986400  0.647500  0.810200  1
  C  C620  1  0.020600  0.405200  0.150500  1
  C  C621  1  0.979400  0.594800  0.849500  1
  C  C622  1  0.991300  0.416000  0.108500  1
  C  C623  1  0.008700  0.584000  0.891500  1
  C  C624  1  0.956200  0.371900  0.107800  1
  C  C625  1  0.043800  0.628100  0.892200  1
  C  C626  1  0.927100  0.373000  0.065300  1
  C  C627  1  0.072900  0.627000  0.934700  1
  C  C628  1  0.869500  0.323600  0.031200  1
  C  C629  1  0.130500  0.676400  0.968800  1
  C  C630  1  0.809300  0.353500  0.019700  1
  C  C631  1  0.190700  0.646500  0.980300  1
  C  C632  1  0.783000  0.348700  0.981100  1
  C  C633  1  0.217000  0.651300  0.018900  1
  C  C634  1  0.815600  0.318000  0.952900  1
  C  C635  1  0.184400  0.682000  0.047100  1
  C  C636  1  0.874900  0.293900  0.962100  1
  C  C637  1  0.125100  0.706100  0.037900  1
  C  C638  1  0.902400  0.293300  0.002500  1
  C  C639  1  0.097600  0.706700  0.997500  1
  C  C640  1  0.785200  0.318800  0.907800  1
  C  C641  1  0.214800  0.681200  0.092200  1
  C  C642  1  0.801100  0.371300  0.864900  1
  C  C643  1  0.198900  0.628700  0.135100  1
  C  C644  1  0.725200  0.467000  0.878300  1
  C  C645  1  0.274800  0.533000  0.121700  1
  C  C646  1  0.732100  0.527700  0.884100  1
  C  C647  1  0.267900  0.472300  0.115900  1
  C  C648  1  0.791000  0.533500  0.879000  1
  C  C649  1  0.209000  0.466500  0.121000  1
  C  C650  1  0.827600  0.475900  0.870900  1
  C  C651  1  0.172400  0.524100  0.129100  1
  C  C652  1  0.366200  0.109400  0.634300  1
  C  C653  1  0.633800  0.890600  0.365700  1
  C  C654  1  0.316200  0.123000  0.665800  1
  C  C655  1  0.683800  0.877000  0.334200  1
  C  C656  1  0.308900  0.184200  0.662200  1
  C  C657  1  0.691100  0.815800  0.337800  1
  C  C658  1  0.358100  0.213600  0.631800  1
  C  C659  1  0.641900  0.786400  0.368200  1
  C  C660  1  0.441800  0.174500  0.581400  1
  C  C661  1  0.558200  0.825500  0.418600  1
  C  C662  1  0.504200  0.159600  0.604500  1
  C  C663  1  0.495800  0.840400  0.395500  1
  C  C664  1  0.554500  0.163600  0.568100  1
  C  C665  1  0.445500  0.836400  0.431900  1
  C  C666  1  0.576600  0.112000  0.554300  1
  C  C667  1  0.423400  0.888000  0.445700  1
  C  C668  1  0.622100  0.115500  0.519500  1
  C  C669  1  0.377900  0.884500  0.480500  1
  C  C670  1  0.642500  0.172600  0.497300  1
  C  C671  1  0.357500  0.827400  0.502700  1
  C  C672  1  0.619200  0.226200  0.509600  1
  C  C673  1  0.380800  0.773800  0.490400  1
  C  C674  1  0.575000  0.220000  0.545500  1
  C  C675  1  0.425000  0.780000  0.454500  1
  C  C676  1  0.668600  0.175000  0.421400  1
  C  C677  1  0.331400  0.825000  0.578600  1
  C  C678  1  0.713300  0.179200  0.384000  1
  C  C679  1  0.286700  0.820800  0.616000  1
  C  C680  1  0.699900  0.180100  0.339400  1
  C  C681  1  0.300100  0.819900  0.660600  1
  C  C682  1  0.745600  0.181900  0.306800  1
  C  C683  1  0.254400  0.818100  0.693200  1
  C  C684  1  0.803900  0.182300  0.318400  1
  C  C685  1  0.196100  0.817700  0.681600  1
  C  C686  1  0.813100  0.184900  0.362200  1
  C  C687  1  0.186900  0.815100  0.637800  1
  C  C688  1  0.849000  0.219500  0.237800  1
  C  C689  1  0.151000  0.780500  0.762200  1
  C  C690  1  0.854500  0.177900  0.284700  1
  C  C691  1  0.145500  0.822100  0.715300  1
  C  C692  1  0.907300  0.131400  0.297900  1
  C  C693  1  0.092700  0.868600  0.702100  1
  C  C694  1  0.950800  0.123300  0.264300  1
  C  C695  1  0.049200  0.876700  0.735700  1
  C  C696  1  0.941800  0.166000  0.218300  1
  C  C697  1  0.058200  0.834000  0.781700  1
  C  C698  1  0.982200  0.163200  0.179200  1
  C  C699  1  0.017800  0.836800  0.820800  1
  C  C700  1  0.005200  0.201200  0.098200  1
  C  C701  1  0.994800  0.798800  0.901800  1
  C  C702  1  0.005100  0.155800  0.077100  1
  C  C703  1  0.994900  0.844200  0.922900  1
  C  C704  1  0.042100  0.155900  0.038800  1
  C  C705  1  0.957900  0.844100  0.961200  1
  C  C706  1  0.080700  0.199100  0.021200  1
  C  C707  1  0.919300  0.800900  0.978800  1
  C  C708  1  0.080700  0.243100  0.041900  1
  C  C709  1  0.919300  0.756900  0.958100  1
  C  C710  1  0.043300  0.245300  0.079900  1
  C  C711  1  0.956700  0.754700  0.920100  1
  C  C712  1  0.115000  0.199000  0.975100  1
  C  C713  1  0.885000  0.801000  0.024900  1
  C  C714  1  0.178400  0.214000  0.973300  1
  C  C715  1  0.821600  0.786000  0.026700  1
  C  C716  1  0.254000  0.148700  0.042900  1
  C  C717  1  0.746000  0.851300  0.957100  1
  C  C718  1  0.303600  0.091400  0.050900  1
  C  C719  1  0.696400  0.908600  0.949100  1
  C  C720  1  0.303900  0.069800  0.014700  1
  C  C721  1  0.696100  0.930200  0.985300  1
  C  C722  1  0.257000  0.111200  0.979400  1
  C  C723  1  0.743000  0.888800  0.020600  1
  C  C724  1  0.598900  0.743600  0.940600  1
  C  C725  1  0.401100  0.256400  0.059400  1
  C  C726  1  0.655200  0.695600  0.943300  1
  C  C727  1  0.344800  0.304400  0.056700  1
  C  C728  1  0.691800  0.694900  0.976500  1
  C  C729  1  0.308200  0.305100  0.023500  1
  C  C730  1  0.661500  0.742800  0.998000  1
  C  C731  1  0.338500  0.257200  0.002000  1
  C  C732  1  0.559300  0.821600  0.985900  1
  C  C733  1  0.440700  0.178400  0.014100  1
  C  C734  1  0.504700  0.797500  0.013300  1
  C  C735  1  0.495300  0.202500  0.986700  1
  C  C736  1  0.526000  0.747300  0.060900  1
  C  C737  1  0.474000  0.252700  0.939100  1
  C  C738  1  0.549200  0.683900  0.064700  1
  C  C739  1  0.450800  0.316100  0.935300  1
  C  C740  1  0.573500  0.637900  0.108300  1
  C  C741  1  0.426500  0.362100  0.891700  1
  C  C742  1  0.572900  0.658100  0.147000  1
  C  C743  1  0.427100  0.341900  0.853000  1
  C  C744  1  0.544800  0.718600  0.144700  1
  C  C745  1  0.455200  0.281400  0.855300  1
  C  C746  1  0.520400  0.763900  0.100700  1
  C  C747  1  0.479600  0.236100  0.899300  1
  C  C748  1  0.581200  0.557000  0.206300  1
  C  C749  1  0.418800  0.443000  0.793700  1
  C  C750  1  0.612100  0.507700  0.248300  1
  C  C751  1  0.387900  0.492300  0.751700  1
  C  C752  1  0.601500  0.445800  0.268700  1
  C  C753  1  0.398500  0.554200  0.731300  1
  C  C754  1  0.633300  0.405200  0.309000  1
  C  C755  1  0.366700  0.594800  0.691000  1
  C  C756  1  0.672200  0.427600  0.330000  1
  C  C757  1  0.327800  0.572400  0.670000  1
  C  C758  1  0.682300  0.490000  0.306800  1
  C  C759  1  0.317700  0.510000  0.693200  1
  C  C760  1  0.720100  0.324100  0.390300  1
  C  C761  1  0.279900  0.675900  0.609700  1
  C  C762  1  0.699200  0.389700  0.377200  1
  C  C763  1  0.300800  0.610300  0.622800  1
  C  C764  1  0.703600  0.419200  0.410300  1
  C  C765  1  0.296400  0.580800  0.589700  1
  C  C766  1  0.723600  0.379800  0.455600  1
  C  C767  1  0.276400  0.620200  0.544400  1
  C  C768  1  0.740300  0.314200  0.466900  1
  C  C769  1  0.259700  0.685800  0.533100  1
  C  C770  1  0.754900  0.267900  0.513800  1
  C  C771  1  0.245100  0.732100  0.486200  1
  C  C772  1  0.781600  0.163400  0.566700  1
  C  C773  1  0.218400  0.836600  0.433300  1
  C  C774  1  0.839900  0.128300  0.578700  1
  C  C775  1  0.160100  0.871700  0.421300  1
  C  C776  1  0.850400  0.086300  0.623500  1
  C  C777  1  0.149600  0.913700  0.376500  1
  C  C778  1  0.805400  0.078100  0.657400  1
  C  C779  1  0.194600  0.921900  0.342600  1
  C  C780  1  0.748500  0.110100  0.645100  1
  C  C781  1  0.251500  0.889900  0.354900  1
  C  C782  1  0.734900  0.154500  0.599600  1
  C  C783  1  0.265100  0.845500  0.400400  1
  C  C784  1  0.828800  0.039700  0.709600  1
  C  C785  1  0.171200  0.960300  0.290400  1
  C  C786  1  0.787700  0.997400  0.736500  1
  C  C787  1  0.212300  0.002600  0.263500  1
  C  C788  1  0.786800  0.006700  0.822600  1
  C  C789  1  0.213200  0.993300  0.177400  1
  C  C790  1  0.815800  0.960800  0.868800  1
  C  C791  1  0.184200  0.039200  0.131200  1
  C  C792  1  0.848700  0.909400  0.860100  1
  C  C793  1  0.151300  0.090600  0.139900  1
  C  C794  1  0.846200  0.914400  0.809300  1
  C  C795  1  0.153800  0.085600  0.190700  1
  C  C796  1  0.634200  0.107900  0.083400  1
  C  C797  1  0.365800  0.892100  0.916600  1
  C  C798  1  0.621100  0.173000  0.085300  1
  C  C799  1  0.378900  0.827000  0.914700  1
  C  C800  1  0.580700  0.174100  0.119200  1
  C  C801  1  0.419300  0.825900  0.880800  1
  C  C802  1  0.561000  0.110800  0.140700  1
  C  C803  1  0.439000  0.889200  0.859300  1
  C  C804  1  0.591800  0.004700  0.125200  1
  C  C805  1  0.408200  0.995300  0.874800  1
  C  C806  1  0.640300  0.960700  0.160600  1
  C  C807  1  0.359700  0.039300  0.839400  1
  C  C808  1  0.645800  0.890400  0.165200  1
  C  C809  1  0.354200  0.109600  0.834800  1
  C  C810  1  0.633100  0.872900  0.128400  1
  C  C811  1  0.366900  0.127100  0.871600  1
  C  C812  1  0.645800  0.807800  0.132200  1
  C  C813  1  0.354200  0.192200  0.867800  1
  C  C814  1  0.673200  0.762300  0.173500  1
  C  C815  1  0.326800  0.237700  0.826500  1
  C  C816  1  0.690800  0.778500  0.209600  1
  C  C817  1  0.309200  0.221500  0.790400  1
  C  C818  1  0.676900  0.844700  0.204200  1
  C  C819  1  0.323100  0.155300  0.795800  1
  C  C820  1  0.719500  0.686500  0.140200  1
  C  C821  1  0.280500  0.313500  0.859800  1
  C  C822  1  0.735000  0.621500  0.139800  1
  C  C823  1  0.265000  0.378500  0.860200  1
  C  C824  1  0.763600  0.603000  0.103800  1
  C  C825  1  0.236400  0.397000  0.896200  1
  C  C826  1  0.775300  0.539700  0.108000  1
  C  C827  1  0.224700  0.460300  0.892000  1
  C  C828  1  0.754900  0.495400  0.145800  1
  C  C829  1  0.245100  0.504600  0.854200  1
  C  C830  1  0.729300  0.516100  0.181800  1
  C  C831  1  0.270700  0.483900  0.818200  1
  C  C832  1  0.813300  0.390300  0.144400  1
  C  C833  1  0.186700  0.609700  0.855600  1
  C  C834  1  0.757400  0.429000  0.146500  1
  C  C835  1  0.242600  0.571000  0.853500  1
  C  C836  1  0.704800  0.405400  0.147800  1
  C  C837  1  0.295200  0.594600  0.852200  1
  C  C838  1  0.708600  0.346000  0.142000  1
  C  C839  1  0.291400  0.654000  0.858000  1
  C  C840  1  0.764700  0.312000  0.137900  1
  C  C841  1  0.235300  0.688000  0.862100  1
  C  C842  1  0.775400  0.251100  0.128800  1
  C  C843  1  0.224600  0.748900  0.871200  1
  C  C844  1  0.835500  0.165500  0.112800  1
  C  C845  1  0.164500  0.834500  0.887200  1
  C  C846  1  0.808100  0.169500  0.071300  1
  C  C847  1  0.191900  0.830500  0.928700  1
  C  C848  1  0.809200  0.113400  0.063000  1
  C  C849  1  0.190800  0.886600  0.937000  1
  C  C850  1  0.837300  0.054300  0.094800  1
  C  C851  1  0.162700  0.945700  0.905200  1
  C  C852  1  0.863300  0.050200  0.135400  1
  C  C853  1  0.136700  0.949800  0.864600  1
  C  C854  1  0.862500  0.107400  0.144300  1
  C  C855  1  0.137500  0.892600  0.855700  1
  C  C856  1  0.828400  0.991100  0.087700  1
  C  C857  1  0.171600  0.008900  0.912300  1
  C  C858  1  0.884800  0.962500  0.067200  1
  C  C859  1  0.115200  0.037500  0.932800  1
  C  C860  1  0.867700  0.023400  0.975800  1
  C  C861  1  0.132300  0.976600  0.024200  1
  C  C862  1  0.892700  0.077900  0.940900  1
  C  C863  1  0.107300  0.922100  0.059100  1
  C  C864  1  0.935400  0.091700  0.962200  1
  C  C865  1  0.064600  0.908300  0.037800  1
  C  C866  1  0.943300  0.049300  0.012000  1
  C  C867  1  0.056700  0.950700  0.988000  1
  C  C868  1  0.517100  0.269800  0.409700  1
  C  C869  1  0.482900  0.730200  0.590300  1
  C  C870  1  0.467300  0.238900  0.438800  1
  C  C871  1  0.532700  0.761100  0.561200  1
  C  C872  1  0.131200  0.243600  0.714700  1
  C  C873  1  0.868800  0.756400  0.285300  1
  C  C874  1  0.065000  0.242800  0.717700  1
  C  C875  1  0.935000  0.757200  0.282300  1
  C  C876  1  0.546400  0.466800  0.403600  1
  C  C877  1  0.453600  0.533200  0.596400  1
  C  C878  1  0.554100  0.500700  0.355200  1
  C  C879  1  0.445900  0.499300  0.644800  1
  C  C880  1  0.347000  0.670000  0.193900  1
  C  C881  1  0.653000  0.330000  0.806100  1
  C  C882  1  0.392600  0.661100  0.157800  1
  C  C883  1  0.607400  0.338900  0.842200  1
  C  C884  1  0.609000  0.349000  0.011000  1
  C  C885  1  0.391000  0.651000  0.989000  1
  C  C886  1  0.651100  0.317700  0.049900  1
  C  C887  1  0.348900  0.682300  0.950100  1
  C  C888  1  0.670000  0.186000  0.942000  1
  C  C889  1  0.330000  0.814000  0.058000  1
  C  C890  1  0.679000  0.120600  0.941600  1
  C  C891  1  0.321000  0.879400  0.058400  1
  C  C892  1  0.827300  0.474500  0.474300  1
  C  C893  1  0.172700  0.525500  0.525700  1
  C  C894  1  0.834700  0.469200  0.522500  1
  C  C895  1  0.165300  0.530800  0.477500  1
  C  C896  1  0.022600  0.972900  0.199600  1
  C  C897  1  0.977400  0.027100  0.800400  1
  C  C898  1  0.045000  0.925200  0.177700  1
  C  C899  1  0.955000  0.074800  0.822300  1
  C  C900  1  0.198500  0.003400  0.703500  1
  C  C901  1  0.801500  0.996600  0.296500  1
  C  C902  1  0.146700  0.053000  0.705400  1
  C  C903  1  0.853300  0.947000  0.294600  1
  C  C904  1  0.223000  0.006900  0.656100  1
  C  C905  1  0.777000  0.993100  0.343900  1
  C  C906  1  0.296700  0.941000  0.741100  1
  C  C907  1  0.703300  0.059000  0.258900  1
  C  C908  1  0.283400  0.894400  0.788300  1
  C  C909  1  0.716600  0.105600  0.211700  1
  C  C910  1  0.359100  0.953000  0.741100  1
  C  C911  1  0.640900  0.047000  0.258900  1
  N  N912  1  0.770600  0.816600  0.512400  1
  N  N913  1  0.229400  0.183400  0.487600  1
  N  N914  1  0.811900  0.099700  0.481500  1
  N  N915  1  0.188100  0.900300  0.518500  1
  N  N916  1  0.859400  0.200700  0.452900  1
  N  N917  1  0.140600  0.799300  0.547100  1
  N  N918  1  0.029000  0.391300  0.381200  1
  N  N919  1  0.971000  0.608700  0.618800  1
  N  N920  1  0.084600  0.486500  0.366200  1
  N  N921  1  0.915400  0.513500  0.633800  1
  N  N922  1  0.137100  0.760000  0.361300  1
  N  N923  1  0.862900  0.240000  0.638700  1
  N  N924  1  0.428900  0.435700  0.289400  1
  N  N925  1  0.571100  0.564300  0.710600  1
  N  N926  1  0.134800  0.477100  0.275600  1
  N  N927  1  0.865200  0.522900  0.724400  1
  N  N928  1  0.016600  0.499800  0.291300  1
  N  N929  1  0.983400  0.500200  0.708700  1
  N  N930  1  0.746000  0.607600  0.261800  1
  N  N931  1  0.254000  0.392400  0.738200  1
  N  N932  1  0.632000  0.654700  0.270700  1
  N  N933  1  0.368000  0.345300  0.729300  1
  N  N934  1  0.378000  0.864000  0.217400  1
  N  N935  1  0.622000  0.136000  0.782600  1
  N  N936  1  0.377800  0.396900  0.532800  1
  N  N937  1  0.622200  0.603100  0.467200  1
  N  N938  1  0.150500  0.358300  0.361900  1
  N  N939  1  0.849500  0.641700  0.638100  1
  N  N940  1  0.078800  0.370400  0.294700  1
  N  N941  1  0.921200  0.629600  0.705300  1
  N  N942  1  0.947800  0.322200  0.146900  1
  N  N943  1  0.052200  0.677800  0.853100  1
  N  N944  1  0.899400  0.325900  0.071400  1
  N  N945  1  0.100600  0.674100  0.928600  1
  N  N946  1  0.785700  0.437300  0.869200  1
  N  N947  1  0.214300  0.562700  0.130800  1
  N  N948  1  0.392200  0.166000  0.616100  1
  N  N949  1  0.607800  0.834000  0.383900  1
  N  N950  1  0.686600  0.177600  0.459800  1
  N  N951  1  0.313400  0.822400  0.540200  1
  N  N952  1  0.768800  0.184800  0.394400  1
  N  N953  1  0.231200  0.815200  0.605600  1
  N  N954  1  0.891500  0.213900  0.205100  1
  N  N955  1  0.108500  0.786100  0.794900  1
  N  N956  1  0.965200  0.202400  0.137900  1
  N  N957  1  0.034800  0.797600  0.862100  1
  N  N958  1  0.224000  0.155300  0.000100  1
  N  N959  1  0.776000  0.844700  0.999900  1
  N  N960  1  0.604800  0.771200  0.975100  1
  N  N961  1  0.395200  0.228800  0.024900  1
  N  N962  1  0.597900  0.612900  0.191200  1
  N  N963  1  0.402100  0.387100  0.808800  1
  N  N964  1  0.654700  0.529300  0.265800  1
  N  N965  1  0.345300  0.470700  0.734200  1
  N  N966  1  0.740600  0.286800  0.433300  1
  N  N967  1  0.259400  0.713200  0.566700  1
  N  N968  1  0.768400  0.208400  0.518700  1
  N  N969  1  0.231600  0.791600  0.481300  1
  N  N970  1  0.807100  0.975600  0.789000  1
  N  N971  1  0.192900  0.024400  0.211000  1
  N  N972  1  0.591600  0.073800  0.114500  1
  N  N973  1  0.408400  0.926200  0.885500  1
  N  N974  1  0.689000  0.695700  0.176200  1
  N  N975  1  0.311000  0.304300  0.823800  1
  N  N976  1  0.718000  0.577800  0.179700  1
  N  N977  1  0.282000  0.422200  0.820300  1
  N  N978  1  0.817300  0.331600  0.141500  1
  N  N979  1  0.182700  0.668400  0.858500  1
  N  N980  1  0.830300  0.224000  0.124300  1
  N  N981  1  0.169700  0.776000  0.875700  1
  N  N982  1  0.900100  0.007500  0.019100  1
  N  N983  1  0.099900  0.992500  0.980900  1
  N  N984  1  0.553000  0.302500  0.396000  1
  N  N985  1  0.447000  0.697500  0.604000  1
  N  N986  1  0.181900  0.245600  0.719900  1
  N  N987  1  0.818100  0.754400  0.280100  1
  N  N988  1  0.536400  0.433900  0.443000  1
  N  N989  1  0.463600  0.566100  0.557000  1
  N  N990  1  0.308000  0.668800  0.222300  1
  N  N991  1  0.692000  0.331200  0.777700  1
  N  N992  1  0.582000  0.382000  0.975700  1
  N  N993  1  0.418000  0.618000  0.024300  1
  N  N994  1  0.663000  0.231600  0.953600  1
  N  N995  1  0.337000  0.768400  0.046400  1
  N  N996  1  0.823800  0.476500  0.435400  1
  N  N997  1  0.176200  0.523500  0.564600  1
  N  N998  1  0.011000  0.008900  0.218900  1
  N  N999  1  0.989000  0.991100  0.781100  1
  O  O1000  1  0.855400  0.815200  0.553700  1
  O  O1001  1  0.144600  0.184800  0.446300  1
  O  O1002  1  0.710100  0.811700  0.455100  1
  O  O1003  1  0.289900  0.188300  0.544900  1
  O  O1004  1  0.109100  0.839100  0.289700  1
  O  O1005  1  0.890900  0.160900  0.710300  1
  O  O1006  1  0.135800  0.695000  0.441300  1
  O  O1007  1  0.864200  0.305000  0.558700  1
  O  O1008  1  0.458000  0.534900  0.249100  1
  O  O1009  1  0.542000  0.465100  0.750900  1
  O  O1010  1  0.392000  0.354100  0.348000  1
  O  O1011  1  0.608000  0.645900  0.652000  1
  O  O1012  1  0.365800  0.932000  0.262000  1
  O  O1013  1  0.634200  0.068000  0.738000  1
  O  O1014  1  0.403800  0.820000  0.158700  1
  O  O1015  1  0.596200  0.180000  0.841300  1
  O  O1016  1  0.330700  0.434300  0.588600  1
  O  O1017  1  0.669300  0.565700  0.411400  1
  O  O1018  1  0.451000  0.350200  0.492300  1
  O  O1019  1  0.549000  0.649800  0.507700  1
  O  O1020  1  0.680700  0.443500  0.879300  1
  O  O1021  1  0.319300  0.556500  0.120700  1
  O  O1022  1  0.881300  0.466900  0.860400  1
  O  O1023  1  0.118700  0.533100  0.139600  1
  O  O1024  1  0.384300  0.062200  0.623800  1
  O  O1025  1  0.615700  0.937800  0.376200  1
  O  O1026  1  0.369600  0.268800  0.619500  1
  O  O1027  1  0.630400  0.731200  0.380500  1
  O  O1028  1  0.238800  0.187000  0.064600  1
  O  O1029  1  0.761200  0.813000  0.935400  1
  O  O1030  1  0.242200  0.112100  0.940400  1
  O  O1031  1  0.757800  0.887900  0.059600  1
  O  O1032  1  0.554500  0.758900  0.915500  1
  O  O1033  1  0.445500  0.241100  0.084500  1
  O  O1034  1  0.679500  0.757800  0.030400  1
  O  O1035  1  0.320500  0.242200  0.969600  1
  O  O1036  1  0.753000  0.059400  0.816000  1
  O  O1037  1  0.247000  0.940600  0.184000  1
  O  O1038  1  0.869900  0.877900  0.786100  1
  O  O1039  1  0.130100  0.122100  0.213900  1
  O  O1040  1  0.666400  0.085000  0.056900  1
  O  O1041  1  0.333600  0.915000  0.943100  1
  O  O1042  1  0.519600  0.090300  0.168700  1
  O  O1043  1  0.480400  0.909700  0.831300  1
  O  O1044  1  0.828000  0.993400  0.973700  1
  O  O1045  1  0.172000  0.006600  0.026300  1
  O  O1046  1  0.977000  0.044500  0.044800  1
  O  O1047  1  0.023000  0.955500  0.955200  1
  O  O1048  1  0.251400  0.000600  0.731600  1
  O  O1049  1  0.748600  0.999400  0.268400  1
  F  F1050  1  0.892800  0.315600  0.270900  1
  F  F1051  1  0.107200  0.684400  0.729100  1
  F  F1052  1  0.917200  0.378700  0.306700  1
  F  F1053  1  0.082800  0.621300  0.693300  1
  F  F1054  1  0.841300  0.323100  0.335900  1
  F  F1055  1  0.158700  0.676900  0.664100  1
  F  F1056  1  0.794700  0.366800  0.264700  1
  F  F1057  1  0.205300  0.633200  0.735300  1
  F  F1058  1  0.819900  0.430300  0.299800  1
  F  F1059  1  0.180100  0.569700  0.700200  1
  F  F1060  1  0.870800  0.422200  0.235200  1
  F  F1061  1  0.129200  0.577800  0.764800  1
  F  F1062  1  0.189100  0.445300  0.014000  1
  F  F1063  1  0.810900  0.554700  0.986000  1
  F  F1064  1  0.108900  0.478800  0.960700  1
  F  F1065  1  0.891100  0.521200  0.039300  1
  F  F1066  1  0.090900  0.485500  0.033400  1
  F  F1067  1  0.909100  0.514500  0.966600  1
  F  F1068  1  0.059200  0.407700  0.016600  1
  F  F1069  1  0.940800  0.592300  0.983400  1
  F  F1070  1  0.132900  0.378700  0.067000  1
  F  F1071  1  0.867100  0.621300  0.933000  1
  F  F1072  1  0.154900  0.374600  0.994200  1
  F  F1073  1  0.845100  0.625400  0.005800  1
  F  F1074  1  0.134300  0.369300  0.575400  1
  F  F1075  1  0.865700  0.630700  0.424600  1
  F  F1076  1  0.071900  0.351100  0.525900  1
  F  F1077  1  0.928100  0.648900  0.474100  1
  F  F1078  1  0.055300  0.446000  0.539900  1
  F  F1079  1  0.944700  0.554000  0.460100  1
  F  F1080  1  0.989500  0.375100  0.568400  1
  F  F1081  1  0.010500  0.624900  0.431600  1
  F  F1082  1  0.048900  0.387900  0.619100  1
  F  F1083  1  0.951100  0.612100  0.380900  1
  F  F1084  1  0.070800  0.295800  0.604100  1
  F  F1085  1  0.929200  0.704200  0.395900  1
  F  F1086  1  0.007400  0.013000  0.630700  1
  F  F1087  1  0.992600  0.987000  0.369300  1
  F  F1088  1  0.073000  0.059000  0.530500  1
  F  F1089  1  0.927000  0.941000  0.469500  1
  F  F1090  1  0.986000  0.099400  0.562800  1
  F  F1091  1  0.014000  0.900600  0.437200  1
  F  F1092  1  0.002300  0.003100  0.555300  1
  F  F1093  1  0.997700  0.996900  0.444700  1
  F  F1094  1  0.090300  0.970300  0.596000  1
  F  F1095  1  0.909700  0.029700  0.404000  1
  F  F1096  1  0.079100  0.070200  0.602600  1
  F  F1097  1  0.920900  0.929800  0.397400  1
  F  F1098  1  0.331500  0.539700  0.413600  1
  F  F1099  1  0.668500  0.460300  0.586400  1
  F  F1100  1  0.287100  0.619000  0.437900  1
  F  F1101  1  0.712900  0.381000  0.562100  1
  F  F1102  1  0.355100  0.542800  0.484600  1
  F  F1103  1  0.644900  0.457200  0.515400  1
  F  F1104  1  0.420100  0.557800  0.422400  1
  F  F1105  1  0.579900  0.442200  0.577600  1
  F  F1106  1  0.351700  0.635400  0.374700  1
  F  F1107  1  0.648300  0.364600  0.625300  1
  F  F1108  1  0.375100  0.639300  0.452800  1
  F  F1109  1  0.624900  0.360700  0.547200  1
  F  F1110  1  0.094700  0.777600  0.126100  1
  F  F1111  1  0.905300  0.222400  0.873900  1
  F  F1112  1  0.051100  0.791300  0.198400  1
  F  F1113  1  0.948900  0.208700  0.801600  1
  F  F1114  1  0.979400  0.736000  0.194100  1
  F  F1115  1  0.020600  0.264000  0.805900  1
  F  F1116  1  0.015700  0.722100  0.125300  1
  F  F1117  1  0.984300  0.277900  0.874700  1
  F  F1118  1  0.082100  0.690500  0.190500  1
  F  F1119  1  0.917900  0.309500  0.809500  1
  F  F1120  1  0.989800  0.826800  0.129800  1
  F  F1121  1  0.010200  0.173200  0.870200  1
  F  F1122  1  0.576400  0.293600  0.274300  1
  F  F1123  1  0.423600  0.706400  0.725700  1
  F  F1124  1  0.513600  0.293700  0.221300  1
  F  F1125  1  0.486400  0.706300  0.778700  1
  F  F1126  1  0.601300  0.214100  0.252100  1
  F  F1127  1  0.398700  0.785900  0.747900  1
  F  F1128  1  0.652500  0.285800  0.233000  1
  F  F1129  1  0.347500  0.714200  0.767000  1
  F  F1130  1  0.589800  0.272100  0.177800  1
  F  F1131  1  0.410200  0.727900  0.822200  1
  F  F1132  1  0.577800  0.361700  0.197000  1
  F  F1133  1  0.422200  0.638300  0.803000  1
  F  F1134  1  0.899700  0.299400  0.311600  1
  F  F1135  1  0.100300  0.700600  0.688400  1
  F  F1136  1  0.917700  0.397700  0.287600  1
  F  F1137  1  0.082300  0.602300  0.712400  1
  F  F1138  1  0.844100  0.378700  0.339900  1
  F  F1139  1  0.155900  0.621300  0.660100  1
  F  F1140  1  0.798700  0.336500  0.295700  1
  F  F1141  1  0.201300  0.663500  0.704300  1
  F  F1142  1  0.816000  0.436900  0.268300  1
  F  F1143  1  0.184000  0.563100  0.731700  1
  F  F1144  1  0.869900  0.361300  0.240600  1
  F  F1145  1  0.130100  0.638700  0.759400  1
  F  F1146  1  0.151600  0.490300  0.977400  1
  F  F1147  1  0.848400  0.509700  0.022600  1
  F  F1148  1  0.059600  0.455800  0.993300  1
  F  F1149  1  0.940400  0.544200  0.006700  1
  F  F1150  1  0.108100  0.473500  0.051200  1
  F  F1151  1  0.891900  0.526500  0.948800  1
  F  F1152  1  0.103300  0.374500  0.056200  1
  F  F1153  1  0.896700  0.625500  0.943800  1
  F  F1154  1  0.192200  0.406800  0.043700  1
  F  F1155  1  0.807800  0.593200  0.956300  1
  F  F1156  1  0.148100  0.390800  0.983600  1
  F  F1157  1  0.851900  0.609200  0.016400  1
  F  F1158  1  0.129100  0.337700  0.585600  1
  F  F1159  1  0.870900  0.662300  0.414400  1
  F  F1160  1  0.076100  0.422900  0.522500  1
  F  F1161  1  0.923900  0.577100  0.477500  1
  F  F1162  1  0.057000  0.419200  0.599400  1
  F  F1163  1  0.943000  0.580800  0.400600  1
  F  F1164  1  0.987500  0.402000  0.557400  1
  F  F1165  1  0.012500  0.598000  0.442600  1
  F  F1166  1  0.037700  0.315800  0.615400  1
  F  F1167  1  0.962300  0.684200  0.384600  1
  F  F1168  1  0.059500  0.322200  0.541700  1
  F  F1169  1  0.940500  0.677800  0.458300  1
  F  F1170  1  0.013900  0.111100  0.569200  1
  F  F1171  1  0.986100  0.888900  0.430800  1
  F  F1172  1  0.974000  0.036500  0.560900  1
  F  F1173  1  0.026000  0.963500  0.439100  1
  F  F1174  1  0.049700  0.960200  0.586700  1
  F  F1175  1  0.950300  0.039800  0.413300  1
  F  F1176  1  0.109200  0.014200  0.604000  1
  F  F1177  1  0.890800  0.985800  0.396000  1
  F  F1178  1  0.329300  0.629000  0.369000  1
  F  F1179  1  0.670700  0.371000  0.631000  1
  F  F1180  1  0.291600  0.597700  0.441300  1
  F  F1181  1  0.708400  0.402300  0.558700  1
  F  F1182  1  0.359600  0.527800  0.419800  1
  F  F1183  1  0.640400  0.472200  0.580200  1
  F  F1184  1  0.420700  0.604500  0.396400  1
  F  F1185  1  0.579300  0.395500  0.603600  1
  F  F1186  1  0.356600  0.670000  0.419600  1
  F  F1187  1  0.643400  0.330000  0.580400  1
  F  F1188  1  0.384700  0.558300  0.472800  1
  F  F1189  1  0.615300  0.441700  0.527200  1
  F  F1190  1  0.077400  0.811100  0.132300  1
  F  F1191  1  0.922600  0.188900  0.867700  1
  F  F1192  1  0.045400  0.746600  0.207100  1
  F  F1193  1  0.954600  0.253400  0.792900  1
  F  F1194  1  0.964400  0.734500  0.169400  1
  F  F1195  1  0.035600  0.265500  0.830600  1
  F  F1196  1  0.995700  0.792000  0.096100  1
  F  F1197  1  0.004300  0.208000  0.903900  1
  F  F1198  1  0.063900  0.702400  0.146900  1
  F  F1199  1  0.936100  0.297600  0.853100  1
  F  F1200  1  0.977900  0.836600  0.157200  1
  F  F1201  1  0.022100  0.163400  0.842800  1
  F  F1202  1  0.528100  0.931600  0.037200  1.0
  F  F1203  1  0.471900  0.068400  0.962800  1.0
  F  F1204  1  0.553700  0.033200  0.001700  1.0
  F  F1205  1  0.446300  0.966800  0.998300  1.0
  F  F1206  1  0.470600  0.019100  0.043000  1.0
  F  F1207  1  0.529400  0.980900  0.957000  1.0
