# generated using pymatgen
data_Fe4As7H310C348N42(O16F35)2
_symmetry_space_group_name_H-M   'P 1'
_cell_length_a   28.53900000
_cell_length_b   41.23250000
_cell_length_c   53.94200000
_cell_angle_alpha   90.23100000
_cell_angle_beta   90.00000000
_cell_angle_gamma   90.00000000
_symmetry_Int_Tables_number   1
_chemical_formula_structural   Fe4As7H310C348N42(O16F35)2
_chemical_formula_sum   'Fe32 As56 H2480 C2784 N336 O256 F560'
_cell_volume   63474.88666878
_cell_formula_units_Z   8
loop_
 _symmetry_equiv_pos_site_id
 _symmetry_equiv_pos_as_xyz
  1  'x, y, z'
loop_
 _atom_site_type_symbol
 _atom_site_label
 _atom_site_symmetry_multiplicity
 _atom_site_fract_x
 _atom_site_fract_y
 _atom_site_fract_z
 _atom_site_occupancy
  Fe  Fe1  1  0.304710  0.448910  0.356010  1
  Fe  Fe2  1  0.304710  0.051090  0.643990  1
  Fe  Fe3  1  0.804710  0.448910  0.856010  1
  Fe  Fe4  1  0.804710  0.051090  0.143990  1
  Fe  Fe5  1  0.695290  0.551090  0.643990  1
  Fe  Fe6  1  0.695290  0.948910  0.356010  1
  Fe  Fe7  1  0.195290  0.551090  0.143990  1
  Fe  Fe8  1  0.195290  0.948910  0.856010  1
  Fe  Fe9  1  0.618540  0.455350  0.413250  1
  Fe  Fe10  1  0.618540  0.044650  0.586750  1
  Fe  Fe11  1  0.118540  0.455350  0.913250  1
  Fe  Fe12  1  0.118540  0.044650  0.086750  1
  Fe  Fe13  1  0.381460  0.544650  0.586750  1
  Fe  Fe14  1  0.381460  0.955350  0.413250  1
  Fe  Fe15  1  0.881460  0.544650  0.086750  1
  Fe  Fe16  1  0.881460  0.955350  0.913250  1
  Fe  Fe17  1  0.483690  0.640100  0.337500  1
  Fe  Fe18  1  0.483690  0.859900  0.662500  1
  Fe  Fe19  1  0.983690  0.640100  0.837500  1
  Fe  Fe20  1  0.983690  0.859900  0.162500  1
  Fe  Fe21  1  0.516310  0.359900  0.662500  1
  Fe  Fe22  1  0.516310  0.140100  0.337500  1
  Fe  Fe23  1  0.016310  0.359900  0.162500  1
  Fe  Fe24  1  0.016310  0.140100  0.837500  1
  Fe  Fe25  1  0.552450  0.453640  0.239890  1
  Fe  Fe26  1  0.552450  0.046360  0.760110  1
  Fe  Fe27  1  0.052450  0.453640  0.739890  1
  Fe  Fe28  1  0.052450  0.046360  0.260110  1
  Fe  Fe29  1  0.447550  0.546360  0.760110  1
  Fe  Fe30  1  0.447550  0.953640  0.239890  1
  Fe  Fe31  1  0.947550  0.546360  0.260110  1
  Fe  Fe32  1  0.947550  0.953640  0.739890  1
  As  As33  1  0.487230  0.496450  0.336880  1
  As  As34  1  0.487230  0.003550  0.663120  1
  As  As35  1  0.987230  0.496450  0.836880  1
  As  As36  1  0.987230  0.003550  0.163120  1
  As  As37  1  0.512770  0.503550  0.663120  1
  As  As38  1  0.512770  0.996450  0.336880  1
  As  As39  1  0.012770  0.503550  0.163120  1
  As  As40  1  0.012770  0.996450  0.836880  1
  As  As41  1  0.706360  0.561350  0.248160  1
  As  As42  1  0.706360  0.938650  0.751840  1
  As  As43  1  0.206360  0.561350  0.748160  1
  As  As44  1  0.206360  0.938650  0.251840  1
  As  As45  1  0.293640  0.438650  0.751840  1
  As  As46  1  0.293640  0.061350  0.248160  1
  As  As47  1  0.793640  0.438650  0.251840  1
  As  As48  1  0.793640  0.061350  0.748160  1
  As  As49  1  0.517860  0.564150  0.484340  1
  As  As50  1  0.517860  0.935850  0.515660  1
  As  As51  1  0.017860  0.564150  0.984340  1
  As  As52  1  0.017860  0.935850  0.015660  1
  As  As53  1  0.482140  0.435850  0.515660  1
  As  As54  1  0.482140  0.064150  0.484340  1
  As  As55  1  0.982140  0.435850  0.015660  1
  As  As56  1  0.982140  0.064150  0.984340  1
  As  As57  1  0.803060  0.564480  0.408160  1
  As  As58  1  0.803060  0.935520  0.591840  1
  As  As59  1  0.303060  0.564480  0.908160  1
  As  As60  1  0.303060  0.935520  0.091840  1
  As  As61  1  0.196940  0.435520  0.591840  1
  As  As62  1  0.196940  0.064480  0.408160  1
  As  As63  1  0.696940  0.435520  0.091840  1
  As  As64  1  0.696940  0.064480  0.908160  1
  As  As65  1  0.335720  0.543210  0.242920  1
  As  As66  1  0.335720  0.956790  0.757080  1
  As  As67  1  0.835720  0.543210  0.742920  1
  As  As68  1  0.835720  0.956790  0.257080  1
  As  As69  1  0.664280  0.456790  0.757080  1
  As  As70  1  0.664280  0.043210  0.242920  1
  As  As71  1  0.164280  0.456790  0.257080  1
  As  As72  1  0.164280  0.043210  0.742920  1
  As  As73  1  0.644420  0.811770  0.300750  1
  As  As74  1  0.644420  0.688230  0.699250  1
  As  As75  1  0.144420  0.811770  0.800750  1
  As  As76  1  0.144420  0.688230  0.199250  1
  As  As77  1  0.355580  0.188230  0.699250  1
  As  As78  1  0.355580  0.311770  0.300750  1
  As  As79  1  0.855580  0.188230  0.199250  1
  As  As80  1  0.855580  0.311770  0.800750  1
  As  As81  1  0.620240  0.324170  0.284580  1
  As  As82  1  0.620240  0.175830  0.715420  1
  As  As83  1  0.120240  0.324170  0.784580  1
  As  As84  1  0.120240  0.175830  0.215420  1
  As  As85  1  0.379760  0.675830  0.715420  1
  As  As86  1  0.379760  0.824170  0.284580  1
  As  As87  1  0.879760  0.675830  0.215420  1
  As  As88  1  0.879760  0.824170  0.784580  1
  H  H89  1  0.724200  0.576000  0.192200  1
  H  H90  1  0.724200  0.924000  0.807800  1
  H  H91  1  0.224200  0.576000  0.692200  1
  H  H92  1  0.224200  0.924000  0.307800  1
  H  H93  1  0.275800  0.424000  0.807800  1
  H  H94  1  0.275800  0.076000  0.192200  1
  H  H95  1  0.775800  0.424000  0.307800  1
  H  H96  1  0.775800  0.076000  0.692200  1
  H  H97  1  0.658000  0.603600  0.186100  1
  H  H98  1  0.658000  0.896400  0.813900  1
  H  H99  1  0.158000  0.603600  0.686100  1
  H  H100  1  0.158000  0.896400  0.313900  1
  H  H101  1  0.342000  0.396400  0.813900  1
  H  H102  1  0.342000  0.103600  0.186100  1
  H  H103  1  0.842000  0.396400  0.313900  1
  H  H104  1  0.842000  0.103600  0.686100  1
  H  H105  1  0.794200  0.608000  0.184300  1
  H  H106  1  0.794200  0.892000  0.815700  1
  H  H107  1  0.294200  0.608000  0.684300  1
  H  H108  1  0.294200  0.892000  0.315700  1
  H  H109  1  0.205800  0.392000  0.815700  1
  H  H110  1  0.205800  0.108000  0.184300  1
  H  H111  1  0.705800  0.392000  0.315700  1
  H  H112  1  0.705800  0.108000  0.684300  1
  H  H113  1  0.790900  0.626700  0.139900  1
  H  H114  1  0.790900  0.873300  0.860100  1
  H  H115  1  0.290900  0.626700  0.639900  1
  H  H116  1  0.290900  0.873300  0.360100  1
  H  H117  1  0.209100  0.373300  0.860100  1
  H  H118  1  0.209100  0.126700  0.139900  1
  H  H119  1  0.709100  0.373300  0.360100  1
  H  H120  1  0.709100  0.126700  0.639900  1
  H  H121  1  0.718300  0.656600  0.133100  1
  H  H122  1  0.718300  0.843400  0.866900  1
  H  H123  1  0.218300  0.656600  0.633100  1
  H  H124  1  0.218300  0.843400  0.366900  1
  H  H125  1  0.281700  0.343400  0.866900  1
  H  H126  1  0.281700  0.156600  0.133100  1
  H  H127  1  0.781700  0.343400  0.366900  1
  H  H128  1  0.781700  0.156600  0.633100  1
  H  H129  1  0.672500  0.659100  0.173100  1
  H  H130  1  0.672500  0.840900  0.826900  1
  H  H131  1  0.172500  0.659100  0.673100  1
  H  H132  1  0.172500  0.840900  0.326900  1
  H  H133  1  0.327500  0.340900  0.826900  1
  H  H134  1  0.327500  0.159100  0.173100  1
  H  H135  1  0.827500  0.340900  0.326900  1
  H  H136  1  0.827500  0.159100  0.673100  1
  H  H137  1  0.753800  0.661700  0.191700  1
  H  H138  1  0.753800  0.838300  0.808300  1
  H  H139  1  0.253800  0.661700  0.691700  1
  H  H140  1  0.253800  0.838300  0.308300  1
  H  H141  1  0.246200  0.338300  0.808300  1
  H  H142  1  0.246200  0.161700  0.191700  1
  H  H143  1  0.746200  0.338300  0.308300  1
  H  H144  1  0.746200  0.161700  0.691700  1
  H  H145  1  0.724800  0.634300  0.207000  1
  H  H146  1  0.724800  0.865700  0.793000  1
  H  H147  1  0.224800  0.634300  0.707000  1
  H  H148  1  0.224800  0.865700  0.293000  1
  H  H149  1  0.275200  0.365700  0.793000  1
  H  H150  1  0.275200  0.134300  0.207000  1
  H  H151  1  0.775200  0.365700  0.293000  1
  H  H152  1  0.775200  0.134300  0.707000  1
  H  H153  1  0.697500  0.526000  0.120900  1
  H  H154  1  0.697500  0.974000  0.879100  1
  H  H155  1  0.197500  0.526000  0.620900  1
  H  H156  1  0.197500  0.974000  0.379100  1
  H  H157  1  0.302500  0.474000  0.879100  1
  H  H158  1  0.302500  0.026000  0.120900  1
  H  H159  1  0.802500  0.474000  0.379100  1
  H  H160  1  0.802500  0.026000  0.620900  1
  H  H161  1  0.671400  0.554600  0.106400  1
  H  H162  1  0.671400  0.945400  0.893600  1
  H  H163  1  0.171400  0.554600  0.606400  1
  H  H164  1  0.171400  0.945400  0.393600  1
  H  H165  1  0.328600  0.445400  0.893600  1
  H  H166  1  0.328600  0.054600  0.106400  1
  H  H167  1  0.828600  0.445400  0.393600  1
  H  H168  1  0.828600  0.054600  0.606400  1
  H  H169  1  0.600300  0.541900  0.124000  1
  H  H170  1  0.600300  0.958100  0.876000  1
  H  H171  1  0.100300  0.541900  0.624000  1
  H  H172  1  0.100300  0.958100  0.376000  1
  H  H173  1  0.399700  0.458100  0.876000  1
  H  H174  1  0.399700  0.041900  0.124000  1
  H  H175  1  0.899700  0.458100  0.376000  1
  H  H176  1  0.899700  0.041900  0.624000  1
  H  H177  1  0.621900  0.508500  0.114200  1
  H  H178  1  0.621900  0.991500  0.885800  1
  H  H179  1  0.121900  0.508500  0.614200  1
  H  H180  1  0.121900  0.991500  0.385800  1
  H  H181  1  0.378100  0.491500  0.885800  1
  H  H182  1  0.378100  0.008500  0.114200  1
  H  H183  1  0.878100  0.491500  0.385800  1
  H  H184  1  0.878100  0.008500  0.614200  1
  H  H185  1  0.588500  0.550200  0.168000  1
  H  H186  1  0.588500  0.949800  0.832000  1
  H  H187  1  0.088500  0.550200  0.668000  1
  H  H188  1  0.088500  0.949800  0.332000  1
  H  H189  1  0.411500  0.449800  0.832000  1
  H  H190  1  0.411500  0.050200  0.168000  1
  H  H191  1  0.911500  0.449800  0.332000  1
  H  H192  1  0.911500  0.050200  0.668000  1
  H  H193  1  0.580500  0.528600  0.207500  1
  H  H194  1  0.580500  0.971400  0.792500  1
  H  H195  1  0.080500  0.528600  0.707500  1
  H  H196  1  0.080500  0.971400  0.292500  1
  H  H197  1  0.419500  0.471400  0.792500  1
  H  H198  1  0.419500  0.028600  0.207500  1
  H  H199  1  0.919500  0.471400  0.292500  1
  H  H200  1  0.919500  0.028600  0.707500  1
  H  H201  1  0.647000  0.447400  0.184600  1
  H  H202  1  0.647000  0.052600  0.815400  1
  H  H203  1  0.147000  0.447400  0.684600  1
  H  H204  1  0.147000  0.052600  0.315400  1
  H  H205  1  0.353000  0.552600  0.815400  1
  H  H206  1  0.353000  0.947400  0.184600  1
  H  H207  1  0.853000  0.552600  0.315400  1
  H  H208  1  0.853000  0.947400  0.684600  1
  H  H209  1  0.651800  0.468700  0.145000  1
  H  H210  1  0.651800  0.031300  0.855000  1
  H  H211  1  0.151800  0.468700  0.645000  1
  H  H212  1  0.151800  0.031300  0.355000  1
  H  H213  1  0.348200  0.531300  0.855000  1
  H  H214  1  0.348200  0.968700  0.145000  1
  H  H215  1  0.848200  0.531300  0.355000  1
  H  H216  1  0.848200  0.968700  0.645000  1
  H  H217  1  0.673100  0.485200  0.232800  1
  H  H218  1  0.673100  0.014800  0.767200  1
  H  H219  1  0.173100  0.485200  0.732800  1
  H  H220  1  0.173100  0.014800  0.267200  1
  H  H221  1  0.326900  0.514800  0.767200  1
  H  H222  1  0.326900  0.985200  0.232800  1
  H  H223  1  0.826900  0.514800  0.267200  1
  H  H224  1  0.826900  0.985200  0.732800  1
  H  H225  1  0.701300  0.478600  0.278000  1
  H  H226  1  0.701300  0.021400  0.722000  1
  H  H227  1  0.201300  0.478600  0.778000  1
  H  H228  1  0.201300  0.021400  0.222000  1
  H  H229  1  0.298700  0.521400  0.722000  1
  H  H230  1  0.298700  0.978600  0.278000  1
  H  H231  1  0.798700  0.521400  0.222000  1
  H  H232  1  0.798700  0.978600  0.778000  1
  H  H233  1  0.685100  0.461700  0.318400  1
  H  H234  1  0.685100  0.038300  0.681600  1
  H  H235  1  0.185100  0.461700  0.818400  1
  H  H236  1  0.185100  0.038300  0.181600  1
  H  H237  1  0.314900  0.538300  0.681600  1
  H  H238  1  0.314900  0.961700  0.318400  1
  H  H239  1  0.814900  0.538300  0.181600  1
  H  H240  1  0.814900  0.961700  0.818400  1
  H  H241  1  0.557100  0.433600  0.296400  1
  H  H242  1  0.557100  0.066400  0.703600  1
  H  H243  1  0.057100  0.433600  0.796400  1
  H  H244  1  0.057100  0.066400  0.203600  1
  H  H245  1  0.442900  0.566400  0.703600  1
  H  H246  1  0.442900  0.933600  0.296400  1
  H  H247  1  0.942900  0.566400  0.203600  1
  H  H248  1  0.942900  0.933600  0.796400  1
  H  H249  1  0.622900  0.470000  0.356300  1
  H  H250  1  0.622900  0.030000  0.643700  1
  H  H251  1  0.122900  0.470000  0.856300  1
  H  H252  1  0.122900  0.030000  0.143700  1
  H  H253  1  0.377100  0.530000  0.643700  1
  H  H254  1  0.377100  0.970000  0.356300  1
  H  H255  1  0.877100  0.530000  0.143700  1
  H  H256  1  0.877100  0.970000  0.856300  1
  H  H257  1  0.596500  0.384300  0.323800  1
  H  H258  1  0.596500  0.115700  0.676200  1
  H  H259  1  0.096500  0.384300  0.823800  1
  H  H260  1  0.096500  0.115700  0.176200  1
  H  H261  1  0.403500  0.615700  0.676200  1
  H  H262  1  0.403500  0.884300  0.323800  1
  H  H263  1  0.903500  0.615700  0.176200  1
  H  H264  1  0.903500  0.884300  0.823800  1
  H  H265  1  0.598600  0.360000  0.362600  1
  H  H266  1  0.598600  0.140000  0.637400  1
  H  H267  1  0.098600  0.360000  0.862600  1
  H  H268  1  0.098600  0.140000  0.137400  1
  H  H269  1  0.401400  0.640000  0.637400  1
  H  H270  1  0.401400  0.860000  0.362600  1
  H  H271  1  0.901400  0.640000  0.137400  1
  H  H272  1  0.901400  0.860000  0.862600  1
  H  H273  1  0.612400  0.366100  0.410300  1
  H  H274  1  0.612400  0.133900  0.589700  1
  H  H275  1  0.112400  0.366100  0.910300  1
  H  H276  1  0.112400  0.133900  0.089700  1
  H  H277  1  0.387600  0.633900  0.589700  1
  H  H278  1  0.387600  0.866100  0.410300  1
  H  H279  1  0.887600  0.633900  0.089700  1
  H  H280  1  0.887600  0.866100  0.910300  1
  H  H281  1  0.569800  0.411700  0.463900  1
  H  H282  1  0.569800  0.088300  0.536100  1
  H  H283  1  0.069800  0.411700  0.963900  1
  H  H284  1  0.069800  0.088300  0.036100  1
  H  H285  1  0.430200  0.588300  0.536100  1
  H  H286  1  0.430200  0.911700  0.463900  1
  H  H287  1  0.930200  0.588300  0.036100  1
  H  H288  1  0.930200  0.911700  0.963900  1
  H  H289  1  0.587100  0.393100  0.503700  1
  H  H290  1  0.587100  0.106900  0.496300  1
  H  H291  1  0.087100  0.393100  0.003700  1
  H  H292  1  0.087100  0.106900  0.996300  1
  H  H293  1  0.412900  0.606900  0.496300  1
  H  H294  1  0.412900  0.893100  0.503700  1
  H  H295  1  0.912900  0.606900  0.996300  1
  H  H296  1  0.912900  0.893100  0.003700  1
  H  H297  1  0.709800  0.357100  0.478800  1
  H  H298  1  0.709800  0.142900  0.521200  1
  H  H299  1  0.209800  0.357100  0.978800  1
  H  H300  1  0.209800  0.142900  0.021200  1
  H  H301  1  0.290200  0.642900  0.521200  1
  H  H302  1  0.290200  0.857100  0.478800  1
  H  H303  1  0.790200  0.642900  0.021200  1
  H  H304  1  0.790200  0.857100  0.978800  1
  H  H305  1  0.693100  0.376400  0.439200  1
  H  H306  1  0.693100  0.123600  0.560800  1
  H  H307  1  0.193100  0.376400  0.939200  1
  H  H308  1  0.193100  0.123600  0.060800  1
  H  H309  1  0.306900  0.623600  0.560800  1
  H  H310  1  0.306900  0.876400  0.439200  1
  H  H311  1  0.806900  0.623600  0.060800  1
  H  H312  1  0.806900  0.876400  0.939200  1
  H  H313  1  0.646900  0.375200  0.533700  1
  H  H314  1  0.646900  0.124800  0.466300  1
  H  H315  1  0.146900  0.375200  0.033700  1
  H  H316  1  0.146900  0.124800  0.966300  1
  H  H317  1  0.353100  0.624800  0.466300  1
  H  H318  1  0.353100  0.875200  0.533700  1
  H  H319  1  0.853100  0.624800  0.966300  1
  H  H320  1  0.853100  0.875200  0.033700  1
  H  H321  1  0.696700  0.362600  0.523600  1
  H  H322  1  0.696700  0.137400  0.476400  1
  H  H323  1  0.196700  0.362600  0.023600  1
  H  H324  1  0.196700  0.137400  0.976400  1
  H  H325  1  0.303300  0.637400  0.476400  1
  H  H326  1  0.303300  0.862600  0.523600  1
  H  H327  1  0.803300  0.637400  0.976400  1
  H  H328  1  0.803300  0.862600  0.023600  1
  H  H329  1  0.657400  0.313300  0.508900  1
  H  H330  1  0.657400  0.186700  0.491100  1
  H  H331  1  0.157400  0.313300  0.008900  1
  H  H332  1  0.157400  0.186700  0.991100  1
  H  H333  1  0.342600  0.686700  0.491100  1
  H  H334  1  0.342600  0.813300  0.508900  1
  H  H335  1  0.842600  0.686700  0.991100  1
  H  H336  1  0.842600  0.813300  0.008900  1
  H  H337  1  0.657000  0.316600  0.538600  1
  H  H338  1  0.657000  0.183400  0.461400  1
  H  H339  1  0.157000  0.316600  0.038600  1
  H  H340  1  0.157000  0.183400  0.961400  1
  H  H341  1  0.343000  0.683400  0.461400  1
  H  H342  1  0.343000  0.816600  0.538600  1
  H  H343  1  0.843000  0.683400  0.961400  1
  H  H344  1  0.843000  0.816600  0.038600  1
  H  H345  1  0.503600  0.359400  0.536200  1
  H  H346  1  0.503600  0.140600  0.463800  1
  H  H347  1  0.003600  0.359400  0.036200  1
  H  H348  1  0.003600  0.140600  0.963800  1
  H  H349  1  0.496400  0.640600  0.463800  1
  H  H350  1  0.496400  0.859400  0.536200  1
  H  H351  1  0.996400  0.640600  0.963800  1
  H  H352  1  0.996400  0.859400  0.036200  1
  H  H353  1  0.500200  0.335400  0.498000  1
  H  H354  1  0.500200  0.164600  0.502000  1
  H  H355  1  0.000200  0.335400  0.998000  1
  H  H356  1  0.000200  0.164600  0.002000  1
  H  H357  1  0.499800  0.664600  0.502000  1
  H  H358  1  0.499800  0.835400  0.498000  1
  H  H359  1  0.999800  0.664600  0.002000  1
  H  H360  1  0.999800  0.835400  0.998000  1
  H  H361  1  0.478300  0.322800  0.569500  1
  H  H362  1  0.478300  0.177200  0.430500  1
  H  H363  1  0.978300  0.322800  0.069500  1
  H  H364  1  0.978300  0.177200  0.930500  1
  H  H365  1  0.521700  0.677200  0.430500  1
  H  H366  1  0.521700  0.822800  0.569500  1
  H  H367  1  0.021700  0.677200  0.930500  1
  H  H368  1  0.021700  0.822800  0.069500  1
  H  H369  1  0.533900  0.275000  0.568000  1
  H  H370  1  0.533900  0.225000  0.432000  1
  H  H371  1  0.033900  0.275000  0.068000  1
  H  H372  1  0.033900  0.225000  0.932000  1
  H  H373  1  0.466100  0.725000  0.432000  1
  H  H374  1  0.466100  0.775000  0.568000  1
  H  H375  1  0.966100  0.725000  0.932000  1
  H  H376  1  0.966100  0.775000  0.068000  1
  H  H377  1  0.528700  0.248800  0.527500  1
  H  H378  1  0.528700  0.251200  0.472500  1
  H  H379  1  0.028700  0.248800  0.027500  1
  H  H380  1  0.028700  0.251200  0.972500  1
  H  H381  1  0.471300  0.751200  0.472500  1
  H  H382  1  0.471300  0.748800  0.527500  1
  H  H383  1  0.971300  0.751200  0.972500  1
  H  H384  1  0.971300  0.748800  0.027500  1
  H  H385  1  0.471000  0.279300  0.500700  1
  H  H386  1  0.471000  0.220700  0.499300  1
  H  H387  1  0.971000  0.279300  0.000700  1
  H  H388  1  0.971000  0.220700  0.999300  1
  H  H389  1  0.529000  0.720700  0.499300  1
  H  H390  1  0.529000  0.779300  0.500700  1
  H  H391  1  0.029000  0.720700  0.999300  1
  H  H392  1  0.029000  0.779300  0.000700  1
  H  H393  1  0.429200  0.287300  0.541300  1
  H  H394  1  0.429200  0.212700  0.458700  1
  H  H395  1  0.929200  0.287300  0.041300  1
  H  H396  1  0.929200  0.212700  0.958700  1
  H  H397  1  0.570800  0.712700  0.458700  1
  H  H398  1  0.570800  0.787300  0.541300  1
  H  H399  1  0.070800  0.712700  0.958700  1
  H  H400  1  0.070800  0.787300  0.041300  1
  H  H401  1  0.432800  0.322600  0.528300  1
  H  H402  1  0.432800  0.177400  0.471700  1
  H  H403  1  0.932800  0.322600  0.028300  1
  H  H404  1  0.932800  0.177400  0.971700  1
  H  H405  1  0.567200  0.677400  0.471700  1
  H  H406  1  0.567200  0.822600  0.528300  1
  H  H407  1  0.067200  0.677400  0.971700  1
  H  H408  1  0.067200  0.822600  0.028300  1
  H  H409  1  0.389900  0.763900  0.207200  1
  H  H410  1  0.389900  0.736100  0.792800  1
  H  H411  1  0.889900  0.763900  0.707200  1
  H  H412  1  0.889900  0.736100  0.292800  1
  H  H413  1  0.610100  0.236100  0.792800  1
  H  H414  1  0.610100  0.263900  0.207200  1
  H  H415  1  0.110100  0.236100  0.292800  1
  H  H416  1  0.110100  0.263900  0.707200  1
  H  H417  1  0.410700  0.817400  0.203600  1
  H  H418  1  0.410700  0.682600  0.796400  1
  H  H419  1  0.910700  0.817400  0.703600  1
  H  H420  1  0.910700  0.682600  0.296400  1
  H  H421  1  0.589300  0.182600  0.796400  1
  H  H422  1  0.589300  0.317400  0.203600  1
  H  H423  1  0.089300  0.182600  0.296400  1
  H  H424  1  0.089300  0.317400  0.703600  1
  H  H425  1  0.406400  0.733900  0.168200  1
  H  H426  1  0.406400  0.766100  0.831800  1
  H  H427  1  0.906400  0.733900  0.668200  1
  H  H428  1  0.906400  0.766100  0.331800  1
  H  H429  1  0.593600  0.266100  0.831800  1
  H  H430  1  0.593600  0.233900  0.168200  1
  H  H431  1  0.093600  0.266100  0.331800  1
  H  H432  1  0.093600  0.233900  0.668200  1
  H  H433  1  0.493900  0.737800  0.161200  1
  H  H434  1  0.493900  0.762200  0.838800  1
  H  H435  1  0.993900  0.737800  0.661200  1
  H  H436  1  0.993900  0.762200  0.338800  1
  H  H437  1  0.506100  0.262200  0.838800  1
  H  H438  1  0.506100  0.237800  0.161200  1
  H  H439  1  0.006100  0.262200  0.338800  1
  H  H440  1  0.006100  0.237800  0.661200  1
  H  H441  1  0.515700  0.794900  0.156800  1
  H  H442  1  0.515700  0.705100  0.843200  1
  H  H443  1  0.015700  0.794900  0.656800  1
  H  H444  1  0.015700  0.705100  0.343200  1
  H  H445  1  0.484300  0.205100  0.843200  1
  H  H446  1  0.484300  0.294900  0.156800  1
  H  H447  1  0.984300  0.205100  0.343200  1
  H  H448  1  0.984300  0.294900  0.656800  1
  H  H449  1  0.443600  0.829900  0.162300  1
  H  H450  1  0.443600  0.670100  0.837700  1
  H  H451  1  0.943600  0.829900  0.662300  1
  H  H452  1  0.943600  0.670100  0.337700  1
  H  H453  1  0.556400  0.170100  0.837700  1
  H  H454  1  0.556400  0.329900  0.162300  1
  H  H455  1  0.056400  0.170100  0.337700  1
  H  H456  1  0.056400  0.329900  0.662300  1
  H  H457  1  0.404400  0.783000  0.140300  1
  H  H458  1  0.404400  0.717000  0.859700  1
  H  H459  1  0.904400  0.783000  0.640300  1
  H  H460  1  0.904400  0.717000  0.359700  1
  H  H461  1  0.595600  0.217000  0.859700  1
  H  H462  1  0.595600  0.283000  0.140300  1
  H  H463  1  0.095600  0.217000  0.359700  1
  H  H464  1  0.095600  0.283000  0.640300  1
  H  H465  1  0.372800  0.791600  0.164500  1
  H  H466  1  0.372800  0.708400  0.835500  1
  H  H467  1  0.872800  0.791600  0.664500  1
  H  H468  1  0.872800  0.708400  0.335500  1
  H  H469  1  0.627200  0.208400  0.835500  1
  H  H470  1  0.627200  0.291600  0.164500  1
  H  H471  1  0.127200  0.208400  0.335500  1
  H  H472  1  0.127200  0.291600  0.664500  1
  H  H473  1  0.561000  0.785700  0.224900  1
  H  H474  1  0.561000  0.714300  0.775100  1
  H  H475  1  0.061000  0.785700  0.724900  1
  H  H476  1  0.061000  0.714300  0.275100  1
  H  H477  1  0.439000  0.214300  0.775100  1
  H  H478  1  0.439000  0.285700  0.224900  1
  H  H479  1  0.939000  0.214300  0.275100  1
  H  H480  1  0.939000  0.285700  0.724900  1
  H  H481  1  0.549300  0.748100  0.228200  1
  H  H482  1  0.549300  0.751900  0.771800  1
  H  H483  1  0.049300  0.748100  0.728200  1
  H  H484  1  0.049300  0.751900  0.271800  1
  H  H485  1  0.450700  0.251900  0.771800  1
  H  H486  1  0.450700  0.248100  0.228200  1
  H  H487  1  0.950700  0.251900  0.271800  1
  H  H488  1  0.950700  0.248100  0.728200  1
  H  H489  1  0.570900  0.778200  0.265700  1
  H  H490  1  0.570900  0.721800  0.734300  1
  H  H491  1  0.070900  0.778200  0.765700  1
  H  H492  1  0.070900  0.721800  0.234300  1
  H  H493  1  0.429100  0.221800  0.734300  1
  H  H494  1  0.429100  0.278200  0.265700  1
  H  H495  1  0.929100  0.221800  0.234300  1
  H  H496  1  0.929100  0.278200  0.765700  1
  H  H497  1  0.519800  0.794000  0.264400  1
  H  H498  1  0.519800  0.706000  0.735600  1
  H  H499  1  0.019800  0.794000  0.764400  1
  H  H500  1  0.019800  0.706000  0.235600  1
  H  H501  1  0.480200  0.206000  0.735600  1
  H  H502  1  0.480200  0.294000  0.264400  1
  H  H503  1  0.980200  0.206000  0.235600  1
  H  H504  1  0.980200  0.294000  0.764400  1
  H  H505  1  0.456000  0.766100  0.281900  1
  H  H506  1  0.456000  0.733900  0.718100  1
  H  H507  1  0.956000  0.766100  0.781900  1
  H  H508  1  0.956000  0.733900  0.218100  1
  H  H509  1  0.544000  0.233900  0.718100  1
  H  H510  1  0.544000  0.266100  0.281900  1
  H  H511  1  0.044000  0.233900  0.218100  1
  H  H512  1  0.044000  0.266100  0.781900  1
  H  H513  1  0.422900  0.721100  0.301000  1
  H  H514  1  0.422900  0.778900  0.699000  1
  H  H515  1  0.922900  0.721100  0.801000  1
  H  H516  1  0.922900  0.778900  0.199000  1
  H  H517  1  0.577100  0.278900  0.699000  1
  H  H518  1  0.577100  0.221100  0.301000  1
  H  H519  1  0.077100  0.278900  0.199000  1
  H  H520  1  0.077100  0.221100  0.801000  1
  H  H521  1  0.542100  0.670900  0.288300  1
  H  H522  1  0.542100  0.829100  0.711700  1
  H  H523  1  0.042100  0.670900  0.788300  1
  H  H524  1  0.042100  0.829100  0.211700  1
  H  H525  1  0.457900  0.329100  0.711700  1
  H  H526  1  0.457900  0.170900  0.288300  1
  H  H527  1  0.957900  0.329100  0.211700  1
  H  H528  1  0.957900  0.170900  0.788300  1
  H  H529  1  0.574800  0.716200  0.269500  1
  H  H530  1  0.574800  0.783800  0.730500  1
  H  H531  1  0.074800  0.716200  0.769500  1
  H  H532  1  0.074800  0.783800  0.230500  1
  H  H533  1  0.425200  0.283800  0.730500  1
  H  H534  1  0.425200  0.216200  0.269500  1
  H  H535  1  0.925200  0.283800  0.230500  1
  H  H536  1  0.925200  0.216200  0.769500  1
  H  H537  1  0.408400  0.659800  0.283500  1
  H  H538  1  0.408400  0.840200  0.716500  1
  H  H539  1  0.908400  0.659800  0.783500  1
  H  H540  1  0.908400  0.840200  0.216500  1
  H  H541  1  0.591600  0.340200  0.716500  1
  H  H542  1  0.591600  0.159800  0.283500  1
  H  H543  1  0.091600  0.340200  0.216500  1
  H  H544  1  0.091600  0.159800  0.783500  1
  H  H545  1  0.348500  0.612500  0.288200  1
  H  H546  1  0.348500  0.887500  0.711800  1
  H  H547  1  0.848500  0.612500  0.788200  1
  H  H548  1  0.848500  0.887500  0.211800  1
  H  H549  1  0.651500  0.387500  0.711800  1
  H  H550  1  0.651500  0.112500  0.288200  1
  H  H551  1  0.151500  0.387500  0.211800  1
  H  H552  1  0.151500  0.112500  0.788200  1
  H  H553  1  0.323100  0.567200  0.310600  1
  H  H554  1  0.323100  0.932800  0.689400  1
  H  H555  1  0.823100  0.567200  0.810600  1
  H  H556  1  0.823100  0.932800  0.189400  1
  H  H557  1  0.676900  0.432800  0.689400  1
  H  H558  1  0.676900  0.067200  0.310600  1
  H  H559  1  0.176900  0.432800  0.189400  1
  H  H560  1  0.176900  0.067200  0.810600  1
  H  H561  1  0.426700  0.582200  0.359100  1
  H  H562  1  0.426700  0.917800  0.640900  1
  H  H563  1  0.926700  0.582200  0.859100  1
  H  H564  1  0.926700  0.917800  0.140900  1
  H  H565  1  0.573300  0.417800  0.640900  1
  H  H566  1  0.573300  0.082200  0.359100  1
  H  H567  1  0.073300  0.417800  0.140900  1
  H  H568  1  0.073300  0.082200  0.859100  1
  H  H569  1  0.349400  0.510100  0.332000  1
  H  H570  1  0.349400  0.989900  0.668000  1
  H  H571  1  0.849400  0.510100  0.832000  1
  H  H572  1  0.849400  0.989900  0.168000  1
  H  H573  1  0.650600  0.489900  0.668000  1
  H  H574  1  0.650600  0.010100  0.332000  1
  H  H575  1  0.150600  0.489900  0.168000  1
  H  H576  1  0.150600  0.010100  0.832000  1
  H  H577  1  0.349700  0.577100  0.385900  1
  H  H578  1  0.349700  0.922900  0.614100  1
  H  H579  1  0.849700  0.577100  0.885900  1
  H  H580  1  0.849700  0.922900  0.114100  1
  H  H581  1  0.650300  0.422900  0.614100  1
  H  H582  1  0.650300  0.077100  0.385900  1
  H  H583  1  0.150300  0.422900  0.114100  1
  H  H584  1  0.150300  0.077100  0.885900  1
  H  H585  1  0.316300  0.539200  0.412300  1
  H  H586  1  0.316300  0.960800  0.587700  1
  H  H587  1  0.816300  0.539200  0.912300  1
  H  H588  1  0.816300  0.960800  0.087700  1
  H  H589  1  0.683700  0.460800  0.587700  1
  H  H590  1  0.683700  0.039200  0.412300  1
  H  H591  1  0.183700  0.460800  0.087700  1
  H  H592  1  0.183700  0.039200  0.912300  1
  H  H593  1  0.279600  0.482000  0.418600  1
  H  H594  1  0.279600  0.018000  0.581400  1
  H  H595  1  0.779600  0.482000  0.918600  1
  H  H596  1  0.779600  0.018000  0.081400  1
  H  H597  1  0.720400  0.518000  0.581400  1
  H  H598  1  0.720400  0.982000  0.418600  1
  H  H599  1  0.220400  0.518000  0.081400  1
  H  H600  1  0.220400  0.982000  0.918600  1
  H  H601  1  0.195100  0.457600  0.405300  1
  H  H602  1  0.195100  0.042400  0.594700  1
  H  H603  1  0.695100  0.457600  0.905300  1
  H  H604  1  0.695100  0.042400  0.094700  1
  H  H605  1  0.804900  0.542400  0.594700  1
  H  H606  1  0.804900  0.957600  0.405300  1
  H  H607  1  0.304900  0.542400  0.094700  1
  H  H608  1  0.304900  0.957600  0.905300  1
  H  H609  1  0.149200  0.419700  0.426400  1
  H  H610  1  0.149200  0.080300  0.573600  1
  H  H611  1  0.649200  0.419700  0.926400  1
  H  H612  1  0.649200  0.080300  0.073600  1
  H  H613  1  0.850800  0.580300  0.573600  1
  H  H614  1  0.850800  0.919700  0.426400  1
  H  H615  1  0.350800  0.580300  0.073600  1
  H  H616  1  0.350800  0.919700  0.926400  1
  H  H617  1  0.257200  0.356200  0.426100  1
  H  H618  1  0.257200  0.143800  0.573900  1
  H  H619  1  0.757200  0.356200  0.926100  1
  H  H620  1  0.757200  0.143800  0.073900  1
  H  H621  1  0.742800  0.643800  0.573900  1
  H  H622  1  0.742800  0.856200  0.426100  1
  H  H623  1  0.242800  0.643800  0.073900  1
  H  H624  1  0.242800  0.856200  0.926100  1
  H  H625  1  0.303100  0.394000  0.404300  1
  H  H626  1  0.303100  0.106000  0.595700  1
  H  H627  1  0.803100  0.394000  0.904300  1
  H  H628  1  0.803100  0.106000  0.095700  1
  H  H629  1  0.696900  0.606000  0.595700  1
  H  H630  1  0.696900  0.894000  0.404300  1
  H  H631  1  0.196900  0.606000  0.095700  1
  H  H632  1  0.196900  0.894000  0.904300  1
  H  H633  1  0.158700  0.343700  0.432400  1
  H  H634  1  0.158700  0.156300  0.567600  1
  H  H635  1  0.658700  0.343700  0.932400  1
  H  H636  1  0.658700  0.156300  0.067600  1
  H  H637  1  0.841300  0.656300  0.567600  1
  H  H638  1  0.841300  0.843700  0.432400  1
  H  H639  1  0.341300  0.656300  0.067600  1
  H  H640  1  0.341300  0.843700  0.932400  1
  H  H641  1  0.140400  0.373700  0.448800  1
  H  H642  1  0.140400  0.126300  0.551200  1
  H  H643  1  0.640400  0.373700  0.948800  1
  H  H644  1  0.640400  0.126300  0.051200  1
  H  H645  1  0.859600  0.626300  0.551200  1
  H  H646  1  0.859600  0.873700  0.448800  1
  H  H647  1  0.359600  0.626300  0.051200  1
  H  H648  1  0.359600  0.873700  0.948800  1
  H  H649  1  0.229800  0.347600  0.462000  1
  H  H650  1  0.229800  0.152400  0.538000  1
  H  H651  1  0.729800  0.347600  0.962000  1
  H  H652  1  0.729800  0.152400  0.038000  1
  H  H653  1  0.770200  0.652400  0.538000  1
  H  H654  1  0.770200  0.847600  0.462000  1
  H  H655  1  0.270200  0.652400  0.038000  1
  H  H656  1  0.270200  0.847600  0.962000  1
  H  H657  1  0.190800  0.362700  0.480300  1
  H  H658  1  0.190800  0.137300  0.519700  1
  H  H659  1  0.690800  0.362700  0.980300  1
  H  H660  1  0.690800  0.137300  0.019700  1
  H  H661  1  0.809200  0.637300  0.519700  1
  H  H662  1  0.809200  0.862700  0.480300  1
  H  H663  1  0.309200  0.637300  0.019700  1
  H  H664  1  0.309200  0.862700  0.980300  1
  H  H665  1  0.171800  0.244000  0.481100  1
  H  H666  1  0.171800  0.256000  0.518900  1
  H  H667  1  0.671800  0.244000  0.981100  1
  H  H668  1  0.671800  0.256000  0.018900  1
  H  H669  1  0.828200  0.756000  0.518900  1
  H  H670  1  0.828200  0.744000  0.481100  1
  H  H671  1  0.328200  0.756000  0.018900  1
  H  H672  1  0.328200  0.744000  0.981100  1
  H  H673  1  0.109300  0.273000  0.493400  1
  H  H674  1  0.109300  0.227000  0.506600  1
  H  H675  1  0.609300  0.273000  0.993400  1
  H  H676  1  0.609300  0.227000  0.006600  1
  H  H677  1  0.890700  0.727000  0.506600  1
  H  H678  1  0.890700  0.773000  0.493400  1
  H  H679  1  0.390700  0.727000  0.006600  1
  H  H680  1  0.390700  0.773000  0.993400  1
  H  H681  1  0.170500  0.227700  0.436400  1
  H  H682  1  0.170500  0.272300  0.563600  1
  H  H683  1  0.670500  0.227700  0.936400  1
  H  H684  1  0.670500  0.272300  0.063600  1
  H  H685  1  0.829500  0.772300  0.563600  1
  H  H686  1  0.829500  0.727700  0.436400  1
  H  H687  1  0.329500  0.772300  0.063600  1
  H  H688  1  0.329500  0.727700  0.936400  1
  H  H689  1  0.136700  0.271500  0.409800  1
  H  H690  1  0.136700  0.228500  0.590200  1
  H  H691  1  0.636700  0.271500  0.909800  1
  H  H692  1  0.636700  0.228500  0.090200  1
  H  H693  1  0.863300  0.728500  0.590200  1
  H  H694  1  0.863300  0.771500  0.409800  1
  H  H695  1  0.363300  0.728500  0.090200  1
  H  H696  1  0.363300  0.771500  0.909800  1
  H  H697  1  0.062400  0.290200  0.426000  1
  H  H698  1  0.062400  0.209800  0.574000  1
  H  H699  1  0.562400  0.290200  0.926000  1
  H  H700  1  0.562400  0.209800  0.074000  1
  H  H701  1  0.937600  0.709800  0.574000  1
  H  H702  1  0.937600  0.790200  0.426000  1
  H  H703  1  0.437600  0.709800  0.074000  1
  H  H704  1  0.437600  0.790200  0.926000  1
  H  H705  1  0.046700  0.261100  0.466700  1
  H  H706  1  0.046700  0.238900  0.533300  1
  H  H707  1  0.546700  0.261100  0.966700  1
  H  H708  1  0.546700  0.238900  0.033300  1
  H  H709  1  0.953300  0.738900  0.533300  1
  H  H710  1  0.953300  0.761100  0.466700  1
  H  H711  1  0.453300  0.738900  0.033300  1
  H  H712  1  0.453300  0.761100  0.966700  1
  H  H713  1  0.107600  0.215400  0.469300  1
  H  H714  1  0.107600  0.284600  0.530700  1
  H  H715  1  0.607600  0.215400  0.969300  1
  H  H716  1  0.607600  0.284600  0.030700  1
  H  H717  1  0.892400  0.784600  0.530700  1
  H  H718  1  0.892400  0.715400  0.469300  1
  H  H719  1  0.392400  0.784600  0.030700  1
  H  H720  1  0.392400  0.715400  0.969300  1
  H  H721  1  0.084500  0.215500  0.441700  1
  H  H722  1  0.084500  0.284500  0.558300  1
  H  H723  1  0.584500  0.215500  0.941700  1
  H  H724  1  0.584500  0.284500  0.058300  1
  H  H725  1  0.915500  0.784500  0.558300  1
  H  H726  1  0.915500  0.715500  0.441700  1
  H  H727  1  0.415500  0.784500  0.058300  1
  H  H728  1  0.415500  0.715500  0.941700  1
  H  H729  1  0.977500  0.318400  0.263700  1
  H  H730  1  0.977500  0.181600  0.736300  1
  H  H731  1  0.477500  0.318400  0.763700  1
  H  H732  1  0.477500  0.181600  0.236300  1
  H  H733  1  0.022500  0.681600  0.736300  1
  H  H734  1  0.022500  0.818400  0.263700  1
  H  H735  1  0.522500  0.681600  0.236300  1
  H  H736  1  0.522500  0.818400  0.763700  1
  H  H737  1  0.967000  0.305300  0.303900  1
  H  H738  1  0.967000  0.194700  0.696100  1
  H  H739  1  0.467000  0.305300  0.803900  1
  H  H740  1  0.467000  0.194700  0.196100  1
  H  H741  1  0.033000  0.694700  0.696100  1
  H  H742  1  0.033000  0.805300  0.303900  1
  H  H743  1  0.533000  0.694700  0.196100  1
  H  H744  1  0.533000  0.805300  0.803900  1
  H  H745  1  0.925700  0.362800  0.250800  1
  H  H746  1  0.925700  0.137200  0.749200  1
  H  H747  1  0.425700  0.362800  0.750800  1
  H  H748  1  0.425700  0.137200  0.249200  1
  H  H749  1  0.074300  0.637200  0.749200  1
  H  H750  1  0.074300  0.862800  0.250800  1
  H  H751  1  0.574300  0.637200  0.249200  1
  H  H752  1  0.574300  0.862800  0.750800  1
  H  H753  1  0.946000  0.411700  0.277600  1
  H  H754  1  0.946000  0.088300  0.722400  1
  H  H755  1  0.446000  0.411700  0.777600  1
  H  H756  1  0.446000  0.088300  0.222400  1
  H  H757  1  0.054000  0.588300  0.722400  1
  H  H758  1  0.054000  0.911700  0.277600  1
  H  H759  1  0.554000  0.588300  0.222400  1
  H  H760  1  0.554000  0.911700  0.777600  1
  H  H761  1  0.936500  0.398000  0.321000  1
  H  H762  1  0.936500  0.102000  0.679000  1
  H  H763  1  0.436500  0.398000  0.821000  1
  H  H764  1  0.436500  0.102000  0.179000  1
  H  H765  1  0.063500  0.602000  0.679000  1
  H  H766  1  0.063500  0.898000  0.321000  1
  H  H767  1  0.563500  0.602000  0.179000  1
  H  H768  1  0.563500  0.898000  0.821000  1
  H  H769  1  0.909300  0.339900  0.324600  1
  H  H770  1  0.909300  0.160100  0.675400  1
  H  H771  1  0.409300  0.339900  0.824600  1
  H  H772  1  0.409300  0.160100  0.175400  1
  H  H773  1  0.090700  0.660100  0.675400  1
  H  H774  1  0.090700  0.839900  0.324600  1
  H  H775  1  0.590700  0.660100  0.175400  1
  H  H776  1  0.590700  0.839900  0.824600  1
  H  H777  1  0.866500  0.353800  0.285100  1
  H  H778  1  0.866500  0.146200  0.714900  1
  H  H779  1  0.366500  0.353800  0.785100  1
  H  H780  1  0.366500  0.146200  0.214900  1
  H  H781  1  0.133500  0.646200  0.714900  1
  H  H782  1  0.133500  0.853800  0.285100  1
  H  H783  1  0.633500  0.646200  0.214900  1
  H  H784  1  0.633500  0.853800  0.785100  1
  H  H785  1  0.893200  0.319500  0.280400  1
  H  H786  1  0.893200  0.180500  0.719600  1
  H  H787  1  0.393200  0.319500  0.780400  1
  H  H788  1  0.393200  0.180500  0.219600  1
  H  H789  1  0.106800  0.680500  0.719600  1
  H  H790  1  0.106800  0.819500  0.280400  1
  H  H791  1  0.606800  0.680500  0.219600  1
  H  H792  1  0.606800  0.819500  0.780400  1
  H  H793  1  0.082900  0.384900  0.319300  1
  H  H794  1  0.082900  0.115100  0.680700  1
  H  H795  1  0.582900  0.384900  0.819300  1
  H  H796  1  0.582900  0.115100  0.180700  1
  H  H797  1  0.917100  0.615100  0.680700  1
  H  H798  1  0.917100  0.884900  0.319300  1
  H  H799  1  0.417100  0.615100  0.180700  1
  H  H800  1  0.417100  0.884900  0.819300  1
  H  H801  1  0.094800  0.388200  0.290400  1
  H  H802  1  0.094800  0.111800  0.709600  1
  H  H803  1  0.594800  0.388200  0.790400  1
  H  H804  1  0.594800  0.111800  0.209600  1
  H  H805  1  0.905200  0.611800  0.709600  1
  H  H806  1  0.905200  0.888200  0.290400  1
  H  H807  1  0.405200  0.611800  0.209600  1
  H  H808  1  0.405200  0.888200  0.790400  1
  H  H809  1  0.113700  0.329400  0.317000  1
  H  H810  1  0.113700  0.170600  0.683000  1
  H  H811  1  0.613700  0.329400  0.817000  1
  H  H812  1  0.613700  0.170600  0.183000  1
  H  H813  1  0.886300  0.670600  0.683000  1
  H  H814  1  0.886300  0.829400  0.317000  1
  H  H815  1  0.386300  0.670600  0.183000  1
  H  H816  1  0.386300  0.829400  0.817000  1
  H  H817  1  0.132700  0.338100  0.289800  1
  H  H818  1  0.132700  0.161900  0.710200  1
  H  H819  1  0.632700  0.338100  0.789800  1
  H  H820  1  0.632700  0.161900  0.210200  1
  H  H821  1  0.867300  0.661900  0.710200  1
  H  H822  1  0.867300  0.838100  0.289800  1
  H  H823  1  0.367300  0.661900  0.210200  1
  H  H824  1  0.367300  0.838100  0.789800  1
  H  H825  1  0.145700  0.361700  0.353400  1
  H  H826  1  0.145700  0.138300  0.646600  1
  H  H827  1  0.645700  0.361700  0.853400  1
  H  H828  1  0.645700  0.138300  0.146600  1
  H  H829  1  0.854300  0.638300  0.646600  1
  H  H830  1  0.854300  0.861700  0.353400  1
  H  H831  1  0.354300  0.638300  0.146600  1
  H  H832  1  0.354300  0.861700  0.853400  1
  H  H833  1  0.212400  0.384500  0.370900  1
  H  H834  1  0.212400  0.115500  0.629100  1
  H  H835  1  0.712400  0.384500  0.870900  1
  H  H836  1  0.712400  0.115500  0.129100  1
  H  H837  1  0.787600  0.615500  0.629100  1
  H  H838  1  0.787600  0.884500  0.370900  1
  H  H839  1  0.287600  0.615500  0.129100  1
  H  H840  1  0.287600  0.884500  0.870900  1
  H  H841  1  0.269200  0.392700  0.302900  1
  H  H842  1  0.269200  0.107300  0.697100  1
  H  H843  1  0.769200  0.392700  0.802900  1
  H  H844  1  0.769200  0.107300  0.197100  1
  H  H845  1  0.730800  0.607300  0.697100  1
  H  H846  1  0.730800  0.892700  0.302900  1
  H  H847  1  0.230800  0.607300  0.197100  1
  H  H848  1  0.230800  0.892700  0.802900  1
  H  H849  1  0.202100  0.370700  0.285400  1
  H  H850  1  0.202100  0.129300  0.714600  1
  H  H851  1  0.702100  0.370700  0.785400  1
  H  H852  1  0.702100  0.129300  0.214600  1
  H  H853  1  0.797900  0.629300  0.714600  1
  H  H854  1  0.797900  0.870700  0.285400  1
  H  H855  1  0.297900  0.629300  0.214600  1
  H  H856  1  0.297900  0.870700  0.785400  1
  H  H857  1  0.320300  0.360500  0.349100  1
  H  H858  1  0.320300  0.139500  0.650900  1
  H  H859  1  0.820300  0.360500  0.849100  1
  H  H860  1  0.820300  0.139500  0.150900  1
  H  H861  1  0.679700  0.639500  0.650900  1
  H  H862  1  0.679700  0.860500  0.349100  1
  H  H863  1  0.179700  0.639500  0.150900  1
  H  H864  1  0.179700  0.860500  0.849100  1
  H  H865  1  0.405200  0.356100  0.367100  1
  H  H866  1  0.405200  0.143900  0.632900  1
  H  H867  1  0.905200  0.356100  0.867100  1
  H  H868  1  0.905200  0.143900  0.132900  1
  H  H869  1  0.594800  0.643900  0.632900  1
  H  H870  1  0.594800  0.856100  0.367100  1
  H  H871  1  0.094800  0.643900  0.132900  1
  H  H872  1  0.094800  0.856100  0.867100  1
  H  H873  1  0.466600  0.381600  0.388300  1
  H  H874  1  0.466600  0.118400  0.611700  1
  H  H875  1  0.966600  0.381600  0.888300  1
  H  H876  1  0.966600  0.118400  0.111700  1
  H  H877  1  0.533400  0.618400  0.611700  1
  H  H878  1  0.533400  0.881600  0.388300  1
  H  H879  1  0.033400  0.618400  0.111700  1
  H  H880  1  0.033400  0.881600  0.888300  1
  H  H881  1  0.394300  0.465000  0.387500  1
  H  H882  1  0.394300  0.035000  0.612500  1
  H  H883  1  0.894300  0.465000  0.887500  1
  H  H884  1  0.894300  0.035000  0.112500  1
  H  H885  1  0.605700  0.535000  0.612500  1
  H  H886  1  0.605700  0.965000  0.387500  1
  H  H887  1  0.105700  0.535000  0.112500  1
  H  H888  1  0.105700  0.965000  0.887500  1
  H  H889  1  0.527300  0.430200  0.387900  1
  H  H890  1  0.527300  0.069800  0.612100  1
  H  H891  1  0.027300  0.430200  0.887900  1
  H  H892  1  0.027300  0.069800  0.112100  1
  H  H893  1  0.472700  0.569800  0.612100  1
  H  H894  1  0.472700  0.930200  0.387900  1
  H  H895  1  0.972700  0.569800  0.112100  1
  H  H896  1  0.972700  0.930200  0.887900  1
  H  H897  1  0.422900  0.458000  0.433100  1
  H  H898  1  0.422900  0.042000  0.566900  1
  H  H899  1  0.922900  0.458000  0.933100  1
  H  H900  1  0.922900  0.042000  0.066900  1
  H  H901  1  0.577100  0.542000  0.566900  1
  H  H902  1  0.577100  0.958000  0.433100  1
  H  H903  1  0.077100  0.542000  0.066900  1
  H  H904  1  0.077100  0.958000  0.933100  1
  H  H905  1  0.478600  0.479200  0.460500  1
  H  H906  1  0.478600  0.020800  0.539500  1
  H  H907  1  0.978600  0.479200  0.960500  1
  H  H908  1  0.978600  0.020800  0.039500  1
  H  H909  1  0.521400  0.520800  0.539500  1
  H  H910  1  0.521400  0.979200  0.460500  1
  H  H911  1  0.021400  0.520800  0.039500  1
  H  H912  1  0.021400  0.979200  0.960500  1
  H  H913  1  0.567400  0.489300  0.470500  1
  H  H914  1  0.567400  0.010700  0.529500  1
  H  H915  1  0.067400  0.489300  0.970500  1
  H  H916  1  0.067400  0.010700  0.029500  1
  H  H917  1  0.432600  0.510700  0.529500  1
  H  H918  1  0.432600  0.989300  0.470500  1
  H  H919  1  0.932600  0.510700  0.029500  1
  H  H920  1  0.932600  0.989300  0.970500  1
  H  H921  1  0.649200  0.533200  0.443200  1
  H  H922  1  0.649200  0.966800  0.556800  1
  H  H923  1  0.149200  0.533200  0.943200  1
  H  H924  1  0.149200  0.966800  0.056800  1
  H  H925  1  0.350800  0.466800  0.556800  1
  H  H926  1  0.350800  0.033200  0.443200  1
  H  H927  1  0.850800  0.466800  0.056800  1
  H  H928  1  0.850800  0.033200  0.943200  1
  H  H929  1  0.709100  0.557200  0.465700  1
  H  H930  1  0.709100  0.942800  0.534300  1
  H  H931  1  0.209100  0.557200  0.965700  1
  H  H932  1  0.209100  0.942800  0.034300  1
  H  H933  1  0.290900  0.442800  0.534300  1
  H  H934  1  0.290900  0.057200  0.465700  1
  H  H935  1  0.790900  0.442800  0.034300  1
  H  H936  1  0.790900  0.057200  0.965700  1
  H  H937  1  0.726300  0.475400  0.505200  1
  H  H938  1  0.726300  0.024600  0.494800  1
  H  H939  1  0.226300  0.475400  0.005200  1
  H  H940  1  0.226300  0.024600  0.994800  1
  H  H941  1  0.273700  0.524600  0.494800  1
  H  H942  1  0.273700  0.975400  0.505200  1
  H  H943  1  0.773700  0.524600  0.994800  1
  H  H944  1  0.773700  0.975400  0.005200  1
  H  H945  1  0.667200  0.450400  0.482100  1
  H  H946  1  0.667200  0.049600  0.517900  1
  H  H947  1  0.167200  0.450400  0.982100  1
  H  H948  1  0.167200  0.049600  0.017900  1
  H  H949  1  0.332800  0.549600  0.517900  1
  H  H950  1  0.332800  0.950400  0.482100  1
  H  H951  1  0.832800  0.549600  0.017900  1
  H  H952  1  0.832800  0.950400  0.982100  1
  H  H953  1  0.776300  0.552400  0.491700  1
  H  H954  1  0.776300  0.947600  0.508300  1
  H  H955  1  0.276300  0.552400  0.991700  1
  H  H956  1  0.276300  0.947600  0.008300  1
  H  H957  1  0.223700  0.447600  0.508300  1
  H  H958  1  0.223700  0.052400  0.491700  1
  H  H959  1  0.723700  0.447600  0.008300  1
  H  H960  1  0.723700  0.052400  0.991700  1
  H  H961  1  0.784200  0.521000  0.508200  1
  H  H962  1  0.784200  0.979000  0.491800  1
  H  H963  1  0.284200  0.521000  0.008200  1
  H  H964  1  0.284200  0.979000  0.991800  1
  H  H965  1  0.215800  0.479000  0.491800  1
  H  H966  1  0.215800  0.021000  0.508200  1
  H  H967  1  0.715800  0.479000  0.991800  1
  H  H968  1  0.715800  0.021000  0.008200  1
  H  H969  1  0.736300  0.539600  0.538800  1
  H  H970  1  0.736300  0.960400  0.461200  1
  H  H971  1  0.236300  0.539600  0.038800  1
  H  H972  1  0.236300  0.960400  0.961200  1
  H  H973  1  0.263700  0.460400  0.461200  1
  H  H974  1  0.263700  0.039600  0.538800  1
  H  H975  1  0.763700  0.460400  0.961200  1
  H  H976  1  0.763700  0.039600  0.038800  1
  H  H977  1  0.769600  0.569200  0.531700  1
  H  H978  1  0.769600  0.930800  0.468300  1
  H  H979  1  0.269600  0.569200  0.031700  1
  H  H980  1  0.269600  0.930800  0.968300  1
  H  H981  1  0.230400  0.430800  0.468300  1
  H  H982  1  0.230400  0.069200  0.531700  1
  H  H983  1  0.730400  0.430800  0.968300  1
  H  H984  1  0.730400  0.069200  0.031700  1
  H  H985  1  0.637000  0.611200  0.489100  1
  H  H986  1  0.637000  0.888800  0.510900  1
  H  H987  1  0.137000  0.611200  0.989100  1
  H  H988  1  0.137000  0.888800  0.010900  1
  H  H989  1  0.363000  0.388800  0.510900  1
  H  H990  1  0.363000  0.111200  0.489100  1
  H  H991  1  0.863000  0.388800  0.010900  1
  H  H992  1  0.863000  0.111200  0.989100  1
  H  H993  1  0.597800  0.583600  0.518200  1
  H  H994  1  0.597800  0.916400  0.481800  1
  H  H995  1  0.097800  0.583600  0.018200  1
  H  H996  1  0.097800  0.916400  0.981800  1
  H  H997  1  0.402200  0.416400  0.481800  1
  H  H998  1  0.402200  0.083600  0.518200  1
  H  H999  1  0.902200  0.416400  0.981800  1
  H  H1000  1  0.902200  0.083600  0.018200  1
  H  H1001  1  0.646700  0.668000  0.501300  1
  H  H1002  1  0.646700  0.832000  0.498700  1
  H  H1003  1  0.146700  0.668000  0.001300  1
  H  H1004  1  0.146700  0.832000  0.998700  1
  H  H1005  1  0.353300  0.332000  0.498700  1
  H  H1006  1  0.353300  0.168000  0.501300  1
  H  H1007  1  0.853300  0.332000  0.998700  1
  H  H1008  1  0.853300  0.168000  0.001300  1
  H  H1009  1  0.696600  0.668400  0.539900  1
  H  H1010  1  0.696600  0.831600  0.460100  1
  H  H1011  1  0.196600  0.668400  0.039900  1
  H  H1012  1  0.196600  0.831600  0.960100  1
  H  H1013  1  0.303400  0.331600  0.460100  1
  H  H1014  1  0.303400  0.168400  0.539900  1
  H  H1015  1  0.803400  0.331600  0.960100  1
  H  H1016  1  0.803400  0.168400  0.039900  1
  H  H1017  1  0.657000  0.638000  0.572200  1
  H  H1018  1  0.657000  0.862000  0.427800  1
  H  H1019  1  0.157000  0.638000  0.072200  1
  H  H1020  1  0.157000  0.862000  0.927800  1
  H  H1021  1  0.343000  0.362000  0.427800  1
  H  H1022  1  0.343000  0.138000  0.572200  1
  H  H1023  1  0.843000  0.362000  0.927800  1
  H  H1024  1  0.843000  0.138000  0.072200  1
  H  H1025  1  0.581300  0.615100  0.555800  1
  H  H1026  1  0.581300  0.884900  0.444200  1
  H  H1027  1  0.081300  0.615100  0.055800  1
  H  H1028  1  0.081300  0.884900  0.944200  1
  H  H1029  1  0.418700  0.384900  0.444200  1
  H  H1030  1  0.418700  0.115100  0.555800  1
  H  H1031  1  0.918700  0.384900  0.944200  1
  H  H1032  1  0.918700  0.115100  0.055800  1
  H  H1033  1  0.569000  0.640400  0.512800  1
  H  H1034  1  0.569000  0.859600  0.487200  1
  H  H1035  1  0.069000  0.640400  0.012800  1
  H  H1036  1  0.069000  0.859600  0.987200  1
  H  H1037  1  0.431000  0.359600  0.487200  1
  H  H1038  1  0.431000  0.140400  0.512800  1
  H  H1039  1  0.931000  0.359600  0.987200  1
  H  H1040  1  0.931000  0.140400  0.012800  1
  H  H1041  1  0.581300  0.668600  0.532900  1
  H  H1042  1  0.581300  0.831400  0.467100  1
  H  H1043  1  0.081300  0.668600  0.032900  1
  H  H1044  1  0.081300  0.831400  0.967100  1
  H  H1045  1  0.418700  0.331400  0.467100  1
  H  H1046  1  0.418700  0.168600  0.532900  1
  H  H1047  1  0.918700  0.331400  0.967100  1
  H  H1048  1  0.918700  0.168600  0.032900  1
  H  H1049  1  0.238800  0.763900  0.433000  1
  H  H1050  1  0.238800  0.736100  0.567000  1
  H  H1051  1  0.738800  0.763900  0.933000  1
  H  H1052  1  0.738800  0.736100  0.067000  1
  H  H1053  1  0.761200  0.236100  0.567000  1
  H  H1054  1  0.761200  0.263900  0.433000  1
  H  H1055  1  0.261200  0.236100  0.067000  1
  H  H1056  1  0.261200  0.263900  0.933000  1
  H  H1057  1  0.280600  0.811400  0.435300  1
  H  H1058  1  0.280600  0.688600  0.564700  1
  H  H1059  1  0.780600  0.811400  0.935300  1
  H  H1060  1  0.780600  0.688600  0.064700  1
  H  H1061  1  0.719400  0.188600  0.564700  1
  H  H1062  1  0.719400  0.311400  0.435300  1
  H  H1063  1  0.219400  0.188600  0.064700  1
  H  H1064  1  0.219400  0.311400  0.935300  1
  H  H1065  1  0.286800  0.717900  0.446000  1
  H  H1066  1  0.286800  0.782100  0.554000  1
  H  H1067  1  0.786800  0.717900  0.946000  1
  H  H1068  1  0.786800  0.782100  0.054000  1
  H  H1069  1  0.713200  0.282100  0.554000  1
  H  H1070  1  0.713200  0.217900  0.446000  1
  H  H1071  1  0.213200  0.282100  0.054000  1
  H  H1072  1  0.213200  0.217900  0.946000  1
  H  H1073  1  0.353600  0.714400  0.415400  1
  H  H1074  1  0.353600  0.785600  0.584600  1
  H  H1075  1  0.853600  0.714400  0.915400  1
  H  H1076  1  0.853600  0.785600  0.084600  1
  H  H1077  1  0.646400  0.285600  0.584600  1
  H  H1078  1  0.646400  0.214400  0.415400  1
  H  H1079  1  0.146400  0.285600  0.084600  1
  H  H1080  1  0.146400  0.214400  0.915400  1
  H  H1081  1  0.399100  0.764600  0.417600  1
  H  H1082  1  0.399100  0.735400  0.582400  1
  H  H1083  1  0.899100  0.764600  0.917600  1
  H  H1084  1  0.899100  0.735400  0.082400  1
  H  H1085  1  0.600900  0.235400  0.582400  1
  H  H1086  1  0.600900  0.264600  0.417600  1
  H  H1087  1  0.100900  0.235400  0.082400  1
  H  H1088  1  0.100900  0.264600  0.917600  1
  H  H1089  1  0.361600  0.802600  0.448400  1
  H  H1090  1  0.361600  0.697400  0.551600  1
  H  H1091  1  0.861600  0.802600  0.948400  1
  H  H1092  1  0.861600  0.697400  0.051600  1
  H  H1093  1  0.638400  0.197400  0.551600  1
  H  H1094  1  0.638400  0.302600  0.448400  1
  H  H1095  1  0.138400  0.197400  0.051600  1
  H  H1096  1  0.138400  0.302600  0.948400  1
  H  H1097  1  0.294800  0.771800  0.469600  1
  H  H1098  1  0.294800  0.728200  0.530400  1
  H  H1099  1  0.794800  0.771800  0.969600  1
  H  H1100  1  0.794800  0.728200  0.030400  1
  H  H1101  1  0.705200  0.228200  0.530400  1
  H  H1102  1  0.705200  0.271800  0.469600  1
  H  H1103  1  0.205200  0.228200  0.030400  1
  H  H1104  1  0.205200  0.271800  0.969600  1
  H  H1105  1  0.343300  0.751200  0.471300  1
  H  H1106  1  0.343300  0.748800  0.528700  1
  H  H1107  1  0.843300  0.751200  0.971300  1
  H  H1108  1  0.843300  0.748800  0.028700  1
  H  H1109  1  0.656700  0.248800  0.528700  1
  H  H1110  1  0.656700  0.251200  0.471300  1
  H  H1111  1  0.156700  0.248800  0.028700  1
  H  H1112  1  0.156700  0.251200  0.971300  1
  H  H1113  1  0.274200  0.799200  0.352100  1
  H  H1114  1  0.274200  0.700800  0.647900  1
  H  H1115  1  0.774200  0.799200  0.852100  1
  H  H1116  1  0.774200  0.700800  0.147900  1
  H  H1117  1  0.725800  0.200800  0.647900  1
  H  H1118  1  0.725800  0.299200  0.352100  1
  H  H1119  1  0.225800  0.200800  0.147900  1
  H  H1120  1  0.225800  0.299200  0.852100  1
  H  H1121  1  0.271500  0.760400  0.351400  1
  H  H1122  1  0.271500  0.739600  0.648600  1
  H  H1123  1  0.771500  0.760400  0.851400  1
  H  H1124  1  0.771500  0.739600  0.148600  1
  H  H1125  1  0.728500  0.239600  0.648600  1
  H  H1126  1  0.728500  0.260400  0.351400  1
  H  H1127  1  0.228500  0.239600  0.148600  1
  H  H1128  1  0.228500  0.260400  0.851400  1
  H  H1129  1  0.357200  0.795700  0.354400  1
  H  H1130  1  0.357200  0.704300  0.645600  1
  H  H1131  1  0.857200  0.795700  0.854400  1
  H  H1132  1  0.857200  0.704300  0.145600  1
  H  H1133  1  0.642800  0.204300  0.645600  1
  H  H1134  1  0.642800  0.295700  0.354400  1
  H  H1135  1  0.142800  0.204300  0.145600  1
  H  H1136  1  0.142800  0.295700  0.854400  1
  H  H1137  1  0.336700  0.781100  0.329100  1
  H  H1138  1  0.336700  0.718900  0.670900  1
  H  H1139  1  0.836700  0.781100  0.829100  1
  H  H1140  1  0.836700  0.718900  0.170900  1
  H  H1141  1  0.663300  0.218900  0.670900  1
  H  H1142  1  0.663300  0.281100  0.329100  1
  H  H1143  1  0.163300  0.218900  0.170900  1
  H  H1144  1  0.163300  0.281100  0.829100  1
  H  H1145  1  0.422300  0.769000  0.364200  1
  H  H1146  1  0.422300  0.731000  0.635800  1
  H  H1147  1  0.922300  0.769000  0.864200  1
  H  H1148  1  0.922300  0.731000  0.135800  1
  H  H1149  1  0.577700  0.231000  0.635800  1
  H  H1150  1  0.577700  0.269000  0.364200  1
  H  H1151  1  0.077700  0.231000  0.135800  1
  H  H1152  1  0.077700  0.269000  0.864200  1
  H  H1153  1  0.468000  0.723000  0.369300  1
  H  H1154  1  0.468000  0.777000  0.630700  1
  H  H1155  1  0.968000  0.723000  0.869300  1
  H  H1156  1  0.968000  0.777000  0.130700  1
  H  H1157  1  0.532000  0.277000  0.630700  1
  H  H1158  1  0.532000  0.223000  0.369300  1
  H  H1159  1  0.032000  0.277000  0.130700  1
  H  H1160  1  0.032000  0.223000  0.869300  1
  H  H1161  1  0.358100  0.667400  0.349000  1
  H  H1162  1  0.358100  0.832600  0.651000  1
  H  H1163  1  0.858100  0.667400  0.849000  1
  H  H1164  1  0.858100  0.832600  0.151000  1
  H  H1165  1  0.641900  0.332600  0.651000  1
  H  H1166  1  0.641900  0.167400  0.349000  1
  H  H1167  1  0.141900  0.332600  0.151000  1
  H  H1168  1  0.141900  0.167400  0.849000  1
  H  H1169  1  0.313700  0.714000  0.342100  1
  H  H1170  1  0.313700  0.786000  0.657900  1
  H  H1171  1  0.813700  0.714000  0.842100  1
  H  H1172  1  0.813700  0.786000  0.157900  1
  H  H1173  1  0.686300  0.286000  0.657900  1
  H  H1174  1  0.686300  0.214000  0.342100  1
  H  H1175  1  0.186300  0.286000  0.157900  1
  H  H1176  1  0.186300  0.214000  0.842100  1
  H  H1177  1  0.427600  0.657900  0.397800  1
  H  H1178  1  0.427600  0.842100  0.602200  1
  H  H1179  1  0.927600  0.657900  0.897800  1
  H  H1180  1  0.927600  0.842100  0.102200  1
  H  H1181  1  0.572400  0.342100  0.602200  1
  H  H1182  1  0.572400  0.157900  0.397800  1
  H  H1183  1  0.072400  0.342100  0.102200  1
  H  H1184  1  0.072400  0.157900  0.897800  1
  H  H1185  1  0.463200  0.609600  0.422700  1
  H  H1186  1  0.463200  0.890400  0.577300  1
  H  H1187  1  0.963200  0.609600  0.922700  1
  H  H1188  1  0.963200  0.890400  0.077300  1
  H  H1189  1  0.536800  0.390400  0.577300  1
  H  H1190  1  0.536800  0.109600  0.422700  1
  H  H1191  1  0.036800  0.390400  0.077300  1
  H  H1192  1  0.036800  0.109600  0.922700  1
  H  H1193  1  0.518600  0.567600  0.424500  1
  H  H1194  1  0.518600  0.932400  0.575500  1
  H  H1195  1  0.018600  0.567600  0.924500  1
  H  H1196  1  0.018600  0.932400  0.075500  1
  H  H1197  1  0.481400  0.432400  0.575500  1
  H  H1198  1  0.481400  0.067600  0.424500  1
  H  H1199  1  0.981400  0.432400  0.075500  1
  H  H1200  1  0.981400  0.067600  0.924500  1
  H  H1201  1  0.551000  0.584500  0.353400  1
  H  H1202  1  0.551000  0.915500  0.646600  1
  H  H1203  1  0.051000  0.584500  0.853400  1
  H  H1204  1  0.051000  0.915500  0.146600  1
  H  H1205  1  0.449000  0.415500  0.646600  1
  H  H1206  1  0.449000  0.084500  0.353400  1
  H  H1207  1  0.949000  0.415500  0.146600  1
  H  H1208  1  0.949000  0.084500  0.853400  1
  H  H1209  1  0.550000  0.512000  0.402500  1
  H  H1210  1  0.550000  0.988000  0.597500  1
  H  H1211  1  0.050000  0.512000  0.902500  1
  H  H1212  1  0.050000  0.988000  0.097500  1
  H  H1213  1  0.450000  0.488000  0.597500  1
  H  H1214  1  0.450000  0.012000  0.402500  1
  H  H1215  1  0.950000  0.488000  0.097500  1
  H  H1216  1  0.950000  0.012000  0.902500  1
  H  H1217  1  0.630600  0.583600  0.375900  1
  H  H1218  1  0.630600  0.916400  0.624100  1
  H  H1219  1  0.130600  0.583600  0.875900  1
  H  H1220  1  0.130600  0.916400  0.124100  1
  H  H1221  1  0.369400  0.416400  0.624100  1
  H  H1222  1  0.369400  0.083600  0.375900  1
  H  H1223  1  0.869400  0.416400  0.124100  1
  H  H1224  1  0.869400  0.083600  0.875900  1
  H  H1225  1  0.695400  0.549700  0.380300  1
  H  H1226  1  0.695400  0.950300  0.619700  1
  H  H1227  1  0.195400  0.549700  0.880300  1
  H  H1228  1  0.195400  0.950300  0.119700  1
  H  H1229  1  0.304600  0.450300  0.619700  1
  H  H1230  1  0.304600  0.049700  0.380300  1
  H  H1231  1  0.804600  0.450300  0.119700  1
  H  H1232  1  0.804600  0.049700  0.880300  1
  H  H1233  1  0.730300  0.495300  0.396400  1
  H  H1234  1  0.730300  0.004700  0.603600  1
  H  H1235  1  0.230300  0.495300  0.896400  1
  H  H1236  1  0.230300  0.004700  0.103600  1
  H  H1237  1  0.269700  0.504700  0.603600  1
  H  H1238  1  0.269700  0.995300  0.396400  1
  H  H1239  1  0.769700  0.504700  0.103600  1
  H  H1240  1  0.769700  0.995300  0.896400  1
  H  H1241  1  0.753000  0.471400  0.442100  1
  H  H1242  1  0.753000  0.028600  0.557900  1
  H  H1243  1  0.253000  0.471400  0.942100  1
  H  H1244  1  0.253000  0.028600  0.057900  1
  H  H1245  1  0.247000  0.528600  0.557900  1
  H  H1246  1  0.247000  0.971400  0.442100  1
  H  H1247  1  0.747000  0.528600  0.057900  1
  H  H1248  1  0.747000  0.971400  0.942100  1
  H  H1249  1  0.813400  0.436700  0.453500  1
  H  H1250  1  0.813400  0.063300  0.546500  1
  H  H1251  1  0.313400  0.436700  0.953500  1
  H  H1252  1  0.313400  0.063300  0.046500  1
  H  H1253  1  0.186600  0.563300  0.546500  1
  H  H1254  1  0.186600  0.936700  0.453500  1
  H  H1255  1  0.686600  0.563300  0.046500  1
  H  H1256  1  0.686600  0.936700  0.953500  1
  H  H1257  1  0.770200  0.371100  0.403000  1
  H  H1258  1  0.770200  0.128900  0.597000  1
  H  H1259  1  0.270200  0.371100  0.903000  1
  H  H1260  1  0.270200  0.128900  0.097000  1
  H  H1261  1  0.229800  0.628900  0.597000  1
  H  H1262  1  0.229800  0.871100  0.403000  1
  H  H1263  1  0.729800  0.628900  0.097000  1
  H  H1264  1  0.729800  0.871100  0.903000  1
  H  H1265  1  0.708300  0.405000  0.392200  1
  H  H1266  1  0.708300  0.095000  0.607800  1
  H  H1267  1  0.208300  0.405000  0.892200  1
  H  H1268  1  0.208300  0.095000  0.107800  1
  H  H1269  1  0.291700  0.595000  0.607800  1
  H  H1270  1  0.291700  0.905000  0.392200  1
  H  H1271  1  0.791700  0.595000  0.107800  1
  H  H1272  1  0.791700  0.905000  0.892200  1
  H  H1273  1  0.861700  0.379200  0.422000  1
  H  H1274  1  0.861700  0.120800  0.578000  1
  H  H1275  1  0.361700  0.379200  0.922000  1
  H  H1276  1  0.361700  0.120800  0.078000  1
  H  H1277  1  0.138300  0.620800  0.578000  1
  H  H1278  1  0.138300  0.879200  0.422000  1
  H  H1279  1  0.638300  0.620800  0.078000  1
  H  H1280  1  0.638300  0.879200  0.922000  1
  H  H1281  1  0.856200  0.390000  0.450300  1
  H  H1282  1  0.856200  0.110000  0.549700  1
  H  H1283  1  0.356200  0.390000  0.950300  1
  H  H1284  1  0.356200  0.110000  0.049700  1
  H  H1285  1  0.143800  0.610000  0.549700  1
  H  H1286  1  0.143800  0.890000  0.450300  1
  H  H1287  1  0.643800  0.610000  0.049700  1
  H  H1288  1  0.643800  0.890000  0.950300  1
  H  H1289  1  0.840800  0.341500  0.460500  1
  H  H1290  1  0.840800  0.158500  0.539500  1
  H  H1291  1  0.340800  0.341500  0.960500  1
  H  H1292  1  0.340800  0.158500  0.039500  1
  H  H1293  1  0.159200  0.658500  0.539500  1
  H  H1294  1  0.159200  0.841500  0.460500  1
  H  H1295  1  0.659200  0.658500  0.039500  1
  H  H1296  1  0.659200  0.841500  0.960500  1
  H  H1297  1  0.795200  0.341700  0.443400  1
  H  H1298  1  0.795200  0.158300  0.556600  1
  H  H1299  1  0.295200  0.341700  0.943400  1
  H  H1300  1  0.295200  0.158300  0.056600  1
  H  H1301  1  0.204800  0.658300  0.556600  1
  H  H1302  1  0.204800  0.841700  0.443400  1
  H  H1303  1  0.704800  0.658300  0.056600  1
  H  H1304  1  0.704800  0.841700  0.943400  1
  H  H1305  1  0.841100  0.258800  0.398700  1
  H  H1306  1  0.841100  0.241200  0.601300  1
  H  H1307  1  0.341100  0.258800  0.898700  1
  H  H1308  1  0.341100  0.241200  0.101300  1
  H  H1309  1  0.158900  0.741200  0.601300  1
  H  H1310  1  0.158900  0.758800  0.398700  1
  H  H1311  1  0.658900  0.741200  0.101300  1
  H  H1312  1  0.658900  0.758800  0.898700  1
  H  H1313  1  0.910700  0.259800  0.418800  1
  H  H1314  1  0.910700  0.240200  0.581200  1
  H  H1315  1  0.410700  0.259800  0.918800  1
  H  H1316  1  0.410700  0.240200  0.081200  1
  H  H1317  1  0.089300  0.740200  0.581200  1
  H  H1318  1  0.089300  0.759800  0.418800  1
  H  H1319  1  0.589300  0.740200  0.081200  1
  H  H1320  1  0.589300  0.759800  0.918800  1
  H  H1321  1  0.851300  0.276100  0.355800  1
  H  H1322  1  0.851300  0.223900  0.644200  1
  H  H1323  1  0.351300  0.276100  0.855800  1
  H  H1324  1  0.351300  0.223900  0.144200  1
  H  H1325  1  0.148700  0.723900  0.644200  1
  H  H1326  1  0.148700  0.776100  0.355800  1
  H  H1327  1  0.648700  0.723900  0.144200  1
  H  H1328  1  0.648700  0.776100  0.855800  1
  H  H1329  1  0.872600  0.335800  0.358300  1
  H  H1330  1  0.872600  0.164200  0.641700  1
  H  H1331  1  0.372600  0.335800  0.858300  1
  H  H1332  1  0.372600  0.164200  0.141700  1
  H  H1333  1  0.127400  0.664200  0.641700  1
  H  H1334  1  0.127400  0.835800  0.358300  1
  H  H1335  1  0.627400  0.664200  0.141700  1
  H  H1336  1  0.627400  0.835800  0.858300  1
  H  H1337  1  0.943800  0.342200  0.382500  1
  H  H1338  1  0.943800  0.157800  0.617500  1
  H  H1339  1  0.443800  0.342200  0.882500  1
  H  H1340  1  0.443800  0.157800  0.117500  1
  H  H1341  1  0.056200  0.657800  0.617500  1
  H  H1342  1  0.056200  0.842200  0.382500  1
  H  H1343  1  0.556200  0.657800  0.117500  1
  H  H1344  1  0.556200  0.842200  0.882500  1
  H  H1345  1  0.973500  0.287100  0.395600  1
  H  H1346  1  0.973500  0.212900  0.604400  1
  H  H1347  1  0.473500  0.287100  0.895600  1
  H  H1348  1  0.473500  0.212900  0.104400  1
  H  H1349  1  0.026500  0.712900  0.604400  1
  H  H1350  1  0.026500  0.787100  0.395600  1
  H  H1351  1  0.526500  0.712900  0.104400  1
  H  H1352  1  0.526500  0.787100  0.895600  1
  H  H1353  1  0.939700  0.270200  0.354400  1
  H  H1354  1  0.939700  0.229800  0.645600  1
  H  H1355  1  0.439700  0.270200  0.854400  1
  H  H1356  1  0.439700  0.229800  0.145600  1
  H  H1357  1  0.060300  0.729800  0.645600  1
  H  H1358  1  0.060300  0.770200  0.354400  1
  H  H1359  1  0.560300  0.729800  0.145600  1
  H  H1360  1  0.560300  0.770200  0.854400  1
  H  H1361  1  0.920100  0.244700  0.374800  1
  H  H1362  1  0.920100  0.255300  0.625200  1
  H  H1363  1  0.420100  0.244700  0.874800  1
  H  H1364  1  0.420100  0.255300  0.125200  1
  H  H1365  1  0.079900  0.755300  0.625200  1
  H  H1366  1  0.079900  0.744700  0.374800  1
  H  H1367  1  0.579900  0.755300  0.125200  1
  H  H1368  1  0.579900  0.744700  0.874800  1
  H  H1369  1  0.761800  0.255200  0.209800  1
  H  H1370  1  0.761800  0.244800  0.790200  1
  H  H1371  1  0.261800  0.255200  0.709800  1
  H  H1372  1  0.261800  0.244800  0.290200  1
  H  H1373  1  0.238200  0.744800  0.790200  1
  H  H1374  1  0.238200  0.755200  0.209800  1
  H  H1375  1  0.738200  0.744800  0.290200  1
  H  H1376  1  0.738200  0.755200  0.709800  1
  H  H1377  1  0.831400  0.277600  0.197800  1
  H  H1378  1  0.831400  0.222400  0.802200  1
  H  H1379  1  0.331400  0.277600  0.697800  1
  H  H1380  1  0.331400  0.222400  0.302200  1
  H  H1381  1  0.168600  0.722400  0.802200  1
  H  H1382  1  0.168600  0.777600  0.197800  1
  H  H1383  1  0.668600  0.722400  0.302200  1
  H  H1384  1  0.668600  0.777600  0.697800  1
  H  H1385  1  0.737900  0.272900  0.251400  1
  H  H1386  1  0.737900  0.227100  0.748600  1
  H  H1387  1  0.237900  0.272900  0.751400  1
  H  H1388  1  0.237900  0.227100  0.248600  1
  H  H1389  1  0.262100  0.727100  0.748600  1
  H  H1390  1  0.262100  0.772900  0.251400  1
  H  H1391  1  0.762100  0.727100  0.248600  1
  H  H1392  1  0.762100  0.772900  0.751400  1
  H  H1393  1  0.726500  0.333900  0.248200  1
  H  H1394  1  0.726500  0.166100  0.751800  1
  H  H1395  1  0.226500  0.333900  0.748200  1
  H  H1396  1  0.226500  0.166100  0.251800  1
  H  H1397  1  0.273500  0.666100  0.751800  1
  H  H1398  1  0.273500  0.833900  0.248200  1
  H  H1399  1  0.773500  0.666100  0.251800  1
  H  H1400  1  0.773500  0.833900  0.748200  1
  H  H1401  1  0.800600  0.358700  0.235300  1
  H  H1402  1  0.800600  0.141300  0.764700  1
  H  H1403  1  0.300600  0.358700  0.735300  1
  H  H1404  1  0.300600  0.141300  0.264700  1
  H  H1405  1  0.199400  0.641300  0.764700  1
  H  H1406  1  0.199400  0.858700  0.235300  1
  H  H1407  1  0.699400  0.641300  0.264700  1
  H  H1408  1  0.699400  0.858700  0.735300  1
  H  H1409  1  0.862600  0.315400  0.229800  1
  H  H1410  1  0.862600  0.184600  0.770200  1
  H  H1411  1  0.362600  0.315400  0.729800  1
  H  H1412  1  0.362600  0.184600  0.270200  1
  H  H1413  1  0.137400  0.684600  0.770200  1
  H  H1414  1  0.137400  0.815400  0.229800  1
  H  H1415  1  0.637400  0.684600  0.270200  1
  H  H1416  1  0.637400  0.815400  0.729800  1
  H  H1417  1  0.819200  0.290300  0.265500  1
  H  H1418  1  0.819200  0.209700  0.734500  1
  H  H1419  1  0.319200  0.290300  0.765500  1
  H  H1420  1  0.319200  0.209700  0.234500  1
  H  H1421  1  0.180800  0.709700  0.734500  1
  H  H1422  1  0.180800  0.790300  0.265500  1
  H  H1423  1  0.680800  0.709700  0.234500  1
  H  H1424  1  0.680800  0.790300  0.765500  1
  H  H1425  1  0.825900  0.262200  0.244600  1
  H  H1426  1  0.825900  0.237800  0.755400  1
  H  H1427  1  0.325900  0.262200  0.744600  1
  H  H1428  1  0.325900  0.237800  0.255400  1
  H  H1429  1  0.174100  0.737800  0.755400  1
  H  H1430  1  0.174100  0.762200  0.244600  1
  H  H1431  1  0.674100  0.737800  0.255400  1
  H  H1432  1  0.674100  0.762200  0.744600  1
  H  H1433  1  0.692000  0.328700  0.161400  1
  H  H1434  1  0.692000  0.171300  0.838600  1
  H  H1435  1  0.192000  0.328700  0.661400  1
  H  H1436  1  0.192000  0.171300  0.338600  1
  H  H1437  1  0.308000  0.671300  0.838600  1
  H  H1438  1  0.308000  0.828700  0.161400  1
  H  H1439  1  0.808000  0.671300  0.338600  1
  H  H1440  1  0.808000  0.828700  0.661400  1
  H  H1441  1  0.740900  0.333800  0.147500  1
  H  H1442  1  0.740900  0.166200  0.852500  1
  H  H1443  1  0.240900  0.333800  0.647500  1
  H  H1444  1  0.240900  0.166200  0.352500  1
  H  H1445  1  0.259100  0.666200  0.852500  1
  H  H1446  1  0.259100  0.833800  0.147500  1
  H  H1447  1  0.759100  0.666200  0.352500  1
  H  H1448  1  0.759100  0.833800  0.647500  1
  H  H1449  1  0.717300  0.385100  0.153400  1
  H  H1450  1  0.717300  0.114900  0.846600  1
  H  H1451  1  0.217300  0.385100  0.653400  1
  H  H1452  1  0.217300  0.114900  0.346600  1
  H  H1453  1  0.282700  0.614900  0.846600  1
  H  H1454  1  0.282700  0.885100  0.153400  1
  H  H1455  1  0.782700  0.614900  0.346600  1
  H  H1456  1  0.782700  0.885100  0.653400  1
  H  H1457  1  0.752000  0.380100  0.176500  1
  H  H1458  1  0.752000  0.119900  0.823500  1
  H  H1459  1  0.252000  0.380100  0.676500  1
  H  H1460  1  0.252000  0.119900  0.323500  1
  H  H1461  1  0.248000  0.619900  0.823500  1
  H  H1462  1  0.248000  0.880100  0.176500  1
  H  H1463  1  0.748000  0.619900  0.323500  1
  H  H1464  1  0.748000  0.880100  0.676500  1
  H  H1465  1  0.630000  0.371000  0.162200  1
  H  H1466  1  0.630000  0.129000  0.837800  1
  H  H1467  1  0.130000  0.371000  0.662200  1
  H  H1468  1  0.130000  0.129000  0.337800  1
  H  H1469  1  0.370000  0.629000  0.837800  1
  H  H1470  1  0.370000  0.871000  0.162200  1
  H  H1471  1  0.870000  0.629000  0.337800  1
  H  H1472  1  0.870000  0.871000  0.662200  1
  H  H1473  1  0.568400  0.385900  0.188400  1
  H  H1474  1  0.568400  0.114100  0.811600  1
  H  H1475  1  0.068400  0.385900  0.688400  1
  H  H1476  1  0.068400  0.114100  0.311600  1
  H  H1477  1  0.431600  0.614100  0.811600  1
  H  H1478  1  0.431600  0.885900  0.188400  1
  H  H1479  1  0.931600  0.614100  0.311600  1
  H  H1480  1  0.931600  0.885900  0.688400  1
  H  H1481  1  0.661300  0.405500  0.243100  1
  H  H1482  1  0.661300  0.094500  0.756900  1
  H  H1483  1  0.161300  0.405500  0.743100  1
  H  H1484  1  0.161300  0.094500  0.256900  1
  H  H1485  1  0.338700  0.594500  0.756900  1
  H  H1486  1  0.338700  0.905500  0.243100  1
  H  H1487  1  0.838700  0.594500  0.256900  1
  H  H1488  1  0.838700  0.905500  0.743100  1
  H  H1489  1  0.722400  0.390500  0.216600  1
  H  H1490  1  0.722400  0.109500  0.783400  1
  H  H1491  1  0.222400  0.390500  0.716600  1
  H  H1492  1  0.222400  0.109500  0.283400  1
  H  H1493  1  0.277600  0.609500  0.783400  1
  H  H1494  1  0.277600  0.890500  0.216600  1
  H  H1495  1  0.777600  0.609500  0.283400  1
  H  H1496  1  0.777600  0.890500  0.716600  1
  H  H1497  1  0.555400  0.364300  0.244100  1
  H  H1498  1  0.555400  0.135700  0.755900  1
  H  H1499  1  0.055400  0.364300  0.744100  1
  H  H1500  1  0.055400  0.135700  0.255900  1
  H  H1501  1  0.444600  0.635700  0.755900  1
  H  H1502  1  0.444600  0.864300  0.244100  1
  H  H1503  1  0.944600  0.635700  0.255900  1
  H  H1504  1  0.944600  0.864300  0.744100  1
  H  H1505  1  0.484700  0.356600  0.274400  1
  H  H1506  1  0.484700  0.143400  0.725600  1
  H  H1507  1  0.984700  0.356600  0.774400  1
  H  H1508  1  0.984700  0.143400  0.225600  1
  H  H1509  1  0.515300  0.643400  0.725600  1
  H  H1510  1  0.515300  0.856600  0.274400  1
  H  H1511  1  0.015300  0.643400  0.225600  1
  H  H1512  1  0.015300  0.856600  0.774400  1
  H  H1513  1  0.419700  0.380000  0.294000  1
  H  H1514  1  0.419700  0.120000  0.706000  1
  H  H1515  1  0.919700  0.380000  0.794000  1
  H  H1516  1  0.919700  0.120000  0.206000  1
  H  H1517  1  0.580300  0.620000  0.706000  1
  H  H1518  1  0.580300  0.880000  0.294000  1
  H  H1519  1  0.080300  0.620000  0.206000  1
  H  H1520  1  0.080300  0.880000  0.794000  1
  H  H1521  1  0.457300  0.466800  0.267100  1
  H  H1522  1  0.457300  0.033200  0.732900  1
  H  H1523  1  0.957300  0.466800  0.767100  1
  H  H1524  1  0.957300  0.033200  0.232900  1
  H  H1525  1  0.542700  0.533200  0.732900  1
  H  H1526  1  0.542700  0.966800  0.267100  1
  H  H1527  1  0.042700  0.533200  0.232900  1
  H  H1528  1  0.042700  0.966800  0.767100  1
  H  H1529  1  0.392700  0.428800  0.325100  1
  H  H1530  1  0.392700  0.071200  0.674900  1
  H  H1531  1  0.892700  0.428800  0.825100  1
  H  H1532  1  0.892700  0.071200  0.174900  1
  H  H1533  1  0.607300  0.571200  0.674900  1
  H  H1534  1  0.607300  0.928800  0.325100  1
  H  H1535  1  0.107300  0.571200  0.174900  1
  H  H1536  1  0.107300  0.928800  0.825100  1
  H  H1537  1  0.363500  0.455900  0.255600  1
  H  H1538  1  0.363500  0.044100  0.744400  1
  H  H1539  1  0.863500  0.455900  0.755600  1
  H  H1540  1  0.863500  0.044100  0.244400  1
  H  H1541  1  0.636500  0.544100  0.744400  1
  H  H1542  1  0.636500  0.955900  0.255600  1
  H  H1543  1  0.136500  0.544100  0.244400  1
  H  H1544  1  0.136500  0.955900  0.755600  1
  H  H1545  1  0.289800  0.473100  0.269100  1
  H  H1546  1  0.289800  0.026900  0.730900  1
  H  H1547  1  0.789800  0.473100  0.769100  1
  H  H1548  1  0.789800  0.026900  0.230900  1
  H  H1549  1  0.710200  0.526900  0.730900  1
  H  H1550  1  0.710200  0.973100  0.269100  1
  H  H1551  1  0.210200  0.526900  0.230900  1
  H  H1552  1  0.210200  0.973100  0.769100  1
  H  H1553  1  0.231400  0.481400  0.304900  1
  H  H1554  1  0.231400  0.018600  0.695100  1
  H  H1555  1  0.731400  0.481400  0.804900  1
  H  H1556  1  0.731400  0.018600  0.195100  1
  H  H1557  1  0.768600  0.518600  0.695100  1
  H  H1558  1  0.768600  0.981400  0.304900  1
  H  H1559  1  0.268600  0.518600  0.195100  1
  H  H1560  1  0.268600  0.981400  0.804900  1
  H  H1561  1  0.232700  0.520600  0.362900  1
  H  H1562  1  0.232700  0.979400  0.637100  1
  H  H1563  1  0.732700  0.520600  0.862900  1
  H  H1564  1  0.732700  0.979400  0.137100  1
  H  H1565  1  0.767300  0.479400  0.637100  1
  H  H1566  1  0.767300  0.020600  0.362900  1
  H  H1567  1  0.267300  0.479400  0.137100  1
  H  H1568  1  0.267300  0.020600  0.862900  1
  H  H1569  1  0.164300  0.536800  0.383000  1
  H  H1570  1  0.164300  0.963200  0.617000  1
  H  H1571  1  0.664300  0.536800  0.883000  1
  H  H1572  1  0.664300  0.963200  0.117000  1
  H  H1573  1  0.835700  0.463200  0.617000  1
  H  H1574  1  0.835700  0.036800  0.383000  1
  H  H1575  1  0.335700  0.463200  0.117000  1
  H  H1576  1  0.335700  0.036800  0.883000  1
  H  H1577  1  0.100600  0.454500  0.360700  1
  H  H1578  1  0.100600  0.045500  0.639300  1
  H  H1579  1  0.600600  0.454500  0.860700  1
  H  H1580  1  0.600600  0.045500  0.139300  1
  H  H1581  1  0.899400  0.545500  0.639300  1
  H  H1582  1  0.899400  0.954500  0.360700  1
  H  H1583  1  0.399400  0.545500  0.139300  1
  H  H1584  1  0.399400  0.954500  0.860700  1
  H  H1585  1  0.169400  0.437400  0.341200  1
  H  H1586  1  0.169400  0.062600  0.658800  1
  H  H1587  1  0.669400  0.437400  0.841200  1
  H  H1588  1  0.669400  0.062600  0.158800  1
  H  H1589  1  0.830600  0.562600  0.658800  1
  H  H1590  1  0.830600  0.937400  0.341200  1
  H  H1591  1  0.330600  0.562600  0.158800  1
  H  H1592  1  0.330600  0.937400  0.841200  1
  H  H1593  1  0.054200  0.505000  0.374600  1
  H  H1594  1  0.054200  0.995000  0.625400  1
  H  H1595  1  0.554200  0.505000  0.874600  1
  H  H1596  1  0.554200  0.995000  0.125400  1
  H  H1597  1  0.945800  0.495000  0.625400  1
  H  H1598  1  0.945800  0.005000  0.374600  1
  H  H1599  1  0.445800  0.495000  0.125400  1
  H  H1600  1  0.445800  0.005000  0.874600  1
  H  H1601  1  0.082900  0.531500  0.390200  1
  H  H1602  1  0.082900  0.968500  0.609800  1
  H  H1603  1  0.582900  0.531500  0.890200  1
  H  H1604  1  0.582900  0.968500  0.109800  1
  H  H1605  1  0.917100  0.468500  0.609800  1
  H  H1606  1  0.917100  0.031500  0.390200  1
  H  H1607  1  0.417100  0.468500  0.109800  1
  H  H1608  1  0.417100  0.031500  0.890200  1
  H  H1609  1  0.070700  0.465500  0.406200  1
  H  H1610  1  0.070700  0.034500  0.593800  1
  H  H1611  1  0.570700  0.465500  0.906200  1
  H  H1612  1  0.570700  0.034500  0.093800  1
  H  H1613  1  0.929300  0.534500  0.593800  1
  H  H1614  1  0.929300  0.965500  0.406200  1
  H  H1615  1  0.429300  0.534500  0.093800  1
  H  H1616  1  0.429300  0.965500  0.906200  1
  H  H1617  1  0.096800  0.493100  0.422000  1
  H  H1618  1  0.096800  0.006900  0.578000  1
  H  H1619  1  0.596800  0.493100  0.922000  1
  H  H1620  1  0.596800  0.006900  0.078000  1
  H  H1621  1  0.903200  0.506900  0.578000  1
  H  H1622  1  0.903200  0.993100  0.422000  1
  H  H1623  1  0.403200  0.506900  0.078000  1
  H  H1624  1  0.403200  0.993100  0.922000  1
  H  H1625  1  0.928100  0.519800  0.413900  1
  H  H1626  1  0.928100  0.980200  0.586100  1
  H  H1627  1  0.428100  0.519800  0.913900  1
  H  H1628  1  0.428100  0.980200  0.086100  1
  H  H1629  1  0.071900  0.480200  0.586100  1
  H  H1630  1  0.071900  0.019800  0.413900  1
  H  H1631  1  0.571900  0.480200  0.086100  1
  H  H1632  1  0.571900  0.019800  0.913900  1
  H  H1633  1  0.961700  0.546600  0.446600  1
  H  H1634  1  0.961700  0.953400  0.553400  1
  H  H1635  1  0.461700  0.546600  0.946600  1
  H  H1636  1  0.461700  0.953400  0.053400  1
  H  H1637  1  0.038300  0.453400  0.553400  1
  H  H1638  1  0.038300  0.046600  0.446600  1
  H  H1639  1  0.538300  0.453400  0.053400  1
  H  H1640  1  0.538300  0.046600  0.946600  1
  H  H1641  1  0.882900  0.473500  0.429100  1
  H  H1642  1  0.882900  0.026500  0.570900  1
  H  H1643  1  0.382900  0.473500  0.929100  1
  H  H1644  1  0.382900  0.026500  0.070900  1
  H  H1645  1  0.117100  0.526500  0.570900  1
  H  H1646  1  0.117100  0.973500  0.429100  1
  H  H1647  1  0.617100  0.526500  0.070900  1
  H  H1648  1  0.617100  0.973500  0.929100  1
  H  H1649  1  0.942900  0.434100  0.446400  1
  H  H1650  1  0.942900  0.065900  0.553600  1
  H  H1651  1  0.442900  0.434100  0.946400  1
  H  H1652  1  0.442900  0.065900  0.053600  1
  H  H1653  1  0.057100  0.565900  0.553600  1
  H  H1654  1  0.057100  0.934100  0.446400  1
  H  H1655  1  0.557100  0.565900  0.053600  1
  H  H1656  1  0.557100  0.934100  0.946400  1
  H  H1657  1  0.986200  0.460600  0.479700  1
  H  H1658  1  0.986200  0.039400  0.520300  1
  H  H1659  1  0.486200  0.460600  0.979700  1
  H  H1660  1  0.486200  0.039400  0.020300  1
  H  H1661  1  0.013800  0.539400  0.520300  1
  H  H1662  1  0.013800  0.960600  0.479700  1
  H  H1663  1  0.513800  0.539400  0.020300  1
  H  H1664  1  0.513800  0.960600  0.979700  1
  H  H1665  1  0.954400  0.517200  0.486200  1
  H  H1666  1  0.954400  0.982800  0.513800  1
  H  H1667  1  0.454400  0.517200  0.986200  1
  H  H1668  1  0.454400  0.982800  0.013800  1
  H  H1669  1  0.045600  0.482800  0.513800  1
  H  H1670  1  0.045600  0.017200  0.486200  1
  H  H1671  1  0.545600  0.482800  0.013800  1
  H  H1672  1  0.545600  0.017200  0.986200  1
  H  H1673  1  0.878600  0.489900  0.474300  1
  H  H1674  1  0.878600  0.010100  0.525700  1
  H  H1675  1  0.378600  0.489900  0.974300  1
  H  H1676  1  0.378600  0.010100  0.025700  1
  H  H1677  1  0.121400  0.510100  0.525700  1
  H  H1678  1  0.121400  0.989900  0.474300  1
  H  H1679  1  0.621400  0.510100  0.025700  1
  H  H1680  1  0.621400  0.989900  0.974300  1
  H  H1681  1  0.882500  0.522900  0.458000  1
  H  H1682  1  0.882500  0.977100  0.542000  1
  H  H1683  1  0.382500  0.522900  0.958000  1
  H  H1684  1  0.382500  0.977100  0.042000  1
  H  H1685  1  0.117500  0.477100  0.542000  1
  H  H1686  1  0.117500  0.022900  0.458000  1
  H  H1687  1  0.617500  0.477100  0.042000  1
  H  H1688  1  0.617500  0.022900  0.958000  1
  H  H1689  1  0.758200  0.792000  0.399800  1
  H  H1690  1  0.758200  0.708000  0.600200  1
  H  H1691  1  0.258200  0.792000  0.899800  1
  H  H1692  1  0.258200  0.708000  0.100200  1
  H  H1693  1  0.241800  0.208000  0.600200  1
  H  H1694  1  0.241800  0.292000  0.399800  1
  H  H1695  1  0.741800  0.208000  0.100200  1
  H  H1696  1  0.741800  0.292000  0.899800  1
  H  H1697  1  0.753100  0.743000  0.418900  1
  H  H1698  1  0.753100  0.757000  0.581100  1
  H  H1699  1  0.253100  0.743000  0.918900  1
  H  H1700  1  0.253100  0.757000  0.081100  1
  H  H1701  1  0.246900  0.257000  0.581100  1
  H  H1702  1  0.246900  0.243000  0.418900  1
  H  H1703  1  0.746900  0.257000  0.081100  1
  H  H1704  1  0.746900  0.243000  0.918900  1
  H  H1705  1  0.755400  0.787200  0.354700  1
  H  H1706  1  0.755400  0.712800  0.645300  1
  H  H1707  1  0.255400  0.787200  0.854700  1
  H  H1708  1  0.255400  0.712800  0.145300  1
  H  H1709  1  0.244600  0.212800  0.645300  1
  H  H1710  1  0.244600  0.287200  0.354700  1
  H  H1711  1  0.744600  0.212800  0.145300  1
  H  H1712  1  0.744600  0.287200  0.854700  1
  H  H1713  1  0.678700  0.759900  0.343500  1
  H  H1714  1  0.678700  0.740100  0.656500  1
  H  H1715  1  0.178700  0.759900  0.843500  1
  H  H1716  1  0.178700  0.740100  0.156500  1
  H  H1717  1  0.321300  0.240100  0.656500  1
  H  H1718  1  0.321300  0.259900  0.343500  1
  H  H1719  1  0.821300  0.240100  0.156500  1
  H  H1720  1  0.821300  0.259900  0.843500  1
  H  H1721  1  0.675800  0.706800  0.363000  1
  H  H1722  1  0.675800  0.793200  0.637000  1
  H  H1723  1  0.175800  0.706800  0.863000  1
  H  H1724  1  0.175800  0.793200  0.137000  1
  H  H1725  1  0.324200  0.293200  0.637000  1
  H  H1726  1  0.324200  0.206800  0.363000  1
  H  H1727  1  0.824200  0.293200  0.137000  1
  H  H1728  1  0.824200  0.206800  0.863000  1
  H  H1729  1  0.748500  0.698600  0.388900  1
  H  H1730  1  0.748500  0.801400  0.611100  1
  H  H1731  1  0.248500  0.698600  0.888900  1
  H  H1732  1  0.248500  0.801400  0.111100  1
  H  H1733  1  0.251500  0.301400  0.611100  1
  H  H1734  1  0.251500  0.198600  0.388900  1
  H  H1735  1  0.751500  0.301400  0.111100  1
  H  H1736  1  0.751500  0.198600  0.888900  1
  H  H1737  1  0.785700  0.729800  0.354000  1
  H  H1738  1  0.785700  0.770200  0.646000  1
  H  H1739  1  0.285700  0.729800  0.854000  1
  H  H1740  1  0.285700  0.770200  0.146000  1
  H  H1741  1  0.214300  0.270200  0.646000  1
  H  H1742  1  0.214300  0.229800  0.354000  1
  H  H1743  1  0.714300  0.270200  0.146000  1
  H  H1744  1  0.714300  0.229800  0.854000  1
  H  H1745  1  0.803500  0.746200  0.379800  1
  H  H1746  1  0.803500  0.753800  0.620200  1
  H  H1747  1  0.303500  0.746200  0.879800  1
  H  H1748  1  0.303500  0.753800  0.120200  1
  H  H1749  1  0.196500  0.253800  0.620200  1
  H  H1750  1  0.196500  0.246200  0.379800  1
  H  H1751  1  0.696500  0.253800  0.120200  1
  H  H1752  1  0.696500  0.246200  0.879800  1
  H  H1753  1  0.607200  0.799400  0.426500  1
  H  H1754  1  0.607200  0.700600  0.573500  1
  H  H1755  1  0.107200  0.799400  0.926500  1
  H  H1756  1  0.107200  0.700600  0.073500  1
  H  H1757  1  0.392800  0.200600  0.573500  1
  H  H1758  1  0.392800  0.299400  0.426500  1
  H  H1759  1  0.892800  0.200600  0.073500  1
  H  H1760  1  0.892800  0.299400  0.926500  1
  H  H1761  1  0.596800  0.761200  0.427400  1
  H  H1762  1  0.596800  0.738800  0.572600  1
  H  H1763  1  0.096800  0.761200  0.927400  1
  H  H1764  1  0.096800  0.738800  0.072600  1
  H  H1765  1  0.403200  0.238800  0.572600  1
  H  H1766  1  0.403200  0.261200  0.427400  1
  H  H1767  1  0.903200  0.238800  0.072600  1
  H  H1768  1  0.903200  0.261200  0.927400  1
  H  H1769  1  0.546700  0.790800  0.398700  1
  H  H1770  1  0.546700  0.709200  0.601300  1
  H  H1771  1  0.046700  0.790800  0.898700  1
  H  H1772  1  0.046700  0.709200  0.101300  1
  H  H1773  1  0.453300  0.209200  0.601300  1
  H  H1774  1  0.453300  0.290800  0.398700  1
  H  H1775  1  0.953300  0.209200  0.101300  1
  H  H1776  1  0.953300  0.290800  0.898700  1
  H  H1777  1  0.592100  0.797700  0.382200  1
  H  H1778  1  0.592100  0.702300  0.617800  1
  H  H1779  1  0.092100  0.797700  0.882200  1
  H  H1780  1  0.092100  0.702300  0.117800  1
  H  H1781  1  0.407900  0.202300  0.617800  1
  H  H1782  1  0.407900  0.297700  0.382200  1
  H  H1783  1  0.907900  0.202300  0.117800  1
  H  H1784  1  0.907900  0.297700  0.882200  1
  H  H1785  1  0.590700  0.766100  0.346500  1
  H  H1786  1  0.590700  0.733900  0.653500  1
  H  H1787  1  0.090700  0.766100  0.846500  1
  H  H1788  1  0.090700  0.733900  0.153500  1
  H  H1789  1  0.409300  0.233900  0.653500  1
  H  H1790  1  0.409300  0.266100  0.346500  1
  H  H1791  1  0.909300  0.233900  0.153500  1
  H  H1792  1  0.909300  0.266100  0.846500  1
  H  H1793  1  0.575400  0.718400  0.324900  1
  H  H1794  1  0.575400  0.781600  0.675100  1
  H  H1795  1  0.075400  0.718400  0.824900  1
  H  H1796  1  0.075400  0.781600  0.175100  1
  H  H1797  1  0.424600  0.281600  0.675100  1
  H  H1798  1  0.424600  0.218400  0.324900  1
  H  H1799  1  0.924600  0.281600  0.175100  1
  H  H1800  1  0.924600  0.218400  0.824900  1
  H  H1801  1  0.534300  0.676100  0.388700  1
  H  H1802  1  0.534300  0.823900  0.611300  1
  H  H1803  1  0.034300  0.676100  0.888700  1
  H  H1804  1  0.034300  0.823900  0.111300  1
  H  H1805  1  0.465700  0.323900  0.611300  1
  H  H1806  1  0.465700  0.176100  0.388700  1
  H  H1807  1  0.965700  0.323900  0.111300  1
  H  H1808  1  0.965700  0.176100  0.888700  1
  H  H1809  1  0.549500  0.724100  0.410300  1
  H  H1810  1  0.549500  0.775900  0.589700  1
  H  H1811  1  0.049500  0.724100  0.910300  1
  H  H1812  1  0.049500  0.775900  0.089700  1
  H  H1813  1  0.450500  0.275900  0.589700  1
  H  H1814  1  0.450500  0.224100  0.410300  1
  H  H1815  1  0.950500  0.275900  0.089700  1
  H  H1816  1  0.950500  0.224100  0.910300  1
  H  H1817  1  0.610900  0.656900  0.334300  1
  H  H1818  1  0.610900  0.843100  0.665700  1
  H  H1819  1  0.110900  0.656900  0.834300  1
  H  H1820  1  0.110900  0.843100  0.165700  1
  H  H1821  1  0.389100  0.343100  0.665700  1
  H  H1822  1  0.389100  0.156900  0.334300  1
  H  H1823  1  0.889100  0.343100  0.165700  1
  H  H1824  1  0.889100  0.156900  0.834300  1
  H  H1825  1  0.634300  0.609000  0.304700  1
  H  H1826  1  0.634300  0.891000  0.695300  1
  H  H1827  1  0.134300  0.609000  0.804700  1
  H  H1828  1  0.134300  0.891000  0.195300  1
  H  H1829  1  0.365700  0.391000  0.695300  1
  H  H1830  1  0.365700  0.109000  0.304700  1
  H  H1831  1  0.865700  0.391000  0.195300  1
  H  H1832  1  0.865700  0.109000  0.804700  1
  H  H1833  1  0.609900  0.565700  0.279700  1
  H  H1834  1  0.609900  0.934300  0.720300  1
  H  H1835  1  0.109900  0.565700  0.779700  1
  H  H1836  1  0.109900  0.934300  0.220300  1
  H  H1837  1  0.390100  0.434300  0.720300  1
  H  H1838  1  0.390100  0.065700  0.279700  1
  H  H1839  1  0.890100  0.434300  0.220300  1
  H  H1840  1  0.890100  0.065700  0.779700  1
  H  H1841  1  0.475900  0.585000  0.298300  1
  H  H1842  1  0.475900  0.915000  0.701700  1
  H  H1843  1  0.975900  0.585000  0.798300  1
  H  H1844  1  0.975900  0.915000  0.201700  1
  H  H1845  1  0.524100  0.415000  0.701700  1
  H  H1846  1  0.524100  0.085000  0.298300  1
  H  H1847  1  0.024100  0.415000  0.201700  1
  H  H1848  1  0.024100  0.085000  0.798300  1
  H  H1849  1  0.566800  0.512900  0.275000  1
  H  H1850  1  0.566800  0.987100  0.725000  1
  H  H1851  1  0.066800  0.512900  0.775000  1
  H  H1852  1  0.066800  0.987100  0.225000  1
  H  H1853  1  0.433200  0.487100  0.725000  1
  H  H1854  1  0.433200  0.012900  0.275000  1
  H  H1855  1  0.933200  0.487100  0.225000  1
  H  H1856  1  0.933200  0.012900  0.775000  1
  H  H1857  1  0.468400  0.577000  0.254300  1
  H  H1858  1  0.468400  0.923000  0.745700  1
  H  H1859  1  0.968400  0.577000  0.754300  1
  H  H1860  1  0.968400  0.923000  0.245700  1
  H  H1861  1  0.531600  0.423000  0.745700  1
  H  H1862  1  0.531600  0.077000  0.254300  1
  H  H1863  1  0.031600  0.423000  0.245700  1
  H  H1864  1  0.031600  0.077000  0.754300  1
  H  H1865  1  0.447400  0.542200  0.221700  1
  H  H1866  1  0.447400  0.957800  0.778300  1
  H  H1867  1  0.947400  0.542200  0.721700  1
  H  H1868  1  0.947400  0.957800  0.278300  1
  H  H1869  1  0.552600  0.457800  0.778300  1
  H  H1870  1  0.552600  0.042200  0.221700  1
  H  H1871  1  0.052600  0.457800  0.278300  1
  H  H1872  1  0.052600  0.042200  0.721700  1
  H  H1873  1  0.463000  0.488400  0.198000  1
  H  H1874  1  0.463000  0.011600  0.802000  1
  H  H1875  1  0.963000  0.488400  0.698000  1
  H  H1876  1  0.963000  0.011600  0.302000  1
  H  H1877  1  0.537000  0.511600  0.802000  1
  H  H1878  1  0.537000  0.988400  0.198000  1
  H  H1879  1  0.037000  0.511600  0.302000  1
  H  H1880  1  0.037000  0.988400  0.698000  1
  H  H1881  1  0.471400  0.400000  0.208100  1
  H  H1882  1  0.471400  0.100000  0.791900  1
  H  H1883  1  0.971400  0.400000  0.708100  1
  H  H1884  1  0.971400  0.100000  0.291900  1
  H  H1885  1  0.528600  0.600000  0.791900  1
  H  H1886  1  0.528600  0.900000  0.208100  1
  H  H1887  1  0.028600  0.600000  0.291900  1
  H  H1888  1  0.028600  0.900000  0.708100  1
  H  H1889  1  0.465100  0.366000  0.173700  1
  H  H1890  1  0.465100  0.134000  0.826300  1
  H  H1891  1  0.965100  0.366000  0.673700  1
  H  H1892  1  0.965100  0.134000  0.326300  1
  H  H1893  1  0.534900  0.634000  0.826300  1
  H  H1894  1  0.534900  0.866000  0.173700  1
  H  H1895  1  0.034900  0.634000  0.326300  1
  H  H1896  1  0.034900  0.866000  0.673700  1
  H  H1897  1  0.530600  0.432600  0.131700  1
  H  H1898  1  0.530600  0.067400  0.868300  1
  H  H1899  1  0.030600  0.432600  0.631700  1
  H  H1900  1  0.030600  0.067400  0.368300  1
  H  H1901  1  0.469400  0.567400  0.868300  1
  H  H1902  1  0.469400  0.932600  0.131700  1
  H  H1903  1  0.969400  0.567400  0.368300  1
  H  H1904  1  0.969400  0.932600  0.631700  1
  H  H1905  1  0.536500  0.467000  0.165700  1
  H  H1906  1  0.536500  0.033000  0.834300  1
  H  H1907  1  0.036500  0.467000  0.665700  1
  H  H1908  1  0.036500  0.033000  0.334300  1
  H  H1909  1  0.463500  0.533000  0.834300  1
  H  H1910  1  0.463500  0.967000  0.165700  1
  H  H1911  1  0.963500  0.533000  0.334300  1
  H  H1912  1  0.963500  0.967000  0.665700  1
  H  H1913  1  0.488000  0.350800  0.133100  1
  H  H1914  1  0.488000  0.149200  0.866900  1
  H  H1915  1  0.988000  0.350800  0.633100  1
  H  H1916  1  0.988000  0.149200  0.366900  1
  H  H1917  1  0.512000  0.649200  0.866900  1
  H  H1918  1  0.512000  0.850800  0.133100  1
  H  H1919  1  0.012000  0.649200  0.366900  1
  H  H1920  1  0.012000  0.850800  0.633100  1
  H  H1921  1  0.522300  0.373700  0.117400  1
  H  H1922  1  0.522300  0.126300  0.882600  1
  H  H1923  1  0.022300  0.373700  0.617400  1
  H  H1924  1  0.022300  0.126300  0.382600  1
  H  H1925  1  0.477700  0.626300  0.882600  1
  H  H1926  1  0.477700  0.873700  0.117400  1
  H  H1927  1  0.977700  0.626300  0.382600  1
  H  H1928  1  0.977700  0.873700  0.617400  1
  H  H1929  1  0.422200  0.374700  0.117700  1
  H  H1930  1  0.422200  0.125300  0.882300  1
  H  H1931  1  0.922200  0.374700  0.617700  1
  H  H1932  1  0.922200  0.125300  0.382300  1
  H  H1933  1  0.577800  0.625300  0.882300  1
  H  H1934  1  0.577800  0.874700  0.117700  1
  H  H1935  1  0.077800  0.625300  0.382300  1
  H  H1936  1  0.077800  0.874700  0.617700  1
  H  H1937  1  0.449200  0.407700  0.111200  1
  H  H1938  1  0.449200  0.092300  0.888800  1
  H  H1939  1  0.949200  0.407700  0.611200  1
  H  H1940  1  0.949200  0.092300  0.388800  1
  H  H1941  1  0.550800  0.592300  0.888800  1
  H  H1942  1  0.550800  0.907700  0.111200  1
  H  H1943  1  0.050800  0.592300  0.388800  1
  H  H1944  1  0.050800  0.907700  0.611200  1
  H  H1945  1  0.476000  0.382100  0.031000  1
  H  H1946  1  0.476000  0.117900  0.969000  1
  H  H1947  1  0.976000  0.382100  0.531000  1
  H  H1948  1  0.976000  0.117900  0.469000  1
  H  H1949  1  0.524000  0.617900  0.969000  1
  H  H1950  1  0.524000  0.882100  0.031000  1
  H  H1951  1  0.024000  0.617900  0.469000  1
  H  H1952  1  0.024000  0.882100  0.531000  1
  H  H1953  1  0.426200  0.338000  0.037600  1
  H  H1954  1  0.426200  0.162000  0.962400  1
  H  H1955  1  0.926200  0.338000  0.537600  1
  H  H1956  1  0.926200  0.162000  0.462400  1
  H  H1957  1  0.573800  0.662000  0.962400  1
  H  H1958  1  0.573800  0.838000  0.037600  1
  H  H1959  1  0.073800  0.662000  0.462400  1
  H  H1960  1  0.073800  0.838000  0.537600  1
  H  H1961  1  0.558300  0.361400  0.029100  1
  H  H1962  1  0.558300  0.138600  0.970900  1
  H  H1963  1  0.058300  0.361400  0.529100  1
  H  H1964  1  0.058300  0.138600  0.470900  1
  H  H1965  1  0.441700  0.638600  0.970900  1
  H  H1966  1  0.441700  0.861400  0.029100  1
  H  H1967  1  0.941700  0.638600  0.470900  1
  H  H1968  1  0.941700  0.861400  0.529100  1
  H  H1969  1  0.573300  0.345700  0.074200  1
  H  H1970  1  0.573300  0.154300  0.925800  1
  H  H1971  1  0.073300  0.345700  0.574200  1
  H  H1972  1  0.073300  0.154300  0.425800  1
  H  H1973  1  0.426700  0.654300  0.925800  1
  H  H1974  1  0.426700  0.845700  0.074200  1
  H  H1975  1  0.926700  0.654300  0.425800  1
  H  H1976  1  0.926700  0.845700  0.574200  1
  H  H1977  1  0.517800  0.303500  0.086300  1
  H  H1978  1  0.517800  0.196500  0.913700  1
  H  H1979  1  0.017800  0.303500  0.586300  1
  H  H1980  1  0.017800  0.196500  0.413700  1
  H  H1981  1  0.482200  0.696500  0.913700  1
  H  H1982  1  0.482200  0.803500  0.086300  1
  H  H1983  1  0.982200  0.696500  0.413700  1
  H  H1984  1  0.982200  0.803500  0.586300  1
  H  H1985  1  0.469300  0.287200  0.048900  1
  H  H1986  1  0.469300  0.212800  0.951100  1
  H  H1987  1  0.969300  0.287200  0.548900  1
  H  H1988  1  0.969300  0.212800  0.451100  1
  H  H1989  1  0.530700  0.712800  0.951100  1
  H  H1990  1  0.530700  0.787200  0.048900  1
  H  H1991  1  0.030700  0.712800  0.451100  1
  H  H1992  1  0.030700  0.787200  0.548900  1
  H  H1993  1  0.540200  0.301900  0.023800  1
  H  H1994  1  0.540200  0.198100  0.976200  1
  H  H1995  1  0.040200  0.301900  0.523800  1
  H  H1996  1  0.040200  0.198100  0.476200  1
  H  H1997  1  0.459800  0.698100  0.976200  1
  H  H1998  1  0.459800  0.801900  0.023800  1
  H  H1999  1  0.959800  0.698100  0.476200  1
  H  H2000  1  0.959800  0.801900  0.523800  1
  H  H2001  1  0.496500  0.321900  0.012100  1
  H  H2002  1  0.496500  0.178100  0.987900  1
  H  H2003  1  0.996500  0.321900  0.512100  1
  H  H2004  1  0.996500  0.178100  0.487900  1
  H  H2005  1  0.503500  0.678100  0.987900  1
  H  H2006  1  0.503500  0.821900  0.012100  1
  H  H2007  1  0.003500  0.678100  0.487900  1
  H  H2008  1  0.003500  0.821900  0.512100  1
  H  H2009  1  0.756500  0.555200  0.325900  1
  H  H2010  1  0.756500  0.944800  0.674100  1
  H  H2011  1  0.256500  0.555200  0.825900  1
  H  H2012  1  0.256500  0.944800  0.174100  1
  H  H2013  1  0.243500  0.444800  0.674100  1
  H  H2014  1  0.243500  0.055200  0.325900  1
  H  H2015  1  0.743500  0.444800  0.174100  1
  H  H2016  1  0.743500  0.055200  0.825900  1
  H  H2017  1  0.755100  0.518900  0.336100  1
  H  H2018  1  0.755100  0.981100  0.663900  1
  H  H2019  1  0.255100  0.518900  0.836100  1
  H  H2020  1  0.255100  0.981100  0.163900  1
  H  H2021  1  0.244900  0.481100  0.663900  1
  H  H2022  1  0.244900  0.018900  0.336100  1
  H  H2023  1  0.744900  0.481100  0.163900  1
  H  H2024  1  0.744900  0.018900  0.836100  1
  H  H2025  1  0.751600  0.525500  0.307000  1
  H  H2026  1  0.751600  0.974500  0.693000  1
  H  H2027  1  0.251600  0.525500  0.807000  1
  H  H2028  1  0.251600  0.974500  0.193000  1
  H  H2029  1  0.248400  0.474500  0.693000  1
  H  H2030  1  0.248400  0.025500  0.307000  1
  H  H2031  1  0.748400  0.474500  0.193000  1
  H  H2032  1  0.748400  0.025500  0.807000  1
  H  H2033  1  0.437700  0.555200  0.419700  1
  H  H2034  1  0.437700  0.944800  0.580300  1
  H  H2035  1  0.937700  0.555200  0.919700  1
  H  H2036  1  0.937700  0.944800  0.080300  1
  H  H2037  1  0.562300  0.444800  0.580300  1
  H  H2038  1  0.562300  0.055200  0.419700  1
  H  H2039  1  0.062300  0.444800  0.080300  1
  H  H2040  1  0.062300  0.055200  0.919700  1
  H  H2041  1  0.450700  0.517900  0.423900  1
  H  H2042  1  0.450700  0.982100  0.576100  1
  H  H2043  1  0.950700  0.517900  0.923900  1
  H  H2044  1  0.950700  0.982100  0.076100  1
  H  H2045  1  0.549300  0.482100  0.576100  1
  H  H2046  1  0.549300  0.017900  0.423900  1
  H  H2047  1  0.049300  0.482100  0.076100  1
  H  H2048  1  0.049300  0.017900  0.923900  1
  H  H2049  1  0.402000  0.527400  0.411100  1
  H  H2050  1  0.402000  0.972600  0.588900  1
  H  H2051  1  0.902000  0.527400  0.911100  1
  H  H2052  1  0.902000  0.972600  0.088900  1
  H  H2053  1  0.598000  0.472600  0.588900  1
  H  H2054  1  0.598000  0.027400  0.411100  1
  H  H2055  1  0.098000  0.472600  0.088900  1
  H  H2056  1  0.098000  0.027400  0.911100  1
  H  H2057  1  0.750800  0.479500  0.442200  1
  H  H2058  1  0.750800  0.020500  0.557800  1
  H  H2059  1  0.250800  0.479500  0.942200  1
  H  H2060  1  0.250800  0.020500  0.057800  1
  H  H2061  1  0.249200  0.520500  0.557800  1
  H  H2062  1  0.249200  0.979500  0.442200  1
  H  H2063  1  0.749200  0.520500  0.057800  1
  H  H2064  1  0.749200  0.979500  0.942200  1
  H  H2065  1  0.810400  0.447600  0.458900  1
  H  H2066  1  0.810400  0.052400  0.541100  1
  H  H2067  1  0.310400  0.447600  0.958900  1
  H  H2068  1  0.310400  0.052400  0.041100  1
  H  H2069  1  0.189600  0.552400  0.541100  1
  H  H2070  1  0.189600  0.947600  0.458900  1
  H  H2071  1  0.689600  0.552400  0.041100  1
  H  H2072  1  0.689600  0.947600  0.958900  1
  H  H2073  1  0.776200  0.375000  0.412000  1
  H  H2074  1  0.776200  0.125000  0.588000  1
  H  H2075  1  0.276200  0.375000  0.912000  1
  H  H2076  1  0.276200  0.125000  0.088000  1
  H  H2077  1  0.223800  0.625000  0.588000  1
  H  H2078  1  0.223800  0.875000  0.412000  1
  H  H2079  1  0.723800  0.625000  0.088000  1
  H  H2080  1  0.723800  0.875000  0.912000  1
  H  H2081  1  0.715300  0.406200  0.395800  1
  H  H2082  1  0.715300  0.093800  0.604200  1
  H  H2083  1  0.215300  0.406200  0.895800  1
  H  H2084  1  0.215300  0.093800  0.104200  1
  H  H2085  1  0.284700  0.593800  0.604200  1
  H  H2086  1  0.284700  0.906200  0.395800  1
  H  H2087  1  0.784700  0.593800  0.104200  1
  H  H2088  1  0.784700  0.906200  0.895800  1
  H  H2089  1  0.821800  0.371400  0.460600  1
  H  H2090  1  0.821800  0.128600  0.539400  1
  H  H2091  1  0.321800  0.371400  0.960600  1
  H  H2092  1  0.321800  0.128600  0.039400  1
  H  H2093  1  0.178200  0.628600  0.539400  1
  H  H2094  1  0.178200  0.871400  0.460600  1
  H  H2095  1  0.678200  0.628600  0.039400  1
  H  H2096  1  0.678200  0.871400  0.960600  1
  H  H2097  1  0.859200  0.400100  0.457700  1
  H  H2098  1  0.859200  0.099900  0.542300  1
  H  H2099  1  0.359200  0.400100  0.957700  1
  H  H2100  1  0.359200  0.099900  0.042300  1
  H  H2101  1  0.140800  0.599900  0.542300  1
  H  H2102  1  0.140800  0.900100  0.457700  1
  H  H2103  1  0.640800  0.599900  0.042300  1
  H  H2104  1  0.640800  0.900100  0.957700  1
  H  H2105  1  0.848500  0.345000  0.427600  1
  H  H2106  1  0.848500  0.155000  0.572400  1
  H  H2107  1  0.348500  0.345000  0.927600  1
  H  H2108  1  0.348500  0.155000  0.072400  1
  H  H2109  1  0.151500  0.655000  0.572400  1
  H  H2110  1  0.151500  0.845000  0.427600  1
  H  H2111  1  0.651500  0.655000  0.072400  1
  H  H2112  1  0.651500  0.845000  0.927600  1
  H  H2113  1  0.854800  0.377700  0.412000  1
  H  H2114  1  0.854800  0.122300  0.588000  1
  H  H2115  1  0.354800  0.377700  0.912000  1
  H  H2116  1  0.354800  0.122300  0.088000  1
  H  H2117  1  0.145200  0.622300  0.588000  1
  H  H2118  1  0.145200  0.877700  0.412000  1
  H  H2119  1  0.645200  0.622300  0.088000  1
  H  H2120  1  0.645200  0.877700  0.912000  1
  H  H2121  1  0.979400  0.315400  0.415900  1
  H  H2122  1  0.979400  0.184600  0.584100  1
  H  H2123  1  0.479400  0.315400  0.915900  1
  H  H2124  1  0.479400  0.184600  0.084100  1
  H  H2125  1  0.020600  0.684600  0.584100  1
  H  H2126  1  0.020600  0.815400  0.415900  1
  H  H2127  1  0.520600  0.684600  0.084100  1
  H  H2128  1  0.520600  0.815400  0.915900  1
  H  H2129  1  0.013800  0.348700  0.443700  1
  H  H2130  1  0.013800  0.151300  0.556300  1
  H  H2131  1  0.513800  0.348700  0.943700  1
  H  H2132  1  0.513800  0.151300  0.056300  1
  H  H2133  1  0.986200  0.651300  0.556300  1
  H  H2134  1  0.986200  0.848700  0.443700  1
  H  H2135  1  0.486200  0.651300  0.056300  1
  H  H2136  1  0.486200  0.848700  0.943700  1
  H  H2137  1  0.000200  0.333000  0.374600  1
  H  H2138  1  0.000200  0.167000  0.625400  1
  H  H2139  1  0.500200  0.333000  0.874600  1
  H  H2140  1  0.500200  0.167000  0.125400  1
  H  H2141  1  0.999800  0.667000  0.625400  1
  H  H2142  1  0.999800  0.833000  0.374600  1
  H  H2143  1  0.499800  0.667000  0.125400  1
  H  H2144  1  0.499800  0.833000  0.874600  1
  H  H2145  1  0.962000  0.387300  0.366600  1
  H  H2146  1  0.962000  0.112700  0.633400  1
  H  H2147  1  0.462000  0.387300  0.866600  1
  H  H2148  1  0.462000  0.112700  0.133400  1
  H  H2149  1  0.038000  0.612700  0.633400  1
  H  H2150  1  0.038000  0.887300  0.366600  1
  H  H2151  1  0.538000  0.612700  0.133400  1
  H  H2152  1  0.538000  0.887300  0.866600  1
  H  H2153  1  0.987000  0.425500  0.398700  1
  H  H2154  1  0.987000  0.074500  0.601300  1
  H  H2155  1  0.487000  0.425500  0.898700  1
  H  H2156  1  0.487000  0.074500  0.101300  1
  H  H2157  1  0.013000  0.574500  0.601300  1
  H  H2158  1  0.013000  0.925500  0.398700  1
  H  H2159  1  0.513000  0.574500  0.101300  1
  H  H2160  1  0.513000  0.925500  0.898700  1
  H  H2161  1  0.046000  0.398400  0.426300  1
  H  H2162  1  0.046000  0.101600  0.573700  1
  H  H2163  1  0.546000  0.398400  0.926300  1
  H  H2164  1  0.546000  0.101600  0.073700  1
  H  H2165  1  0.954000  0.601600  0.573700  1
  H  H2166  1  0.954000  0.898400  0.426300  1
  H  H2167  1  0.454000  0.601600  0.073700  1
  H  H2168  1  0.454000  0.898400  0.926300  1
  H  H2169  1  0.063100  0.342300  0.407700  1
  H  H2170  1  0.063100  0.157700  0.592300  1
  H  H2171  1  0.563100  0.342300  0.907700  1
  H  H2172  1  0.563100  0.157700  0.092300  1
  H  H2173  1  0.936900  0.657700  0.592300  1
  H  H2174  1  0.936900  0.842300  0.407700  1
  H  H2175  1  0.436900  0.657700  0.092300  1
  H  H2176  1  0.436900  0.842300  0.907700  1
  H  H2177  1  0.067400  0.370100  0.386500  1
  H  H2178  1  0.067400  0.129900  0.613500  1
  H  H2179  1  0.567400  0.370100  0.886500  1
  H  H2180  1  0.567400  0.129900  0.113500  1
  H  H2181  1  0.932600  0.629900  0.613500  1
  H  H2182  1  0.932600  0.870100  0.386500  1
  H  H2183  1  0.432600  0.629900  0.113500  1
  H  H2184  1  0.432600  0.870100  0.886500  1
  H  H2185  1  0.229400  0.513000  0.370500  1
  H  H2186  1  0.229400  0.987000  0.629500  1
  H  H2187  1  0.729400  0.513000  0.870500  1
  H  H2188  1  0.729400  0.987000  0.129500  1
  H  H2189  1  0.770600  0.487000  0.629500  1
  H  H2190  1  0.770600  0.013000  0.370500  1
  H  H2191  1  0.270600  0.487000  0.129500  1
  H  H2192  1  0.270600  0.013000  0.870500  1
  H  H2193  1  0.155900  0.532100  0.382600  1
  H  H2194  1  0.155900  0.967900  0.617400  1
  H  H2195  1  0.655900  0.532100  0.882600  1
  H  H2196  1  0.655900  0.967900  0.117400  1
  H  H2197  1  0.844100  0.467900  0.617400  1
  H  H2198  1  0.844100  0.032100  0.382600  1
  H  H2199  1  0.344100  0.467900  0.117400  1
  H  H2200  1  0.344100  0.032100  0.882600  1
  H  H2201  1  0.093800  0.465900  0.338300  1
  H  H2202  1  0.093800  0.034100  0.661700  1
  H  H2203  1  0.593800  0.465900  0.838300  1
  H  H2204  1  0.593800  0.034100  0.161700  1
  H  H2205  1  0.906200  0.534100  0.661700  1
  H  H2206  1  0.906200  0.965900  0.338300  1
  H  H2207  1  0.406200  0.534100  0.161700  1
  H  H2208  1  0.406200  0.965900  0.838300  1
  H  H2209  1  0.167100  0.446000  0.326400  1
  H  H2210  1  0.167100  0.054000  0.673600  1
  H  H2211  1  0.667100  0.446000  0.826400  1
  H  H2212  1  0.667100  0.054000  0.173600  1
  H  H2213  1  0.832900  0.554000  0.673600  1
  H  H2214  1  0.832900  0.946000  0.326400  1
  H  H2215  1  0.332900  0.554000  0.173600  1
  H  H2216  1  0.332900  0.946000  0.826400  1
  H  H2217  1  0.044600  0.501100  0.362100  1
  H  H2218  1  0.044600  0.998900  0.637900  1
  H  H2219  1  0.544600  0.501100  0.862100  1
  H  H2220  1  0.544600  0.998900  0.137900  1
  H  H2221  1  0.955400  0.498900  0.637900  1
  H  H2222  1  0.955400  0.001100  0.362100  1
  H  H2223  1  0.455400  0.498900  0.137900  1
  H  H2224  1  0.455400  0.001100  0.862100  1
  H  H2225  1  0.066600  0.536900  0.364100  1
  H  H2226  1  0.066600  0.963100  0.635900  1
  H  H2227  1  0.566600  0.536900  0.864100  1
  H  H2228  1  0.566600  0.963100  0.135900  1
  H  H2229  1  0.933400  0.463100  0.635900  1
  H  H2230  1  0.933400  0.036900  0.364100  1
  H  H2231  1  0.433400  0.463100  0.135900  1
  H  H2232  1  0.433400  0.036900  0.864100  1
  H  H2233  1  0.071800  0.489000  0.402500  1
  H  H2234  1  0.071800  0.011000  0.597500  1
  H  H2235  1  0.571800  0.489000  0.902500  1
  H  H2236  1  0.571800  0.011000  0.097500  1
  H  H2237  1  0.928200  0.511000  0.597500  1
  H  H2238  1  0.928200  0.989000  0.402500  1
  H  H2239  1  0.428200  0.511000  0.097500  1
  H  H2240  1  0.428200  0.989000  0.902500  1
  H  H2241  1  0.096200  0.523800  0.404500  1
  H  H2242  1  0.096200  0.976200  0.595500  1
  H  H2243  1  0.596200  0.523800  0.904500  1
  H  H2244  1  0.596200  0.976200  0.095500  1
  H  H2245  1  0.903800  0.476200  0.595500  1
  H  H2246  1  0.903800  0.023800  0.404500  1
  H  H2247  1  0.403800  0.476200  0.095500  1
  H  H2248  1  0.403800  0.023800  0.904500  1
  H  H2249  1  0.923500  0.546400  0.409200  1
  H  H2250  1  0.923500  0.953600  0.590800  1
  H  H2251  1  0.423500  0.546400  0.909200  1
  H  H2252  1  0.423500  0.953600  0.090800  1
  H  H2253  1  0.076500  0.453600  0.590800  1
  H  H2254  1  0.076500  0.046400  0.409200  1
  H  H2255  1  0.576500  0.453600  0.090800  1
  H  H2256  1  0.576500  0.046400  0.909200  1
  H  H2257  1  0.969100  0.578900  0.433900  1
  H  H2258  1  0.969100  0.921100  0.566100  1
  H  H2259  1  0.469100  0.578900  0.933900  1
  H  H2260  1  0.469100  0.921100  0.066100  1
  H  H2261  1  0.030900  0.421100  0.566100  1
  H  H2262  1  0.030900  0.078900  0.433900  1
  H  H2263  1  0.530900  0.421100  0.066100  1
  H  H2264  1  0.530900  0.078900  0.933900  1
  H  H2265  1  0.894500  0.498200  0.431200  1
  H  H2266  1  0.894500  0.001800  0.568800  1
  H  H2267  1  0.394500  0.498200  0.931200  1
  H  H2268  1  0.394500  0.001800  0.068800  1
  H  H2269  1  0.105500  0.501800  0.568800  1
  H  H2270  1  0.105500  0.998200  0.431200  1
  H  H2271  1  0.605500  0.501800  0.068800  1
  H  H2272  1  0.605500  0.998200  0.931200  1
  H  H2273  1  0.967100  0.467500  0.444500  1
  H  H2274  1  0.967100  0.032500  0.555500  1
  H  H2275  1  0.467100  0.467500  0.944500  1
  H  H2276  1  0.467100  0.032500  0.055500  1
  H  H2277  1  0.032900  0.532500  0.555500  1
  H  H2278  1  0.032900  0.967500  0.444500  1
  H  H2279  1  0.532900  0.532500  0.055500  1
  H  H2280  1  0.532900  0.967500  0.944500  1
  H  H2281  1  0.015000  0.502300  0.471200  1
  H  H2282  1  0.015000  0.997700  0.528800  1
  H  H2283  1  0.515000  0.502300  0.971200  1
  H  H2284  1  0.515000  0.997700  0.028800  1
  H  H2285  1  0.985000  0.497700  0.528800  1
  H  H2286  1  0.985000  0.002300  0.471200  1
  H  H2287  1  0.485000  0.497700  0.028800  1
  H  H2288  1  0.485000  0.002300  0.971200  1
  H  H2289  1  0.974900  0.556800  0.476400  1
  H  H2290  1  0.974900  0.943200  0.523600  1
  H  H2291  1  0.474900  0.556800  0.976400  1
  H  H2292  1  0.474900  0.943200  0.023600  1
  H  H2293  1  0.025100  0.443200  0.523600  1
  H  H2294  1  0.025100  0.056800  0.476400  1
  H  H2295  1  0.525100  0.443200  0.023600  1
  H  H2296  1  0.525100  0.056800  0.976400  1
  H  H2297  1  0.895000  0.552600  0.454600  1
  H  H2298  1  0.895000  0.947400  0.545400  1
  H  H2299  1  0.395000  0.552600  0.954600  1
  H  H2300  1  0.395000  0.947400  0.045400  1
  H  H2301  1  0.105000  0.447400  0.545400  1
  H  H2302  1  0.105000  0.052600  0.454600  1
  H  H2303  1  0.605000  0.447400  0.045400  1
  H  H2304  1  0.605000  0.052600  0.954600  1
  H  H2305  1  0.901400  0.522800  0.474000  1
  H  H2306  1  0.901400  0.977200  0.526000  1
  H  H2307  1  0.401400  0.522800  0.974000  1
  H  H2308  1  0.401400  0.977200  0.026000  1
  H  H2309  1  0.098600  0.477200  0.526000  1
  H  H2310  1  0.098600  0.022800  0.474000  1
  H  H2311  1  0.598600  0.477200  0.026000  1
  H  H2312  1  0.598600  0.022800  0.974000  1
  H  H2313  1  0.721300  0.809300  0.343500  1
  H  H2314  1  0.721300  0.690700  0.656500  1
  H  H2315  1  0.221300  0.809300  0.843500  1
  H  H2316  1  0.221300  0.690700  0.156500  1
  H  H2317  1  0.278700  0.190700  0.656500  1
  H  H2318  1  0.278700  0.309300  0.343500  1
  H  H2319  1  0.778700  0.190700  0.156500  1
  H  H2320  1  0.778700  0.309300  0.843500  1
  H  H2321  1  0.718500  0.753500  0.338100  1
  H  H2322  1  0.718500  0.746500  0.661900  1
  H  H2323  1  0.218500  0.753500  0.838100  1
  H  H2324  1  0.218500  0.746500  0.161900  1
  H  H2325  1  0.281500  0.246500  0.661900  1
  H  H2326  1  0.281500  0.253500  0.338100  1
  H  H2327  1  0.781500  0.246500  0.161900  1
  H  H2328  1  0.781500  0.253500  0.838100  1
  H  H2329  1  0.790200  0.827600  0.368300  1
  H  H2330  1  0.790200  0.672400  0.631700  1
  H  H2331  1  0.290200  0.827600  0.868300  1
  H  H2332  1  0.290200  0.672400  0.131700  1
  H  H2333  1  0.209800  0.172400  0.631700  1
  H  H2334  1  0.209800  0.327600  0.368300  1
  H  H2335  1  0.709800  0.172400  0.131700  1
  H  H2336  1  0.709800  0.327600  0.868300  1
  H  H2337  1  0.787800  0.795100  0.407700  1
  H  H2338  1  0.787800  0.704900  0.592300  1
  H  H2339  1  0.287800  0.795100  0.907700  1
  H  H2340  1  0.287800  0.704900  0.092300  1
  H  H2341  1  0.212200  0.204900  0.592300  1
  H  H2342  1  0.212200  0.295100  0.407700  1
  H  H2343  1  0.712200  0.204900  0.092300  1
  H  H2344  1  0.712200  0.295100  0.907700  1
  H  H2345  1  0.795000  0.730900  0.350500  1
  H  H2346  1  0.795000  0.769100  0.649500  1
  H  H2347  1  0.295000  0.730900  0.850500  1
  H  H2348  1  0.295000  0.769100  0.149500  1
  H  H2349  1  0.205000  0.269100  0.649500  1
  H  H2350  1  0.205000  0.230900  0.350500  1
  H  H2351  1  0.705000  0.269100  0.149500  1
  H  H2352  1  0.705000  0.230900  0.850500  1
  H  H2353  1  0.795200  0.737400  0.397300  1
  H  H2354  1  0.795200  0.762600  0.602700  1
  H  H2355  1  0.295200  0.737400  0.897300  1
  H  H2356  1  0.295200  0.762600  0.102700  1
  H  H2357  1  0.204800  0.262600  0.602700  1
  H  H2358  1  0.204800  0.237400  0.397300  1
  H  H2359  1  0.704800  0.262600  0.102700  1
  H  H2360  1  0.704800  0.237400  0.897300  1
  H  H2361  1  0.801200  0.787800  0.332100  1
  H  H2362  1  0.801200  0.712200  0.667900  1
  H  H2363  1  0.301200  0.787800  0.832100  1
  H  H2364  1  0.301200  0.712200  0.167900  1
  H  H2365  1  0.198800  0.212200  0.667900  1
  H  H2366  1  0.198800  0.287800  0.332100  1
  H  H2367  1  0.698800  0.212200  0.167900  1
  H  H2368  1  0.698800  0.287800  0.832100  1
  H  H2369  1  0.842000  0.782700  0.352700  1
  H  H2370  1  0.842000  0.717300  0.647300  1
  H  H2371  1  0.342000  0.782700  0.852700  1
  H  H2372  1  0.342000  0.717300  0.147300  1
  H  H2373  1  0.158000  0.217300  0.647300  1
  H  H2374  1  0.158000  0.282700  0.352700  1
  H  H2375  1  0.658000  0.217300  0.147300  1
  H  H2376  1  0.658000  0.282700  0.852700  1
  H  H2377  1  0.656500  0.785500  0.422100  1
  H  H2378  1  0.656500  0.714500  0.577900  1
  H  H2379  1  0.156500  0.785500  0.922100  1
  H  H2380  1  0.156500  0.714500  0.077900  1
  H  H2381  1  0.343500  0.214500  0.577900  1
  H  H2382  1  0.343500  0.285500  0.422100  1
  H  H2383  1  0.843500  0.214500  0.077900  1
  H  H2384  1  0.843500  0.285500  0.922100  1
  H  H2385  1  0.654900  0.747300  0.417200  1
  H  H2386  1  0.654900  0.752700  0.582800  1
  H  H2387  1  0.154900  0.747300  0.917200  1
  H  H2388  1  0.154900  0.752700  0.082800  1
  H  H2389  1  0.345100  0.252700  0.582800  1
  H  H2390  1  0.345100  0.247300  0.417200  1
  H  H2391  1  0.845100  0.252700  0.082800  1
  H  H2392  1  0.845100  0.247300  0.917200  1
  H  H2393  1  0.578600  0.772700  0.417900  1
  H  H2394  1  0.578600  0.727300  0.582100  1
  H  H2395  1  0.078600  0.772700  0.917900  1
  H  H2396  1  0.078600  0.727300  0.082100  1
  H  H2397  1  0.421400  0.227300  0.582100  1
  H  H2398  1  0.421400  0.272700  0.417900  1
  H  H2399  1  0.921400  0.227300  0.082100  1
  H  H2400  1  0.921400  0.272700  0.917900  1
  H  H2401  1  0.592600  0.791300  0.392900  1
  H  H2402  1  0.592600  0.708700  0.607100  1
  H  H2403  1  0.092600  0.791300  0.892900  1
  H  H2404  1  0.092600  0.708700  0.107100  1
  H  H2405  1  0.407400  0.208700  0.607100  1
  H  H2406  1  0.407400  0.291300  0.392900  1
  H  H2407  1  0.907400  0.208700  0.107100  1
  H  H2408  1  0.907400  0.291300  0.892900  1
  H  H2409  1  0.564500  0.768800  0.357100  1
  H  H2410  1  0.564500  0.731200  0.642900  1
  H  H2411  1  0.064500  0.768800  0.857100  1
  H  H2412  1  0.064500  0.731200  0.142900  1
  H  H2413  1  0.435500  0.231200  0.642900  1
  H  H2414  1  0.435500  0.268800  0.357100  1
  H  H2415  1  0.935500  0.231200  0.142900  1
  H  H2416  1  0.935500  0.268800  0.857100  1
  H  H2417  1  0.544200  0.725400  0.331600  1
  H  H2418  1  0.544200  0.774600  0.668400  1
  H  H2419  1  0.044200  0.725400  0.831600  1
  H  H2420  1  0.044200  0.774600  0.168400  1
  H  H2421  1  0.455800  0.274600  0.668400  1
  H  H2422  1  0.455800  0.225400  0.331600  1
  H  H2423  1  0.955800  0.274600  0.168400  1
  H  H2424  1  0.955800  0.225400  0.831600  1
  H  H2425  1  0.570500  0.663600  0.387900  1
  H  H2426  1  0.570500  0.836400  0.612100  1
  H  H2427  1  0.070500  0.663600  0.887900  1
  H  H2428  1  0.070500  0.836400  0.112100  1
  H  H2429  1  0.429500  0.336400  0.612100  1
  H  H2430  1  0.429500  0.163600  0.387900  1
  H  H2431  1  0.929500  0.336400  0.112100  1
  H  H2432  1  0.929500  0.163600  0.887900  1
  H  H2433  1  0.591500  0.707400  0.413200  1
  H  H2434  1  0.591500  0.792600  0.586800  1
  H  H2435  1  0.091500  0.707400  0.913200  1
  H  H2436  1  0.091500  0.792600  0.086800  1
  H  H2437  1  0.408500  0.292600  0.586800  1
  H  H2438  1  0.408500  0.207400  0.413200  1
  H  H2439  1  0.908500  0.292600  0.086800  1
  H  H2440  1  0.908500  0.207400  0.913200  1
  H  H2441  1  0.467900  0.403000  0.212300  1
  H  H2442  1  0.467900  0.097000  0.787700  1
  H  H2443  1  0.967900  0.403000  0.712300  1
  H  H2444  1  0.967900  0.097000  0.287700  1
  H  H2445  1  0.532100  0.597000  0.787700  1
  H  H2446  1  0.532100  0.903000  0.212300  1
  H  H2447  1  0.032100  0.597000  0.287700  1
  H  H2448  1  0.032100  0.903000  0.712300  1
  H  H2449  1  0.449800  0.367600  0.179800  1
  H  H2450  1  0.449800  0.132400  0.820200  1
  H  H2451  1  0.949800  0.367600  0.679800  1
  H  H2452  1  0.949800  0.132400  0.320200  1
  H  H2453  1  0.550200  0.632400  0.820200  1
  H  H2454  1  0.550200  0.867600  0.179800  1
  H  H2455  1  0.050200  0.632400  0.320200  1
  H  H2456  1  0.050200  0.867600  0.679800  1
  H  H2457  1  0.517300  0.426000  0.131800  1
  H  H2458  1  0.517300  0.074000  0.868200  1
  H  H2459  1  0.017300  0.426000  0.631800  1
  H  H2460  1  0.017300  0.074000  0.368200  1
  H  H2461  1  0.482700  0.574000  0.868200  1
  H  H2462  1  0.482700  0.926000  0.131800  1
  H  H2463  1  0.982700  0.574000  0.368200  1
  H  H2464  1  0.982700  0.926000  0.631800  1
  H  H2465  1  0.535300  0.461600  0.164000  1
  H  H2466  1  0.535300  0.038400  0.836000  1
  H  H2467  1  0.035300  0.461600  0.664000  1
  H  H2468  1  0.035300  0.038400  0.336000  1
  H  H2469  1  0.464700  0.538400  0.836000  1
  H  H2470  1  0.464700  0.961600  0.164000  1
  H  H2471  1  0.964700  0.538400  0.336000  1
  H  H2472  1  0.964700  0.961600  0.664000  1
  H  H2473  1  0.472000  0.348900  0.135500  1
  H  H2474  1  0.472000  0.151100  0.864500  1
  H  H2475  1  0.972000  0.348900  0.635500  1
  H  H2476  1  0.972000  0.151100  0.364500  1
  H  H2477  1  0.528000  0.651100  0.864500  1
  H  H2478  1  0.528000  0.848900  0.135500  1
  H  H2479  1  0.028000  0.651100  0.364500  1
  H  H2480  1  0.028000  0.848900  0.635500  1
  H  H2481  1  0.484500  0.377200  0.116200  1
  H  H2482  1  0.484500  0.122800  0.883800  1
  H  H2483  1  0.984500  0.377200  0.616200  1
  H  H2484  1  0.984500  0.122800  0.383800  1
  H  H2485  1  0.515500  0.622800  0.883800  1
  H  H2486  1  0.515500  0.877200  0.116200  1
  H  H2487  1  0.015500  0.622800  0.383800  1
  H  H2488  1  0.015500  0.877200  0.616200  1
  H  H2489  1  0.395600  0.376200  0.141800  1
  H  H2490  1  0.395600  0.123800  0.858200  1
  H  H2491  1  0.895600  0.376200  0.641800  1
  H  H2492  1  0.895600  0.123800  0.358200  1
  H  H2493  1  0.604400  0.623800  0.858200  1
  H  H2494  1  0.604400  0.876200  0.141800  1
  H  H2495  1  0.104400  0.623800  0.358200  1
  H  H2496  1  0.104400  0.876200  0.641800  1
  H  H2497  1  0.408400  0.398500  0.118500  1
  H  H2498  1  0.408400  0.101500  0.881500  1
  H  H2499  1  0.908400  0.398500  0.618500  1
  H  H2500  1  0.908400  0.101500  0.381500  1
  H  H2501  1  0.591600  0.601500  0.881500  1
  H  H2502  1  0.591600  0.898500  0.118500  1
  H  H2503  1  0.091600  0.601500  0.381500  1
  H  H2504  1  0.091600  0.898500  0.618500  1
  H  H2505  1  0.343700  0.325600  0.064600  1
  H  H2506  1  0.343700  0.174400  0.935400  1
  H  H2507  1  0.843700  0.325600  0.564600  1
  H  H2508  1  0.843700  0.174400  0.435400  1
  H  H2509  1  0.656300  0.674400  0.935400  1
  H  H2510  1  0.656300  0.825600  0.064600  1
  H  H2511  1  0.156300  0.674400  0.435400  1
  H  H2512  1  0.156300  0.825600  0.564600  1
  H  H2513  1  0.338600  0.291900  0.097900  1
  H  H2514  1  0.338600  0.208100  0.902100  1
  H  H2515  1  0.838600  0.291900  0.597900  1
  H  H2516  1  0.838600  0.208100  0.402100  1
  H  H2517  1  0.661400  0.708100  0.902100  1
  H  H2518  1  0.661400  0.791900  0.097900  1
  H  H2519  1  0.161400  0.708100  0.402100  1
  H  H2520  1  0.161400  0.791900  0.597900  1
  H  H2521  1  0.411600  0.313100  0.038400  1
  H  H2522  1  0.411600  0.186900  0.961600  1
  H  H2523  1  0.911600  0.313100  0.538400  1
  H  H2524  1  0.911600  0.186900  0.461600  1
  H  H2525  1  0.588400  0.686900  0.961600  1
  H  H2526  1  0.588400  0.813100  0.038400  1
  H  H2527  1  0.088400  0.686900  0.461600  1
  H  H2528  1  0.088400  0.813100  0.538400  1
  H  H2529  1  0.484200  0.318600  0.064900  1
  H  H2530  1  0.484200  0.181400  0.935100  1
  H  H2531  1  0.984200  0.318600  0.564900  1
  H  H2532  1  0.984200  0.181400  0.435100  1
  H  H2533  1  0.515800  0.681400  0.935100  1
  H  H2534  1  0.515800  0.818600  0.064900  1
  H  H2535  1  0.015800  0.681400  0.435100  1
  H  H2536  1  0.015800  0.818600  0.564900  1
  H  H2537  1  0.478600  0.281500  0.099900  1
  H  H2538  1  0.478600  0.218500  0.900100  1
  H  H2539  1  0.978600  0.281500  0.599900  1
  H  H2540  1  0.978600  0.218500  0.400100  1
  H  H2541  1  0.521400  0.718500  0.900100  1
  H  H2542  1  0.521400  0.781500  0.099900  1
  H  H2543  1  0.021400  0.718500  0.400100  1
  H  H2544  1  0.021400  0.781500  0.599900  1
  H  H2545  1  0.401500  0.251400  0.097900  1
  H  H2546  1  0.401500  0.248600  0.902100  1
  H  H2547  1  0.901500  0.251400  0.597900  1
  H  H2548  1  0.901500  0.248600  0.402100  1
  H  H2549  1  0.598500  0.748600  0.902100  1
  H  H2550  1  0.598500  0.751400  0.097900  1
  H  H2551  1  0.098500  0.748600  0.402100  1
  H  H2552  1  0.098500  0.751400  0.597900  1
  H  H2553  1  0.363400  0.266000  0.056300  1
  H  H2554  1  0.363400  0.234000  0.943700  1
  H  H2555  1  0.863400  0.266000  0.556300  1
  H  H2556  1  0.863400  0.234000  0.443700  1
  H  H2557  1  0.636600  0.734000  0.943700  1
  H  H2558  1  0.636600  0.766000  0.056300  1
  H  H2559  1  0.136600  0.734000  0.443700  1
  H  H2560  1  0.136600  0.766000  0.556300  1
  H  H2561  1  0.417300  0.254600  0.051900  1
  H  H2562  1  0.417300  0.245400  0.948100  1
  H  H2563  1  0.917300  0.254600  0.551900  1
  H  H2564  1  0.917300  0.245400  0.448100  1
  H  H2565  1  0.582700  0.745400  0.948100  1
  H  H2566  1  0.582700  0.754600  0.051900  1
  H  H2567  1  0.082700  0.745400  0.448100  1
  H  H2568  1  0.082700  0.754600  0.551900  1
  C  C2569  1  0.726600  0.563000  0.155300  1
  C  C2570  1  0.726600  0.937000  0.844700  1
  C  C2571  1  0.226600  0.563000  0.655300  1
  C  C2572  1  0.226600  0.937000  0.344700  1
  C  C2573  1  0.273400  0.437000  0.844700  1
  C  C2574  1  0.273400  0.063000  0.155300  1
  C  C2575  1  0.773400  0.437000  0.344700  1
  C  C2576  1  0.773400  0.063000  0.655300  1
  C  C2577  1  0.725600  0.587400  0.175900  1
  C  C2578  1  0.725600  0.912600  0.824100  1
  C  C2579  1  0.225600  0.587400  0.675900  1
  C  C2580  1  0.225600  0.912600  0.324100  1
  C  C2581  1  0.274400  0.412600  0.824100  1
  C  C2582  1  0.274400  0.087400  0.175900  1
  C  C2583  1  0.774400  0.412600  0.324100  1
  C  C2584  1  0.774400  0.087400  0.675900  1
  C  C2585  1  0.679700  0.606600  0.171700  1
  C  C2586  1  0.679700  0.893400  0.828300  1
  C  C2587  1  0.179700  0.606600  0.671700  1
  C  C2588  1  0.179700  0.893400  0.328300  1
  C  C2589  1  0.320300  0.393400  0.828300  1
  C  C2590  1  0.320300  0.106600  0.171700  1
  C  C2591  1  0.820300  0.393400  0.328300  1
  C  C2592  1  0.820300  0.106600  0.671700  1
  C  C2593  1  0.658700  0.592100  0.148700  1
  C  C2594  1  0.658700  0.907900  0.851300  1
  C  C2595  1  0.158700  0.592100  0.648700  1
  C  C2596  1  0.158700  0.907900  0.351300  1
  C  C2597  1  0.341300  0.407900  0.851300  1
  C  C2598  1  0.341300  0.092100  0.148700  1
  C  C2599  1  0.841300  0.407900  0.351300  1
  C  C2600  1  0.841300  0.092100  0.648700  1
  C  C2601  1  0.763600  0.614300  0.176800  1
  C  C2602  1  0.763600  0.885700  0.823200  1
  C  C2603  1  0.263600  0.614300  0.676800  1
  C  C2604  1  0.263600  0.885700  0.323200  1
  C  C2605  1  0.236400  0.385700  0.823200  1
  C  C2606  1  0.236400  0.114300  0.176800  1
  C  C2607  1  0.736400  0.385700  0.323200  1
  C  C2608  1  0.736400  0.114300  0.676800  1
  C  C2609  1  0.765800  0.628800  0.151300  1
  C  C2610  1  0.765800  0.871200  0.848700  1
  C  C2611  1  0.265800  0.628800  0.651300  1
  C  C2612  1  0.265800  0.871200  0.348700  1
  C  C2613  1  0.234200  0.371200  0.848700  1
  C  C2614  1  0.234200  0.128800  0.151300  1
  C  C2615  1  0.734200  0.371200  0.348700  1
  C  C2616  1  0.734200  0.128800  0.651300  1
  C  C2617  1  0.726500  0.645000  0.147700  1
  C  C2618  1  0.726500  0.855000  0.852300  1
  C  C2619  1  0.226500  0.645000  0.647700  1
  C  C2620  1  0.226500  0.855000  0.352300  1
  C  C2621  1  0.273500  0.355000  0.852300  1
  C  C2622  1  0.273500  0.145000  0.147700  1
  C  C2623  1  0.773500  0.355000  0.352300  1
  C  C2624  1  0.773500  0.145000  0.647700  1
  C  C2625  1  0.697000  0.642000  0.170700  1
  C  C2626  1  0.697000  0.858000  0.829300  1
  C  C2627  1  0.197000  0.642000  0.670700  1
  C  C2628  1  0.197000  0.858000  0.329300  1
  C  C2629  1  0.303000  0.358000  0.829300  1
  C  C2630  1  0.303000  0.142000  0.170700  1
  C  C2631  1  0.803000  0.358000  0.329300  1
  C  C2632  1  0.803000  0.142000  0.670700  1
  C  C2633  1  0.736200  0.641100  0.190400  1
  C  C2634  1  0.736200  0.858900  0.809600  1
  C  C2635  1  0.236200  0.641100  0.690400  1
  C  C2636  1  0.236200  0.858900  0.309600  1
  C  C2637  1  0.263800  0.358900  0.809600  1
  C  C2638  1  0.263800  0.141100  0.190400  1
  C  C2639  1  0.763800  0.358900  0.309600  1
  C  C2640  1  0.763800  0.141100  0.690400  1
  C  C2641  1  0.672700  0.542700  0.122300  1
  C  C2642  1  0.672700  0.957300  0.877700  1
  C  C2643  1  0.172700  0.542700  0.622300  1
  C  C2644  1  0.172700  0.957300  0.377700  1
  C  C2645  1  0.327300  0.457300  0.877700  1
  C  C2646  1  0.327300  0.042700  0.122300  1
  C  C2647  1  0.827300  0.457300  0.377700  1
  C  C2648  1  0.827300  0.042700  0.622300  1
  C  C2649  1  0.625800  0.526000  0.126600  1
  C  C2650  1  0.625800  0.974000  0.873400  1
  C  C2651  1  0.125800  0.526000  0.626600  1
  C  C2652  1  0.125800  0.974000  0.373400  1
  C  C2653  1  0.374200  0.474000  0.873400  1
  C  C2654  1  0.374200  0.026000  0.126600  1
  C  C2655  1  0.874200  0.474000  0.373400  1
  C  C2656  1  0.874200  0.026000  0.626600  1
  C  C2657  1  0.621100  0.511900  0.152280  1
  C  C2658  1  0.621100  0.988100  0.847720  1
  C  C2659  1  0.121100  0.511900  0.652280  1
  C  C2660  1  0.121100  0.988100  0.347720  1
  C  C2661  1  0.378900  0.488100  0.847720  1
  C  C2662  1  0.378900  0.011900  0.152280  1
  C  C2663  1  0.878900  0.488100  0.347720  1
  C  C2664  1  0.878900  0.011900  0.652280  1
  C  C2665  1  0.600200  0.529000  0.171230  1
  C  C2666  1  0.600200  0.971000  0.828770  1
  C  C2667  1  0.100200  0.529000  0.671230  1
  C  C2668  1  0.100200  0.971000  0.328770  1
  C  C2669  1  0.399800  0.471000  0.828770  1
  C  C2670  1  0.399800  0.029000  0.171230  1
  C  C2671  1  0.899800  0.471000  0.328770  1
  C  C2672  1  0.899800  0.029000  0.671230  1
  C  C2673  1  0.595600  0.516300  0.194800  1
  C  C2674  1  0.595600  0.983700  0.805200  1
  C  C2675  1  0.095600  0.516300  0.694800  1
  C  C2676  1  0.095600  0.983700  0.305200  1
  C  C2677  1  0.404400  0.483700  0.805200  1
  C  C2678  1  0.404400  0.016300  0.194800  1
  C  C2679  1  0.904400  0.483700  0.305200  1
  C  C2680  1  0.904400  0.016300  0.694800  1
  C  C2681  1  0.613100  0.485700  0.200130  1
  C  C2682  1  0.613100  0.014300  0.799870  1
  C  C2683  1  0.113100  0.485700  0.700130  1
  C  C2684  1  0.113100  0.014300  0.299870  1
  C  C2685  1  0.386900  0.514300  0.799870  1
  C  C2686  1  0.386900  0.985700  0.200130  1
  C  C2687  1  0.886900  0.514300  0.299870  1
  C  C2688  1  0.886900  0.985700  0.700130  1
  C  C2689  1  0.634400  0.468300  0.181370  1
  C  C2690  1  0.634400  0.031700  0.818630  1
  C  C2691  1  0.134400  0.468300  0.681370  1
  C  C2692  1  0.134400  0.031700  0.318630  1
  C  C2693  1  0.365600  0.531700  0.818630  1
  C  C2694  1  0.365600  0.968300  0.181370  1
  C  C2695  1  0.865600  0.531700  0.318630  1
  C  C2696  1  0.865600  0.968300  0.681370  1
  C  C2697  1  0.637700  0.481300  0.157770  1
  C  C2698  1  0.637700  0.018700  0.842230  1
  C  C2699  1  0.137700  0.481300  0.657770  1
  C  C2700  1  0.137700  0.018700  0.342230  1
  C  C2701  1  0.362300  0.518700  0.842230  1
  C  C2702  1  0.362300  0.981300  0.157770  1
  C  C2703  1  0.862300  0.518700  0.342230  1
  C  C2704  1  0.862300  0.981300  0.657770  1
  C  C2705  1  0.644300  0.476500  0.238540  1
  C  C2706  1  0.644300  0.023500  0.761460  1
  C  C2707  1  0.144300  0.476500  0.738540  1
  C  C2708  1  0.144300  0.023500  0.261460  1
  C  C2709  1  0.355700  0.523500  0.761460  1
  C  C2710  1  0.355700  0.976500  0.238540  1
  C  C2711  1  0.855700  0.523500  0.261460  1
  C  C2712  1  0.855700  0.976500  0.738540  1
  C  C2713  1  0.637600  0.466100  0.263950  1
  C  C2714  1  0.637600  0.033900  0.736050  1
  C  C2715  1  0.137600  0.466100  0.763950  1
  C  C2716  1  0.137600  0.033900  0.236050  1
  C  C2717  1  0.362400  0.533900  0.736050  1
  C  C2718  1  0.362400  0.966100  0.263950  1
  C  C2719  1  0.862400  0.533900  0.236050  1
  C  C2720  1  0.862400  0.966100  0.763950  1
  C  C2721  1  0.671800  0.469300  0.281900  1
  C  C2722  1  0.671800  0.030700  0.718100  1
  C  C2723  1  0.171800  0.469300  0.781900  1
  C  C2724  1  0.171800  0.030700  0.218100  1
  C  C2725  1  0.328200  0.530700  0.718100  1
  C  C2726  1  0.328200  0.969300  0.281900  1
  C  C2727  1  0.828200  0.530700  0.218100  1
  C  C2728  1  0.828200  0.969300  0.781900  1
  C  C2729  1  0.662400  0.458700  0.305740  1
  C  C2730  1  0.662400  0.041300  0.694260  1
  C  C2731  1  0.162400  0.458700  0.805740  1
  C  C2732  1  0.162400  0.041300  0.194260  1
  C  C2733  1  0.337600  0.541300  0.694260  1
  C  C2734  1  0.337600  0.958700  0.305740  1
  C  C2735  1  0.837600  0.541300  0.194260  1
  C  C2736  1  0.837600  0.958700  0.805740  1
  C  C2737  1  0.620300  0.443900  0.311210  1
  C  C2738  1  0.620300  0.056100  0.688790  1
  C  C2739  1  0.120300  0.443900  0.811210  1
  C  C2740  1  0.120300  0.056100  0.188790  1
  C  C2741  1  0.379700  0.556100  0.688790  1
  C  C2742  1  0.379700  0.943900  0.311210  1
  C  C2743  1  0.879700  0.556100  0.188790  1
  C  C2744  1  0.879700  0.943900  0.811210  1
  C  C2745  1  0.587000  0.442500  0.292650  1
  C  C2746  1  0.587000  0.057500  0.707350  1
  C  C2747  1  0.087000  0.442500  0.792650  1
  C  C2748  1  0.087000  0.057500  0.207350  1
  C  C2749  1  0.413000  0.557500  0.707350  1
  C  C2750  1  0.413000  0.942500  0.292650  1
  C  C2751  1  0.913000  0.557500  0.207350  1
  C  C2752  1  0.913000  0.942500  0.792650  1
  C  C2753  1  0.617200  0.447300  0.357410  1
  C  C2754  1  0.617200  0.052700  0.642590  1
  C  C2755  1  0.117200  0.447300  0.857410  1
  C  C2756  1  0.117200  0.052700  0.142590  1
  C  C2757  1  0.382800  0.552700  0.642590  1
  C  C2758  1  0.382800  0.947300  0.357410  1
  C  C2759  1  0.882800  0.552700  0.142590  1
  C  C2760  1  0.882800  0.947300  0.857410  1
  C  C2761  1  0.611000  0.430400  0.335960  1
  C  C2762  1  0.611000  0.069600  0.664040  1
  C  C2763  1  0.111000  0.430400  0.835960  1
  C  C2764  1  0.111000  0.069600  0.164040  1
  C  C2765  1  0.389000  0.569600  0.664040  1
  C  C2766  1  0.389000  0.930400  0.335960  1
  C  C2767  1  0.889000  0.569600  0.164040  1
  C  C2768  1  0.889000  0.930400  0.835960  1
  C  C2769  1  0.602600  0.397000  0.338140  1
  C  C2770  1  0.602600  0.103000  0.661860  1
  C  C2771  1  0.102600  0.397000  0.838140  1
  C  C2772  1  0.102600  0.103000  0.161860  1
  C  C2773  1  0.397400  0.603000  0.661860  1
  C  C2774  1  0.397400  0.897000  0.338140  1
  C  C2775  1  0.897400  0.603000  0.161860  1
  C  C2776  1  0.897400  0.897000  0.838140  1
  C  C2777  1  0.603100  0.382700  0.361170  1
  C  C2778  1  0.603100  0.117300  0.638830  1
  C  C2779  1  0.103100  0.382700  0.861170  1
  C  C2780  1  0.103100  0.117300  0.138830  1
  C  C2781  1  0.396900  0.617300  0.638830  1
  C  C2782  1  0.396900  0.882700  0.361170  1
  C  C2783  1  0.896900  0.617300  0.138830  1
  C  C2784  1  0.896900  0.882700  0.861170  1
  C  C2785  1  0.610300  0.401500  0.382120  1
  C  C2786  1  0.610300  0.098500  0.617880  1
  C  C2787  1  0.110300  0.401500  0.882120  1
  C  C2788  1  0.110300  0.098500  0.117880  1
  C  C2789  1  0.389700  0.598500  0.617880  1
  C  C2790  1  0.389700  0.901500  0.382120  1
  C  C2791  1  0.889700  0.598500  0.117880  1
  C  C2792  1  0.889700  0.901500  0.882120  1
  C  C2793  1  0.614800  0.388600  0.406930  1
  C  C2794  1  0.614800  0.111400  0.593070  1
  C  C2795  1  0.114800  0.388600  0.906930  1
  C  C2796  1  0.114800  0.111400  0.093070  1
  C  C2797  1  0.385200  0.611400  0.593070  1
  C  C2798  1  0.385200  0.888600  0.406930  1
  C  C2799  1  0.885200  0.611400  0.093070  1
  C  C2800  1  0.885200  0.888600  0.906930  1
  C  C2801  1  0.630500  0.397100  0.448000  1
  C  C2802  1  0.630500  0.102900  0.552000  1
  C  C2803  1  0.130500  0.397100  0.948000  1
  C  C2804  1  0.130500  0.102900  0.052000  1
  C  C2805  1  0.369500  0.602900  0.552000  1
  C  C2806  1  0.369500  0.897100  0.448000  1
  C  C2807  1  0.869500  0.602900  0.052000  1
  C  C2808  1  0.869500  0.897100  0.948000  1
  C  C2809  1  0.598900  0.401200  0.467000  1
  C  C2810  1  0.598900  0.098800  0.533000  1
  C  C2811  1  0.098900  0.401200  0.967000  1
  C  C2812  1  0.098900  0.098800  0.033000  1
  C  C2813  1  0.401100  0.598800  0.533000  1
  C  C2814  1  0.401100  0.901200  0.467000  1
  C  C2815  1  0.901100  0.598800  0.033000  1
  C  C2816  1  0.901100  0.901200  0.967000  1
  C  C2817  1  0.609100  0.389900  0.490700  1
  C  C2818  1  0.609100  0.110100  0.509300  1
  C  C2819  1  0.109100  0.389900  0.990700  1
  C  C2820  1  0.109100  0.110100  0.009300  1
  C  C2821  1  0.390900  0.610100  0.509300  1
  C  C2822  1  0.390900  0.889900  0.490700  1
  C  C2823  1  0.890900  0.610100  0.009300  1
  C  C2824  1  0.890900  0.889900  0.990700  1
  C  C2825  1  0.650700  0.374200  0.495400  1
  C  C2826  1  0.650700  0.125800  0.504600  1
  C  C2827  1  0.150700  0.374200  0.995400  1
  C  C2828  1  0.150700  0.125800  0.004600  1
  C  C2829  1  0.349300  0.625800  0.504600  1
  C  C2830  1  0.349300  0.874200  0.495400  1
  C  C2831  1  0.849300  0.625800  0.004600  1
  C  C2832  1  0.849300  0.874200  0.995400  1
  C  C2833  1  0.681600  0.368800  0.475900  1
  C  C2834  1  0.681600  0.131200  0.524100  1
  C  C2835  1  0.181600  0.368800  0.975900  1
  C  C2836  1  0.181600  0.131200  0.024100  1
  C  C2837  1  0.318400  0.631200  0.524100  1
  C  C2838  1  0.318400  0.868800  0.475900  1
  C  C2839  1  0.818400  0.631200  0.024100  1
  C  C2840  1  0.818400  0.868800  0.975900  1
  C  C2841  1  0.671600  0.380200  0.452400  1
  C  C2842  1  0.671600  0.119800  0.547600  1
  C  C2843  1  0.171600  0.380200  0.952400  1
  C  C2844  1  0.171600  0.119800  0.047600  1
  C  C2845  1  0.328400  0.619800  0.547600  1
  C  C2846  1  0.328400  0.880200  0.452400  1
  C  C2847  1  0.828400  0.619800  0.047600  1
  C  C2848  1  0.828400  0.880200  0.952400  1
  C  C2849  1  0.662400  0.361600  0.520900  1
  C  C2850  1  0.662400  0.138400  0.479100  1
  C  C2851  1  0.162400  0.361600  0.020900  1
  C  C2852  1  0.162400  0.138400  0.979100  1
  C  C2853  1  0.337600  0.638400  0.479100  1
  C  C2854  1  0.337600  0.861600  0.520900  1
  C  C2855  1  0.837600  0.638400  0.979100  1
  C  C2856  1  0.837600  0.861600  0.020900  1
  C  C2857  1  0.645300  0.326300  0.523000  1
  C  C2858  1  0.645300  0.173700  0.477000  1
  C  C2859  1  0.145300  0.326300  0.023000  1
  C  C2860  1  0.145300  0.173700  0.977000  1
  C  C2861  1  0.354700  0.673700  0.477000  1
  C  C2862  1  0.354700  0.826300  0.523000  1
  C  C2863  1  0.854700  0.673700  0.977000  1
  C  C2864  1  0.854700  0.826300  0.023000  1
  C  C2865  1  0.568900  0.337800  0.542900  1
  C  C2866  1  0.568900  0.162200  0.457100  1
  C  C2867  1  0.068900  0.337800  0.042900  1
  C  C2868  1  0.068900  0.162200  0.957100  1
  C  C2869  1  0.431100  0.662200  0.457100  1
  C  C2870  1  0.431100  0.837800  0.542900  1
  C  C2871  1  0.931100  0.662200  0.957100  1
  C  C2872  1  0.931100  0.837800  0.042900  1
  C  C2873  1  0.517400  0.337100  0.536300  1
  C  C2874  1  0.517400  0.162900  0.463700  1
  C  C2875  1  0.017400  0.337100  0.036300  1
  C  C2876  1  0.017400  0.162900  0.963700  1
  C  C2877  1  0.482600  0.662900  0.463700  1
  C  C2878  1  0.482600  0.837100  0.536300  1
  C  C2879  1  0.982600  0.662900  0.963700  1
  C  C2880  1  0.982600  0.837100  0.036300  1
  C  C2881  1  0.515300  0.321000  0.510500  1
  C  C2882  1  0.515300  0.179000  0.489500  1
  C  C2883  1  0.015300  0.321000  0.010500  1
  C  C2884  1  0.015300  0.179000  0.989500  1
  C  C2885  1  0.484700  0.679000  0.489500  1
  C  C2886  1  0.484700  0.821000  0.510500  1
  C  C2887  1  0.984700  0.679000  0.989500  1
  C  C2888  1  0.984700  0.821000  0.010500  1
  C  C2889  1  0.566000  0.314100  0.504100  1
  C  C2890  1  0.566000  0.185900  0.495900  1
  C  C2891  1  0.066000  0.314100  0.004100  1
  C  C2892  1  0.066000  0.185900  0.995900  1
  C  C2893  1  0.434000  0.685900  0.495900  1
  C  C2894  1  0.434000  0.814100  0.504100  1
  C  C2895  1  0.934000  0.685900  0.995900  1
  C  C2896  1  0.934000  0.814100  0.004100  1
  C  C2897  1  0.489200  0.313800  0.553200  1
  C  C2898  1  0.489200  0.186200  0.446800  1
  C  C2899  1  0.989200  0.313800  0.053200  1
  C  C2900  1  0.989200  0.186200  0.946800  1
  C  C2901  1  0.510800  0.686200  0.446800  1
  C  C2902  1  0.510800  0.813800  0.553200  1
  C  C2903  1  0.010800  0.686200  0.946800  1
  C  C2904  1  0.010800  0.813800  0.053200  1
  C  C2905  1  0.517200  0.283000  0.554100  1
  C  C2906  1  0.517200  0.217000  0.445900  1
  C  C2907  1  0.017200  0.283000  0.054100  1
  C  C2908  1  0.017200  0.217000  0.945900  1
  C  C2909  1  0.482800  0.717000  0.445900  1
  C  C2910  1  0.482800  0.783000  0.554100  1
  C  C2911  1  0.982800  0.717000  0.945900  1
  C  C2912  1  0.982800  0.783000  0.054100  1
  C  C2913  1  0.514600  0.268800  0.532100  1
  C  C2914  1  0.514600  0.231200  0.467900  1
  C  C2915  1  0.014600  0.268800  0.032100  1
  C  C2916  1  0.014600  0.231200  0.967900  1
  C  C2917  1  0.485400  0.731200  0.467900  1
  C  C2918  1  0.485400  0.768800  0.532100  1
  C  C2919  1  0.985400  0.731200  0.967900  1
  C  C2920  1  0.985400  0.768800  0.032100  1
  C  C2921  1  0.485200  0.290100  0.515500  1
  C  C2922  1  0.485200  0.209900  0.484500  1
  C  C2923  1  0.985200  0.290100  0.015500  1
  C  C2924  1  0.985200  0.209900  0.984500  1
  C  C2925  1  0.514800  0.709900  0.484500  1
  C  C2926  1  0.514800  0.790100  0.515500  1
  C  C2927  1  0.014800  0.709900  0.984500  1
  C  C2928  1  0.014800  0.790100  0.015500  1
  C  C2929  1  0.450800  0.303900  0.534600  1
  C  C2930  1  0.450800  0.196100  0.465400  1
  C  C2931  1  0.950800  0.303900  0.034600  1
  C  C2932  1  0.950800  0.196100  0.965400  1
  C  C2933  1  0.549200  0.696100  0.465400  1
  C  C2934  1  0.549200  0.803900  0.534600  1
  C  C2935  1  0.049200  0.696100  0.965400  1
  C  C2936  1  0.049200  0.803900  0.034600  1
  C  C2937  1  0.460400  0.751500  0.214500  1
  C  C2938  1  0.460400  0.748500  0.785500  1
  C  C2939  1  0.960400  0.751500  0.714500  1
  C  C2940  1  0.960400  0.748500  0.285500  1
  C  C2941  1  0.539600  0.248500  0.785500  1
  C  C2942  1  0.539600  0.251500  0.214500  1
  C  C2943  1  0.039600  0.248500  0.285500  1
  C  C2944  1  0.039600  0.251500  0.714500  1
  C  C2945  1  0.421500  0.766800  0.199400  1
  C  C2946  1  0.421500  0.733200  0.800600  1
  C  C2947  1  0.921500  0.766800  0.699400  1
  C  C2948  1  0.921500  0.733200  0.300600  1
  C  C2949  1  0.578500  0.233200  0.800600  1
  C  C2950  1  0.578500  0.266800  0.199400  1
  C  C2951  1  0.078500  0.233200  0.300600  1
  C  C2952  1  0.078500  0.266800  0.699400  1
  C  C2953  1  0.435700  0.802600  0.197200  1
  C  C2954  1  0.435700  0.697400  0.802800  1
  C  C2955  1  0.935700  0.802600  0.697200  1
  C  C2956  1  0.935700  0.697400  0.302800  1
  C  C2957  1  0.564300  0.197400  0.802800  1
  C  C2958  1  0.564300  0.302600  0.197200  1
  C  C2959  1  0.064300  0.197400  0.302800  1
  C  C2960  1  0.064300  0.302600  0.697200  1
  C  C2961  1  0.480100  0.805600  0.212100  1
  C  C2962  1  0.480100  0.694400  0.787900  1
  C  C2963  1  0.980100  0.805600  0.712100  1
  C  C2964  1  0.980100  0.694400  0.287900  1
  C  C2965  1  0.519900  0.194400  0.787900  1
  C  C2966  1  0.519900  0.305600  0.212100  1
  C  C2967  1  0.019900  0.194400  0.287900  1
  C  C2968  1  0.019900  0.305600  0.712100  1
  C  C2969  1  0.423200  0.754700  0.171800  1
  C  C2970  1  0.423200  0.745300  0.828200  1
  C  C2971  1  0.923200  0.754700  0.671800  1
  C  C2972  1  0.923200  0.745300  0.328200  1
  C  C2973  1  0.576800  0.245300  0.828200  1
  C  C2974  1  0.576800  0.254700  0.171800  1
  C  C2975  1  0.076800  0.245300  0.328200  1
  C  C2976  1  0.076800  0.254700  0.671800  1
  C  C2977  1  0.474000  0.755900  0.164000  1
  C  C2978  1  0.474000  0.744100  0.836000  1
  C  C2979  1  0.974000  0.755900  0.664000  1
  C  C2980  1  0.974000  0.744100  0.336000  1
  C  C2981  1  0.526000  0.244100  0.836000  1
  C  C2982  1  0.526000  0.255900  0.164000  1
  C  C2983  1  0.026000  0.244100  0.336000  1
  C  C2984  1  0.026000  0.255900  0.664000  1
  C  C2985  1  0.485900  0.786900  0.161700  1
  C  C2986  1  0.485900  0.713100  0.838300  1
  C  C2987  1  0.985900  0.786900  0.661700  1
  C  C2988  1  0.985900  0.713100  0.338300  1
  C  C2989  1  0.514100  0.213100  0.838300  1
  C  C2990  1  0.514100  0.286900  0.161700  1
  C  C2991  1  0.014100  0.213100  0.338300  1
  C  C2992  1  0.014100  0.286900  0.661700  1
  C  C2993  1  0.443600  0.807100  0.168500  1
  C  C2994  1  0.443600  0.692900  0.831500  1
  C  C2995  1  0.943600  0.807100  0.668500  1
  C  C2996  1  0.943600  0.692900  0.331500  1
  C  C2997  1  0.556400  0.192900  0.831500  1
  C  C2998  1  0.556400  0.307100  0.168500  1
  C  C2999  1  0.056400  0.192900  0.331500  1
  C  C3000  1  0.056400  0.307100  0.668500  1
  C  C3001  1  0.404300  0.785100  0.158600  1
  C  C3002  1  0.404300  0.714900  0.841400  1
  C  C3003  1  0.904300  0.785100  0.658600  1
  C  C3004  1  0.904300  0.714900  0.341400  1
  C  C3005  1  0.595700  0.214900  0.841400  1
  C  C3006  1  0.595700  0.285100  0.158600  1
  C  C3007  1  0.095700  0.214900  0.341400  1
  C  C3008  1  0.095700  0.285100  0.658600  1
  C  C3009  1  0.538200  0.770200  0.232100  1
  C  C3010  1  0.538200  0.729800  0.767900  1
  C  C3011  1  0.038200  0.770200  0.732100  1
  C  C3012  1  0.038200  0.729800  0.267900  1
  C  C3013  1  0.461800  0.229800  0.767900  1
  C  C3014  1  0.461800  0.270200  0.232100  1
  C  C3015  1  0.961800  0.229800  0.267900  1
  C  C3016  1  0.961800  0.270200  0.732100  1
  C  C3017  1  0.538300  0.774500  0.260100  1
  C  C3018  1  0.538300  0.725500  0.739900  1
  C  C3019  1  0.038300  0.774500  0.760100  1
  C  C3020  1  0.038300  0.725500  0.239900  1
  C  C3021  1  0.461700  0.225500  0.739900  1
  C  C3022  1  0.461700  0.274500  0.260100  1
  C  C3023  1  0.961700  0.225500  0.239900  1
  C  C3024  1  0.961700  0.274500  0.760100  1
  C  C3025  1  0.518400  0.745600  0.273500  1
  C  C3026  1  0.518400  0.754400  0.726500  1
  C  C3027  1  0.018400  0.745600  0.773500  1
  C  C3028  1  0.018400  0.754400  0.226500  1
  C  C3029  1  0.481600  0.254400  0.726500  1
  C  C3030  1  0.481600  0.245600  0.273500  1
  C  C3031  1  0.981600  0.254400  0.226500  1
  C  C3032  1  0.981600  0.245600  0.773500  1
  C  C3033  1  0.473700  0.746600  0.283200  1
  C  C3034  1  0.473700  0.753400  0.716800  1
  C  C3035  1  0.973700  0.746600  0.783200  1
  C  C3036  1  0.973700  0.753400  0.216800  1
  C  C3037  1  0.526300  0.253400  0.716800  1
  C  C3038  1  0.526300  0.246600  0.283200  1
  C  C3039  1  0.026300  0.253400  0.216800  1
  C  C3040  1  0.026300  0.246600  0.783200  1
  C  C3041  1  0.453800  0.719900  0.294600  1
  C  C3042  1  0.453800  0.780100  0.705400  1
  C  C3043  1  0.953800  0.719900  0.794600  1
  C  C3044  1  0.953800  0.780100  0.205400  1
  C  C3045  1  0.546200  0.280100  0.705400  1
  C  C3046  1  0.546200  0.219900  0.294600  1
  C  C3047  1  0.046200  0.280100  0.205400  1
  C  C3048  1  0.046200  0.219900  0.794600  1
  C  C3049  1  0.479200  0.691300  0.296500  1
  C  C3050  1  0.479200  0.808700  0.703500  1
  C  C3051  1  0.979200  0.691300  0.796500  1
  C  C3052  1  0.979200  0.808700  0.203500  1
  C  C3053  1  0.520800  0.308700  0.703500  1
  C  C3054  1  0.520800  0.191300  0.296500  1
  C  C3055  1  0.020800  0.308700  0.203500  1
  C  C3056  1  0.020800  0.191300  0.796500  1
  C  C3057  1  0.524300  0.690300  0.287000  1
  C  C3058  1  0.524300  0.809700  0.713000  1
  C  C3059  1  0.024300  0.690300  0.787000  1
  C  C3060  1  0.024300  0.809700  0.213000  1
  C  C3061  1  0.475700  0.309700  0.713000  1
  C  C3062  1  0.475700  0.190300  0.287000  1
  C  C3063  1  0.975700  0.309700  0.213000  1
  C  C3064  1  0.975700  0.190300  0.787000  1
  C  C3065  1  0.543700  0.717200  0.275800  1
  C  C3066  1  0.543700  0.782800  0.724200  1
  C  C3067  1  0.043700  0.717200  0.775800  1
  C  C3068  1  0.043700  0.782800  0.224200  1
  C  C3069  1  0.456300  0.282800  0.724200  1
  C  C3070  1  0.456300  0.217200  0.275800  1
  C  C3071  1  0.956300  0.282800  0.224200  1
  C  C3072  1  0.956300  0.217200  0.775800  1
  C  C3073  1  0.422200  0.651300  0.298100  1
  C  C3074  1  0.422200  0.848700  0.701900  1
  C  C3075  1  0.922200  0.651300  0.798100  1
  C  C3076  1  0.922200  0.848700  0.201900  1
  C  C3077  1  0.577800  0.348700  0.701900  1
  C  C3078  1  0.577800  0.151300  0.298100  1
  C  C3079  1  0.077800  0.348700  0.201900  1
  C  C3080  1  0.077800  0.151300  0.798100  1
  C  C3081  1  0.403500  0.623100  0.310840  1
  C  C3082  1  0.403500  0.876900  0.689160  1
  C  C3083  1  0.903500  0.623100  0.810840  1
  C  C3084  1  0.903500  0.876900  0.189160  1
  C  C3085  1  0.596500  0.376900  0.689160  1
  C  C3086  1  0.596500  0.123100  0.310840  1
  C  C3087  1  0.096500  0.376900  0.189160  1
  C  C3088  1  0.096500  0.123100  0.810840  1
  C  C3089  1  0.364400  0.606200  0.302900  1
  C  C3090  1  0.364400  0.893800  0.697100  1
  C  C3091  1  0.864400  0.606200  0.802900  1
  C  C3092  1  0.864400  0.893800  0.197100  1
  C  C3093  1  0.635600  0.393800  0.697100  1
  C  C3094  1  0.635600  0.106200  0.302900  1
  C  C3095  1  0.135600  0.393800  0.197100  1
  C  C3096  1  0.135600  0.106200  0.802900  1
  C  C3097  1  0.348600  0.579800  0.316500  1
  C  C3098  1  0.348600  0.920200  0.683500  1
  C  C3099  1  0.848600  0.579800  0.816500  1
  C  C3100  1  0.848600  0.920200  0.183500  1
  C  C3101  1  0.651400  0.420200  0.683500  1
  C  C3102  1  0.651400  0.079800  0.316500  1
  C  C3103  1  0.151400  0.420200  0.183500  1
  C  C3104  1  0.151400  0.079800  0.816500  1
  C  C3105  1  0.369600  0.572100  0.338400  1
  C  C3106  1  0.369600  0.927900  0.661600  1
  C  C3107  1  0.869600  0.572100  0.838400  1
  C  C3108  1  0.869600  0.927900  0.161600  1
  C  C3109  1  0.630400  0.427900  0.661600  1
  C  C3110  1  0.630400  0.072100  0.338400  1
  C  C3111  1  0.130400  0.427900  0.161600  1
  C  C3112  1  0.130400  0.072100  0.838400  1
  C  C3113  1  0.410000  0.588700  0.344700  1
  C  C3114  1  0.410000  0.911300  0.655300  1
  C  C3115  1  0.910000  0.588700  0.844700  1
  C  C3116  1  0.910000  0.911300  0.155300  1
  C  C3117  1  0.590000  0.411300  0.655300  1
  C  C3118  1  0.590000  0.088700  0.344700  1
  C  C3119  1  0.090000  0.411300  0.155300  1
  C  C3120  1  0.090000  0.088700  0.844700  1
  C  C3121  1  0.343000  0.516400  0.348600  1
  C  C3122  1  0.343000  0.983600  0.651400  1
  C  C3123  1  0.843000  0.516400  0.848600  1
  C  C3124  1  0.843000  0.983600  0.151400  1
  C  C3125  1  0.657000  0.483600  0.651400  1
  C  C3126  1  0.657000  0.016400  0.348600  1
  C  C3127  1  0.157000  0.483600  0.151400  1
  C  C3128  1  0.157000  0.016400  0.848600  1
  C  C3129  1  0.353600  0.547300  0.355500  1
  C  C3130  1  0.353600  0.952700  0.644500  1
  C  C3131  1  0.853600  0.547300  0.855500  1
  C  C3132  1  0.853600  0.952700  0.144500  1
  C  C3133  1  0.646400  0.452700  0.644500  1
  C  C3134  1  0.646400  0.047300  0.355500  1
  C  C3135  1  0.146400  0.452700  0.144500  1
  C  C3136  1  0.146400  0.047300  0.855500  1
  C  C3137  1  0.343100  0.555900  0.380000  1
  C  C3138  1  0.343100  0.944100  0.620000  1
  C  C3139  1  0.843100  0.555900  0.880000  1
  C  C3140  1  0.843100  0.944100  0.120000  1
  C  C3141  1  0.656900  0.444100  0.620000  1
  C  C3142  1  0.656900  0.055900  0.380000  1
  C  C3143  1  0.156900  0.444100  0.120000  1
  C  C3144  1  0.156900  0.055900  0.880000  1
  C  C3145  1  0.323200  0.533400  0.395600  1
  C  C3146  1  0.323200  0.966600  0.604400  1
  C  C3147  1  0.823200  0.533400  0.895600  1
  C  C3148  1  0.823200  0.966600  0.104400  1
  C  C3149  1  0.676800  0.466600  0.604400  1
  C  C3150  1  0.676800  0.033400  0.395600  1
  C  C3151  1  0.176800  0.466600  0.104400  1
  C  C3152  1  0.176800  0.033400  0.895600  1
  C  C3153  1  0.313400  0.502500  0.387200  1
  C  C3154  1  0.313400  0.997500  0.612800  1
  C  C3155  1  0.813400  0.502500  0.887200  1
  C  C3156  1  0.813400  0.997500  0.112800  1
  C  C3157  1  0.686600  0.497500  0.612800  1
  C  C3158  1  0.686600  0.002500  0.387200  1
  C  C3159  1  0.186600  0.497500  0.112800  1
  C  C3160  1  0.186600  0.002500  0.887200  1
  C  C3161  1  0.288400  0.478600  0.401800  1
  C  C3162  1  0.288400  0.021400  0.598200  1
  C  C3163  1  0.788400  0.478600  0.901800  1
  C  C3164  1  0.788400  0.021400  0.098200  1
  C  C3165  1  0.711600  0.521400  0.598200  1
  C  C3166  1  0.711600  0.978600  0.401800  1
  C  C3167  1  0.211600  0.521400  0.098200  1
  C  C3168  1  0.211600  0.978600  0.901800  1
  C  C3169  1  0.253300  0.429100  0.402800  1
  C  C3170  1  0.253300  0.070900  0.597200  1
  C  C3171  1  0.753300  0.429100  0.902800  1
  C  C3172  1  0.753300  0.070900  0.097200  1
  C  C3173  1  0.746700  0.570900  0.597200  1
  C  C3174  1  0.746700  0.929100  0.402800  1
  C  C3175  1  0.246700  0.570900  0.097200  1
  C  C3176  1  0.246700  0.929100  0.902800  1
  C  C3177  1  0.207700  0.437000  0.409400  1
  C  C3178  1  0.207700  0.063000  0.590600  1
  C  C3179  1  0.707700  0.437000  0.909400  1
  C  C3180  1  0.707700  0.063000  0.090600  1
  C  C3181  1  0.792300  0.563000  0.590600  1
  C  C3182  1  0.792300  0.937000  0.409400  1
  C  C3183  1  0.292300  0.563000  0.090600  1
  C  C3184  1  0.292300  0.937000  0.909400  1
  C  C3185  1  0.180600  0.414600  0.422000  1
  C  C3186  1  0.180600  0.085400  0.578000  1
  C  C3187  1  0.680600  0.414600  0.922000  1
  C  C3188  1  0.680600  0.085400  0.078000  1
  C  C3189  1  0.819400  0.585400  0.578000  1
  C  C3190  1  0.819400  0.914600  0.422000  1
  C  C3191  1  0.319400  0.585400  0.078000  1
  C  C3192  1  0.319400  0.914600  0.922000  1
  C  C3193  1  0.199300  0.384800  0.428200  1
  C  C3194  1  0.199300  0.115200  0.571800  1
  C  C3195  1  0.699300  0.384800  0.928200  1
  C  C3196  1  0.699300  0.115200  0.071800  1
  C  C3197  1  0.800700  0.615200  0.571800  1
  C  C3198  1  0.800700  0.884800  0.428200  1
  C  C3199  1  0.300700  0.615200  0.071800  1
  C  C3200  1  0.300700  0.884800  0.928200  1
  C  C3201  1  0.244700  0.376800  0.421800  1
  C  C3202  1  0.244700  0.123200  0.578200  1
  C  C3203  1  0.744700  0.376800  0.921800  1
  C  C3204  1  0.744700  0.123200  0.078200  1
  C  C3205  1  0.755300  0.623200  0.578200  1
  C  C3206  1  0.755300  0.876800  0.421800  1
  C  C3207  1  0.255300  0.623200  0.078200  1
  C  C3208  1  0.255300  0.876800  0.921800  1
  C  C3209  1  0.271900  0.399300  0.408900  1
  C  C3210  1  0.271900  0.100700  0.591100  1
  C  C3211  1  0.771900  0.399300  0.908900  1
  C  C3212  1  0.771900  0.100700  0.091100  1
  C  C3213  1  0.728100  0.600700  0.591100  1
  C  C3214  1  0.728100  0.899300  0.408900  1
  C  C3215  1  0.228100  0.600700  0.091100  1
  C  C3216  1  0.228100  0.899300  0.908900  1
  C  C3217  1  0.168800  0.362000  0.443000  1
  C  C3218  1  0.168800  0.138000  0.557000  1
  C  C3219  1  0.668800  0.362000  0.943000  1
  C  C3220  1  0.668800  0.138000  0.057000  1
  C  C3221  1  0.831200  0.638000  0.557000  1
  C  C3222  1  0.831200  0.862000  0.443000  1
  C  C3223  1  0.331200  0.638000  0.057000  1
  C  C3224  1  0.331200  0.862000  0.943000  1
  C  C3225  1  0.195800  0.348900  0.465500  1
  C  C3226  1  0.195800  0.151100  0.534500  1
  C  C3227  1  0.695800  0.348900  0.965500  1
  C  C3228  1  0.695800  0.151100  0.034500  1
  C  C3229  1  0.804200  0.651100  0.534500  1
  C  C3230  1  0.804200  0.848900  0.465500  1
  C  C3231  1  0.304200  0.651100  0.034500  1
  C  C3232  1  0.304200  0.848900  0.965500  1
  C  C3233  1  0.198100  0.287100  0.466100  1
  C  C3234  1  0.198100  0.212900  0.533900  1
  C  C3235  1  0.698100  0.287100  0.966100  1
  C  C3236  1  0.698100  0.212900  0.033900  1
  C  C3237  1  0.801900  0.712900  0.533900  1
  C  C3238  1  0.801900  0.787100  0.466100  1
  C  C3239  1  0.301900  0.712900  0.033900  1
  C  C3240  1  0.301900  0.787100  0.966100  1
  C  C3241  1  0.162400  0.260200  0.468300  1
  C  C3242  1  0.162400  0.239800  0.531700  1
  C  C3243  1  0.662400  0.260200  0.968300  1
  C  C3244  1  0.662400  0.239800  0.031700  1
  C  C3245  1  0.837600  0.739800  0.531700  1
  C  C3246  1  0.837600  0.760200  0.468300  1
  C  C3247  1  0.337600  0.739800  0.031700  1
  C  C3248  1  0.337600  0.760200  0.968300  1
  C  C3249  1  0.116100  0.278300  0.475700  1
  C  C3250  1  0.116100  0.221700  0.524300  1
  C  C3251  1  0.616100  0.278300  0.975700  1
  C  C3252  1  0.616100  0.221700  0.024300  1
  C  C3253  1  0.883900  0.721700  0.524300  1
  C  C3254  1  0.883900  0.778300  0.475700  1
  C  C3255  1  0.383900  0.721700  0.024300  1
  C  C3256  1  0.383900  0.778300  0.975700  1
  C  C3257  1  0.128000  0.313500  0.474400  1
  C  C3258  1  0.128000  0.186500  0.525600  1
  C  C3259  1  0.628000  0.313500  0.974400  1
  C  C3260  1  0.628000  0.186500  0.025600  1
  C  C3261  1  0.872000  0.686500  0.525600  1
  C  C3262  1  0.872000  0.813500  0.474400  1
  C  C3263  1  0.372000  0.686500  0.025600  1
  C  C3264  1  0.372000  0.813500  0.974400  1
  C  C3265  1  0.147400  0.243400  0.443600  1
  C  C3266  1  0.147400  0.256600  0.556400  1
  C  C3267  1  0.647400  0.243400  0.943600  1
  C  C3268  1  0.647400  0.256600  0.056400  1
  C  C3269  1  0.852600  0.756600  0.556400  1
  C  C3270  1  0.852600  0.743400  0.443600  1
  C  C3271  1  0.352600  0.756600  0.056400  1
  C  C3272  1  0.352600  0.743400  0.943600  1
  C  C3273  1  0.124000  0.265800  0.425500  1
  C  C3274  1  0.124000  0.234200  0.574500  1
  C  C3275  1  0.624000  0.265800  0.925500  1
  C  C3276  1  0.624000  0.234200  0.074500  1
  C  C3277  1  0.876000  0.734200  0.574500  1
  C  C3278  1  0.876000  0.765800  0.425500  1
  C  C3279  1  0.376000  0.734200  0.074500  1
  C  C3280  1  0.376000  0.765800  0.925500  1
  C  C3281  1  0.084000  0.276300  0.434100  1
  C  C3282  1  0.084000  0.223700  0.565900  1
  C  C3283  1  0.584000  0.276300  0.934100  1
  C  C3284  1  0.584000  0.223700  0.065900  1
  C  C3285  1  0.916000  0.723700  0.565900  1
  C  C3286  1  0.916000  0.776300  0.434100  1
  C  C3287  1  0.416000  0.723700  0.065900  1
  C  C3288  1  0.416000  0.776300  0.934100  1
  C  C3289  1  0.079100  0.261700  0.459700  1
  C  C3290  1  0.079100  0.238300  0.540300  1
  C  C3291  1  0.579100  0.261700  0.959700  1
  C  C3292  1  0.579100  0.238300  0.040300  1
  C  C3293  1  0.920900  0.738300  0.540300  1
  C  C3294  1  0.920900  0.761700  0.459700  1
  C  C3295  1  0.420900  0.738300  0.040300  1
  C  C3296  1  0.420900  0.761700  0.959700  1
  C  C3297  1  0.102100  0.228300  0.454200  1
  C  C3298  1  0.102100  0.271700  0.545800  1
  C  C3299  1  0.602100  0.228300  0.954200  1
  C  C3300  1  0.602100  0.271700  0.045800  1
  C  C3301  1  0.897900  0.771700  0.545800  1
  C  C3302  1  0.897900  0.728300  0.454200  1
  C  C3303  1  0.397900  0.771700  0.045800  1
  C  C3304  1  0.397900  0.728300  0.954200  1
  C  C3305  1  0.023700  0.355700  0.273600  1
  C  C3306  1  0.023700  0.144300  0.726400  1
  C  C3307  1  0.523700  0.355700  0.773600  1
  C  C3308  1  0.523700  0.144300  0.226400  1
  C  C3309  1  0.976300  0.644300  0.726400  1
  C  C3310  1  0.976300  0.855700  0.273600  1
  C  C3311  1  0.476300  0.644300  0.226400  1
  C  C3312  1  0.476300  0.855700  0.773600  1
  C  C3313  1  0.977200  0.338200  0.274500  1
  C  C3314  1  0.977200  0.161800  0.725500  1
  C  C3315  1  0.477200  0.338200  0.774500  1
  C  C3316  1  0.477200  0.161800  0.225500  1
  C  C3317  1  0.022800  0.661800  0.725500  1
  C  C3318  1  0.022800  0.838200  0.274500  1
  C  C3319  1  0.522800  0.661800  0.225500  1
  C  C3320  1  0.522800  0.838200  0.774500  1
  C  C3321  1  0.970500  0.329300  0.301800  1
  C  C3322  1  0.970500  0.170700  0.698200  1
  C  C3323  1  0.470500  0.329300  0.801800  1
  C  C3324  1  0.470500  0.170700  0.198200  1
  C  C3325  1  0.029500  0.670700  0.698200  1
  C  C3326  1  0.029500  0.829300  0.301800  1
  C  C3327  1  0.529500  0.670700  0.198200  1
  C  C3328  1  0.529500  0.829300  0.801800  1
  C  C3329  1  0.014100  0.341700  0.314660  1
  C  C3330  1  0.014100  0.158300  0.685340  1
  C  C3331  1  0.514100  0.341700  0.814660  1
  C  C3332  1  0.514100  0.158300  0.185340  1
  C  C3333  1  0.985900  0.658300  0.685340  1
  C  C3334  1  0.985900  0.841700  0.314660  1
  C  C3335  1  0.485900  0.658300  0.185340  1
  C  C3336  1  0.485900  0.841700  0.814660  1
  C  C3337  1  0.933800  0.360000  0.268700  1
  C  C3338  1  0.933800  0.140000  0.731300  1
  C  C3339  1  0.433800  0.360000  0.768700  1
  C  C3340  1  0.433800  0.140000  0.231300  1
  C  C3341  1  0.066200  0.640000  0.731300  1
  C  C3342  1  0.066200  0.860000  0.268700  1
  C  C3343  1  0.566200  0.640000  0.231300  1
  C  C3344  1  0.566200  0.860000  0.768700  1
  C  C3345  1  0.939700  0.390700  0.283900  1
  C  C3346  1  0.939700  0.109300  0.716100  1
  C  C3347  1  0.439700  0.390700  0.783900  1
  C  C3348  1  0.439700  0.109300  0.216100  1
  C  C3349  1  0.060300  0.609300  0.716100  1
  C  C3350  1  0.060300  0.890700  0.283900  1
  C  C3351  1  0.560300  0.609300  0.216100  1
  C  C3352  1  0.560300  0.890700  0.783900  1
  C  C3353  1  0.934600  0.383300  0.307400  1
  C  C3354  1  0.934600  0.116700  0.692600  1
  C  C3355  1  0.434600  0.383300  0.807400  1
  C  C3356  1  0.434600  0.116700  0.192600  1
  C  C3357  1  0.065400  0.616700  0.692600  1
  C  C3358  1  0.065400  0.883300  0.307400  1
  C  C3359  1  0.565400  0.616700  0.192600  1
  C  C3360  1  0.565400  0.883300  0.807400  1
  C  C3361  1  0.925000  0.347400  0.309100  1
  C  C3362  1  0.925000  0.152600  0.690900  1
  C  C3363  1  0.425000  0.347400  0.809100  1
  C  C3364  1  0.425000  0.152600  0.190900  1
  C  C3365  1  0.075000  0.652600  0.690900  1
  C  C3366  1  0.075000  0.847400  0.309100  1
  C  C3367  1  0.575000  0.652600  0.190900  1
  C  C3368  1  0.575000  0.847400  0.809100  1
  C  C3369  1  0.897200  0.342600  0.284900  1
  C  C3370  1  0.897200  0.157400  0.715100  1
  C  C3371  1  0.397200  0.342600  0.784900  1
  C  C3372  1  0.397200  0.157400  0.215100  1
  C  C3373  1  0.102800  0.657400  0.715100  1
  C  C3374  1  0.102800  0.842600  0.284900  1
  C  C3375  1  0.602800  0.657400  0.215100  1
  C  C3376  1  0.602800  0.842600  0.784900  1
  C  C3377  1  0.086200  0.372700  0.303600  1
  C  C3378  1  0.086200  0.127300  0.696400  1
  C  C3379  1  0.586200  0.372700  0.803600  1
  C  C3380  1  0.586200  0.127300  0.196400  1
  C  C3381  1  0.913800  0.627300  0.696400  1
  C  C3382  1  0.913800  0.872700  0.303600  1
  C  C3383  1  0.413800  0.627300  0.196400  1
  C  C3384  1  0.413800  0.872700  0.803600  1
  C  C3385  1  0.124700  0.347300  0.306300  1
  C  C3386  1  0.124700  0.152700  0.693700  1
  C  C3387  1  0.624700  0.347300  0.806300  1
  C  C3388  1  0.624700  0.152700  0.193700  1
  C  C3389  1  0.875300  0.652700  0.693700  1
  C  C3390  1  0.875300  0.847300  0.306300  1
  C  C3391  1  0.375300  0.652700  0.193700  1
  C  C3392  1  0.375300  0.847300  0.806300  1
  C  C3393  1  0.167400  0.363100  0.317700  1
  C  C3394  1  0.167400  0.136900  0.682300  1
  C  C3395  1  0.667400  0.363100  0.817700  1
  C  C3396  1  0.667400  0.136900  0.182300  1
  C  C3397  1  0.832600  0.636900  0.682300  1
  C  C3398  1  0.832600  0.863100  0.317700  1
  C  C3399  1  0.332600  0.636900  0.182300  1
  C  C3400  1  0.332600  0.863100  0.817700  1
  C  C3401  1  0.171000  0.367800  0.343000  1
  C  C3402  1  0.171000  0.132200  0.657000  1
  C  C3403  1  0.671000  0.367800  0.843000  1
  C  C3404  1  0.671000  0.132200  0.157000  1
  C  C3405  1  0.829000  0.632200  0.657000  1
  C  C3406  1  0.829000  0.867800  0.343000  1
  C  C3407  1  0.329000  0.632200  0.157000  1
  C  C3408  1  0.329000  0.867800  0.843000  1
  C  C3409  1  0.210700  0.381400  0.353500  1
  C  C3410  1  0.210700  0.118600  0.646500  1
  C  C3411  1  0.710700  0.381400  0.853500  1
  C  C3412  1  0.710700  0.118600  0.146500  1
  C  C3413  1  0.789300  0.618600  0.646500  1
  C  C3414  1  0.789300  0.881400  0.353500  1
  C  C3415  1  0.289300  0.618600  0.146500  1
  C  C3416  1  0.289300  0.881400  0.853500  1
  C  C3417  1  0.248100  0.390400  0.338500  1
  C  C3418  1  0.248100  0.109600  0.661500  1
  C  C3419  1  0.748100  0.390400  0.838500  1
  C  C3420  1  0.748100  0.109600  0.161500  1
  C  C3421  1  0.751900  0.609600  0.661500  1
  C  C3422  1  0.751900  0.890400  0.338500  1
  C  C3423  1  0.251900  0.609600  0.161500  1
  C  C3424  1  0.251900  0.890400  0.838500  1
  C  C3425  1  0.244100  0.386300  0.313400  1
  C  C3426  1  0.244100  0.113700  0.686600  1
  C  C3427  1  0.744100  0.386300  0.813400  1
  C  C3428  1  0.744100  0.113700  0.186600  1
  C  C3429  1  0.755900  0.613700  0.686600  1
  C  C3430  1  0.755900  0.886300  0.313400  1
  C  C3431  1  0.255900  0.613700  0.186600  1
  C  C3432  1  0.255900  0.886300  0.813400  1
  C  C3433  1  0.204200  0.373000  0.302900  1
  C  C3434  1  0.204200  0.127000  0.697100  1
  C  C3435  1  0.704200  0.373000  0.802900  1
  C  C3436  1  0.704200  0.127000  0.197100  1
  C  C3437  1  0.795800  0.627000  0.697100  1
  C  C3438  1  0.795800  0.873000  0.302900  1
  C  C3439  1  0.295800  0.627000  0.197100  1
  C  C3440  1  0.295800  0.873000  0.802900  1
  C  C3441  1  0.322700  0.382800  0.353400  1
  C  C3442  1  0.322700  0.117200  0.646600  1
  C  C3443  1  0.822700  0.382800  0.853400  1
  C  C3444  1  0.822700  0.117200  0.146600  1
  C  C3445  1  0.677300  0.617200  0.646600  1
  C  C3446  1  0.677300  0.882800  0.353400  1
  C  C3447  1  0.177300  0.617200  0.146600  1
  C  C3448  1  0.177300  0.882800  0.853400  1
  C  C3449  1  0.364200  0.396400  0.364900  1
  C  C3450  1  0.364200  0.103600  0.635100  1
  C  C3451  1  0.864200  0.396400  0.864900  1
  C  C3452  1  0.864200  0.103600  0.135100  1
  C  C3453  1  0.635800  0.603600  0.635100  1
  C  C3454  1  0.635800  0.896400  0.364900  1
  C  C3455  1  0.135800  0.603600  0.135100  1
  C  C3456  1  0.135800  0.896400  0.864900  1
  C  C3457  1  0.403100  0.378500  0.371500  1
  C  C3458  1  0.403100  0.121500  0.628500  1
  C  C3459  1  0.903100  0.378500  0.871500  1
  C  C3460  1  0.903100  0.121500  0.128500  1
  C  C3461  1  0.596900  0.621500  0.628500  1
  C  C3462  1  0.596900  0.878500  0.371500  1
  C  C3463  1  0.096900  0.621500  0.128500  1
  C  C3464  1  0.096900  0.878500  0.871500  1
  C  C3465  1  0.439100  0.393400  0.384400  1
  C  C3466  1  0.439100  0.106600  0.615600  1
  C  C3467  1  0.939100  0.393400  0.884400  1
  C  C3468  1  0.939100  0.106600  0.115600  1
  C  C3469  1  0.560900  0.606600  0.615600  1
  C  C3470  1  0.560900  0.893400  0.384400  1
  C  C3471  1  0.060900  0.606600  0.115600  1
  C  C3472  1  0.060900  0.893400  0.884400  1
  C  C3473  1  0.435200  0.425500  0.391740  1
  C  C3474  1  0.435200  0.074500  0.608260  1
  C  C3475  1  0.935200  0.425500  0.891740  1
  C  C3476  1  0.935200  0.074500  0.108260  1
  C  C3477  1  0.564800  0.574500  0.608260  1
  C  C3478  1  0.564800  0.925500  0.391740  1
  C  C3479  1  0.064800  0.574500  0.108260  1
  C  C3480  1  0.064800  0.925500  0.891740  1
  C  C3481  1  0.396700  0.442600  0.383500  1
  C  C3482  1  0.396700  0.057400  0.616500  1
  C  C3483  1  0.896700  0.442600  0.883500  1
  C  C3484  1  0.896700  0.057400  0.116500  1
  C  C3485  1  0.603300  0.557400  0.616500  1
  C  C3486  1  0.603300  0.942600  0.383500  1
  C  C3487  1  0.103300  0.557400  0.116500  1
  C  C3488  1  0.103300  0.942600  0.883500  1
  C  C3489  1  0.516900  0.440600  0.402700  1
  C  C3490  1  0.516900  0.059400  0.597300  1
  C  C3491  1  0.016900  0.440600  0.902700  1
  C  C3492  1  0.016900  0.059400  0.097300  1
  C  C3493  1  0.483100  0.559400  0.597300  1
  C  C3494  1  0.483100  0.940600  0.402700  1
  C  C3495  1  0.983100  0.559400  0.097300  1
  C  C3496  1  0.983100  0.940600  0.902700  1
  C  C3497  1  0.469800  0.441800  0.407240  1
  C  C3498  1  0.469800  0.058200  0.592760  1
  C  C3499  1  0.969800  0.441800  0.907240  1
  C  C3500  1  0.969800  0.058200  0.092760  1
  C  C3501  1  0.530200  0.558200  0.592760  1
  C  C3502  1  0.530200  0.941800  0.407240  1
  C  C3503  1  0.030200  0.558200  0.092760  1
  C  C3504  1  0.030200  0.941800  0.907240  1
  C  C3505  1  0.455300  0.456600  0.429250  1
  C  C3506  1  0.455300  0.043400  0.570750  1
  C  C3507  1  0.955300  0.456600  0.929250  1
  C  C3508  1  0.955300  0.043400  0.070750  1
  C  C3509  1  0.544700  0.543400  0.570750  1
  C  C3510  1  0.544700  0.956600  0.429250  1
  C  C3511  1  0.044700  0.543400  0.070750  1
  C  C3512  1  0.044700  0.956600  0.929250  1
  C  C3513  1  0.488100  0.469300  0.445500  1
  C  C3514  1  0.488100  0.030700  0.554500  1
  C  C3515  1  0.988100  0.469300  0.945500  1
  C  C3516  1  0.988100  0.030700  0.054500  1
  C  C3517  1  0.511900  0.530700  0.554500  1
  C  C3518  1  0.511900  0.969300  0.445500  1
  C  C3519  1  0.011900  0.530700  0.054500  1
  C  C3520  1  0.011900  0.969300  0.945500  1
  C  C3521  1  0.535400  0.467300  0.439330  1
  C  C3522  1  0.535400  0.032700  0.560670  1
  C  C3523  1  0.035400  0.467300  0.939330  1
  C  C3524  1  0.035400  0.032700  0.060670  1
  C  C3525  1  0.464600  0.532700  0.560670  1
  C  C3526  1  0.464600  0.967300  0.439330  1
  C  C3527  1  0.964600  0.532700  0.060670  1
  C  C3528  1  0.964600  0.967300  0.939330  1
  C  C3529  1  0.573100  0.479200  0.455000  1
  C  C3530  1  0.573100  0.020800  0.545000  1
  C  C3531  1  0.073100  0.479200  0.955000  1
  C  C3532  1  0.073100  0.020800  0.045000  1
  C  C3533  1  0.426900  0.520800  0.545000  1
  C  C3534  1  0.426900  0.979200  0.455000  1
  C  C3535  1  0.926900  0.520800  0.045000  1
  C  C3536  1  0.926900  0.979200  0.955000  1
  C  C3537  1  0.651700  0.489200  0.460400  1
  C  C3538  1  0.651700  0.010800  0.539600  1
  C  C3539  1  0.151700  0.489200  0.960400  1
  C  C3540  1  0.151700  0.010800  0.039600  1
  C  C3541  1  0.348300  0.510800  0.539600  1
  C  C3542  1  0.348300  0.989200  0.460400  1
  C  C3543  1  0.848300  0.510800  0.039600  1
  C  C3544  1  0.848300  0.989200  0.960400  1
  C  C3545  1  0.664800  0.521200  0.455800  1
  C  C3546  1  0.664800  0.978800  0.544200  1
  C  C3547  1  0.164800  0.521200  0.955800  1
  C  C3548  1  0.164800  0.978800  0.044200  1
  C  C3549  1  0.335200  0.478800  0.544200  1
  C  C3550  1  0.335200  0.021200  0.455800  1
  C  C3551  1  0.835200  0.478800  0.044200  1
  C  C3552  1  0.835200  0.021200  0.955800  1
  C  C3553  1  0.700300  0.535500  0.469300  1
  C  C3554  1  0.700300  0.964500  0.530700  1
  C  C3555  1  0.200300  0.535500  0.969300  1
  C  C3556  1  0.200300  0.964500  0.030700  1
  C  C3557  1  0.299700  0.464500  0.530700  1
  C  C3558  1  0.299700  0.035500  0.469300  1
  C  C3559  1  0.799700  0.464500  0.030700  1
  C  C3560  1  0.799700  0.035500  0.969300  1
  C  C3561  1  0.723400  0.519100  0.488000  1
  C  C3562  1  0.723400  0.980900  0.512000  1
  C  C3563  1  0.223400  0.519100  0.988000  1
  C  C3564  1  0.223400  0.980900  0.012000  1
  C  C3565  1  0.276600  0.480900  0.512000  1
  C  C3566  1  0.276600  0.019100  0.488000  1
  C  C3567  1  0.776600  0.480900  0.012000  1
  C  C3568  1  0.776600  0.019100  0.988000  1
  C  C3569  1  0.710600  0.487300  0.492500  1
  C  C3570  1  0.710600  0.012700  0.507500  1
  C  C3571  1  0.210600  0.487300  0.992500  1
  C  C3572  1  0.210600  0.012700  0.007500  1
  C  C3573  1  0.289400  0.512700  0.507500  1
  C  C3574  1  0.289400  0.987300  0.492500  1
  C  C3575  1  0.789400  0.512700  0.007500  1
  C  C3576  1  0.789400  0.987300  0.992500  1
  C  C3577  1  0.675300  0.472300  0.478900  1
  C  C3578  1  0.675300  0.027700  0.521100  1
  C  C3579  1  0.175300  0.472300  0.978900  1
  C  C3580  1  0.175300  0.027700  0.021100  1
  C  C3581  1  0.324700  0.527700  0.521100  1
  C  C3582  1  0.324700  0.972300  0.478900  1
  C  C3583  1  0.824700  0.527700  0.021100  1
  C  C3584  1  0.824700  0.972300  0.978900  1
  C  C3585  1  0.760400  0.536900  0.502800  1
  C  C3586  1  0.760400  0.963100  0.497200  1
  C  C3587  1  0.260400  0.536900  0.002800  1
  C  C3588  1  0.260400  0.963100  0.997200  1
  C  C3589  1  0.239600  0.463100  0.497200  1
  C  C3590  1  0.239600  0.036900  0.502800  1
  C  C3591  1  0.739600  0.463100  0.997200  1
  C  C3592  1  0.739600  0.036900  0.002800  1
  C  C3593  1  0.743500  0.555500  0.525600  1
  C  C3594  1  0.743500  0.944500  0.474400  1
  C  C3595  1  0.243500  0.555500  0.025600  1
  C  C3596  1  0.243500  0.944500  0.974400  1
  C  C3597  1  0.256500  0.444500  0.474400  1
  C  C3598  1  0.256500  0.055500  0.525600  1
  C  C3599  1  0.756500  0.444500  0.974400  1
  C  C3600  1  0.756500  0.055500  0.025600  1
  C  C3601  1  0.700700  0.603100  0.506800  1
  C  C3602  1  0.700700  0.896900  0.493200  1
  C  C3603  1  0.200700  0.603100  0.006800  1
  C  C3604  1  0.200700  0.896900  0.993200  1
  C  C3605  1  0.299300  0.396900  0.493200  1
  C  C3606  1  0.299300  0.103100  0.506800  1
  C  C3607  1  0.799300  0.396900  0.993200  1
  C  C3608  1  0.799300  0.103100  0.006800  1
  C  C3609  1  0.651000  0.615200  0.505800  1
  C  C3610  1  0.651000  0.884800  0.494200  1
  C  C3611  1  0.151000  0.615200  0.005800  1
  C  C3612  1  0.151000  0.884800  0.994200  1
  C  C3613  1  0.349000  0.384800  0.494200  1
  C  C3614  1  0.349000  0.115200  0.505800  1
  C  C3615  1  0.849000  0.384800  0.994200  1
  C  C3616  1  0.849000  0.115200  0.005800  1
  C  C3617  1  0.624900  0.595400  0.525900  1
  C  C3618  1  0.624900  0.904600  0.474100  1
  C  C3619  1  0.124900  0.595400  0.025900  1
  C  C3620  1  0.124900  0.904600  0.974100  1
  C  C3621  1  0.375100  0.404600  0.474100  1
  C  C3622  1  0.375100  0.095400  0.525900  1
  C  C3623  1  0.875100  0.404600  0.974100  1
  C  C3624  1  0.875100  0.095400  0.025900  1
  C  C3625  1  0.660600  0.571400  0.534800  1
  C  C3626  1  0.660600  0.928600  0.465200  1
  C  C3627  1  0.160600  0.571400  0.034800  1
  C  C3628  1  0.160600  0.928600  0.965200  1
  C  C3629  1  0.339400  0.428600  0.465200  1
  C  C3630  1  0.339400  0.071400  0.534800  1
  C  C3631  1  0.839400  0.428600  0.965200  1
  C  C3632  1  0.839400  0.071400  0.034800  1
  C  C3633  1  0.642100  0.651000  0.514200  1
  C  C3634  1  0.642100  0.849000  0.485800  1
  C  C3635  1  0.142100  0.651000  0.014200  1
  C  C3636  1  0.142100  0.849000  0.985800  1
  C  C3637  1  0.357900  0.349000  0.485800  1
  C  C3638  1  0.357900  0.151000  0.514200  1
  C  C3639  1  0.857900  0.349000  0.985800  1
  C  C3640  1  0.857900  0.151000  0.014200  1
  C  C3641  1  0.669100  0.655700  0.537900  1
  C  C3642  1  0.669100  0.844300  0.462100  1
  C  C3643  1  0.169100  0.655700  0.037900  1
  C  C3644  1  0.169100  0.844300  0.962100  1
  C  C3645  1  0.330900  0.344300  0.462100  1
  C  C3646  1  0.330900  0.155700  0.537900  1
  C  C3647  1  0.830900  0.344300  0.962100  1
  C  C3648  1  0.830900  0.155700  0.037900  1
  C  C3649  1  0.647800  0.639100  0.555300  1
  C  C3650  1  0.647800  0.860900  0.444700  1
  C  C3651  1  0.147800  0.639100  0.055300  1
  C  C3652  1  0.147800  0.860900  0.944700  1
  C  C3653  1  0.352200  0.360900  0.444700  1
  C  C3654  1  0.352200  0.139100  0.555300  1
  C  C3655  1  0.852200  0.360900  0.944700  1
  C  C3656  1  0.852200  0.139100  0.055300  1
  C  C3657  1  0.606400  0.622000  0.544000  1
  C  C3658  1  0.606400  0.878000  0.456000  1
  C  C3659  1  0.106400  0.622000  0.044000  1
  C  C3660  1  0.106400  0.878000  0.956000  1
  C  C3661  1  0.393600  0.378000  0.456000  1
  C  C3662  1  0.393600  0.122000  0.544000  1
  C  C3663  1  0.893600  0.378000  0.956000  1
  C  C3664  1  0.893600  0.122000  0.044000  1
  C  C3665  1  0.592300  0.648200  0.525000  1
  C  C3666  1  0.592300  0.851800  0.475000  1
  C  C3667  1  0.092300  0.648200  0.025000  1
  C  C3668  1  0.092300  0.851800  0.975000  1
  C  C3669  1  0.407700  0.351800  0.475000  1
  C  C3670  1  0.407700  0.148200  0.525000  1
  C  C3671  1  0.907700  0.351800  0.975000  1
  C  C3672  1  0.907700  0.148200  0.025000  1
  C  C3673  1  0.267400  0.753900  0.397900  1
  C  C3674  1  0.267400  0.746100  0.602100  1
  C  C3675  1  0.767400  0.753900  0.897900  1
  C  C3676  1  0.767400  0.746100  0.102100  1
  C  C3677  1  0.732600  0.246100  0.602100  1
  C  C3678  1  0.732600  0.253900  0.397900  1
  C  C3679  1  0.232600  0.246100  0.102100  1
  C  C3680  1  0.232600  0.253900  0.897900  1
  C  C3681  1  0.270500  0.761700  0.425200  1
  C  C3682  1  0.270500  0.738300  0.574800  1
  C  C3683  1  0.770500  0.761700  0.925200  1
  C  C3684  1  0.770500  0.738300  0.074800  1
  C  C3685  1  0.729500  0.238300  0.574800  1
  C  C3686  1  0.729500  0.261700  0.425200  1
  C  C3687  1  0.229500  0.238300  0.074800  1
  C  C3688  1  0.229500  0.261700  0.925200  1
  C  C3689  1  0.298700  0.794000  0.426500  1
  C  C3690  1  0.298700  0.706000  0.573500  1
  C  C3691  1  0.798700  0.794000  0.926500  1
  C  C3692  1  0.798700  0.706000  0.073500  1
  C  C3693  1  0.701300  0.206000  0.573500  1
  C  C3694  1  0.701300  0.294000  0.426500  1
  C  C3695  1  0.201300  0.206000  0.073500  1
  C  C3696  1  0.201300  0.294000  0.926500  1
  C  C3697  1  0.307100  0.802700  0.399800  1
  C  C3698  1  0.307100  0.697300  0.600200  1
  C  C3699  1  0.807100  0.802700  0.899800  1
  C  C3700  1  0.807100  0.697300  0.100200  1
  C  C3701  1  0.692900  0.197300  0.600200  1
  C  C3702  1  0.692900  0.302700  0.399800  1
  C  C3703  1  0.192900  0.197300  0.100200  1
  C  C3704  1  0.192900  0.302700  0.899800  1
  C  C3705  1  0.302200  0.738100  0.439900  1
  C  C3706  1  0.302200  0.761900  0.560100  1
  C  C3707  1  0.802200  0.738100  0.939900  1
  C  C3708  1  0.802200  0.761900  0.060100  1
  C  C3709  1  0.697800  0.261900  0.560100  1
  C  C3710  1  0.697800  0.238100  0.439900  1
  C  C3711  1  0.197800  0.261900  0.060100  1
  C  C3712  1  0.197800  0.238100  0.939900  1
  C  C3713  1  0.345400  0.733400  0.424400  1
  C  C3714  1  0.345400  0.766600  0.575600  1
  C  C3715  1  0.845400  0.733400  0.924400  1
  C  C3716  1  0.845400  0.766600  0.075600  1
  C  C3717  1  0.654600  0.266600  0.575600  1
  C  C3718  1  0.654600  0.233400  0.424400  1
  C  C3719  1  0.154600  0.266600  0.075600  1
  C  C3720  1  0.154600  0.233400  0.924400  1
  C  C3721  1  0.369900  0.760700  0.425400  1
  C  C3722  1  0.369900  0.739300  0.574600  1
  C  C3723  1  0.869900  0.760700  0.925400  1
  C  C3724  1  0.869900  0.739300  0.074600  1
  C  C3725  1  0.630100  0.239300  0.574600  1
  C  C3726  1  0.630100  0.260700  0.425400  1
  C  C3727  1  0.130100  0.239300  0.074600  1
  C  C3728  1  0.130100  0.260700  0.925400  1
  C  C3729  1  0.343000  0.784300  0.441200  1
  C  C3730  1  0.343000  0.715700  0.558800  1
  C  C3731  1  0.843000  0.784300  0.941200  1
  C  C3732  1  0.843000  0.715700  0.058800  1
  C  C3733  1  0.657000  0.215700  0.558800  1
  C  C3734  1  0.657000  0.284300  0.441200  1
  C  C3735  1  0.157000  0.215700  0.058800  1
  C  C3736  1  0.157000  0.284300  0.941200  1
  C  C3737  1  0.320300  0.761400  0.460000  1
  C  C3738  1  0.320300  0.738600  0.540000  1
  C  C3739  1  0.820300  0.761400  0.960000  1
  C  C3740  1  0.820300  0.738600  0.040000  1
  C  C3741  1  0.679700  0.238600  0.540000  1
  C  C3742  1  0.679700  0.261400  0.460000  1
  C  C3743  1  0.179700  0.238600  0.040000  1
  C  C3744  1  0.179700  0.261400  0.960000  1
  C  C3745  1  0.289800  0.779100  0.357800  1
  C  C3746  1  0.289800  0.720900  0.642200  1
  C  C3747  1  0.789800  0.779100  0.857800  1
  C  C3748  1  0.789800  0.720900  0.142200  1
  C  C3749  1  0.710200  0.220900  0.642200  1
  C  C3750  1  0.710200  0.279100  0.357800  1
  C  C3751  1  0.210200  0.220900  0.142200  1
  C  C3752  1  0.210200  0.279100  0.857800  1
  C  C3753  1  0.338600  0.777700  0.347200  1
  C  C3754  1  0.338600  0.722300  0.652800  1
  C  C3755  1  0.838600  0.777700  0.847200  1
  C  C3756  1  0.838600  0.722300  0.152800  1
  C  C3757  1  0.661400  0.222300  0.652800  1
  C  C3758  1  0.661400  0.277700  0.347200  1
  C  C3759  1  0.161400  0.222300  0.152800  1
  C  C3760  1  0.161400  0.277700  0.847200  1
  C  C3761  1  0.364000  0.746100  0.352000  1
  C  C3762  1  0.364000  0.753900  0.648000  1
  C  C3763  1  0.864000  0.746100  0.852000  1
  C  C3764  1  0.864000  0.753900  0.148000  1
  C  C3765  1  0.636000  0.253900  0.648000  1
  C  C3766  1  0.636000  0.246100  0.352000  1
  C  C3767  1  0.136000  0.253900  0.148000  1
  C  C3768  1  0.136000  0.246100  0.852000  1
  C  C3769  1  0.409400  0.748300  0.360600  1
  C  C3770  1  0.409400  0.751700  0.639400  1
  C  C3771  1  0.909400  0.748300  0.860600  1
  C  C3772  1  0.909400  0.751700  0.139400  1
  C  C3773  1  0.590600  0.251700  0.639400  1
  C  C3774  1  0.590600  0.248300  0.360600  1
  C  C3775  1  0.090600  0.251700  0.139400  1
  C  C3776  1  0.090600  0.248300  0.860600  1
  C  C3777  1  0.436500  0.721000  0.363900  1
  C  C3778  1  0.436500  0.779000  0.636100  1
  C  C3779  1  0.936500  0.721000  0.863900  1
  C  C3780  1  0.936500  0.779000  0.136100  1
  C  C3781  1  0.563500  0.279000  0.636100  1
  C  C3782  1  0.563500  0.221000  0.363900  1
  C  C3783  1  0.063500  0.279000  0.136100  1
  C  C3784  1  0.063500  0.221000  0.863900  1
  C  C3785  1  0.417700  0.690600  0.359300  1
  C  C3786  1  0.417700  0.809400  0.640700  1
  C  C3787  1  0.917700  0.690600  0.859300  1
  C  C3788  1  0.917700  0.809400  0.140700  1
  C  C3789  1  0.582300  0.309400  0.640700  1
  C  C3790  1  0.582300  0.190600  0.359300  1
  C  C3791  1  0.082300  0.309400  0.140700  1
  C  C3792  1  0.082300  0.190600  0.859300  1
  C  C3793  1  0.371600  0.688100  0.351600  1
  C  C3794  1  0.371600  0.811900  0.648400  1
  C  C3795  1  0.871600  0.688100  0.851600  1
  C  C3796  1  0.871600  0.811900  0.148400  1
  C  C3797  1  0.628400  0.311900  0.648400  1
  C  C3798  1  0.628400  0.188100  0.351600  1
  C  C3799  1  0.128400  0.311900  0.148400  1
  C  C3800  1  0.128400  0.188100  0.851600  1
  C  C3801  1  0.345100  0.715900  0.347800  1
  C  C3802  1  0.345100  0.784100  0.652200  1
  C  C3803  1  0.845100  0.715900  0.847800  1
  C  C3804  1  0.845100  0.784100  0.152200  1
  C  C3805  1  0.654900  0.284100  0.652200  1
  C  C3806  1  0.654900  0.215900  0.347800  1
  C  C3807  1  0.154900  0.284100  0.152200  1
  C  C3808  1  0.154900  0.215900  0.847800  1
  C  C3809  1  0.446500  0.650100  0.384600  1
  C  C3810  1  0.446500  0.849900  0.615400  1
  C  C3811  1  0.946500  0.650100  0.884600  1
  C  C3812  1  0.946500  0.849900  0.115400  1
  C  C3813  1  0.553500  0.349900  0.615400  1
  C  C3814  1  0.553500  0.150100  0.384600  1
  C  C3815  1  0.053500  0.349900  0.115400  1
  C  C3816  1  0.053500  0.150100  0.884600  1
  C  C3817  1  0.477000  0.622000  0.387000  1
  C  C3818  1  0.477000  0.878000  0.613000  1
  C  C3819  1  0.977000  0.622000  0.887000  1
  C  C3820  1  0.977000  0.878000  0.113000  1
  C  C3821  1  0.523000  0.378000  0.613000  1
  C  C3822  1  0.523000  0.122000  0.387000  1
  C  C3823  1  0.023000  0.378000  0.113000  1
  C  C3824  1  0.023000  0.122000  0.887000  1
  C  C3825  1  0.482200  0.604700  0.408700  1
  C  C3826  1  0.482200  0.895300  0.591300  1
  C  C3827  1  0.982200  0.604700  0.908700  1
  C  C3828  1  0.982200  0.895300  0.091300  1
  C  C3829  1  0.517800  0.395300  0.591300  1
  C  C3830  1  0.517800  0.104700  0.408700  1
  C  C3831  1  0.017800  0.395300  0.091300  1
  C  C3832  1  0.017800  0.104700  0.908700  1
  C  C3833  1  0.515400  0.580200  0.409900  1
  C  C3834  1  0.515400  0.919800  0.590100  1
  C  C3835  1  0.015400  0.580200  0.909900  1
  C  C3836  1  0.015400  0.919800  0.090100  1
  C  C3837  1  0.484600  0.419800  0.590100  1
  C  C3838  1  0.484600  0.080200  0.409900  1
  C  C3839  1  0.984600  0.419800  0.090100  1
  C  C3840  1  0.984600  0.080200  0.909900  1
  C  C3841  1  0.543800  0.574200  0.389700  1
  C  C3842  1  0.543800  0.925800  0.610300  1
  C  C3843  1  0.043800  0.574200  0.889700  1
  C  C3844  1  0.043800  0.925800  0.110300  1
  C  C3845  1  0.456200  0.425800  0.610300  1
  C  C3846  1  0.456200  0.074200  0.389700  1
  C  C3847  1  0.956200  0.425800  0.110300  1
  C  C3848  1  0.956200  0.074200  0.889700  1
  C  C3849  1  0.534100  0.590200  0.367960  1
  C  C3850  1  0.534100  0.909800  0.632040  1
  C  C3851  1  0.034100  0.590200  0.867960  1
  C  C3852  1  0.034100  0.909800  0.132040  1
  C  C3853  1  0.465900  0.409800  0.632040  1
  C  C3854  1  0.465900  0.090200  0.367960  1
  C  C3855  1  0.965900  0.409800  0.132040  1
  C  C3856  1  0.965900  0.090200  0.867960  1
  C  C3857  1  0.579800  0.520000  0.397700  1
  C  C3858  1  0.579800  0.980000  0.602300  1
  C  C3859  1  0.079800  0.520000  0.897700  1
  C  C3860  1  0.079800  0.980000  0.102300  1
  C  C3861  1  0.420200  0.480000  0.602300  1
  C  C3862  1  0.420200  0.020000  0.397700  1
  C  C3863  1  0.920200  0.480000  0.102300  1
  C  C3864  1  0.920200  0.020000  0.897700  1
  C  C3865  1  0.582300  0.551200  0.388990  1
  C  C3866  1  0.582300  0.948800  0.611010  1
  C  C3867  1  0.082300  0.551200  0.888990  1
  C  C3868  1  0.082300  0.948800  0.111010  1
  C  C3869  1  0.417700  0.448800  0.611010  1
  C  C3870  1  0.417700  0.051200  0.388990  1
  C  C3871  1  0.917700  0.448800  0.111010  1
  C  C3872  1  0.917700  0.051200  0.888990  1
  C  C3873  1  0.626800  0.562300  0.382200  1
  C  C3874  1  0.626800  0.937700  0.617800  1
  C  C3875  1  0.126800  0.562300  0.882200  1
  C  C3876  1  0.126800  0.937700  0.117800  1
  C  C3877  1  0.373200  0.437700  0.617800  1
  C  C3878  1  0.373200  0.062300  0.382200  1
  C  C3879  1  0.873200  0.437700  0.117800  1
  C  C3880  1  0.873200  0.062300  0.882200  1
  C  C3881  1  0.665200  0.542200  0.384800  1
  C  C3882  1  0.665200  0.957800  0.615200  1
  C  C3883  1  0.165200  0.542200  0.884800  1
  C  C3884  1  0.165200  0.957800  0.115200  1
  C  C3885  1  0.334800  0.457800  0.615200  1
  C  C3886  1  0.334800  0.042200  0.384800  1
  C  C3887  1  0.834800  0.457800  0.115200  1
  C  C3888  1  0.834800  0.042200  0.884800  1
  C  C3889  1  0.659800  0.511200  0.393870  1
  C  C3890  1  0.659800  0.988800  0.606130  1
  C  C3891  1  0.159800  0.511200  0.893870  1
  C  C3892  1  0.159800  0.988800  0.106130  1
  C  C3893  1  0.340200  0.488800  0.606130  1
  C  C3894  1  0.340200  0.011200  0.393870  1
  C  C3895  1  0.840200  0.488800  0.106130  1
  C  C3896  1  0.840200  0.011200  0.893870  1
  C  C3897  1  0.698600  0.489800  0.399700  1
  C  C3898  1  0.698600  0.010200  0.600300  1
  C  C3899  1  0.198600  0.489800  0.899700  1
  C  C3900  1  0.198600  0.010200  0.100300  1
  C  C3901  1  0.301400  0.510200  0.600300  1
  C  C3902  1  0.301400  0.989800  0.399700  1
  C  C3903  1  0.801400  0.510200  0.100300  1
  C  C3904  1  0.801400  0.989800  0.899700  1
  C  C3905  1  0.724000  0.441400  0.416100  1
  C  C3906  1  0.724000  0.058600  0.583900  1
  C  C3907  1  0.224000  0.441400  0.916100  1
  C  C3908  1  0.224000  0.058600  0.083900  1
  C  C3909  1  0.276000  0.558600  0.583900  1
  C  C3910  1  0.276000  0.941400  0.416100  1
  C  C3911  1  0.776000  0.558600  0.083900  1
  C  C3912  1  0.776000  0.941400  0.916100  1
  C  C3913  1  0.756000  0.450800  0.434300  1
  C  C3914  1  0.756000  0.049200  0.565700  1
  C  C3915  1  0.256000  0.450800  0.934300  1
  C  C3916  1  0.256000  0.049200  0.065700  1
  C  C3917  1  0.244000  0.549200  0.565700  1
  C  C3918  1  0.244000  0.950800  0.434300  1
  C  C3919  1  0.744000  0.549200  0.065700  1
  C  C3920  1  0.744000  0.950800  0.934300  1
  C  C3921  1  0.792200  0.430200  0.440800  1
  C  C3922  1  0.792200  0.069800  0.559200  1
  C  C3923  1  0.292200  0.430200  0.940800  1
  C  C3924  1  0.292200  0.069800  0.059200  1
  C  C3925  1  0.207800  0.569800  0.559200  1
  C  C3926  1  0.207800  0.930200  0.440800  1
  C  C3927  1  0.707800  0.569800  0.059200  1
  C  C3928  1  0.707800  0.930200  0.940800  1
  C  C3929  1  0.798200  0.400400  0.429300  1
  C  C3930  1  0.798200  0.099600  0.570700  1
  C  C3931  1  0.298200  0.400400  0.929300  1
  C  C3932  1  0.298200  0.099600  0.070700  1
  C  C3933  1  0.201800  0.599600  0.570700  1
  C  C3934  1  0.201800  0.900400  0.429300  1
  C  C3935  1  0.701800  0.599600  0.070700  1
  C  C3936  1  0.701800  0.900400  0.929300  1
  C  C3937  1  0.766600  0.391400  0.411200  1
  C  C3938  1  0.766600  0.108600  0.588800  1
  C  C3939  1  0.266600  0.391400  0.911200  1
  C  C3940  1  0.266600  0.108600  0.088800  1
  C  C3941  1  0.233400  0.608600  0.588800  1
  C  C3942  1  0.233400  0.891400  0.411200  1
  C  C3943  1  0.733400  0.608600  0.088800  1
  C  C3944  1  0.733400  0.891400  0.911200  1
  C  C3945  1  0.729800  0.411700  0.404700  1
  C  C3946  1  0.729800  0.088300  0.595300  1
  C  C3947  1  0.229800  0.411700  0.904700  1
  C  C3948  1  0.229800  0.088300  0.095300  1
  C  C3949  1  0.270200  0.588300  0.595300  1
  C  C3950  1  0.270200  0.911700  0.404700  1
  C  C3951  1  0.770200  0.588300  0.095300  1
  C  C3952  1  0.770200  0.911700  0.904700  1
  C  C3953  1  0.839800  0.379500  0.436200  1
  C  C3954  1  0.839800  0.120500  0.563800  1
  C  C3955  1  0.339800  0.379500  0.936200  1
  C  C3956  1  0.339800  0.120500  0.063800  1
  C  C3957  1  0.160200  0.620500  0.563800  1
  C  C3958  1  0.160200  0.879500  0.436200  1
  C  C3959  1  0.660200  0.620500  0.063800  1
  C  C3960  1  0.660200  0.879500  0.936200  1
  C  C3961  1  0.829600  0.344900  0.443400  1
  C  C3962  1  0.829600  0.155100  0.556600  1
  C  C3963  1  0.329600  0.344900  0.943400  1
  C  C3964  1  0.329600  0.155100  0.056600  1
  C  C3965  1  0.170400  0.655100  0.556600  1
  C  C3966  1  0.170400  0.844900  0.443400  1
  C  C3967  1  0.670400  0.655100  0.056600  1
  C  C3968  1  0.670400  0.844900  0.943400  1
  C  C3969  1  0.828600  0.307600  0.406600  1
  C  C3970  1  0.828600  0.192400  0.593400  1
  C  C3971  1  0.328600  0.307600  0.906600  1
  C  C3972  1  0.328600  0.192400  0.093400  1
  C  C3973  1  0.171400  0.692400  0.593400  1
  C  C3974  1  0.171400  0.807600  0.406600  1
  C  C3975  1  0.671400  0.692400  0.093400  1
  C  C3976  1  0.671400  0.807600  0.906600  1
  C  C3977  1  0.857400  0.280000  0.396300  1
  C  C3978  1  0.857400  0.220000  0.603700  1
  C  C3979  1  0.357400  0.280000  0.896300  1
  C  C3980  1  0.357400  0.220000  0.103700  1
  C  C3981  1  0.142600  0.720000  0.603700  1
  C  C3982  1  0.142600  0.780000  0.396300  1
  C  C3983  1  0.642600  0.720000  0.103700  1
  C  C3984  1  0.642600  0.780000  0.896300  1
  C  C3985  1  0.903500  0.281400  0.411400  1
  C  C3986  1  0.903500  0.218600  0.588600  1
  C  C3987  1  0.403500  0.281400  0.911400  1
  C  C3988  1  0.403500  0.218600  0.088600  1
  C  C3989  1  0.096500  0.718600  0.588600  1
  C  C3990  1  0.096500  0.781400  0.411400  1
  C  C3991  1  0.596500  0.718600  0.088600  1
  C  C3992  1  0.596500  0.781400  0.911400  1
  C  C3993  1  0.894400  0.306400  0.431300  1
  C  C3994  1  0.894400  0.193600  0.568700  1
  C  C3995  1  0.394400  0.306400  0.931300  1
  C  C3996  1  0.394400  0.193600  0.068700  1
  C  C3997  1  0.105600  0.693600  0.568700  1
  C  C3998  1  0.105600  0.806400  0.431300  1
  C  C3999  1  0.605600  0.693600  0.068700  1
  C  C4000  1  0.605600  0.806400  0.931300  1
  C  C4001  1  0.873300  0.284100  0.368900  1
  C  C4002  1  0.873300  0.215900  0.631100  1
  C  C4003  1  0.373300  0.284100  0.868900  1
  C  C4004  1  0.373300  0.215900  0.131100  1
  C  C4005  1  0.126700  0.715900  0.631100  1
  C  C4006  1  0.126700  0.784100  0.368900  1
  C  C4007  1  0.626700  0.715900  0.131100  1
  C  C4008  1  0.626700  0.784100  0.868900  1
  C  C4009  1  0.888000  0.319200  0.367200  1
  C  C4010  1  0.888000  0.180800  0.632800  1
  C  C4011  1  0.388000  0.319200  0.867200  1
  C  C4012  1  0.388000  0.180800  0.132800  1
  C  C4013  1  0.112000  0.680800  0.632800  1
  C  C4014  1  0.112000  0.819200  0.367200  1
  C  C4015  1  0.612000  0.680800  0.132800  1
  C  C4016  1  0.612000  0.819200  0.867200  1
  C  C4017  1  0.927000  0.322600  0.380200  1
  C  C4018  1  0.927000  0.177400  0.619800  1
  C  C4019  1  0.427000  0.322600  0.880200  1
  C  C4020  1  0.427000  0.177400  0.119800  1
  C  C4021  1  0.073000  0.677400  0.619800  1
  C  C4022  1  0.073000  0.822600  0.380200  1
  C  C4023  1  0.573000  0.677400  0.119800  1
  C  C4024  1  0.573000  0.822600  0.880200  1
  C  C4025  1  0.939800  0.290000  0.391000  1
  C  C4026  1  0.939800  0.210000  0.609000  1
  C  C4027  1  0.439800  0.290000  0.891000  1
  C  C4028  1  0.439800  0.210000  0.109000  1
  C  C4029  1  0.060200  0.710000  0.609000  1
  C  C4030  1  0.060200  0.790000  0.391000  1
  C  C4031  1  0.560200  0.710000  0.109000  1
  C  C4032  1  0.560200  0.790000  0.891000  1
  C  C4033  1  0.921700  0.267800  0.369900  1
  C  C4034  1  0.921700  0.232200  0.630100  1
  C  C4035  1  0.421700  0.267800  0.869900  1
  C  C4036  1  0.421700  0.232200  0.130100  1
  C  C4037  1  0.078300  0.732200  0.630100  1
  C  C4038  1  0.078300  0.767800  0.369900  1
  C  C4039  1  0.578300  0.732200  0.130100  1
  C  C4040  1  0.578300  0.767800  0.869900  1
  C  C4041  1  0.725600  0.296400  0.197900  1
  C  C4042  1  0.725600  0.203600  0.802100  1
  C  C4043  1  0.225600  0.296400  0.697900  1
  C  C4044  1  0.225600  0.203600  0.302100  1
  C  C4045  1  0.274400  0.703600  0.802100  1
  C  C4046  1  0.274400  0.796400  0.197900  1
  C  C4047  1  0.774400  0.703600  0.302100  1
  C  C4048  1  0.774400  0.796400  0.697900  1
  C  C4049  1  0.762400  0.279100  0.213100  1
  C  C4050  1  0.762400  0.220900  0.786900  1
  C  C4051  1  0.262400  0.279100  0.713100  1
  C  C4052  1  0.262400  0.220900  0.286900  1
  C  C4053  1  0.237600  0.720900  0.786900  1
  C  C4054  1  0.237600  0.779100  0.213100  1
  C  C4055  1  0.737600  0.720900  0.286900  1
  C  C4056  1  0.737600  0.779100  0.713100  1
  C  C4057  1  0.809500  0.294200  0.204900  1
  C  C4058  1  0.809500  0.205800  0.795100  1
  C  C4059  1  0.309500  0.294200  0.704900  1
  C  C4060  1  0.309500  0.205800  0.295100  1
  C  C4061  1  0.190500  0.705800  0.795100  1
  C  C4062  1  0.190500  0.794200  0.204900  1
  C  C4063  1  0.690500  0.705800  0.295100  1
  C  C4064  1  0.690500  0.794200  0.704900  1
  C  C4065  1  0.795700  0.319700  0.186100  1
  C  C4066  1  0.795700  0.180300  0.813900  1
  C  C4067  1  0.295700  0.319700  0.686100  1
  C  C4068  1  0.295700  0.180300  0.313900  1
  C  C4069  1  0.204300  0.680300  0.813900  1
  C  C4070  1  0.204300  0.819700  0.186100  1
  C  C4071  1  0.704300  0.680300  0.313900  1
  C  C4072  1  0.704300  0.819700  0.686100  1
  C  C4073  1  0.760000  0.286400  0.241400  1
  C  C4074  1  0.760000  0.213600  0.758600  1
  C  C4075  1  0.260000  0.286400  0.741400  1
  C  C4076  1  0.260000  0.213600  0.258600  1
  C  C4077  1  0.240000  0.713600  0.758600  1
  C  C4078  1  0.240000  0.786400  0.241400  1
  C  C4079  1  0.740000  0.713600  0.258600  1
  C  C4080  1  0.740000  0.786400  0.741400  1
  C  C4081  1  0.754000  0.322700  0.243100  1
  C  C4082  1  0.754000  0.177300  0.756900  1
  C  C4083  1  0.254000  0.322700  0.743100  1
  C  C4084  1  0.254000  0.177300  0.256900  1
  C  C4085  1  0.246000  0.677300  0.756900  1
  C  C4086  1  0.246000  0.822700  0.243100  1
  C  C4087  1  0.746000  0.677300  0.256900  1
  C  C4088  1  0.746000  0.822700  0.743100  1
  C  C4089  1  0.794400  0.336100  0.236000  1
  C  C4090  1  0.794400  0.163900  0.764000  1
  C  C4091  1  0.294400  0.336100  0.736000  1
  C  C4092  1  0.294400  0.163900  0.264000  1
  C  C4093  1  0.205600  0.663900  0.764000  1
  C  C4094  1  0.205600  0.836100  0.236000  1
  C  C4095  1  0.705600  0.663900  0.264000  1
  C  C4096  1  0.705600  0.836100  0.736000  1
  C  C4097  1  0.828600  0.309500  0.229500  1
  C  C4098  1  0.828600  0.190500  0.770500  1
  C  C4099  1  0.328600  0.309500  0.729500  1
  C  C4100  1  0.328600  0.190500  0.270500  1
  C  C4101  1  0.171400  0.690500  0.770500  1
  C  C4102  1  0.171400  0.809500  0.229500  1
  C  C4103  1  0.671400  0.690500  0.270500  1
  C  C4104  1  0.671400  0.809500  0.729500  1
  C  C4105  1  0.812600  0.284000  0.248100  1
  C  C4106  1  0.812600  0.216000  0.751900  1
  C  C4107  1  0.312600  0.284000  0.748100  1
  C  C4108  1  0.312600  0.216000  0.251900  1
  C  C4109  1  0.187400  0.716000  0.751900  1
  C  C4110  1  0.187400  0.784000  0.248100  1
  C  C4111  1  0.687400  0.716000  0.251900  1
  C  C4112  1  0.687400  0.784000  0.748100  1
  C  C4113  1  0.724300  0.337100  0.163400  1
  C  C4114  1  0.724300  0.162900  0.836600  1
  C  C4115  1  0.224300  0.337100  0.663400  1
  C  C4116  1  0.224300  0.162900  0.336600  1
  C  C4117  1  0.275700  0.662900  0.836600  1
  C  C4118  1  0.275700  0.837100  0.163400  1
  C  C4119  1  0.775700  0.662900  0.336600  1
  C  C4120  1  0.775700  0.837100  0.663400  1
  C  C4121  1  0.722000  0.373000  0.169000  1
  C  C4122  1  0.722000  0.127000  0.831000  1
  C  C4123  1  0.222000  0.373000  0.669000  1
  C  C4124  1  0.222000  0.127000  0.331000  1
  C  C4125  1  0.278000  0.627000  0.831000  1
  C  C4126  1  0.278000  0.873000  0.169000  1
  C  C4127  1  0.778000  0.627000  0.331000  1
  C  C4128  1  0.778000  0.873000  0.669000  1
  C  C4129  1  0.682200  0.380200  0.186800  1
  C  C4130  1  0.682200  0.119800  0.813200  1
  C  C4131  1  0.182200  0.380200  0.686800  1
  C  C4132  1  0.182200  0.119800  0.313200  1
  C  C4133  1  0.317800  0.619800  0.813200  1
  C  C4134  1  0.317800  0.880200  0.186800  1
  C  C4135  1  0.817800  0.619800  0.313200  1
  C  C4136  1  0.817800  0.880200  0.686800  1
  C  C4137  1  0.636500  0.378300  0.178600  1
  C  C4138  1  0.636500  0.121700  0.821400  1
  C  C4139  1  0.136500  0.378300  0.678600  1
  C  C4140  1  0.136500  0.121700  0.321400  1
  C  C4141  1  0.363500  0.621700  0.821400  1
  C  C4142  1  0.363500  0.878300  0.178600  1
  C  C4143  1  0.863500  0.621700  0.321400  1
  C  C4144  1  0.863500  0.878300  0.678600  1
  C  C4145  1  0.599800  0.387100  0.194200  1
  C  C4146  1  0.599800  0.112900  0.805800  1
  C  C4147  1  0.099800  0.387100  0.694200  1
  C  C4148  1  0.099800  0.112900  0.305800  1
  C  C4149  1  0.400200  0.612900  0.805800  1
  C  C4150  1  0.400200  0.887100  0.194200  1
  C  C4151  1  0.900200  0.612900  0.305800  1
  C  C4152  1  0.900200  0.887100  0.694200  1
  C  C4153  1  0.609100  0.397400  0.218200  1
  C  C4154  1  0.609100  0.102600  0.781800  1
  C  C4155  1  0.109100  0.397400  0.718200  1
  C  C4156  1  0.109100  0.102600  0.281800  1
  C  C4157  1  0.390900  0.602600  0.781800  1
  C  C4158  1  0.390900  0.897400  0.218200  1
  C  C4159  1  0.890900  0.602600  0.281800  1
  C  C4160  1  0.890900  0.897400  0.718200  1
  C  C4161  1  0.654800  0.398600  0.226600  1
  C  C4162  1  0.654800  0.101400  0.773400  1
  C  C4163  1  0.154800  0.398600  0.726600  1
  C  C4164  1  0.154800  0.101400  0.273400  1
  C  C4165  1  0.345200  0.601400  0.773400  1
  C  C4166  1  0.345200  0.898600  0.226600  1
  C  C4167  1  0.845200  0.601400  0.273400  1
  C  C4168  1  0.845200  0.898600  0.726600  1
  C  C4169  1  0.691000  0.389800  0.210800  1
  C  C4170  1  0.691000  0.110200  0.789200  1
  C  C4171  1  0.191000  0.389800  0.710800  1
  C  C4172  1  0.191000  0.110200  0.289200  1
  C  C4173  1  0.309000  0.610200  0.789200  1
  C  C4174  1  0.309000  0.889800  0.210800  1
  C  C4175  1  0.809000  0.610200  0.289200  1
  C  C4176  1  0.809000  0.889800  0.710800  1
  C  C4177  1  0.547800  0.386700  0.244900  1
  C  C4178  1  0.547800  0.113300  0.755100  1
  C  C4179  1  0.047800  0.386700  0.744900  1
  C  C4180  1  0.047800  0.113300  0.255100  1
  C  C4181  1  0.452200  0.613300  0.755100  1
  C  C4182  1  0.452200  0.886700  0.244900  1
  C  C4183  1  0.952200  0.613300  0.255100  1
  C  C4184  1  0.952200  0.886700  0.744900  1
  C  C4185  1  0.508600  0.398800  0.259460  1
  C  C4186  1  0.508600  0.101200  0.740540  1
  C  C4187  1  0.008600  0.398800  0.759460  1
  C  C4188  1  0.008600  0.101200  0.240540  1
  C  C4189  1  0.491400  0.601200  0.740540  1
  C  C4190  1  0.491400  0.898800  0.259460  1
  C  C4191  1  0.991400  0.601200  0.240540  1
  C  C4192  1  0.991400  0.898800  0.759460  1
  C  C4193  1  0.478600  0.379200  0.272800  1
  C  C4194  1  0.478600  0.120800  0.727200  1
  C  C4195  1  0.978600  0.379200  0.772800  1
  C  C4196  1  0.978600  0.120800  0.227200  1
  C  C4197  1  0.521400  0.620800  0.727200  1
  C  C4198  1  0.521400  0.879200  0.272800  1
  C  C4199  1  0.021400  0.620800  0.227200  1
  C  C4200  1  0.021400  0.879200  0.772800  1
  C  C4201  1  0.439600  0.392900  0.283900  1
  C  C4202  1  0.439600  0.107100  0.716100  1
  C  C4203  1  0.939600  0.392900  0.783900  1
  C  C4204  1  0.939600  0.107100  0.216100  1
  C  C4205  1  0.560400  0.607100  0.716100  1
  C  C4206  1  0.560400  0.892900  0.283900  1
  C  C4207  1  0.060400  0.607100  0.216100  1
  C  C4208  1  0.060400  0.892900  0.783900  1
  C  C4209  1  0.429600  0.425400  0.280300  1
  C  C4210  1  0.429600  0.074600  0.719700  1
  C  C4211  1  0.929600  0.425400  0.780300  1
  C  C4212  1  0.929600  0.074600  0.219700  1
  C  C4213  1  0.570400  0.574600  0.719700  1
  C  C4214  1  0.570400  0.925400  0.280300  1
  C  C4215  1  0.070400  0.574600  0.219700  1
  C  C4216  1  0.070400  0.925400  0.780300  1
  C  C4217  1  0.462300  0.444100  0.268300  1
  C  C4218  1  0.462300  0.055900  0.731700  1
  C  C4219  1  0.962300  0.444100  0.768300  1
  C  C4220  1  0.962300  0.055900  0.231700  1
  C  C4221  1  0.537700  0.555900  0.731700  1
  C  C4222  1  0.537700  0.944100  0.268300  1
  C  C4223  1  0.037700  0.555900  0.231700  1
  C  C4224  1  0.037700  0.944100  0.768300  1
  C  C4225  1  0.372000  0.438500  0.313440  1
  C  C4226  1  0.372000  0.061500  0.686560  1
  C  C4227  1  0.872000  0.438500  0.813440  1
  C  C4228  1  0.872000  0.061500  0.186560  1
  C  C4229  1  0.628000  0.561500  0.686560  1
  C  C4230  1  0.628000  0.938500  0.313440  1
  C  C4231  1  0.128000  0.561500  0.186560  1
  C  C4232  1  0.128000  0.938500  0.813440  1
  C  C4233  1  0.386300  0.440200  0.289450  1
  C  C4234  1  0.386300  0.059800  0.710550  1
  C  C4235  1  0.886300  0.440200  0.789450  1
  C  C4236  1  0.886300  0.059800  0.210550  1
  C  C4237  1  0.613700  0.559800  0.710550  1
  C  C4238  1  0.613700  0.940200  0.289450  1
  C  C4239  1  0.113700  0.559800  0.210550  1
  C  C4240  1  0.113700  0.940200  0.789450  1
  C  C4241  1  0.355000  0.453900  0.272600  1
  C  C4242  1  0.355000  0.046100  0.727400  1
  C  C4243  1  0.855000  0.453900  0.772600  1
  C  C4244  1  0.855000  0.046100  0.227400  1
  C  C4245  1  0.645000  0.546100  0.727400  1
  C  C4246  1  0.645000  0.953900  0.272600  1
  C  C4247  1  0.145000  0.546100  0.227400  1
  C  C4248  1  0.145000  0.953900  0.772600  1
  C  C4249  1  0.311600  0.464400  0.280560  1
  C  C4250  1  0.311600  0.035600  0.719440  1
  C  C4251  1  0.811600  0.464400  0.780560  1
  C  C4252  1  0.811600  0.035600  0.219440  1
  C  C4253  1  0.688400  0.535600  0.719440  1
  C  C4254  1  0.688400  0.964400  0.280560  1
  C  C4255  1  0.188400  0.535600  0.219440  1
  C  C4256  1  0.188400  0.964400  0.780560  1
  C  C4257  1  0.300300  0.462100  0.305310  1
  C  C4258  1  0.300300  0.037900  0.694690  1
  C  C4259  1  0.800300  0.462100  0.805310  1
  C  C4260  1  0.800300  0.037900  0.194690  1
  C  C4261  1  0.699700  0.537900  0.694690  1
  C  C4262  1  0.699700  0.962100  0.305310  1
  C  C4263  1  0.199700  0.537900  0.194690  1
  C  C4264  1  0.199700  0.962100  0.805310  1
  C  C4265  1  0.255200  0.472200  0.315000  1
  C  C4266  1  0.255200  0.027800  0.685000  1
  C  C4267  1  0.755200  0.472200  0.815000  1
  C  C4268  1  0.755200  0.027800  0.185000  1
  C  C4269  1  0.744800  0.527800  0.685000  1
  C  C4270  1  0.744800  0.972200  0.315000  1
  C  C4271  1  0.244800  0.527800  0.185000  1
  C  C4272  1  0.244800  0.972200  0.815000  1
  C  C4273  1  0.207900  0.477400  0.350100  1
  C  C4274  1  0.207900  0.022600  0.649900  1
  C  C4275  1  0.707900  0.477400  0.850100  1
  C  C4276  1  0.707900  0.022600  0.149900  1
  C  C4277  1  0.792100  0.522600  0.649900  1
  C  C4278  1  0.792100  0.977400  0.350100  1
  C  C4279  1  0.292100  0.522600  0.149900  1
  C  C4280  1  0.292100  0.977400  0.850100  1
  C  C4281  1  0.205900  0.507000  0.362500  1
  C  C4282  1  0.205900  0.993000  0.637500  1
  C  C4283  1  0.705900  0.507000  0.862500  1
  C  C4284  1  0.705900  0.993000  0.137500  1
  C  C4285  1  0.794100  0.493000  0.637500  1
  C  C4286  1  0.794100  0.007000  0.362500  1
  C  C4287  1  0.294100  0.493000  0.137500  1
  C  C4288  1  0.294100  0.007000  0.862500  1
  C  C4289  1  0.165100  0.516700  0.374400  1
  C  C4290  1  0.165100  0.983300  0.625600  1
  C  C4291  1  0.665100  0.516700  0.874400  1
  C  C4292  1  0.665100  0.983300  0.125600  1
  C  C4293  1  0.834900  0.483300  0.625600  1
  C  C4294  1  0.834900  0.016700  0.374400  1
  C  C4295  1  0.334900  0.483300  0.125600  1
  C  C4296  1  0.334900  0.016700  0.874400  1
  C  C4297  1  0.125600  0.497200  0.373800  1
  C  C4298  1  0.125600  0.002800  0.626200  1
  C  C4299  1  0.625600  0.497200  0.873800  1
  C  C4300  1  0.625600  0.002800  0.126200  1
  C  C4301  1  0.874400  0.502800  0.626200  1
  C  C4302  1  0.874400  0.997200  0.373800  1
  C  C4303  1  0.374400  0.502800  0.126200  1
  C  C4304  1  0.374400  0.997200  0.873800  1
  C  C4305  1  0.127700  0.467900  0.361300  1
  C  C4306  1  0.127700  0.032100  0.638700  1
  C  C4307  1  0.627700  0.467900  0.861300  1
  C  C4308  1  0.627700  0.032100  0.138700  1
  C  C4309  1  0.872300  0.532100  0.638700  1
  C  C4310  1  0.872300  0.967900  0.361300  1
  C  C4311  1  0.372300  0.532100  0.138700  1
  C  C4312  1  0.372300  0.967900  0.861300  1
  C  C4313  1  0.168500  0.457700  0.349500  1
  C  C4314  1  0.168500  0.042300  0.650500  1
  C  C4315  1  0.668500  0.457700  0.849500  1
  C  C4316  1  0.668500  0.042300  0.150500  1
  C  C4317  1  0.831500  0.542300  0.650500  1
  C  C4318  1  0.831500  0.957700  0.349500  1
  C  C4319  1  0.331500  0.542300  0.150500  1
  C  C4320  1  0.331500  0.957700  0.849500  1
  C  C4321  1  0.080700  0.508100  0.386200  1
  C  C4322  1  0.080700  0.991900  0.613800  1
  C  C4323  1  0.580700  0.508100  0.886200  1
  C  C4324  1  0.580700  0.991900  0.113800  1
  C  C4325  1  0.919300  0.491900  0.613800  1
  C  C4326  1  0.919300  0.008100  0.386200  1
  C  C4327  1  0.419300  0.491900  0.113800  1
  C  C4328  1  0.419300  0.008100  0.886200  1
  C  C4329  1  0.071200  0.489000  0.410000  1
  C  C4330  1  0.071200  0.011000  0.590000  1
  C  C4331  1  0.571200  0.489000  0.910000  1
  C  C4332  1  0.571200  0.011000  0.090000  1
  C  C4333  1  0.928800  0.511000  0.590000  1
  C  C4334  1  0.928800  0.989000  0.410000  1
  C  C4335  1  0.428800  0.511000  0.090000  1
  C  C4336  1  0.428800  0.989000  0.910000  1
  C  C4337  1  0.983900  0.486700  0.412400  1
  C  C4338  1  0.983900  0.013300  0.587600  1
  C  C4339  1  0.483900  0.486700  0.912400  1
  C  C4340  1  0.483900  0.013300  0.087600  1
  C  C4341  1  0.016100  0.513300  0.587600  1
  C  C4342  1  0.016100  0.986700  0.412400  1
  C  C4343  1  0.516100  0.513300  0.087600  1
  C  C4344  1  0.516100  0.986700  0.912400  1
  C  C4345  1  0.944700  0.504600  0.425300  1
  C  C4346  1  0.944700  0.995400  0.574700  1
  C  C4347  1  0.444700  0.504600  0.925300  1
  C  C4348  1  0.444700  0.995400  0.074700  1
  C  C4349  1  0.055300  0.495400  0.574700  1
  C  C4350  1  0.055300  0.004600  0.425300  1
  C  C4351  1  0.555300  0.495400  0.074700  1
  C  C4352  1  0.555300  0.004600  0.925300  1
  C  C4353  1  0.969700  0.522900  0.446700  1
  C  C4354  1  0.969700  0.977100  0.553300  1
  C  C4355  1  0.469700  0.522900  0.946700  1
  C  C4356  1  0.469700  0.977100  0.053300  1
  C  C4357  1  0.030300  0.477100  0.553300  1
  C  C4358  1  0.030300  0.022900  0.446700  1
  C  C4359  1  0.530300  0.477100  0.053300  1
  C  C4360  1  0.530300  0.022900  0.946700  1
  C  C4361  1  0.021300  0.517500  0.442100  1
  C  C4362  1  0.021300  0.982500  0.557900  1
  C  C4363  1  0.521300  0.517500  0.942100  1
  C  C4364  1  0.521300  0.982500  0.057900  1
  C  C4365  1  0.978700  0.482500  0.557900  1
  C  C4366  1  0.978700  0.017500  0.442100  1
  C  C4367  1  0.478700  0.482500  0.057900  1
  C  C4368  1  0.478700  0.017500  0.942100  1
  C  C4369  1  0.909900  0.481700  0.439100  1
  C  C4370  1  0.909900  0.018300  0.560900  1
  C  C4371  1  0.409900  0.481700  0.939100  1
  C  C4372  1  0.409900  0.018300  0.060900  1
  C  C4373  1  0.090100  0.518300  0.560900  1
  C  C4374  1  0.090100  0.981700  0.439100  1
  C  C4375  1  0.590100  0.518300  0.060900  1
  C  C4376  1  0.590100  0.981700  0.939100  1
  C  C4377  1  0.941000  0.456200  0.451000  1
  C  C4378  1  0.941000  0.043800  0.549000  1
  C  C4379  1  0.441000  0.456200  0.951000  1
  C  C4380  1  0.441000  0.043800  0.049000  1
  C  C4381  1  0.059000  0.543800  0.549000  1
  C  C4382  1  0.059000  0.956200  0.451000  1
  C  C4383  1  0.559000  0.543800  0.049000  1
  C  C4384  1  0.559000  0.956200  0.951000  1
  C  C4385  1  0.963900  0.470600  0.469100  1
  C  C4386  1  0.963900  0.029400  0.530900  1
  C  C4387  1  0.463900  0.470600  0.969100  1
  C  C4388  1  0.463900  0.029400  0.030900  1
  C  C4389  1  0.036100  0.529400  0.530900  1
  C  C4390  1  0.036100  0.970600  0.469100  1
  C  C4391  1  0.536100  0.529400  0.030900  1
  C  C4392  1  0.536100  0.970600  0.969100  1
  C  C4393  1  0.949100  0.505800  0.470100  1
  C  C4394  1  0.949100  0.994200  0.529900  1
  C  C4395  1  0.449100  0.505800  0.970100  1
  C  C4396  1  0.449100  0.994200  0.029900  1
  C  C4397  1  0.050900  0.494200  0.529900  1
  C  C4398  1  0.050900  0.005800  0.470100  1
  C  C4399  1  0.550900  0.494200  0.029900  1
  C  C4400  1  0.550900  0.005800  0.970100  1
  C  C4401  1  0.897600  0.502000  0.462100  1
  C  C4402  1  0.897600  0.998000  0.537900  1
  C  C4403  1  0.397600  0.502000  0.962100  1
  C  C4404  1  0.397600  0.998000  0.037900  1
  C  C4405  1  0.102400  0.498000  0.537900  1
  C  C4406  1  0.102400  0.002000  0.462100  1
  C  C4407  1  0.602400  0.498000  0.037900  1
  C  C4408  1  0.602400  0.002000  0.962100  1
  C  C4409  1  0.685300  0.794200  0.397400  1
  C  C4410  1  0.685300  0.705800  0.602600  1
  C  C4411  1  0.185300  0.794200  0.897400  1
  C  C4412  1  0.185300  0.705800  0.102600  1
  C  C4413  1  0.314700  0.205800  0.602600  1
  C  C4414  1  0.314700  0.294200  0.397400  1
  C  C4415  1  0.814700  0.205800  0.102600  1
  C  C4416  1  0.814700  0.294200  0.897400  1
  C  C4417  1  0.732300  0.778700  0.392600  1
  C  C4418  1  0.732300  0.721300  0.607400  1
  C  C4419  1  0.232300  0.778700  0.892600  1
  C  C4420  1  0.232300  0.721300  0.107400  1
  C  C4421  1  0.267700  0.221300  0.607400  1
  C  C4422  1  0.267700  0.278700  0.392600  1
  C  C4423  1  0.767700  0.221300  0.107400  1
  C  C4424  1  0.767700  0.278700  0.892600  1
  C  C4425  1  0.729000  0.745000  0.405500  1
  C  C4426  1  0.729000  0.755000  0.594500  1
  C  C4427  1  0.229000  0.745000  0.905500  1
  C  C4428  1  0.229000  0.755000  0.094500  1
  C  C4429  1  0.271000  0.255000  0.594500  1
  C  C4430  1  0.271000  0.245000  0.405500  1
  C  C4431  1  0.771000  0.255000  0.094500  1
  C  C4432  1  0.771000  0.245000  0.905500  1
  C  C4433  1  0.680300  0.744000  0.416200  1
  C  C4434  1  0.680300  0.756000  0.583800  1
  C  C4435  1  0.180300  0.744000  0.916200  1
  C  C4436  1  0.180300  0.756000  0.083800  1
  C  C4437  1  0.319700  0.256000  0.583800  1
  C  C4438  1  0.319700  0.244000  0.416200  1
  C  C4439  1  0.819700  0.256000  0.083800  1
  C  C4440  1  0.819700  0.244000  0.916200  1
  C  C4441  1  0.742800  0.769500  0.365300  1
  C  C4442  1  0.742800  0.730500  0.634700  1
  C  C4443  1  0.242800  0.769500  0.865300  1
  C  C4444  1  0.242800  0.730500  0.134700  1
  C  C4445  1  0.257200  0.230500  0.634700  1
  C  C4446  1  0.257200  0.269500  0.365300  1
  C  C4447  1  0.757200  0.230500  0.134700  1
  C  C4448  1  0.757200  0.269500  0.865300  1
  C  C4449  1  0.700300  0.751800  0.355400  1
  C  C4450  1  0.700300  0.748200  0.644600  1
  C  C4451  1  0.200300  0.751800  0.855400  1
  C  C4452  1  0.200300  0.748200  0.144600  1
  C  C4453  1  0.299700  0.248200  0.644600  1
  C  C4454  1  0.299700  0.251800  0.355400  1
  C  C4455  1  0.799700  0.248200  0.144600  1
  C  C4456  1  0.799700  0.251800  0.855400  1
  C  C4457  1  0.698600  0.723200  0.366000  1
  C  C4458  1  0.698600  0.776800  0.634000  1
  C  C4459  1  0.198600  0.723200  0.866000  1
  C  C4460  1  0.198600  0.776800  0.134000  1
  C  C4461  1  0.301400  0.276800  0.634000  1
  C  C4462  1  0.301400  0.223200  0.366000  1
  C  C4463  1  0.801400  0.276800  0.134000  1
  C  C4464  1  0.801400  0.223200  0.866000  1
  C  C4465  1  0.739000  0.721000  0.384000  1
  C  C4466  1  0.739000  0.779000  0.616000  1
  C  C4467  1  0.239000  0.721000  0.884000  1
  C  C4468  1  0.239000  0.779000  0.116000  1
  C  C4469  1  0.261000  0.279000  0.616000  1
  C  C4470  1  0.261000  0.221000  0.384000  1
  C  C4471  1  0.761000  0.279000  0.116000  1
  C  C4472  1  0.761000  0.221000  0.884000  1
  C  C4473  1  0.775800  0.740500  0.369600  1
  C  C4474  1  0.775800  0.759500  0.630400  1
  C  C4475  1  0.275800  0.740500  0.869600  1
  C  C4476  1  0.275800  0.759500  0.130400  1
  C  C4477  1  0.224200  0.259500  0.630400  1
  C  C4478  1  0.224200  0.240500  0.369600  1
  C  C4479  1  0.724200  0.259500  0.130400  1
  C  C4480  1  0.724200  0.240500  0.869600  1
  C  C4481  1  0.608700  0.779000  0.416800  1
  C  C4482  1  0.608700  0.721000  0.583200  1
  C  C4483  1  0.108700  0.779000  0.916800  1
  C  C4484  1  0.108700  0.721000  0.083200  1
  C  C4485  1  0.391300  0.221000  0.583200  1
  C  C4486  1  0.391300  0.279000  0.416800  1
  C  C4487  1  0.891300  0.221000  0.083200  1
  C  C4488  1  0.891300  0.279000  0.916800  1
  C  C4489  1  0.577600  0.782000  0.393700  1
  C  C4490  1  0.577600  0.718000  0.606300  1
  C  C4491  1  0.077600  0.782000  0.893700  1
  C  C4492  1  0.077600  0.718000  0.106300  1
  C  C4493  1  0.422400  0.218000  0.606300  1
  C  C4494  1  0.422400  0.282000  0.393700  1
  C  C4495  1  0.922400  0.218000  0.106300  1
  C  C4496  1  0.922400  0.282000  0.893700  1
  C  C4497  1  0.570500  0.750100  0.380300  1
  C  C4498  1  0.570500  0.749900  0.619700  1
  C  C4499  1  0.070500  0.750100  0.880300  1
  C  C4500  1  0.070500  0.749900  0.119700  1
  C  C4501  1  0.429500  0.249900  0.619700  1
  C  C4502  1  0.429500  0.250100  0.380300  1
  C  C4503  1  0.929500  0.249900  0.119700  1
  C  C4504  1  0.929500  0.250100  0.880300  1
  C  C4505  1  0.578800  0.747800  0.355100  1
  C  C4506  1  0.578800  0.752200  0.644900  1
  C  C4507  1  0.078800  0.747800  0.855100  1
  C  C4508  1  0.078800  0.752200  0.144900  1
  C  C4509  1  0.421200  0.252200  0.644900  1
  C  C4510  1  0.421200  0.247800  0.355100  1
  C  C4511  1  0.921200  0.252200  0.144900  1
  C  C4512  1  0.921200  0.247800  0.855100  1
  C  C4513  1  0.570000  0.719500  0.342200  1
  C  C4514  1  0.570000  0.780500  0.657800  1
  C  C4515  1  0.070000  0.719500  0.842200  1
  C  C4516  1  0.070000  0.780500  0.157800  1
  C  C4517  1  0.430000  0.280500  0.657800  1
  C  C4518  1  0.430000  0.219500  0.342200  1
  C  C4519  1  0.930000  0.280500  0.157800  1
  C  C4520  1  0.930000  0.219500  0.842200  1
  C  C4521  1  0.553100  0.692500  0.354900  1
  C  C4522  1  0.553100  0.807500  0.645100  1
  C  C4523  1  0.053100  0.692500  0.854900  1
  C  C4524  1  0.053100  0.807500  0.145100  1
  C  C4525  1  0.446900  0.307500  0.645100  1
  C  C4526  1  0.446900  0.192500  0.354900  1
  C  C4527  1  0.946900  0.307500  0.145100  1
  C  C4528  1  0.946900  0.192500  0.854900  1
  C  C4529  1  0.545600  0.694500  0.380000  1
  C  C4530  1  0.545600  0.805500  0.620000  1
  C  C4531  1  0.045600  0.694500  0.880000  1
  C  C4532  1  0.045600  0.805500  0.120000  1
  C  C4533  1  0.454400  0.305500  0.620000  1
  C  C4534  1  0.454400  0.194500  0.380000  1
  C  C4535  1  0.954400  0.305500  0.120000  1
  C  C4536  1  0.954400  0.194500  0.880000  1
  C  C4537  1  0.554500  0.723100  0.392900  1
  C  C4538  1  0.554500  0.776900  0.607100  1
  C  C4539  1  0.054500  0.723100  0.892900  1
  C  C4540  1  0.054500  0.776900  0.107100  1
  C  C4541  1  0.445500  0.276900  0.607100  1
  C  C4542  1  0.445500  0.223100  0.392900  1
  C  C4543  1  0.945500  0.276900  0.107100  1
  C  C4544  1  0.945500  0.223100  0.892900  1
  C  C4545  1  0.579800  0.649500  0.331700  1
  C  C4546  1  0.579800  0.850500  0.668300  1
  C  C4547  1  0.079800  0.649500  0.831700  1
  C  C4548  1  0.079800  0.850500  0.168300  1
  C  C4549  1  0.420200  0.350500  0.668300  1
  C  C4550  1  0.420200  0.149500  0.331700  1
  C  C4551  1  0.920200  0.350500  0.168300  1
  C  C4552  1  0.920200  0.149500  0.831700  1
  C  C4553  1  0.568800  0.621800  0.316140  1
  C  C4554  1  0.568800  0.878200  0.683860  1
  C  C4555  1  0.068800  0.621800  0.816140  1
  C  C4556  1  0.068800  0.878200  0.183860  1
  C  C4557  1  0.431200  0.378200  0.683860  1
  C  C4558  1  0.431200  0.121800  0.316140  1
  C  C4559  1  0.931200  0.378200  0.183860  1
  C  C4560  1  0.931200  0.121800  0.816140  1
  C  C4561  1  0.601900  0.604000  0.303200  1
  C  C4562  1  0.601900  0.896000  0.696800  1
  C  C4563  1  0.101900  0.604000  0.803200  1
  C  C4564  1  0.101900  0.896000  0.196800  1
  C  C4565  1  0.398100  0.396000  0.696800  1
  C  C4566  1  0.398100  0.104000  0.303200  1
  C  C4567  1  0.898100  0.396000  0.196800  1
  C  C4568  1  0.898100  0.104000  0.803200  1
  C  C4569  1  0.587400  0.578800  0.288100  1
  C  C4570  1  0.587400  0.921200  0.711900  1
  C  C4571  1  0.087400  0.578800  0.788100  1
  C  C4572  1  0.087400  0.921200  0.211900  1
  C  C4573  1  0.412600  0.421200  0.711900  1
  C  C4574  1  0.412600  0.078800  0.288100  1
  C  C4575  1  0.912600  0.421200  0.211900  1
  C  C4576  1  0.912600  0.078800  0.788100  1
  C  C4577  1  0.540000  0.572700  0.285080  1
  C  C4578  1  0.540000  0.927300  0.714920  1
  C  C4579  1  0.040000  0.572700  0.785080  1
  C  C4580  1  0.040000  0.927300  0.214920  1
  C  C4581  1  0.460000  0.427300  0.714920  1
  C  C4582  1  0.460000  0.072700  0.285080  1
  C  C4583  1  0.960000  0.427300  0.214920  1
  C  C4584  1  0.960000  0.072700  0.785080  1
  C  C4585  1  0.508400  0.590000  0.299370  1
  C  C4586  1  0.508400  0.910000  0.700630  1
  C  C4587  1  0.008400  0.590000  0.799370  1
  C  C4588  1  0.008400  0.910000  0.200630  1
  C  C4589  1  0.491600  0.410000  0.700630  1
  C  C4590  1  0.491600  0.090000  0.299370  1
  C  C4591  1  0.991600  0.410000  0.200630  1
  C  C4592  1  0.991600  0.090000  0.799370  1
  C  C4593  1  0.541800  0.519000  0.264300  1
  C  C4594  1  0.541800  0.981000  0.735700  1
  C  C4595  1  0.041800  0.519000  0.764300  1
  C  C4596  1  0.041800  0.981000  0.235700  1
  C  C4597  1  0.458200  0.481000  0.735700  1
  C  C4598  1  0.458200  0.019000  0.264300  1
  C  C4599  1  0.958200  0.481000  0.235700  1
  C  C4600  1  0.958200  0.019000  0.764300  1
  C  C4601  1  0.521300  0.548700  0.267820  1
  C  C4602  1  0.521300  0.951300  0.732180  1
  C  C4603  1  0.021300  0.548700  0.767820  1
  C  C4604  1  0.021300  0.951300  0.232180  1
  C  C4605  1  0.478700  0.451300  0.732180  1
  C  C4606  1  0.478700  0.048700  0.267820  1
  C  C4607  1  0.978700  0.451300  0.232180  1
  C  C4608  1  0.978700  0.048700  0.767820  1
  C  C4609  1  0.484500  0.557100  0.252000  1
  C  C4610  1  0.484500  0.942900  0.748000  1
  C  C4611  1  0.984500  0.557100  0.752000  1
  C  C4612  1  0.984500  0.942900  0.248000  1
  C  C4613  1  0.515500  0.442900  0.748000  1
  C  C4614  1  0.515500  0.057100  0.252000  1
  C  C4615  1  0.015500  0.442900  0.248000  1
  C  C4616  1  0.015500  0.057100  0.752000  1
  C  C4617  1  0.471700  0.536400  0.232900  1
  C  C4618  1  0.471700  0.963600  0.767100  1
  C  C4619  1  0.971700  0.536400  0.732900  1
  C  C4620  1  0.971700  0.963600  0.267100  1
  C  C4621  1  0.528300  0.463600  0.767100  1
  C  C4622  1  0.528300  0.036400  0.232900  1
  C  C4623  1  0.028300  0.463600  0.267100  1
  C  C4624  1  0.028300  0.036400  0.732900  1
  C  C4625  1  0.495100  0.507100  0.230450  1
  C  C4626  1  0.495100  0.992900  0.769550  1
  C  C4627  1  0.995100  0.507100  0.730450  1
  C  C4628  1  0.995100  0.992900  0.269550  1
  C  C4629  1  0.504900  0.492900  0.769550  1
  C  C4630  1  0.504900  0.007100  0.230450  1
  C  C4631  1  0.004900  0.492900  0.269550  1
  C  C4632  1  0.004900  0.007100  0.730450  1
  C  C4633  1  0.485800  0.484400  0.210500  1
  C  C4634  1  0.485800  0.015600  0.789500  1
  C  C4635  1  0.985800  0.484400  0.710500  1
  C  C4636  1  0.985800  0.015600  0.289500  1
  C  C4637  1  0.514200  0.515600  0.789500  1
  C  C4638  1  0.514200  0.984400  0.210500  1
  C  C4639  1  0.014200  0.515600  0.289500  1
  C  C4640  1  0.014200  0.984400  0.710500  1
  C  C4641  1  0.504900  0.436800  0.190500  1
  C  C4642  1  0.504900  0.063200  0.809500  1
  C  C4643  1  0.004900  0.436800  0.690500  1
  C  C4644  1  0.004900  0.063200  0.309500  1
  C  C4645  1  0.495100  0.563200  0.809500  1
  C  C4646  1  0.495100  0.936800  0.190500  1
  C  C4647  1  0.995100  0.563200  0.309500  1
  C  C4648  1  0.995100  0.936800  0.690500  1
  C  C4649  1  0.483600  0.406700  0.192600  1
  C  C4650  1  0.483600  0.093300  0.807400  1
  C  C4651  1  0.983600  0.406700  0.692600  1
  C  C4652  1  0.983600  0.093300  0.307400  1
  C  C4653  1  0.516400  0.593300  0.807400  1
  C  C4654  1  0.516400  0.906700  0.192600  1
  C  C4655  1  0.016400  0.593300  0.307400  1
  C  C4656  1  0.016400  0.906700  0.692600  1
  C  C4657  1  0.479900  0.386600  0.172100  1
  C  C4658  1  0.479900  0.113400  0.827900  1
  C  C4659  1  0.979900  0.386600  0.672100  1
  C  C4660  1  0.979900  0.113400  0.327900  1
  C  C4661  1  0.520100  0.613400  0.827900  1
  C  C4662  1  0.520100  0.886600  0.172100  1
  C  C4663  1  0.020100  0.613400  0.327900  1
  C  C4664  1  0.020100  0.886600  0.672100  1
  C  C4665  1  0.497500  0.395800  0.149300  1
  C  C4666  1  0.497500  0.104200  0.850700  1
  C  C4667  1  0.997500  0.395800  0.649300  1
  C  C4668  1  0.997500  0.104200  0.350700  1
  C  C4669  1  0.502500  0.604200  0.850700  1
  C  C4670  1  0.502500  0.895800  0.149300  1
  C  C4671  1  0.002500  0.604200  0.350700  1
  C  C4672  1  0.002500  0.895800  0.649300  1
  C  C4673  1  0.518500  0.425900  0.147200  1
  C  C4674  1  0.518500  0.074100  0.852800  1
  C  C4675  1  0.018500  0.425900  0.647200  1
  C  C4676  1  0.018500  0.074100  0.352800  1
  C  C4677  1  0.481500  0.574100  0.852800  1
  C  C4678  1  0.481500  0.925900  0.147200  1
  C  C4679  1  0.981500  0.574100  0.352800  1
  C  C4680  1  0.981500  0.925900  0.647200  1
  C  C4681  1  0.522200  0.446300  0.167500  1
  C  C4682  1  0.522200  0.053700  0.832500  1
  C  C4683  1  0.022200  0.446300  0.667500  1
  C  C4684  1  0.022200  0.053700  0.332500  1
  C  C4685  1  0.477800  0.553700  0.832500  1
  C  C4686  1  0.477800  0.946300  0.167500  1
  C  C4687  1  0.977800  0.553700  0.332500  1
  C  C4688  1  0.977800  0.946300  0.667500  1
  C  C4689  1  0.493000  0.373200  0.127300  1
  C  C4690  1  0.493000  0.126800  0.872700  1
  C  C4691  1  0.993000  0.373200  0.627300  1
  C  C4692  1  0.993000  0.126800  0.372700  1
  C  C4693  1  0.507000  0.626800  0.872700  1
  C  C4694  1  0.507000  0.873200  0.127300  1
  C  C4695  1  0.007000  0.626800  0.372700  1
  C  C4696  1  0.007000  0.873200  0.627300  1
  C  C4697  1  0.451700  0.383800  0.111000  1
  C  C4698  1  0.451700  0.116200  0.889000  1
  C  C4699  1  0.951700  0.383800  0.611000  1
  C  C4700  1  0.951700  0.116200  0.389000  1
  C  C4701  1  0.548300  0.616200  0.889000  1
  C  C4702  1  0.548300  0.883800  0.111000  1
  C  C4703  1  0.048300  0.616200  0.389000  1
  C  C4704  1  0.048300  0.883800  0.611000  1
  C  C4705  1  0.491500  0.384700  0.069500  1
  C  C4706  1  0.491500  0.115300  0.930500  1
  C  C4707  1  0.991500  0.384700  0.569500  1
  C  C4708  1  0.991500  0.115300  0.430500  1
  C  C4709  1  0.508500  0.615300  0.930500  1
  C  C4710  1  0.508500  0.884700  0.069500  1
  C  C4711  1  0.008500  0.615300  0.430500  1
  C  C4712  1  0.008500  0.884700  0.569500  1
  C  C4713  1  0.486600  0.367500  0.044700  1
  C  C4714  1  0.486600  0.132500  0.955300  1
  C  C4715  1  0.986600  0.367500  0.544700  1
  C  C4716  1  0.986600  0.132500  0.455300  1
  C  C4717  1  0.513400  0.632500  0.955300  1
  C  C4718  1  0.513400  0.867500  0.044700  1
  C  C4719  1  0.013400  0.632500  0.455300  1
  C  C4720  1  0.013400  0.867500  0.544700  1
  C  C4721  1  0.452200  0.339400  0.050000  1
  C  C4722  1  0.452200  0.160600  0.950000  1
  C  C4723  1  0.952200  0.339400  0.550000  1
  C  C4724  1  0.952200  0.160600  0.450000  1
  C  C4725  1  0.547800  0.660600  0.950000  1
  C  C4726  1  0.547800  0.839400  0.050000  1
  C  C4727  1  0.047800  0.660600  0.450000  1
  C  C4728  1  0.047800  0.839400  0.550000  1
  C  C4729  1  0.434800  0.345900  0.076100  1
  C  C4730  1  0.434800  0.154100  0.923900  1
  C  C4731  1  0.934800  0.345900  0.576100  1
  C  C4732  1  0.934800  0.154100  0.423900  1
  C  C4733  1  0.565200  0.654100  0.923900  1
  C  C4734  1  0.565200  0.845900  0.076100  1
  C  C4735  1  0.065200  0.654100  0.423900  1
  C  C4736  1  0.065200  0.845900  0.576100  1
  C  C4737  1  0.534100  0.349200  0.038800  1
  C  C4738  1  0.534100  0.150800  0.961200  1
  C  C4739  1  0.034100  0.349200  0.538800  1
  C  C4740  1  0.034100  0.150800  0.461200  1
  C  C4741  1  0.465900  0.650800  0.961200  1
  C  C4742  1  0.465900  0.849200  0.038800  1
  C  C4743  1  0.965900  0.650800  0.461200  1
  C  C4744  1  0.965900  0.849200  0.538800  1
  C  C4745  1  0.547900  0.337700  0.064500  1
  C  C4746  1  0.547900  0.162300  0.935500  1
  C  C4747  1  0.047900  0.337700  0.564500  1
  C  C4748  1  0.047900  0.162300  0.435500  1
  C  C4749  1  0.452100  0.662300  0.935500  1
  C  C4750  1  0.452100  0.837700  0.064500  1
  C  C4751  1  0.952100  0.662300  0.435500  1
  C  C4752  1  0.952100  0.837700  0.564500  1
  C  C4753  1  0.518200  0.314600  0.070900  1
  C  C4754  1  0.518200  0.185400  0.929100  1
  C  C4755  1  0.018200  0.314600  0.570900  1
  C  C4756  1  0.018200  0.185400  0.429100  1
  C  C4757  1  0.481800  0.685400  0.929100  1
  C  C4758  1  0.481800  0.814600  0.070900  1
  C  C4759  1  0.981800  0.685400  0.429100  1
  C  C4760  1  0.981800  0.814600  0.570900  1
  C  C4761  1  0.485100  0.308800  0.049600  1
  C  C4762  1  0.485100  0.191200  0.950400  1
  C  C4763  1  0.985100  0.308800  0.549600  1
  C  C4764  1  0.985100  0.191200  0.450400  1
  C  C4765  1  0.514900  0.691200  0.950400  1
  C  C4766  1  0.514900  0.808800  0.049600  1
  C  C4767  1  0.014900  0.691200  0.450400  1
  C  C4768  1  0.014900  0.808800  0.549600  1
  C  C4769  1  0.515300  0.318000  0.027200  1
  C  C4770  1  0.515300  0.182000  0.972800  1
  C  C4771  1  0.015300  0.318000  0.527200  1
  C  C4772  1  0.015300  0.182000  0.472800  1
  C  C4773  1  0.484700  0.682000  0.972800  1
  C  C4774  1  0.484700  0.818000  0.027200  1
  C  C4775  1  0.984700  0.682000  0.472800  1
  C  C4776  1  0.984700  0.818000  0.527200  1
  C  C4777  1  0.692700  0.535900  0.324900  1
  C  C4778  1  0.692700  0.964100  0.675100  1
  C  C4779  1  0.192700  0.535900  0.824900  1
  C  C4780  1  0.192700  0.964100  0.175100  1
  C  C4781  1  0.307300  0.464100  0.675100  1
  C  C4782  1  0.307300  0.035900  0.324900  1
  C  C4783  1  0.807300  0.464100  0.175100  1
  C  C4784  1  0.807300  0.035900  0.824900  1
  C  C4785  1  0.743000  0.533600  0.323500  1
  C  C4786  1  0.743000  0.966400  0.676500  1
  C  C4787  1  0.243000  0.533600  0.823500  1
  C  C4788  1  0.243000  0.966400  0.176500  1
  C  C4789  1  0.257000  0.466400  0.676500  1
  C  C4790  1  0.257000  0.033600  0.323500  1
  C  C4791  1  0.757000  0.466400  0.176500  1
  C  C4792  1  0.757000  0.033600  0.823500  1
  C  C4793  1  0.402100  0.537300  0.447500  1
  C  C4794  1  0.402100  0.962700  0.552500  1
  C  C4795  1  0.902100  0.537300  0.947500  1
  C  C4796  1  0.902100  0.962700  0.052500  1
  C  C4797  1  0.597900  0.462700  0.552500  1
  C  C4798  1  0.597900  0.037300  0.447500  1
  C  C4799  1  0.097900  0.462700  0.052500  1
  C  C4800  1  0.097900  0.037300  0.947500  1
  C  C4801  1  0.425100  0.533700  0.423700  1
  C  C4802  1  0.425100  0.966300  0.576300  1
  C  C4803  1  0.925100  0.533700  0.923700  1
  C  C4804  1  0.925100  0.966300  0.076300  1
  C  C4805  1  0.574900  0.466300  0.576300  1
  C  C4806  1  0.574900  0.033700  0.423700  1
  C  C4807  1  0.074900  0.466300  0.076300  1
  C  C4808  1  0.074900  0.033700  0.923700  1
  C  C4809  1  0.726100  0.445300  0.418100  1
  C  C4810  1  0.726100  0.054700  0.581900  1
  C  C4811  1  0.226100  0.445300  0.918100  1
  C  C4812  1  0.226100  0.054700  0.081900  1
  C  C4813  1  0.273900  0.554700  0.581900  1
  C  C4814  1  0.273900  0.945300  0.418100  1
  C  C4815  1  0.773900  0.554700  0.081900  1
  C  C4816  1  0.773900  0.945300  0.918100  1
  C  C4817  1  0.755300  0.458000  0.436400  1
  C  C4818  1  0.755300  0.042000  0.563600  1
  C  C4819  1  0.255300  0.458000  0.936400  1
  C  C4820  1  0.255300  0.042000  0.063600  1
  C  C4821  1  0.244700  0.542000  0.563600  1
  C  C4822  1  0.244700  0.958000  0.436400  1
  C  C4823  1  0.744700  0.542000  0.063600  1
  C  C4824  1  0.744700  0.958000  0.936400  1
  C  C4825  1  0.791000  0.439100  0.446100  1
  C  C4826  1  0.791000  0.060900  0.553900  1
  C  C4827  1  0.291000  0.439100  0.946100  1
  C  C4828  1  0.291000  0.060900  0.053900  1
  C  C4829  1  0.209000  0.560900  0.553900  1
  C  C4830  1  0.209000  0.939100  0.446100  1
  C  C4831  1  0.709000  0.560900  0.053900  1
  C  C4832  1  0.709000  0.939100  0.946100  1
  C  C4833  1  0.798600  0.407900  0.437300  1
  C  C4834  1  0.798600  0.092100  0.562700  1
  C  C4835  1  0.298600  0.407900  0.937300  1
  C  C4836  1  0.298600  0.092100  0.062700  1
  C  C4837  1  0.201400  0.592100  0.562700  1
  C  C4838  1  0.201400  0.907900  0.437300  1
  C  C4839  1  0.701400  0.592100  0.062700  1
  C  C4840  1  0.701400  0.907900  0.937300  1
  C  C4841  1  0.770600  0.396100  0.418400  1
  C  C4842  1  0.770600  0.103900  0.581600  1
  C  C4843  1  0.270600  0.396100  0.918400  1
  C  C4844  1  0.270600  0.103900  0.081600  1
  C  C4845  1  0.229400  0.603900  0.581600  1
  C  C4846  1  0.229400  0.896100  0.418400  1
  C  C4847  1  0.729400  0.603900  0.081600  1
  C  C4848  1  0.729400  0.896100  0.918400  1
  C  C4849  1  0.734400  0.414700  0.408800  1
  C  C4850  1  0.734400  0.085300  0.591200  1
  C  C4851  1  0.234400  0.414700  0.908800  1
  C  C4852  1  0.234400  0.085300  0.091200  1
  C  C4853  1  0.265600  0.585300  0.591200  1
  C  C4854  1  0.265600  0.914700  0.408800  1
  C  C4855  1  0.765600  0.585300  0.091200  1
  C  C4856  1  0.765600  0.914700  0.908800  1
  C  C4857  1  0.836200  0.386500  0.448700  1
  C  C4858  1  0.836200  0.113500  0.551300  1
  C  C4859  1  0.336200  0.386500  0.948700  1
  C  C4860  1  0.336200  0.113500  0.051300  1
  C  C4861  1  0.163800  0.613500  0.551300  1
  C  C4862  1  0.163800  0.886500  0.448700  1
  C  C4863  1  0.663800  0.613500  0.051300  1
  C  C4864  1  0.663800  0.886500  0.948700  1
  C  C4865  1  0.861100  0.367400  0.428200  1
  C  C4866  1  0.861100  0.132600  0.571800  1
  C  C4867  1  0.361100  0.367400  0.928200  1
  C  C4868  1  0.361100  0.132600  0.071800  1
  C  C4869  1  0.138900  0.632600  0.571800  1
  C  C4870  1  0.138900  0.867400  0.428200  1
  C  C4871  1  0.638900  0.632600  0.071800  1
  C  C4872  1  0.638900  0.867400  0.928200  1
  C  C4873  1  0.920500  0.345000  0.413100  1
  C  C4874  1  0.920500  0.155000  0.586900  1
  C  C4875  1  0.420500  0.345000  0.913100  1
  C  C4876  1  0.420500  0.155000  0.086900  1
  C  C4877  1  0.079500  0.655000  0.586900  1
  C  C4878  1  0.079500  0.845000  0.413100  1
  C  C4879  1  0.579500  0.655000  0.086900  1
  C  C4880  1  0.579500  0.845000  0.913100  1
  C  C4881  1  0.972500  0.338600  0.412000  1
  C  C4882  1  0.972500  0.161400  0.588000  1
  C  C4883  1  0.472500  0.338600  0.912000  1
  C  C4884  1  0.472500  0.161400  0.088000  1
  C  C4885  1  0.027500  0.661400  0.588000  1
  C  C4886  1  0.027500  0.838600  0.412000  1
  C  C4887  1  0.527500  0.661400  0.088000  1
  C  C4888  1  0.527500  0.838600  0.912000  1
  C  C4889  1  0.993500  0.361300  0.432100  1
  C  C4890  1  0.993500  0.138700  0.567900  1
  C  C4891  1  0.493500  0.361300  0.932100  1
  C  C4892  1  0.493500  0.138700  0.067900  1
  C  C4893  1  0.006500  0.638700  0.567900  1
  C  C4894  1  0.006500  0.861300  0.432100  1
  C  C4895  1  0.506500  0.638700  0.067900  1
  C  C4896  1  0.506500  0.861300  0.932100  1
  C  C4897  1  0.951500  0.374500  0.445800  1
  C  C4898  1  0.951500  0.125500  0.554200  1
  C  C4899  1  0.451500  0.374500  0.945800  1
  C  C4900  1  0.451500  0.125500  0.054200  1
  C  C4901  1  0.048500  0.625500  0.554200  1
  C  C4902  1  0.048500  0.874500  0.445800  1
  C  C4903  1  0.548500  0.625500  0.054200  1
  C  C4904  1  0.548500  0.874500  0.945800  1
  C  C4905  1  0.998800  0.349400  0.388200  1
  C  C4906  1  0.998800  0.150600  0.611800  1
  C  C4907  1  0.498800  0.349400  0.888200  1
  C  C4908  1  0.498800  0.150600  0.111800  1
  C  C4909  1  0.001200  0.650600  0.611800  1
  C  C4910  1  0.001200  0.849400  0.388200  1
  C  C4911  1  0.501200  0.650600  0.111800  1
  C  C4912  1  0.501200  0.849400  0.888200  1
  C  C4913  1  0.980200  0.382400  0.380900  1
  C  C4914  1  0.980200  0.117600  0.619100  1
  C  C4915  1  0.480200  0.382400  0.880900  1
  C  C4916  1  0.480200  0.117600  0.119100  1
  C  C4917  1  0.019800  0.617600  0.619100  1
  C  C4918  1  0.019800  0.882400  0.380900  1
  C  C4919  1  0.519800  0.617600  0.119100  1
  C  C4920  1  0.519800  0.882400  0.880900  1
  C  C4921  1  0.994000  0.403000  0.398100  1
  C  C4922  1  0.994000  0.097000  0.601900  1
  C  C4923  1  0.494000  0.403000  0.898100  1
  C  C4924  1  0.494000  0.097000  0.101900  1
  C  C4925  1  0.006000  0.597000  0.601900  1
  C  C4926  1  0.006000  0.903000  0.398100  1
  C  C4927  1  0.506000  0.597000  0.101900  1
  C  C4928  1  0.506000  0.903000  0.898100  1
  C  C4929  1  0.023600  0.384700  0.416600  1
  C  C4930  1  0.023600  0.115300  0.583400  1
  C  C4931  1  0.523600  0.384700  0.916600  1
  C  C4932  1  0.523600  0.115300  0.083400  1
  C  C4933  1  0.976400  0.615300  0.583400  1
  C  C4934  1  0.976400  0.884700  0.416600  1
  C  C4935  1  0.476400  0.615300  0.083400  1
  C  C4936  1  0.476400  0.884700  0.916600  1
  C  C4937  1  0.046600  0.360000  0.398900  1
  C  C4938  1  0.046600  0.140000  0.601100  1
  C  C4939  1  0.546600  0.360000  0.898900  1
  C  C4940  1  0.546600  0.140000  0.101100  1
  C  C4941  1  0.953400  0.640000  0.601100  1
  C  C4942  1  0.953400  0.860000  0.398900  1
  C  C4943  1  0.453400  0.640000  0.101100  1
  C  C4944  1  0.453400  0.860000  0.898900  1
  C  C4945  1  0.205500  0.477800  0.347200  1
  C  C4946  1  0.205500  0.022200  0.652800  1
  C  C4947  1  0.705500  0.477800  0.847200  1
  C  C4948  1  0.705500  0.022200  0.152800  1
  C  C4949  1  0.794500  0.522200  0.652800  1
  C  C4950  1  0.794500  0.977800  0.347200  1
  C  C4951  1  0.294500  0.522200  0.152800  1
  C  C4952  1  0.294500  0.977800  0.847200  1
  C  C4953  1  0.201900  0.503300  0.363900  1
  C  C4954  1  0.201900  0.996700  0.636100  1
  C  C4955  1  0.701900  0.503300  0.863900  1
  C  C4956  1  0.701900  0.996700  0.136100  1
  C  C4957  1  0.798100  0.496700  0.636100  1
  C  C4958  1  0.798100  0.003300  0.363900  1
  C  C4959  1  0.298100  0.496700  0.136100  1
  C  C4960  1  0.298100  0.003300  0.863900  1
  C  C4961  1  0.158100  0.514700  0.371000  1
  C  C4962  1  0.158100  0.985300  0.629000  1
  C  C4963  1  0.658100  0.514700  0.871000  1
  C  C4964  1  0.658100  0.985300  0.129000  1
  C  C4965  1  0.841900  0.485300  0.629000  1
  C  C4966  1  0.841900  0.014700  0.371000  1
  C  C4967  1  0.341900  0.485300  0.129000  1
  C  C4968  1  0.341900  0.014700  0.871000  1
  C  C4969  1  0.117700  0.500900  0.361400  1
  C  C4970  1  0.117700  0.999100  0.638600  1
  C  C4971  1  0.617700  0.500900  0.861400  1
  C  C4972  1  0.617700  0.999100  0.138600  1
  C  C4973  1  0.882300  0.499100  0.638600  1
  C  C4974  1  0.882300  0.000900  0.361400  1
  C  C4975  1  0.382300  0.499100  0.138600  1
  C  C4976  1  0.382300  0.000900  0.861400  1
  C  C4977  1  0.121400  0.475500  0.344900  1
  C  C4978  1  0.121400  0.024500  0.655100  1
  C  C4979  1  0.621400  0.475500  0.844900  1
  C  C4980  1  0.621400  0.024500  0.155100  1
  C  C4981  1  0.878600  0.524500  0.655100  1
  C  C4982  1  0.878600  0.975500  0.344900  1
  C  C4983  1  0.378600  0.524500  0.155100  1
  C  C4984  1  0.378600  0.975500  0.844900  1
  C  C4985  1  0.165000  0.463600  0.337700  1
  C  C4986  1  0.165000  0.036400  0.662300  1
  C  C4987  1  0.665000  0.463600  0.837700  1
  C  C4988  1  0.665000  0.036400  0.162300  1
  C  C4989  1  0.835000  0.536400  0.662300  1
  C  C4990  1  0.835000  0.963600  0.337700  1
  C  C4991  1  0.335000  0.536400  0.162300  1
  C  C4992  1  0.335000  0.963600  0.837700  1
  C  C4993  1  0.070200  0.514200  0.369500  1
  C  C4994  1  0.070200  0.985800  0.630500  1
  C  C4995  1  0.570200  0.514200  0.869500  1
  C  C4996  1  0.570200  0.985800  0.130500  1
  C  C4997  1  0.929800  0.485800  0.630500  1
  C  C4998  1  0.929800  0.014200  0.369500  1
  C  C4999  1  0.429800  0.485800  0.130500  1
  C  C5000  1  0.429800  0.014200  0.869500  1
  C  C5001  1  0.068800  0.512100  0.397700  1
  C  C5002  1  0.068800  0.987900  0.602300  1
  C  C5003  1  0.568800  0.512100  0.897700  1
  C  C5004  1  0.568800  0.987900  0.102300  1
  C  C5005  1  0.931200  0.487900  0.602300  1
  C  C5006  1  0.931200  0.012100  0.397700  1
  C  C5007  1  0.431200  0.487900  0.102300  1
  C  C5008  1  0.431200  0.012100  0.897700  1
  C  C5009  1  0.981500  0.516700  0.401800  1
  C  C5010  1  0.981500  0.983300  0.598200  1
  C  C5011  1  0.481500  0.516700  0.901800  1
  C  C5012  1  0.481500  0.983300  0.098200  1
  C  C5013  1  0.018500  0.483300  0.598200  1
  C  C5014  1  0.018500  0.016700  0.401800  1
  C  C5015  1  0.518500  0.483300  0.098200  1
  C  C5016  1  0.518500  0.016700  0.901800  1
  C  C5017  1  0.946900  0.533500  0.418700  1
  C  C5018  1  0.946900  0.966500  0.581300  1
  C  C5019  1  0.446900  0.533500  0.918700  1
  C  C5020  1  0.446900  0.966500  0.081300  1
  C  C5021  1  0.053100  0.466500  0.581300  1
  C  C5022  1  0.053100  0.033500  0.418700  1
  C  C5023  1  0.553100  0.466500  0.081300  1
  C  C5024  1  0.553100  0.033500  0.918700  1
  C  C5025  1  0.977300  0.555400  0.435600  1
  C  C5026  1  0.977300  0.944600  0.564400  1
  C  C5027  1  0.477300  0.555400  0.935600  1
  C  C5028  1  0.477300  0.944600  0.064400  1
  C  C5029  1  0.022700  0.444600  0.564400  1
  C  C5030  1  0.022700  0.055400  0.435600  1
  C  C5031  1  0.522700  0.444600  0.064400  1
  C  C5032  1  0.522700  0.055400  0.935600  1
  C  C5033  1  0.027100  0.548500  0.427600  1
  C  C5034  1  0.027100  0.951500  0.572400  1
  C  C5035  1  0.527100  0.548500  0.927600  1
  C  C5036  1  0.527100  0.951500  0.072400  1
  C  C5037  1  0.972900  0.451500  0.572400  1
  C  C5038  1  0.972900  0.048500  0.427600  1
  C  C5039  1  0.472900  0.451500  0.072400  1
  C  C5040  1  0.472900  0.048500  0.927600  1
  C  C5041  1  0.922600  0.510200  0.437400  1
  C  C5042  1  0.922600  0.989800  0.562600  1
  C  C5043  1  0.422600  0.510200  0.937400  1
  C  C5044  1  0.422600  0.989800  0.062600  1
  C  C5045  1  0.077400  0.489800  0.562600  1
  C  C5046  1  0.077400  0.010200  0.437400  1
  C  C5047  1  0.577400  0.489800  0.062600  1
  C  C5048  1  0.577400  0.010200  0.937400  1
  C  C5049  1  0.961900  0.489800  0.447800  1
  C  C5050  1  0.961900  0.010200  0.552200  1
  C  C5051  1  0.461900  0.489800  0.947800  1
  C  C5052  1  0.461900  0.010200  0.052200  1
  C  C5053  1  0.038100  0.510200  0.552200  1
  C  C5054  1  0.038100  0.989800  0.447800  1
  C  C5055  1  0.538100  0.510200  0.052200  1
  C  C5056  1  0.538100  0.989800  0.947800  1
  C  C5057  1  0.987900  0.508700  0.462300  1
  C  C5058  1  0.987900  0.991300  0.537700  1
  C  C5059  1  0.487900  0.508700  0.962300  1
  C  C5060  1  0.487900  0.991300  0.037700  1
  C  C5061  1  0.012100  0.491300  0.537700  1
  C  C5062  1  0.012100  0.008700  0.462300  1
  C  C5063  1  0.512100  0.491300  0.037700  1
  C  C5064  1  0.512100  0.008700  0.962300  1
  C  C5065  1  0.966600  0.542300  0.462200  1
  C  C5066  1  0.966600  0.957700  0.537800  1
  C  C5067  1  0.466600  0.542300  0.962200  1
  C  C5068  1  0.466600  0.957700  0.037800  1
  C  C5069  1  0.033400  0.457700  0.537800  1
  C  C5070  1  0.033400  0.042300  0.462200  1
  C  C5071  1  0.533400  0.457700  0.037800  1
  C  C5072  1  0.533400  0.042300  0.962200  1
  C  C5073  1  0.914600  0.533700  0.459200  1
  C  C5074  1  0.914600  0.966300  0.540800  1
  C  C5075  1  0.414600  0.533700  0.959200  1
  C  C5076  1  0.414600  0.966300  0.040800  1
  C  C5077  1  0.085400  0.466300  0.540800  1
  C  C5078  1  0.085400  0.033700  0.459200  1
  C  C5079  1  0.585400  0.466300  0.040800  1
  C  C5080  1  0.585400  0.033700  0.959200  1
  C  C5081  1  0.694600  0.802400  0.379500  1
  C  C5082  1  0.694600  0.697600  0.620500  1
  C  C5083  1  0.194600  0.802400  0.879500  1
  C  C5084  1  0.194600  0.697600  0.120500  1
  C  C5085  1  0.305400  0.197600  0.620500  1
  C  C5086  1  0.305400  0.302400  0.379500  1
  C  C5087  1  0.805400  0.197600  0.120500  1
  C  C5088  1  0.805400  0.302400  0.879500  1
  C  C5089  1  0.729600  0.797200  0.358900  1
  C  C5090  1  0.729600  0.702800  0.641100  1
  C  C5091  1  0.229600  0.797200  0.858900  1
  C  C5092  1  0.229600  0.702800  0.141100  1
  C  C5093  1  0.270400  0.202800  0.641100  1
  C  C5094  1  0.270400  0.297200  0.358900  1
  C  C5095  1  0.770400  0.202800  0.141100  1
  C  C5096  1  0.770400  0.297200  0.858900  1
  C  C5097  1  0.730500  0.760000  0.354800  1
  C  C5098  1  0.730500  0.740000  0.645200  1
  C  C5099  1  0.230500  0.760000  0.854800  1
  C  C5100  1  0.230500  0.740000  0.145200  1
  C  C5101  1  0.269500  0.240000  0.645200  1
  C  C5102  1  0.269500  0.260000  0.354800  1
  C  C5103  1  0.769500  0.240000  0.145200  1
  C  C5104  1  0.769500  0.260000  0.854800  1
  C  C5105  1  0.700500  0.746800  0.375600  1
  C  C5106  1  0.700500  0.753200  0.624400  1
  C  C5107  1  0.200500  0.746800  0.875600  1
  C  C5108  1  0.200500  0.753200  0.124400  1
  C  C5109  1  0.299500  0.253200  0.624400  1
  C  C5110  1  0.299500  0.246800  0.375600  1
  C  C5111  1  0.799500  0.253200  0.124400  1
  C  C5112  1  0.799500  0.246800  0.875600  1
  C  C5113  1  0.780700  0.804200  0.367800  1
  C  C5114  1  0.780700  0.695800  0.632200  1
  C  C5115  1  0.280700  0.804200  0.867800  1
  C  C5116  1  0.280700  0.695800  0.132200  1
  C  C5117  1  0.219300  0.195800  0.632200  1
  C  C5118  1  0.219300  0.304200  0.367800  1
  C  C5119  1  0.719300  0.195800  0.132200  1
  C  C5120  1  0.719300  0.304200  0.867800  1
  C  C5121  1  0.786700  0.785900  0.391500  1
  C  C5122  1  0.786700  0.714100  0.608500  1
  C  C5123  1  0.286700  0.785900  0.891500  1
  C  C5124  1  0.286700  0.714100  0.108500  1
  C  C5125  1  0.213300  0.214100  0.608500  1
  C  C5126  1  0.213300  0.285900  0.391500  1
  C  C5127  1  0.713300  0.214100  0.108500  1
  C  C5128  1  0.713300  0.285900  0.891500  1
  C  C5129  1  0.783900  0.751600  0.358200  1
  C  C5130  1  0.783900  0.748400  0.641800  1
  C  C5131  1  0.283900  0.751600  0.858200  1
  C  C5132  1  0.283900  0.748400  0.141800  1
  C  C5133  1  0.216100  0.248400  0.641800  1
  C  C5134  1  0.216100  0.251600  0.358200  1
  C  C5135  1  0.716100  0.248400  0.141800  1
  C  C5136  1  0.716100  0.251600  0.858200  1
  C  C5137  1  0.790000  0.754600  0.386000  1
  C  C5138  1  0.790000  0.745400  0.614000  1
  C  C5139  1  0.290000  0.754600  0.886000  1
  C  C5140  1  0.290000  0.745400  0.114000  1
  C  C5141  1  0.210000  0.245400  0.614000  1
  C  C5142  1  0.210000  0.254600  0.386000  1
  C  C5143  1  0.710000  0.245400  0.114000  1
  C  C5144  1  0.710000  0.254600  0.886000  1
  C  C5145  1  0.807800  0.782600  0.349600  1
  C  C5146  1  0.807800  0.717400  0.650400  1
  C  C5147  1  0.307800  0.782600  0.849600  1
  C  C5148  1  0.307800  0.717400  0.150400  1
  C  C5149  1  0.192200  0.217400  0.650400  1
  C  C5150  1  0.192200  0.282600  0.349600  1
  C  C5151  1  0.692200  0.217400  0.150400  1
  C  C5152  1  0.692200  0.282600  0.849600  1
  C  C5153  1  0.649200  0.768700  0.409600  1
  C  C5154  1  0.649200  0.731300  0.590400  1
  C  C5155  1  0.149200  0.768700  0.909600  1
  C  C5156  1  0.149200  0.731300  0.090400  1
  C  C5157  1  0.350800  0.231300  0.590400  1
  C  C5158  1  0.350800  0.268700  0.409600  1
  C  C5159  1  0.850800  0.231300  0.090400  1
  C  C5160  1  0.850800  0.268700  0.909600  1
  C  C5161  1  0.597600  0.771200  0.402600  1
  C  C5162  1  0.597600  0.728800  0.597400  1
  C  C5163  1  0.097600  0.771200  0.902600  1
  C  C5164  1  0.097600  0.728800  0.097400  1
  C  C5165  1  0.402400  0.228800  0.597400  1
  C  C5166  1  0.402400  0.271200  0.402600  1
  C  C5167  1  0.902400  0.228800  0.097400  1
  C  C5168  1  0.902400  0.271200  0.902600  1
  C  C5169  1  0.581200  0.742400  0.387400  1
  C  C5170  1  0.581200  0.757600  0.612600  1
  C  C5171  1  0.081200  0.742400  0.887400  1
  C  C5172  1  0.081200  0.757600  0.112600  1
  C  C5173  1  0.418800  0.257600  0.612600  1
  C  C5174  1  0.418800  0.242400  0.387400  1
  C  C5175  1  0.918800  0.257600  0.112600  1
  C  C5176  1  0.918800  0.242400  0.887400  1
  C  C5177  1  0.566200  0.747300  0.363300  1
  C  C5178  1  0.566200  0.752700  0.636700  1
  C  C5179  1  0.066200  0.747300  0.863300  1
  C  C5180  1  0.066200  0.752700  0.136700  1
  C  C5181  1  0.433800  0.252700  0.636700  1
  C  C5182  1  0.433800  0.247300  0.363300  1
  C  C5183  1  0.933800  0.252700  0.136700  1
  C  C5184  1  0.933800  0.247300  0.863300  1
  C  C5185  1  0.553700  0.721600  0.348200  1
  C  C5186  1  0.553700  0.778400  0.651800  1
  C  C5187  1  0.053700  0.721600  0.848200  1
  C  C5188  1  0.053700  0.778400  0.151800  1
  C  C5189  1  0.446300  0.278400  0.651800  1
  C  C5190  1  0.446300  0.221600  0.348200  1
  C  C5191  1  0.946300  0.278400  0.151800  1
  C  C5192  1  0.946300  0.221600  0.848200  1
  C  C5193  1  0.555200  0.690200  0.357300  1
  C  C5194  1  0.555200  0.809800  0.642700  1
  C  C5195  1  0.055200  0.690200  0.857300  1
  C  C5196  1  0.055200  0.809800  0.142700  1
  C  C5197  1  0.444800  0.309800  0.642700  1
  C  C5198  1  0.444800  0.190200  0.357300  1
  C  C5199  1  0.944800  0.309800  0.142700  1
  C  C5200  1  0.944800  0.190200  0.857300  1
  C  C5201  1  0.569400  0.685000  0.381500  1
  C  C5202  1  0.569400  0.815000  0.618500  1
  C  C5203  1  0.069400  0.685000  0.881500  1
  C  C5204  1  0.069400  0.815000  0.118500  1
  C  C5205  1  0.430600  0.315000  0.618500  1
  C  C5206  1  0.430600  0.185000  0.381500  1
  C  C5207  1  0.930600  0.315000  0.118500  1
  C  C5208  1  0.930600  0.185000  0.881500  1
  C  C5209  1  0.582100  0.711100  0.396500  1
  C  C5210  1  0.582100  0.788900  0.603500  1
  C  C5211  1  0.082100  0.711100  0.896500  1
  C  C5212  1  0.082100  0.788900  0.103500  1
  C  C5213  1  0.417900  0.288900  0.603500  1
  C  C5214  1  0.417900  0.211100  0.396500  1
  C  C5215  1  0.917900  0.288900  0.103500  1
  C  C5216  1  0.917900  0.211100  0.896500  1
  C  C5217  1  0.502800  0.436100  0.191200  1
  C  C5218  1  0.502800  0.063900  0.808800  1
  C  C5219  1  0.002800  0.436100  0.691200  1
  C  C5220  1  0.002800  0.063900  0.308800  1
  C  C5221  1  0.497200  0.563900  0.808800  1
  C  C5222  1  0.497200  0.936100  0.191200  1
  C  C5223  1  0.997200  0.563900  0.308800  1
  C  C5224  1  0.997200  0.936100  0.691200  1
  C  C5225  1  0.477700  0.407900  0.195900  1
  C  C5226  1  0.477700  0.092100  0.804100  1
  C  C5227  1  0.977700  0.407900  0.695900  1
  C  C5228  1  0.977700  0.092100  0.304100  1
  C  C5229  1  0.522300  0.592100  0.804100  1
  C  C5230  1  0.522300  0.907900  0.195900  1
  C  C5231  1  0.022300  0.592100  0.304100  1
  C  C5232  1  0.022300  0.907900  0.695900  1
  C  C5233  1  0.467000  0.386900  0.176600  1
  C  C5234  1  0.467000  0.113100  0.823400  1
  C  C5235  1  0.967000  0.386900  0.676600  1
  C  C5236  1  0.967000  0.113100  0.323400  1
  C  C5237  1  0.533000  0.613100  0.823400  1
  C  C5238  1  0.533000  0.886900  0.176600  1
  C  C5239  1  0.033000  0.613100  0.323400  1
  C  C5240  1  0.033000  0.886900  0.676600  1
  C  C5241  1  0.481000  0.393600  0.152500  1
  C  C5242  1  0.481000  0.106400  0.847500  1
  C  C5243  1  0.981000  0.393600  0.652500  1
  C  C5244  1  0.981000  0.106400  0.347500  1
  C  C5245  1  0.519000  0.606400  0.847500  1
  C  C5246  1  0.519000  0.893600  0.152500  1
  C  C5247  1  0.019000  0.606400  0.347500  1
  C  C5248  1  0.019000  0.893600  0.652500  1
  C  C5249  1  0.506800  0.421400  0.148200  1
  C  C5250  1  0.506800  0.078600  0.851800  1
  C  C5251  1  0.006800  0.421400  0.648200  1
  C  C5252  1  0.006800  0.078600  0.351800  1
  C  C5253  1  0.493200  0.578600  0.851800  1
  C  C5254  1  0.493200  0.921400  0.148200  1
  C  C5255  1  0.993200  0.578600  0.351800  1
  C  C5256  1  0.993200  0.921400  0.648200  1
  C  C5257  1  0.517700  0.442600  0.167300  1
  C  C5258  1  0.517700  0.057400  0.832700  1
  C  C5259  1  0.017700  0.442600  0.667300  1
  C  C5260  1  0.017700  0.057400  0.332700  1
  C  C5261  1  0.482300  0.557400  0.832700  1
  C  C5262  1  0.482300  0.942600  0.167300  1
  C  C5263  1  0.982300  0.557400  0.332700  1
  C  C5264  1  0.982300  0.942600  0.667300  1
  C  C5265  1  0.466100  0.371900  0.131200  1
  C  C5266  1  0.466100  0.128100  0.868800  1
  C  C5267  1  0.966100  0.371900  0.631200  1
  C  C5268  1  0.966100  0.128100  0.368800  1
  C  C5269  1  0.533900  0.628100  0.868800  1
  C  C5270  1  0.533900  0.871900  0.131200  1
  C  C5271  1  0.033900  0.628100  0.368800  1
  C  C5272  1  0.033900  0.871900  0.631200  1
  C  C5273  1  0.413400  0.377000  0.126100  1
  C  C5274  1  0.413400  0.123000  0.873900  1
  C  C5275  1  0.913400  0.377000  0.626100  1
  C  C5276  1  0.913400  0.123000  0.373900  1
  C  C5277  1  0.586600  0.623000  0.873900  1
  C  C5278  1  0.586600  0.877000  0.126100  1
  C  C5279  1  0.086600  0.623000  0.373900  1
  C  C5280  1  0.086600  0.877000  0.626100  1
  C  C5281  1  0.391100  0.355100  0.084000  1
  C  C5282  1  0.391100  0.144900  0.916000  1
  C  C5283  1  0.891100  0.355100  0.584000  1
  C  C5284  1  0.891100  0.144900  0.416000  1
  C  C5285  1  0.608900  0.644900  0.916000  1
  C  C5286  1  0.608900  0.855100  0.084000  1
  C  C5287  1  0.108900  0.644900  0.416000  1
  C  C5288  1  0.108900  0.855100  0.584000  1
  C  C5289  1  0.374700  0.323200  0.073100  1
  C  C5290  1  0.374700  0.176800  0.926900  1
  C  C5291  1  0.874700  0.323200  0.573100  1
  C  C5292  1  0.874700  0.176800  0.426900  1
  C  C5293  1  0.625300  0.676800  0.926900  1
  C  C5294  1  0.625300  0.823200  0.073100  1
  C  C5295  1  0.125300  0.676800  0.426900  1
  C  C5296  1  0.125300  0.823200  0.573100  1
  C  C5297  1  0.371300  0.300100  0.095600  1
  C  C5298  1  0.371300  0.199900  0.904400  1
  C  C5299  1  0.871300  0.300100  0.595600  1
  C  C5300  1  0.871300  0.199900  0.404400  1
  C  C5301  1  0.628700  0.699900  0.904400  1
  C  C5302  1  0.628700  0.800100  0.095600  1
  C  C5303  1  0.128700  0.699900  0.404400  1
  C  C5304  1  0.128700  0.800100  0.595600  1
  C  C5305  1  0.386800  0.320500  0.117400  1
  C  C5306  1  0.386800  0.179500  0.882600  1
  C  C5307  1  0.886800  0.320500  0.617400  1
  C  C5308  1  0.886800  0.179500  0.382600  1
  C  C5309  1  0.613200  0.679500  0.882600  1
  C  C5310  1  0.613200  0.820500  0.117400  1
  C  C5311  1  0.113200  0.679500  0.382600  1
  C  C5312  1  0.113200  0.820500  0.617400  1
  C  C5313  1  0.411000  0.305900  0.056100  1
  C  C5314  1  0.411000  0.194100  0.943900  1
  C  C5315  1  0.911000  0.305900  0.556100  1
  C  C5316  1  0.911000  0.194100  0.443900  1
  C  C5317  1  0.589000  0.694100  0.943900  1
  C  C5318  1  0.589000  0.805900  0.056100  1
  C  C5319  1  0.089000  0.694100  0.443900  1
  C  C5320  1  0.089000  0.805900  0.556100  1
  C  C5321  1  0.457500  0.306200  0.069400  1
  C  C5322  1  0.457500  0.193800  0.930600  1
  C  C5323  1  0.957500  0.306200  0.569400  1
  C  C5324  1  0.957500  0.193800  0.430600  1
  C  C5325  1  0.542500  0.693800  0.930600  1
  C  C5326  1  0.542500  0.806200  0.069400  1
  C  C5327  1  0.042500  0.693800  0.430600  1
  C  C5328  1  0.042500  0.806200  0.569400  1
  C  C5329  1  0.454400  0.286200  0.088400  1
  C  C5330  1  0.454400  0.213800  0.911600  1
  C  C5331  1  0.954400  0.286200  0.588400  1
  C  C5332  1  0.954400  0.213800  0.411600  1
  C  C5333  1  0.545600  0.713800  0.911600  1
  C  C5334  1  0.545600  0.786200  0.088400  1
  C  C5335  1  0.045600  0.713800  0.411600  1
  C  C5336  1  0.045600  0.786200  0.588400  1
  C  C5337  1  0.406000  0.272100  0.088500  1
  C  C5338  1  0.406000  0.227900  0.911500  1
  C  C5339  1  0.906000  0.272100  0.588500  1
  C  C5340  1  0.906000  0.227900  0.411500  1
  C  C5341  1  0.594000  0.727900  0.911500  1
  C  C5342  1  0.594000  0.772100  0.088500  1
  C  C5343  1  0.094000  0.727900  0.411500  1
  C  C5344  1  0.094000  0.772100  0.588500  1
  C  C5345  1  0.396600  0.270300  0.060400  1
  C  C5346  1  0.396600  0.229700  0.939600  1
  C  C5347  1  0.896600  0.270300  0.560400  1
  C  C5348  1  0.896600  0.229700  0.439600  1
  C  C5349  1  0.603400  0.729700  0.939600  1
  C  C5350  1  0.603400  0.770300  0.060400  1
  C  C5351  1  0.103400  0.729700  0.439600  1
  C  C5352  1  0.103400  0.770300  0.560400  1
  N  N5353  1  0.685200  0.565300  0.141980  1
  N  N5354  1  0.685200  0.934700  0.858020  1
  N  N5355  1  0.185200  0.565300  0.641980  1
  N  N5356  1  0.185200  0.934700  0.358020  1
  N  N5357  1  0.314800  0.434700  0.858020  1
  N  N5358  1  0.314800  0.065300  0.141980  1
  N  N5359  1  0.814800  0.434700  0.358020  1
  N  N5360  1  0.814800  0.065300  0.641980  1
  N  N5361  1  0.608900  0.473100  0.224550  1
  N  N5362  1  0.608900  0.026900  0.775450  1
  N  N5363  1  0.108900  0.473100  0.724550  1
  N  N5364  1  0.108900  0.026900  0.275450  1
  N  N5365  1  0.391100  0.526900  0.775450  1
  N  N5366  1  0.391100  0.973100  0.224550  1
  N  N5367  1  0.891100  0.526900  0.275450  1
  N  N5368  1  0.891100  0.973100  0.724550  1
  N  N5369  1  0.595100  0.453280  0.269510  1
  N  N5370  1  0.595100  0.046720  0.730490  1
  N  N5371  1  0.095100  0.453280  0.769510  1
  N  N5372  1  0.095100  0.046720  0.230490  1
  N  N5373  1  0.404900  0.546720  0.730490  1
  N  N5374  1  0.404900  0.953280  0.269510  1
  N  N5375  1  0.904900  0.546720  0.230490  1
  N  N5376  1  0.904900  0.953280  0.769510  1
  N  N5377  1  0.615800  0.434000  0.379850  1
  N  N5378  1  0.615800  0.066000  0.620150  1
  N  N5379  1  0.115800  0.434000  0.879850  1
  N  N5380  1  0.115800  0.066000  0.120150  1
  N  N5381  1  0.384200  0.566000  0.620150  1
  N  N5382  1  0.384200  0.934000  0.379850  1
  N  N5383  1  0.884200  0.566000  0.120150  1
  N  N5384  1  0.884200  0.934000  0.879850  1
  N  N5385  1  0.622400  0.409500  0.423880  1
  N  N5386  1  0.622400  0.090500  0.576120  1
  N  N5387  1  0.122400  0.409500  0.923880  1
  N  N5388  1  0.122400  0.090500  0.076120  1
  N  N5389  1  0.377600  0.590500  0.576120  1
  N  N5390  1  0.377600  0.909500  0.423880  1
  N  N5391  1  0.877600  0.590500  0.076120  1
  N  N5392  1  0.877600  0.909500  0.923880  1
  N  N5393  1  0.593900  0.326000  0.522800  1
  N  N5394  1  0.593900  0.174000  0.477200  1
  N  N5395  1  0.093900  0.326000  0.022800  1
  N  N5396  1  0.093900  0.174000  0.977200  1
  N  N5397  1  0.406100  0.674000  0.477200  1
  N  N5398  1  0.406100  0.826000  0.522800  1
  N  N5399  1  0.906100  0.674000  0.977200  1
  N  N5400  1  0.906100  0.826000  0.022800  1
  N  N5401  1  0.493100  0.775100  0.220100  1
  N  N5402  1  0.493100  0.724900  0.779900  1
  N  N5403  1  0.993100  0.775100  0.720100  1
  N  N5404  1  0.993100  0.724900  0.279900  1
  N  N5405  1  0.506900  0.224900  0.779900  1
  N  N5406  1  0.506900  0.275100  0.220100  1
  N  N5407  1  0.006900  0.224900  0.279900  1
  N  N5408  1  0.006900  0.275100  0.720100  1
  N  N5409  1  0.459100  0.663700  0.308100  1
  N  N5410  1  0.459100  0.836300  0.691900  1
  N  N5411  1  0.959100  0.663700  0.808100  1
  N  N5412  1  0.959100  0.836300  0.191900  1
  N  N5413  1  0.540900  0.336300  0.691900  1
  N  N5414  1  0.540900  0.163700  0.308100  1
  N  N5415  1  0.040900  0.336300  0.191900  1
  N  N5416  1  0.040900  0.163700  0.808100  1
  N  N5417  1  0.426600  0.613500  0.331340  1
  N  N5418  1  0.426600  0.886500  0.668660  1
  N  N5419  1  0.926600  0.613500  0.831340  1
  N  N5420  1  0.926600  0.886500  0.168660  1
  N  N5421  1  0.573400  0.386500  0.668660  1
  N  N5422  1  0.573400  0.113500  0.331340  1
  N  N5423  1  0.073400  0.386500  0.168660  1
  N  N5424  1  0.073400  0.113500  0.831340  1
  N  N5425  1  0.324100  0.494300  0.363600  1
  N  N5426  1  0.324100  0.005700  0.636400  1
  N  N5427  1  0.824100  0.494300  0.863600  1
  N  N5428  1  0.824100  0.005700  0.136400  1
  N  N5429  1  0.675900  0.505700  0.636400  1
  N  N5430  1  0.675900  0.994300  0.363600  1
  N  N5431  1  0.175900  0.505700  0.136400  1
  N  N5432  1  0.175900  0.994300  0.863600  1
  N  N5433  1  0.279500  0.452600  0.389700  1
  N  N5434  1  0.279500  0.047400  0.610300  1
  N  N5435  1  0.779500  0.452600  0.889700  1
  N  N5436  1  0.779500  0.047400  0.110300  1
  N  N5437  1  0.720500  0.547400  0.610300  1
  N  N5438  1  0.720500  0.952600  0.389700  1
  N  N5439  1  0.220500  0.547400  0.110300  1
  N  N5440  1  0.220500  0.952600  0.889700  1
  N  N5441  1  0.175300  0.316200  0.469000  1
  N  N5442  1  0.175300  0.183800  0.531000  1
  N  N5443  1  0.675300  0.316200  0.969000  1
  N  N5444  1  0.675300  0.183800  0.031000  1
  N  N5445  1  0.824700  0.683800  0.531000  1
  N  N5446  1  0.824700  0.816200  0.469000  1
  N  N5447  1  0.324700  0.683800  0.031000  1
  N  N5448  1  0.324700  0.816200  0.969000  1
  N  N5449  1  0.041500  0.357100  0.297370  1
  N  N5450  1  0.041500  0.142900  0.702630  1
  N  N5451  1  0.541500  0.357100  0.797370  1
  N  N5452  1  0.541500  0.142900  0.202630  1
  N  N5453  1  0.958500  0.642900  0.702630  1
  N  N5454  1  0.958500  0.857100  0.297370  1
  N  N5455  1  0.458500  0.642900  0.202630  1
  N  N5456  1  0.458500  0.857100  0.797370  1
  N  N5457  1  0.289700  0.403000  0.349400  1
  N  N5458  1  0.289700  0.097000  0.650600  1
  N  N5459  1  0.789700  0.403000  0.849400  1
  N  N5460  1  0.789700  0.097000  0.150600  1
  N  N5461  1  0.710300  0.597000  0.650600  1
  N  N5462  1  0.710300  0.903000  0.349400  1
  N  N5463  1  0.210300  0.597000  0.150600  1
  N  N5464  1  0.210300  0.903000  0.849400  1
  N  N5465  1  0.362400  0.428500  0.370160  1
  N  N5466  1  0.362400  0.071500  0.629840  1
  N  N5467  1  0.862400  0.428500  0.870160  1
  N  N5468  1  0.862400  0.071500  0.129840  1
  N  N5469  1  0.637600  0.571500  0.629840  1
  N  N5470  1  0.637600  0.928500  0.370160  1
  N  N5471  1  0.137600  0.571500  0.129840  1
  N  N5472  1  0.137600  0.928500  0.870160  1
  N  N5473  1  0.548800  0.453300  0.417820  1
  N  N5474  1  0.548800  0.046700  0.582180  1
  N  N5475  1  0.048800  0.453300  0.917820  1
  N  N5476  1  0.048800  0.046700  0.082180  1
  N  N5477  1  0.451200  0.546700  0.582180  1
  N  N5478  1  0.451200  0.953300  0.417820  1
  N  N5479  1  0.951200  0.546700  0.082180  1
  N  N5480  1  0.951200  0.953300  0.917820  1
  N  N5481  1  0.614400  0.475100  0.446390  1
  N  N5482  1  0.614400  0.024900  0.553610  1
  N  N5483  1  0.114400  0.475100  0.946390  1
  N  N5484  1  0.114400  0.024900  0.053610  1
  N  N5485  1  0.385600  0.524900  0.553610  1
  N  N5486  1  0.385600  0.975100  0.446390  1
  N  N5487  1  0.885600  0.524900  0.053610  1
  N  N5488  1  0.885600  0.975100  0.946390  1
  N  N5489  1  0.702200  0.576300  0.522100  1
  N  N5490  1  0.702200  0.923700  0.477900  1
  N  N5491  1  0.202200  0.576300  0.022100  1
  N  N5492  1  0.202200  0.923700  0.977900  1
  N  N5493  1  0.297800  0.423700  0.477900  1
  N  N5494  1  0.297800  0.076300  0.522100  1
  N  N5495  1  0.797800  0.423700  0.977900  1
  N  N5496  1  0.797800  0.076300  0.022100  1
  N  N5497  1  0.289400  0.778400  0.384900  1
  N  N5498  1  0.289400  0.721600  0.615100  1
  N  N5499  1  0.789400  0.778400  0.884900  1
  N  N5500  1  0.789400  0.721600  0.115100  1
  N  N5501  1  0.710600  0.221600  0.615100  1
  N  N5502  1  0.710600  0.278400  0.384900  1
  N  N5503  1  0.210600  0.221600  0.115100  1
  N  N5504  1  0.210600  0.278400  0.884900  1
  N  N5505  1  0.447400  0.663400  0.363000  1
  N  N5506  1  0.447400  0.836600  0.637000  1
  N  N5507  1  0.947400  0.663400  0.863000  1
  N  N5508  1  0.947400  0.836600  0.137000  1
  N  N5509  1  0.552600  0.336600  0.637000  1
  N  N5510  1  0.552600  0.163400  0.363000  1
  N  N5511  1  0.052600  0.336600  0.137000  1
  N  N5512  1  0.052600  0.163400  0.863000  1
  N  N5513  1  0.501700  0.613700  0.366440  1
  N  N5514  1  0.501700  0.886300  0.633560  1
  N  N5515  1  0.001700  0.613700  0.866440  1
  N  N5516  1  0.001700  0.886300  0.133560  1
  N  N5517  1  0.498300  0.386300  0.633560  1
  N  N5518  1  0.498300  0.113700  0.366440  1
  N  N5519  1  0.998300  0.386300  0.133560  1
  N  N5520  1  0.998300  0.113700  0.866440  1
  N  N5521  1  0.616700  0.500100  0.399850  1
  N  N5522  1  0.616700  0.999900  0.600150  1
  N  N5523  1  0.116700  0.500100  0.899850  1
  N  N5524  1  0.116700  0.999900  0.100150  1
  N  N5525  1  0.383300  0.499900  0.600150  1
  N  N5526  1  0.383300  0.000100  0.399850  1
  N  N5527  1  0.883300  0.499900  0.100150  1
  N  N5528  1  0.883300  0.000100  0.899850  1
  N  N5529  1  0.686500  0.462800  0.409850  1
  N  N5530  1  0.686500  0.037200  0.590150  1
  N  N5531  1  0.186500  0.462800  0.909850  1
  N  N5532  1  0.186500  0.037200  0.090150  1
  N  N5533  1  0.313500  0.537200  0.590150  1
  N  N5534  1  0.313500  0.962800  0.409850  1
  N  N5535  1  0.813500  0.537200  0.090150  1
  N  N5536  1  0.813500  0.962800  0.909850  1
  N  N5537  1  0.850600  0.319800  0.427400  1
  N  N5538  1  0.850600  0.180200  0.572600  1
  N  N5539  1  0.350600  0.319800  0.927400  1
  N  N5540  1  0.350600  0.180200  0.072600  1
  N  N5541  1  0.149400  0.680200  0.572600  1
  N  N5542  1  0.149400  0.819800  0.427400  1
  N  N5543  1  0.649400  0.680200  0.072600  1
  N  N5544  1  0.649400  0.819800  0.927400  1
  N  N5545  1  0.747900  0.318300  0.182500  1
  N  N5546  1  0.747900  0.181700  0.817500  1
  N  N5547  1  0.247900  0.318300  0.682500  1
  N  N5548  1  0.247900  0.181700  0.317500  1
  N  N5549  1  0.252100  0.681700  0.817500  1
  N  N5550  1  0.252100  0.818300  0.182500  1
  N  N5551  1  0.752100  0.681700  0.317500  1
  N  N5552  1  0.752100  0.818300  0.682500  1
  N  N5553  1  0.571200  0.408100  0.233170  1
  N  N5554  1  0.571200  0.091900  0.766830  1
  N  N5555  1  0.071200  0.408100  0.733170  1
  N  N5556  1  0.071200  0.091900  0.266830  1
  N  N5557  1  0.428800  0.591900  0.766830  1
  N  N5558  1  0.428800  0.908100  0.233170  1
  N  N5559  1  0.928800  0.591900  0.266830  1
  N  N5560  1  0.928800  0.908100  0.733170  1
  N  N5561  1  0.501300  0.431160  0.258340  1
  N  N5562  1  0.501300  0.068840  0.741660  1
  N  N5563  1  0.001300  0.431160  0.758340  1
  N  N5564  1  0.001300  0.068840  0.241660  1
  N  N5565  1  0.498700  0.568840  0.741660  1
  N  N5566  1  0.498700  0.931160  0.258340  1
  N  N5567  1  0.998700  0.568840  0.241660  1
  N  N5568  1  0.998700  0.931160  0.758340  1
  N  N5569  1  0.330800  0.449600  0.321790  1
  N  N5570  1  0.330800  0.050400  0.678210  1
  N  N5571  1  0.830800  0.449600  0.821790  1
  N  N5572  1  0.830800  0.050400  0.178210  1
  N  N5573  1  0.669200  0.550400  0.678210  1
  N  N5574  1  0.669200  0.949600  0.321790  1
  N  N5575  1  0.169200  0.550400  0.178210  1
  N  N5576  1  0.169200  0.949600  0.821790  1
  N  N5577  1  0.250200  0.467600  0.338400  1
  N  N5578  1  0.250200  0.032400  0.661600  1
  N  N5579  1  0.750200  0.467600  0.838400  1
  N  N5580  1  0.750200  0.032400  0.161600  1
  N  N5581  1  0.749800  0.532400  0.661600  1
  N  N5582  1  0.749800  0.967600  0.338400  1
  N  N5583  1  0.249800  0.532400  0.161600  1
  N  N5584  1  0.249800  0.967600  0.838400  1
  N  N5585  1  0.026000  0.498800  0.421000  1
  N  N5586  1  0.026000  0.001200  0.579000  1
  N  N5587  1  0.526000  0.498800  0.921000  1
  N  N5588  1  0.526000  0.001200  0.079000  1
  N  N5589  1  0.974000  0.501200  0.579000  1
  N  N5590  1  0.974000  0.998800  0.421000  1
  N  N5591  1  0.474000  0.501200  0.079000  1
  N  N5592  1  0.474000  0.998800  0.921000  1
  N  N5593  1  0.544300  0.663200  0.341750  1
  N  N5594  1  0.544300  0.836800  0.658250  1
  N  N5595  1  0.044300  0.663200  0.841750  1
  N  N5596  1  0.044300  0.836800  0.158250  1
  N  N5597  1  0.455700  0.336800  0.658250  1
  N  N5598  1  0.455700  0.163200  0.341750  1
  N  N5599  1  0.955700  0.336800  0.158250  1
  N  N5600  1  0.955700  0.163200  0.841750  1
  N  N5601  1  0.523000  0.613700  0.314750  1
  N  N5602  1  0.523000  0.886300  0.685250  1
  N  N5603  1  0.023000  0.613700  0.814750  1
  N  N5604  1  0.023000  0.886300  0.185250  1
  N  N5605  1  0.477000  0.386300  0.685250  1
  N  N5606  1  0.477000  0.113700  0.314750  1
  N  N5607  1  0.977000  0.386300  0.185250  1
  N  N5608  1  0.977000  0.113700  0.814750  1
  N  N5609  1  0.528400  0.498100  0.246780  1
  N  N5610  1  0.528400  0.001900  0.753220  1
  N  N5611  1  0.028400  0.498100  0.746780  1
  N  N5612  1  0.028400  0.001900  0.253220  1
  N  N5613  1  0.471600  0.501900  0.753220  1
  N  N5614  1  0.471600  0.998100  0.246780  1
  N  N5615  1  0.971600  0.501900  0.253220  1
  N  N5616  1  0.971600  0.998100  0.746780  1
  N  N5617  1  0.511000  0.458400  0.210930  1
  N  N5618  1  0.511000  0.041600  0.789070  1
  N  N5619  1  0.011000  0.458400  0.710930  1
  N  N5620  1  0.011000  0.041600  0.289070  1
  N  N5621  1  0.489000  0.541600  0.789070  1
  N  N5622  1  0.489000  0.958400  0.210930  1
  N  N5623  1  0.989000  0.541600  0.289070  1
  N  N5624  1  0.989000  0.958400  0.710930  1
  N  N5625  1  0.657500  0.772300  0.409800  1
  N  N5626  1  0.657500  0.727700  0.590200  1
  N  N5627  1  0.157500  0.772300  0.909800  1
  N  N5628  1  0.157500  0.727700  0.090200  1
  N  N5629  1  0.342500  0.227700  0.590200  1
  N  N5630  1  0.342500  0.272300  0.409800  1
  N  N5631  1  0.842500  0.227700  0.090200  1
  N  N5632  1  0.842500  0.272300  0.909800  1
  N  N5633  1  0.458800  0.372100  0.085500  1
  N  N5634  1  0.458800  0.127900  0.914500  1
  N  N5635  1  0.958800  0.372100  0.585500  1
  N  N5636  1  0.958800  0.127900  0.414500  1
  N  N5637  1  0.541200  0.627900  0.914500  1
  N  N5638  1  0.541200  0.872100  0.085500  1
  N  N5639  1  0.041200  0.627900  0.414500  1
  N  N5640  1  0.041200  0.872100  0.585500  1
  N  N5641  1  0.652000  0.534800  0.326400  1
  N  N5642  1  0.652000  0.965200  0.673600  1
  N  N5643  1  0.152000  0.534800  0.826400  1
  N  N5644  1  0.152000  0.965200  0.173600  1
  N  N5645  1  0.348000  0.465200  0.673600  1
  N  N5646  1  0.348000  0.034800  0.326400  1
  N  N5647  1  0.848000  0.465200  0.173600  1
  N  N5648  1  0.848000  0.034800  0.826400  1
  N  N5649  1  0.381200  0.529100  0.465300  1
  N  N5650  1  0.381200  0.970900  0.534700  1
  N  N5651  1  0.881200  0.529100  0.965300  1
  N  N5652  1  0.881200  0.970900  0.034700  1
  N  N5653  1  0.618800  0.470900  0.534700  1
  N  N5654  1  0.618800  0.029100  0.465300  1
  N  N5655  1  0.118800  0.470900  0.034700  1
  N  N5656  1  0.118800  0.029100  0.965300  1
  N  N5657  1  0.911800  0.366200  0.432500  1
  N  N5658  1  0.911800  0.133800  0.567500  1
  N  N5659  1  0.411800  0.366200  0.932500  1
  N  N5660  1  0.411800  0.133800  0.067500  1
  N  N5661  1  0.088200  0.633800  0.567500  1
  N  N5662  1  0.088200  0.866200  0.432500  1
  N  N5663  1  0.588200  0.633800  0.067500  1
  N  N5664  1  0.588200  0.866200  0.932500  1
  N  N5665  1  0.026200  0.525400  0.409100  1
  N  N5666  1  0.026200  0.974600  0.590900  1
  N  N5667  1  0.526200  0.525400  0.909100  1
  N  N5668  1  0.526200  0.974600  0.090900  1
  N  N5669  1  0.973800  0.474600  0.590900  1
  N  N5670  1  0.973800  0.025400  0.409100  1
  N  N5671  1  0.473800  0.474600  0.090900  1
  N  N5672  1  0.473800  0.025400  0.909100  1
  N  N5673  1  0.680900  0.772500  0.388400  1
  N  N5674  1  0.680900  0.727500  0.611600  1
  N  N5675  1  0.180900  0.772500  0.888400  1
  N  N5676  1  0.180900  0.727500  0.111600  1
  N  N5677  1  0.319100  0.227500  0.611600  1
  N  N5678  1  0.319100  0.272500  0.388400  1
  N  N5679  1  0.819100  0.227500  0.111600  1
  N  N5680  1  0.819100  0.272500  0.888400  1
  N  N5681  1  0.396700  0.351300  0.109100  1
  N  N5682  1  0.396700  0.148700  0.890900  1
  N  N5683  1  0.896700  0.351300  0.609100  1
  N  N5684  1  0.896700  0.148700  0.390900  1
  N  N5685  1  0.603300  0.648700  0.890900  1
  N  N5686  1  0.603300  0.851300  0.109100  1
  N  N5687  1  0.103300  0.648700  0.390900  1
  N  N5688  1  0.103300  0.851300  0.609100  1
  O  O5689  1  0.756500  0.542800  0.150770  1
  O  O5690  1  0.756500  0.957200  0.849230  1
  O  O5691  1  0.256500  0.542800  0.650770  1
  O  O5692  1  0.256500  0.957200  0.349230  1
  O  O5693  1  0.243500  0.457200  0.849230  1
  O  O5694  1  0.243500  0.042800  0.150770  1
  O  O5695  1  0.743500  0.457200  0.349230  1
  O  O5696  1  0.743500  0.042800  0.650770  1
  O  O5697  1  0.624700  0.601000  0.137200  1
  O  O5698  1  0.624700  0.899000  0.862800  1
  O  O5699  1  0.124700  0.601000  0.637200  1
  O  O5700  1  0.124700  0.899000  0.362800  1
  O  O5701  1  0.375300  0.399000  0.862800  1
  O  O5702  1  0.375300  0.101000  0.137200  1
  O  O5703  1  0.875300  0.399000  0.362800  1
  O  O5704  1  0.875300  0.101000  0.637200  1
  O  O5705  1  0.587200  0.345200  0.562400  1
  O  O5706  1  0.587200  0.154800  0.437600  1
  O  O5707  1  0.087200  0.345200  0.062400  1
  O  O5708  1  0.087200  0.154800  0.937600  1
  O  O5709  1  0.412800  0.654800  0.437600  1
  O  O5710  1  0.412800  0.845200  0.562400  1
  O  O5711  1  0.912800  0.654800  0.937600  1
  O  O5712  1  0.912800  0.845200  0.062400  1
  O  O5713  1  0.581700  0.300500  0.485600  1
  O  O5714  1  0.581700  0.199500  0.514400  1
  O  O5715  1  0.081700  0.300500  0.985600  1
  O  O5716  1  0.081700  0.199500  0.014400  1
  O  O5717  1  0.418300  0.699500  0.514400  1
  O  O5718  1  0.418300  0.800500  0.485600  1
  O  O5719  1  0.918300  0.699500  0.014400  1
  O  O5720  1  0.918300  0.800500  0.985600  1
  O  O5721  1  0.463600  0.723000  0.219600  1
  O  O5722  1  0.463600  0.777000  0.780400  1
  O  O5723  1  0.963600  0.723000  0.719600  1
  O  O5724  1  0.963600  0.777000  0.280400  1
  O  O5725  1  0.536400  0.277000  0.780400  1
  O  O5726  1  0.536400  0.223000  0.219600  1
  O  O5727  1  0.036400  0.277000  0.280400  1
  O  O5728  1  0.036400  0.223000  0.719600  1
  O  O5729  1  0.503100  0.829800  0.217000  1
  O  O5730  1  0.503100  0.670200  0.783000  1
  O  O5731  1  0.003100  0.829800  0.717000  1
  O  O5732  1  0.003100  0.670200  0.283000  1
  O  O5733  1  0.496900  0.170200  0.783000  1
  O  O5734  1  0.496900  0.329800  0.217000  1
  O  O5735  1  0.996900  0.170200  0.283000  1
  O  O5736  1  0.996900  0.329800  0.717000  1
  O  O5737  1  0.240400  0.283700  0.463100  1
  O  O5738  1  0.240400  0.216300  0.536900  1
  O  O5739  1  0.740400  0.283700  0.963100  1
  O  O5740  1  0.740400  0.216300  0.036900  1
  O  O5741  1  0.759600  0.716300  0.536900  1
  O  O5742  1  0.759600  0.783700  0.463100  1
  O  O5743  1  0.259600  0.716300  0.036900  1
  O  O5744  1  0.259600  0.783700  0.963100  1
  O  O5745  1  0.101800  0.336500  0.478300  1
  O  O5746  1  0.101800  0.163500  0.521700  1
  O  O5747  1  0.601800  0.336500  0.978300  1
  O  O5748  1  0.601800  0.163500  0.021700  1
  O  O5749  1  0.898200  0.663500  0.521700  1
  O  O5750  1  0.898200  0.836500  0.478300  1
  O  O5751  1  0.398200  0.663500  0.021700  1
  O  O5752  1  0.398200  0.836500  0.978300  1
  O  O5753  1  0.042600  0.366100  0.255300  1
  O  O5754  1  0.042600  0.133900  0.744700  1
  O  O5755  1  0.542600  0.366100  0.755300  1
  O  O5756  1  0.542600  0.133900  0.244700  1
  O  O5757  1  0.957400  0.633900  0.744700  1
  O  O5758  1  0.957400  0.866100  0.255300  1
  O  O5759  1  0.457400  0.633900  0.244700  1
  O  O5760  1  0.457400  0.866100  0.755300  1
  O  O5761  1  0.023300  0.339100  0.336700  1
  O  O5762  1  0.023300  0.160900  0.663300  1
  O  O5763  1  0.523300  0.339100  0.836700  1
  O  O5764  1  0.523300  0.160900  0.163300  1
  O  O5765  1  0.976700  0.660900  0.663300  1
  O  O5766  1  0.976700  0.839100  0.336700  1
  O  O5767  1  0.476700  0.660900  0.163300  1
  O  O5768  1  0.476700  0.839100  0.836700  1
  O  O5769  1  0.735200  0.613400  0.495600  1
  O  O5770  1  0.735200  0.886600  0.504400  1
  O  O5771  1  0.235200  0.613400  0.995600  1
  O  O5772  1  0.235200  0.886600  0.004400  1
  O  O5773  1  0.264800  0.386600  0.504400  1
  O  O5774  1  0.264800  0.113400  0.495600  1
  O  O5775  1  0.764800  0.386600  0.004400  1
  O  O5776  1  0.764800  0.113400  0.995600  1
  O  O5777  1  0.656300  0.549900  0.550100  1
  O  O5778  1  0.656300  0.950100  0.449900  1
  O  O5779  1  0.156300  0.549900  0.050100  1
  O  O5780  1  0.156300  0.950100  0.949900  1
  O  O5781  1  0.343700  0.450100  0.449900  1
  O  O5782  1  0.343700  0.049900  0.550100  1
  O  O5783  1  0.843700  0.450100  0.949900  1
  O  O5784  1  0.843700  0.049900  0.050100  1
  O  O5785  1  0.249400  0.730200  0.388500  1
  O  O5786  1  0.249400  0.769800  0.611500  1
  O  O5787  1  0.749400  0.730200  0.888500  1
  O  O5788  1  0.749400  0.769800  0.111500  1
  O  O5789  1  0.750600  0.269800  0.611500  1
  O  O5790  1  0.750600  0.230200  0.388500  1
  O  O5791  1  0.250600  0.269800  0.111500  1
  O  O5792  1  0.250600  0.230200  0.888500  1
  O  O5793  1  0.323200  0.828200  0.392600  1
  O  O5794  1  0.323200  0.671800  0.607400  1
  O  O5795  1  0.823200  0.828200  0.892600  1
  O  O5796  1  0.823200  0.671800  0.107400  1
  O  O5797  1  0.676800  0.171800  0.607400  1
  O  O5798  1  0.676800  0.328200  0.392600  1
  O  O5799  1  0.176800  0.171800  0.107400  1
  O  O5800  1  0.176800  0.328200  0.892600  1
  O  O5801  1  0.791900  0.317700  0.398500  1
  O  O5802  1  0.791900  0.182300  0.601500  1
  O  O5803  1  0.291900  0.317700  0.898500  1
  O  O5804  1  0.291900  0.182300  0.101500  1
  O  O5805  1  0.208100  0.682300  0.601500  1
  O  O5806  1  0.208100  0.817700  0.398500  1
  O  O5807  1  0.708100  0.682300  0.101500  1
  O  O5808  1  0.708100  0.817700  0.898500  1
  O  O5809  1  0.919900  0.314100  0.448600  1
  O  O5810  1  0.919900  0.185900  0.551400  1
  O  O5811  1  0.419900  0.314100  0.948600  1
  O  O5812  1  0.419900  0.185900  0.051400  1
  O  O5813  1  0.080100  0.685900  0.551400  1
  O  O5814  1  0.080100  0.814100  0.448600  1
  O  O5815  1  0.580100  0.685900  0.051400  1
  O  O5816  1  0.580100  0.814100  0.948600  1
  O  O5817  1  0.683500  0.292300  0.198700  1
  O  O5818  1  0.683500  0.207700  0.801300  1
  O  O5819  1  0.183500  0.292300  0.698700  1
  O  O5820  1  0.183500  0.207700  0.301300  1
  O  O5821  1  0.316500  0.707700  0.801300  1
  O  O5822  1  0.316500  0.792300  0.198700  1
  O  O5823  1  0.816500  0.707700  0.301300  1
  O  O5824  1  0.816500  0.792300  0.698700  1
  O  O5825  1  0.821000  0.339500  0.176200  1
  O  O5826  1  0.821000  0.160500  0.823800  1
  O  O5827  1  0.321000  0.339500  0.676200  1
  O  O5828  1  0.321000  0.160500  0.323800  1
  O  O5829  1  0.179000  0.660500  0.823800  1
  O  O5830  1  0.179000  0.839500  0.176200  1
  O  O5831  1  0.679000  0.660500  0.323800  1
  O  O5832  1  0.679000  0.839500  0.676200  1
  O  O5833  1  0.980900  0.463500  0.398400  1
  O  O5834  1  0.980900  0.036500  0.601600  1
  O  O5835  1  0.480900  0.463500  0.898400  1
  O  O5836  1  0.480900  0.036500  0.101600  1
  O  O5837  1  0.019100  0.536500  0.601600  1
  O  O5838  1  0.019100  0.963500  0.398400  1
  O  O5839  1  0.519100  0.536500  0.101600  1
  O  O5840  1  0.519100  0.963500  0.898400  1
  O  O5841  1  0.054200  0.526300  0.455000  1
  O  O5842  1  0.054200  0.973700  0.545000  1
  O  O5843  1  0.554200  0.526300  0.955000  1
  O  O5844  1  0.554200  0.973700  0.045000  1
  O  O5845  1  0.945800  0.473700  0.545000  1
  O  O5846  1  0.945800  0.026300  0.455000  1
  O  O5847  1  0.445800  0.473700  0.045000  1
  O  O5848  1  0.445800  0.026300  0.955000  1
  O  O5849  1  0.673500  0.821900  0.392300  1
  O  O5850  1  0.673500  0.678100  0.607700  1
  O  O5851  1  0.173500  0.821900  0.892300  1
  O  O5852  1  0.173500  0.678100  0.107700  1
  O  O5853  1  0.326500  0.178100  0.607700  1
  O  O5854  1  0.326500  0.321900  0.392300  1
  O  O5855  1  0.826500  0.178100  0.107700  1
  O  O5856  1  0.826500  0.321900  0.892300  1
  O  O5857  1  0.662800  0.723000  0.429200  1
  O  O5858  1  0.662800  0.777000  0.570800  1
  O  O5859  1  0.162800  0.723000  0.929200  1
  O  O5860  1  0.162800  0.777000  0.070800  1
  O  O5861  1  0.337200  0.277000  0.570800  1
  O  O5862  1  0.337200  0.223000  0.429200  1
  O  O5863  1  0.837200  0.277000  0.070800  1
  O  O5864  1  0.837200  0.223000  0.929200  1
  O  O5865  1  0.522000  0.404200  0.075000  1
  O  O5866  1  0.522000  0.095800  0.925000  1
  O  O5867  1  0.022000  0.404200  0.575000  1
  O  O5868  1  0.022000  0.095800  0.425000  1
  O  O5869  1  0.478000  0.595800  0.925000  1
  O  O5870  1  0.478000  0.904200  0.075000  1
  O  O5871  1  0.978000  0.595800  0.425000  1
  O  O5872  1  0.978000  0.904200  0.575000  1
  O  O5873  1  0.406600  0.329900  0.087900  1
  O  O5874  1  0.406600  0.170100  0.912100  1
  O  O5875  1  0.906600  0.329900  0.587900  1
  O  O5876  1  0.906600  0.170100  0.412100  1
  O  O5877  1  0.593400  0.670100  0.912100  1
  O  O5878  1  0.593400  0.829900  0.087900  1
  O  O5879  1  0.093400  0.670100  0.412100  1
  O  O5880  1  0.093400  0.829900  0.587900  1
  O  O5881  1  0.889500  0.333200  0.400200  1
  O  O5882  1  0.889500  0.166800  0.599800  1
  O  O5883  1  0.389500  0.333200  0.900200  1
  O  O5884  1  0.389500  0.166800  0.099800  1
  O  O5885  1  0.110500  0.666800  0.599800  1
  O  O5886  1  0.110500  0.833200  0.400200  1
  O  O5887  1  0.610500  0.666800  0.099800  1
  O  O5888  1  0.610500  0.833200  0.900200  1
  O  O5889  1  0.950300  0.389100  0.465500  1
  O  O5890  1  0.950300  0.110900  0.534500  1
  O  O5891  1  0.450300  0.389100  0.965500  1
  O  O5892  1  0.450300  0.110900  0.034500  1
  O  O5893  1  0.049700  0.610900  0.534500  1
  O  O5894  1  0.049700  0.889100  0.465500  1
  O  O5895  1  0.549700  0.610900  0.034500  1
  O  O5896  1  0.549700  0.889100  0.965500  1
  O  O5897  1  0.973000  0.499100  0.384300  1
  O  O5898  1  0.973000  0.000900  0.615700  1
  O  O5899  1  0.473000  0.499100  0.884300  1
  O  O5900  1  0.473000  0.000900  0.115700  1
  O  O5901  1  0.027000  0.500900  0.615700  1
  O  O5902  1  0.027000  0.999100  0.384300  1
  O  O5903  1  0.527000  0.500900  0.115700  1
  O  O5904  1  0.527000  0.999100  0.884300  1
  O  O5905  1  0.062700  0.560500  0.436100  1
  O  O5906  1  0.062700  0.939500  0.563900  1
  O  O5907  1  0.562700  0.560500  0.936100  1
  O  O5908  1  0.562700  0.939500  0.063900  1
  O  O5909  1  0.937300  0.439500  0.563900  1
  O  O5910  1  0.937300  0.060500  0.436100  1
  O  O5911  1  0.437300  0.439500  0.063900  1
  O  O5912  1  0.437300  0.060500  0.936100  1
  O  O5913  1  0.681600  0.828300  0.387900  1
  O  O5914  1  0.681600  0.671700  0.612100  1
  O  O5915  1  0.181600  0.828300  0.887900  1
  O  O5916  1  0.181600  0.671700  0.112100  1
  O  O5917  1  0.318400  0.171700  0.612100  1
  O  O5918  1  0.318400  0.328300  0.387900  1
  O  O5919  1  0.818400  0.171700  0.112100  1
  O  O5920  1  0.818400  0.328300  0.887900  1
  O  O5921  1  0.694300  0.718500  0.381000  1
  O  O5922  1  0.694300  0.781500  0.619000  1
  O  O5923  1  0.194300  0.718500  0.881000  1
  O  O5924  1  0.194300  0.781500  0.119000  1
  O  O5925  1  0.305700  0.281500  0.619000  1
  O  O5926  1  0.305700  0.218500  0.381000  1
  O  O5927  1  0.805700  0.281500  0.119000  1
  O  O5928  1  0.805700  0.218500  0.881000  1
  O  O5929  1  0.399200  0.380200  0.072800  1
  O  O5930  1  0.399200  0.119800  0.927200  1
  O  O5931  1  0.899200  0.380200  0.572800  1
  O  O5932  1  0.899200  0.119800  0.427200  1
  O  O5933  1  0.600800  0.619800  0.927200  1
  O  O5934  1  0.600800  0.880200  0.072800  1
  O  O5935  1  0.100800  0.619800  0.427200  1
  O  O5936  1  0.100800  0.880200  0.572800  1
  O  O5937  1  0.391100  0.312200  0.139000  1
  O  O5938  1  0.391100  0.187800  0.861000  1
  O  O5939  1  0.891100  0.312200  0.639000  1
  O  O5940  1  0.891100  0.187800  0.361000  1
  O  O5941  1  0.608900  0.687800  0.861000  1
  O  O5942  1  0.608900  0.812200  0.139000  1
  O  O5943  1  0.108900  0.687800  0.361000  1
  O  O5944  1  0.108900  0.812200  0.639000  1
  F  F5945  1  0.498700  0.536100  0.334400  1
  F  F5946  1  0.498700  0.963900  0.665600  1
  F  F5947  1  0.998700  0.536100  0.834400  1
  F  F5948  1  0.998700  0.963900  0.165600  1
  F  F5949  1  0.501300  0.463900  0.665600  1
  F  F5950  1  0.501300  0.036100  0.334400  1
  F  F5951  1  0.001300  0.463900  0.165600  1
  F  F5952  1  0.001300  0.036100  0.834400  1
  F  F5953  1  0.472400  0.455900  0.340300  1
  F  F5954  1  0.472400  0.044100  0.659700  1
  F  F5955  1  0.972400  0.455900  0.840300  1
  F  F5956  1  0.972400  0.044100  0.159700  1
  F  F5957  1  0.527600  0.544100  0.659700  1
  F  F5958  1  0.527600  0.955900  0.340300  1
  F  F5959  1  0.027600  0.544100  0.159700  1
  F  F5960  1  0.027600  0.955900  0.840300  1
  F  F5961  1  0.435700  0.501900  0.321200  1
  F  F5962  1  0.435700  0.998100  0.678800  1
  F  F5963  1  0.935700  0.501900  0.821200  1
  F  F5964  1  0.935700  0.998100  0.178800  1
  F  F5965  1  0.564300  0.498100  0.678800  1
  F  F5966  1  0.564300  0.001900  0.321200  1
  F  F5967  1  0.064300  0.498100  0.178800  1
  F  F5968  1  0.064300  0.001900  0.821200  1
  F  F5969  1  0.456900  0.503900  0.364100  1
  F  F5970  1  0.456900  0.996100  0.635900  1
  F  F5971  1  0.956900  0.503900  0.864100  1
  F  F5972  1  0.956900  0.996100  0.135900  1
  F  F5973  1  0.543100  0.496100  0.635900  1
  F  F5974  1  0.543100  0.003900  0.364100  1
  F  F5975  1  0.043100  0.496100  0.135900  1
  F  F5976  1  0.043100  0.003900  0.864100  1
  F  F5977  1  0.535100  0.489800  0.353800  1
  F  F5978  1  0.535100  0.010200  0.646200  1
  F  F5979  1  0.035100  0.489800  0.853800  1
  F  F5980  1  0.035100  0.010200  0.146200  1
  F  F5981  1  0.464900  0.510200  0.646200  1
  F  F5982  1  0.464900  0.989800  0.353800  1
  F  F5983  1  0.964900  0.510200  0.146200  1
  F  F5984  1  0.964900  0.989800  0.853800  1
  F  F5985  1  0.513200  0.487700  0.310380  1
  F  F5986  1  0.513200  0.012300  0.689620  1
  F  F5987  1  0.013200  0.487700  0.810380  1
  F  F5988  1  0.013200  0.012300  0.189620  1
  F  F5989  1  0.486800  0.512300  0.689620  1
  F  F5990  1  0.486800  0.987700  0.310380  1
  F  F5991  1  0.986800  0.512300  0.189620  1
  F  F5992  1  0.986800  0.987700  0.810380  1
  F  F5993  1  0.669000  0.586250  0.233200  1
  F  F5994  1  0.669000  0.913750  0.766800  1
  F  F5995  1  0.169000  0.586250  0.733200  1
  F  F5996  1  0.169000  0.913750  0.266800  1
  F  F5997  1  0.331000  0.413750  0.766800  1
  F  F5998  1  0.331000  0.086250  0.233200  1
  F  F5999  1  0.831000  0.413750  0.266800  1
  F  F6000  1  0.831000  0.086250  0.733200  1
  F  F6001  1  0.744100  0.536200  0.263600  1
  F  F6002  1  0.744100  0.963800  0.736400  1
  F  F6003  1  0.244100  0.536200  0.763600  1
  F  F6004  1  0.244100  0.963800  0.236400  1
  F  F6005  1  0.255900  0.463800  0.736400  1
  F  F6006  1  0.255900  0.036200  0.263600  1
  F  F6007  1  0.755900  0.463800  0.236400  1
  F  F6008  1  0.755900  0.036200  0.763600  1
  F  F6009  1  0.660000  0.537770  0.257830  1
  F  F6010  1  0.660000  0.962230  0.742170  1
  F  F6011  1  0.160000  0.537770  0.757830  1
  F  F6012  1  0.160000  0.962230  0.242170  1
  F  F6013  1  0.340000  0.462230  0.742170  1
  F  F6014  1  0.340000  0.037770  0.257830  1
  F  F6015  1  0.840000  0.462230  0.242170  1
  F  F6016  1  0.840000  0.037770  0.757830  1
  F  F6017  1  0.752400  0.584440  0.238290  1
  F  F6018  1  0.752400  0.915560  0.761710  1
  F  F6019  1  0.252400  0.584440  0.738290  1
  F  F6020  1  0.252400  0.915560  0.261710  1
  F  F6021  1  0.247600  0.415560  0.761710  1
  F  F6022  1  0.247600  0.084440  0.238290  1
  F  F6023  1  0.747600  0.415560  0.261710  1
  F  F6024  1  0.747600  0.084440  0.738290  1
  F  F6025  1  0.700200  0.584700  0.274410  1
  F  F6026  1  0.700200  0.915300  0.725590  1
  F  F6027  1  0.200200  0.584700  0.774410  1
  F  F6028  1  0.200200  0.915300  0.225590  1
  F  F6029  1  0.299800  0.415300  0.725590  1
  F  F6030  1  0.299800  0.084700  0.274410  1
  F  F6031  1  0.799800  0.415300  0.225590  1
  F  F6032  1  0.799800  0.084700  0.774410  1
  F  F6033  1  0.712200  0.536770  0.222450  1
  F  F6034  1  0.712200  0.963230  0.777550  1
  F  F6035  1  0.212200  0.536770  0.722450  1
  F  F6036  1  0.212200  0.963230  0.277550  1
  F  F6037  1  0.287800  0.463230  0.777550  1
  F  F6038  1  0.287800  0.036770  0.222450  1
  F  F6039  1  0.787800  0.463230  0.277550  1
  F  F6040  1  0.787800  0.036770  0.722450  1
  F  F6041  1  0.475700  0.585300  0.468300  1
  F  F6042  1  0.475700  0.914700  0.531700  1
  F  F6043  1  0.975700  0.585300  0.968300  1
  F  F6044  1  0.975700  0.914700  0.031700  1
  F  F6045  1  0.524300  0.414700  0.531700  1
  F  F6046  1  0.524300  0.085300  0.468300  1
  F  F6047  1  0.024300  0.414700  0.031700  1
  F  F6048  1  0.024300  0.085300  0.968300  1
  F  F6049  1  0.558000  0.541500  0.498800  1
  F  F6050  1  0.558000  0.958500  0.501200  1
  F  F6051  1  0.058000  0.541500  0.998800  1
  F  F6052  1  0.058000  0.958500  0.001200  1
  F  F6053  1  0.442000  0.458500  0.501200  1
  F  F6054  1  0.442000  0.041500  0.498800  1
  F  F6055  1  0.942000  0.458500  0.001200  1
  F  F6056  1  0.942000  0.041500  0.998800  1
  F  F6057  1  0.475900  0.539200  0.495200  1
  F  F6058  1  0.475900  0.960800  0.504800  1
  F  F6059  1  0.975900  0.539200  0.995200  1
  F  F6060  1  0.975900  0.960800  0.004800  1
  F  F6061  1  0.524100  0.460800  0.504800  1
  F  F6062  1  0.524100  0.039200  0.495200  1
  F  F6063  1  0.024100  0.460800  0.004800  1
  F  F6064  1  0.024100  0.039200  0.995200  1
  F  F6065  1  0.556700  0.589500  0.472600  1
  F  F6066  1  0.556700  0.910500  0.527400  1
  F  F6067  1  0.056700  0.589500  0.972600  1
  F  F6068  1  0.056700  0.910500  0.027400  1
  F  F6069  1  0.443300  0.410500  0.527400  1
  F  F6070  1  0.443300  0.089500  0.472600  1
  F  F6071  1  0.943300  0.410500  0.027400  1
  F  F6072  1  0.943300  0.089500  0.972600  1
  F  F6073  1  0.523100  0.539800  0.458100  1
  F  F6074  1  0.523100  0.960200  0.541900  1
  F  F6075  1  0.023100  0.539800  0.958100  1
  F  F6076  1  0.023100  0.960200  0.041900  1
  F  F6077  1  0.476900  0.460200  0.541900  1
  F  F6078  1  0.476900  0.039800  0.458100  1
  F  F6079  1  0.976900  0.460200  0.041900  1
  F  F6080  1  0.976900  0.039800  0.958100  1
  F  F6081  1  0.509800  0.587300  0.509800  1
  F  F6082  1  0.509800  0.912700  0.490200  1
  F  F6083  1  0.009800  0.587300  0.009800  1
  F  F6084  1  0.009800  0.912700  0.990200  1
  F  F6085  1  0.490200  0.412700  0.490200  1
  F  F6086  1  0.490200  0.087300  0.509800  1
  F  F6087  1  0.990200  0.412700  0.990200  1
  F  F6088  1  0.990200  0.087300  0.009800  1
  F  F6089  1  0.818900  0.527400  0.421100  1
  F  F6090  1  0.818900  0.972600  0.578900  1
  F  F6091  1  0.318900  0.527400  0.921100  1
  F  F6092  1  0.318900  0.972600  0.078900  1
  F  F6093  1  0.181100  0.472600  0.578900  1
  F  F6094  1  0.181100  0.027400  0.421100  1
  F  F6095  1  0.681100  0.472600  0.078900  1
  F  F6096  1  0.681100  0.027400  0.921100  1
  F  F6097  1  0.781800  0.599500  0.394100  1
  F  F6098  1  0.781800  0.900500  0.605900  1
  F  F6099  1  0.281800  0.599500  0.894100  1
  F  F6100  1  0.281800  0.900500  0.105900  1
  F  F6101  1  0.218200  0.400500  0.605900  1
  F  F6102  1  0.218200  0.099500  0.394100  1
  F  F6103  1  0.718200  0.400500  0.105900  1
  F  F6104  1  0.718200  0.099500  0.894100  1
  F  F6105  1  0.749800  0.555900  0.422600  1
  F  F6106  1  0.749800  0.944100  0.577400  1
  F  F6107  1  0.249800  0.555900  0.922600  1
  F  F6108  1  0.249800  0.944100  0.077400  1
  F  F6109  1  0.250200  0.444100  0.577400  1
  F  F6110  1  0.250200  0.055900  0.422600  1
  F  F6111  1  0.750200  0.444100  0.077400  1
  F  F6112  1  0.750200  0.055900  0.922600  1
  F  F6113  1  0.854800  0.574400  0.393300  1
  F  F6114  1  0.854800  0.925600  0.606700  1
  F  F6115  1  0.354800  0.574400  0.893300  1
  F  F6116  1  0.354800  0.925600  0.106700  1
  F  F6117  1  0.145200  0.425600  0.606700  1
  F  F6118  1  0.145200  0.074400  0.393300  1
  F  F6119  1  0.645200  0.425600  0.106700  1
  F  F6120  1  0.645200  0.074400  0.893300  1
  F  F6121  1  0.782900  0.538900  0.385000  1
  F  F6122  1  0.782900  0.961100  0.615000  1
  F  F6123  1  0.282900  0.538900  0.885000  1
  F  F6124  1  0.282900  0.961100  0.115000  1
  F  F6125  1  0.217100  0.461100  0.615000  1
  F  F6126  1  0.217100  0.038900  0.385000  1
  F  F6127  1  0.717100  0.461100  0.115000  1
  F  F6128  1  0.717100  0.038900  0.885000  1
  F  F6129  1  0.822600  0.585600  0.433800  1
  F  F6130  1  0.822600  0.914400  0.566200  1
  F  F6131  1  0.322600  0.585600  0.933800  1
  F  F6132  1  0.322600  0.914400  0.066200  1
  F  F6133  1  0.177400  0.414400  0.566200  1
  F  F6134  1  0.177400  0.085600  0.433800  1
  F  F6135  1  0.677400  0.414400  0.066200  1
  F  F6136  1  0.677400  0.085600  0.933800  1
  F  F6137  1  0.304000  0.509000  0.239900  1
  F  F6138  1  0.304000  0.991000  0.760100  1
  F  F6139  1  0.804000  0.509000  0.739900  1
  F  F6140  1  0.804000  0.991000  0.260100  1
  F  F6141  1  0.696000  0.491000  0.760100  1
  F  F6142  1  0.696000  0.009000  0.239900  1
  F  F6143  1  0.196000  0.491000  0.260100  1
  F  F6144  1  0.196000  0.009000  0.739900  1
  F  F6145  1  0.360600  0.579700  0.245400  1
  F  F6146  1  0.360600  0.920300  0.754600  1
  F  F6147  1  0.860600  0.579700  0.745400  1
  F  F6148  1  0.860600  0.920300  0.254600  1
  F  F6149  1  0.639400  0.420300  0.754600  1
  F  F6150  1  0.639400  0.079700  0.245400  1
  F  F6151  1  0.139400  0.420300  0.254600  1
  F  F6152  1  0.139400  0.079700  0.745400  1
  F  F6153  1  0.288200  0.563300  0.226600  1
  F  F6154  1  0.288200  0.936700  0.773400  1
  F  F6155  1  0.788200  0.563300  0.726600  1
  F  F6156  1  0.788200  0.936700  0.273400  1
  F  F6157  1  0.711800  0.436700  0.773400  1
  F  F6158  1  0.711800  0.063300  0.226600  1
  F  F6159  1  0.211800  0.436700  0.273400  1
  F  F6160  1  0.211800  0.063300  0.726600  1
  F  F6161  1  0.374800  0.532500  0.261700  1
  F  F6162  1  0.374800  0.967500  0.738300  1
  F  F6163  1  0.874800  0.532500  0.761700  1
  F  F6164  1  0.874800  0.967500  0.238300  1
  F  F6165  1  0.625200  0.467500  0.738300  1
  F  F6166  1  0.625200  0.032500  0.261700  1
  F  F6167  1  0.125200  0.467500  0.238300  1
  F  F6168  1  0.125200  0.032500  0.761700  1
  F  F6169  1  0.300900  0.550800  0.267600  1
  F  F6170  1  0.300900  0.949200  0.732400  1
  F  F6171  1  0.800900  0.550800  0.767600  1
  F  F6172  1  0.800900  0.949200  0.232400  1
  F  F6173  1  0.699100  0.449200  0.732400  1
  F  F6174  1  0.699100  0.050800  0.267600  1
  F  F6175  1  0.199100  0.449200  0.232400  1
  F  F6176  1  0.199100  0.050800  0.767600  1
  F  F6177  1  0.360900  0.540900  0.214400  1
  F  F6178  1  0.360900  0.959100  0.785600  1
  F  F6179  1  0.860900  0.540900  0.714400  1
  F  F6180  1  0.860900  0.959100  0.285600  1
  F  F6181  1  0.639100  0.459100  0.785600  1
  F  F6182  1  0.639100  0.040900  0.214400  1
  F  F6183  1  0.139100  0.459100  0.285600  1
  F  F6184  1  0.139100  0.040900  0.714400  1
  F  F6185  1  0.627800  0.772300  0.303700  1
  F  F6186  1  0.627800  0.727700  0.696300  1
  F  F6187  1  0.127800  0.772300  0.803700  1
  F  F6188  1  0.127800  0.727700  0.196300  1
  F  F6189  1  0.372200  0.227700  0.696300  1
  F  F6190  1  0.372200  0.272300  0.303700  1
  F  F6191  1  0.872200  0.227700  0.196300  1
  F  F6192  1  0.872200  0.272300  0.803700  1
  F  F6193  1  0.658600  0.851800  0.300300  1
  F  F6194  1  0.658600  0.648200  0.699700  1
  F  F6195  1  0.158600  0.851800  0.800300  1
  F  F6196  1  0.158600  0.648200  0.199700  1
  F  F6197  1  0.341400  0.148200  0.699700  1
  F  F6198  1  0.341400  0.351800  0.300300  1
  F  F6199  1  0.841400  0.148200  0.199700  1
  F  F6200  1  0.841400  0.351800  0.800300  1
  F  F6201  1  0.585000  0.820000  0.297500  1
  F  F6202  1  0.585000  0.680000  0.702500  1
  F  F6203  1  0.085000  0.820000  0.797500  1
  F  F6204  1  0.085000  0.680000  0.202500  1
  F  F6205  1  0.415000  0.180000  0.702500  1
  F  F6206  1  0.415000  0.320000  0.297500  1
  F  F6207  1  0.915000  0.180000  0.202500  1
  F  F6208  1  0.915000  0.320000  0.797500  1
  F  F6209  1  0.650600  0.810000  0.268900  1
  F  F6210  1  0.650600  0.690000  0.731100  1
  F  F6211  1  0.150600  0.810000  0.768900  1
  F  F6212  1  0.150600  0.690000  0.231100  1
  F  F6213  1  0.349400  0.190000  0.731100  1
  F  F6214  1  0.349400  0.310000  0.268900  1
  F  F6215  1  0.849400  0.190000  0.231100  1
  F  F6216  1  0.849400  0.310000  0.768900  1
  F  F6217  1  0.703600  0.801500  0.302800  1
  F  F6218  1  0.703600  0.698500  0.697200  1
  F  F6219  1  0.203600  0.801500  0.802800  1
  F  F6220  1  0.203600  0.698500  0.197200  1
  F  F6221  1  0.296400  0.198500  0.697200  1
  F  F6222  1  0.296400  0.301500  0.302800  1
  F  F6223  1  0.796400  0.198500  0.197200  1
  F  F6224  1  0.796400  0.301500  0.802800  1
  F  F6225  1  0.635900  0.815500  0.333200  1
  F  F6226  1  0.635900  0.684500  0.666800  1
  F  F6227  1  0.135900  0.815500  0.833200  1
  F  F6228  1  0.135900  0.684500  0.166800  1
  F  F6229  1  0.364100  0.184500  0.666800  1
  F  F6230  1  0.364100  0.315500  0.333200  1
  F  F6231  1  0.864100  0.184500  0.166800  1
  F  F6232  1  0.864100  0.315500  0.833200  1
  F  F6233  1  0.611100  0.365800  0.284200  1
  F  F6234  1  0.611100  0.134200  0.715800  1
  F  F6235  1  0.111100  0.365800  0.784200  1
  F  F6236  1  0.111100  0.134200  0.215800  1
  F  F6237  1  0.388900  0.634200  0.715800  1
  F  F6238  1  0.388900  0.865800  0.284200  1
  F  F6239  1  0.888900  0.634200  0.215800  1
  F  F6240  1  0.888900  0.865800  0.784200  1
  F  F6241  1  0.626700  0.283500  0.283000  1
  F  F6242  1  0.626700  0.216500  0.717000  1
  F  F6243  1  0.126700  0.283500  0.783000  1
  F  F6244  1  0.126700  0.216500  0.217000  1
  F  F6245  1  0.373300  0.716500  0.717000  1
  F  F6246  1  0.373300  0.783500  0.283000  1
  F  F6247  1  0.873300  0.716500  0.217000  1
  F  F6248  1  0.873300  0.783500  0.783000  1
  F  F6249  1  0.631100  0.325100  0.253200  1
  F  F6250  1  0.631100  0.174900  0.746800  1
  F  F6251  1  0.131100  0.325100  0.753200  1
  F  F6252  1  0.131100  0.174900  0.246800  1
  F  F6253  1  0.368900  0.674900  0.746800  1
  F  F6254  1  0.368900  0.825100  0.253200  1
  F  F6255  1  0.868900  0.674900  0.246800  1
  F  F6256  1  0.868900  0.825100  0.753200  1
  F  F6257  1  0.674900  0.328600  0.294900  1
  F  F6258  1  0.674900  0.171400  0.705100  1
  F  F6259  1  0.174900  0.328600  0.794900  1
  F  F6260  1  0.174900  0.171400  0.205100  1
  F  F6261  1  0.325100  0.671400  0.705100  1
  F  F6262  1  0.325100  0.828600  0.294900  1
  F  F6263  1  0.825100  0.671400  0.205100  1
  F  F6264  1  0.825100  0.828600  0.794900  1
  F  F6265  1  0.561600  0.319300  0.274100  1
  F  F6266  1  0.561600  0.180700  0.725900  1
  F  F6267  1  0.061600  0.319300  0.774100  1
  F  F6268  1  0.061600  0.180700  0.225900  1
  F  F6269  1  0.438400  0.680700  0.725900  1
  F  F6270  1  0.438400  0.819300  0.274100  1
  F  F6271  1  0.938400  0.680700  0.225900  1
  F  F6272  1  0.938400  0.819300  0.774100  1
  F  F6273  1  0.597500  0.322900  0.314300  1
  F  F6274  1  0.597500  0.177100  0.685700  1
  F  F6275  1  0.097500  0.322900  0.814300  1
  F  F6276  1  0.097500  0.177100  0.185700  1
  F  F6277  1  0.402500  0.677100  0.685700  1
  F  F6278  1  0.402500  0.822900  0.314300  1
  F  F6279  1  0.902500  0.677100  0.185700  1
  F  F6280  1  0.902500  0.822900  0.814300  1
  F  F6281  1  0.481100  0.536700  0.340000  1
  F  F6282  1  0.481100  0.963300  0.660000  1
  F  F6283  1  0.981100  0.536700  0.840000  1
  F  F6284  1  0.981100  0.963300  0.160000  1
  F  F6285  1  0.518900  0.463300  0.660000  1
  F  F6286  1  0.518900  0.036700  0.340000  1
  F  F6287  1  0.018900  0.463300  0.160000  1
  F  F6288  1  0.018900  0.036700  0.840000  1
  F  F6289  1  0.495600  0.455000  0.331800  1
  F  F6290  1  0.495600  0.045000  0.668200  1
  F  F6291  1  0.995600  0.455000  0.831800  1
  F  F6292  1  0.995600  0.045000  0.168200  1
  F  F6293  1  0.504400  0.545000  0.668200  1
  F  F6294  1  0.504400  0.955000  0.331800  1
  F  F6295  1  0.004400  0.545000  0.168200  1
  F  F6296  1  0.004400  0.955000  0.831800  1
  F  F6297  1  0.465700  0.500500  0.307500  1
  F  F6298  1  0.465700  0.999500  0.692500  1
  F  F6299  1  0.965700  0.500500  0.807500  1
  F  F6300  1  0.965700  0.999500  0.192500  1
  F  F6301  1  0.534300  0.499500  0.692500  1
  F  F6302  1  0.534300  0.000500  0.307500  1
  F  F6303  1  0.034300  0.499500  0.192500  1
  F  F6304  1  0.034300  0.000500  0.807500  1
  F  F6305  1  0.433100  0.486300  0.345400  1
  F  F6306  1  0.433100  0.013700  0.654600  1
  F  F6307  1  0.933100  0.486300  0.845400  1
  F  F6308  1  0.933100  0.013700  0.154600  1
  F  F6309  1  0.566900  0.513700  0.654600  1
  F  F6310  1  0.566900  0.986300  0.345400  1
  F  F6311  1  0.066900  0.513700  0.154600  1
  F  F6312  1  0.066900  0.986300  0.845400  1
  F  F6313  1  0.514100  0.490000  0.363600  1
  F  F6314  1  0.514100  0.010000  0.636400  1
  F  F6315  1  0.014100  0.490000  0.863600  1
  F  F6316  1  0.014100  0.010000  0.136400  1
  F  F6317  1  0.485900  0.510000  0.636400  1
  F  F6318  1  0.485900  0.990000  0.363600  1
  F  F6319  1  0.985900  0.510000  0.136400  1
  F  F6320  1  0.985900  0.990000  0.863600  1
  F  F6321  1  0.541400  0.501900  0.323800  1
  F  F6322  1  0.541400  0.998100  0.676200  1
  F  F6323  1  0.041400  0.501900  0.823800  1
  F  F6324  1  0.041400  0.998100  0.176200  1
  F  F6325  1  0.458600  0.498100  0.676200  1
  F  F6326  1  0.458600  0.001900  0.323800  1
  F  F6327  1  0.958600  0.498100  0.176200  1
  F  F6328  1  0.958600  0.001900  0.823800  1
  F  F6329  1  0.787700  0.523900  0.407900  1
  F  F6330  1  0.787700  0.976100  0.592100  1
  F  F6331  1  0.287700  0.523900  0.907900  1
  F  F6332  1  0.287700  0.976100  0.092100  1
  F  F6333  1  0.212300  0.476100  0.592100  1
  F  F6334  1  0.212300  0.023900  0.407900  1
  F  F6335  1  0.712300  0.476100  0.092100  1
  F  F6336  1  0.712300  0.023900  0.907900  1
  F  F6337  1  0.815500  0.605400  0.406600  1
  F  F6338  1  0.815500  0.894600  0.593400  1
  F  F6339  1  0.315500  0.605400  0.906600  1
  F  F6340  1  0.315500  0.894600  0.093400  1
  F  F6341  1  0.184500  0.394600  0.593400  1
  F  F6342  1  0.184500  0.105400  0.406600  1
  F  F6343  1  0.684500  0.394600  0.093400  1
  F  F6344  1  0.684500  0.105400  0.906600  1
  F  F6345  1  0.745500  0.571800  0.417900  1
  F  F6346  1  0.745500  0.928200  0.582100  1
  F  F6347  1  0.245500  0.571800  0.917900  1
  F  F6348  1  0.245500  0.928200  0.082100  1
  F  F6349  1  0.254500  0.428200  0.582100  1
  F  F6350  1  0.254500  0.071800  0.417900  1
  F  F6351  1  0.754500  0.428200  0.082100  1
  F  F6352  1  0.754500  0.071800  0.917900  1
  F  F6353  1  0.861500  0.558100  0.400400  1
  F  F6354  1  0.861500  0.941900  0.599600  1
  F  F6355  1  0.361500  0.558100  0.900400  1
  F  F6356  1  0.361500  0.941900  0.099600  1
  F  F6357  1  0.138500  0.441900  0.599600  1
  F  F6358  1  0.138500  0.058100  0.400400  1
  F  F6359  1  0.638500  0.441900  0.099600  1
  F  F6360  1  0.638500  0.058100  0.900400  1
  F  F6361  1  0.779800  0.562400  0.378600  1
  F  F6362  1  0.779800  0.937600  0.621400  1
  F  F6363  1  0.279800  0.562400  0.878600  1
  F  F6364  1  0.279800  0.937600  0.121400  1
  F  F6365  1  0.220200  0.437600  0.621400  1
  F  F6366  1  0.220200  0.062400  0.378600  1
  F  F6367  1  0.720200  0.437600  0.121400  1
  F  F6368  1  0.720200  0.062400  0.878600  1
  F  F6369  1  0.822200  0.561500  0.438700  1
  F  F6370  1  0.822200  0.938500  0.561300  1
  F  F6371  1  0.322200  0.561500  0.938700  1
  F  F6372  1  0.322200  0.938500  0.061300  1
  F  F6373  1  0.177800  0.438500  0.561300  1
  F  F6374  1  0.177800  0.061500  0.438700  1
  F  F6375  1  0.677800  0.438500  0.061300  1
  F  F6376  1  0.677800  0.061500  0.938700  1
  F  F6377  1  0.305400  0.511500  0.232400  1
  F  F6378  1  0.305400  0.988500  0.767600  1
  F  F6379  1  0.805400  0.511500  0.732400  1
  F  F6380  1  0.805400  0.988500  0.267600  1
  F  F6381  1  0.694600  0.488500  0.767600  1
  F  F6382  1  0.694600  0.011500  0.232400  1
  F  F6383  1  0.194600  0.488500  0.267600  1
  F  F6384  1  0.194600  0.011500  0.732400  1
  F  F6385  1  0.379700  0.564000  0.258500  1
  F  F6386  1  0.379700  0.936000  0.741500  1
  F  F6387  1  0.879700  0.564000  0.758500  1
  F  F6388  1  0.879700  0.936000  0.241500  1
  F  F6389  1  0.620300  0.436000  0.741500  1
  F  F6390  1  0.620300  0.064000  0.258500  1
  F  F6391  1  0.120300  0.436000  0.241500  1
  F  F6392  1  0.120300  0.064000  0.758500  1
  F  F6393  1  0.298400  0.570500  0.246000  1
  F  F6394  1  0.298400  0.929500  0.754000  1
  F  F6395  1  0.798400  0.570500  0.746000  1
  F  F6396  1  0.798400  0.929500  0.254000  1
  F  F6397  1  0.701600  0.429500  0.754000  1
  F  F6398  1  0.701600  0.070500  0.246000  1
  F  F6399  1  0.201600  0.429500  0.254000  1
  F  F6400  1  0.201600  0.070500  0.746000  1
  F  F6401  1  0.382000  0.513000  0.248600  1
  F  F6402  1  0.382000  0.987000  0.751400  1
  F  F6403  1  0.882000  0.513000  0.748600  1
  F  F6404  1  0.882000  0.987000  0.251400  1
  F  F6405  1  0.618000  0.487000  0.751400  1
  F  F6406  1  0.618000  0.013000  0.248600  1
  F  F6407  1  0.118000  0.487000  0.251400  1
  F  F6408  1  0.118000  0.013000  0.748600  1
  F  F6409  1  0.322200  0.531000  0.272500  1
  F  F6410  1  0.322200  0.969000  0.727500  1
  F  F6411  1  0.822200  0.531000  0.772500  1
  F  F6412  1  0.822200  0.969000  0.227500  1
  F  F6413  1  0.677800  0.469000  0.727500  1
  F  F6414  1  0.677800  0.031000  0.272500  1
  F  F6415  1  0.177800  0.469000  0.227500  1
  F  F6416  1  0.177800  0.031000  0.772500  1
  F  F6417  1  0.361300  0.557000  0.217900  1
  F  F6418  1  0.361300  0.943000  0.782100  1
  F  F6419  1  0.861300  0.557000  0.717900  1
  F  F6420  1  0.861300  0.943000  0.282100  1
  F  F6421  1  0.638700  0.443000  0.782100  1
  F  F6422  1  0.638700  0.057000  0.217900  1
  F  F6423  1  0.138700  0.443000  0.282100  1
  F  F6424  1  0.138700  0.057000  0.717900  1
  F  F6425  1  0.603100  0.822900  0.277900  1
  F  F6426  1  0.603100  0.677100  0.722100  1
  F  F6427  1  0.103100  0.822900  0.777900  1
  F  F6428  1  0.103100  0.677100  0.222100  1
  F  F6429  1  0.396900  0.177100  0.722100  1
  F  F6430  1  0.396900  0.322900  0.277900  1
  F  F6431  1  0.896900  0.177100  0.222100  1
  F  F6432  1  0.896900  0.322900  0.777900  1
  F  F6433  1  0.598700  0.822100  0.321400  1
  F  F6434  1  0.598700  0.677900  0.678600  1
  F  F6435  1  0.098700  0.822100  0.821400  1
  F  F6436  1  0.098700  0.677900  0.178600  1
  F  F6437  1  0.401300  0.177900  0.678600  1
  F  F6438  1  0.401300  0.322100  0.321400  1
  F  F6439  1  0.901300  0.177900  0.178600  1
  F  F6440  1  0.901300  0.322100  0.821400  1
  F  F6441  1  0.683300  0.807500  0.275400  1
  F  F6442  1  0.683300  0.692500  0.724600  1
  F  F6443  1  0.183300  0.807500  0.775400  1
  F  F6444  1  0.183300  0.692500  0.224600  1
  F  F6445  1  0.316700  0.192500  0.724600  1
  F  F6446  1  0.316700  0.307500  0.275400  1
  F  F6447  1  0.816700  0.192500  0.224600  1
  F  F6448  1  0.816700  0.307500  0.775400  1
  F  F6449  1  0.695900  0.807300  0.318100  1
  F  F6450  1  0.695900  0.692700  0.681900  1
  F  F6451  1  0.195900  0.807300  0.818100  1
  F  F6452  1  0.195900  0.692700  0.181900  1
  F  F6453  1  0.304100  0.192700  0.681900  1
  F  F6454  1  0.304100  0.307300  0.318100  1
  F  F6455  1  0.804100  0.192700  0.181900  1
  F  F6456  1  0.804100  0.307300  0.818100  1
  F  F6457  1  0.634800  0.362500  0.276200  1
  F  F6458  1  0.634800  0.137500  0.723800  1
  F  F6459  1  0.134800  0.362500  0.776200  1
  F  F6460  1  0.134800  0.137500  0.223800  1
  F  F6461  1  0.365200  0.637500  0.723800  1
  F  F6462  1  0.365200  0.862500  0.276200  1
  F  F6463  1  0.865200  0.637500  0.223800  1
  F  F6464  1  0.865200  0.862500  0.776200  1
  F  F6465  1  0.611500  0.285600  0.295900  1
  F  F6466  1  0.611500  0.214400  0.704100  1
  F  F6467  1  0.111500  0.285600  0.795900  1
  F  F6468  1  0.111500  0.214400  0.204100  1
  F  F6469  1  0.388500  0.714400  0.704100  1
  F  F6470  1  0.388500  0.785600  0.295900  1
  F  F6471  1  0.888500  0.714400  0.204100  1
  F  F6472  1  0.888500  0.785600  0.795900  1
  F  F6473  1  0.598500  0.314100  0.256700  1
  F  F6474  1  0.598500  0.185900  0.743300  1
  F  F6475  1  0.098500  0.314100  0.756700  1
  F  F6476  1  0.098500  0.185900  0.243300  1
  F  F6477  1  0.401500  0.685900  0.743300  1
  F  F6478  1  0.401500  0.814100  0.256700  1
  F  F6479  1  0.901500  0.685900  0.243300  1
  F  F6480  1  0.901500  0.814100  0.756700  1
  F  F6481  1  0.677200  0.312500  0.279000  1
  F  F6482  1  0.677200  0.187500  0.721000  1
  F  F6483  1  0.177200  0.312500  0.779000  1
  F  F6484  1  0.177200  0.187500  0.221000  1
  F  F6485  1  0.322800  0.687500  0.721000  1
  F  F6486  1  0.322800  0.812500  0.279000  1
  F  F6487  1  0.822800  0.687500  0.221000  1
  F  F6488  1  0.822800  0.812500  0.779000  1
  F  F6489  1  0.564600  0.333200  0.294000  1
  F  F6490  1  0.564600  0.166800  0.706000  1
  F  F6491  1  0.064600  0.333200  0.794000  1
  F  F6492  1  0.064600  0.166800  0.206000  1
  F  F6493  1  0.435400  0.666800  0.706000  1
  F  F6494  1  0.435400  0.833200  0.294000  1
  F  F6495  1  0.935400  0.666800  0.206000  1
  F  F6496  1  0.935400  0.833200  0.794000  1
  F  F6497  1  0.642200  0.334600  0.314500  1
  F  F6498  1  0.642200  0.165400  0.685500  1
  F  F6499  1  0.142200  0.334600  0.814500  1
  F  F6500  1  0.142200  0.165400  0.185500  1
  F  F6501  1  0.357800  0.665400  0.685500  1
  F  F6502  1  0.357800  0.834600  0.314500  1
  F  F6503  1  0.857800  0.665400  0.185500  1
  F  F6504  1  0.857800  0.834600  0.814500  1
