
#######################################################################
#
#                 Cambridge Crystallographic Data Centre
#                                CCDC 
#
#######################################################################
#
# If this CIF has been generated from an entry in the Cambridge 
# Structural Database, then it will include bibliographic, chemical, 
# crystal, experimental, refinement or atomic coordinate data resulting 
# from the CCDC's data processing and validation procedures.
#
#######################################################################

data_WAZYII
_chemical_formula_moiety         
'C96 H84 N40 Ni6 S12,18(C3 H7 N1 O1),4(C1 H4 O1),5(H2 O1)'
_chemical_name_systematic        
"tetrakis(\m-N',N''',N'''''-(nitrilotris(4,1-phenylenemethylylidene))tricarbamohydrazonothioato)-hexa-nickel N,N-dimethylformamide methanol solvate pentahydrate"
_symmetry_cell_setting           rhombohedral
_symmetry_space_group_name_H-M   'R 3'
_symmetry_Int_Tables_number      146
_space_group_name_Hall           'R 3'
loop_
_symmetry_equiv_pos_site_id
_symmetry_equiv_pos_as_xyz
1 x,y,z
2 -y,x-y,z
3 -x+y,-x,z
4 2/3+x,1/3+y,1/3+z
5 2/3-y,1/3+x-y,1/3+z
6 2/3-x+y,1/3-x,1/3+z
7 1/3+x,2/3+y,2/3+z
8 1/3-y,2/3+x-y,2/3+z
9 1/3-x+y,2/3-x,2/3+z
_cell_length_a                   22.5213(12)
_cell_length_b                   22.5213(12)
_cell_length_c                   47.501(5)
_cell_angle_alpha                90
_cell_angle_beta                 90
_cell_angle_gamma                120
_cell_volume                     20865.1
_exptl_crystal_colour            red
_exptl_crystal_description       block
_cell_formula_units_Z            3
loop_
_atom_site_label
_atom_site_type_symbol
_atom_site_fract_x
_atom_site_fract_y
_atom_site_fract_z
Ni1 Ni -0.038731(19) 0.66934(2) 0.915391(9)
Ni2 Ni 0.343471(19) 1.047122(18) 0.662460(9)
S1 S -0.08547(4) 0.73184(4) 0.91747(2)
S2 S 0.70532(5) 1.09459(5) 0.95199(2)
S3 S 0.40502(5) 1.15765(4) 0.66308(2)
S4 S 0.30000(5) 1.04908(4) 0.62292(2)
N1 N -0.06689(12) 0.81949(11) 0.87566(7)
H1 H -0.0441 0.8445 0.8610
H2 H -0.1030 0.8207 0.8819
N2 N 0.01121(12) 0.78012(11) 0.87735(6)
N3 N 0.02288(12) 0.73246(12) 0.89085(6)
N4 N 0.59120(12) 1.08512(18) 0.97211(6)
H3 H 0.5492 1.0783 0.9719
H4 H 0.6183 1.1061 0.9865
N5 N 0.57706(10) 1.03233(12) 0.92857(5)
N6 N 0.61348(11) 1.02003(12) 0.90793(6)
N7 N 0.49831(15) 1.22803(12) 0.70348(8)
H5 H 0.5180 1.2334 0.7200
H6 H 0.5129 1.2630 0.6918
N8 N 0.42049(15) 1.11124(13) 0.71202(6)
N9 N 0.36827(17) 1.05537(12) 0.70058(6)
N10 N 0.33599(11) 0.94820(13) 0.83413(5)
N11 N 0.20370(14) 0.93326(12) 0.59873(6)
H7 H 0.1803 0.8885 0.5965
H8 H 0.1962 0.9599 0.5875
N12 N 0.26244(10) 0.91843(11) 0.63691(5)
N13 N 0.31036(11) 0.95335(10) 0.65607(5)
N14 N 0.3333 0.6667 0.65200(10)
C1 C -0.04617(16) 0.77902(13) 0.88856(9)
C2 C 0.08639(14) 0.74431(14) 0.88787(6)
H9 H 0.0951 0.7120 0.8970
C3 C 0.14631(12) 0.79941(13) 0.87267(7)
C4 C 0.15149(14) 0.85338(15) 0.85874(7)
H10 H 0.1120 0.8581 0.8571
C5 C 0.21421(15) 0.90416(16) 0.84632(7)
H11 H 0.2140 0.9410 0.8367
C6 C 0.27637(14) 0.90351(16) 0.84730(6)
C7 C 0.26955(14) 0.84270(14) 0.86288(6)
H12 H 0.3077 0.8358 0.8646
C8 C 0.20722(17) 0.79670(17) 0.87474(7)
H13 H 0.2053 0.7599 0.8852
C9 C 0.61485(14) 1.0628(2) 0.94973(8)
C10 C 0.58208(15) 1.00013(16) 0.88337(7)
H14 H 0.6045 0.9860 0.8703
C11 C 0.52209(12) 0.99603(14) 0.87301(6)
C12 C 0.50859(15) 0.97459(15) 0.84448(7)
H15 H 0.5422 0.9699 0.8342
C13 C 0.44696(12) 0.95995(15) 0.83067(7)
H16 H 0.4398 0.9483 0.8113
C14 C 0.39807(12) 0.96352(14) 0.84676(6)
C15 C 0.40682(13) 0.98005(13) 0.87500(6)
H17 H 0.3734 0.9847 0.8855
C16 C 0.46902(13) 0.98986(13) 0.88780(6)
H18 H 0.4724 0.9920 0.9078
C17 C 0.4446(2) 1.16496(15) 0.69582(7)
C18 C 0.32969(13) 1.00450(13) 0.71771(7)
H19 H 0.2935 0.9665 0.7082
C19 C 0.33007(14) 0.99310(13) 0.74884(6)
C20 C 0.37945(13) 1.03971(14) 0.76569(6)
H20 H 0.4144 1.0816 0.7579
C21 C 0.37993(14) 1.02660(15) 0.79561(7)
H21 H 0.4127 1.0596 0.8081
C22 C 0.32662(13) 0.95942(14) 0.80502(6)
C23 C 0.28132(14) 0.91500(15) 0.78586(7)
H22 H 0.2480 0.8705 0.7921
C24 C 0.28126(14) 0.93091(15) 0.75853(6)
H23 H 0.2473 0.8988 0.7461
C25 C 0.25085(17) 0.96095(13) 0.61924(7)
C26 C 0.34210(12) 0.92122(14) 0.66591(6)
H24 H 0.3764 0.9473 0.6795
C27 C 0.33538(12) 0.85458(11) 0.66027(5)
C28 C 0.37978(13) 0.84302(11) 0.67479(7)
H25 H 0.4120 0.8780 0.6868
C29 C 0.38019(13) 0.78757(14) 0.67297(6)
H26 H 0.4096 0.7789 0.6845
C30 C 0.33633(12) 0.73950(11) 0.65365(7)
C31 C 0.28796(11) 0.74651(12) 0.63871(6)
H27 H 0.2547 0.7128 0.6266
C32 C 0.29481(15) 0.80761(12) 0.64382(7)
H28 H 0.2646 0.8175 0.6335
S4A S -0.04908(4) 0.25092(6) 0.62292(2)
N11A N 0.06674(12) 0.27044(18) 0.59873(6)
H7A H 0.1115 0.2918 0.5965
H8A H 0.0401 0.2363 0.5875
N12A N 0.08157(11) 0.34401(15) 0.63691(5)
N13A N 0.04665(10) 0.35701(15) 0.65607(5)
C25A C 0.03905(13) 0.28990(21) 0.61924(7)
C26A C 0.07878(14) 0.42088(18) 0.66591(6)
H24A H 0.0527 0.4291 0.6795
C27A C 0.14542(11) 0.48080(16) 0.66027(5)
C28A C 0.15698(11) 0.53676(17) 0.67479(7)
H25A H 0.1220 0.5340 0.6868
C29A C 0.21243(14) 0.59262(19) 0.67297(6)
H26A H 0.2211 0.6307 0.6845
C30A C 0.26050(11) 0.59683(16) 0.65365(7)
C31A C 0.25349(12) 0.54145(16) 0.63871(6)
H27A H 0.2872 0.5419 0.6266
C32A C 0.19239(12) 0.48720(19) 0.64382(7)
H28A H 0.1825 0.4471 0.6335
S4B S 0.74908(6) 0.70000(5) 0.62292(2)
N11B N 0.72956(18) 0.79630(14) 0.59873(6)
H7B H 0.7082 0.8197 0.5965
H8B H 0.7637 0.8038 0.5875
N12B N 0.65599(15) 0.73756(10) 0.63691(5)
N13B N 0.64299(15) 0.68964(11) 0.65607(5)
C25B C 0.71010(21) 0.74915(17) 0.61924(7)
C26B C 0.57912(18) 0.65790(12) 0.66591(6)
H24B H 0.5709 0.6236 0.6795
C27B C 0.51920(16) 0.66462(12) 0.66027(5)
C28B C 0.46324(17) 0.62022(13) 0.67479(7)
H25B H 0.4660 0.5880 0.6868
C29B C 0.40738(19) 0.61981(13) 0.67297(6)
H26B H 0.3693 0.5904 0.6845
C30B C 0.40317(16) 0.66367(12) 0.65365(7)
C31B C 0.45855(16) 0.71204(11) 0.63871(6)
H27B H 0.4581 0.7453 0.6266
C32B C 0.51280(19) 0.70519(15) 0.64382(7)
H28B H 0.5529 0.7354 0.6335
Ni1A Ni 0.33066(2) 0.291929(28) 0.915391(9)
Ni2A Ni -0.047122(18) 0.296349(26) 0.662460(9)
S1A S 0.26816(4) 0.18269(6) 0.91747(2)
S2A S -0.09459(5) 0.61073(7) 0.95199(2)
S3A S -0.15765(4) 0.24737(6) 0.66308(2)
N1A N 0.18051(11) 0.11362(16) 0.87566(7)
H1A H 0.1555 0.1114 0.8610
H2A H 0.1793 0.0763 0.8819
N2A N 0.21988(11) 0.23109(16) 0.87735(6)
N3A N 0.26754(12) 0.29042(17) 0.89085(6)
N4A N -0.08512(18) 0.50608(22) 0.97211(6)
H3A H -0.0783 0.4709 0.9719
H4A H -0.1061 0.5122 0.9865
N5A N -0.03233(12) 0.54473(16) 0.92857(5)
N6A N -0.02003(12) 0.59345(16) 0.90793(6)
N7A N -0.22803(12) 0.27028(19) 0.70348(8)
H5A H -0.2334 0.2846 0.7200
H6A H -0.2630 0.2499 0.6918
N8A N -0.11124(13) 0.30925(20) 0.71202(6)
N9A N -0.05537(12) 0.31290(21) 0.70058(6)
N10A N 0.05180(13) 0.38779(17) 0.83413(5)
C1A C 0.22098(13) 0.17481(21) 0.88856(9)
C2A C 0.25569(14) 0.34208(20) 0.88787(6)
H9A H 0.2880 0.3831 0.8970
C3A C 0.20059(13) 0.34690(18) 0.87267(7)
C4A C 0.14662(15) 0.29811(21) 0.85874(7)
H10A H 0.1419 0.2539 0.8571
C5A C 0.09584(16) 0.31005(22) 0.84632(7)
H11A H 0.0590 0.2730 0.8367
C6A C 0.09649(16) 0.37286(21) 0.84730(6)
C7A C 0.15730(14) 0.42685(20) 0.86288(6)
H12A H 0.1642 0.4719 0.8646
C8A C 0.20330(17) 0.41052(24) 0.87474(7)
H13A H 0.2401 0.4454 0.8852
C9A C -0.0628(2) 0.55205(24) 0.94973(8)
C10A C -0.00013(16) 0.58195(22) 0.88337(7)
H14A H 0.0140 0.6185 0.8703
C11A C 0.00397(14) 0.52606(18) 0.87301(6)
C12A C 0.02541(15) 0.53400(21) 0.84448(7)
H15A H 0.0301 0.5723 0.8342
C13A C 0.04005(15) 0.48701(19) 0.83067(7)
H16A H 0.0517 0.4915 0.8113
C14A C 0.03648(14) 0.43455(18) 0.84676(6)
C15A C 0.01995(13) 0.42677(18) 0.87500(6)
H17A H 0.0153 0.3887 0.8855
C16A C 0.01014(13) 0.47916(18) 0.88780(6)
H18A H 0.0080 0.4804 0.9078
C17A C -0.16496(15) 0.27964(25) 0.69582(7)
C18A C -0.00450(13) 0.32519(18) 0.71771(7)
H19A H 0.0335 0.3270 0.7082
C19A C 0.00690(13) 0.33697(19) 0.74884(6)
C20A C -0.03971(14) 0.33974(19) 0.76569(6)
H20A H -0.0816 0.3328 0.7579
C21A C -0.02660(15) 0.35333(21) 0.79561(7)
H21A H -0.0596 0.3531 0.8081
C22A C 0.04058(14) 0.36720(19) 0.80502(6)
C23A C 0.08500(15) 0.36632(21) 0.78586(7)
H22A H 0.1295 0.3775 0.7921
C24A C 0.06909(15) 0.35035(21) 0.75853(6)
H23A H 0.1012 0.3485 0.7461
Ni1B Ni 0.708071(28) 1.038731(19) 0.915391(9)
Ni2B Ni 0.703651(26) 0.656529(19) 0.662460(9)
S1B S 0.81731(6) 1.08547(4) 0.91747(2)
S2B S 0.38927(7) 0.29468(5) 0.95199(2)
S3B S 0.75263(6) 0.59498(5) 0.66308(2)
N1B N 0.88638(16) 1.06689(12) 0.87566(7)
H1B H 0.8886 1.0441 0.8610
H2B H 0.9237 1.1030 0.8819
N2B N 0.76891(16) 0.98879(12) 0.87735(6)
N3B N 0.70958(17) 0.97712(12) 0.89085(6)
N4B N 0.49392(22) 0.40880(12) 0.97211(6)
H3B H 0.5291 0.4508 0.9719
H4B H 0.4878 0.3817 0.9865
N5B N 0.45527(16) 0.42294(10) 0.92857(5)
N6B N 0.40655(16) 0.38652(11) 0.90793(6)
N7B N 0.72972(19) 0.50169(15) 0.70348(8)
H5B H 0.7154 0.4820 0.7200
H6B H 0.7501 0.4871 0.6918
N8B N 0.69075(20) 0.57951(15) 0.71202(6)
N9B N 0.68710(21) 0.63173(17) 0.70058(6)
N10B N 0.61221(17) 0.66401(11) 0.83413(5)
C1B C 0.82519(21) 1.04617(16) 0.88856(9)
C2B C 0.65792(20) 0.91361(14) 0.88787(6)
H9B H 0.6169 0.9049 0.8970
C3B C 0.65310(18) 0.85369(12) 0.87267(7)
C4B C 0.70189(21) 0.84851(14) 0.85874(7)
H10B H 0.7461 0.8880 0.8571
C5B C 0.68995(22) 0.78579(15) 0.84632(7)
H11B H 0.7270 0.7860 0.8367
C6B C 0.62714(21) 0.72363(14) 0.84730(6)
C7B C 0.57315(20) 0.73045(14) 0.86288(6)
H12B H 0.5281 0.6923 0.8646
C8B C 0.58948(24) 0.79278(17) 0.87474(7)
H13B H 0.5546 0.7947 0.8852
C9B C 0.44795(24) 0.38515(14) 0.94973(8)
C10B C 0.41805(22) 0.41792(15) 0.88337(7)
H14B H 0.3815 0.3955 0.8703
C11B C 0.47394(18) 0.47791(12) 0.87301(6)
C12B C 0.46600(21) 0.49141(15) 0.84448(7)
H15B H 0.4277 0.4578 0.8342
C13B C 0.51299(19) 0.55304(12) 0.83067(7)
H16B H 0.5085 0.5602 0.8113
C14B C 0.56545(18) 0.60193(12) 0.84676(6)
C15B C 0.57323(18) 0.59318(13) 0.87500(6)
H17B H 0.6113 0.6266 0.8855
C16B C 0.52084(18) 0.53098(13) 0.88780(6)
H18B H 0.5196 0.5276 0.9078
C17B C 0.72036(25) 0.5554(2) 0.69582(7)
C18B C 0.67481(18) 0.67031(13) 0.71771(7)
H19B H 0.6730 0.7065 0.7082
C19B C 0.66303(19) 0.66993(14) 0.74884(6)
C20B C 0.66026(19) 0.62055(13) 0.76569(6)
H20B H 0.6672 0.5856 0.7579
C21B C 0.64667(21) 0.62007(14) 0.79561(7)
H21B H 0.6469 0.5873 0.8081
C22B C 0.63280(19) 0.67338(13) 0.80502(6)
C23B C 0.63368(21) 0.71868(14) 0.78586(7)
H22B H 0.6225 0.7520 0.7921
C24B C 0.64965(21) 0.71874(14) 0.75853(6)
H23B H 0.6515 0.7527 0.7461
N15 N 0.59689(10) 0.85381(11) 0.69169(5)
C33 C 0.65783(13) 0.85313(14) 0.68764(7)
H29 H 0.6881 0.8756 0.6724
O1 O 0.66841(12) 0.82099(11) 0.70549(6)
C34 C 0.58039(15) 0.88921(15) 0.67082(7)
H30 H 0.6207 0.9170 0.6591
H31 H 0.5664 0.9191 0.6801
H32 H 0.5428 0.8558 0.6590
C35 C 0.5498(2) 0.8089(2) 0.71321(8)
H33 H 0.5740 0.7939 0.7259
H34 H 0.5116 0.7687 0.7042
H35 H 0.5319 0.8337 0.7240
N16 N 0.17889(14) 0.58122(11) 0.92011(6)
O2 O 0.16721(17) 0.67180(12) 0.92282(8)
C36 C 0.14967(16) 0.61676(13) 0.93309(8)
H36 H 0.1189 0.5989 0.9486
C37 C 0.1678(3) 0.51550(17) 0.92842(10)
H37 H 0.1492 0.5052 0.9476
H38 H 0.2115 0.5157 0.9279
H39 H 0.1353 0.4805 0.9155
C38 C 0.2022(3) 0.6024(3) 0.89146(8)
H40 H 0.2027 0.6453 0.8874
H41 H 0.1711 0.5667 0.8784
H42 H 0.2486 0.6095 0.8893
O3 O 0.35361(25) 0.80542(19) 0.57358(11)
C39 C 0.3412(4) 0.8615(3) 0.5717(2)
H43 H 0.3808 0.9030 0.5792
H44 H 0.3003 0.8512 0.5827
H45 H 0.3340 0.8690 0.5520
O4 O 0.83513(15) 1.34397(12) 0.89290(8)
N17 N 0.82243(17) 1.43344(12) 0.88308(7)
C40 C 0.8314(2) 1.39016(16) 0.90196(10)
H46 H 0.8344 1.3985 0.9217
C41 C 0.8141(2) 1.49293(17) 0.88082(15)
H47 H 0.8062 1.5058 0.8996
H48 H 0.7749 1.4822 0.8687
H49 H 0.8557 1.5311 0.8727
C42 C 0.8162(4) 1.4113(3) 0.85448(9)
H50 H 0.8229 1.3716 0.8534
H51 H 0.8510 1.4487 0.8430
H52 H 0.7705 1.3986 0.8474
O5 O 0.81987(12) 1.48177(18) 1.01268(9)
N18 N 0.72035(12) 1.47733(17) 1.01011(7)
C43 C 0.77734(13) 1.4875(2) 1.02621(8)
H53 H 0.7819 1.4978 1.0458
C44 C 0.7117(3) 1.4492(3) 0.98244(7)
H54 H 0.7457 1.4349 0.9792
H55 H 0.7180 1.4840 0.9685
H56 H 0.6655 1.4095 0.9806
C45 C 0.66011(16) 1.4824(3) 1.01611(12)
H57 H 0.6537 1.4688 0.9963
H58 H 0.6693 1.5297 1.0177
H59 H 0.6185 1.4518 1.0267
N19 N 0.81272(15) 1.19715(15) 0.84370(8)
O6 O 0.7516(2) 1.1968(3) 0.80770(9)
C46 C 0.7971(2) 1.2344(2) 0.82362(10)
H60 H 0.8198 1.2830 0.8228
C47 C 0.88312(17) 1.2277(3) 0.85147(15)
H61 H 0.9044 1.2777 0.8509
H62 H 0.9068 1.2130 0.8383
H63 H 0.8866 1.2133 0.8706
C48 C 0.7806(3) 1.12571(17) 0.83643(16)
H64 H 0.7956 1.1023 0.8496
H65 H 0.7937 1.1211 0.8172
H66 H 0.7307 1.1051 0.8375
O7 O 0.3333 1.6667 0.5646(2)
loop_
_geom_bond_atom_site_label_1
_geom_bond_atom_site_label_2
_geom_bond_site_symmetry_1
_geom_bond_site_symmetry_2
Ni1 S1 1_555 1_555
Ni2 S3 1_555 1_555
S1 C1 1_555 1_555
S2 C9 1_555 1_555
S3 C17 1_555 1_555
S4 Ni2 1_555 1_555
N1 H1 1_555 1_555
H2 N1 1_555 1_555
N2 N3 1_555 1_555
N3 Ni1 1_555 1_555
N4 H3 1_555 1_555
H4 N4 1_555 1_555
N5 N6 1_555 1_555
N6 C10 1_555 1_555
N7 H5 1_555 1_555
H6 N7 1_555 1_555
N8 N9 1_555 1_555
N9 Ni2 1_555 1_555
N10 C6 1_555 1_555
N11 H7 1_555 1_555
H8 N11 1_555 1_555
N12 N13 1_555 1_555
N13 Ni2 1_555 1_555
N14 C30 1_555 1_555
C1 N1 1_555 1_555
C2 N3 1_555 1_555
H9 C2 1_555 1_555
C3 C2 1_555 1_555
C4 C3 1_555 1_555
H10 C4 1_555 1_555
C5 C4 1_555 1_555
H11 C5 1_555 1_555
C6 C5 1_555 1_555
C7 C6 1_555 1_555
H12 C7 1_555 1_555
C8 C3 1_555 1_555
H13 C8 1_555 1_555
C9 N4 1_555 1_555
C10 H14 1_555 1_555
C11 C10 1_555 1_555
C12 C11 1_555 1_555
H15 C12 1_555 1_555
C13 C12 1_555 1_555
H16 C13 1_555 1_555
C14 N10 1_555 1_555
C15 C14 1_555 1_555
H17 C15 1_555 1_555
C16 C11 1_555 1_555
H18 C16 1_555 1_555
C17 N7 1_555 1_555
C18 N9 1_555 1_555
H19 C18 1_555 1_555
C19 C18 1_555 1_555
C20 C19 1_555 1_555
H20 C20 1_555 1_555
C21 C20 1_555 1_555
H21 C21 1_555 1_555
C22 N10 1_555 1_555
C23 C22 1_555 1_555
H22 C23 1_555 1_555
C24 C19 1_555 1_555
H23 C24 1_555 1_555
C25 S4 1_555 1_555
C26 N13 1_555 1_555
H24 C26 1_555 1_555
C27 C26 1_555 1_555
C28 C27 1_555 1_555
H25 C28 1_555 1_555
C29 C28 1_555 1_555
H26 C29 1_555 1_555
C30 C29 1_555 1_555
C31 C30 1_555 1_555
H27 C31 1_555 1_555
C32 C27 1_555 1_555
H28 C32 1_555 1_555
N15 C33 1_555 1_555
C33 H29 1_555 1_555
O1 C33 1_555 1_555
C34 N15 1_555 1_555
H30 C34 1_555 1_555
H31 C34 1_555 1_555
H32 C34 1_555 1_555
C35 N15 1_555 1_555
H33 C35 1_555 1_555
H34 C35 1_555 1_555
H35 C35 1_555 1_555
N16 C36 1_555 1_555
O2 C36 1_555 1_555
C36 H36 1_555 1_555
C37 N16 1_555 1_555
H37 C37 1_555 1_555
H38 C37 1_555 1_555
H39 C37 1_555 1_555
C38 N16 1_555 1_555
H40 C38 1_555 1_555
H41 C38 1_555 1_555
H42 C38 1_555 1_555
O3 C39 1_555 1_555
C39 H43 1_555 1_555
H44 C39 1_555 1_555
H45 C39 1_555 1_555
O4 C40 1_555 1_555
N17 C40 1_555 1_555
C40 H46 1_555 1_555
C41 N17 1_555 1_555
H47 C41 1_555 1_555
H48 C41 1_555 1_555
H49 C41 1_555 1_555
C42 N17 1_555 1_555
H50 C42 1_555 1_555
H51 C42 1_555 1_555
H52 C42 1_555 1_555
O5 C43 1_555 1_555
N18 C43 1_555 1_555
C43 H53 1_555 1_555
C44 N18 1_555 1_555
H54 C44 1_555 1_555
H55 C44 1_555 1_555
H56 C44 1_555 1_555
C45 N18 1_555 1_555
H57 C45 1_555 1_555
H58 C45 1_555 1_555
H59 C45 1_555 1_555
N19 C46 1_555 1_555
O6 C46 1_555 1_555
C46 H60 1_555 1_555
C47 N19 1_555 1_555
H61 C47 1_555 1_555
H62 C47 1_555 1_555
H63 C47 1_555 1_555
C48 N19 1_555 1_555
H64 C48 1_555 1_555
H65 C48 1_555 1_555
H66 C48 1_555 1_555
S4A C25A 1_555 1_555
N11A H7A 1_555 1_555
H8A N11A 1_555 1_555
N12A N13A 1_555 1_555
N13A C26A 1_555 1_555
C25A N11A 1_555 1_555
C26A H24A 1_555 1_555
C27A C26A 1_555 1_555
C28A C27A 1_555 1_555
H25A C28A 1_555 1_555
C29A C28A 1_555 1_555
H26A C29A 1_555 1_555
C30A N14 1_555 1_555
C31A C30A 1_555 1_555
H27A C31A 1_555 1_555
C32A C27A 1_555 1_555
H28A C32A 1_555 1_555
S4B C25B 1_555 1_555
N11B H7B 1_555 1_555
H8B N11B 1_555 1_555
N12B N13B 1_555 1_555
N13B C26B 1_555 1_555
C25B N11B 1_555 1_555
C26B H24B 1_555 1_555
C27B C26B 1_555 1_555
C28B C27B 1_555 1_555
H25B C28B 1_555 1_555
C29B C28B 1_555 1_555
H26B C29B 1_555 1_555
C30B N14 1_555 1_555
C31B C30B 1_555 1_555
H27B C31B 1_555 1_555
C32B C27B 1_555 1_555
H28B C32B 1_555 1_555
Ni1A S1A 1_555 1_555
Ni2A S4A 1_555 1_555
S1A C1A 1_555 1_555
S2A Ni1 1_555 1_555
S3A Ni2A 1_555 1_555
N1A H1A 1_555 1_555
H2A N1A 1_555 1_555
N2A N3A 1_555 1_555
N3A Ni1A 1_555 1_555
N4A H3A 1_555 1_555
H4A N4A 1_555 1_555
N5A N6A 1_555 1_555
N6A Ni1 1_555 1_555
N7A H5A 1_555 1_555
H6A N7A 1_555 1_555
N8A N9A 1_555 1_555
N9A Ni2A 1_555 1_555
N10A C6A 1_555 1_555
C1A N1A 1_555 1_555
C2A N3A 1_555 1_555
H9A C2A 1_555 1_555
C3A C2A 1_555 1_555
C4A C3A 1_555 1_555
H10A C4A 1_555 1_555
C5A C4A 1_555 1_555
H11A C5A 1_555 1_555
C6A C5A 1_555 1_555
C7A C6A 1_555 1_555
H12A C7A 1_555 1_555
C8A C3A 1_555 1_555
H13A C8A 1_555 1_555
C9A S2A 1_555 1_555
C10A N6A 1_555 1_555
H14A C10A 1_555 1_555
C11A C10A 1_555 1_555
C12A C11A 1_555 1_555
H15A C12A 1_555 1_555
C13A C12A 1_555 1_555
H16A C13A 1_555 1_555
C14A N10A 1_555 1_555
C15A C14A 1_555 1_555
H17A C15A 1_555 1_555
C16A C11A 1_555 1_555
H18A C16A 1_555 1_555
C17A S3A 1_555 1_555
C18A N9A 1_555 1_555
H19A C18A 1_555 1_555
C19A C18A 1_555 1_555
C20A C19A 1_555 1_555
H20A C20A 1_555 1_555
C21A C20A 1_555 1_555
H21A C21A 1_555 1_555
C22A N10A 1_555 1_555
C23A C22A 1_555 1_555
H22A C23A 1_555 1_555
C24A C19A 1_555 1_555
H23A C24A 1_555 1_555
Ni1B S2 1_555 1_555
Ni2B S4B 1_555 1_555
S1B Ni1B 1_555 1_555
S2B Ni1A 1_555 1_555
S3B Ni2B 1_555 1_555
N1B H1B 1_555 1_555
H2B N1B 1_555 1_555
N2B N3B 1_555 1_555
N3B Ni1B 1_555 1_555
N4B H3B 1_555 1_555
H4B N4B 1_555 1_555
N5B N6B 1_555 1_555
N6B Ni1A 1_555 1_555
N7B H5B 1_555 1_555
H6B N7B 1_555 1_555
N8B N9B 1_555 1_555
N9B Ni2B 1_555 1_555
N10B C6B 1_555 1_555
C1B S1B 1_555 1_555
C2B N3B 1_555 1_555
H9B C2B 1_555 1_555
C3B C2B 1_555 1_555
C4B C3B 1_555 1_555
H10B C4B 1_555 1_555
C5B C4B 1_555 1_555
H11B C5B 1_555 1_555
C6B C5B 1_555 1_555
C7B C6B 1_555 1_555
H12B C7B 1_555 1_555
C8B C3B 1_555 1_555
H13B C8B 1_555 1_555
C9B S2B 1_555 1_555
C10B N6B 1_555 1_555
H14B C10B 1_555 1_555
C11B C10B 1_555 1_555
C12B C11B 1_555 1_555
H15B C12B 1_555 1_555
C13B C12B 1_555 1_555
H16B C13B 1_555 1_555
C14B N10B 1_555 1_555
C15B C14B 1_555 1_555
H17B C15B 1_555 1_555
C16B C11B 1_555 1_555
H18B C16B 1_555 1_555
C17B S3B 1_555 1_555
C18B N9B 1_555 1_555
H19B C18B 1_555 1_555
C19B C18B 1_555 1_555
C20B C19B 1_555 1_555
H20B C20B 1_555 1_555
C21B C20B 1_555 1_555
H21B C21B 1_555 1_555
C22B N10B 1_555 1_555
C23B C22B 1_555 1_555
H22B C23B 1_555 1_555
C24B C19B 1_555 1_555
H23B C24B 1_555 1_555
N2 C1 1_555 1_555
N5 C9 1_555 1_555
N6 Ni1B 1_555 1_555
N8 C17 1_555 1_555
N11 C25 1_555 1_555
N12 C25 1_555 1_555
C7 C8 1_555 1_555
C13 C14 1_555 1_555
C15 C16 1_555 1_555
C21 C22 1_555 1_555
C23 C24 1_555 1_555
C31 C32 1_555 1_555
N12A C25A 1_555 1_555
N13A Ni2A 1_555 1_555
C29A C30A 1_555 1_555
C31A C32A 1_555 1_555
N12B C25B 1_555 1_555
N13B Ni2B 1_555 1_555
C29B C30B 1_555 1_555
C31B C32B 1_555 1_555
N2A C1A 1_555 1_555
N4A C9A 1_555 1_555
N5A C9A 1_555 1_555
N7A C17A 1_555 1_555
N8A C17A 1_555 1_555
C7A C8A 1_555 1_555
C13A C14A 1_555 1_555
C15A C16A 1_555 1_555
C21A C22A 1_555 1_555
C23A C24A 1_555 1_555
N1B C1B 1_555 1_555
N2B C1B 1_555 1_555
N4B C9B 1_555 1_555
N5B C9B 1_555 1_555
N7B C17B 1_555 1_555
N8B C17B 1_555 1_555
C7B C8B 1_555 1_555
C13B C14B 1_555 1_555
C15B C16B 1_555 1_555
C21B C22B 1_555 1_555
C23B C24B 1_555 1_555

#END
