
#######################################################################
#
#                 Cambridge Crystallographic Data Centre
#                                CCDC 
#
#######################################################################
#
# If this CIF has been generated from an entry in the Cambridge 
# Structural Database, then it will include bibliographic, chemical, 
# crystal, experimental, refinement or atomic coordinate data resulting 
# from the CCDC's data processing and validation procedures.
#
#######################################################################

data_WEGCOA
_chemical_formula_moiety         'C222 H180 Cu6 N6 P12'
_chemical_name_systematic        
hexakis((\m~2~-Cyano)-bis(triphenylphosphine)-copper(i))
_symmetry_cell_setting           rhombohedral
_symmetry_space_group_name_H-M   'R -3'
_symmetry_Int_Tables_number      148
_space_group_name_Hall           '-R 3'
loop_
_symmetry_equiv_pos_site_id
_symmetry_equiv_pos_as_xyz
1 x,y,z
2 -y,x-y,z
3 -x+y,-x,z
4 2/3+x,1/3+y,1/3+z
5 2/3-y,1/3+x-y,1/3+z
6 2/3-x+y,1/3-x,1/3+z
7 1/3+x,2/3+y,2/3+z
8 1/3-y,2/3+x-y,2/3+z
9 1/3-x+y,2/3-x,2/3+z
10 -x,-y,-z
11 y,-x+y,-z
12 x-y,x,-z
13 1/3-x,2/3-y,2/3-z
14 1/3+y,2/3-x+y,2/3-z
15 1/3+x-y,2/3+x,2/3-z
16 2/3-x,1/3-y,1/3-z
17 2/3+y,1/3-x+y,1/3-z
18 2/3+x-y,1/3+x,1/3-z
_cell_length_a                   34.402(2)
_cell_length_b                   34.402(2)
_cell_length_c                   13.7159(11)
_cell_angle_alpha                90
_cell_angle_beta                 90
_cell_angle_gamma                120
_cell_volume                     14058
_exptl_crystal_colour            red
_exptl_crystal_description       hexagonal
_cell_formula_units_Z            3
loop_
_atom_site_label
_atom_site_type_symbol
_atom_site_fract_x
_atom_site_fract_y
_atom_site_fract_z
Cu1 Cu 0.158805(4) 0.041696(4) 0.441824(9)
P1 P 0.160982(8) 0.040519(8) 0.27211(2)
P2 P 0.228190(8) 0.060447(9) 0.50372(2)
N1 N 0.11465(3) -0.02024(3) 0.49131(7)
C1 C 0.14383(3) 0.08789(3) 0.48452(7)
C2 C 0.19769(3) 0.02198(3) 0.21704(8)
C3 C 0.18335(4) -0.02349(4) 0.20932(10)
H1 H 0.1527(3) -0.0456(4) 0.2306(9)
C4 C 0.21218(4) -0.03772(4) 0.17502(12)
H2 H 0.2032(4) -0.0654(4) 0.1717(10)
C5 C 0.25519(4) -0.00709(5) 0.14845(13)
H3 H 0.2744(5) -0.0176(5) 0.1180(12)
C6 C 0.27014(4) 0.03793(5) 0.1580(2)
H4 H 0.2975(5) 0.0576(5) 0.1418(12)
C7 C 0.24157(4) 0.05259(4) 0.19212(12)
H5 H 0.2507(4) 0.0835(4) 0.2002(10)
C8 C 0.10570(3) 0.00117(3) 0.22140(8)
C9 C 0.06938(3) -0.01658(4) 0.28489(9)
H6 H 0.0740(3) -0.0076(3) 0.3475(8)
C10 C 0.02666(4) -0.04674(5) 0.25218(10)
H7 H 0.0053(4) -0.0593(4) 0.2958(11)
C11 C 0.01912(4) -0.05861(4) 0.15648(11)
H8 H -0.0089(5) -0.0813(5) 0.1281(12)
C12 C 0.05484(4) -0.04121(4) 0.09180(10)
H9 H 0.0506(4) -0.0492(4) 0.0318(10)
C13 C 0.09771(4) -0.01202(4) 0.12384(9)
H10 H 0.1211(4) -0.0021(4) 0.0777(9)
C14 C 0.17927(3) 0.09326(3) 0.20493(8)
C15 C 0.18529(4) 0.09684(4) 0.10467(9)
H11 H 0.1805(4) 0.0719(4) 0.0692(10)
C16 C 0.20064(4) 0.13766(5) 0.05797(10)
H12 H 0.2032(4) 0.1375(4) -0.0063(11)
C17 C 0.21065(4) 0.17525(4) 0.11050(12)
H13 H 0.2231(4) 0.2056(5) 0.0771(11)
C18 C 0.20536(5) 0.17229(4) 0.20894(12)
H14 H 0.2118(5) 0.1934(5) 0.2408(11)
C19 C 0.18917(4) 0.13154(4) 0.25657(10)
H15 H 0.1865(4) 0.1312(4) 0.3203(9)
C20 C 0.24403(3) 0.01691(4) 0.51298(9)
C21 C 0.22536(5) -0.01770(5) 0.44665(12)
H16 H 0.2031(4) -0.0211(5) 0.4121(11)
C22 C 0.23847(6) -0.04939(5) 0.44266(15)
H17 H 0.2229(6) -0.0737(6) 0.3907(16)
C23 C 0.26983(5) -0.04773(5) 0.5061(2)
H18 H 0.2756(5) -0.0699(5) 0.5084(14)
C24 C 0.28784(5) -0.01465(5) 0.5750(2)
H19 H 0.3080(5) -0.0157(5) 0.6224(14)
C25 C 0.27489(4) 0.01759(5) 0.57820(13)
H20 H 0.2847(4) 0.0368(5) 0.6217(12)
C26 C 0.23739(3) 0.08244(3) 0.62755(8)
C27 C 0.19974(4) 0.06674(4) 0.68744(9)
H21 H 0.1724(4) 0.0468(3) 0.6624(9)
C28 C 0.20445(4) 0.07726(4) 0.78520(11)
H22 H 0.1806(4) 0.0671(4) 0.8205(11)
C29 C 0.24602(4) 0.10377(4) 0.82513(10)
H23 H 0.2483(4) 0.1103(4) 0.8939(11)
C30 C 0.28355(4) 0.12106(4) 0.76650(11)
H24 H 0.3147(5) 0.1421(5) 0.7977(12)
C31 C 0.27948(4) 0.11069(4) 0.66853(10)
H25 H 0.3052(4) 0.1215(4) 0.6297(9)
C32 C 0.27502(3) 0.10425(4) 0.43335(8)
C33 C 0.27347(5) 0.14266(4) 0.41127(11)
H26 H 0.2513(4) 0.1469(4) 0.4388(11)
C34 C 0.30478(6) 0.17503(5) 0.35005(13)
H27 H 0.3029(5) 0.2006(5) 0.3404(13)
C35 C 0.33762(5) 0.16901(6) 0.30891(12)
H28 H 0.3573(5) 0.1905(5) 0.2660(13)
C36 C 0.34006(5) 0.13187(6) 0.32994(13)
H29 H 0.3624(5) 0.1288(5) 0.3044(14)
C37 C 0.30875(4) 0.09937(5) 0.39257(12)
H30 H 0.3069(4) 0.0713(4) 0.3990(10)
C1J C 0.08789(3) -0.05594(4) 0.51548(7)
Cu1J Cu 0.041696(4) -0.117109(6) 0.558176(9)
P1J P 0.040519(8) -0.120463(11) 0.72789(2)
C2J C 0.02198(3) -0.17571(4) 0.78296(8)
C3J C -0.02349(4) -0.20684(6) 0.79068(10)
H1J H -0.0456(4) -0.1983(5) 0.7694(9)
C4J C -0.03772(4) -0.24990(6) 0.82498(12)
H2J H -0.0654(4) -0.2686(6) 0.8283(10)
C5J C -0.00709(5) -0.26228(6) 0.85155(13)
H3J H -0.0176(5) -0.2920(7) 0.8820(12)
C6J C 0.03793(5) -0.23221(6) 0.8420(2)
H4J H 0.0576(5) -0.2399(7) 0.8582(12)
C7J C 0.05259(4) -0.18898(6) 0.80788(12)
H5J H 0.0835(4) -0.1672(6) 0.7998(10)
C8J C 0.00117(3) -0.10453(4) 0.77860(8)
C9J C -0.01658(4) -0.08596(5) 0.71511(9)
H6J H -0.0076(3) -0.0816(4) 0.6525(8)
C10J C -0.04674(5) -0.07340(6) 0.74782(10)
H7J H -0.0593(4) -0.0646(6) 0.7042(11)
C11J C -0.05861(4) -0.07773(6) 0.84352(11)
H8J H -0.0813(5) -0.0724(7) 0.8719(12)
C12J C -0.04121(4) -0.09605(6) 0.90820(10)
H9J H -0.0492(4) -0.0998(6) 0.9682(10)
C13J C -0.01202(4) -0.10973(6) 0.87616(9)
H10J H -0.0021(4) -0.1232(6) 0.9223(9)
C14J C 0.09326(3) -0.08601(4) 0.79507(8)
C15J C 0.09684(4) -0.08845(6) 0.89533(9)
H11J H 0.0719(4) -0.1086(6) 0.9308(10)
C16J C 0.13766(5) -0.06298(6) 0.94203(10)
H12J H 0.1375(4) -0.0657(6) 1.0063(11)
C17J C 0.17525(4) -0.03540(6) 0.88950(12)
H13J H 0.2056(5) -0.0175(6) 0.9229(11)
C18J C 0.17229(4) -0.03307(6) 0.79106(12)
H14J H 0.1934(5) -0.0184(7) 0.7592(11)
C19J C 0.13154(4) -0.05763(6) 0.74343(10)
H15J H 0.1312(4) -0.0553(6) 0.6797(9)
P2J P 0.060447(9) -0.167743(12) 0.49628(2)
C20J C 0.01691(4) -0.22712(5) 0.48702(9)
C21J C -0.01770(5) -0.24306(7) 0.55335(12)
H16J H -0.0211(5) -0.2242(6) 0.5879(11)
C22J C -0.04939(5) -0.28786(8) 0.55734(15)
H17J H -0.0737(6) -0.2966(8) 0.6093(16)
C23J C -0.04773(5) -0.31756(7) 0.4939(2)
H18J H -0.0699(5) -0.3455(7) 0.4916(14)
C24J C -0.01465(5) -0.30249(7) 0.4250(2)
H19J H -0.0157(5) -0.3237(7) 0.3776(14)
C25J C 0.01759(5) -0.25730(6) 0.42180(13)
H20J H 0.0368(5) -0.2479(6) 0.3783(12)
C26J C 0.08244(3) -0.15495(4) 0.37245(8)
C27J C 0.06674(4) -0.13300(6) 0.31256(9)
H21J H 0.0468(3) -0.1256(5) 0.3376(9)
C28J C 0.07726(4) -0.12719(6) 0.21480(11)
H22J H 0.0671(4) -0.1135(6) 0.1795(11)
C29J C 0.10377(4) -0.14225(6) 0.17487(10)
H23J H 0.1103(4) -0.1380(6) 0.1061(11)
C30J C 0.12106(4) -0.16249(6) 0.23350(11)
H24J H 0.1421(5) -0.1726(7) 0.2023(12)
C31J C 0.11069(4) -0.16879(6) 0.33147(10)
H25J H 0.1215(4) -0.1837(6) 0.3703(9)
C32J C 0.10425(4) -0.17077(5) 0.56665(8)
C33J C 0.14266(4) -0.13081(6) 0.58873(11)
H26J H 0.1469(4) -0.1044(6) 0.5612(11)
C34J C 0.17503(5) -0.12975(8) 0.64995(13)
H27J H 0.2006(5) -0.1023(7) 0.6596(13)
C35J C 0.16901(6) -0.16861(8) 0.69109(12)
H28J H 0.1905(5) -0.1668(7) 0.7340(13)
C36J C 0.13187(6) -0.20819(8) 0.67006(13)
H29J H 0.1288(5) -0.2336(7) 0.6956(14)
C37J C 0.09937(5) -0.20938(6) 0.60743(12)
H30J H 0.0713(4) -0.2356(6) 0.6010(10)
N1J N -0.02024(3) -0.13489(4) 0.50869(7)
C1B C -0.05594(4) -0.14383(3) 0.48452(7)
Cu1B Cu -0.117109(6) -0.158805(4) 0.441824(9)
P1B P -0.120463(11) -0.160982(8) 0.27211(2)
C2B C -0.17571(4) -0.19769(3) 0.21704(8)
C3B C -0.20684(6) -0.18335(4) 0.20932(10)
H1B H -0.1983(5) -0.1527(3) 0.2306(9)
C4B C -0.24990(6) -0.21218(4) 0.17502(12)
H2B H -0.2686(6) -0.2032(4) 0.1717(10)
C5B C -0.26228(6) -0.25519(4) 0.14845(13)
H3B H -0.2920(7) -0.2744(5) 0.1180(12)
C6B C -0.23221(6) -0.27014(4) 0.1580(2)
H4B H -0.2399(7) -0.2975(5) 0.1418(12)
C7B C -0.18898(6) -0.24157(4) 0.19212(12)
H5B H -0.1672(6) -0.2507(4) 0.2002(10)
C8B C -0.10453(4) -0.10570(3) 0.22140(8)
C9B C -0.08596(5) -0.06938(3) 0.28489(9)
H6B H -0.0816(4) -0.0740(3) 0.3475(8)
C10B C -0.07340(6) -0.02666(4) 0.25218(10)
H7B H -0.0646(6) -0.0053(4) 0.2958(11)
C11B C -0.07773(6) -0.01912(4) 0.15648(11)
H8B H -0.0724(7) 0.0089(5) 0.1281(12)
C12B C -0.09605(6) -0.05484(4) 0.09180(10)
H9B H -0.0998(6) -0.0506(4) 0.0318(10)
C13B C -0.10973(6) -0.09771(4) 0.12384(9)
H10B H -0.1232(6) -0.1211(4) 0.0777(9)
C14B C -0.08601(4) -0.17927(3) 0.20493(8)
C15B C -0.08845(6) -0.18529(4) 0.10467(9)
H11B H -0.1086(6) -0.1805(4) 0.0692(10)
C16B C -0.06298(6) -0.20064(4) 0.05797(10)
H12B H -0.0657(6) -0.2032(4) -0.0063(11)
C17B C -0.03540(6) -0.21065(4) 0.11050(12)
H13B H -0.0175(6) -0.2231(4) 0.0771(11)
C18B C -0.03307(6) -0.20536(5) 0.20894(12)
H14B H -0.0184(7) -0.2118(5) 0.2408(11)
C19B C -0.05763(6) -0.18917(4) 0.25657(10)
H15B H -0.0553(6) -0.1865(4) 0.3203(9)
P2B P -0.167743(12) -0.228190(8) 0.50372(2)
C20B C -0.22712(5) -0.24403(3) 0.51298(9)
C21B C -0.24306(7) -0.22536(5) 0.44665(12)
H16B H -0.2242(6) -0.2031(4) 0.4121(11)
C22B C -0.28786(8) -0.23847(6) 0.44266(15)
H17B H -0.2966(8) -0.2229(6) 0.3907(16)
C23B C -0.31756(7) -0.26983(5) 0.5061(2)
H18B H -0.3455(7) -0.2756(5) 0.5084(14)
C24B C -0.30249(7) -0.28784(5) 0.5750(2)
H19B H -0.3237(7) -0.3080(5) 0.6224(14)
C25B C -0.25730(6) -0.27489(4) 0.57820(13)
H20B H -0.2479(6) -0.2847(4) 0.6217(12)
C26B C -0.15495(4) -0.23739(3) 0.62755(8)
C27B C -0.13300(6) -0.19974(4) 0.68744(9)
H21B H -0.1256(5) -0.1724(4) 0.6624(9)
C28B C -0.12719(6) -0.20445(4) 0.78520(11)
H22B H -0.1135(6) -0.1806(4) 0.8205(11)
C29B C -0.14225(6) -0.24602(4) 0.82513(10)
H23B H -0.1380(6) -0.2483(4) 0.8939(11)
C30B C -0.16249(6) -0.28355(4) 0.76650(11)
H24B H -0.1726(7) -0.3147(5) 0.7977(12)
C31B C -0.16879(6) -0.27948(4) 0.66853(10)
H25B H -0.1837(6) -0.3052(4) 0.6297(9)
C32B C -0.17077(5) -0.27502(3) 0.43335(8)
C33B C -0.13081(6) -0.27347(5) 0.41127(11)
H26B H -0.1044(6) -0.2513(4) 0.4388(11)
C34B C -0.12975(8) -0.30478(6) 0.35005(13)
H27B H -0.1023(7) -0.3029(5) 0.3404(13)
C35B C -0.16861(8) -0.33762(5) 0.30891(12)
H28B H -0.1668(7) -0.3573(5) 0.2660(13)
C36B C -0.20819(8) -0.34006(5) 0.32994(13)
H29B H -0.2336(7) -0.3624(5) 0.3044(14)
C37B C -0.20938(6) -0.30875(4) 0.39257(12)
H30B H -0.2356(6) -0.3069(4) 0.3990(10)
N1B N -0.13489(4) -0.11465(3) 0.49131(7)
C1I C -0.14383(3) -0.08789(3) 0.51548(7)
Cu1I Cu -0.158805(4) -0.041696(4) 0.558176(9)
P1I P -0.160982(8) -0.040519(8) 0.72789(2)
C2I C -0.19769(3) -0.02198(3) 0.78296(8)
C3I C -0.18335(4) 0.02349(4) 0.79068(10)
H1I H -0.1527(3) 0.0456(4) 0.7694(9)
C4I C -0.21218(4) 0.03772(4) 0.82498(12)
H2I H -0.2032(4) 0.0654(4) 0.8283(10)
C5I C -0.25519(4) 0.00709(5) 0.85155(13)
H3I H -0.2744(5) 0.0176(5) 0.8820(12)
C6I C -0.27014(4) -0.03793(5) 0.8420(2)
H4I H -0.2975(5) -0.0576(5) 0.8582(12)
C7I C -0.24157(4) -0.05259(4) 0.80788(12)
H5I H -0.2507(4) -0.0835(4) 0.7998(10)
C8I C -0.10570(3) -0.00117(3) 0.77860(8)
C9I C -0.06938(3) 0.01658(4) 0.71511(9)
H6I H -0.0740(3) 0.0076(3) 0.6525(8)
C10I C -0.02666(4) 0.04674(5) 0.74782(10)
H7I H -0.0053(4) 0.0593(4) 0.7042(11)
C11I C -0.01912(4) 0.05861(4) 0.84352(11)
H8I H 0.0089(5) 0.0813(5) 0.8719(12)
C12I C -0.05484(4) 0.04121(4) 0.90820(10)
H9I H -0.0506(4) 0.0492(4) 0.9682(10)
C13I C -0.09771(4) 0.01202(4) 0.87616(9)
H10I H -0.1211(4) 0.0021(4) 0.9223(9)
C14I C -0.17927(3) -0.09326(3) 0.79507(8)
C15I C -0.18529(4) -0.09684(4) 0.89533(9)
H11I H -0.1805(4) -0.0719(4) 0.9308(10)
C16I C -0.20064(4) -0.13766(5) 0.94203(10)
H12I H -0.2032(4) -0.1375(4) 1.0063(11)
C17I C -0.21065(4) -0.17525(4) 0.88950(12)
H13I H -0.2231(4) -0.2056(5) 0.9229(11)
C18I C -0.20536(5) -0.17229(4) 0.79106(12)
H14I H -0.2118(5) -0.1934(5) 0.7592(11)
C19I C -0.18917(4) -0.13154(4) 0.74343(10)
H15I H -0.1865(4) -0.1312(4) 0.6797(9)
P2I P -0.228190(8) -0.060447(9) 0.49628(2)
C20I C -0.24403(3) -0.01691(4) 0.48702(9)
C21I C -0.22536(5) 0.01770(5) 0.55335(12)
H16I H -0.2031(4) 0.0211(5) 0.5879(11)
C22I C -0.23847(6) 0.04939(5) 0.55734(15)
H17I H -0.2229(6) 0.0737(6) 0.6093(16)
C23I C -0.26983(5) 0.04773(5) 0.4939(2)
H18I H -0.2756(5) 0.0699(5) 0.4916(14)
C24I C -0.28784(5) 0.01465(5) 0.4250(2)
H19I H -0.3080(5) 0.0157(5) 0.3776(14)
C25I C -0.27489(4) -0.01759(5) 0.42180(13)
H20I H -0.2847(4) -0.0368(5) 0.3783(12)
C26I C -0.23739(3) -0.08244(3) 0.37245(8)
C27I C -0.19974(4) -0.06674(4) 0.31256(9)
H21I H -0.1724(4) -0.0468(3) 0.3376(9)
C28I C -0.20445(4) -0.07726(4) 0.21480(11)
H22I H -0.1806(4) -0.0671(4) 0.1795(11)
C29I C -0.24602(4) -0.10377(4) 0.17487(10)
H23I H -0.2483(4) -0.1103(4) 0.1061(11)
C30I C -0.28355(4) -0.12106(4) 0.23350(11)
H24I H -0.3147(5) -0.1421(5) 0.2023(12)
C31I C -0.27948(4) -0.11069(4) 0.33147(10)
H25I H -0.3052(4) -0.1215(4) 0.3703(9)
C32I C -0.27502(3) -0.10425(4) 0.56665(8)
C33I C -0.27347(5) -0.14266(4) 0.58873(11)
H26I H -0.2513(4) -0.1469(4) 0.5612(11)
C34I C -0.30478(6) -0.17503(5) 0.64995(13)
H27I H -0.3029(5) -0.2006(5) 0.6596(13)
C35I C -0.33762(5) -0.16901(6) 0.69109(12)
H28I H -0.3573(5) -0.1905(5) 0.7340(13)
C36I C -0.34006(5) -0.13187(6) 0.67006(13)
H29I H -0.3624(5) -0.1288(5) 0.6956(14)
C37I C -0.30875(4) -0.09937(5) 0.60743(12)
H30I H -0.3069(4) -0.0713(4) 0.6010(10)
N1I N -0.11465(3) 0.02024(3) 0.50869(7)
C1A C -0.08789(3) 0.05594(4) 0.48452(7)
Cu1A Cu -0.041696(4) 0.117109(6) 0.441824(9)
P1A P -0.040519(8) 0.120463(11) 0.27211(2)
C2A C -0.02198(3) 0.17571(4) 0.21704(8)
C3A C 0.02349(4) 0.20684(6) 0.20932(10)
H1A H 0.0456(4) 0.1983(5) 0.2306(9)
C4A C 0.03772(4) 0.24990(6) 0.17502(12)
H2A H 0.0654(4) 0.2686(6) 0.1717(10)
C5A C 0.00709(5) 0.26228(6) 0.14845(13)
H3A H 0.0176(5) 0.2920(7) 0.1180(12)
C6A C -0.03793(5) 0.23221(6) 0.1580(2)
H4A H -0.0576(5) 0.2399(7) 0.1418(12)
C7A C -0.05259(4) 0.18898(6) 0.19212(12)
H5A H -0.0835(4) 0.1672(6) 0.2002(10)
C8A C -0.00117(3) 0.10453(4) 0.22140(8)
C9A C 0.01658(4) 0.08596(5) 0.28489(9)
H6A H 0.0076(3) 0.0816(4) 0.3475(8)
C10A C 0.04674(5) 0.07340(6) 0.25218(10)
H7A H 0.0593(4) 0.0646(6) 0.2958(11)
C11A C 0.05861(4) 0.07773(6) 0.15648(11)
H8A H 0.0813(5) 0.0724(7) 0.1281(12)
C12A C 0.04121(4) 0.09605(6) 0.09180(10)
H9A H 0.0492(4) 0.0998(6) 0.0318(10)
C13A C 0.01202(4) 0.10973(6) 0.12384(9)
H10A H 0.0021(4) 0.1232(6) 0.0777(9)
C14A C -0.09326(3) 0.08601(4) 0.20493(8)
C15A C -0.09684(4) 0.08845(6) 0.10467(9)
H11A H -0.0719(4) 0.1086(6) 0.0692(10)
C16A C -0.13766(5) 0.06298(6) 0.05797(10)
H12A H -0.1375(4) 0.0657(6) -0.0063(11)
C17A C -0.17525(4) 0.03540(6) 0.11050(12)
H13A H -0.2056(5) 0.0175(6) 0.0771(11)
C18A C -0.17229(4) 0.03307(6) 0.20894(12)
H14A H -0.1934(5) 0.0184(7) 0.2408(11)
C19A C -0.13154(4) 0.05763(6) 0.25657(10)
H15A H -0.1312(4) 0.0553(6) 0.3203(9)
P2A P -0.060447(9) 0.167743(12) 0.50372(2)
C20A C -0.01691(4) 0.22712(5) 0.51298(9)
C21A C 0.01770(5) 0.24306(7) 0.44665(12)
H16A H 0.0211(5) 0.2242(6) 0.4121(11)
C22A C 0.04939(5) 0.28786(8) 0.44266(15)
H17A H 0.0737(6) 0.2966(8) 0.3907(16)
C23A C 0.04773(5) 0.31756(7) 0.5061(2)
H18A H 0.0699(5) 0.3455(7) 0.5084(14)
C24A C 0.01465(5) 0.30249(7) 0.5750(2)
H19A H 0.0157(5) 0.3237(7) 0.6224(14)
C25A C -0.01759(5) 0.25730(6) 0.57820(13)
H20A H -0.0368(5) 0.2479(6) 0.6217(12)
C26A C -0.08244(3) 0.15495(4) 0.62755(8)
C27A C -0.06674(4) 0.13300(6) 0.68744(9)
H21A H -0.0468(3) 0.1256(5) 0.6624(9)
C28A C -0.07726(4) 0.12719(6) 0.78520(11)
H22A H -0.0671(4) 0.1135(6) 0.8205(11)
C29A C -0.10377(4) 0.14225(6) 0.82513(10)
H23A H -0.1103(4) 0.1380(6) 0.8939(11)
C30A C -0.12106(4) 0.16249(6) 0.76650(11)
H24A H -0.1421(5) 0.1726(7) 0.7977(12)
C31A C -0.11069(4) 0.16879(6) 0.66853(10)
H25A H -0.1215(4) 0.1837(6) 0.6297(9)
C32A C -0.10425(4) 0.17077(5) 0.43335(8)
C33A C -0.14266(4) 0.13081(6) 0.41127(11)
H26A H -0.1469(4) 0.1044(6) 0.4388(11)
C34A C -0.17503(5) 0.12975(8) 0.35005(13)
H27A H -0.2006(5) 0.1023(7) 0.3404(13)
C35A C -0.16901(6) 0.16861(8) 0.30891(12)
H28A H -0.1905(5) 0.1668(7) 0.2660(13)
C36A C -0.13187(6) 0.20819(8) 0.32994(13)
H29A H -0.1288(5) 0.2336(7) 0.3044(14)
C37A C -0.09937(5) 0.20938(6) 0.39257(12)
H30A H -0.0713(4) 0.2356(6) 0.3990(10)
N1A N 0.02024(3) 0.13489(4) 0.49131(7)
C1K C 0.05594(4) 0.14383(3) 0.51548(7)
Cu1K Cu 0.117109(6) 0.158805(4) 0.558176(9)
P1K P 0.120463(11) 0.160982(8) 0.72789(2)
C2K C 0.17571(4) 0.19769(3) 0.78296(8)
C3K C 0.20684(6) 0.18335(4) 0.79068(10)
H1K H 0.1983(5) 0.1527(3) 0.7694(9)
C4K C 0.24990(6) 0.21218(4) 0.82498(12)
H2K H 0.2686(6) 0.2032(4) 0.8283(10)
C5K C 0.26228(6) 0.25519(4) 0.85155(13)
H3K H 0.2920(7) 0.2744(5) 0.8820(12)
C6K C 0.23221(6) 0.27014(4) 0.8420(2)
H4K H 0.2399(7) 0.2975(5) 0.8582(12)
C7K C 0.18898(6) 0.24157(4) 0.80788(12)
H5K H 0.1672(6) 0.2507(4) 0.7998(10)
C8K C 0.10453(4) 0.10570(3) 0.77860(8)
C9K C 0.08596(5) 0.06938(3) 0.71511(9)
H6K H 0.0816(4) 0.0740(3) 0.6525(8)
C10K C 0.07340(6) 0.02666(4) 0.74782(10)
H7K H 0.0646(6) 0.0053(4) 0.7042(11)
C11K C 0.07773(6) 0.01912(4) 0.84352(11)
H8K H 0.0724(7) -0.0089(5) 0.8719(12)
C12K C 0.09605(6) 0.05484(4) 0.90820(10)
H9K H 0.0998(6) 0.0506(4) 0.9682(10)
C13K C 0.10973(6) 0.09771(4) 0.87616(9)
H10K H 0.1232(6) 0.1211(4) 0.9223(9)
C14K C 0.08601(4) 0.17927(3) 0.79507(8)
C15K C 0.08845(6) 0.18529(4) 0.89533(9)
H11K H 0.1086(6) 0.1805(4) 0.9308(10)
C16K C 0.06298(6) 0.20064(4) 0.94203(10)
H12K H 0.0657(6) 0.2032(4) 1.0063(11)
C17K C 0.03540(6) 0.21065(4) 0.88950(12)
H13K H 0.0175(6) 0.2231(4) 0.9229(11)
C18K C 0.03307(6) 0.20536(5) 0.79106(12)
H14K H 0.0184(7) 0.2118(5) 0.7592(11)
C19K C 0.05763(6) 0.18917(4) 0.74343(10)
H15K H 0.0553(6) 0.1865(4) 0.6797(9)
P2K P 0.167743(12) 0.228190(8) 0.49628(2)
C20K C 0.22712(5) 0.24403(3) 0.48702(9)
C21K C 0.24306(7) 0.22536(5) 0.55335(12)
H16K H 0.2242(6) 0.2031(4) 0.5879(11)
C22K C 0.28786(8) 0.23847(6) 0.55734(15)
H17K H 0.2966(8) 0.2229(6) 0.6093(16)
C23K C 0.31756(7) 0.26983(5) 0.4939(2)
H18K H 0.3455(7) 0.2756(5) 0.4916(14)
C24K C 0.30249(7) 0.28784(5) 0.4250(2)
H19K H 0.3237(7) 0.3080(5) 0.3776(14)
C25K C 0.25730(6) 0.27489(4) 0.42180(13)
H20K H 0.2479(6) 0.2847(4) 0.3783(12)
C26K C 0.15495(4) 0.23739(3) 0.37245(8)
C27K C 0.13300(6) 0.19974(4) 0.31256(9)
H21K H 0.1256(5) 0.1724(4) 0.3376(9)
C28K C 0.12719(6) 0.20445(4) 0.21480(11)
H22K H 0.1135(6) 0.1806(4) 0.1795(11)
C29K C 0.14225(6) 0.24602(4) 0.17487(10)
H23K H 0.1380(6) 0.2483(4) 0.1061(11)
C30K C 0.16249(6) 0.28355(4) 0.23350(11)
H24K H 0.1726(7) 0.3147(5) 0.2023(12)
C31K C 0.16879(6) 0.27948(4) 0.33147(10)
H25K H 0.1837(6) 0.3052(4) 0.3703(9)
C32K C 0.17077(5) 0.27502(3) 0.56665(8)
C33K C 0.13081(6) 0.27347(5) 0.58873(11)
H26K H 0.1044(6) 0.2513(4) 0.5612(11)
C34K C 0.12975(8) 0.30478(6) 0.64995(13)
H27K H 0.1023(7) 0.3029(5) 0.6596(13)
C35K C 0.16861(8) 0.33762(5) 0.69109(12)
H28K H 0.1668(7) 0.3573(5) 0.7340(13)
C36K C 0.20819(8) 0.34006(5) 0.67006(13)
H29K H 0.2336(7) 0.3624(5) 0.6956(14)
C37K C 0.20938(6) 0.30875(4) 0.60743(12)
H30K H 0.2356(6) 0.3069(4) 0.6010(10)
N1K N 0.13489(4) 0.11465(3) 0.50869(7)
loop_
_geom_bond_atom_site_label_1
_geom_bond_atom_site_label_2
_geom_bond_site_symmetry_1
_geom_bond_site_symmetry_2
Cu1 P1 1_555 1_555
P1 C2 1_555 1_555
P2 Cu1 1_555 1_555
N1 Cu1 1_555 1_555
C1 Cu1 1_555 1_555
C2 C3 1_555 1_555
C3 H1 1_555 1_555
C4 C3 1_555 1_555
H2 C4 1_555 1_555
C5 C4 1_555 1_555
H3 C5 1_555 1_555
C6 C5 1_555 1_555
H4 C6 1_555 1_555
C7 C2 1_555 1_555
H5 C7 1_555 1_555
C8 P1 1_555 1_555
C9 C8 1_555 1_555
H6 C9 1_555 1_555
C10 C9 1_555 1_555
H7 C10 1_555 1_555
C11 C10 1_555 1_555
H8 C11 1_555 1_555
C12 C11 1_555 1_555
H9 C12 1_555 1_555
C13 C8 1_555 1_555
H10 C13 1_555 1_555
C14 P1 1_555 1_555
C15 C14 1_555 1_555
H11 C15 1_555 1_555
C16 C15 1_555 1_555
H12 C16 1_555 1_555
C17 C16 1_555 1_555
H13 C17 1_555 1_555
C18 C17 1_555 1_555
H14 C18 1_555 1_555
C19 C14 1_555 1_555
H15 C19 1_555 1_555
C20 P2 1_555 1_555
C21 C20 1_555 1_555
H16 C21 1_555 1_555
C22 C21 1_555 1_555
H17 C22 1_555 1_555
C23 C22 1_555 1_555
H18 C23 1_555 1_555
C24 C23 1_555 1_555
H19 C24 1_555 1_555
C25 C20 1_555 1_555
H20 C25 1_555 1_555
C26 P2 1_555 1_555
C27 C26 1_555 1_555
H21 C27 1_555 1_555
C28 C27 1_555 1_555
H22 C28 1_555 1_555
C29 C28 1_555 1_555
H23 C29 1_555 1_555
C30 C29 1_555 1_555
H24 C30 1_555 1_555
C31 C26 1_555 1_555
H25 C31 1_555 1_555
C32 P2 1_555 1_555
C33 C32 1_555 1_555
H26 C33 1_555 1_555
C34 C33 1_555 1_555
H27 C34 1_555 1_555
C35 C34 1_555 1_555
H28 C35 1_555 1_555
C36 C35 1_555 1_555
H29 C36 1_555 1_555
C37 C32 1_555 1_555
H30 C37 1_555 1_555
C1J N1 1_555 1_555
Cu1J C1J 1_555 1_555
P1J Cu1J 1_555 1_555
C2J P1J 1_555 1_555
C3J C2J 1_555 1_555
H1J C3J 1_555 1_555
C4J C3J 1_555 1_555
H2J C4J 1_555 1_555
C5J C4J 1_555 1_555
H3J C5J 1_555 1_555
C6J C5J 1_555 1_555
H4J C6J 1_555 1_555
C7J C2J 1_555 1_555
H5J C7J 1_555 1_555
C8J P1J 1_555 1_555
C9J C8J 1_555 1_555
H6J C9J 1_555 1_555
C10J C9J 1_555 1_555
H7J C10J 1_555 1_555
C11J C10J 1_555 1_555
H8J C11J 1_555 1_555
C12J C11J 1_555 1_555
H9J C12J 1_555 1_555
C13J C8J 1_555 1_555
H10J C13J 1_555 1_555
C14J P1J 1_555 1_555
C15J C14J 1_555 1_555
H11J C15J 1_555 1_555
C16J C15J 1_555 1_555
H12J C16J 1_555 1_555
C17J C16J 1_555 1_555
H13J C17J 1_555 1_555
C18J C17J 1_555 1_555
H14J C18J 1_555 1_555
C19J C14J 1_555 1_555
H15J C19J 1_555 1_555
P2J Cu1J 1_555 1_555
C20J P2J 1_555 1_555
C21J C20J 1_555 1_555
H16J C21J 1_555 1_555
C22J C21J 1_555 1_555
H17J C22J 1_555 1_555
C23J C22J 1_555 1_555
H18J C23J 1_555 1_555
C24J C23J 1_555 1_555
H19J C24J 1_555 1_555
C25J C20J 1_555 1_555
H20J C25J 1_555 1_555
C26J P2J 1_555 1_555
C27J C26J 1_555 1_555
H21J C27J 1_555 1_555
C28J C27J 1_555 1_555
H22J C28J 1_555 1_555
C29J C28J 1_555 1_555
H23J C29J 1_555 1_555
C30J C29J 1_555 1_555
H24J C30J 1_555 1_555
C31J C26J 1_555 1_555
H25J C31J 1_555 1_555
C32J P2J 1_555 1_555
C33J C32J 1_555 1_555
H26J C33J 1_555 1_555
C34J C33J 1_555 1_555
H27J C34J 1_555 1_555
C35J C34J 1_555 1_555
H28J C35J 1_555 1_555
C36J C35J 1_555 1_555
H29J C36J 1_555 1_555
C37J C32J 1_555 1_555
H30J C37J 1_555 1_555
N1J Cu1J 1_555 1_555
C1B N1J 1_555 1_555
Cu1B C1B 1_555 1_555
P1B Cu1B 1_555 1_555
C2B P1B 1_555 1_555
C3B C2B 1_555 1_555
H1B C3B 1_555 1_555
C4B C3B 1_555 1_555
H2B C4B 1_555 1_555
C5B C4B 1_555 1_555
H3B C5B 1_555 1_555
C6B C5B 1_555 1_555
H4B C6B 1_555 1_555
C7B C2B 1_555 1_555
H5B C7B 1_555 1_555
C8B P1B 1_555 1_555
C9B C8B 1_555 1_555
H6B C9B 1_555 1_555
C10B C9B 1_555 1_555
H7B C10B 1_555 1_555
C11B C10B 1_555 1_555
H8B C11B 1_555 1_555
C12B C11B 1_555 1_555
H9B C12B 1_555 1_555
C13B C8B 1_555 1_555
H10B C13B 1_555 1_555
C14B P1B 1_555 1_555
C15B C14B 1_555 1_555
H11B C15B 1_555 1_555
C16B C15B 1_555 1_555
H12B C16B 1_555 1_555
C17B C16B 1_555 1_555
H13B C17B 1_555 1_555
C18B C17B 1_555 1_555
H14B C18B 1_555 1_555
C19B C14B 1_555 1_555
H15B C19B 1_555 1_555
P2B Cu1B 1_555 1_555
C20B P2B 1_555 1_555
C21B C20B 1_555 1_555
H16B C21B 1_555 1_555
C22B C21B 1_555 1_555
H17B C22B 1_555 1_555
C23B C22B 1_555 1_555
H18B C23B 1_555 1_555
C24B C23B 1_555 1_555
H19B C24B 1_555 1_555
C25B C20B 1_555 1_555
H20B C25B 1_555 1_555
C26B P2B 1_555 1_555
C27B C26B 1_555 1_555
H21B C27B 1_555 1_555
C28B C27B 1_555 1_555
H22B C28B 1_555 1_555
C29B C28B 1_555 1_555
H23B C29B 1_555 1_555
C30B C29B 1_555 1_555
H24B C30B 1_555 1_555
C31B C26B 1_555 1_555
H25B C31B 1_555 1_555
C32B P2B 1_555 1_555
C33B C32B 1_555 1_555
H26B C33B 1_555 1_555
C34B C33B 1_555 1_555
H27B C34B 1_555 1_555
C35B C34B 1_555 1_555
H28B C35B 1_555 1_555
C36B C35B 1_555 1_555
H29B C36B 1_555 1_555
C37B C32B 1_555 1_555
H30B C37B 1_555 1_555
N1B Cu1B 1_555 1_555
C1I N1B 1_555 1_555
Cu1I C1I 1_555 1_555
P1I Cu1I 1_555 1_555
C2I P1I 1_555 1_555
C3I C2I 1_555 1_555
H1I C3I 1_555 1_555
C4I C3I 1_555 1_555
H2I C4I 1_555 1_555
C5I C4I 1_555 1_555
H3I C5I 1_555 1_555
C6I C5I 1_555 1_555
H4I C6I 1_555 1_555
C7I C2I 1_555 1_555
H5I C7I 1_555 1_555
C8I P1I 1_555 1_555
C9I C8I 1_555 1_555
H6I C9I 1_555 1_555
C10I C9I 1_555 1_555
H7I C10I 1_555 1_555
C11I C10I 1_555 1_555
H8I C11I 1_555 1_555
C12I C11I 1_555 1_555
H9I C12I 1_555 1_555
C13I C8I 1_555 1_555
H10I C13I 1_555 1_555
C14I P1I 1_555 1_555
C15I C14I 1_555 1_555
H11I C15I 1_555 1_555
C16I C15I 1_555 1_555
H12I C16I 1_555 1_555
C17I C16I 1_555 1_555
H13I C17I 1_555 1_555
C18I C17I 1_555 1_555
H14I C18I 1_555 1_555
C19I C14I 1_555 1_555
H15I C19I 1_555 1_555
P2I Cu1I 1_555 1_555
C20I P2I 1_555 1_555
C21I C20I 1_555 1_555
H16I C21I 1_555 1_555
C22I C21I 1_555 1_555
H17I C22I 1_555 1_555
C23I C22I 1_555 1_555
H18I C23I 1_555 1_555
C24I C23I 1_555 1_555
H19I C24I 1_555 1_555
C25I C20I 1_555 1_555
H20I C25I 1_555 1_555
C26I P2I 1_555 1_555
C27I C26I 1_555 1_555
H21I C27I 1_555 1_555
C28I C27I 1_555 1_555
H22I C28I 1_555 1_555
C29I C28I 1_555 1_555
H23I C29I 1_555 1_555
C30I C29I 1_555 1_555
H24I C30I 1_555 1_555
C31I C26I 1_555 1_555
H25I C31I 1_555 1_555
C32I P2I 1_555 1_555
C33I C32I 1_555 1_555
H26I C33I 1_555 1_555
C34I C33I 1_555 1_555
H27I C34I 1_555 1_555
C35I C34I 1_555 1_555
H28I C35I 1_555 1_555
C36I C35I 1_555 1_555
H29I C36I 1_555 1_555
C37I C32I 1_555 1_555
H30I C37I 1_555 1_555
N1I Cu1I 1_555 1_555
C1A N1I 1_555 1_555
Cu1A C1A 1_555 1_555
P1A Cu1A 1_555 1_555
C2A P1A 1_555 1_555
C3A C2A 1_555 1_555
H1A C3A 1_555 1_555
C4A C3A 1_555 1_555
H2A C4A 1_555 1_555
C5A C4A 1_555 1_555
H3A C5A 1_555 1_555
C6A C5A 1_555 1_555
H4A C6A 1_555 1_555
C7A C2A 1_555 1_555
H5A C7A 1_555 1_555
C8A P1A 1_555 1_555
C9A C8A 1_555 1_555
H6A C9A 1_555 1_555
C10A C9A 1_555 1_555
H7A C10A 1_555 1_555
C11A C10A 1_555 1_555
H8A C11A 1_555 1_555
C12A C11A 1_555 1_555
H9A C12A 1_555 1_555
C13A C8A 1_555 1_555
H10A C13A 1_555 1_555
C14A P1A 1_555 1_555
C15A C14A 1_555 1_555
H11A C15A 1_555 1_555
C16A C15A 1_555 1_555
H12A C16A 1_555 1_555
C17A C16A 1_555 1_555
H13A C17A 1_555 1_555
C18A C17A 1_555 1_555
H14A C18A 1_555 1_555
C19A C14A 1_555 1_555
H15A C19A 1_555 1_555
P2A Cu1A 1_555 1_555
C20A P2A 1_555 1_555
C21A C20A 1_555 1_555
H16A C21A 1_555 1_555
C22A C21A 1_555 1_555
H17A C22A 1_555 1_555
C23A C22A 1_555 1_555
H18A C23A 1_555 1_555
C24A C23A 1_555 1_555
H19A C24A 1_555 1_555
C25A C20A 1_555 1_555
H20A C25A 1_555 1_555
C26A P2A 1_555 1_555
C27A C26A 1_555 1_555
H21A C27A 1_555 1_555
C28A C27A 1_555 1_555
H22A C28A 1_555 1_555
C29A C28A 1_555 1_555
H23A C29A 1_555 1_555
C30A C29A 1_555 1_555
H24A C30A 1_555 1_555
C31A C26A 1_555 1_555
H25A C31A 1_555 1_555
C32A P2A 1_555 1_555
C33A C32A 1_555 1_555
H26A C33A 1_555 1_555
C34A C33A 1_555 1_555
H27A C34A 1_555 1_555
C35A C34A 1_555 1_555
H28A C35A 1_555 1_555
C36A C35A 1_555 1_555
H29A C36A 1_555 1_555
C37A C32A 1_555 1_555
H30A C37A 1_555 1_555
N1A Cu1A 1_555 1_555
C1K N1A 1_555 1_555
Cu1K C1K 1_555 1_555
P1K Cu1K 1_555 1_555
C2K P1K 1_555 1_555
C3K C2K 1_555 1_555
H1K C3K 1_555 1_555
C4K C3K 1_555 1_555
H2K C4K 1_555 1_555
C5K C4K 1_555 1_555
H3K C5K 1_555 1_555
C6K C5K 1_555 1_555
H4K C6K 1_555 1_555
C7K C2K 1_555 1_555
H5K C7K 1_555 1_555
C8K P1K 1_555 1_555
C9K C8K 1_555 1_555
H6K C9K 1_555 1_555
C10K C9K 1_555 1_555
H7K C10K 1_555 1_555
C11K C10K 1_555 1_555
H8K C11K 1_555 1_555
C12K C11K 1_555 1_555
H9K C12K 1_555 1_555
C13K C8K 1_555 1_555
H10K C13K 1_555 1_555
C14K P1K 1_555 1_555
C15K C14K 1_555 1_555
H11K C15K 1_555 1_555
C16K C15K 1_555 1_555
H12K C16K 1_555 1_555
C17K C16K 1_555 1_555
H13K C17K 1_555 1_555
C18K C17K 1_555 1_555
H14K C18K 1_555 1_555
C19K C14K 1_555 1_555
H15K C19K 1_555 1_555
P2K Cu1K 1_555 1_555
C20K P2K 1_555 1_555
C21K C20K 1_555 1_555
H16K C21K 1_555 1_555
C22K C21K 1_555 1_555
H17K C22K 1_555 1_555
C23K C22K 1_555 1_555
H18K C23K 1_555 1_555
C24K C23K 1_555 1_555
H19K C24K 1_555 1_555
C25K C20K 1_555 1_555
H20K C25K 1_555 1_555
C26K P2K 1_555 1_555
C27K C26K 1_555 1_555
H21K C27K 1_555 1_555
C28K C27K 1_555 1_555
H22K C28K 1_555 1_555
C29K C28K 1_555 1_555
H23K C29K 1_555 1_555
C30K C29K 1_555 1_555
H24K C30K 1_555 1_555
C31K C26K 1_555 1_555
H25K C31K 1_555 1_555
C32K P2K 1_555 1_555
C33K C32K 1_555 1_555
H26K C33K 1_555 1_555
C34K C33K 1_555 1_555
H27K C34K 1_555 1_555
C35K C34K 1_555 1_555
H28K C35K 1_555 1_555
C36K C35K 1_555 1_555
H29K C36K 1_555 1_555
C37K C32K 1_555 1_555
H30K C37K 1_555 1_555
N1K C1 1_555 1_555
C6 C7 1_555 1_555
C12 C13 1_555 1_555
C18 C19 1_555 1_555
C24 C25 1_555 1_555
C30 C31 1_555 1_555
C36 C37 1_555 1_555
C6J C7J 1_555 1_555
C12J C13J 1_555 1_555
C18J C19J 1_555 1_555
C24J C25J 1_555 1_555
C30J C31J 1_555 1_555
C36J C37J 1_555 1_555
C6B C7B 1_555 1_555
C12B C13B 1_555 1_555
C18B C19B 1_555 1_555
C24B C25B 1_555 1_555
C30B C31B 1_555 1_555
C36B C37B 1_555 1_555
C6I C7I 1_555 1_555
C12I C13I 1_555 1_555
C18I C19I 1_555 1_555
C24I C25I 1_555 1_555
C30I C31I 1_555 1_555
C36I C37I 1_555 1_555
C6A C7A 1_555 1_555
C12A C13A 1_555 1_555
C18A C19A 1_555 1_555
C24A C25A 1_555 1_555
C30A C31A 1_555 1_555
C36A C37A 1_555 1_555
Cu1K N1K 1_555 1_555
C6K C7K 1_555 1_555
C12K C13K 1_555 1_555
C18K C19K 1_555 1_555
C24K C25K 1_555 1_555
C30K C31K 1_555 1_555
C36K C37K 1_555 1_555

#END
