
#######################################################################
#
#                 Cambridge Crystallographic Data Centre
#                                CCDC 
#
#######################################################################
#
# If this CIF has been generated from an entry in the Cambridge 
# Structural Database, then it will include bibliographic, chemical, 
# crystal, experimental, refinement or atomic coordinate data resulting 
# from the CCDC's data processing and validation procedures.
#
#######################################################################

data_WELHUQ
_chemical_formula_moiety         
'C72 H92 N24 Pd6 12+,2(C14 H8 O4 2-),8(N1 O3 1-),26(H2 O1)'
_chemical_name_systematic        
"tetrakis(\m~3~-3,3':5',3'-Terpyridine)-hexakis(ethylenediamine)-hexa-palladium(ii) bis(2,2'-bipyridine-4,4'-dicarboxylate) clathrate octanitrate hydrate"
_symmetry_cell_setting           monoclinic
_symmetry_space_group_name_H-M   'P 21/n'
_symmetry_Int_Tables_number      14
_space_group_name_Hall           '-P 2yn'
loop_
_symmetry_equiv_pos_site_id
_symmetry_equiv_pos_as_xyz
1 x,y,z
2 1/2-x,1/2+y,1/2-z
3 -x,-y,-z
4 1/2+x,1/2-y,1/2+z
_cell_length_a                   17.429(3)
_cell_length_b                   14.785(3)
_cell_length_c                   27.061(5)
_cell_angle_alpha                90
_cell_angle_beta                 101.555(4)
_cell_angle_gamma                90
_cell_volume                     6831.96
_exptl_crystal_colour            colorless
_chemical_melting_point          '226-227 deg.C.(dec.)'
_cell_formula_units_Z            2
_exptl_crystal_recrystallization_method isopropanol/water
loop_
_atom_site_label
_atom_site_type_symbol
_atom_site_fract_x
_atom_site_fract_y
_atom_site_fract_z
Pd1 Pd 0.8310(1) 0.0365(1) 0.1988(1)
Pd2 Pd 0.6936(1) 0.1652(1) -0.1496(1)
Pd3 Pd 0.7626(1) -0.3704(1) 0.0448(1)
N1 N 0.7662(7) -0.2989(7) -0.0181(5)
C1 C 0.7665(8) -0.2099(8) -0.0158(5)
C2 C 0.7677(7) -0.1557(8) -0.0577(5)
C3 C 0.7697(9) -0.1974(10) -0.1033(6)
C4 C 0.7689(11) -0.2904(11) -0.1062(7)
C5 C 0.7665(10) -0.3378(10) -0.0621(7)
N2 N 0.7361(6) 0.0888(7) -0.0891(4)
C6 C 0.7395(7) -0.0022(9) -0.0925(5)
C7 C 0.7681(7) -0.0551(8) -0.0511(5)
C8 C 0.7955(6) -0.0149(8) -0.0069(5)
C9 C 0.7906(6) 0.0792(8) -0.0005(5)
C10 C 0.7608(7) 0.1266(9) -0.0440(5)
N3 N 0.8329(6) 0.1121(7) 0.1369(4)
C11 C 0.8123(7) 0.0785(8) 0.0919(5)
C12 C 0.8150(7) 0.1234(8) 0.0489(5)
C13 C 0.8404(9) 0.2123(9) 0.0526(6)
C14 C 0.8651(10) 0.2452(10) 0.0993(6)
C15 C 0.8598(9) 0.1968(10) 0.1405(6)
N4 N 0.7173(6) 0.0587(7) 0.1955(4)
C16 C 0.6655(8) -0.0036(9) 0.1739(5)
C17 C 0.5873(8) 0.0025(8) 0.1701(5)
C18 C 0.5566(9) 0.0746(10) 0.1896(6)
C19 C 0.6087(11) 0.1397(10) 0.2133(7)
C20 C 0.6873(10) 0.1287(10) 0.2155(6)
N5 N 0.5849(6) 0.1517(7) -0.1359(4)
C21 C 0.5582(8) 0.2115(9) -0.1043(5)
C22 C 0.4858(7) 0.2054(8) -0.0919(5)
C23 C 0.4398(7) 0.1351(8) -0.1121(4)
C24 C 0.5365(7) -0.0738(8) 0.1443(4)
C25 C 0.5383(7) 0.0850(9) -0.1550(4)
N6 N 0.6468(7) -0.3496(6) 0.0349(4)
C26 C 0.6197(8) -0.2895(7) 0.0633(5)
C27 C 0.4585(8) 0.2709(8) -0.0586(5)
C28 C 0.5104(8) 0.3224(9) -0.0235(5)
C29 C 0.4814(10) 0.3855(9) 0.0036(6)
C30 C 0.5980(9) -0.3975(9) 0.0020(6)
N7 N 0.8359(9) -0.0416(9) 0.2582(5)
N8 N 0.9436(8) -0.0013(10) 0.2027(5)
C45 C 0.9066(15) -0.1000(16) 0.2624(8)
C46 C 0.9733(15) -0.0510(20) 0.2507(9)
N9 N 0.7986(7) 0.1817(9) -0.1663(5)
N10 N 0.6562(7) 0.2438(9) -0.2106(5)
C47 C 0.7957(11) 0.2536(17) -0.2026(9)
C48 C 0.7191(13) 0.2520(20) -0.2367(8)
N11 N 0.7660(7) -0.4393(8) 0.1092(5)
N12 N 0.8777(8) -0.3932(9) 0.0593(7)
C49 C 0.8457(11) -0.4562(15) 0.1372(10)
C50 C 0.8952(14) -0.4580(20) 0.1002(11)
H1 H 0.7660 -0.1822 0.0150
H2 H 0.7716 -0.1629 -0.1317
H3 H 0.7700 -0.3202 -0.1363
H4 H 0.7649 -0.4006 -0.0636
H5 H 0.7221 -0.0298 -0.1237
H6 H 0.8185 -0.0502 0.0205
H7 H 0.7577 0.1892 -0.0417
H8 H 0.7944 0.0191 0.0891
H9 H 0.8404 0.2475 0.0241
H10 H 0.8864 0.3031 0.1032
H11 H 0.8751 0.2229 0.1722
H12 H 0.6849 -0.0548 0.1606
H13 H 0.5029 0.0804 0.1873
H14 H 0.5903 0.1904 0.2277
H15 H 0.7213 0.1727 0.2318
H16 H 0.5910 0.2586 -0.0906
H17 H 0.3908 0.1282 -0.1039
H18 H 0.5556 0.0439 -0.1764
H19 H 0.6553 -0.2585 0.0876
H20 H 0.5641 0.3131 -0.0189
H21 H 0.5155 0.4213 0.0263
H22 H 0.6172 -0.4400 -0.0177
H31 H 0.8393 -0.0077 0.2862
H32 H 0.7925 -0.0760 0.2546
H33 H 0.9468 -0.0372 0.1764
H34 H 0.9733 0.0479 0.2012
H35 H 0.9205 -0.1239 0.2964
H36 H 0.8945 -0.1508 0.2395
H37 H 1.0146 -0.0925 0.2467
H38 H 0.9939 -0.0088 0.2776
H39 H 0.8337 0.1954 -0.1381
H40 H 0.8138 0.1300 -0.1790
H41 H 0.6145 0.2184 -0.2308
H42 H 0.6422 0.2986 -0.2010
H43 H 0.8038 0.3115 -0.1855
H44 H 0.8368 0.2454 -0.2217
H45 H 0.7173 0.2020 -0.2600
H46 H 0.7125 0.3076 -0.2564
H47 H 0.7397 -0.4079 0.1290
H48 H 0.7415 -0.4926 0.1019
H49 H 0.8925 -0.4153 0.0316
H50 H 0.9038 -0.3412 0.0680
H51 H 0.8483 -0.5136 0.1548
H52 H 0.8621 -0.4086 0.1617
H53 H 0.9488 -0.4481 0.1177
H54 H 0.8925 -0.5181 0.0857
C27B C 0.5415(8) -0.2709(8) 0.0586(5)
C22B C 0.5142(7) -0.2054(8) 0.0919(5)
C21B C 0.4418(8) -0.2115(9) 0.1043(5)
N5B N 0.4151(6) -0.1517(7) 0.1359(4)
Pd2B Pd 0.3064(1) -0.1652(1) 0.1496(1)
N2B N 0.2639(6) -0.0888(7) 0.0891(4)
C6B C 0.2605(7) 0.0022(9) 0.0925(5)
C7B C 0.2319(7) 0.0551(8) 0.0511(5)
C2B C 0.2323(7) 0.1557(8) 0.0577(5)
C1B C 0.2335(8) 0.2099(8) 0.0158(5)
N1B N 0.2338(7) 0.2989(7) 0.0181(5)
Pd3B Pd 0.2374(1) 0.3704(1) -0.0448(1)
N6B N 0.3532(7) 0.3496(6) -0.0349(4)
C26B C 0.3803(8) 0.2895(7) -0.0633(5)
C24B C 0.4635(7) 0.0738(8) -0.1443(4)
C17B C 0.4127(8) -0.0025(8) -0.1701(5)
C16B C 0.3345(8) 0.0036(9) -0.1739(5)
N4B N 0.2827(6) -0.0587(7) -0.1955(4)
Pd1B Pd 0.1690(1) -0.0365(1) -0.1988(1)
N3B N 0.1671(6) -0.1121(7) -0.1369(4)
C11B C 0.1877(7) -0.0785(8) -0.0919(5)
C12B C 0.1850(7) -0.1234(8) -0.0489(5)
C9B C 0.2094(6) -0.0792(8) 0.0005(5)
C8B C 0.2045(6) 0.0149(8) 0.0069(5)
H6B H 0.1815 0.0502 -0.0205
C10B C 0.2392(7) -0.1266(9) 0.0440(5)
H7B H 0.2423 -0.1892 0.0417
C13B C 0.1596(9) -0.2123(9) -0.0526(6)
C14B C 0.1349(10) -0.2452(10) -0.0993(6)
C15B C 0.1402(9) -0.1968(10) -0.1405(6)
H11B H 0.1249 -0.2229 -0.1722
H10B H 0.1136 -0.3031 -0.1032
H9B H 0.1596 -0.2475 -0.0241
H8B H 0.2056 -0.0191 -0.0891
N7B N 0.1641(9) 0.0416(9) -0.2582(5)
C45B C 0.0934(15) 0.1000(16) -0.2624(8)
C46B C 0.0267(15) 0.0510(20) -0.2507(9)
N8B N 0.0564(8) 0.0013(10) -0.2027(5)
H33B H 0.0532 0.0372 -0.1764
H34B H 0.0267 -0.0479 -0.2012
H37B H -0.0146 0.0925 -0.2467
H38B H 0.0061 0.0088 -0.2776
H35B H 0.0795 0.1239 -0.2964
H36B H 0.1055 0.1508 -0.2395
H31B H 0.1607 0.0077 -0.2862
H32B H 0.2075 0.0760 -0.2546
C20B C 0.3127(10) -0.1287(10) -0.2155(6)
C19B C 0.3913(11) -0.1397(10) -0.2133(7)
C18B C 0.4434(9) -0.0746(10) -0.1896(6)
H13B H 0.4971 -0.0804 -0.1873
H14B H 0.4097 -0.1904 -0.2277
H15B H 0.2787 -0.1727 -0.2318
H12B H 0.3151 0.0548 -0.1606
C30B C 0.4020(9) 0.3975(9) -0.0020(6)
H22B H 0.3828 0.4400 0.0177
H19B H 0.3447 0.2585 -0.0876
N11B N 0.2340(7) 0.4393(8) -0.1092(5)
C49B C 0.1543(11) 0.4562(15) -0.1372(10)
C50B C 0.1048(14) 0.4580(20) -0.1002(11)
N12B N 0.1223(8) 0.3932(9) -0.0593(7)
H49B H 0.1075 0.4153 -0.0316
H50B H 0.0962 0.3412 -0.0680
H53B H 0.0512 0.4481 -0.1177
H54B H 0.1075 0.5181 -0.0857
H51B H 0.1517 0.5136 -0.1548
H52B H 0.1379 0.4086 -0.1617
H47B H 0.2603 0.4079 -0.1290
H48B H 0.2585 0.4926 -0.1019
C5B C 0.2335(10) 0.3378(10) 0.0621(7)
C4B C 0.2311(11) 0.2904(11) 0.1062(7)
C3B C 0.2303(9) 0.1974(10) 0.1033(6)
H2B H 0.2284 0.1629 0.1317
H3B H 0.2300 0.3202 0.1363
H4B H 0.2351 0.4006 0.0636
H1B H 0.2340 0.1822 -0.0150
H5B H 0.2779 0.0298 0.1237
N9B N 0.2014(7) -0.1817(9) 0.1663(5)
C47B C 0.2043(11) -0.2536(17) 0.2026(9)
C48B C 0.2809(13) -0.2520(20) 0.2367(8)
N10B N 0.3438(7) -0.2438(9) 0.2106(5)
H41B H 0.3855 -0.2184 0.2308
H42B H 0.3578 -0.2986 0.2010
H45B H 0.2827 -0.2020 0.2600
H46B H 0.2875 -0.3076 0.2564
H43B H 0.1962 -0.3115 0.1855
H44B H 0.1632 -0.2454 0.2217
H39B H 0.1663 -0.1954 0.1381
H40B H 0.1862 -0.1300 0.1790
C25B C 0.4617(7) -0.0850(9) 0.1550(4)
C23B C 0.5602(7) -0.1351(8) 0.1121(4)
H17B H 0.6092 -0.1282 0.1039
H18B H 0.4444 -0.0439 0.1764
H16B H 0.4090 -0.2586 0.0906
C28B C 0.4896(8) -0.3224(9) 0.0235(5)
C29B C 0.5186(10) -0.3855(9) -0.0036(6)
H21B H 0.4845 -0.4213 -0.0263
H20B H 0.4359 -0.3131 0.0189
O1 O 0.5902(11) 0.3189(10) 0.1181(6)
O2 O 0.4711(10) 0.3018(10) 0.1255(6)
C31 C 0.5201(7) 0.1920(5) 0.0787(3)
C32 C 0.4470(5) 0.1526(7) 0.0623(4)
C33 C 0.4396(4) 0.0771(7) 0.0310(4)
C34 C 0.5051(6) 0.0411(5) 0.0163(3)
C35 C 0.5782(5) 0.0805(7) 0.0328(4)
C36 C 0.5857(5) 0.1559(7) 0.0640(4)
C37 C 0.5301(13) 0.2752(15) 0.1105(7)
H23 H 0.4032 0.1767 0.0721
H24 H 0.3907 0.0507 0.0200
H25 H 0.6220 0.0564 0.0229
H26 H 0.6345 0.1823 0.0750
C34B C 0.4949(6) -0.0411(5) -0.0163(3)
C33B C 0.5604(4) -0.0771(7) -0.0310(4)
C32B C 0.5530(5) -0.1526(7) -0.0623(4)
C31B C 0.4799(7) -0.1920(5) -0.0787(3)
C36B C 0.4143(5) -0.1559(7) -0.0640(4)
C35B C 0.4218(5) -0.0805(7) -0.0328(4)
H25B H 0.3780 -0.0564 -0.0229
H26B H 0.3655 -0.1823 -0.0750
C37B C 0.4699(13) -0.2752(15) -0.1105(7)
O1B O 0.4098(11) -0.3189(10) -0.1181(6)
O2B O 0.5289(10) -0.3018(10) -0.1255(6)
H23B H 0.5968 -0.1767 -0.0721
H24B H 0.6093 -0.0507 -0.0200
O3 O 0.9383(11) -0.1410(15) -0.1952(9)
O4 O 0.9360(11) -0.2607(17) -0.1528(11)
C38 C 0.9569(12) -0.1282(17) -0.1075(8)
C39 C 0.9625(13) -0.0344(17) -0.1069(8)
C40 C 0.9803(13) 0.0115(12) -0.0612(11)
C41 C 0.9926(14) -0.0363(19) -0.0161(8)
C42 C 0.9871(14) -0.1301(18) -0.0167(8)
C43 C 0.9692(11) -0.1760(11) -0.0623(11)
C44 C 0.9590(50) -0.1820(20) -0.1548(12)
H27 H 0.9543 -0.0024 -0.1371
H28 H 0.9841 0.0743 -0.0609
H29 H 0.9953 -0.1621 0.0135
H30 H 0.9655 -0.2388 -0.0627
C41B C 1.0074(14) 0.0363(19) 0.0161(8)
C40B C 1.0197(13) -0.0115(12) 0.0612(11)
C39B C 1.0375(13) 0.0344(17) 0.1069(8)
C38B C 1.0431(12) 0.1282(17) 0.1075(8)
C43B C 1.0308(11) 0.1760(11) 0.0623(11)
C42B C 1.0129(14) 0.1301(18) 0.0167(8)
H29B H 1.0047 0.1621 -0.0135
H30B H 1.0345 0.2388 0.0627
C44B C 1.0410(50) 0.1820(20) 0.1548(12)
O3B O 1.0617(11) 0.1410(15) 0.1952(9)
O4B O 1.0640(11) 0.2607(17) 0.1528(11)
H27B H 1.0457 0.0024 0.1371
H28B H 1.0159 -0.0743 0.0609
N13 N 0.8189(12) -0.1640(11) 0.1221(7)
O5 O 0.8149(13) -0.2176(14) 0.1560(7)
O6 O 0.8746(10) -0.1424(14) 0.1097(8)
O7 O 0.7523(7) -0.1320(7) 0.0978(5)
N14 N 0.7248(19) 0.3775(16) -0.0451(12)
O8 O 0.7476(18) 0.4514(15) -0.0292(12)
O9 O 0.7032(12) 0.3263(11) -0.0209(10)
O10 O 0.6980(40) 0.3740(30) -0.0951(11)
N15 N 0.9490(30) 0.2770(80) -0.0660(20)
O11 O 0.9887(19) 0.2810(30) -0.1000(13)
O12 O 0.8840(20) 0.2620(30) -0.0776(13)
O13 O 0.9790(20) 0.3210(40) -0.0234(17)
N16 N 0.3300(20) 0.5040(20) 0.2834(12)
O14 O 0.2630(20) 0.5040(40) 0.2901(18)
O15 O 0.3800(20) 0.5140(60) 0.3172(15)
O16 O 0.3380(20) 0.4430(30) 0.2478(14)
O17 O 0.5450(30) 0.1130(30) -0.4030(20)
O18 O 0.6550(20) -0.3620(20) 0.1756(8)
O19 O 0.6580(30) -0.0070(30) -0.3300(40)
O20 O 0.9590(20) -0.3690(30) -0.2220(12)
O21 O 0.7001(11) 0.3902(12) 0.0782(9)
O22 O 1.0720(30) -0.0190(30) -0.3705(16)
O23 O 0.9340(20) 0.0179(18) -0.3770(9)
O24 O 0.4162(12) 0.2422(14) 0.2086(7)
O25 O 0.0700(20) 0.5550(30) 0.2143(13)
O26 O 0.1499(10) 0.5734(13) 0.2920(6)
O27 O 0.9380(20) -0.4690(30) -0.0370(20)
O28 O 0.6587(17) -0.1683(17) 0.2509(8)
O29 O 0.4956(14) 0.2550(30) 0.3078(13)
loop_
_geom_bond_atom_site_label_1
_geom_bond_atom_site_label_2
_geom_bond_site_symmetry_1
_geom_bond_site_symmetry_2
Pd1 N3 1_555 1_555
Pd2 N2 1_555 1_555
Pd3 N1 1_555 1_555
N1 C1 1_555 1_555
C1 C2 1_555 1_555
C2 C3 1_555 1_555
C3 C4 1_555 1_555
C4 C5 1_555 1_555
C5 N1 1_555 1_555
N2 C6 1_555 1_555
C6 C7 1_555 1_555
C7 C2 1_555 1_555
C8 C7 1_555 1_555
C9 C8 1_555 1_555
C10 N2 1_555 1_555
N3 C11 1_555 1_555
C11 C12 1_555 1_555
C12 C9 1_555 1_555
C13 C12 1_555 1_555
C14 C13 1_555 1_555
C15 N3 1_555 1_555
N4 Pd1 1_555 1_555
C16 N4 1_555 1_555
C17 C16 1_555 1_555
C18 C17 1_555 1_555
C19 C18 1_555 1_555
C20 N4 1_555 1_555
N5 Pd2 1_555 1_555
C21 N5 1_555 1_555
C22 C21 1_555 1_555
C23 C22 1_555 1_555
C24 C17 1_555 1_555
C25 N5 1_555 1_555
N6 Pd3 1_555 1_555
C26 N6 1_555 1_555
C27 C22 1_555 1_555
C28 C27 1_555 1_555
C29 C28 1_555 1_555
C30 N6 1_555 1_555
O1 C37 1_555 1_555
O2 C37 1_555 1_555
C31 C32 1_555 1_555
C32 C33 1_555 1_555
C33 C34 1_555 1_555
C34 C35 1_555 1_555
C35 C36 1_555 1_555
C36 C31 1_555 1_555
C37 C31 1_555 1_555
O3 C44 1_555 1_555
O4 C44 1_555 1_555
C38 C39 1_555 1_555
C39 C40 1_555 1_555
C40 C41 1_555 1_555
C41 C42 1_555 1_555
C42 C43 1_555 1_555
C43 C38 1_555 1_555
C44 C38 1_555 1_555
N7 Pd1 1_555 1_555
N8 Pd1 1_555 1_555
C45 N7 1_555 1_555
C46 N8 1_555 1_555
N9 Pd2 1_555 1_555
N10 Pd2 1_555 1_555
C47 N9 1_555 1_555
C48 N10 1_555 1_555
N11 Pd3 1_555 1_555
N12 Pd3 1_555 1_555
C49 N11 1_555 1_555
C50 N12 1_555 1_555
N13 O5 1_555 1_555
O6 N13 1_555 1_555
O7 N13 1_555 1_555
N14 O8 1_555 1_555
O9 N14 1_555 1_555
O10 N14 1_555 1_555
N15 O11 1_555 1_555
O12 N15 1_555 1_555
O13 N15 1_555 1_555
N16 O14 1_555 1_555
O15 N16 1_555 1_555
O16 N16 1_555 1_555
H1 C1 1_555 1_555
H2 C3 1_555 1_555
H3 C4 1_555 1_555
H4 C5 1_555 1_555
H5 C6 1_555 1_555
H6 C8 1_555 1_555
H7 C10 1_555 1_555
H8 C11 1_555 1_555
H9 C13 1_555 1_555
H10 C14 1_555 1_555
H11 C15 1_555 1_555
H12 C16 1_555 1_555
H13 C18 1_555 1_555
H14 C19 1_555 1_555
H15 C20 1_555 1_555
H16 C21 1_555 1_555
H17 C23 1_555 1_555
H18 C25 1_555 1_555
H19 C26 1_555 1_555
H20 C28 1_555 1_555
H21 C29 1_555 1_555
H22 C30 1_555 1_555
H23 C32 1_555 1_555
H24 C33 1_555 1_555
H25 C35 1_555 1_555
H26 C36 1_555 1_555
H27 C39 1_555 1_555
H28 C40 1_555 1_555
H29 C42 1_555 1_555
H30 C43 1_555 1_555
H31 N7 1_555 1_555
H32 N7 1_555 1_555
H33 N8 1_555 1_555
H34 N8 1_555 1_555
H35 C45 1_555 1_555
H36 C45 1_555 1_555
H37 C46 1_555 1_555
H38 C46 1_555 1_555
H39 N9 1_555 1_555
H40 N9 1_555 1_555
H41 N10 1_555 1_555
H42 N10 1_555 1_555
H43 C47 1_555 1_555
H44 C47 1_555 1_555
H45 C48 1_555 1_555
H46 C48 1_555 1_555
H47 N11 1_555 1_555
H48 N11 1_555 1_555
H49 N12 1_555 1_555
H50 N12 1_555 1_555
H51 C49 1_555 1_555
H52 C49 1_555 1_555
H53 C50 1_555 1_555
H54 C50 1_555 1_555
C27B C26 1_555 1_555
C22B C27B 1_555 1_555
C21B C22B 1_555 1_555
N5B C21B 1_555 1_555
Pd2B N5B 1_555 1_555
N2B Pd2B 1_555 1_555
C6B N2B 1_555 1_555
C7B C6B 1_555 1_555
C2B C7B 1_555 1_555
C1B C2B 1_555 1_555
N1B C1B 1_555 1_555
Pd3B N1B 1_555 1_555
N6B Pd3B 1_555 1_555
C26B C27 1_555 1_555
C24B C23 1_555 1_555
C17B C24B 1_555 1_555
C16B C17B 1_555 1_555
N4B C16B 1_555 1_555
Pd1B N4B 1_555 1_555
N3B Pd1B 1_555 1_555
C11B N3B 1_555 1_555
C12B C11B 1_555 1_555
C9B C12B 1_555 1_555
C8B C7B 1_555 1_555
H6B C8B 1_555 1_555
C10B N2B 1_555 1_555
H7B C10B 1_555 1_555
C13B C12B 1_555 1_555
C14B C13B 1_555 1_555
C15B N3B 1_555 1_555
H11B C15B 1_555 1_555
H10B C14B 1_555 1_555
H9B C13B 1_555 1_555
H8B C11B 1_555 1_555
N7B Pd1B 1_555 1_555
C45B N7B 1_555 1_555
C46B C45B 1_555 1_555
N8B Pd1B 1_555 1_555
H33B N8B 1_555 1_555
H34B N8B 1_555 1_555
H37B C46B 1_555 1_555
H38B C46B 1_555 1_555
H35B C45B 1_555 1_555
H36B C45B 1_555 1_555
H31B N7B 1_555 1_555
H32B N7B 1_555 1_555
C20B N4B 1_555 1_555
C19B C20B 1_555 1_555
C18B C17B 1_555 1_555
H13B C18B 1_555 1_555
H14B C19B 1_555 1_555
H15B C20B 1_555 1_555
H12B C16B 1_555 1_555
C30B C29 1_555 1_555
H22B C30B 1_555 1_555
H19B C26B 1_555 1_555
N11B Pd3B 1_555 1_555
C49B N11B 1_555 1_555
C50B C49B 1_555 1_555
N12B Pd3B 1_555 1_555
H49B N12B 1_555 1_555
H50B N12B 1_555 1_555
H53B C50B 1_555 1_555
H54B C50B 1_555 1_555
H51B C49B 1_555 1_555
H52B C49B 1_555 1_555
H47B N11B 1_555 1_555
H48B N11B 1_555 1_555
C5B N1B 1_555 1_555
C4B C5B 1_555 1_555
C3B C2B 1_555 1_555
H2B C3B 1_555 1_555
H3B C4B 1_555 1_555
H4B C5B 1_555 1_555
H1B C1B 1_555 1_555
H5B C6B 1_555 1_555
N9B Pd2B 1_555 1_555
C47B N9B 1_555 1_555
C48B C47B 1_555 1_555
N10B Pd2B 1_555 1_555
H41B N10B 1_555 1_555
H42B N10B 1_555 1_555
H45B C48B 1_555 1_555
H46B C48B 1_555 1_555
H43B C47B 1_555 1_555
H44B C47B 1_555 1_555
H39B N9B 1_555 1_555
H40B N9B 1_555 1_555
C25B C24 1_555 1_555
C23B C24 1_555 1_555
H17B C23B 1_555 1_555
H18B C25B 1_555 1_555
H16B C21B 1_555 1_555
C28B C27B 1_555 1_555
C29B C30 1_555 1_555
H21B C29B 1_555 1_555
H20B C28B 1_555 1_555
C34B C34 1_555 1_555
C33B C34B 1_555 1_555
C32B C33B 1_555 1_555
C31B C32B 1_555 1_555
C36B C31B 1_555 1_555
C35B C34B 1_555 1_555
H25B C35B 1_555 1_555
H26B C36B 1_555 1_555
C37B C31B 1_555 1_555
O1B C37B 1_555 1_555
O2B C37B 1_555 1_555
H23B C32B 1_555 1_555
H24B C33B 1_555 1_555
C41B C41 1_555 1_555
C40B C41B 1_555 1_555
C39B C40B 1_555 1_555
C38B C39B 1_555 1_555
C43B C38B 1_555 1_555
C42B C41B 1_555 1_555
H29B C42B 1_555 1_555
H30B C43B 1_555 1_555
C44B C38B 1_555 1_555
O3B C44B 1_555 1_555
O4B C44B 1_555 1_555
H27B C39B 1_555 1_555
H28B C40B 1_555 1_555
C9 C10 1_555 1_555
C14 C15 1_555 1_555
C19 C20 1_555 1_555
C25 C24B 1_555 1_555
C45 C46 1_555 1_555
C47 C48 1_555 1_555
C49 C50 1_555 1_555
C22B C23B 1_555 1_555
N5B C25B 1_555 1_555
N6B C26B 1_555 1_555
N6B C30B 1_555 1_555
C9B C8B 1_555 1_555
C9B C10B 1_555 1_555
C14B C15B 1_555 1_555
C46B N8B 1_555 1_555
C19B C18B 1_555 1_555
C50B N12B 1_555 1_555
C4B C3B 1_555 1_555
C48B N10B 1_555 1_555
C28B C29B 1_555 1_555
C36B C35B 1_555 1_555
C43B C42B 1_555 1_555

#END
