# generated using pymatgen
data_Cu4H48C48O29
_symmetry_space_group_name_H-M   'P 1'
_cell_length_a   34.77300000
_cell_length_b   34.77300000
_cell_length_c   34.77300000
_cell_angle_alpha   90.00000000
_cell_angle_beta   90.00000000
_cell_angle_gamma   90.00000000
_symmetry_Int_Tables_number   1
_chemical_formula_structural   Cu4H48C48O29
_chemical_formula_sum   'Cu96 H1152 C1152 O696'
_cell_volume   42046.17384792
_cell_formula_units_Z   24
loop_
 _symmetry_equiv_pos_site_id
 _symmetry_equiv_pos_as_xyz
  1  'x, y, z'
loop_
 _atom_site_type_symbol
 _atom_site_label
 _atom_site_symmetry_multiplicity
 _atom_site_fract_x
 _atom_site_fract_y
 _atom_site_fract_z
 _atom_site_occupancy
  Cu  Cu1  1  0.493930  0.262450  0.913340  1.0
  Cu  Cu2  1  0.006070  0.737550  0.413340  1.0
  Cu  Cu3  1  0.993930  0.237550  0.086660  1.0
  Cu  Cu4  1  0.506070  0.762450  0.586660  1.0
  Cu  Cu5  1  0.913340  0.493930  0.262450  1.0
  Cu  Cu6  1  0.586660  0.506070  0.762450  1.0
  Cu  Cu7  1  0.413340  0.006070  0.737550  1.0
  Cu  Cu8  1  0.086660  0.993930  0.237550  1.0
  Cu  Cu9  1  0.262450  0.913340  0.493930  1.0
  Cu  Cu10  1  0.762450  0.586660  0.506070  1.0
  Cu  Cu11  1  0.737550  0.413340  0.006070  1.0
  Cu  Cu12  1  0.237550  0.086660  0.993930  1.0
  Cu  Cu13  1  0.557310  0.261370  0.873850  1.0
  Cu  Cu14  1  0.942690  0.738630  0.373850  1.0
  Cu  Cu15  1  0.057310  0.238630  0.126150  1.0
  Cu  Cu16  1  0.442690  0.761370  0.626150  1.0
  Cu  Cu17  1  0.873850  0.557310  0.261370  1.0
  Cu  Cu18  1  0.626150  0.442690  0.761370  1.0
  Cu  Cu19  1  0.373850  0.942690  0.738630  1.0
  Cu  Cu20  1  0.126150  0.057310  0.238630  1.0
  Cu  Cu21  1  0.261370  0.873850  0.557310  1.0
  Cu  Cu22  1  0.761370  0.626150  0.442690  1.0
  Cu  Cu23  1  0.738630  0.373850  0.942690  1.0
  Cu  Cu24  1  0.238630  0.126150  0.057310  1.0
  Cu  Cu25  1  0.570370  0.124110  0.688340  1.0
  Cu  Cu26  1  0.929630  0.875890  0.188340  1.0
  Cu  Cu27  1  0.070370  0.375890  0.311660  1.0
  Cu  Cu28  1  0.429630  0.624110  0.811660  1.0
  Cu  Cu29  1  0.688340  0.570370  0.124110  1.0
  Cu  Cu30  1  0.811660  0.429630  0.624110  1.0
  Cu  Cu31  1  0.188340  0.929630  0.875890  1.0
  Cu  Cu32  1  0.311660  0.070370  0.375890  1.0
  Cu  Cu33  1  0.124110  0.688340  0.570370  1.0
  Cu  Cu34  1  0.624110  0.811660  0.429630  1.0
  Cu  Cu35  1  0.875890  0.188340  0.929630  1.0
  Cu  Cu36  1  0.375890  0.311660  0.070370  1.0
  Cu  Cu37  1  0.511070  0.081630  0.667670  1.0
  Cu  Cu38  1  0.988930  0.918370  0.167670  1.0
  Cu  Cu39  1  0.011070  0.418370  0.332330  1.0
  Cu  Cu40  1  0.488930  0.581630  0.832330  1.0
  Cu  Cu41  1  0.667670  0.511070  0.081630  1.0
  Cu  Cu42  1  0.832330  0.488930  0.581630  1.0
  Cu  Cu43  1  0.167670  0.988930  0.918370  1.0
  Cu  Cu44  1  0.332330  0.011070  0.418370  1.0
  Cu  Cu45  1  0.081630  0.667670  0.511070  1.0
  Cu  Cu46  1  0.581630  0.832330  0.488930  1.0
  Cu  Cu47  1  0.918370  0.167670  0.988930  1.0
  Cu  Cu48  1  0.418370  0.332330  0.011070  1.0
  Cu  Cu49  1  0.624240  0.311770  0.570970  1.0
  Cu  Cu50  1  0.875760  0.688230  0.070970  1.0
  Cu  Cu51  1  0.124240  0.188230  0.429030  1.0
  Cu  Cu52  1  0.375760  0.811770  0.929030  1.0
  Cu  Cu53  1  0.570970  0.624240  0.311770  1.0
  Cu  Cu54  1  0.929030  0.375760  0.811770  1.0
  Cu  Cu55  1  0.070970  0.875760  0.688230  1.0
  Cu  Cu56  1  0.429030  0.124240  0.188230  1.0
  Cu  Cu57  1  0.311770  0.570970  0.624240  1.0
  Cu  Cu58  1  0.811770  0.929030  0.375760  1.0
  Cu  Cu59  1  0.688230  0.070970  0.875760  1.0
  Cu  Cu60  1  0.188230  0.429030  0.124240  1.0
  Cu  Cu61  1  0.583230  0.332370  0.512090  1.0
  Cu  Cu62  1  0.916770  0.667630  0.012090  1.0
  Cu  Cu63  1  0.083230  0.167630  0.487910  1.0
  Cu  Cu64  1  0.416770  0.832370  0.987910  1.0
  Cu  Cu65  1  0.512090  0.583230  0.332370  1.0
  Cu  Cu66  1  0.987910  0.416770  0.832370  1.0
  Cu  Cu67  1  0.012090  0.916770  0.667630  1.0
  Cu  Cu68  1  0.487910  0.083230  0.167630  1.0
  Cu  Cu69  1  0.332370  0.512090  0.583230  1.0
  Cu  Cu70  1  0.832370  0.987910  0.416770  1.0
  Cu  Cu71  1  0.667630  0.012090  0.916770  1.0
  Cu  Cu72  1  0.167630  0.487910  0.083230  1.0
  Cu  Cu73  1  0.761050  0.126390  0.556560  1.0
  Cu  Cu74  1  0.738950  0.873610  0.056560  1.0
  Cu  Cu75  1  0.261050  0.373610  0.443440  1.0
  Cu  Cu76  1  0.238950  0.626390  0.943440  1.0
  Cu  Cu77  1  0.556560  0.761050  0.126390  1.0
  Cu  Cu78  1  0.943440  0.238950  0.626390  1.0
  Cu  Cu79  1  0.056560  0.738950  0.873610  1.0
  Cu  Cu80  1  0.443440  0.261050  0.373610  1.0
  Cu  Cu81  1  0.126390  0.556560  0.761050  1.0
  Cu  Cu82  1  0.626390  0.943440  0.238950  1.0
  Cu  Cu83  1  0.873610  0.056560  0.738950  1.0
  Cu  Cu84  1  0.373610  0.443440  0.261050  1.0
  Cu  Cu85  1  0.760890  0.086880  0.493100  1.0
  Cu  Cu86  1  0.739110  0.913120  0.993100  1.0
  Cu  Cu87  1  0.260890  0.413120  0.506900  1.0
  Cu  Cu88  1  0.239110  0.586880  0.006900  1.0
  Cu  Cu89  1  0.493100  0.760890  0.086880  1.0
  Cu  Cu90  1  0.006900  0.239110  0.586880  1.0
  Cu  Cu91  1  0.993100  0.739110  0.913120  1.0
  Cu  Cu92  1  0.506900  0.260890  0.413120  1.0
  Cu  Cu93  1  0.086880  0.493100  0.760890  1.0
  Cu  Cu94  1  0.586880  0.006900  0.239110  1.0
  Cu  Cu95  1  0.913120  0.993100  0.739110  1.0
  Cu  Cu96  1  0.413120  0.506900  0.260890  1.0
  H  H97  1  0.424939  0.134611  0.744001  1.0
  H  H98  1  0.075061  0.865389  0.244001  1.0
  H  H99  1  0.924939  0.365389  0.255999  1.0
  H  H100  1  0.575061  0.634611  0.755999  1.0
  H  H101  1  0.744001  0.424939  0.134611  1.0
  H  H102  1  0.755999  0.575061  0.634611  1.0
  H  H103  1  0.244001  0.075061  0.865389  1.0
  H  H104  1  0.255999  0.924939  0.365389  1.0
  H  H105  1  0.134611  0.744001  0.424939  1.0
  H  H106  1  0.634611  0.755999  0.575061  1.0
  H  H107  1  0.865389  0.244001  0.075061  1.0
  H  H108  1  0.365389  0.255999  0.924939  1.0
  H  H109  1  0.418387  0.202456  0.836250  1.0
  H  H110  1  0.081613  0.797544  0.336250  1.0
  H  H111  1  0.918387  0.297544  0.163750  1.0
  H  H112  1  0.581613  0.702456  0.663750  1.0
  H  H113  1  0.836250  0.418387  0.202456  1.0
  H  H114  1  0.663750  0.581613  0.702456  1.0
  H  H115  1  0.336250  0.081613  0.797544  1.0
  H  H116  1  0.163750  0.918387  0.297544  1.0
  H  H117  1  0.202456  0.836250  0.418387  1.0
  H  H118  1  0.702456  0.663750  0.581613  1.0
  H  H119  1  0.797544  0.336250  0.081613  1.0
  H  H120  1  0.297544  0.163750  0.918387  1.0
  H  H121  1  0.522766  0.191019  0.779589  1.0
  H  H122  1  0.977234  0.808981  0.279589  1.0
  H  H123  1  0.022766  0.308981  0.220411  1.0
  H  H124  1  0.477234  0.691019  0.720411  1.0
  H  H125  1  0.779589  0.522766  0.191019  1.0
  H  H126  1  0.720411  0.477234  0.691019  1.0
  H  H127  1  0.279589  0.977234  0.808981  1.0
  H  H128  1  0.220411  0.022766  0.308981  1.0
  H  H129  1  0.191019  0.779589  0.522766  1.0
  H  H130  1  0.691019  0.720411  0.477234  1.0
  H  H131  1  0.808981  0.279589  0.977234  1.0
  H  H132  1  0.308981  0.220411  0.022766  1.0
  H  H133  1  0.375210  0.135128  0.802639  1.0
  H  H134  1  0.124790  0.864872  0.302639  1.0
  H  H135  1  0.875210  0.364872  0.197361  1.0
  H  H136  1  0.624790  0.635128  0.697361  1.0
  H  H137  1  0.802639  0.375210  0.135128  1.0
  H  H138  1  0.697361  0.624790  0.635128  1.0
  H  H139  1  0.302639  0.124790  0.864872  1.0
  H  H140  1  0.197361  0.875210  0.364872  1.0
  H  H141  1  0.135128  0.802639  0.375210  1.0
  H  H142  1  0.635128  0.697361  0.624790  1.0
  H  H143  1  0.864872  0.302639  0.124790  1.0
  H  H144  1  0.364872  0.197361  0.875210  1.0
  H  H145  1  0.628909  0.375514  0.057846  1.0
  H  H146  1  0.871091  0.624486  0.557846  1.0
  H  H147  1  0.128909  0.124486  0.942154  1.0
  H  H148  1  0.371091  0.875514  0.442154  1.0
  H  H149  1  0.057846  0.628909  0.375514  1.0
  H  H150  1  0.442154  0.371091  0.875514  1.0
  H  H151  1  0.557846  0.871091  0.624486  1.0
  H  H152  1  0.942154  0.128909  0.124486  1.0
  H  H153  1  0.375514  0.057846  0.628909  1.0
  H  H154  1  0.875514  0.442154  0.371091  1.0
  H  H155  1  0.624486  0.557846  0.871091  1.0
  H  H156  1  0.124486  0.942154  0.128909  1.0
  H  H157  1  0.533154  0.321107  0.017488  1.0
  H  H158  1  0.966846  0.678893  0.517488  1.0
  H  H159  1  0.033154  0.178893  0.982512  1.0
  H  H160  1  0.466846  0.821107  0.482512  1.0
  H  H161  1  0.017488  0.533154  0.321107  1.0
  H  H162  1  0.482512  0.466846  0.821107  1.0
  H  H163  1  0.517488  0.966846  0.678893  1.0
  H  H164  1  0.982512  0.033154  0.178893  1.0
  H  H165  1  0.321107  0.017488  0.533154  1.0
  H  H166  1  0.821107  0.482512  0.466846  1.0
  H  H167  1  0.678893  0.517488  0.966846  1.0
  H  H168  1  0.178893  0.982512  0.033154  1.0
  H  H169  1  0.628645  0.328203  0.948979  1.0
  H  H170  1  0.871355  0.671797  0.448979  1.0
  H  H171  1  0.128645  0.171797  0.051021  1.0
  H  H172  1  0.371355  0.828203  0.551021  1.0
  H  H173  1  0.948979  0.628645  0.328203  1.0
  H  H174  1  0.551021  0.371355  0.828203  1.0
  H  H175  1  0.448979  0.871355  0.671797  1.0
  H  H176  1  0.051021  0.128645  0.171797  1.0
  H  H177  1  0.328203  0.948979  0.628645  1.0
  H  H178  1  0.828203  0.551021  0.371355  1.0
  H  H179  1  0.671797  0.448979  0.871355  1.0
  H  H180  1  0.171797  0.051021  0.128645  1.0
  H  H181  1  0.512093  0.344534  0.104639  1.0
  H  H182  1  0.987907  0.655466  0.604639  1.0
  H  H183  1  0.012093  0.155466  0.895361  1.0
  H  H184  1  0.487907  0.844534  0.395361  1.0
  H  H185  1  0.104639  0.512093  0.344534  1.0
  H  H186  1  0.395361  0.487907  0.844534  1.0
  H  H187  1  0.604639  0.987907  0.655466  1.0
  H  H188  1  0.895361  0.012093  0.155466  1.0
  H  H189  1  0.344534  0.104639  0.512093  1.0
  H  H190  1  0.844534  0.395361  0.487907  1.0
  H  H191  1  0.655466  0.604639  0.987907  1.0
  H  H192  1  0.155466  0.895361  0.012093  1.0
  H  H193  1  0.529651  0.309743  0.080286  1.0
  H  H194  1  0.970349  0.690257  0.580286  1.0
  H  H195  1  0.029651  0.190257  0.919714  1.0
  H  H196  1  0.470349  0.809743  0.419714  1.0
  H  H197  1  0.080286  0.529651  0.309743  1.0
  H  H198  1  0.419714  0.470349  0.809743  1.0
  H  H199  1  0.580286  0.970349  0.690257  1.0
  H  H200  1  0.919714  0.029651  0.190257  1.0
  H  H201  1  0.309743  0.080286  0.529651  1.0
  H  H202  1  0.809743  0.419714  0.470349  1.0
  H  H203  1  0.690257  0.580286  0.970349  1.0
  H  H204  1  0.190257  0.919714  0.029651  1.0
  H  H205  1  0.580150  0.320600  0.136491  1.0
  H  H206  1  0.919850  0.679400  0.636491  1.0
  H  H207  1  0.080150  0.179400  0.863509  1.0
  H  H208  1  0.419850  0.820600  0.363509  1.0
  H  H209  1  0.136491  0.580150  0.320600  1.0
  H  H210  1  0.363509  0.419850  0.820600  1.0
  H  H211  1  0.636491  0.919850  0.679400  1.0
  H  H212  1  0.863509  0.080150  0.179400  1.0
  H  H213  1  0.320600  0.136491  0.580150  1.0
  H  H214  1  0.820600  0.363509  0.419850  1.0
  H  H215  1  0.679400  0.636491  0.919850  1.0
  H  H216  1  0.179400  0.863509  0.080150  1.0
  H  H217  1  0.539379  0.325363  0.157039  1.0
  H  H218  1  0.960621  0.674637  0.657039  1.0
  H  H219  1  0.039379  0.174637  0.842961  1.0
  H  H220  1  0.460621  0.825363  0.342961  1.0
  H  H221  1  0.157039  0.539379  0.325363  1.0
  H  H222  1  0.342961  0.460621  0.825363  1.0
  H  H223  1  0.657039  0.960621  0.674637  1.0
  H  H224  1  0.842961  0.039379  0.174637  1.0
  H  H225  1  0.325363  0.157039  0.539379  1.0
  H  H226  1  0.825363  0.342961  0.460621  1.0
  H  H227  1  0.674637  0.657039  0.960621  1.0
  H  H228  1  0.174637  0.842961  0.039379  1.0
  H  H229  1  0.536672  0.260273  0.114766  1.0
  H  H230  1  0.963328  0.739727  0.614766  1.0
  H  H231  1  0.036672  0.239727  0.885234  1.0
  H  H232  1  0.463328  0.760273  0.385234  1.0
  H  H233  1  0.114766  0.536672  0.260273  1.0
  H  H234  1  0.385234  0.463328  0.760273  1.0
  H  H235  1  0.614766  0.963328  0.739727  1.0
  H  H236  1  0.885234  0.036672  0.239727  1.0
  H  H237  1  0.260273  0.114766  0.536672  1.0
  H  H238  1  0.760273  0.385234  0.463328  1.0
  H  H239  1  0.739727  0.614766  0.963328  1.0
  H  H240  1  0.239727  0.885234  0.036672  1.0
  H  H241  1  0.532327  0.264250  0.160298  1.0
  H  H242  1  0.967673  0.735750  0.660298  1.0
  H  H243  1  0.032327  0.235750  0.839702  1.0
  H  H244  1  0.467673  0.764250  0.339702  1.0
  H  H245  1  0.160298  0.532327  0.264250  1.0
  H  H246  1  0.339702  0.467673  0.764250  1.0
  H  H247  1  0.660298  0.967673  0.735750  1.0
  H  H248  1  0.839702  0.032327  0.235750  1.0
  H  H249  1  0.264250  0.160298  0.532327  1.0
  H  H250  1  0.764250  0.339702  0.467673  1.0
  H  H251  1  0.735750  0.660298  0.967673  1.0
  H  H252  1  0.235750  0.839702  0.032327  1.0
  H  H253  1  0.606730  0.267638  0.152307  1.0
  H  H254  1  0.893270  0.732362  0.652307  1.0
  H  H255  1  0.106730  0.232362  0.847693  1.0
  H  H256  1  0.393270  0.767638  0.347693  1.0
  H  H257  1  0.152307  0.606730  0.267638  1.0
  H  H258  1  0.347693  0.393270  0.767638  1.0
  H  H259  1  0.652307  0.893270  0.732362  1.0
  H  H260  1  0.847693  0.106730  0.232362  1.0
  H  H261  1  0.267638  0.152307  0.606730  1.0
  H  H262  1  0.767638  0.347693  0.393270  1.0
  H  H263  1  0.732362  0.652307  0.893270  1.0
  H  H264  1  0.232362  0.847693  0.106730  1.0
  H  H265  1  0.595338  0.238744  0.118479  1.0
  H  H266  1  0.904662  0.761256  0.618479  1.0
  H  H267  1  0.095338  0.261256  0.881521  1.0
  H  H268  1  0.404662  0.738744  0.381521  1.0
  H  H269  1  0.118479  0.595338  0.238744  1.0
  H  H270  1  0.381521  0.404662  0.738744  1.0
  H  H271  1  0.618479  0.904662  0.761256  1.0
  H  H272  1  0.881521  0.095338  0.261256  1.0
  H  H273  1  0.238744  0.118479  0.595338  1.0
  H  H274  1  0.738744  0.381521  0.404662  1.0
  H  H275  1  0.761256  0.618479  0.904662  1.0
  H  H276  1  0.261256  0.881521  0.095338  1.0
  H  H277  1  0.606493  0.219757  0.191388  1.0
  H  H278  1  0.893507  0.780243  0.691388  1.0
  H  H279  1  0.106493  0.280243  0.808612  1.0
  H  H280  1  0.393507  0.719757  0.308612  1.0
  H  H281  1  0.191388  0.606493  0.219757  1.0
  H  H282  1  0.308612  0.393507  0.719757  1.0
  H  H283  1  0.691388  0.893507  0.780243  1.0
  H  H284  1  0.808612  0.106493  0.280243  1.0
  H  H285  1  0.219757  0.191388  0.606493  1.0
  H  H286  1  0.719757  0.308612  0.393507  1.0
  H  H287  1  0.780243  0.691388  0.893507  1.0
  H  H288  1  0.280243  0.808612  0.106493  1.0
  H  H289  1  0.560924  0.217176  0.186310  1.0
  H  H290  1  0.939076  0.782824  0.686310  1.0
  H  H291  1  0.060924  0.282824  0.813690  1.0
  H  H292  1  0.439076  0.717176  0.313690  1.0
  H  H293  1  0.186310  0.560924  0.217176  1.0
  H  H294  1  0.313690  0.439076  0.717176  1.0
  H  H295  1  0.686310  0.939076  0.782824  1.0
  H  H296  1  0.813690  0.060924  0.282824  1.0
  H  H297  1  0.217176  0.186310  0.560924  1.0
  H  H298  1  0.717176  0.313690  0.439076  1.0
  H  H299  1  0.782824  0.686310  0.939076  1.0
  H  H300  1  0.282824  0.813690  0.060924  1.0
  H  H301  1  0.598291  0.179099  0.127827  1.0
  H  H302  1  0.901709  0.820901  0.627827  1.0
  H  H303  1  0.098291  0.320901  0.872173  1.0
  H  H304  1  0.401709  0.679099  0.372173  1.0
  H  H305  1  0.127827  0.598291  0.179099  1.0
  H  H306  1  0.372173  0.401709  0.679099  1.0
  H  H307  1  0.627827  0.901709  0.820901  1.0
  H  H308  1  0.872173  0.098291  0.320901  1.0
  H  H309  1  0.179099  0.127827  0.598291  1.0
  H  H310  1  0.679099  0.372173  0.401709  1.0
  H  H311  1  0.820901  0.627827  0.901709  1.0
  H  H312  1  0.320901  0.872173  0.098291  1.0
  H  H313  1  0.564305  0.163758  0.154629  1.0
  H  H314  1  0.935695  0.836242  0.654629  1.0
  H  H315  1  0.064305  0.336242  0.845371  1.0
  H  H316  1  0.435695  0.663758  0.345371  1.0
  H  H317  1  0.154629  0.564305  0.163758  1.0
  H  H318  1  0.345371  0.435695  0.663758  1.0
  H  H319  1  0.654629  0.935695  0.836242  1.0
  H  H320  1  0.845371  0.064305  0.336242  1.0
  H  H321  1  0.163758  0.154629  0.564305  1.0
  H  H322  1  0.663758  0.345371  0.435695  1.0
  H  H323  1  0.836242  0.654629  0.935695  1.0
  H  H324  1  0.336242  0.845371  0.064305  1.0
  H  H325  1  0.603414  0.133466  0.193545  1.0
  H  H326  1  0.896586  0.866534  0.693545  1.0
  H  H327  1  0.103414  0.366534  0.806455  1.0
  H  H328  1  0.396586  0.633466  0.306455  1.0
  H  H329  1  0.193545  0.603414  0.133466  1.0
  H  H330  1  0.306455  0.396586  0.633466  1.0
  H  H331  1  0.693545  0.896586  0.866534  1.0
  H  H332  1  0.806455  0.103414  0.366534  1.0
  H  H333  1  0.133466  0.193545  0.603414  1.0
  H  H334  1  0.633466  0.306455  0.396586  1.0
  H  H335  1  0.866534  0.693545  0.896586  1.0
  H  H336  1  0.366534  0.806455  0.103414  1.0
  H  H337  1  0.635861  0.165860  0.190755  1.0
  H  H338  1  0.864139  0.834140  0.690755  1.0
  H  H339  1  0.135861  0.334140  0.809245  1.0
  H  H340  1  0.364139  0.665860  0.309245  1.0
  H  H341  1  0.190755  0.635861  0.165860  1.0
  H  H342  1  0.309245  0.364139  0.665860  1.0
  H  H343  1  0.690755  0.864139  0.834140  1.0
  H  H344  1  0.809245  0.135861  0.334140  1.0
  H  H345  1  0.165860  0.190755  0.635861  1.0
  H  H346  1  0.665860  0.309245  0.364139  1.0
  H  H347  1  0.834140  0.690755  0.864139  1.0
  H  H348  1  0.334140  0.809245  0.135861  1.0
  H  H349  1  0.658767  0.108093  0.164544  1.0
  H  H350  1  0.841233  0.891907  0.664544  1.0
  H  H351  1  0.158767  0.391907  0.835456  1.0
  H  H352  1  0.341233  0.608093  0.335456  1.0
  H  H353  1  0.164544  0.658767  0.108093  1.0
  H  H354  1  0.335456  0.341233  0.608093  1.0
  H  H355  1  0.664544  0.841233  0.891907  1.0
  H  H356  1  0.835456  0.158767  0.391907  1.0
  H  H357  1  0.108093  0.164544  0.658767  1.0
  H  H358  1  0.608093  0.335456  0.341233  1.0
  H  H359  1  0.891907  0.664544  0.841233  1.0
  H  H360  1  0.391907  0.835456  0.158767  1.0
  H  H361  1  0.624147  0.107529  0.134226  1.0
  H  H362  1  0.875853  0.892471  0.634226  1.0
  H  H363  1  0.124147  0.392471  0.865774  1.0
  H  H364  1  0.375853  0.607529  0.365774  1.0
  H  H365  1  0.134226  0.624147  0.107529  1.0
  H  H366  1  0.365774  0.375853  0.607529  1.0
  H  H367  1  0.634226  0.875853  0.892471  1.0
  H  H368  1  0.865774  0.124147  0.392471  1.0
  H  H369  1  0.107529  0.134226  0.624147  1.0
  H  H370  1  0.607529  0.365774  0.375853  1.0
  H  H371  1  0.892471  0.634226  0.875853  1.0
  H  H372  1  0.392471  0.865774  0.124147  1.0
  H  H373  1  0.656656  0.139985  0.131431  1.0
  H  H374  1  0.843344  0.860015  0.631431  1.0
  H  H375  1  0.156656  0.360015  0.868569  1.0
  H  H376  1  0.343344  0.639985  0.368569  1.0
  H  H377  1  0.131431  0.656656  0.139985  1.0
  H  H378  1  0.368569  0.343344  0.639985  1.0
  H  H379  1  0.631431  0.843344  0.860015  1.0
  H  H380  1  0.868569  0.156656  0.360015  1.0
  H  H381  1  0.139985  0.131431  0.656656  1.0
  H  H382  1  0.639985  0.368569  0.343344  1.0
  H  H383  1  0.860015  0.631431  0.843344  1.0
  H  H384  1  0.360015  0.868569  0.156656  1.0
  H  H385  1  0.584636  0.070185  0.986987  1.0
  H  H386  1  0.915364  0.929815  0.486987  1.0
  H  H387  1  0.084636  0.429815  0.013013  1.0
  H  H388  1  0.415364  0.570185  0.513013  1.0
  H  H389  1  0.986987  0.584636  0.070185  1.0
  H  H390  1  0.513013  0.415364  0.570185  1.0
  H  H391  1  0.486987  0.915364  0.929815  1.0
  H  H392  1  0.013013  0.084636  0.429815  1.0
  H  H393  1  0.070185  0.986987  0.584636  1.0
  H  H394  1  0.570185  0.513013  0.415364  1.0
  H  H395  1  0.929815  0.486987  0.915364  1.0
  H  H396  1  0.429815  0.013013  0.084636  1.0
  H  H397  1  0.517124  0.164350  0.981538  1.0
  H  H398  1  0.982876  0.835650  0.481538  1.0
  H  H399  1  0.017124  0.335650  0.018462  1.0
  H  H400  1  0.482876  0.664350  0.518462  1.0
  H  H401  1  0.981538  0.517124  0.164350  1.0
  H  H402  1  0.518462  0.482876  0.664350  1.0
  H  H403  1  0.481538  0.982876  0.835650  1.0
  H  H404  1  0.018462  0.017124  0.335650  1.0
  H  H405  1  0.164350  0.981538  0.517124  1.0
  H  H406  1  0.664350  0.518462  0.482876  1.0
  H  H407  1  0.835650  0.481538  0.982876  1.0
  H  H408  1  0.335650  0.018462  0.017124  1.0
  H  H409  1  0.604313  0.151458  0.905808  1.0
  H  H410  1  0.895687  0.848542  0.405808  1.0
  H  H411  1  0.104313  0.348542  0.094192  1.0
  H  H412  1  0.395687  0.651458  0.594192  1.0
  H  H413  1  0.905808  0.604313  0.151458  1.0
  H  H414  1  0.594192  0.395687  0.651458  1.0
  H  H415  1  0.405808  0.895687  0.848542  1.0
  H  H416  1  0.094192  0.104313  0.348542  1.0
  H  H417  1  0.151458  0.905808  0.604313  1.0
  H  H418  1  0.651458  0.594192  0.395687  1.0
  H  H419  1  0.848542  0.405808  0.895687  1.0
  H  H420  1  0.348542  0.094192  0.104313  1.0
  H  H421  1  0.501926  0.112647  0.018711  1.0
  H  H422  1  0.998074  0.887353  0.518711  1.0
  H  H423  1  0.001926  0.387353  0.981289  1.0
  H  H424  1  0.498074  0.612647  0.481289  1.0
  H  H425  1  0.018711  0.501926  0.112647  1.0
  H  H426  1  0.481289  0.498074  0.612647  1.0
  H  H427  1  0.518711  0.998074  0.887353  1.0
  H  H428  1  0.981289  0.001926  0.387353  1.0
  H  H429  1  0.112647  0.018711  0.501926  1.0
  H  H430  1  0.612647  0.481289  0.498074  1.0
  H  H431  1  0.887353  0.518711  0.998074  1.0
  H  H432  1  0.387353  0.981289  0.001926  1.0
  H  H433  1  0.584362  0.958803  0.842817  1.0
  H  H434  1  0.915638  0.041197  0.342817  1.0
  H  H435  1  0.084362  0.541197  0.157183  1.0
  H  H436  1  0.415638  0.458803  0.657183  1.0
  H  H437  1  0.842817  0.584362  0.958803  1.0
  H  H438  1  0.657183  0.415638  0.458803  1.0
  H  H439  1  0.342817  0.915638  0.041197  1.0
  H  H440  1  0.157183  0.084362  0.541197  1.0
  H  H441  1  0.958803  0.842817  0.584362  1.0
  H  H442  1  0.458803  0.657183  0.415638  1.0
  H  H443  1  0.041197  0.342817  0.915638  1.0
  H  H444  1  0.541197  0.157183  0.084362  1.0
  H  H445  1  0.527140  0.986390  0.743848  1.0
  H  H446  1  0.972860  0.013610  0.243848  1.0
  H  H447  1  0.027140  0.513610  0.256152  1.0
  H  H448  1  0.472860  0.486390  0.756152  1.0
  H  H449  1  0.743848  0.527140  0.986390  1.0
  H  H450  1  0.756152  0.472860  0.486390  1.0
  H  H451  1  0.243848  0.972860  0.013610  1.0
  H  H452  1  0.256152  0.027140  0.513610  1.0
  H  H453  1  0.986390  0.743848  0.527140  1.0
  H  H454  1  0.486390  0.756152  0.472860  1.0
  H  H455  1  0.013610  0.243848  0.972860  1.0
  H  H456  1  0.513610  0.256152  0.027140  1.0
  H  H457  1  0.604802  0.062214  0.784089  1.0
  H  H458  1  0.895198  0.937786  0.284089  1.0
  H  H459  1  0.104802  0.437786  0.215911  1.0
  H  H460  1  0.395198  0.562214  0.715911  1.0
  H  H461  1  0.784089  0.604802  0.062214  1.0
  H  H462  1  0.715911  0.395198  0.562214  1.0
  H  H463  1  0.284089  0.895198  0.937786  1.0
  H  H464  1  0.215911  0.104802  0.437786  1.0
  H  H465  1  0.062214  0.784089  0.604802  1.0
  H  H466  1  0.562214  0.715911  0.395198  1.0
  H  H467  1  0.937786  0.284089  0.895198  1.0
  H  H468  1  0.437786  0.215911  0.104802  1.0
  H  H469  1  0.547507  0.893583  0.835260  1.0
  H  H470  1  0.952493  0.106417  0.335260  1.0
  H  H471  1  0.047507  0.606417  0.164740  1.0
  H  H472  1  0.452493  0.393583  0.664740  1.0
  H  H473  1  0.835260  0.547507  0.893583  1.0
  H  H474  1  0.664740  0.452493  0.393583  1.0
  H  H475  1  0.335260  0.952493  0.106417  1.0
  H  H476  1  0.164740  0.047507  0.606417  1.0
  H  H477  1  0.893583  0.835260  0.547507  1.0
  H  H478  1  0.393583  0.664740  0.452493  1.0
  H  H479  1  0.106417  0.335260  0.952493  1.0
  H  H480  1  0.606417  0.164740  0.047507  1.0
  H  H481  1  0.577510  0.896397  0.800577  1.0
  H  H482  1  0.922490  0.103603  0.300577  1.0
  H  H483  1  0.077510  0.603603  0.199423  1.0
  H  H484  1  0.422490  0.396397  0.699423  1.0
  H  H485  1  0.800577  0.577510  0.896397  1.0
  H  H486  1  0.699423  0.422490  0.396397  1.0
  H  H487  1  0.300577  0.922490  0.103603  1.0
  H  H488  1  0.199423  0.077510  0.603603  1.0
  H  H489  1  0.896397  0.800577  0.577510  1.0
  H  H490  1  0.396397  0.699423  0.422490  1.0
  H  H491  1  0.103603  0.300577  0.922490  1.0
  H  H492  1  0.603603  0.199423  0.077510  1.0
  H  H493  1  0.516661  0.846080  0.808919  1.0
  H  H494  1  0.983339  0.153920  0.308919  1.0
  H  H495  1  0.016661  0.653920  0.191081  1.0
  H  H496  1  0.483339  0.346080  0.691081  1.0
  H  H497  1  0.808919  0.516661  0.846080  1.0
  H  H498  1  0.691081  0.483339  0.346080  1.0
  H  H499  1  0.308919  0.983339  0.153920  1.0
  H  H500  1  0.191081  0.016661  0.653920  1.0
  H  H501  1  0.846080  0.808919  0.516661  1.0
  H  H502  1  0.346080  0.691081  0.483339  1.0
  H  H503  1  0.153920  0.308919  0.983339  1.0
  H  H504  1  0.653920  0.191081  0.016661  1.0
  H  H505  1  0.515964  0.866337  0.767693  1.0
  H  H506  1  0.984036  0.133663  0.267693  1.0
  H  H507  1  0.015964  0.633663  0.232307  1.0
  H  H508  1  0.484036  0.366337  0.732307  1.0
  H  H509  1  0.767693  0.515964  0.866337  1.0
  H  H510  1  0.732307  0.484036  0.366337  1.0
  H  H511  1  0.267693  0.984036  0.133663  1.0
  H  H512  1  0.232307  0.015964  0.633663  1.0
  H  H513  1  0.866337  0.767693  0.515964  1.0
  H  H514  1  0.366337  0.732307  0.484036  1.0
  H  H515  1  0.133663  0.267693  0.984036  1.0
  H  H516  1  0.633663  0.232307  0.015964  1.0
  H  H517  1  0.556757  0.804787  0.786120  1.0
  H  H518  1  0.943243  0.195213  0.286120  1.0
  H  H519  1  0.056757  0.695213  0.213880  1.0
  H  H520  1  0.443243  0.304787  0.713880  1.0
  H  H521  1  0.786120  0.556757  0.804787  1.0
  H  H522  1  0.713880  0.443243  0.304787  1.0
  H  H523  1  0.286120  0.943243  0.195213  1.0
  H  H524  1  0.213880  0.056757  0.695213  1.0
  H  H525  1  0.804787  0.786120  0.556757  1.0
  H  H526  1  0.304787  0.713880  0.443243  1.0
  H  H527  1  0.195213  0.286120  0.943243  1.0
  H  H528  1  0.695213  0.213880  0.056757  1.0
  H  H529  1  0.588162  0.838246  0.784072  1.0
  H  H530  1  0.911838  0.161754  0.284072  1.0
  H  H531  1  0.088162  0.661754  0.215928  1.0
  H  H532  1  0.411838  0.338246  0.715928  1.0
  H  H533  1  0.784072  0.588162  0.838246  1.0
  H  H534  1  0.715928  0.411838  0.338246  1.0
  H  H535  1  0.284072  0.911838  0.161754  1.0
  H  H536  1  0.215928  0.088162  0.661754  1.0
  H  H537  1  0.838246  0.784072  0.588162  1.0
  H  H538  1  0.338246  0.715928  0.411838  1.0
  H  H539  1  0.161754  0.284072  0.911838  1.0
  H  H540  1  0.661754  0.215928  0.088162  1.0
  H  H541  1  0.551312  0.801712  0.724055  1.0
  H  H542  1  0.948688  0.198288  0.224055  1.0
  H  H543  1  0.051312  0.698288  0.275945  1.0
  H  H544  1  0.448688  0.301712  0.775945  1.0
  H  H545  1  0.724055  0.551312  0.801712  1.0
  H  H546  1  0.775945  0.448688  0.301712  1.0
  H  H547  1  0.224055  0.948688  0.198288  1.0
  H  H548  1  0.275945  0.051312  0.698288  1.0
  H  H549  1  0.801712  0.724055  0.551312  1.0
  H  H550  1  0.301712  0.775945  0.448688  1.0
  H  H551  1  0.198288  0.224055  0.948688  1.0
  H  H552  1  0.698288  0.275945  0.051312  1.0
  H  H553  1  0.549119  0.847377  0.719622  1.0
  H  H554  1  0.950881  0.152623  0.219622  1.0
  H  H555  1  0.049119  0.652623  0.280378  1.0
  H  H556  1  0.450881  0.347377  0.780378  1.0
  H  H557  1  0.719622  0.549119  0.847377  1.0
  H  H558  1  0.780378  0.450881  0.347377  1.0
  H  H559  1  0.219622  0.950881  0.152623  1.0
  H  H560  1  0.280378  0.049119  0.652623  1.0
  H  H561  1  0.847377  0.719622  0.549119  1.0
  H  H562  1  0.347377  0.780378  0.450881  1.0
  H  H563  1  0.152623  0.219622  0.950881  1.0
  H  H564  1  0.652623  0.280378  0.049119  1.0
  H  H565  1  0.622118  0.837556  0.733470  1.0
  H  H566  1  0.877882  0.162444  0.233470  1.0
  H  H567  1  0.122118  0.662444  0.266530  1.0
  H  H568  1  0.377882  0.337556  0.766530  1.0
  H  H569  1  0.733470  0.622118  0.837556  1.0
  H  H570  1  0.766530  0.377882  0.337556  1.0
  H  H571  1  0.233470  0.877882  0.162444  1.0
  H  H572  1  0.266530  0.122118  0.662444  1.0
  H  H573  1  0.837556  0.733470  0.622118  1.0
  H  H574  1  0.337556  0.766530  0.377882  1.0
  H  H575  1  0.162444  0.233470  0.877882  1.0
  H  H576  1  0.662444  0.266530  0.122118  1.0
  H  H577  1  0.604354  0.843505  0.691535  1.0
  H  H578  1  0.895646  0.156495  0.191535  1.0
  H  H579  1  0.104354  0.656495  0.308465  1.0
  H  H580  1  0.395646  0.343505  0.808465  1.0
  H  H581  1  0.691535  0.604354  0.843505  1.0
  H  H582  1  0.808465  0.395646  0.343505  1.0
  H  H583  1  0.191535  0.895646  0.156495  1.0
  H  H584  1  0.308465  0.104354  0.656495  1.0
  H  H585  1  0.843505  0.691535  0.604354  1.0
  H  H586  1  0.343505  0.808465  0.395646  1.0
  H  H587  1  0.156495  0.191535  0.895646  1.0
  H  H588  1  0.656495  0.308465  0.104354  1.0
  H  H589  1  0.597375  0.769521  0.699119  1.0
  H  H590  1  0.902625  0.230479  0.199119  1.0
  H  H591  1  0.097375  0.730479  0.300881  1.0
  H  H592  1  0.402625  0.269521  0.800881  1.0
  H  H593  1  0.699119  0.597375  0.769521  1.0
  H  H594  1  0.800881  0.402625  0.269521  1.0
  H  H595  1  0.199119  0.902625  0.230479  1.0
  H  H596  1  0.300881  0.097375  0.730479  1.0
  H  H597  1  0.769521  0.699119  0.597375  1.0
  H  H598  1  0.269521  0.800881  0.402625  1.0
  H  H599  1  0.230479  0.199119  0.902625  1.0
  H  H600  1  0.730479  0.300881  0.097375  1.0
  H  H601  1  0.635710  0.776971  0.723310  1.0
  H  H602  1  0.864290  0.223029  0.223310  1.0
  H  H603  1  0.135710  0.723029  0.276690  1.0
  H  H604  1  0.364290  0.276971  0.776690  1.0
  H  H605  1  0.723310  0.635710  0.776971  1.0
  H  H606  1  0.776690  0.364290  0.276971  1.0
  H  H607  1  0.223310  0.864290  0.223029  1.0
  H  H608  1  0.276690  0.135710  0.723029  1.0
  H  H609  1  0.776971  0.723310  0.635710  1.0
  H  H610  1  0.276971  0.776690  0.364290  1.0
  H  H611  1  0.223029  0.223310  0.864290  1.0
  H  H612  1  0.723029  0.276690  0.135710  1.0
  H  H613  1  0.628227  0.773003  0.645399  1.0
  H  H614  1  0.871773  0.226997  0.145399  1.0
  H  H615  1  0.128227  0.726997  0.354601  1.0
  H  H616  1  0.371773  0.273003  0.854601  1.0
  H  H617  1  0.645399  0.628227  0.773003  1.0
  H  H618  1  0.854601  0.371773  0.273003  1.0
  H  H619  1  0.145399  0.871773  0.226997  1.0
  H  H620  1  0.354601  0.128227  0.726997  1.0
  H  H621  1  0.773003  0.645399  0.628227  1.0
  H  H622  1  0.273003  0.854601  0.371773  1.0
  H  H623  1  0.226997  0.145399  0.871773  1.0
  H  H624  1  0.726997  0.354601  0.128227  1.0
  H  H625  1  0.645650  0.814071  0.656371  1.0
  H  H626  1  0.854350  0.185929  0.156371  1.0
  H  H627  1  0.145650  0.685929  0.343629  1.0
  H  H628  1  0.354350  0.314071  0.843629  1.0
  H  H629  1  0.656371  0.645650  0.814071  1.0
  H  H630  1  0.843629  0.354350  0.314071  1.0
  H  H631  1  0.156371  0.854350  0.185929  1.0
  H  H632  1  0.343629  0.145650  0.685929  1.0
  H  H633  1  0.814071  0.656371  0.645650  1.0
  H  H634  1  0.314071  0.843629  0.354350  1.0
  H  H635  1  0.185929  0.156371  0.854350  1.0
  H  H636  1  0.685929  0.343629  0.145650  1.0
  H  H637  1  0.695631  0.770489  0.643952  1.0
  H  H638  1  0.804369  0.229511  0.143952  1.0
  H  H639  1  0.195631  0.729511  0.356048  1.0
  H  H640  1  0.304369  0.270489  0.856048  1.0
  H  H641  1  0.643952  0.695631  0.770489  1.0
  H  H642  1  0.856048  0.304369  0.270489  1.0
  H  H643  1  0.143952  0.804369  0.229511  1.0
  H  H644  1  0.356048  0.195631  0.729511  1.0
  H  H645  1  0.770489  0.643952  0.695631  1.0
  H  H646  1  0.270489  0.856048  0.304369  1.0
  H  H647  1  0.229511  0.143952  0.804369  1.0
  H  H648  1  0.729511  0.356048  0.195631  1.0
  H  H649  1  0.697568  0.783637  0.688014  1.0
  H  H650  1  0.802432  0.216363  0.188014  1.0
  H  H651  1  0.197568  0.716363  0.311986  1.0
  H  H652  1  0.302432  0.283637  0.811986  1.0
  H  H653  1  0.688014  0.697568  0.783637  1.0
  H  H654  1  0.811986  0.302432  0.283637  1.0
  H  H655  1  0.188014  0.802432  0.216363  1.0
  H  H656  1  0.311986  0.197568  0.716363  1.0
  H  H657  1  0.783637  0.688014  0.697568  1.0
  H  H658  1  0.283637  0.811986  0.302432  1.0
  H  H659  1  0.216363  0.188014  0.802432  1.0
  H  H660  1  0.716363  0.311986  0.197568  1.0
  H  H661  1  0.680114  0.742495  0.677022  1.0
  H  H662  1  0.819886  0.257505  0.177022  1.0
  H  H663  1  0.180114  0.757505  0.322978  1.0
  H  H664  1  0.319886  0.242495  0.822978  1.0
  H  H665  1  0.677022  0.680114  0.742495  1.0
  H  H666  1  0.822978  0.319886  0.242495  1.0
  H  H667  1  0.177022  0.819886  0.257505  1.0
  H  H668  1  0.322978  0.180114  0.757505  1.0
  H  H669  1  0.742495  0.677022  0.680114  1.0
  H  H670  1  0.242495  0.822978  0.319886  1.0
  H  H671  1  0.257505  0.177022  0.819886  1.0
  H  H672  1  0.757505  0.322978  0.180114  1.0
  H  H673  1  0.459670  0.160600  0.588121  1.0
  H  H674  1  0.040330  0.839400  0.088121  1.0
  H  H675  1  0.959670  0.339400  0.411879  1.0
  H  H676  1  0.540330  0.660600  0.911879  1.0
  H  H677  1  0.588121  0.459670  0.160600  1.0
  H  H678  1  0.911879  0.540330  0.660600  1.0
  H  H679  1  0.088121  0.040330  0.839400  1.0
  H  H680  1  0.411879  0.959670  0.339400  1.0
  H  H681  1  0.160600  0.588121  0.459670  1.0
  H  H682  1  0.660600  0.911879  0.540330  1.0
  H  H683  1  0.839400  0.088121  0.040330  1.0
  H  H684  1  0.339400  0.411879  0.959670  1.0
  H  H685  1  0.483586  0.254582  0.527046  1.0
  H  H686  1  0.016414  0.745418  0.027046  1.0
  H  H687  1  0.983586  0.245418  0.472954  1.0
  H  H688  1  0.516414  0.754582  0.972954  1.0
  H  H689  1  0.527046  0.483586  0.254582  1.0
  H  H690  1  0.972954  0.516414  0.754582  1.0
  H  H691  1  0.027046  0.016414  0.745418  1.0
  H  H692  1  0.472954  0.983586  0.245418  1.0
  H  H693  1  0.254582  0.527046  0.483586  1.0
  H  H694  1  0.754582  0.972954  0.516414  1.0
  H  H695  1  0.745418  0.027046  0.016414  1.0
  H  H696  1  0.245418  0.472954  0.983586  1.0
  H  H697  1  0.557425  0.209738  0.605977  1.0
  H  H698  1  0.942575  0.790262  0.105977  1.0
  H  H699  1  0.057425  0.290262  0.394023  1.0
  H  H700  1  0.442575  0.709738  0.894023  1.0
  H  H701  1  0.605977  0.557425  0.209738  1.0
  H  H702  1  0.894023  0.442575  0.709738  1.0
  H  H703  1  0.105977  0.942575  0.790262  1.0
  H  H704  1  0.394023  0.057425  0.290262  1.0
  H  H705  1  0.209738  0.605977  0.557425  1.0
  H  H706  1  0.709738  0.894023  0.442575  1.0
  H  H707  1  0.790262  0.105977  0.942575  1.0
  H  H708  1  0.290262  0.394023  0.057425  1.0
  H  H709  1  0.432534  0.227772  0.487733  1.0
  H  H710  1  0.067466  0.772228  0.987733  1.0
  H  H711  1  0.932534  0.272228  0.512267  1.0
  H  H712  1  0.567466  0.727772  0.012267  1.0
  H  H713  1  0.487733  0.432534  0.227772  1.0
  H  H714  1  0.012267  0.567466  0.727772  1.0
  H  H715  1  0.987733  0.067466  0.772228  1.0
  H  H716  1  0.512267  0.932534  0.272228  1.0
  H  H717  1  0.227772  0.487733  0.432534  1.0
  H  H718  1  0.727772  0.012267  0.567466  1.0
  H  H719  1  0.772228  0.987733  0.067466  1.0
  H  H720  1  0.272228  0.512267  0.932534  1.0
  H  H721  1  0.415992  0.254274  0.521455  1.0
  H  H722  1  0.084008  0.745726  0.021455  1.0
  H  H723  1  0.915992  0.245726  0.478545  1.0
  H  H724  1  0.584008  0.754274  0.978545  1.0
  H  H725  1  0.521455  0.415992  0.254274  1.0
  H  H726  1  0.978545  0.584008  0.754274  1.0
  H  H727  1  0.021455  0.084008  0.745726  1.0
  H  H728  1  0.478545  0.915992  0.245726  1.0
  H  H729  1  0.254274  0.521455  0.415992  1.0
  H  H730  1  0.754274  0.978545  0.584008  1.0
  H  H731  1  0.745726  0.021455  0.084008  1.0
  H  H732  1  0.245726  0.478545  0.915992  1.0
  H  H733  1  0.370496  0.227549  0.472061  1.0
  H  H734  1  0.129504  0.772451  0.972061  1.0
  H  H735  1  0.870496  0.272451  0.527939  1.0
  H  H736  1  0.629504  0.727549  0.027939  1.0
  H  H737  1  0.472061  0.370496  0.227549  1.0
  H  H738  1  0.027939  0.629504  0.727549  1.0
  H  H739  1  0.972061  0.129504  0.772451  1.0
  H  H740  1  0.527939  0.870496  0.272451  1.0
  H  H741  1  0.227549  0.472061  0.370496  1.0
  H  H742  1  0.727549  0.027939  0.629504  1.0
  H  H743  1  0.772451  0.972061  0.129504  1.0
  H  H744  1  0.272451  0.527939  0.870496  1.0
  H  H745  1  0.372017  0.189570  0.497929  1.0
  H  H746  1  0.127983  0.810430  0.997929  1.0
  H  H747  1  0.872017  0.310430  0.502071  1.0
  H  H748  1  0.627983  0.689570  0.002071  1.0
  H  H749  1  0.497929  0.372017  0.189570  1.0
  H  H750  1  0.002071  0.627983  0.689570  1.0
  H  H751  1  0.997929  0.127983  0.810430  1.0
  H  H752  1  0.502071  0.872017  0.310430  1.0
  H  H753  1  0.189570  0.497929  0.372017  1.0
  H  H754  1  0.689570  0.002071  0.627983  1.0
  H  H755  1  0.810430  0.997929  0.127983  1.0
  H  H756  1  0.310430  0.502071  0.872017  1.0
  H  H757  1  0.321751  0.242607  0.508978  1.0
  H  H758  1  0.178249  0.757393  0.008978  1.0
  H  H759  1  0.821751  0.257393  0.491022  1.0
  H  H760  1  0.678249  0.742607  0.991022  1.0
  H  H761  1  0.508978  0.321751  0.242607  1.0
  H  H762  1  0.991022  0.678249  0.742607  1.0
  H  H763  1  0.008978  0.178249  0.757393  1.0
  H  H764  1  0.491022  0.821751  0.257393  1.0
  H  H765  1  0.242607  0.508978  0.321751  1.0
  H  H766  1  0.742607  0.991022  0.678249  1.0
  H  H767  1  0.757393  0.008978  0.178249  1.0
  H  H768  1  0.257393  0.491022  0.821751  1.0
  H  H769  1  0.335060  0.214193  0.542560  1.0
  H  H770  1  0.164940  0.785807  0.042560  1.0
  H  H771  1  0.835060  0.285807  0.457440  1.0
  H  H772  1  0.664940  0.714193  0.957440  1.0
  H  H773  1  0.542560  0.335060  0.214193  1.0
  H  H774  1  0.957440  0.664940  0.714193  1.0
  H  H775  1  0.042560  0.164940  0.785807  1.0
  H  H776  1  0.457440  0.835060  0.285807  1.0
  H  H777  1  0.214193  0.542560  0.335060  1.0
  H  H778  1  0.714193  0.957440  0.664940  1.0
  H  H779  1  0.785807  0.042560  0.164940  1.0
  H  H780  1  0.285807  0.457440  0.835060  1.0
  H  H781  1  0.379237  0.281064  0.534996  1.0
  H  H782  1  0.120763  0.718936  0.034996  1.0
  H  H783  1  0.879237  0.218936  0.465004  1.0
  H  H784  1  0.620763  0.781064  0.965004  1.0
  H  H785  1  0.534996  0.379237  0.281064  1.0
  H  H786  1  0.965004  0.620763  0.781064  1.0
  H  H787  1  0.034996  0.120763  0.718936  1.0
  H  H788  1  0.465004  0.879237  0.218936  1.0
  H  H789  1  0.281064  0.534996  0.379237  1.0
  H  H790  1  0.781064  0.965004  0.620763  1.0
  H  H791  1  0.718936  0.034996  0.120763  1.0
  H  H792  1  0.218936  0.465004  0.879237  1.0
  H  H793  1  0.366948  0.259262  0.573511  1.0
  H  H794  1  0.133052  0.740738  0.073511  1.0
  H  H795  1  0.866948  0.240738  0.426489  1.0
  H  H796  1  0.633052  0.759262  0.926489  1.0
  H  H797  1  0.573511  0.366948  0.259262  1.0
  H  H798  1  0.926489  0.633052  0.759262  1.0
  H  H799  1  0.073511  0.133052  0.740738  1.0
  H  H800  1  0.426489  0.866948  0.240738  1.0
  H  H801  1  0.259262  0.573511  0.366948  1.0
  H  H802  1  0.759262  0.926489  0.633052  1.0
  H  H803  1  0.740738  0.073511  0.133052  1.0
  H  H804  1  0.240738  0.426489  0.866948  1.0
  H  H805  1  0.309670  0.300863  0.533072  1.0
  H  H806  1  0.190330  0.699137  0.033072  1.0
  H  H807  1  0.809670  0.199137  0.466928  1.0
  H  H808  1  0.690330  0.800863  0.966928  1.0
  H  H809  1  0.533072  0.309670  0.300863  1.0
  H  H810  1  0.966928  0.690330  0.800863  1.0
  H  H811  1  0.033072  0.190330  0.699137  1.0
  H  H812  1  0.466928  0.809670  0.199137  1.0
  H  H813  1  0.300863  0.533072  0.309670  1.0
  H  H814  1  0.800863  0.966928  0.690330  1.0
  H  H815  1  0.699137  0.033072  0.190330  1.0
  H  H816  1  0.199137  0.466928  0.809670  1.0
  H  H817  1  0.339295  0.324430  0.559209  1.0
  H  H818  1  0.160705  0.675570  0.059209  1.0
  H  H819  1  0.839295  0.175570  0.440791  1.0
  H  H820  1  0.660705  0.824430  0.940791  1.0
  H  H821  1  0.559209  0.339295  0.324430  1.0
  H  H822  1  0.940791  0.660705  0.824430  1.0
  H  H823  1  0.059209  0.160705  0.675570  1.0
  H  H824  1  0.440791  0.839295  0.175570  1.0
  H  H825  1  0.324430  0.559209  0.339295  1.0
  H  H826  1  0.824430  0.940791  0.660705  1.0
  H  H827  1  0.675570  0.059209  0.160705  1.0
  H  H828  1  0.175570  0.440791  0.839295  1.0
  H  H829  1  0.306087  0.311167  0.610577  1.0
  H  H830  1  0.193913  0.688833  0.110577  1.0
  H  H831  1  0.806087  0.188833  0.389423  1.0
  H  H832  1  0.693913  0.811167  0.889423  1.0
  H  H833  1  0.610577  0.306087  0.311167  1.0
  H  H834  1  0.889423  0.693913  0.811167  1.0
  H  H835  1  0.110577  0.193913  0.688833  1.0
  H  H836  1  0.389423  0.806087  0.188833  1.0
  H  H837  1  0.311167  0.610577  0.306087  1.0
  H  H838  1  0.811167  0.889423  0.693913  1.0
  H  H839  1  0.688833  0.110577  0.193913  1.0
  H  H840  1  0.188833  0.389423  0.806087  1.0
  H  H841  1  0.274697  0.290624  0.583960  1.0
  H  H842  1  0.225303  0.709376  0.083960  1.0
  H  H843  1  0.774697  0.209376  0.416040  1.0
  H  H844  1  0.725303  0.790624  0.916040  1.0
  H  H845  1  0.583960  0.274697  0.290624  1.0
  H  H846  1  0.916040  0.725303  0.790624  1.0
  H  H847  1  0.083960  0.225303  0.709376  1.0
  H  H848  1  0.416040  0.774697  0.209376  1.0
  H  H849  1  0.290624  0.583960  0.274697  1.0
  H  H850  1  0.790624  0.916040  0.725303  1.0
  H  H851  1  0.709376  0.083960  0.225303  1.0
  H  H852  1  0.209376  0.416040  0.774697  1.0
  H  H853  1  0.314071  0.232284  0.589369  1.0
  H  H854  1  0.185929  0.767716  0.089369  1.0
  H  H855  1  0.814071  0.267716  0.410631  1.0
  H  H856  1  0.685929  0.732284  0.910631  1.0
  H  H857  1  0.589369  0.314071  0.232284  1.0
  H  H858  1  0.910631  0.685929  0.732284  1.0
  H  H859  1  0.089369  0.185929  0.767716  1.0
  H  H860  1  0.410631  0.814071  0.267716  1.0
  H  H861  1  0.232284  0.589369  0.314071  1.0
  H  H862  1  0.732284  0.910631  0.685929  1.0
  H  H863  1  0.767716  0.089369  0.185929  1.0
  H  H864  1  0.267716  0.410631  0.814071  1.0
  H  H865  1  0.337125  0.253960  0.622670  1.0
  H  H866  1  0.162875  0.746040  0.122670  1.0
  H  H867  1  0.837125  0.246040  0.377330  1.0
  H  H868  1  0.662875  0.753960  0.877330  1.0
  H  H869  1  0.622670  0.337125  0.253960  1.0
  H  H870  1  0.877330  0.662875  0.753960  1.0
  H  H871  1  0.122670  0.162875  0.746040  1.0
  H  H872  1  0.377330  0.837125  0.246040  1.0
  H  H873  1  0.253960  0.622670  0.337125  1.0
  H  H874  1  0.753960  0.877330  0.662875  1.0
  H  H875  1  0.746040  0.122670  0.162875  1.0
  H  H876  1  0.246040  0.377330  0.837125  1.0
  H  H877  1  0.290810  0.213117  0.649633  1.0
  H  H878  1  0.209190  0.786883  0.149633  1.0
  H  H879  1  0.790810  0.286883  0.350367  1.0
  H  H880  1  0.709190  0.713117  0.850367  1.0
  H  H881  1  0.649633  0.290810  0.213117  1.0
  H  H882  1  0.850367  0.709190  0.713117  1.0
  H  H883  1  0.149633  0.209190  0.786883  1.0
  H  H884  1  0.350367  0.790810  0.286883  1.0
  H  H885  1  0.213117  0.649633  0.290810  1.0
  H  H886  1  0.713117  0.850367  0.709190  1.0
  H  H887  1  0.786883  0.149633  0.209190  1.0
  H  H888  1  0.286883  0.350367  0.790810  1.0
  H  H889  1  0.280528  0.256737  0.660100  1.0
  H  H890  1  0.219472  0.743263  0.160100  1.0
  H  H891  1  0.780528  0.243263  0.339900  1.0
  H  H892  1  0.719472  0.756737  0.839900  1.0
  H  H893  1  0.660100  0.280528  0.256737  1.0
  H  H894  1  0.839900  0.719472  0.756737  1.0
  H  H895  1  0.160100  0.219472  0.743263  1.0
  H  H896  1  0.339900  0.780528  0.243263  1.0
  H  H897  1  0.256737  0.660100  0.280528  1.0
  H  H898  1  0.756737  0.839900  0.719472  1.0
  H  H899  1  0.743263  0.160100  0.219472  1.0
  H  H900  1  0.243263  0.339900  0.780528  1.0
  H  H901  1  0.257433  0.235021  0.626738  1.0
  H  H902  1  0.242567  0.764979  0.126738  1.0
  H  H903  1  0.757433  0.264979  0.373262  1.0
  H  H904  1  0.742567  0.735021  0.873262  1.0
  H  H905  1  0.626738  0.257433  0.235021  1.0
  H  H906  1  0.873262  0.742567  0.735021  1.0
  H  H907  1  0.126738  0.242567  0.764979  1.0
  H  H908  1  0.373262  0.757433  0.264979  1.0
  H  H909  1  0.235021  0.626738  0.257433  1.0
  H  H910  1  0.735021  0.873262  0.742567  1.0
  H  H911  1  0.764979  0.126738  0.242567  1.0
  H  H912  1  0.264979  0.373262  0.757433  1.0
  H  H913  1  0.716987  0.178975  0.417493  1.0
  H  H914  1  0.783013  0.821025  0.917493  1.0
  H  H915  1  0.216987  0.321025  0.582507  1.0
  H  H916  1  0.283013  0.678975  0.082507  1.0
  H  H917  1  0.417493  0.716987  0.178975  1.0
  H  H918  1  0.082507  0.283013  0.678975  1.0
  H  H919  1  0.917493  0.783013  0.821025  1.0
  H  H920  1  0.582507  0.216987  0.321025  1.0
  H  H921  1  0.178975  0.417493  0.716987  1.0
  H  H922  1  0.678975  0.082507  0.283013  1.0
  H  H923  1  0.821025  0.917493  0.783013  1.0
  H  H924  1  0.321025  0.582507  0.216987  1.0
  H  H925  1  0.645501  0.273020  0.428472  1.0
  H  H926  1  0.854499  0.726980  0.928472  1.0
  H  H927  1  0.145501  0.226980  0.571528  1.0
  H  H928  1  0.354499  0.773020  0.071528  1.0
  H  H929  1  0.428472  0.645501  0.273020  1.0
  H  H930  1  0.071528  0.354499  0.773020  1.0
  H  H931  1  0.928472  0.854499  0.726980  1.0
  H  H932  1  0.571528  0.145501  0.226980  1.0
  H  H933  1  0.273020  0.428472  0.645501  1.0
  H  H934  1  0.773020  0.071528  0.354499  1.0
  H  H935  1  0.726980  0.928472  0.854499  1.0
  H  H936  1  0.226980  0.571528  0.145501  1.0
  H  H937  1  0.681225  0.213804  0.522476  1.0
  H  H938  1  0.818775  0.786196  0.022476  1.0
  H  H939  1  0.181225  0.286196  0.477524  1.0
  H  H940  1  0.318775  0.713804  0.977524  1.0
  H  H941  1  0.522476  0.681225  0.213804  1.0
  H  H942  1  0.977524  0.318775  0.713804  1.0
  H  H943  1  0.022476  0.818775  0.786196  1.0
  H  H944  1  0.477524  0.181225  0.286196  1.0
  H  H945  1  0.213804  0.522476  0.681225  1.0
  H  H946  1  0.713804  0.977524  0.318775  1.0
  H  H947  1  0.786196  0.022476  0.818775  1.0
  H  H948  1  0.286196  0.477524  0.181225  1.0
  H  H949  1  0.678185  0.208077  0.366015  1.0
  H  H950  1  0.821815  0.791923  0.866015  1.0
  H  H951  1  0.178185  0.291923  0.633985  1.0
  H  H952  1  0.321815  0.708077  0.133985  1.0
  H  H953  1  0.366015  0.678185  0.208077  1.0
  H  H954  1  0.133985  0.321815  0.708077  1.0
  H  H955  1  0.866015  0.821815  0.791923  1.0
  H  H956  1  0.633985  0.178185  0.291923  1.0
  H  H957  1  0.208077  0.366015  0.678185  1.0
  H  H958  1  0.708077  0.133985  0.321815  1.0
  H  H959  1  0.791923  0.866015  0.821815  1.0
  H  H960  1  0.291923  0.633985  0.178185  1.0
  H  H961  1  0.563952  0.020246  0.574041  1.0
  H  H962  1  0.936048  0.979754  0.074041  1.0
  H  H963  1  0.063952  0.479754  0.425959  1.0
  H  H964  1  0.436048  0.520246  0.925959  1.0
  H  H965  1  0.574041  0.563952  0.020246  1.0
  H  H966  1  0.925959  0.436048  0.520246  1.0
  H  H967  1  0.074041  0.936048  0.979754  1.0
  H  H968  1  0.425959  0.063952  0.479754  1.0
  H  H969  1  0.020246  0.574041  0.563952  1.0
  H  H970  1  0.520246  0.925959  0.436048  1.0
  H  H971  1  0.979754  0.074041  0.936048  1.0
  H  H972  1  0.479754  0.425959  0.063952  1.0
  H  H973  1  0.657502  0.026040  0.505103  1.0
  H  H974  1  0.842498  0.973960  0.005103  1.0
  H  H975  1  0.157502  0.473960  0.494897  1.0
  H  H976  1  0.342498  0.526040  0.994897  1.0
  H  H977  1  0.505103  0.657502  0.026040  1.0
  H  H978  1  0.994897  0.342498  0.526040  1.0
  H  H979  1  0.005103  0.842498  0.973960  1.0
  H  H980  1  0.494897  0.157502  0.473960  1.0
  H  H981  1  0.026040  0.505103  0.657502  1.0
  H  H982  1  0.526040  0.994897  0.342498  1.0
  H  H983  1  0.973960  0.005103  0.842498  1.0
  H  H984  1  0.473960  0.494897  0.157502  1.0
  H  H985  1  0.650023  0.091205  0.600649  1.0
  H  H986  1  0.849977  0.908795  0.100649  1.0
  H  H987  1  0.150023  0.408795  0.399351  1.0
  H  H988  1  0.349977  0.591205  0.899351  1.0
  H  H989  1  0.600649  0.650023  0.091205  1.0
  H  H990  1  0.899351  0.349977  0.591205  1.0
  H  H991  1  0.100649  0.849977  0.908795  1.0
  H  H992  1  0.399351  0.150023  0.408795  1.0
  H  H993  1  0.091205  0.600649  0.650023  1.0
  H  H994  1  0.591205  0.899351  0.349977  1.0
  H  H995  1  0.908795  0.100649  0.849977  1.0
  H  H996  1  0.408795  0.399351  0.150023  1.0
  H  H997  1  0.570972  0.977679  0.519102  1.0
  H  H998  1  0.929028  0.022321  0.019102  1.0
  H  H999  1  0.070972  0.522321  0.480898  1.0
  H  H1000  1  0.429028  0.477679  0.980898  1.0
  H  H1001  1  0.519102  0.570972  0.977679  1.0
  H  H1002  1  0.980898  0.429028  0.477679  1.0
  H  H1003  1  0.019102  0.929028  0.022321  1.0
  H  H1004  1  0.480898  0.070972  0.522321  1.0
  H  H1005  1  0.977679  0.519102  0.570972  1.0
  H  H1006  1  0.477679  0.980898  0.429028  1.0
  H  H1007  1  0.022321  0.019102  0.929028  1.0
  H  H1008  1  0.522321  0.480898  0.070972  1.0
  H  H1009  1  0.879871  0.951274  0.626445  1.0
  H  H1010  1  0.620129  0.048726  0.126445  1.0
  H  H1011  1  0.379871  0.548726  0.373555  1.0
  H  H1012  1  0.120129  0.451274  0.873555  1.0
  H  H1013  1  0.626445  0.879871  0.951274  1.0
  H  H1014  1  0.873555  0.120129  0.451274  1.0
  H  H1015  1  0.126445  0.620129  0.048726  1.0
  H  H1016  1  0.373555  0.379871  0.548726  1.0
  H  H1017  1  0.951274  0.626445  0.879871  1.0
  H  H1018  1  0.451274  0.873555  0.120129  1.0
  H  H1019  1  0.048726  0.126445  0.620129  1.0
  H  H1020  1  0.548726  0.373555  0.379871  1.0
  H  H1021  1  0.823677  0.987521  0.531368  1.0
  H  H1022  1  0.676323  0.012479  0.031368  1.0
  H  H1023  1  0.323677  0.512479  0.468632  1.0
  H  H1024  1  0.176323  0.487521  0.968632  1.0
  H  H1025  1  0.531368  0.823677  0.987521  1.0
  H  H1026  1  0.968632  0.176323  0.487521  1.0
  H  H1027  1  0.031368  0.676323  0.012479  1.0
  H  H1028  1  0.468632  0.323677  0.512479  1.0
  H  H1029  1  0.987521  0.531368  0.823677  1.0
  H  H1030  1  0.487521  0.968632  0.176323  1.0
  H  H1031  1  0.012479  0.031368  0.676323  1.0
  H  H1032  1  0.512479  0.468632  0.323677  1.0
  H  H1033  1  0.822628  0.051324  0.628968  1.0
  H  H1034  1  0.677372  0.948676  0.128968  1.0
  H  H1035  1  0.322628  0.448676  0.371032  1.0
  H  H1036  1  0.177372  0.551324  0.871032  1.0
  H  H1037  1  0.628968  0.822628  0.051324  1.0
  H  H1038  1  0.871032  0.177372  0.551324  1.0
  H  H1039  1  0.128968  0.677372  0.948676  1.0
  H  H1040  1  0.371032  0.322628  0.448676  1.0
  H  H1041  1  0.051324  0.628968  0.822628  1.0
  H  H1042  1  0.551324  0.871032  0.177372  1.0
  H  H1043  1  0.948676  0.128968  0.677372  1.0
  H  H1044  1  0.448676  0.371032  0.322628  1.0
  H  H1045  1  0.808859  0.922688  0.537341  1.0
  H  H1046  1  0.691141  0.077312  0.037341  1.0
  H  H1047  1  0.308859  0.577312  0.462659  1.0
  H  H1048  1  0.191141  0.422688  0.962659  1.0
  H  H1049  1  0.537341  0.808859  0.922688  1.0
  H  H1050  1  0.962659  0.191141  0.422688  1.0
  H  H1051  1  0.037341  0.691141  0.077312  1.0
  H  H1052  1  0.462659  0.308859  0.577312  1.0
  H  H1053  1  0.922688  0.537341  0.808859  1.0
  H  H1054  1  0.422688  0.962659  0.191141  1.0
  H  H1055  1  0.077312  0.037341  0.691141  1.0
  H  H1056  1  0.577312  0.462659  0.308859  1.0
  H  H1057  1  0.839122  0.923380  0.502780  1.0
  H  H1058  1  0.660878  0.076620  0.002780  1.0
  H  H1059  1  0.339122  0.576620  0.497220  1.0
  H  H1060  1  0.160878  0.423380  0.997220  1.0
  H  H1061  1  0.502780  0.839122  0.923380  1.0
  H  H1062  1  0.997220  0.160878  0.423380  1.0
  H  H1063  1  0.002780  0.660878  0.076620  1.0
  H  H1064  1  0.497220  0.339122  0.576620  1.0
  H  H1065  1  0.923380  0.502780  0.839122  1.0
  H  H1066  1  0.423380  0.997220  0.160878  1.0
  H  H1067  1  0.076620  0.002780  0.660878  1.0
  H  H1068  1  0.576620  0.497220  0.339122  1.0
  H  H1069  1  0.862388  0.861874  0.532984  1.0
  H  H1070  1  0.637612  0.138126  0.032984  1.0
  H  H1071  1  0.362388  0.638126  0.467016  1.0
  H  H1072  1  0.137612  0.361874  0.967016  1.0
  H  H1073  1  0.532984  0.862388  0.861874  1.0
  H  H1074  1  0.967016  0.137612  0.361874  1.0
  H  H1075  1  0.032984  0.637612  0.138126  1.0
  H  H1076  1  0.467016  0.362388  0.638126  1.0
  H  H1077  1  0.861874  0.532984  0.862388  1.0
  H  H1078  1  0.361874  0.967016  0.137612  1.0
  H  H1079  1  0.138126  0.032984  0.637612  1.0
  H  H1080  1  0.638126  0.467016  0.362388  1.0
  H  H1081  1  0.827211  0.861422  0.503450  1.0
  H  H1082  1  0.672789  0.138578  0.003450  1.0
  H  H1083  1  0.327211  0.638578  0.496550  1.0
  H  H1084  1  0.172789  0.361422  0.996550  1.0
  H  H1085  1  0.503450  0.827211  0.861422  1.0
  H  H1086  1  0.996550  0.172789  0.361422  1.0
  H  H1087  1  0.003450  0.672789  0.138578  1.0
  H  H1088  1  0.496550  0.327211  0.638578  1.0
  H  H1089  1  0.861422  0.503450  0.827211  1.0
  H  H1090  1  0.361422  0.996550  0.172789  1.0
  H  H1091  1  0.138578  0.003450  0.672789  1.0
  H  H1092  1  0.638578  0.496550  0.327211  1.0
  H  H1093  1  0.821624  0.826351  0.566255  1.0
  H  H1094  1  0.678376  0.173649  0.066255  1.0
  H  H1095  1  0.321624  0.673649  0.433745  1.0
  H  H1096  1  0.178376  0.326351  0.933745  1.0
  H  H1097  1  0.566255  0.821624  0.826351  1.0
  H  H1098  1  0.933745  0.178376  0.326351  1.0
  H  H1099  1  0.066255  0.678376  0.173649  1.0
  H  H1100  1  0.433745  0.321624  0.673649  1.0
  H  H1101  1  0.826351  0.566255  0.821624  1.0
  H  H1102  1  0.326351  0.933745  0.178376  1.0
  H  H1103  1  0.173649  0.066255  0.678376  1.0
  H  H1104  1  0.673649  0.433745  0.321624  1.0
  H  H1105  1  0.810589  0.867730  0.582896  1.0
  H  H1106  1  0.689411  0.132270  0.082896  1.0
  H  H1107  1  0.310589  0.632270  0.417104  1.0
  H  H1108  1  0.189411  0.367730  0.917104  1.0
  H  H1109  1  0.582896  0.810589  0.867730  1.0
  H  H1110  1  0.917104  0.189411  0.367730  1.0
  H  H1111  1  0.082896  0.689411  0.132270  1.0
  H  H1112  1  0.417104  0.310589  0.632270  1.0
  H  H1113  1  0.867730  0.582896  0.810589  1.0
  H  H1114  1  0.367730  0.917104  0.189411  1.0
  H  H1115  1  0.132270  0.082896  0.689411  1.0
  H  H1116  1  0.632270  0.417104  0.310589  1.0
  H  H1117  1  0.758418  0.870162  0.537716  1.0
  H  H1118  1  0.741582  0.129838  0.037716  1.0
  H  H1119  1  0.258418  0.629838  0.462284  1.0
  H  H1120  1  0.241582  0.370162  0.962284  1.0
  H  H1121  1  0.537716  0.758418  0.870162  1.0
  H  H1122  1  0.962284  0.241582  0.370162  1.0
  H  H1123  1  0.037716  0.741582  0.129838  1.0
  H  H1124  1  0.462284  0.258418  0.629838  1.0
  H  H1125  1  0.870162  0.537716  0.758418  1.0
  H  H1126  1  0.370162  0.962284  0.241582  1.0
  H  H1127  1  0.129838  0.037716  0.741582  1.0
  H  H1128  1  0.629838  0.462284  0.258418  1.0
  H  H1129  1  0.768407  0.827024  0.525512  1.0
  H  H1130  1  0.731593  0.172976  0.025512  1.0
  H  H1131  1  0.268407  0.672976  0.474488  1.0
  H  H1132  1  0.231593  0.327024  0.974488  1.0
  H  H1133  1  0.525512  0.768407  0.827024  1.0
  H  H1134  1  0.974488  0.231593  0.327024  1.0
  H  H1135  1  0.025512  0.731593  0.172976  1.0
  H  H1136  1  0.474488  0.268407  0.672976  1.0
  H  H1137  1  0.827024  0.525512  0.768407  1.0
  H  H1138  1  0.327024  0.974488  0.231593  1.0
  H  H1139  1  0.172976  0.025512  0.731593  1.0
  H  H1140  1  0.672976  0.474488  0.268407  1.0
  H  H1141  1  0.736698  0.803073  0.573297  1.0
  H  H1142  1  0.763302  0.196927  0.073297  1.0
  H  H1143  1  0.236698  0.696927  0.426703  1.0
  H  H1144  1  0.263302  0.303073  0.926703  1.0
  H  H1145  1  0.573297  0.736698  0.803073  1.0
  H  H1146  1  0.926703  0.263302  0.303073  1.0
  H  H1147  1  0.073297  0.763302  0.196927  1.0
  H  H1148  1  0.426703  0.236698  0.696927  1.0
  H  H1149  1  0.803073  0.573297  0.736698  1.0
  H  H1150  1  0.303073  0.926703  0.263302  1.0
  H  H1151  1  0.196927  0.073297  0.763302  1.0
  H  H1152  1  0.696927  0.426703  0.236698  1.0
  H  H1153  1  0.756368  0.831604  0.603435  1.0
  H  H1154  1  0.743632  0.168396  0.103435  1.0
  H  H1155  1  0.256368  0.668396  0.396565  1.0
  H  H1156  1  0.243632  0.331604  0.896565  1.0
  H  H1157  1  0.603435  0.756368  0.831604  1.0
  H  H1158  1  0.896565  0.243632  0.331604  1.0
  H  H1159  1  0.103435  0.743632  0.168396  1.0
  H  H1160  1  0.396565  0.256368  0.668396  1.0
  H  H1161  1  0.831604  0.603435  0.756368  1.0
  H  H1162  1  0.331604  0.896565  0.243632  1.0
  H  H1163  1  0.168396  0.103435  0.743632  1.0
  H  H1164  1  0.668396  0.396565  0.256368  1.0
  H  H1165  1  0.690939  0.850922  0.557987  1.0
  H  H1166  1  0.809061  0.149078  0.057987  1.0
  H  H1167  1  0.190939  0.649078  0.442013  1.0
  H  H1168  1  0.309061  0.350922  0.942013  1.0
  H  H1169  1  0.557987  0.690939  0.850922  1.0
  H  H1170  1  0.942013  0.309061  0.350922  1.0
  H  H1171  1  0.057987  0.809061  0.149078  1.0
  H  H1172  1  0.442013  0.190939  0.649078  1.0
  H  H1173  1  0.850922  0.557987  0.690939  1.0
  H  H1174  1  0.350922  0.942013  0.309061  1.0
  H  H1175  1  0.149078  0.057987  0.809061  1.0
  H  H1176  1  0.649078  0.442013  0.190939  1.0
  H  H1177  1  0.710541  0.879296  0.588314  1.0
  H  H1178  1  0.789459  0.120704  0.088314  1.0
  H  H1179  1  0.210541  0.620704  0.411686  1.0
  H  H1180  1  0.289459  0.379296  0.911686  1.0
  H  H1181  1  0.588314  0.710541  0.879296  1.0
  H  H1182  1  0.911686  0.289459  0.379296  1.0
  H  H1183  1  0.088314  0.789459  0.120704  1.0
  H  H1184  1  0.411686  0.210541  0.620704  1.0
  H  H1185  1  0.879296  0.588314  0.710541  1.0
  H  H1186  1  0.379296  0.911686  0.289459  1.0
  H  H1187  1  0.120704  0.088314  0.789459  1.0
  H  H1188  1  0.620704  0.411686  0.210541  1.0
  H  H1189  1  0.686926  0.847114  0.639233  1.0
  H  H1190  1  0.813074  0.152886  0.139233  1.0
  H  H1191  1  0.186926  0.652886  0.360767  1.0
  H  H1192  1  0.313074  0.347114  0.860767  1.0
  H  H1193  1  0.639233  0.686926  0.847114  1.0
  H  H1194  1  0.860767  0.313074  0.347114  1.0
  H  H1195  1  0.139233  0.813074  0.152886  1.0
  H  H1196  1  0.360767  0.186926  0.652886  1.0
  H  H1197  1  0.847114  0.639233  0.686926  1.0
  H  H1198  1  0.347114  0.860767  0.313074  1.0
  H  H1199  1  0.152886  0.139233  0.813074  1.0
  H  H1200  1  0.652886  0.360767  0.186926  1.0
  H  H1201  1  0.680546  0.808488  0.615171  1.0
  H  H1202  1  0.819454  0.191512  0.115171  1.0
  H  H1203  1  0.180546  0.691512  0.384829  1.0
  H  H1204  1  0.319454  0.308488  0.884829  1.0
  H  H1205  1  0.615171  0.680546  0.808488  1.0
  H  H1206  1  0.884829  0.319454  0.308488  1.0
  H  H1207  1  0.115171  0.819454  0.191512  1.0
  H  H1208  1  0.384829  0.180546  0.691512  1.0
  H  H1209  1  0.808488  0.615171  0.680546  1.0
  H  H1210  1  0.308488  0.884829  0.319454  1.0
  H  H1211  1  0.191512  0.115171  0.819454  1.0
  H  H1212  1  0.691512  0.384829  0.180546  1.0
  H  H1213  1  0.620841  0.836599  0.629755  1.0
  H  H1214  1  0.879159  0.163401  0.129755  1.0
  H  H1215  1  0.120841  0.663401  0.370245  1.0
  H  H1216  1  0.379159  0.336599  0.870245  1.0
  H  H1217  1  0.629755  0.620841  0.836599  1.0
  H  H1218  1  0.870245  0.379159  0.336599  1.0
  H  H1219  1  0.129755  0.879159  0.163401  1.0
  H  H1220  1  0.370245  0.120841  0.663401  1.0
  H  H1221  1  0.836599  0.629755  0.620841  1.0
  H  H1222  1  0.336599  0.870245  0.379159  1.0
  H  H1223  1  0.163401  0.129755  0.879159  1.0
  H  H1224  1  0.663401  0.370245  0.120841  1.0
  H  H1225  1  0.633276  0.875331  0.608230  1.0
  H  H1226  1  0.866724  0.124669  0.108230  1.0
  H  H1227  1  0.133276  0.624669  0.391770  1.0
  H  H1228  1  0.366724  0.375331  0.891770  1.0
  H  H1229  1  0.608230  0.633276  0.875331  1.0
  H  H1230  1  0.891770  0.366724  0.375331  1.0
  H  H1231  1  0.108230  0.866724  0.124669  1.0
  H  H1232  1  0.391770  0.133276  0.624669  1.0
  H  H1233  1  0.875331  0.608230  0.633276  1.0
  H  H1234  1  0.375331  0.891770  0.366724  1.0
  H  H1235  1  0.124669  0.108230  0.866724  1.0
  H  H1236  1  0.624669  0.391770  0.133276  1.0
  H  H1237  1  0.626886  0.836646  0.584131  1.0
  H  H1238  1  0.873114  0.163354  0.084131  1.0
  H  H1239  1  0.126886  0.663354  0.415869  1.0
  H  H1240  1  0.373114  0.336646  0.915869  1.0
  H  H1241  1  0.584131  0.626886  0.836646  1.0
  H  H1242  1  0.915869  0.373114  0.336646  1.0
  H  H1243  1  0.084131  0.873114  0.163354  1.0
  H  H1244  1  0.415869  0.126886  0.663354  1.0
  H  H1245  1  0.836646  0.584131  0.626886  1.0
  H  H1246  1  0.336646  0.915869  0.373114  1.0
  H  H1247  1  0.163354  0.084131  0.873114  1.0
  H  H1248  1  0.663354  0.415869  0.126886  1.0
  C  C1249  1  0.498300  0.143000  0.725900  1.0
  C  C1250  1  0.001700  0.857000  0.225900  1.0
  C  C1251  1  0.998300  0.357000  0.274100  1.0
  C  C1252  1  0.501700  0.643000  0.774100  1.0
  C  C1253  1  0.725900  0.498300  0.143000  1.0
  C  C1254  1  0.774100  0.501700  0.643000  1.0
  C  C1255  1  0.225900  0.001700  0.857000  1.0
  C  C1256  1  0.274100  0.998300  0.357000  1.0
  C  C1257  1  0.143000  0.725900  0.498300  1.0
  C  C1258  1  0.643000  0.774100  0.501700  1.0
  C  C1259  1  0.857000  0.225900  0.001700  1.0
  C  C1260  1  0.357000  0.274100  0.998300  1.0
  C  C1261  1  0.476100  0.159900  0.757100  1.0
  C  C1262  1  0.023900  0.840100  0.257100  1.0
  C  C1263  1  0.976100  0.340100  0.242900  1.0
  C  C1264  1  0.523900  0.659900  0.742900  1.0
  C  C1265  1  0.757100  0.476100  0.159900  1.0
  C  C1266  1  0.742900  0.523900  0.659900  1.0
  C  C1267  1  0.257100  0.023900  0.840100  1.0
  C  C1268  1  0.242900  0.976100  0.340100  1.0
  C  C1269  1  0.159900  0.757100  0.476100  1.0
  C  C1270  1  0.659900  0.742900  0.523900  1.0
  C  C1271  1  0.840100  0.257100  0.023900  1.0
  C  C1272  1  0.340100  0.242900  0.976100  1.0
  C  C1273  1  0.437200  0.151600  0.761500  1.0
  C  C1274  1  0.062800  0.848400  0.261500  1.0
  C  C1275  1  0.937200  0.348400  0.238500  1.0
  C  C1276  1  0.562800  0.651600  0.738500  1.0
  C  C1277  1  0.761500  0.437200  0.151600  1.0
  C  C1278  1  0.738500  0.562800  0.651600  1.0
  C  C1279  1  0.261500  0.062800  0.848400  1.0
  C  C1280  1  0.238500  0.937200  0.348400  1.0
  C  C1281  1  0.151600  0.761500  0.437200  1.0
  C  C1282  1  0.651600  0.738500  0.562800  1.0
  C  C1283  1  0.848400  0.261500  0.062800  1.0
  C  C1284  1  0.348400  0.238500  0.937200  1.0
  C  C1285  1  0.417200  0.167100  0.790000  1.0
  C  C1286  1  0.082800  0.832900  0.290000  1.0
  C  C1287  1  0.917200  0.332900  0.210000  1.0
  C  C1288  1  0.582800  0.667100  0.710000  1.0
  C  C1289  1  0.790000  0.417200  0.167100  1.0
  C  C1290  1  0.710000  0.582800  0.667100  1.0
  C  C1291  1  0.290000  0.082800  0.832900  1.0
  C  C1292  1  0.210000  0.917200  0.332900  1.0
  C  C1293  1  0.167100  0.790000  0.417200  1.0
  C  C1294  1  0.667100  0.710000  0.582800  1.0
  C  C1295  1  0.832900  0.290000  0.082800  1.0
  C  C1296  1  0.332900  0.210000  0.917200  1.0
  C  C1297  1  0.433200  0.191600  0.816000  1.0
  C  C1298  1  0.066800  0.808400  0.316000  1.0
  C  C1299  1  0.933200  0.308400  0.184000  1.0
  C  C1300  1  0.566800  0.691600  0.684000  1.0
  C  C1301  1  0.816000  0.433200  0.191600  1.0
  C  C1302  1  0.684000  0.566800  0.691600  1.0
  C  C1303  1  0.316000  0.066800  0.808400  1.0
  C  C1304  1  0.184000  0.933200  0.308400  1.0
  C  C1305  1  0.191600  0.816000  0.433200  1.0
  C  C1306  1  0.691600  0.684000  0.566800  1.0
  C  C1307  1  0.808400  0.316000  0.066800  1.0
  C  C1308  1  0.308400  0.184000  0.933200  1.0
  C  C1309  1  0.473500  0.200500  0.811700  1.0
  C  C1310  1  0.026500  0.799500  0.311700  1.0
  C  C1311  1  0.973500  0.299500  0.188300  1.0
  C  C1312  1  0.526500  0.700500  0.688300  1.0
  C  C1313  1  0.811700  0.473500  0.200500  1.0
  C  C1314  1  0.688300  0.526500  0.700500  1.0
  C  C1315  1  0.311700  0.026500  0.799500  1.0
  C  C1316  1  0.188300  0.973500  0.299500  1.0
  C  C1317  1  0.200500  0.811700  0.473500  1.0
  C  C1318  1  0.700500  0.688300  0.526500  1.0
  C  C1319  1  0.799500  0.311700  0.026500  1.0
  C  C1320  1  0.299500  0.188300  0.973500  1.0
  C  C1321  1  0.496200  0.185200  0.782400  1.0
  C  C1322  1  0.003800  0.814800  0.282400  1.0
  C  C1323  1  0.996200  0.314800  0.217600  1.0
  C  C1324  1  0.503800  0.685200  0.717600  1.0
  C  C1325  1  0.782400  0.496200  0.185200  1.0
  C  C1326  1  0.717600  0.503800  0.685200  1.0
  C  C1327  1  0.282400  0.003800  0.814800  1.0
  C  C1328  1  0.217600  0.996200  0.314800  1.0
  C  C1329  1  0.185200  0.782400  0.496200  1.0
  C  C1330  1  0.685200  0.717600  0.503800  1.0
  C  C1331  1  0.814800  0.282400  0.003800  1.0
  C  C1332  1  0.314800  0.217600  0.996200  1.0
  C  C1333  1  0.490500  0.226600  0.839400  1.0
  C  C1334  1  0.009500  0.773400  0.339400  1.0
  C  C1335  1  0.990500  0.273400  0.160600  1.0
  C  C1336  1  0.509500  0.726600  0.660600  1.0
  C  C1337  1  0.839400  0.490500  0.226600  1.0
  C  C1338  1  0.660600  0.509500  0.726600  1.0
  C  C1339  1  0.339400  0.009500  0.773400  1.0
  C  C1340  1  0.160600  0.990500  0.273400  1.0
  C  C1341  1  0.226600  0.839400  0.490500  1.0
  C  C1342  1  0.726600  0.660600  0.509500  1.0
  C  C1343  1  0.773400  0.339400  0.009500  1.0
  C  C1344  1  0.273400  0.160600  0.990500  1.0
  C  C1345  1  0.673700  0.365500  0.994900  1.0
  C  C1346  1  0.826300  0.634500  0.494900  1.0
  C  C1347  1  0.173700  0.134500  0.005100  1.0
  C  C1348  1  0.326300  0.865500  0.505100  1.0
  C  C1349  1  0.994900  0.673700  0.365500  1.0
  C  C1350  1  0.505100  0.326300  0.865500  1.0
  C  C1351  1  0.494900  0.826300  0.634500  1.0
  C  C1352  1  0.005100  0.173700  0.134500  1.0
  C  C1353  1  0.365500  0.994900  0.673700  1.0
  C  C1354  1  0.865500  0.505100  0.326300  1.0
  C  C1355  1  0.634500  0.494900  0.826300  1.0
  C  C1356  1  0.134500  0.005100  0.173700  1.0
  C  C1357  1  0.634300  0.353800  0.002800  1.0
  C  C1358  1  0.865700  0.646200  0.502800  1.0
  C  C1359  1  0.134300  0.146200  0.997200  1.0
  C  C1360  1  0.365700  0.853800  0.497200  1.0
  C  C1361  1  0.002800  0.634300  0.353800  1.0
  C  C1362  1  0.497200  0.365700  0.853800  1.0
  C  C1363  1  0.502800  0.865700  0.646200  1.0
  C  C1364  1  0.997200  0.134300  0.146200  1.0
  C  C1365  1  0.353800  0.002800  0.634300  1.0
  C  C1366  1  0.853800  0.497200  0.365700  1.0
  C  C1367  1  0.646200  0.502800  0.865700  1.0
  C  C1368  1  0.146200  0.997200  0.134300  1.0
  C  C1369  1  0.616300  0.362000  0.037700  1.0
  C  C1370  1  0.883700  0.638000  0.537700  1.0
  C  C1371  1  0.116300  0.138000  0.962300  1.0
  C  C1372  1  0.383700  0.862000  0.462300  1.0
  C  C1373  1  0.037700  0.616300  0.362000  1.0
  C  C1374  1  0.462300  0.383700  0.862000  1.0
  C  C1375  1  0.537700  0.883700  0.638000  1.0
  C  C1376  1  0.962300  0.116300  0.138000  1.0
  C  C1377  1  0.362000  0.037700  0.616300  1.0
  C  C1378  1  0.862000  0.462300  0.383700  1.0
  C  C1379  1  0.638000  0.537700  0.883700  1.0
  C  C1380  1  0.138000  0.962300  0.116300  1.0
  C  C1381  1  0.578700  0.348900  0.041100  1.0
  C  C1382  1  0.921300  0.651100  0.541100  1.0
  C  C1383  1  0.078700  0.151100  0.958900  1.0
  C  C1384  1  0.421300  0.848900  0.458900  1.0
  C  C1385  1  0.041100  0.578700  0.348900  1.0
  C  C1386  1  0.458900  0.421300  0.848900  1.0
  C  C1387  1  0.541100  0.921300  0.651100  1.0
  C  C1388  1  0.958900  0.078700  0.151100  1.0
  C  C1389  1  0.348900  0.041100  0.578700  1.0
  C  C1390  1  0.848900  0.458900  0.421300  1.0
  C  C1391  1  0.651100  0.541100  0.921300  1.0
  C  C1392  1  0.151100  0.958900  0.078700  1.0
  C  C1393  1  0.558900  0.329000  0.012800  1.0
  C  C1394  1  0.941100  0.671000  0.512800  1.0
  C  C1395  1  0.058900  0.171000  0.987200  1.0
  C  C1396  1  0.441100  0.829000  0.487200  1.0
  C  C1397  1  0.012800  0.558900  0.329000  1.0
  C  C1398  1  0.487200  0.441100  0.829000  1.0
  C  C1399  1  0.512800  0.941100  0.671000  1.0
  C  C1400  1  0.987200  0.058900  0.171000  1.0
  C  C1401  1  0.329000  0.012800  0.558900  1.0
  C  C1402  1  0.829000  0.487200  0.441100  1.0
  C  C1403  1  0.671000  0.512800  0.941100  1.0
  C  C1404  1  0.171000  0.987200  0.058900  1.0
  C  C1405  1  0.575400  0.320500  0.978600  1.0
  C  C1406  1  0.924600  0.679500  0.478600  1.0
  C  C1407  1  0.075400  0.179500  0.021400  1.0
  C  C1408  1  0.424600  0.820500  0.521400  1.0
  C  C1409  1  0.978600  0.575400  0.320500  1.0
  C  C1410  1  0.521400  0.424600  0.820500  1.0
  C  C1411  1  0.478600  0.924600  0.679500  1.0
  C  C1412  1  0.021400  0.075400  0.179500  1.0
  C  C1413  1  0.320500  0.978600  0.575400  1.0
  C  C1414  1  0.820500  0.521400  0.424600  1.0
  C  C1415  1  0.679500  0.478600  0.924600  1.0
  C  C1416  1  0.179500  0.021400  0.075400  1.0
  C  C1417  1  0.615700  0.333400  0.972400  1.0
  C  C1418  1  0.884300  0.666600  0.472400  1.0
  C  C1419  1  0.115700  0.166600  0.027600  1.0
  C  C1420  1  0.384300  0.833400  0.527600  1.0
  C  C1421  1  0.972400  0.615700  0.333400  1.0
  C  C1422  1  0.527600  0.384300  0.833400  1.0
  C  C1423  1  0.472400  0.884300  0.666600  1.0
  C  C1424  1  0.027600  0.115700  0.166600  1.0
  C  C1425  1  0.333400  0.972400  0.615700  1.0
  C  C1426  1  0.833400  0.527600  0.384300  1.0
  C  C1427  1  0.666600  0.472400  0.884300  1.0
  C  C1428  1  0.166600  0.027600  0.115700  1.0
  C  C1429  1  0.558700  0.300100  0.946400  1.0
  C  C1430  1  0.941300  0.699900  0.446400  1.0
  C  C1431  1  0.058700  0.199900  0.053600  1.0
  C  C1432  1  0.441300  0.800100  0.553600  1.0
  C  C1433  1  0.946400  0.558700  0.300100  1.0
  C  C1434  1  0.553600  0.441300  0.800100  1.0
  C  C1435  1  0.446400  0.941300  0.699900  1.0
  C  C1436  1  0.053600  0.058700  0.199900  1.0
  C  C1437  1  0.300100  0.946400  0.558700  1.0
  C  C1438  1  0.800100  0.553600  0.441300  1.0
  C  C1439  1  0.699900  0.446400  0.941300  1.0
  C  C1440  1  0.199900  0.053600  0.058700  1.0
  C  C1441  1  0.536200  0.330800  0.098200  1.0
  C  C1442  1  0.963800  0.669200  0.598200  1.0
  C  C1443  1  0.036200  0.169200  0.901800  1.0
  C  C1444  1  0.463800  0.830800  0.401800  1.0
  C  C1445  1  0.098200  0.536200  0.330800  1.0
  C  C1446  1  0.401800  0.463800  0.830800  1.0
  C  C1447  1  0.598200  0.963800  0.669200  1.0
  C  C1448  1  0.901800  0.036200  0.169200  1.0
  C  C1449  1  0.330800  0.098200  0.536200  1.0
  C  C1450  1  0.830800  0.401800  0.463800  1.0
  C  C1451  1  0.669200  0.598200  0.963800  1.0
  C  C1452  1  0.169200  0.901800  0.036200  1.0
  C  C1453  1  0.552600  0.313500  0.134800  1.0
  C  C1454  1  0.947400  0.686500  0.634800  1.0
  C  C1455  1  0.052600  0.186500  0.865200  1.0
  C  C1456  1  0.447400  0.813500  0.365200  1.0
  C  C1457  1  0.134800  0.552600  0.313500  1.0
  C  C1458  1  0.365200  0.447400  0.813500  1.0
  C  C1459  1  0.634800  0.947400  0.686500  1.0
  C  C1460  1  0.865200  0.052600  0.186500  1.0
  C  C1461  1  0.313500  0.134800  0.552600  1.0
  C  C1462  1  0.813500  0.365200  0.447400  1.0
  C  C1463  1  0.686500  0.634800  0.947400  1.0
  C  C1464  1  0.186500  0.865200  0.052600  1.0
  C  C1465  1  0.549300  0.270200  0.138200  1.0
  C  C1466  1  0.950700  0.729800  0.638200  1.0
  C  C1467  1  0.049300  0.229800  0.861800  1.0
  C  C1468  1  0.450700  0.770200  0.361800  1.0
  C  C1469  1  0.138200  0.549300  0.270200  1.0
  C  C1470  1  0.361800  0.450700  0.770200  1.0
  C  C1471  1  0.638200  0.950700  0.729800  1.0
  C  C1472  1  0.861800  0.049300  0.229800  1.0
  C  C1473  1  0.270200  0.138200  0.549300  1.0
  C  C1474  1  0.770200  0.361800  0.450700  1.0
  C  C1475  1  0.729800  0.638200  0.950700  1.0
  C  C1476  1  0.229800  0.861800  0.049300  1.0
  C  C1477  1  0.587000  0.249000  0.143700  1.0
  C  C1478  1  0.913000  0.751000  0.643700  1.0
  C  C1479  1  0.087000  0.251000  0.856300  1.0
  C  C1480  1  0.413000  0.749000  0.356300  1.0
  C  C1481  1  0.143700  0.587000  0.249000  1.0
  C  C1482  1  0.356300  0.413000  0.749000  1.0
  C  C1483  1  0.643700  0.913000  0.751000  1.0
  C  C1484  1  0.856300  0.087000  0.251000  1.0
  C  C1485  1  0.249000  0.143700  0.587000  1.0
  C  C1486  1  0.749000  0.356300  0.413000  1.0
  C  C1487  1  0.751000  0.643700  0.913000  1.0
  C  C1488  1  0.251000  0.856300  0.087000  1.0
  C  C1489  1  0.585700  0.216000  0.172300  1.0
  C  C1490  1  0.914300  0.784000  0.672300  1.0
  C  C1491  1  0.085700  0.284000  0.827700  1.0
  C  C1492  1  0.414300  0.716000  0.327700  1.0
  C  C1493  1  0.172300  0.585700  0.216000  1.0
  C  C1494  1  0.327700  0.414300  0.716000  1.0
  C  C1495  1  0.672300  0.914300  0.784000  1.0
  C  C1496  1  0.827700  0.085700  0.284000  1.0
  C  C1497  1  0.216000  0.172300  0.585700  1.0
  C  C1498  1  0.716000  0.327700  0.414300  1.0
  C  C1499  1  0.784000  0.672300  0.914300  1.0
  C  C1500  1  0.284000  0.827700  0.085700  1.0
  C  C1501  1  0.589900  0.176300  0.154900  1.0
  C  C1502  1  0.910100  0.823700  0.654900  1.0
  C  C1503  1  0.089900  0.323700  0.845100  1.0
  C  C1504  1  0.410100  0.676300  0.345100  1.0
  C  C1505  1  0.154900  0.589900  0.176300  1.0
  C  C1506  1  0.345100  0.410100  0.676300  1.0
  C  C1507  1  0.654900  0.910100  0.823700  1.0
  C  C1508  1  0.845100  0.089900  0.323700  1.0
  C  C1509  1  0.176300  0.154900  0.589900  1.0
  C  C1510  1  0.676300  0.345100  0.410100  1.0
  C  C1511  1  0.823700  0.654900  0.910100  1.0
  C  C1512  1  0.323700  0.845100  0.089900  1.0
  C  C1513  1  0.618000  0.149900  0.175400  1.0
  C  C1514  1  0.882000  0.850100  0.675400  1.0
  C  C1515  1  0.118000  0.350100  0.824600  1.0
  C  C1516  1  0.382000  0.649900  0.324600  1.0
  C  C1517  1  0.175400  0.618000  0.149900  1.0
  C  C1518  1  0.324600  0.382000  0.649900  1.0
  C  C1519  1  0.675400  0.882000  0.850100  1.0
  C  C1520  1  0.824600  0.118000  0.350100  1.0
  C  C1521  1  0.149900  0.175400  0.618000  1.0
  C  C1522  1  0.649900  0.324600  0.382000  1.0
  C  C1523  1  0.850100  0.675400  0.882000  1.0
  C  C1524  1  0.350100  0.824600  0.118000  1.0
  C  C1525  1  0.641500  0.124100  0.149100  1.0
  C  C1526  1  0.858500  0.875900  0.649100  1.0
  C  C1527  1  0.141500  0.375900  0.850900  1.0
  C  C1528  1  0.358500  0.624100  0.350900  1.0
  C  C1529  1  0.149100  0.641500  0.124100  1.0
  C  C1530  1  0.350900  0.358500  0.624100  1.0
  C  C1531  1  0.649100  0.858500  0.875900  1.0
  C  C1532  1  0.850900  0.141500  0.375900  1.0
  C  C1533  1  0.124100  0.149100  0.641500  1.0
  C  C1534  1  0.624100  0.350900  0.358500  1.0
  C  C1535  1  0.875900  0.649100  0.858500  1.0
  C  C1536  1  0.375900  0.850900  0.141500  1.0
  C  C1537  1  0.630300  0.085800  0.930300  1.0
  C  C1538  1  0.869700  0.914200  0.430300  1.0
  C  C1539  1  0.130300  0.414200  0.069700  1.0
  C  C1540  1  0.369700  0.585800  0.569700  1.0
  C  C1541  1  0.930300  0.630300  0.085800  1.0
  C  C1542  1  0.569700  0.369700  0.585800  1.0
  C  C1543  1  0.430300  0.869700  0.914200  1.0
  C  C1544  1  0.069700  0.130300  0.414200  1.0
  C  C1545  1  0.085800  0.930300  0.630300  1.0
  C  C1546  1  0.585800  0.569700  0.369700  1.0
  C  C1547  1  0.914200  0.430300  0.869700  1.0
  C  C1548  1  0.414200  0.069700  0.130300  1.0
  C  C1549  1  0.598000  0.107800  0.945200  1.0
  C  C1550  1  0.902000  0.892200  0.445200  1.0
  C  C1551  1  0.098000  0.392200  0.054800  1.0
  C  C1552  1  0.402000  0.607800  0.554800  1.0
  C  C1553  1  0.945200  0.598000  0.107800  1.0
  C  C1554  1  0.554800  0.402000  0.607800  1.0
  C  C1555  1  0.445200  0.902000  0.892200  1.0
  C  C1556  1  0.054800  0.098000  0.392200  1.0
  C  C1557  1  0.107800  0.945200  0.598000  1.0
  C  C1558  1  0.607800  0.554800  0.402000  1.0
  C  C1559  1  0.892200  0.445200  0.902000  1.0
  C  C1560  1  0.392200  0.054800  0.098000  1.0
  C  C1561  1  0.578200  0.094000  0.975200  1.0
  C  C1562  1  0.921800  0.906000  0.475200  1.0
  C  C1563  1  0.078200  0.406000  0.024800  1.0
  C  C1564  1  0.421800  0.594000  0.524800  1.0
  C  C1565  1  0.975200  0.578200  0.094000  1.0
  C  C1566  1  0.524800  0.421800  0.594000  1.0
  C  C1567  1  0.475200  0.921800  0.906000  1.0
  C  C1568  1  0.024800  0.078200  0.406000  1.0
  C  C1569  1  0.094000  0.975200  0.578200  1.0
  C  C1570  1  0.594000  0.524800  0.421800  1.0
  C  C1571  1  0.906000  0.475200  0.921800  1.0
  C  C1572  1  0.406000  0.024800  0.078200  1.0
  C  C1573  1  0.546800  0.116900  0.988600  1.0
  C  C1574  1  0.953200  0.883100  0.488600  1.0
  C  C1575  1  0.046800  0.383100  0.011400  1.0
  C  C1576  1  0.453200  0.616900  0.511400  1.0
  C  C1577  1  0.988600  0.546800  0.116900  1.0
  C  C1578  1  0.511400  0.453200  0.616900  1.0
  C  C1579  1  0.488600  0.953200  0.883100  1.0
  C  C1580  1  0.011400  0.046800  0.383100  1.0
  C  C1581  1  0.116900  0.988600  0.546800  1.0
  C  C1582  1  0.616900  0.511400  0.453200  1.0
  C  C1583  1  0.883100  0.488600  0.953200  1.0
  C  C1584  1  0.383100  0.011400  0.046800  1.0
  C  C1585  1  0.538200  0.149800  0.971900  1.0
  C  C1586  1  0.961800  0.850200  0.471900  1.0
  C  C1587  1  0.038200  0.350200  0.028100  1.0
  C  C1588  1  0.461800  0.649800  0.528100  1.0
  C  C1589  1  0.971900  0.538200  0.149800  1.0
  C  C1590  1  0.528100  0.461800  0.649800  1.0
  C  C1591  1  0.471900  0.961800  0.850200  1.0
  C  C1592  1  0.028100  0.038200  0.350200  1.0
  C  C1593  1  0.149800  0.971900  0.538200  1.0
  C  C1594  1  0.649800  0.528100  0.461800  1.0
  C  C1595  1  0.850200  0.471900  0.961800  1.0
  C  C1596  1  0.350200  0.028100  0.038200  1.0
  C  C1597  1  0.557400  0.163200  0.942800  1.0
  C  C1598  1  0.942600  0.836800  0.442800  1.0
  C  C1599  1  0.057400  0.336800  0.057200  1.0
  C  C1600  1  0.442600  0.663200  0.557200  1.0
  C  C1601  1  0.942800  0.557400  0.163200  1.0
  C  C1602  1  0.557200  0.442600  0.663200  1.0
  C  C1603  1  0.442800  0.942600  0.836800  1.0
  C  C1604  1  0.057200  0.057400  0.336800  1.0
  C  C1605  1  0.163200  0.942800  0.557400  1.0
  C  C1606  1  0.663200  0.557200  0.442600  1.0
  C  C1607  1  0.836800  0.442800  0.942600  1.0
  C  C1608  1  0.336800  0.057200  0.057400  1.0
  C  C1609  1  0.589800  0.142200  0.927000  1.0
  C  C1610  1  0.910200  0.857800  0.427000  1.0
  C  C1611  1  0.089800  0.357800  0.073000  1.0
  C  C1612  1  0.410200  0.642200  0.573000  1.0
  C  C1613  1  0.927000  0.589800  0.142200  1.0
  C  C1614  1  0.573000  0.410200  0.642200  1.0
  C  C1615  1  0.427000  0.910200  0.857800  1.0
  C  C1616  1  0.073000  0.089800  0.357800  1.0
  C  C1617  1  0.142200  0.927000  0.589800  1.0
  C  C1618  1  0.642200  0.573000  0.410200  1.0
  C  C1619  1  0.857800  0.427000  0.910200  1.0
  C  C1620  1  0.357800  0.073000  0.089800  1.0
  C  C1621  1  0.548800  0.199500  0.923600  1.0
  C  C1622  1  0.951200  0.800500  0.423600  1.0
  C  C1623  1  0.048800  0.300500  0.076400  1.0
  C  C1624  1  0.451200  0.699500  0.576400  1.0
  C  C1625  1  0.923600  0.548800  0.199500  1.0
  C  C1626  1  0.576400  0.451200  0.699500  1.0
  C  C1627  1  0.423600  0.951200  0.800500  1.0
  C  C1628  1  0.076400  0.048800  0.300500  1.0
  C  C1629  1  0.199500  0.923600  0.548800  1.0
  C  C1630  1  0.699500  0.576400  0.451200  1.0
  C  C1631  1  0.800500  0.423600  0.951200  1.0
  C  C1632  1  0.300500  0.076400  0.048800  1.0
  C  C1633  1  0.627500  0.022700  0.847100  1.0
  C  C1634  1  0.872500  0.977300  0.347100  1.0
  C  C1635  1  0.127500  0.477300  0.152900  1.0
  C  C1636  1  0.372500  0.522700  0.652900  1.0
  C  C1637  1  0.847100  0.627500  0.022700  1.0
  C  C1638  1  0.652900  0.372500  0.522700  1.0
  C  C1639  1  0.347100  0.872500  0.977300  1.0
  C  C1640  1  0.152900  0.127500  0.477300  1.0
  C  C1641  1  0.022700  0.847100  0.627500  1.0
  C  C1642  1  0.522700  0.652900  0.372500  1.0
  C  C1643  1  0.977300  0.347100  0.872500  1.0
  C  C1644  1  0.477300  0.152900  0.127500  1.0
  C  C1645  1  0.599000  0.011300  0.818700  1.0
  C  C1646  1  0.901000  0.988700  0.318700  1.0
  C  C1647  1  0.099000  0.488700  0.181300  1.0
  C  C1648  1  0.401000  0.511300  0.681300  1.0
  C  C1649  1  0.818700  0.599000  0.011300  1.0
  C  C1650  1  0.681300  0.401000  0.511300  1.0
  C  C1651  1  0.318700  0.901000  0.988700  1.0
  C  C1652  1  0.181300  0.099000  0.488700  1.0
  C  C1653  1  0.011300  0.818700  0.599000  1.0
  C  C1654  1  0.511300  0.681300  0.401000  1.0
  C  C1655  1  0.988700  0.318700  0.901000  1.0
  C  C1656  1  0.488700  0.181300  0.099000  1.0
  C  C1657  1  0.579600  0.976000  0.822100  1.0
  C  C1658  1  0.920400  0.024000  0.322100  1.0
  C  C1659  1  0.079600  0.524000  0.177900  1.0
  C  C1660  1  0.420400  0.476000  0.677900  1.0
  C  C1661  1  0.822100  0.579600  0.976000  1.0
  C  C1662  1  0.677900  0.420400  0.476000  1.0
  C  C1663  1  0.322100  0.920400  0.024000  1.0
  C  C1664  1  0.177900  0.079600  0.524000  1.0
  C  C1665  1  0.976000  0.822100  0.579600  1.0
  C  C1666  1  0.476000  0.677900  0.420400  1.0
  C  C1667  1  0.024000  0.322100  0.920400  1.0
  C  C1668  1  0.524000  0.177900  0.079600  1.0
  C  C1669  1  0.552100  0.967500  0.792700  1.0
  C  C1670  1  0.947900  0.032500  0.292700  1.0
  C  C1671  1  0.052100  0.532500  0.207300  1.0
  C  C1672  1  0.447900  0.467500  0.707300  1.0
  C  C1673  1  0.792700  0.552100  0.967500  1.0
  C  C1674  1  0.707300  0.447900  0.467500  1.0
  C  C1675  1  0.292700  0.947900  0.032500  1.0
  C  C1676  1  0.207300  0.052100  0.532500  1.0
  C  C1677  1  0.967500  0.792700  0.552100  1.0
  C  C1678  1  0.467500  0.707300  0.447900  1.0
  C  C1679  1  0.032500  0.292700  0.947900  1.0
  C  C1680  1  0.532500  0.207300  0.052100  1.0
  C  C1681  1  0.545500  0.992700  0.763000  1.0
  C  C1682  1  0.954500  0.007300  0.263000  1.0
  C  C1683  1  0.045500  0.507300  0.237000  1.0
  C  C1684  1  0.454500  0.492700  0.737000  1.0
  C  C1685  1  0.763000  0.545500  0.992700  1.0
  C  C1686  1  0.737000  0.454500  0.492700  1.0
  C  C1687  1  0.263000  0.954500  0.007300  1.0
  C  C1688  1  0.237000  0.045500  0.507300  1.0
  C  C1689  1  0.992700  0.763000  0.545500  1.0
  C  C1690  1  0.492700  0.737000  0.454500  1.0
  C  C1691  1  0.007300  0.263000  0.954500  1.0
  C  C1692  1  0.507300  0.237000  0.045500  1.0
  C  C1693  1  0.564700  0.026100  0.760700  1.0
  C  C1694  1  0.935300  0.973900  0.260700  1.0
  C  C1695  1  0.064700  0.473900  0.239300  1.0
  C  C1696  1  0.435300  0.526100  0.739300  1.0
  C  C1697  1  0.760700  0.564700  0.026100  1.0
  C  C1698  1  0.739300  0.435300  0.526100  1.0
  C  C1699  1  0.260700  0.935300  0.973900  1.0
  C  C1700  1  0.239300  0.064700  0.473900  1.0
  C  C1701  1  0.026100  0.760700  0.564700  1.0
  C  C1702  1  0.526100  0.739300  0.435300  1.0
  C  C1703  1  0.973900  0.260700  0.935300  1.0
  C  C1704  1  0.473900  0.239300  0.064700  1.0
  C  C1705  1  0.591800  0.038300  0.786600  1.0
  C  C1706  1  0.908200  0.961700  0.286600  1.0
  C  C1707  1  0.091800  0.461700  0.213400  1.0
  C  C1708  1  0.408200  0.538300  0.713400  1.0
  C  C1709  1  0.786600  0.591800  0.038300  1.0
  C  C1710  1  0.713400  0.408200  0.538300  1.0
  C  C1711  1  0.286600  0.908200  0.961700  1.0
  C  C1712  1  0.213400  0.091800  0.461700  1.0
  C  C1713  1  0.038300  0.786600  0.591800  1.0
  C  C1714  1  0.538300  0.713400  0.408200  1.0
  C  C1715  1  0.961700  0.286600  0.908200  1.0
  C  C1716  1  0.461700  0.213400  0.091800  1.0
  C  C1717  1  0.557000  0.052200  0.728800  1.0
  C  C1718  1  0.943000  0.947800  0.228800  1.0
  C  C1719  1  0.057000  0.447800  0.271200  1.0
  C  C1720  1  0.443000  0.552200  0.771200  1.0
  C  C1721  1  0.728800  0.557000  0.052200  1.0
  C  C1722  1  0.771200  0.443000  0.552200  1.0
  C  C1723  1  0.228800  0.943000  0.947800  1.0
  C  C1724  1  0.271200  0.057000  0.447800  1.0
  C  C1725  1  0.052200  0.728800  0.557000  1.0
  C  C1726  1  0.552200  0.771200  0.443000  1.0
  C  C1727  1  0.947800  0.228800  0.943000  1.0
  C  C1728  1  0.447800  0.271200  0.057000  1.0
  C  C1729  1  0.549800  0.895300  0.806900  1.0
  C  C1730  1  0.950200  0.104700  0.306900  1.0
  C  C1731  1  0.049800  0.604700  0.193100  1.0
  C  C1732  1  0.450200  0.395300  0.693100  1.0
  C  C1733  1  0.806900  0.549800  0.895300  1.0
  C  C1734  1  0.693100  0.450200  0.395300  1.0
  C  C1735  1  0.306900  0.950200  0.104700  1.0
  C  C1736  1  0.193100  0.049800  0.604700  1.0
  C  C1737  1  0.895300  0.806900  0.549800  1.0
  C  C1738  1  0.395300  0.693100  0.450200  1.0
  C  C1739  1  0.104700  0.306900  0.950200  1.0
  C  C1740  1  0.604700  0.193100  0.049800  1.0
  C  C1741  1  0.532900  0.858900  0.789400  1.0
  C  C1742  1  0.967100  0.141100  0.289400  1.0
  C  C1743  1  0.032900  0.641100  0.210600  1.0
  C  C1744  1  0.467100  0.358900  0.710600  1.0
  C  C1745  1  0.789400  0.532900  0.858900  1.0
  C  C1746  1  0.710600  0.467100  0.358900  1.0
  C  C1747  1  0.289400  0.967100  0.141100  1.0
  C  C1748  1  0.210600  0.032900  0.641100  1.0
  C  C1749  1  0.858900  0.789400  0.532900  1.0
  C  C1750  1  0.358900  0.710600  0.467100  1.0
  C  C1751  1  0.141100  0.289400  0.967100  1.0
  C  C1752  1  0.641100  0.210600  0.032900  1.0
  C  C1753  1  0.562000  0.830300  0.774800  1.0
  C  C1754  1  0.938000  0.169700  0.274800  1.0
  C  C1755  1  0.062000  0.669700  0.225200  1.0
  C  C1756  1  0.438000  0.330300  0.725200  1.0
  C  C1757  1  0.774800  0.562000  0.830300  1.0
  C  C1758  1  0.725200  0.438000  0.330300  1.0
  C  C1759  1  0.274800  0.938000  0.169700  1.0
  C  C1760  1  0.225200  0.062000  0.669700  1.0
  C  C1761  1  0.830300  0.774800  0.562000  1.0
  C  C1762  1  0.330300  0.725200  0.438000  1.0
  C  C1763  1  0.169700  0.274800  0.938000  1.0
  C  C1764  1  0.669700  0.225200  0.062000  1.0
  C  C1765  1  0.564000  0.826000  0.731300  1.0
  C  C1766  1  0.936000  0.174000  0.231300  1.0
  C  C1767  1  0.064000  0.674000  0.268700  1.0
  C  C1768  1  0.436000  0.326000  0.768700  1.0
  C  C1769  1  0.731300  0.564000  0.826000  1.0
  C  C1770  1  0.768700  0.436000  0.326000  1.0
  C  C1771  1  0.231300  0.936000  0.174000  1.0
  C  C1772  1  0.268700  0.064000  0.674000  1.0
  C  C1773  1  0.826000  0.731300  0.564000  1.0
  C  C1774  1  0.326000  0.768700  0.436000  1.0
  C  C1775  1  0.174000  0.231300  0.936000  1.0
  C  C1776  1  0.674000  0.268700  0.064000  1.0
  C  C1777  1  0.604000  0.826000  0.714000  1.0
  C  C1778  1  0.896000  0.174000  0.214000  1.0
  C  C1779  1  0.104000  0.674000  0.286000  1.0
  C  C1780  1  0.396000  0.326000  0.786000  1.0
  C  C1781  1  0.714000  0.604000  0.826000  1.0
  C  C1782  1  0.786000  0.396000  0.326000  1.0
  C  C1783  1  0.214000  0.896000  0.174000  1.0
  C  C1784  1  0.286000  0.104000  0.674000  1.0
  C  C1785  1  0.826000  0.714000  0.604000  1.0
  C  C1786  1  0.326000  0.786000  0.396000  1.0
  C  C1787  1  0.174000  0.214000  0.896000  1.0
  C  C1788  1  0.674000  0.286000  0.104000  1.0
  C  C1789  1  0.619000  0.787000  0.702000  1.0
  C  C1790  1  0.881000  0.213000  0.202000  1.0
  C  C1791  1  0.119000  0.713000  0.298000  1.0
  C  C1792  1  0.381000  0.287000  0.798000  1.0
  C  C1793  1  0.702000  0.619000  0.787000  1.0
  C  C1794  1  0.798000  0.381000  0.287000  1.0
  C  C1795  1  0.202000  0.881000  0.213000  1.0
  C  C1796  1  0.298000  0.119000  0.713000  1.0
  C  C1797  1  0.787000  0.702000  0.619000  1.0
  C  C1798  1  0.287000  0.798000  0.381000  1.0
  C  C1799  1  0.213000  0.202000  0.881000  1.0
  C  C1800  1  0.713000  0.298000  0.119000  1.0
  C  C1801  1  0.643000  0.787000  0.665300  1.0
  C  C1802  1  0.857000  0.213000  0.165300  1.0
  C  C1803  1  0.143000  0.713000  0.334700  1.0
  C  C1804  1  0.357000  0.287000  0.834700  1.0
  C  C1805  1  0.665300  0.643000  0.787000  1.0
  C  C1806  1  0.834700  0.357000  0.287000  1.0
  C  C1807  1  0.165300  0.857000  0.213000  1.0
  C  C1808  1  0.334700  0.143000  0.713000  1.0
  C  C1809  1  0.787000  0.665300  0.643000  1.0
  C  C1810  1  0.287000  0.834700  0.357000  1.0
  C  C1811  1  0.213000  0.165300  0.857000  1.0
  C  C1812  1  0.713000  0.334700  0.143000  1.0
  C  C1813  1  0.682600  0.769400  0.669000  1.0
  C  C1814  1  0.817400  0.230600  0.169000  1.0
  C  C1815  1  0.182600  0.730600  0.331000  1.0
  C  C1816  1  0.317400  0.269400  0.831000  1.0
  C  C1817  1  0.669000  0.682600  0.769400  1.0
  C  C1818  1  0.831000  0.317400  0.269400  1.0
  C  C1819  1  0.169000  0.817400  0.230600  1.0
  C  C1820  1  0.331000  0.182600  0.730600  1.0
  C  C1821  1  0.769400  0.669000  0.682600  1.0
  C  C1822  1  0.269400  0.831000  0.317400  1.0
  C  C1823  1  0.230600  0.169000  0.817400  1.0
  C  C1824  1  0.730600  0.331000  0.182600  1.0
  C  C1825  1  0.518600  0.153000  0.628500  1.0
  C  C1826  1  0.981400  0.847000  0.128500  1.0
  C  C1827  1  0.018600  0.347000  0.371500  1.0
  C  C1828  1  0.481400  0.653000  0.871500  1.0
  C  C1829  1  0.628500  0.518600  0.153000  1.0
  C  C1830  1  0.871500  0.481400  0.653000  1.0
  C  C1831  1  0.128500  0.981400  0.847000  1.0
  C  C1832  1  0.371500  0.018600  0.347000  1.0
  C  C1833  1  0.153000  0.628500  0.518600  1.0
  C  C1834  1  0.653000  0.871500  0.481400  1.0
  C  C1835  1  0.847000  0.128500  0.981400  1.0
  C  C1836  1  0.347000  0.371500  0.018600  1.0
  C  C1837  1  0.510000  0.182200  0.600200  1.0
  C  C1838  1  0.990000  0.817800  0.100200  1.0
  C  C1839  1  0.010000  0.317800  0.399800  1.0
  C  C1840  1  0.490000  0.682200  0.899800  1.0
  C  C1841  1  0.600200  0.510000  0.182200  1.0
  C  C1842  1  0.899800  0.490000  0.682200  1.0
  C  C1843  1  0.100200  0.990000  0.817800  1.0
  C  C1844  1  0.399800  0.010000  0.317800  1.0
  C  C1845  1  0.182200  0.600200  0.510000  1.0
  C  C1846  1  0.682200  0.899800  0.490000  1.0
  C  C1847  1  0.817800  0.100200  0.990000  1.0
  C  C1848  1  0.317800  0.399800  0.010000  1.0
  C  C1849  1  0.477500  0.180600  0.582600  1.0
  C  C1850  1  0.022500  0.819400  0.082600  1.0
  C  C1851  1  0.977500  0.319400  0.417400  1.0
  C  C1852  1  0.522500  0.680600  0.917400  1.0
  C  C1853  1  0.582600  0.477500  0.180600  1.0
  C  C1854  1  0.917400  0.522500  0.680600  1.0
  C  C1855  1  0.082600  0.022500  0.819400  1.0
  C  C1856  1  0.417400  0.977500  0.319400  1.0
  C  C1857  1  0.180600  0.582600  0.477500  1.0
  C  C1858  1  0.680600  0.917400  0.522500  1.0
  C  C1859  1  0.819400  0.082600  0.022500  1.0
  C  C1860  1  0.319400  0.417400  0.977500  1.0
  C  C1861  1  0.469400  0.207100  0.556700  1.0
  C  C1862  1  0.030600  0.792900  0.056700  1.0
  C  C1863  1  0.969400  0.292900  0.443300  1.0
  C  C1864  1  0.530600  0.707100  0.943300  1.0
  C  C1865  1  0.556700  0.469400  0.207100  1.0
  C  C1866  1  0.943300  0.530600  0.707100  1.0
  C  C1867  1  0.056700  0.030600  0.792900  1.0
  C  C1868  1  0.443300  0.969400  0.292900  1.0
  C  C1869  1  0.207100  0.556700  0.469400  1.0
  C  C1870  1  0.707100  0.943300  0.530600  1.0
  C  C1871  1  0.792900  0.056700  0.030600  1.0
  C  C1872  1  0.292900  0.443300  0.969400  1.0
  C  C1873  1  0.491700  0.236700  0.546100  1.0
  C  C1874  1  0.008300  0.763300  0.046100  1.0
  C  C1875  1  0.991700  0.263300  0.453900  1.0
  C  C1876  1  0.508300  0.736700  0.953900  1.0
  C  C1877  1  0.546100  0.491700  0.236700  1.0
  C  C1878  1  0.953900  0.508300  0.736700  1.0
  C  C1879  1  0.046100  0.008300  0.763300  1.0
  C  C1880  1  0.453900  0.991700  0.263300  1.0
  C  C1881  1  0.236700  0.546100  0.491700  1.0
  C  C1882  1  0.736700  0.953900  0.508300  1.0
  C  C1883  1  0.763300  0.046100  0.008300  1.0
  C  C1884  1  0.263300  0.453900  0.991700  1.0
  C  C1885  1  0.528100  0.240200  0.564600  1.0
  C  C1886  1  0.971900  0.759800  0.064600  1.0
  C  C1887  1  0.028100  0.259800  0.435400  1.0
  C  C1888  1  0.471900  0.740200  0.935400  1.0
  C  C1889  1  0.564600  0.528100  0.240200  1.0
  C  C1890  1  0.935400  0.471900  0.740200  1.0
  C  C1891  1  0.064600  0.971900  0.759800  1.0
  C  C1892  1  0.435400  0.028100  0.259800  1.0
  C  C1893  1  0.240200  0.564600  0.528100  1.0
  C  C1894  1  0.740200  0.935400  0.471900  1.0
  C  C1895  1  0.759800  0.064600  0.971900  1.0
  C  C1896  1  0.259800  0.435400  0.028100  1.0
  C  C1897  1  0.533800  0.209600  0.592300  1.0
  C  C1898  1  0.966200  0.790400  0.092300  1.0
  C  C1899  1  0.033800  0.290400  0.407700  1.0
  C  C1900  1  0.466200  0.709600  0.907700  1.0
  C  C1901  1  0.592300  0.533800  0.209600  1.0
  C  C1902  1  0.907700  0.466200  0.709600  1.0
  C  C1903  1  0.092300  0.966200  0.790400  1.0
  C  C1904  1  0.407700  0.033800  0.290400  1.0
  C  C1905  1  0.209600  0.592300  0.533800  1.0
  C  C1906  1  0.709600  0.907700  0.466200  1.0
  C  C1907  1  0.790400  0.092300  0.966200  1.0
  C  C1908  1  0.290400  0.407700  0.033800  1.0
  C  C1909  1  0.556700  0.269900  0.557600  1.0
  C  C1910  1  0.943300  0.730100  0.057600  1.0
  C  C1911  1  0.056700  0.230100  0.442400  1.0
  C  C1912  1  0.443300  0.769900  0.942400  1.0
  C  C1913  1  0.557600  0.556700  0.269900  1.0
  C  C1914  1  0.942400  0.443300  0.769900  1.0
  C  C1915  1  0.057600  0.943300  0.730100  1.0
  C  C1916  1  0.442400  0.056700  0.230100  1.0
  C  C1917  1  0.269900  0.557600  0.556700  1.0
  C  C1918  1  0.769900  0.942400  0.443300  1.0
  C  C1919  1  0.730100  0.057600  0.943300  1.0
  C  C1920  1  0.230100  0.442400  0.056700  1.0
  C  C1921  1  0.415800  0.227900  0.510800  1.0
  C  C1922  1  0.084200  0.772100  0.010800  1.0
  C  C1923  1  0.915800  0.272100  0.489200  1.0
  C  C1924  1  0.584200  0.727900  0.989200  1.0
  C  C1925  1  0.510800  0.415800  0.227900  1.0
  C  C1926  1  0.989200  0.584200  0.727900  1.0
  C  C1927  1  0.010800  0.084200  0.772100  1.0
  C  C1928  1  0.489200  0.915800  0.272100  1.0
  C  C1929  1  0.227900  0.510800  0.415800  1.0
  C  C1930  1  0.727900  0.989200  0.584200  1.0
  C  C1931  1  0.772100  0.010800  0.084200  1.0
  C  C1932  1  0.272100  0.489200  0.915800  1.0
  C  C1933  1  0.374800  0.217900  0.498500  1.0
  C  C1934  1  0.125200  0.782100  0.998500  1.0
  C  C1935  1  0.874800  0.282100  0.501500  1.0
  C  C1936  1  0.625200  0.717900  0.001500  1.0
  C  C1937  1  0.498500  0.374800  0.217900  1.0
  C  C1938  1  0.001500  0.625200  0.717900  1.0
  C  C1939  1  0.998500  0.125200  0.782100  1.0
  C  C1940  1  0.501500  0.874800  0.282100  1.0
  C  C1941  1  0.217900  0.498500  0.374800  1.0
  C  C1942  1  0.717900  0.001500  0.625200  1.0
  C  C1943  1  0.782100  0.998500  0.125200  1.0
  C  C1944  1  0.282100  0.501500  0.874800  1.0
  C  C1945  1  0.344000  0.234600  0.524800  1.0
  C  C1946  1  0.156000  0.765400  0.024800  1.0
  C  C1947  1  0.844000  0.265400  0.475200  1.0
  C  C1948  1  0.656000  0.734600  0.975200  1.0
  C  C1949  1  0.524800  0.344000  0.234600  1.0
  C  C1950  1  0.975200  0.656000  0.734600  1.0
  C  C1951  1  0.024800  0.156000  0.765400  1.0
  C  C1952  1  0.475200  0.844000  0.265400  1.0
  C  C1953  1  0.234600  0.524800  0.344000  1.0
  C  C1954  1  0.734600  0.975200  0.656000  1.0
  C  C1955  1  0.765400  0.024800  0.156000  1.0
  C  C1956  1  0.265400  0.475200  0.844000  1.0
  C  C1957  1  0.357400  0.268800  0.548400  1.0
  C  C1958  1  0.142600  0.731200  0.048400  1.0
  C  C1959  1  0.857400  0.231200  0.451600  1.0
  C  C1960  1  0.642600  0.768800  0.951600  1.0
  C  C1961  1  0.548400  0.357400  0.268800  1.0
  C  C1962  1  0.951600  0.642600  0.768800  1.0
  C  C1963  1  0.048400  0.142600  0.731200  1.0
  C  C1964  1  0.451600  0.857400  0.231200  1.0
  C  C1965  1  0.268800  0.548400  0.357400  1.0
  C  C1966  1  0.768800  0.951600  0.642600  1.0
  C  C1967  1  0.731200  0.048400  0.142600  1.0
  C  C1968  1  0.231200  0.451600  0.857400  1.0
  C  C1969  1  0.326700  0.299100  0.555800  1.0
  C  C1970  1  0.173300  0.700900  0.055800  1.0
  C  C1971  1  0.826700  0.200900  0.444200  1.0
  C  C1972  1  0.673300  0.799100  0.944200  1.0
  C  C1973  1  0.555800  0.326700  0.299100  1.0
  C  C1974  1  0.944200  0.673300  0.799100  1.0
  C  C1975  1  0.055800  0.173300  0.700900  1.0
  C  C1976  1  0.444200  0.826700  0.200900  1.0
  C  C1977  1  0.299100  0.555800  0.326700  1.0
  C  C1978  1  0.799100  0.944200  0.673300  1.0
  C  C1979  1  0.700900  0.055800  0.173300  1.0
  C  C1980  1  0.200900  0.444200  0.826700  1.0
  C  C1981  1  0.302200  0.290500  0.591400  1.0
  C  C1982  1  0.197800  0.709500  0.091400  1.0
  C  C1983  1  0.802200  0.209500  0.408600  1.0
  C  C1984  1  0.697800  0.790500  0.908600  1.0
  C  C1985  1  0.591400  0.302200  0.290500  1.0
  C  C1986  1  0.908600  0.697800  0.790500  1.0
  C  C1987  1  0.091400  0.197800  0.709500  1.0
  C  C1988  1  0.408600  0.802200  0.209500  1.0
  C  C1989  1  0.290500  0.591400  0.302200  1.0
  C  C1990  1  0.790500  0.908600  0.697800  1.0
  C  C1991  1  0.709500  0.091400  0.197800  1.0
  C  C1992  1  0.209500  0.408600  0.802200  1.0
  C  C1993  1  0.311800  0.251900  0.609900  1.0
  C  C1994  1  0.188200  0.748100  0.109900  1.0
  C  C1995  1  0.811800  0.248100  0.390100  1.0
  C  C1996  1  0.688200  0.751900  0.890100  1.0
  C  C1997  1  0.609900  0.311800  0.251900  1.0
  C  C1998  1  0.890100  0.688200  0.751900  1.0
  C  C1999  1  0.109900  0.188200  0.748100  1.0
  C  C2000  1  0.390100  0.811800  0.248100  1.0
  C  C2001  1  0.251900  0.609900  0.311800  1.0
  C  C2002  1  0.751900  0.890100  0.688200  1.0
  C  C2003  1  0.748100  0.109900  0.188200  1.0
  C  C2004  1  0.248100  0.390100  0.811800  1.0
  C  C2005  1  0.282500  0.238000  0.639200  1.0
  C  C2006  1  0.217500  0.762000  0.139200  1.0
  C  C2007  1  0.782500  0.262000  0.360800  1.0
  C  C2008  1  0.717500  0.738000  0.860800  1.0
  C  C2009  1  0.639200  0.282500  0.238000  1.0
  C  C2010  1  0.860800  0.717500  0.738000  1.0
  C  C2011  1  0.139200  0.217500  0.762000  1.0
  C  C2012  1  0.360800  0.782500  0.262000  1.0
  C  C2013  1  0.238000  0.639200  0.282500  1.0
  C  C2014  1  0.738000  0.860800  0.717500  1.0
  C  C2015  1  0.762000  0.139200  0.217500  1.0
  C  C2016  1  0.262000  0.360800  0.782500  1.0
  C  C2017  1  0.724100  0.160300  0.492300  1.0
  C  C2018  1  0.775900  0.839700  0.992300  1.0
  C  C2019  1  0.224100  0.339700  0.507700  1.0
  C  C2020  1  0.275900  0.660300  0.007700  1.0
  C  C2021  1  0.492300  0.724100  0.160300  1.0
  C  C2022  1  0.007700  0.275900  0.660300  1.0
  C  C2023  1  0.992300  0.775900  0.839700  1.0
  C  C2024  1  0.507700  0.224100  0.339700  1.0
  C  C2025  1  0.160300  0.492300  0.724100  1.0
  C  C2026  1  0.660300  0.007700  0.275900  1.0
  C  C2027  1  0.839700  0.992300  0.775900  1.0
  C  C2028  1  0.339700  0.507700  0.224100  1.0
  C  C2029  1  0.703000  0.190900  0.473000  1.0
  C  C2030  1  0.797000  0.809100  0.973000  1.0
  C  C2031  1  0.203000  0.309100  0.527000  1.0
  C  C2032  1  0.297000  0.690900  0.027000  1.0
  C  C2033  1  0.473000  0.703000  0.190900  1.0
  C  C2034  1  0.027000  0.297000  0.690900  1.0
  C  C2035  1  0.973000  0.797000  0.809100  1.0
  C  C2036  1  0.527000  0.203000  0.309100  1.0
  C  C2037  1  0.190900  0.473000  0.703000  1.0
  C  C2038  1  0.690900  0.027000  0.297000  1.0
  C  C2039  1  0.809100  0.973000  0.797000  1.0
  C  C2040  1  0.309100  0.527000  0.203000  1.0
  C  C2041  1  0.702800  0.195900  0.433500  1.0
  C  C2042  1  0.797200  0.804100  0.933500  1.0
  C  C2043  1  0.202800  0.304100  0.566500  1.0
  C  C2044  1  0.297200  0.695900  0.066500  1.0
  C  C2045  1  0.433500  0.702800  0.195900  1.0
  C  C2046  1  0.066500  0.297200  0.695900  1.0
  C  C2047  1  0.933500  0.797200  0.804100  1.0
  C  C2048  1  0.566500  0.202800  0.304100  1.0
  C  C2049  1  0.195900  0.433500  0.702800  1.0
  C  C2050  1  0.695900  0.066500  0.297200  1.0
  C  C2051  1  0.804100  0.933500  0.797200  1.0
  C  C2052  1  0.304100  0.566500  0.202800  1.0
  C  C2053  1  0.681000  0.227100  0.416800  1.0
  C  C2054  1  0.819000  0.772900  0.916800  1.0
  C  C2055  1  0.181000  0.272900  0.583200  1.0
  C  C2056  1  0.319000  0.727100  0.083200  1.0
  C  C2057  1  0.416800  0.681000  0.227100  1.0
  C  C2058  1  0.083200  0.319000  0.727100  1.0
  C  C2059  1  0.916800  0.819000  0.772900  1.0
  C  C2060  1  0.583200  0.181000  0.272900  1.0
  C  C2061  1  0.227100  0.416800  0.681000  1.0
  C  C2062  1  0.727100  0.083200  0.319000  1.0
  C  C2063  1  0.772900  0.916800  0.819000  1.0
  C  C2064  1  0.272900  0.583200  0.181000  1.0
  C  C2065  1  0.659800  0.252500  0.439500  1.0
  C  C2066  1  0.840200  0.747500  0.939500  1.0
  C  C2067  1  0.159800  0.247500  0.560500  1.0
  C  C2068  1  0.340200  0.752500  0.060500  1.0
  C  C2069  1  0.439500  0.659800  0.252500  1.0
  C  C2070  1  0.060500  0.340200  0.752500  1.0
  C  C2071  1  0.939500  0.840200  0.747500  1.0
  C  C2072  1  0.560500  0.159800  0.247500  1.0
  C  C2073  1  0.252500  0.439500  0.659800  1.0
  C  C2074  1  0.752500  0.060500  0.340200  1.0
  C  C2075  1  0.747500  0.939500  0.840200  1.0
  C  C2076  1  0.247500  0.560500  0.159800  1.0
  C  C2077  1  0.660800  0.246300  0.479100  1.0
  C  C2078  1  0.839200  0.753700  0.979100  1.0
  C  C2079  1  0.160800  0.253700  0.520900  1.0
  C  C2080  1  0.339200  0.746300  0.020900  1.0
  C  C2081  1  0.479100  0.660800  0.246300  1.0
  C  C2082  1  0.020900  0.339200  0.746300  1.0
  C  C2083  1  0.979100  0.839200  0.753700  1.0
  C  C2084  1  0.520900  0.160800  0.253700  1.0
  C  C2085  1  0.246300  0.479100  0.660800  1.0
  C  C2086  1  0.746300  0.020900  0.339200  1.0
  C  C2087  1  0.753700  0.979100  0.839200  1.0
  C  C2088  1  0.253700  0.520900  0.160800  1.0
  C  C2089  1  0.681500  0.216800  0.495300  1.0
  C  C2090  1  0.818500  0.783200  0.995300  1.0
  C  C2091  1  0.181500  0.283200  0.504700  1.0
  C  C2092  1  0.318500  0.716800  0.004700  1.0
  C  C2093  1  0.495300  0.681500  0.216800  1.0
  C  C2094  1  0.004700  0.318500  0.716800  1.0
  C  C2095  1  0.995300  0.818500  0.783200  1.0
  C  C2096  1  0.504700  0.181500  0.283200  1.0
  C  C2097  1  0.216800  0.495300  0.681500  1.0
  C  C2098  1  0.716800  0.004700  0.318500  1.0
  C  C2099  1  0.783200  0.995300  0.818500  1.0
  C  C2100  1  0.283200  0.504700  0.181500  1.0
  C  C2101  1  0.639200  0.272100  0.504200  1.0
  C  C2102  1  0.860800  0.727900  0.004200  1.0
  C  C2103  1  0.139200  0.227900  0.495800  1.0
  C  C2104  1  0.360800  0.772100  0.995800  1.0
  C  C2105  1  0.504200  0.639200  0.272100  1.0
  C  C2106  1  0.995800  0.360800  0.772100  1.0
  C  C2107  1  0.004200  0.860800  0.727900  1.0
  C  C2108  1  0.495800  0.139200  0.227900  1.0
  C  C2109  1  0.272100  0.504200  0.639200  1.0
  C  C2110  1  0.772100  0.995800  0.360800  1.0
  C  C2111  1  0.727900  0.004200  0.860800  1.0
  C  C2112  1  0.227900  0.495800  0.139200  1.0
  C  C2113  1  0.582400  0.071100  0.628400  1.0
  C  C2114  1  0.917600  0.928900  0.128400  1.0
  C  C2115  1  0.082400  0.428900  0.371600  1.0
  C  C2116  1  0.417600  0.571100  0.871600  1.0
  C  C2117  1  0.628400  0.582400  0.071100  1.0
  C  C2118  1  0.871600  0.417600  0.571100  1.0
  C  C2119  1  0.128400  0.917600  0.928900  1.0
  C  C2120  1  0.371600  0.082400  0.428900  1.0
  C  C2121  1  0.071100  0.628400  0.582400  1.0
  C  C2122  1  0.571100  0.871600  0.417600  1.0
  C  C2123  1  0.928900  0.128400  0.917600  1.0
  C  C2124  1  0.428900  0.371600  0.082400  1.0
  C  C2125  1  0.602400  0.057900  0.594100  1.0
  C  C2126  1  0.897600  0.942100  0.094100  1.0
  C  C2127  1  0.102400  0.442100  0.405900  1.0
  C  C2128  1  0.397600  0.557900  0.905900  1.0
  C  C2129  1  0.594100  0.602400  0.057900  1.0
  C  C2130  1  0.905900  0.397600  0.557900  1.0
  C  C2131  1  0.094100  0.897600  0.942100  1.0
  C  C2132  1  0.405900  0.102400  0.442100  1.0
  C  C2133  1  0.057900  0.594100  0.602400  1.0
  C  C2134  1  0.557900  0.905900  0.397600  1.0
  C  C2135  1  0.942100  0.094100  0.897600  1.0
  C  C2136  1  0.442100  0.405900  0.102400  1.0
  C  C2137  1  0.588500  0.030700  0.568100  1.0
  C  C2138  1  0.911500  0.969300  0.068100  1.0
  C  C2139  1  0.088500  0.469300  0.431900  1.0
  C  C2140  1  0.411500  0.530700  0.931900  1.0
  C  C2141  1  0.568100  0.588500  0.030700  1.0
  C  C2142  1  0.931900  0.411500  0.530700  1.0
  C  C2143  1  0.068100  0.911500  0.969300  1.0
  C  C2144  1  0.431900  0.088500  0.469300  1.0
  C  C2145  1  0.030700  0.568100  0.588500  1.0
  C  C2146  1  0.530700  0.931900  0.411500  1.0
  C  C2147  1  0.969300  0.068100  0.911500  1.0
  C  C2148  1  0.469300  0.431900  0.088500  1.0
  C  C2149  1  0.605800  0.016500  0.534500  1.0
  C  C2150  1  0.894200  0.983500  0.034500  1.0
  C  C2151  1  0.105800  0.483500  0.465500  1.0
  C  C2152  1  0.394200  0.516500  0.965500  1.0
  C  C2153  1  0.534500  0.605800  0.016500  1.0
  C  C2154  1  0.965500  0.394200  0.516500  1.0
  C  C2155  1  0.034500  0.894200  0.983500  1.0
  C  C2156  1  0.465500  0.105800  0.483500  1.0
  C  C2157  1  0.016500  0.534500  0.605800  1.0
  C  C2158  1  0.516500  0.965500  0.394200  1.0
  C  C2159  1  0.983500  0.034500  0.894200  1.0
  C  C2160  1  0.483500  0.465500  0.105800  1.0
  C  C2161  1  0.643500  0.033800  0.527200  1.0
  C  C2162  1  0.856500  0.966200  0.027200  1.0
  C  C2163  1  0.143500  0.466200  0.472800  1.0
  C  C2164  1  0.356500  0.533800  0.972800  1.0
  C  C2165  1  0.527200  0.643500  0.033800  1.0
  C  C2166  1  0.972800  0.356500  0.533800  1.0
  C  C2167  1  0.027200  0.856500  0.966200  1.0
  C  C2168  1  0.472800  0.143500  0.466200  1.0
  C  C2169  1  0.033800  0.527200  0.643500  1.0
  C  C2170  1  0.533800  0.972800  0.356500  1.0
  C  C2171  1  0.966200  0.027200  0.856500  1.0
  C  C2172  1  0.466200  0.472800  0.143500  1.0
  C  C2173  1  0.659700  0.061700  0.552200  1.0
  C  C2174  1  0.840300  0.938300  0.052200  1.0
  C  C2175  1  0.159700  0.438300  0.447800  1.0
  C  C2176  1  0.340300  0.561700  0.947800  1.0
  C  C2177  1  0.552200  0.659700  0.061700  1.0
  C  C2178  1  0.947800  0.340300  0.561700  1.0
  C  C2179  1  0.052200  0.840300  0.938300  1.0
  C  C2180  1  0.447800  0.159700  0.438300  1.0
  C  C2181  1  0.061700  0.552200  0.659700  1.0
  C  C2182  1  0.561700  0.947800  0.340300  1.0
  C  C2183  1  0.938300  0.052200  0.840300  1.0
  C  C2184  1  0.438300  0.447800  0.159700  1.0
  C  C2185  1  0.638900  0.072500  0.584100  1.0
  C  C2186  1  0.861100  0.927500  0.084100  1.0
  C  C2187  1  0.138900  0.427500  0.415900  1.0
  C  C2188  1  0.361100  0.572500  0.915900  1.0
  C  C2189  1  0.584100  0.638900  0.072500  1.0
  C  C2190  1  0.915900  0.361100  0.572500  1.0
  C  C2191  1  0.084100  0.861100  0.927500  1.0
  C  C2192  1  0.415900  0.138900  0.427500  1.0
  C  C2193  1  0.072500  0.584100  0.638900  1.0
  C  C2194  1  0.572500  0.915900  0.361100  1.0
  C  C2195  1  0.927500  0.084100  0.861100  1.0
  C  C2196  1  0.427500  0.415900  0.138900  1.0
  C  C2197  1  0.697100  0.078300  0.544300  1.0
  C  C2198  1  0.802900  0.921700  0.044300  1.0
  C  C2199  1  0.197100  0.421700  0.455700  1.0
  C  C2200  1  0.302900  0.578300  0.955700  1.0
  C  C2201  1  0.544300  0.697100  0.078300  1.0
  C  C2202  1  0.955700  0.302900  0.578300  1.0
  C  C2203  1  0.044300  0.802900  0.921700  1.0
  C  C2204  1  0.455700  0.197100  0.421700  1.0
  C  C2205  1  0.078300  0.544300  0.697100  1.0
  C  C2206  1  0.578300  0.955700  0.302900  1.0
  C  C2207  1  0.921700  0.044300  0.802900  1.0
  C  C2208  1  0.421700  0.455700  0.197100  1.0
  C  C2209  1  0.866400  0.004500  0.673500  1.0
  C  C2210  1  0.633600  0.995500  0.173500  1.0
  C  C2211  1  0.366400  0.495500  0.326500  1.0
  C  C2212  1  0.133600  0.504500  0.826500  1.0
  C  C2213  1  0.673500  0.866400  0.004500  1.0
  C  C2214  1  0.826500  0.133600  0.504500  1.0
  C  C2215  1  0.173500  0.633600  0.995500  1.0
  C  C2216  1  0.326500  0.366400  0.495500  1.0
  C  C2217  1  0.004500  0.673500  0.866400  1.0
  C  C2218  1  0.504500  0.826500  0.133600  1.0
  C  C2219  1  0.995500  0.173500  0.633600  1.0
  C  C2220  1  0.495500  0.326500  0.366400  1.0
  C  C2221  1  0.852600  0.003000  0.634100  1.0
  C  C2222  1  0.647400  0.997000  0.134100  1.0
  C  C2223  1  0.352600  0.497000  0.365900  1.0
  C  C2224  1  0.147400  0.503000  0.865900  1.0
  C  C2225  1  0.634100  0.852600  0.003000  1.0
  C  C2226  1  0.865900  0.147400  0.503000  1.0
  C  C2227  1  0.134100  0.647400  0.997000  1.0
  C  C2228  1  0.365900  0.352600  0.497000  1.0
  C  C2229  1  0.003000  0.634100  0.852600  1.0
  C  C2230  1  0.503000  0.865900  0.147400  1.0
  C  C2231  1  0.997000  0.134100  0.647400  1.0
  C  C2232  1  0.497000  0.365900  0.352600  1.0
  C  C2233  1  0.864400  0.970200  0.614300  1.0
  C  C2234  1  0.635600  0.029800  0.114300  1.0
  C  C2235  1  0.364400  0.529800  0.385700  1.0
  C  C2236  1  0.135600  0.470200  0.885700  1.0
  C  C2237  1  0.614300  0.864400  0.970200  1.0
  C  C2238  1  0.885700  0.135600  0.470200  1.0
  C  C2239  1  0.114300  0.635600  0.029800  1.0
  C  C2240  1  0.385700  0.364400  0.529800  1.0
  C  C2241  1  0.970200  0.614300  0.864400  1.0
  C  C2242  1  0.470200  0.885700  0.135600  1.0
  C  C2243  1  0.029800  0.114300  0.635600  1.0
  C  C2244  1  0.529800  0.385700  0.364400  1.0
  C  C2245  1  0.853300  0.966000  0.577700  1.0
  C  C2246  1  0.646700  0.034000  0.077700  1.0
  C  C2247  1  0.353300  0.534000  0.422300  1.0
  C  C2248  1  0.146700  0.466000  0.922300  1.0
  C  C2249  1  0.577700  0.853300  0.966000  1.0
  C  C2250  1  0.922300  0.146700  0.466000  1.0
  C  C2251  1  0.077700  0.646700  0.034000  1.0
  C  C2252  1  0.422300  0.353300  0.534000  1.0
  C  C2253  1  0.966000  0.577700  0.853300  1.0
  C  C2254  1  0.466000  0.922300  0.146700  1.0
  C  C2255  1  0.034000  0.077700  0.646700  1.0
  C  C2256  1  0.534000  0.422300  0.353300  1.0
  C  C2257  1  0.831000  0.991500  0.557400  1.0
  C  C2258  1  0.669000  0.008500  0.057400  1.0
  C  C2259  1  0.331000  0.508500  0.442600  1.0
  C  C2260  1  0.169000  0.491500  0.942600  1.0
  C  C2261  1  0.557400  0.831000  0.991500  1.0
  C  C2262  1  0.942600  0.169000  0.491500  1.0
  C  C2263  1  0.057400  0.669000  0.008500  1.0
  C  C2264  1  0.442600  0.331000  0.508500  1.0
  C  C2265  1  0.991500  0.557400  0.831000  1.0
  C  C2266  1  0.491500  0.942600  0.169000  1.0
  C  C2267  1  0.008500  0.057400  0.669000  1.0
  C  C2268  1  0.508500  0.442600  0.331000  1.0
  C  C2269  1  0.820000  0.024200  0.578800  1.0
  C  C2270  1  0.680000  0.975800  0.078800  1.0
  C  C2271  1  0.320000  0.475800  0.421200  1.0
  C  C2272  1  0.180000  0.524200  0.921200  1.0
  C  C2273  1  0.578800  0.820000  0.024200  1.0
  C  C2274  1  0.921200  0.180000  0.524200  1.0
  C  C2275  1  0.078800  0.680000  0.975800  1.0
  C  C2276  1  0.421200  0.320000  0.475800  1.0
  C  C2277  1  0.024200  0.578800  0.820000  1.0
  C  C2278  1  0.524200  0.921200  0.180000  1.0
  C  C2279  1  0.975800  0.078800  0.680000  1.0
  C  C2280  1  0.475800  0.421200  0.320000  1.0
  C  C2281  1  0.830800  0.028900  0.615600  1.0
  C  C2282  1  0.669200  0.971100  0.115600  1.0
  C  C2283  1  0.330800  0.471100  0.384400  1.0
  C  C2284  1  0.169200  0.528900  0.884400  1.0
  C  C2285  1  0.615600  0.830800  0.028900  1.0
  C  C2286  1  0.884400  0.169200  0.528900  1.0
  C  C2287  1  0.115600  0.669200  0.971100  1.0
  C  C2288  1  0.384400  0.330800  0.471100  1.0
  C  C2289  1  0.028900  0.615600  0.830800  1.0
  C  C2290  1  0.528900  0.884400  0.169200  1.0
  C  C2291  1  0.971100  0.115600  0.669200  1.0
  C  C2292  1  0.471100  0.384400  0.330800  1.0
  C  C2293  1  0.796500  0.050400  0.556500  1.0
  C  C2294  1  0.703500  0.949600  0.056500  1.0
  C  C2295  1  0.296500  0.449600  0.443500  1.0
  C  C2296  1  0.203500  0.550400  0.943500  1.0
  C  C2297  1  0.556500  0.796500  0.050400  1.0
  C  C2298  1  0.943500  0.203500  0.550400  1.0
  C  C2299  1  0.056500  0.703500  0.949600  1.0
  C  C2300  1  0.443500  0.296500  0.449600  1.0
  C  C2301  1  0.050400  0.556500  0.796500  1.0
  C  C2302  1  0.550400  0.943500  0.203500  1.0
  C  C2303  1  0.949600  0.056500  0.703500  1.0
  C  C2304  1  0.449600  0.443500  0.296500  1.0
  C  C2305  1  0.834800  0.914100  0.529300  1.0
  C  C2306  1  0.665200  0.085900  0.029300  1.0
  C  C2307  1  0.334800  0.585900  0.470700  1.0
  C  C2308  1  0.165200  0.414100  0.970700  1.0
  C  C2309  1  0.529300  0.834800  0.914100  1.0
  C  C2310  1  0.970700  0.165200  0.414100  1.0
  C  C2311  1  0.029300  0.665200  0.085900  1.0
  C  C2312  1  0.470700  0.334800  0.585900  1.0
  C  C2313  1  0.914100  0.529300  0.834800  1.0
  C  C2314  1  0.414100  0.970700  0.165200  1.0
  C  C2315  1  0.085900  0.029300  0.665200  1.0
  C  C2316  1  0.585900  0.470700  0.334800  1.0
  C  C2317  1  0.835500  0.870500  0.529100  1.0
  C  C2318  1  0.664500  0.129500  0.029100  1.0
  C  C2319  1  0.335500  0.629500  0.470900  1.0
  C  C2320  1  0.164500  0.370500  0.970900  1.0
  C  C2321  1  0.529100  0.835500  0.870500  1.0
  C  C2322  1  0.970900  0.164500  0.370500  1.0
  C  C2323  1  0.029100  0.664500  0.129500  1.0
  C  C2324  1  0.470900  0.335500  0.629500  1.0
  C  C2325  1  0.870500  0.529100  0.835500  1.0
  C  C2326  1  0.370500  0.970900  0.164500  1.0
  C  C2327  1  0.129500  0.029100  0.664500  1.0
  C  C2328  1  0.629500  0.470900  0.335500  1.0
  C  C2329  1  0.810300  0.851600  0.559500  1.0
  C  C2330  1  0.689700  0.148400  0.059500  1.0
  C  C2331  1  0.310300  0.648400  0.440500  1.0
  C  C2332  1  0.189700  0.351600  0.940500  1.0
  C  C2333  1  0.559500  0.810300  0.851600  1.0
  C  C2334  1  0.940500  0.189700  0.351600  1.0
  C  C2335  1  0.059500  0.689700  0.148400  1.0
  C  C2336  1  0.440500  0.310300  0.648400  1.0
  C  C2337  1  0.851600  0.559500  0.810300  1.0
  C  C2338  1  0.351600  0.940500  0.189700  1.0
  C  C2339  1  0.148400  0.059500  0.689700  1.0
  C  C2340  1  0.648400  0.440500  0.310300  1.0
  C  C2341  1  0.768800  0.845400  0.547200  1.0
  C  C2342  1  0.731200  0.154600  0.047200  1.0
  C  C2343  1  0.268800  0.654600  0.452800  1.0
  C  C2344  1  0.231200  0.345400  0.952800  1.0
  C  C2345  1  0.547200  0.768800  0.845400  1.0
  C  C2346  1  0.952800  0.231200  0.345400  1.0
  C  C2347  1  0.047200  0.731200  0.154600  1.0
  C  C2348  1  0.452800  0.268800  0.654600  1.0
  C  C2349  1  0.845400  0.547200  0.768800  1.0
  C  C2350  1  0.345400  0.952800  0.231200  1.0
  C  C2351  1  0.154600  0.047200  0.731200  1.0
  C  C2352  1  0.654600  0.452800  0.268800  1.0
  C  C2353  1  0.742500  0.830400  0.578600  1.0
  C  C2354  1  0.757500  0.169600  0.078600  1.0
  C  C2355  1  0.242500  0.669600  0.421400  1.0
  C  C2356  1  0.257500  0.330400  0.921400  1.0
  C  C2357  1  0.578600  0.742500  0.830400  1.0
  C  C2358  1  0.921400  0.257500  0.330400  1.0
  C  C2359  1  0.078600  0.757500  0.169600  1.0
  C  C2360  1  0.421400  0.242500  0.669600  1.0
  C  C2361  1  0.830400  0.578600  0.742500  1.0
  C  C2362  1  0.330400  0.921400  0.257500  1.0
  C  C2363  1  0.169600  0.078600  0.757500  1.0
  C  C2364  1  0.669600  0.421400  0.242500  1.0
  C  C2365  1  0.704800  0.852000  0.582800  1.0
  C  C2366  1  0.795200  0.148000  0.082800  1.0
  C  C2367  1  0.204800  0.648000  0.417200  1.0
  C  C2368  1  0.295200  0.352000  0.917200  1.0
  C  C2369  1  0.582800  0.704800  0.852000  1.0
  C  C2370  1  0.917200  0.295200  0.352000  1.0
  C  C2371  1  0.082800  0.795200  0.148000  1.0
  C  C2372  1  0.417200  0.204800  0.648000  1.0
  C  C2373  1  0.852000  0.582800  0.704800  1.0
  C  C2374  1  0.352000  0.917200  0.295200  1.0
  C  C2375  1  0.148000  0.082800  0.795200  1.0
  C  C2376  1  0.648000  0.417200  0.204800  1.0
  C  C2377  1  0.678200  0.836800  0.614100  1.0
  C  C2378  1  0.821800  0.163200  0.114100  1.0
  C  C2379  1  0.178200  0.663200  0.385900  1.0
  C  C2380  1  0.321800  0.336800  0.885900  1.0
  C  C2381  1  0.614100  0.678200  0.836800  1.0
  C  C2382  1  0.885900  0.321800  0.336800  1.0
  C  C2383  1  0.114100  0.821800  0.163200  1.0
  C  C2384  1  0.385900  0.178200  0.663200  1.0
  C  C2385  1  0.836800  0.614100  0.678200  1.0
  C  C2386  1  0.336800  0.885900  0.321800  1.0
  C  C2387  1  0.163200  0.114100  0.821800  1.0
  C  C2388  1  0.663200  0.385900  0.178200  1.0
  C  C2389  1  0.636000  0.847300  0.608600  1.0
  C  C2390  1  0.864000  0.152700  0.108600  1.0
  C  C2391  1  0.136000  0.652700  0.391400  1.0
  C  C2392  1  0.364000  0.347300  0.891400  1.0
  C  C2393  1  0.608600  0.636000  0.847300  1.0
  C  C2394  1  0.891400  0.364000  0.347300  1.0
  C  C2395  1  0.108600  0.864000  0.152700  1.0
  C  C2396  1  0.391400  0.136000  0.652700  1.0
  C  C2397  1  0.847300  0.608600  0.636000  1.0
  C  C2398  1  0.347300  0.891400  0.364000  1.0
  C  C2399  1  0.152700  0.108600  0.864000  1.0
  C  C2400  1  0.652700  0.391400  0.136000  1.0
  O  O2401  1  0.559100  0.083200  0.082400  1
  O  O2402  1  0.940900  0.916800  0.582400  1
  O  O2403  1  0.059100  0.416800  0.917600  1
  O  O2404  1  0.440900  0.583200  0.417600  1
  O  O2405  1  0.082400  0.559100  0.083200  1
  O  O2406  1  0.417600  0.440900  0.583200  1
  O  O2407  1  0.582400  0.940900  0.916800  1
  O  O2408  1  0.917600  0.059100  0.416800  1
  O  O2409  1  0.083200  0.082400  0.559100  1
  O  O2410  1  0.583200  0.417600  0.440900  1
  O  O2411  1  0.916800  0.582400  0.940900  1
  O  O2412  1  0.416800  0.917600  0.059100  1
  O  O2413  1  0.537000  0.076000  0.046200  1
  O  O2414  1  0.963000  0.924000  0.546200  1
  O  O2415  1  0.037000  0.424000  0.953800  1
  O  O2416  1  0.463000  0.576000  0.453800  1
  O  O2417  1  0.046200  0.537000  0.076000  1
  O  O2418  1  0.453800  0.463000  0.576000  1
  O  O2419  1  0.546200  0.963000  0.924000  1
  O  O2420  1  0.953800  0.037000  0.424000  1
  O  O2421  1  0.076000  0.046200  0.537000  1
  O  O2422  1  0.576000  0.453800  0.463000  1
  O  O2423  1  0.924000  0.546200  0.963000  1
  O  O2424  1  0.424000  0.953800  0.037000  1
  O  O2425  1  0.617200  0.254000  0.850900  1
  O  O2426  1  0.882800  0.746000  0.350900  1
  O  O2427  1  0.117200  0.246000  0.149100  1
  O  O2428  1  0.382800  0.754000  0.649100  1
  O  O2429  1  0.850900  0.617200  0.254000  1
  O  O2430  1  0.649100  0.382800  0.754000  1
  O  O2431  1  0.350900  0.882800  0.746000  1
  O  O2432  1  0.149100  0.117200  0.246000  1
  O  O2433  1  0.254000  0.850900  0.617200  1
  O  O2434  1  0.754000  0.649100  0.382800  1
  O  O2435  1  0.746000  0.350900  0.882800  1
  O  O2436  1  0.246000  0.149100  0.117200  1
  O  O2437  1  0.448700  0.253400  0.958400  1
  O  O2438  1  0.051300  0.746600  0.458400  1
  O  O2439  1  0.948700  0.246600  0.041600  1
  O  O2440  1  0.551300  0.753400  0.541600  1
  O  O2441  1  0.958400  0.448700  0.253400  1
  O  O2442  1  0.541600  0.551300  0.753400  1
  O  O2443  1  0.458400  0.051300  0.746600  1
  O  O2444  1  0.041600  0.948700  0.246600  1
  O  O2445  1  0.253400  0.958400  0.448700  1
  O  O2446  1  0.753400  0.541600  0.551300  1
  O  O2447  1  0.746600  0.458400  0.051300  1
  O  O2448  1  0.246600  0.041600  0.948700  1
  O  O2449  1  0.624700  0.150800  0.710900  1
  O  O2450  1  0.875300  0.849200  0.210900  1
  O  O2451  1  0.124700  0.349200  0.289100  1
  O  O2452  1  0.375300  0.650800  0.789100  1
  O  O2453  1  0.710900  0.624700  0.150800  1
  O  O2454  1  0.789100  0.375300  0.650800  1
  O  O2455  1  0.210900  0.875300  0.849200  1
  O  O2456  1  0.289100  0.124700  0.349200  1
  O  O2457  1  0.150800  0.710900  0.624700  1
  O  O2458  1  0.650800  0.789100  0.375300  1
  O  O2459  1  0.849200  0.210900  0.875300  1
  O  O2460  1  0.349200  0.289100  0.124700  1
  O  O2461  1  0.459400  0.050400  0.645200  1
  O  O2462  1  0.040600  0.949600  0.145200  1
  O  O2463  1  0.959400  0.449600  0.354800  1
  O  O2464  1  0.540600  0.550400  0.854800  1
  O  O2465  1  0.645200  0.459400  0.050400  1
  O  O2466  1  0.854800  0.540600  0.550400  1
  O  O2467  1  0.145200  0.040600  0.949600  1
  O  O2468  1  0.354800  0.959400  0.449600  1
  O  O2469  1  0.050400  0.645200  0.459400  1
  O  O2470  1  0.550400  0.854800  0.540600  1
  O  O2471  1  0.949600  0.145200  0.040600  1
  O  O2472  1  0.449600  0.354800  0.959400  1
  O  O2473  1  0.673400  0.299300  0.611100  1
  O  O2474  1  0.826600  0.700700  0.111100  1
  O  O2475  1  0.173400  0.200700  0.388900  1
  O  O2476  1  0.326600  0.799300  0.888900  1
  O  O2477  1  0.611100  0.673400  0.299300  1
  O  O2478  1  0.888900  0.326600  0.799300  1
  O  O2479  1  0.111100  0.826600  0.700700  1
  O  O2480  1  0.388900  0.173400  0.200700  1
  O  O2481  1  0.299300  0.611100  0.673400  1
  O  O2482  1  0.799300  0.888900  0.326600  1
  O  O2483  1  0.700700  0.111100  0.826600  1
  O  O2484  1  0.200700  0.388900  0.173400  1
  O  O2485  1  0.550900  0.344200  0.457700  1
  O  O2486  1  0.949100  0.655800  0.957700  1
  O  O2487  1  0.050900  0.155800  0.542300  1
  O  O2488  1  0.449100  0.844200  0.042300  1
  O  O2489  1  0.457700  0.550900  0.344200  1
  O  O2490  1  0.042300  0.449100  0.844200  1
  O  O2491  1  0.957700  0.949100  0.655800  1
  O  O2492  1  0.542300  0.050900  0.155800  1
  O  O2493  1  0.344200  0.457700  0.550900  1
  O  O2494  1  0.844200  0.042300  0.449100  1
  O  O2495  1  0.655800  0.957700  0.949100  1
  O  O2496  1  0.155800  0.542300  0.050900  1
  O  O2497  1  0.755700  0.170300  0.603700  1
  O  O2498  1  0.744300  0.829700  0.103700  1
  O  O2499  1  0.255700  0.329700  0.396300  1
  O  O2500  1  0.244300  0.670300  0.896300  1
  O  O2501  1  0.603700  0.755700  0.170300  1
  O  O2502  1  0.896300  0.244300  0.670300  1
  O  O2503  1  0.103700  0.744300  0.829700  1
  O  O2504  1  0.396300  0.255700  0.329700  1
  O  O2505  1  0.170300  0.603700  0.755700  1
  O  O2506  1  0.670300  0.896300  0.244300  1
  O  O2507  1  0.829700  0.103700  0.744300  1
  O  O2508  1  0.329700  0.396300  0.255700  1
  O  O2509  1  0.764500  0.052100  0.446900  1
  O  O2510  1  0.735500  0.947900  0.946900  1
  O  O2511  1  0.264500  0.447900  0.553100  1
  O  O2512  1  0.235500  0.552100  0.053100  1
  O  O2513  1  0.446900  0.764500  0.052100  1
  O  O2514  1  0.053100  0.235500  0.552100  1
  O  O2515  1  0.946900  0.735500  0.947900  1
  O  O2516  1  0.553100  0.264500  0.447900  1
  O  O2517  1  0.052100  0.446900  0.764500  1
  O  O2518  1  0.552100  0.053100  0.235500  1
  O  O2519  1  0.947900  0.946900  0.735500  1
  O  O2520  1  0.447900  0.553100  0.264500  1
  O  O2521  1  0.605700  0.270900  0.832000  1.0
  O  O2522  1  0.894300  0.729100  0.332000  1.0
  O  O2523  1  0.105700  0.229100  0.168000  1.0
  O  O2524  1  0.394300  0.770900  0.668000  1.0
  O  O2525  1  0.832000  0.605700  0.270900  1.0
  O  O2526  1  0.668000  0.394300  0.770900  1.0
  O  O2527  1  0.332000  0.894300  0.729100  1.0
  O  O2528  1  0.168000  0.105700  0.229100  1.0
  O  O2529  1  0.270900  0.832000  0.605700  1.0
  O  O2530  1  0.770900  0.668000  0.394300  1.0
  O  O2531  1  0.729100  0.332000  0.894300  1.0
  O  O2532  1  0.229100  0.168000  0.105700  1.0
  O  O2533  1  0.435800  0.255100  0.940200  1.0
  O  O2534  1  0.064200  0.744900  0.440200  1.0
  O  O2535  1  0.935800  0.244900  0.059800  1.0
  O  O2536  1  0.564200  0.755100  0.559800  1.0
  O  O2537  1  0.940200  0.435800  0.255100  1.0
  O  O2538  1  0.559800  0.564200  0.755100  1.0
  O  O2539  1  0.440200  0.064200  0.744900  1.0
  O  O2540  1  0.059800  0.935800  0.244900  1.0
  O  O2541  1  0.255100  0.940200  0.435800  1.0
  O  O2542  1  0.755100  0.559800  0.564200  1.0
  O  O2543  1  0.744900  0.440200  0.064200  1.0
  O  O2544  1  0.244900  0.059800  0.935800  1.0
  O  O2545  1  0.612900  0.166700  0.712100  1.0
  O  O2546  1  0.887100  0.833300  0.212100  1.0
  O  O2547  1  0.112900  0.333300  0.287900  1.0
  O  O2548  1  0.387100  0.666700  0.787900  1.0
  O  O2549  1  0.712100  0.612900  0.166700  1.0
  O  O2550  1  0.787900  0.387100  0.666700  1.0
  O  O2551  1  0.212100  0.887100  0.833300  1.0
  O  O2552  1  0.287900  0.112900  0.333300  1.0
  O  O2553  1  0.166700  0.712100  0.612900  1.0
  O  O2554  1  0.666700  0.787900  0.387100  1.0
  O  O2555  1  0.833300  0.212100  0.887100  1.0
  O  O2556  1  0.333300  0.287900  0.112900  1.0
  O  O2557  1  0.464400  0.037700  0.659200  1.0
  O  O2558  1  0.035600  0.962300  0.159200  1.0
  O  O2559  1  0.964400  0.462300  0.340800  1.0
  O  O2560  1  0.535600  0.537700  0.840800  1.0
  O  O2561  1  0.659200  0.464400  0.037700  1.0
  O  O2562  1  0.840800  0.535600  0.537700  1.0
  O  O2563  1  0.159200  0.035600  0.962300  1.0
  O  O2564  1  0.340800  0.964400  0.462300  1.0
  O  O2565  1  0.037700  0.659200  0.464400  1.0
  O  O2566  1  0.537700  0.840800  0.535600  1.0
  O  O2567  1  0.962300  0.159200  0.035600  1.0
  O  O2568  1  0.462300  0.340800  0.964400  1.0
  O  O2569  1  0.652800  0.299100  0.627500  1.0
  O  O2570  1  0.847200  0.700900  0.127500  1.0
  O  O2571  1  0.152800  0.200900  0.372500  1.0
  O  O2572  1  0.347200  0.799100  0.872500  1.0
  O  O2573  1  0.627500  0.652800  0.299100  1.0
  O  O2574  1  0.872500  0.347200  0.799100  1.0
  O  O2575  1  0.127500  0.847200  0.700900  1.0
  O  O2576  1  0.372500  0.152800  0.200900  1.0
  O  O2577  1  0.299100  0.627500  0.652800  1.0
  O  O2578  1  0.799100  0.872500  0.347200  1.0
  O  O2579  1  0.700900  0.127500  0.847200  1.0
  O  O2580  1  0.200900  0.372500  0.152800  1.0
  O  O2581  1  0.540100  0.352800  0.468800  1.0
  O  O2582  1  0.959900  0.647200  0.968800  1.0
  O  O2583  1  0.040100  0.147200  0.531200  1.0
  O  O2584  1  0.459900  0.852800  0.031200  1.0
  O  O2585  1  0.468800  0.540100  0.352800  1.0
  O  O2586  1  0.031200  0.459900  0.852800  1.0
  O  O2587  1  0.968800  0.959900  0.647200  1.0
  O  O2588  1  0.531200  0.040100  0.147200  1.0
  O  O2589  1  0.352800  0.468800  0.540100  1.0
  O  O2590  1  0.852800  0.031200  0.459900  1.0
  O  O2591  1  0.647200  0.968800  0.959900  1.0
  O  O2592  1  0.147200  0.531200  0.040100  1.0
  O  O2593  1  0.770900  0.153500  0.614500  1.0
  O  O2594  1  0.729100  0.846500  0.114500  1.0
  O  O2595  1  0.270900  0.346500  0.385500  1.0
  O  O2596  1  0.229100  0.653500  0.885500  1.0
  O  O2597  1  0.614500  0.770900  0.153500  1.0
  O  O2598  1  0.885500  0.229100  0.653500  1.0
  O  O2599  1  0.114500  0.729100  0.846500  1.0
  O  O2600  1  0.385500  0.270900  0.346500  1.0
  O  O2601  1  0.153500  0.614500  0.770900  1.0
  O  O2602  1  0.653500  0.885500  0.229100  1.0
  O  O2603  1  0.846500  0.114500  0.729100  1.0
  O  O2604  1  0.346500  0.385500  0.270900  1.0
  O  O2605  1  0.747200  0.046800  0.444300  1.0
  O  O2606  1  0.752800  0.953200  0.944300  1.0
  O  O2607  1  0.247200  0.453200  0.555700  1.0
  O  O2608  1  0.252800  0.546800  0.055700  1.0
  O  O2609  1  0.444300  0.747200  0.046800  1.0
  O  O2610  1  0.055700  0.252800  0.546800  1.0
  O  O2611  1  0.944300  0.752800  0.953200  1.0
  O  O2612  1  0.555700  0.247200  0.453200  1.0
  O  O2613  1  0.046800  0.444300  0.747200  1.0
  O  O2614  1  0.546800  0.055700  0.252800  1.0
  O  O2615  1  0.953200  0.944300  0.752800  1.0
  O  O2616  1  0.453200  0.555700  0.247200  1.0
  O  O2617  1  0.533500  0.147000  0.725500  1.0
  O  O2618  1  0.966500  0.853000  0.225500  1.0
  O  O2619  1  0.033500  0.353000  0.274500  1.0
  O  O2620  1  0.466500  0.647000  0.774500  1.0
  O  O2621  1  0.725500  0.533500  0.147000  1.0
  O  O2622  1  0.774500  0.466500  0.647000  1.0
  O  O2623  1  0.225500  0.966500  0.853000  1.0
  O  O2624  1  0.274500  0.033500  0.353000  1.0
  O  O2625  1  0.147000  0.725500  0.533500  1.0
  O  O2626  1  0.647000  0.774500  0.466500  1.0
  O  O2627  1  0.853000  0.225500  0.966500  1.0
  O  O2628  1  0.353000  0.274500  0.033500  1.0
  O  O2629  1  0.485500  0.111600  0.706400  1.0
  O  O2630  1  0.014500  0.888400  0.206400  1.0
  O  O2631  1  0.985500  0.388400  0.293600  1.0
  O  O2632  1  0.514500  0.611600  0.793600  1.0
  O  O2633  1  0.706400  0.485500  0.111600  1.0
  O  O2634  1  0.793600  0.514500  0.611600  1.0
  O  O2635  1  0.206400  0.014500  0.888400  1.0
  O  O2636  1  0.293600  0.985500  0.388400  1.0
  O  O2637  1  0.111600  0.706400  0.485500  1.0
  O  O2638  1  0.611600  0.793600  0.514500  1.0
  O  O2639  1  0.888400  0.206400  0.014500  1.0
  O  O2640  1  0.388400  0.293600  0.985500  1.0
  O  O2641  1  0.525600  0.233600  0.835600  1.0
  O  O2642  1  0.974400  0.766400  0.335600  1.0
  O  O2643  1  0.025600  0.266400  0.164400  1.0
  O  O2644  1  0.474400  0.733600  0.664400  1.0
  O  O2645  1  0.835600  0.525600  0.233600  1.0
  O  O2646  1  0.664400  0.474400  0.733600  1.0
  O  O2647  1  0.335600  0.974400  0.766400  1.0
  O  O2648  1  0.164400  0.025600  0.266400  1.0
  O  O2649  1  0.233600  0.835600  0.525600  1.0
  O  O2650  1  0.733600  0.664400  0.474400  1.0
  O  O2651  1  0.766400  0.335600  0.974400  1.0
  O  O2652  1  0.266400  0.164400  0.025600  1.0
  O  O2653  1  0.471600  0.237900  0.866300  1.0
  O  O2654  1  0.028400  0.762100  0.366300  1.0
  O  O2655  1  0.971600  0.262100  0.133700  1.0
  O  O2656  1  0.528400  0.737900  0.633700  1.0
  O  O2657  1  0.866300  0.471600  0.237900  1.0
  O  O2658  1  0.633700  0.528400  0.737900  1.0
  O  O2659  1  0.366300  0.028400  0.762100  1.0
  O  O2660  1  0.133700  0.971600  0.262100  1.0
  O  O2661  1  0.237900  0.866300  0.471600  1.0
  O  O2662  1  0.737900  0.633700  0.528400  1.0
  O  O2663  1  0.762100  0.366300  0.028400  1.0
  O  O2664  1  0.262100  0.133700  0.971600  1.0
  O  O2665  1  0.377400  0.156800  0.792100  1.0
  O  O2666  1  0.122600  0.843200  0.292100  1.0
  O  O2667  1  0.877400  0.343200  0.207900  1.0
  O  O2668  1  0.622600  0.656800  0.707900  1.0
  O  O2669  1  0.792100  0.377400  0.156800  1.0
  O  O2670  1  0.707900  0.622600  0.656800  1.0
  O  O2671  1  0.292100  0.122600  0.843200  1.0
  O  O2672  1  0.207900  0.877400  0.343200  1.0
  O  O2673  1  0.156800  0.792100  0.377400  1.0
  O  O2674  1  0.656800  0.707900  0.622600  1.0
  O  O2675  1  0.843200  0.292100  0.122600  1.0
  O  O2676  1  0.343200  0.207900  0.877400  1.0
  O  O2677  1  0.689400  0.389000  0.019400  1.0
  O  O2678  1  0.810600  0.611000  0.519400  1.0
  O  O2679  1  0.189400  0.111000  0.980600  1.0
  O  O2680  1  0.310600  0.889000  0.480600  1.0
  O  O2681  1  0.019400  0.689400  0.389000  1.0
  O  O2682  1  0.480600  0.310600  0.889000  1.0
  O  O2683  1  0.519400  0.810600  0.611000  1.0
  O  O2684  1  0.980600  0.189400  0.111000  1.0
  O  O2685  1  0.389000  0.019400  0.689400  1.0
  O  O2686  1  0.889000  0.480600  0.310600  1.0
  O  O2687  1  0.611000  0.519400  0.810600  1.0
  O  O2688  1  0.111000  0.980600  0.189400  1.0
  O  O2689  1  0.689500  0.357700  0.963600  1.0
  O  O2690  1  0.810500  0.642300  0.463600  1.0
  O  O2691  1  0.189500  0.142300  0.036400  1.0
  O  O2692  1  0.310500  0.857700  0.536400  1.0
  O  O2693  1  0.963600  0.689500  0.357700  1.0
  O  O2694  1  0.536400  0.310500  0.857700  1.0
  O  O2695  1  0.463600  0.810500  0.642300  1.0
  O  O2696  1  0.036400  0.189500  0.142300  1.0
  O  O2697  1  0.357700  0.963600  0.689500  1.0
  O  O2698  1  0.857700  0.536400  0.310500  1.0
  O  O2699  1  0.642300  0.463600  0.810500  1.0
  O  O2700  1  0.142300  0.036400  0.189500  1.0
  O  O2701  1  0.575300  0.289100  0.917400  1.0
  O  O2702  1  0.924700  0.710900  0.417400  1.0
  O  O2703  1  0.075300  0.210900  0.082600  1.0
  O  O2704  1  0.424700  0.789100  0.582600  1.0
  O  O2705  1  0.917400  0.575300  0.289100  1.0
  O  O2706  1  0.582600  0.424700  0.789100  1.0
  O  O2707  1  0.417400  0.924700  0.710900  1.0
  O  O2708  1  0.082600  0.075300  0.210900  1.0
  O  O2709  1  0.289100  0.917400  0.575300  1.0
  O  O2710  1  0.789100  0.582600  0.424700  1.0
  O  O2711  1  0.710900  0.417400  0.924700  1.0
  O  O2712  1  0.210900  0.082600  0.075300  1.0
  O  O2713  1  0.523700  0.291300  0.953200  1.0
  O  O2714  1  0.976300  0.708700  0.453200  1.0
  O  O2715  1  0.023700  0.208700  0.046800  1.0
  O  O2716  1  0.476300  0.791300  0.546800  1.0
  O  O2717  1  0.953200  0.523700  0.291300  1.0
  O  O2718  1  0.546800  0.476300  0.791300  1.0
  O  O2719  1  0.453200  0.976300  0.708700  1.0
  O  O2720  1  0.046800  0.023700  0.208700  1.0
  O  O2721  1  0.291300  0.953200  0.523700  1.0
  O  O2722  1  0.791300  0.546800  0.476300  1.0
  O  O2723  1  0.708700  0.453200  0.976300  1.0
  O  O2724  1  0.208700  0.046800  0.023700  1.0
  O  O2725  1  0.563300  0.358800  0.077800  1.0
  O  O2726  1  0.936700  0.641200  0.577800  1.0
  O  O2727  1  0.063300  0.141200  0.922200  1.0
  O  O2728  1  0.436700  0.858800  0.422200  1.0
  O  O2729  1  0.077800  0.563300  0.358800  1.0
  O  O2730  1  0.422200  0.436700  0.858800  1.0
  O  O2731  1  0.577800  0.936700  0.641200  1.0
  O  O2732  1  0.922200  0.063300  0.141200  1.0
  O  O2733  1  0.358800  0.077800  0.563300  1.0
  O  O2734  1  0.858800  0.422200  0.436700  1.0
  O  O2735  1  0.641200  0.577800  0.936700  1.0
  O  O2736  1  0.141200  0.922200  0.063300  1.0
  O  O2737  1  0.629500  0.048500  0.937600  1.0
  O  O2738  1  0.870500  0.951500  0.437600  1.0
  O  O2739  1  0.129500  0.451500  0.062400  1.0
  O  O2740  1  0.370500  0.548500  0.562400  1.0
  O  O2741  1  0.937600  0.629500  0.048500  1.0
  O  O2742  1  0.562400  0.370500  0.548500  1.0
  O  O2743  1  0.437600  0.870500  0.951500  1.0
  O  O2744  1  0.062400  0.129500  0.451500  1.0
  O  O2745  1  0.048500  0.937600  0.629500  1.0
  O  O2746  1  0.548500  0.562400  0.370500  1.0
  O  O2747  1  0.951500  0.437600  0.870500  1.0
  O  O2748  1  0.451500  0.062400  0.129500  1.0
  O  O2749  1  0.649300  0.097100  0.902600  1.0
  O  O2750  1  0.850700  0.902900  0.402600  1.0
  O  O2751  1  0.149300  0.402900  0.097400  1.0
  O  O2752  1  0.350700  0.597100  0.597400  1.0
  O  O2753  1  0.902600  0.649300  0.097100  1.0
  O  O2754  1  0.597400  0.350700  0.597100  1.0
  O  O2755  1  0.402600  0.850700  0.902900  1.0
  O  O2756  1  0.097400  0.149300  0.402900  1.0
  O  O2757  1  0.097100  0.902600  0.649300  1.0
  O  O2758  1  0.597100  0.597400  0.350700  1.0
  O  O2759  1  0.902900  0.402600  0.850700  1.0
  O  O2760  1  0.402900  0.097400  0.149300  1.0
  O  O2761  1  0.569000  0.214100  0.898800  1.0
  O  O2762  1  0.931000  0.785900  0.398800  1.0
  O  O2763  1  0.069000  0.285900  0.101200  1.0
  O  O2764  1  0.431000  0.714100  0.601200  1.0
  O  O2765  1  0.898800  0.569000  0.214100  1.0
  O  O2766  1  0.601200  0.431000  0.714100  1.0
  O  O2767  1  0.398800  0.931000  0.785900  1.0
  O  O2768  1  0.101200  0.069000  0.285900  1.0
  O  O2769  1  0.214100  0.898800  0.569000  1.0
  O  O2770  1  0.714100  0.601200  0.431000  1.0
  O  O2771  1  0.785900  0.398800  0.931000  1.0
  O  O2772  1  0.285900  0.101200  0.069000  1.0
  O  O2773  1  0.514000  0.214100  0.933700  1.0
  O  O2774  1  0.986000  0.785900  0.433700  1.0
  O  O2775  1  0.014000  0.285900  0.066300  1.0
  O  O2776  1  0.486000  0.714100  0.566300  1.0
  O  O2777  1  0.933700  0.514000  0.214100  1.0
  O  O2778  1  0.566300  0.486000  0.714100  1.0
  O  O2779  1  0.433700  0.986000  0.785900  1.0
  O  O2780  1  0.066300  0.014000  0.285900  1.0
  O  O2781  1  0.214100  0.933700  0.514000  1.0
  O  O2782  1  0.714100  0.566300  0.486000  1.0
  O  O2783  1  0.785900  0.433700  0.986000  1.0
  O  O2784  1  0.285900  0.066300  0.014000  1.0
  O  O2785  1  0.524300  0.103800  0.020500  1.0
  O  O2786  1  0.975700  0.896200  0.520500  1.0
  O  O2787  1  0.024300  0.396200  0.979500  1.0
  O  O2788  1  0.475700  0.603800  0.479500  1.0
  O  O2789  1  0.020500  0.524300  0.103800  1.0
  O  O2790  1  0.479500  0.475700  0.603800  1.0
  O  O2791  1  0.520500  0.975700  0.896200  1.0
  O  O2792  1  0.979500  0.024300  0.396200  1.0
  O  O2793  1  0.103800  0.020500  0.524300  1.0
  O  O2794  1  0.603800  0.479500  0.475700  1.0
  O  O2795  1  0.896200  0.520500  0.975700  1.0
  O  O2796  1  0.396200  0.979500  0.024300  1.0
  O  O2797  1  0.630000  0.001800  0.878100  1.0
  O  O2798  1  0.870000  0.998200  0.378100  1.0
  O  O2799  1  0.130000  0.498200  0.121900  1.0
  O  O2800  1  0.370000  0.501800  0.621900  1.0
  O  O2801  1  0.878100  0.630000  0.001800  1.0
  O  O2802  1  0.621900  0.370000  0.501800  1.0
  O  O2803  1  0.378100  0.870000  0.998200  1.0
  O  O2804  1  0.121900  0.130000  0.498200  1.0
  O  O2805  1  0.001800  0.878100  0.630000  1.0
  O  O2806  1  0.501800  0.621900  0.370000  1.0
  O  O2807  1  0.998200  0.378100  0.870000  1.0
  O  O2808  1  0.498200  0.121900  0.130000  1.0
  O  O2809  1  0.649700  0.053400  0.842500  1.0
  O  O2810  1  0.850300  0.946600  0.342500  1.0
  O  O2811  1  0.149700  0.446600  0.157500  1.0
  O  O2812  1  0.350300  0.553400  0.657500  1.0
  O  O2813  1  0.842500  0.649700  0.053400  1.0
  O  O2814  1  0.657500  0.350300  0.553400  1.0
  O  O2815  1  0.342500  0.850300  0.946600  1.0
  O  O2816  1  0.157500  0.149700  0.446600  1.0
  O  O2817  1  0.053400  0.842500  0.649700  1.0
  O  O2818  1  0.553400  0.657500  0.350300  1.0
  O  O2819  1  0.946600  0.342500  0.850300  1.0
  O  O2820  1  0.446600  0.157500  0.149700  1.0
  O  O2821  1  0.579200  0.080300  0.724900  1.0
  O  O2822  1  0.920800  0.919700  0.224900  1.0
  O  O2823  1  0.079200  0.419700  0.275100  1.0
  O  O2824  1  0.420800  0.580300  0.775100  1.0
  O  O2825  1  0.724900  0.579200  0.080300  1.0
  O  O2826  1  0.775100  0.420800  0.580300  1.0
  O  O2827  1  0.224900  0.920800  0.919700  1.0
  O  O2828  1  0.275100  0.079200  0.419700  1.0
  O  O2829  1  0.080300  0.724900  0.579200  1.0
  O  O2830  1  0.580300  0.775100  0.420800  1.0
  O  O2831  1  0.919700  0.224900  0.920800  1.0
  O  O2832  1  0.419700  0.275100  0.079200  1.0
  O  O2833  1  0.526700  0.048800  0.706200  1.0
  O  O2834  1  0.973300  0.951200  0.206200  1.0
  O  O2835  1  0.026700  0.451200  0.293800  1.0
  O  O2836  1  0.473300  0.548800  0.793800  1.0
  O  O2837  1  0.706200  0.526700  0.048800  1.0
  O  O2838  1  0.793800  0.473300  0.548800  1.0
  O  O2839  1  0.206200  0.973300  0.951200  1.0
  O  O2840  1  0.293800  0.026700  0.451200  1.0
  O  O2841  1  0.048800  0.706200  0.526700  1.0
  O  O2842  1  0.548800  0.793800  0.473300  1.0
  O  O2843  1  0.951200  0.206200  0.973300  1.0
  O  O2844  1  0.451200  0.293800  0.026700  1.0
  O  O2845  1  0.530900  0.932300  0.793600  1.0
  O  O2846  1  0.969100  0.067700  0.293600  1.0
  O  O2847  1  0.030900  0.567700  0.206400  1.0
  O  O2848  1  0.469100  0.432300  0.706400  1.0
  O  O2849  1  0.793600  0.530900  0.932300  1.0
  O  O2850  1  0.706400  0.469100  0.432300  1.0
  O  O2851  1  0.293600  0.969100  0.067700  1.0
  O  O2852  1  0.206400  0.030900  0.567700  1.0
  O  O2853  1  0.932300  0.793600  0.530900  1.0
  O  O2854  1  0.432300  0.706400  0.469100  1.0
  O  O2855  1  0.067700  0.293600  0.969100  1.0
  O  O2856  1  0.567700  0.206400  0.030900  1.0
  O  O2857  1  0.499900  0.124300  0.631600  1.0
  O  O2858  1  0.000100  0.875700  0.131600  1.0
  O  O2859  1  0.999900  0.375700  0.368400  1.0
  O  O2860  1  0.500100  0.624300  0.868400  1.0
  O  O2861  1  0.631600  0.499900  0.124300  1.0
  O  O2862  1  0.868400  0.500100  0.624300  1.0
  O  O2863  1  0.131600  0.000100  0.875700  1.0
  O  O2864  1  0.368400  0.999900  0.375700  1.0
  O  O2865  1  0.124300  0.631600  0.499900  1.0
  O  O2866  1  0.624300  0.868400  0.500100  1.0
  O  O2867  1  0.875700  0.131600  0.000100  1.0
  O  O2868  1  0.375700  0.368400  0.999900  1.0
  O  O2869  1  0.548900  0.158200  0.645500  1.0
  O  O2870  1  0.951100  0.841800  0.145500  1.0
  O  O2871  1  0.048900  0.341800  0.354500  1.0
  O  O2872  1  0.451100  0.658200  0.854500  1.0
  O  O2873  1  0.645500  0.548900  0.158200  1.0
  O  O2874  1  0.854500  0.451100  0.658200  1.0
  O  O2875  1  0.145500  0.951100  0.841800  1.0
  O  O2876  1  0.354500  0.048900  0.341800  1.0
  O  O2877  1  0.158200  0.645500  0.548900  1.0
  O  O2878  1  0.658200  0.854500  0.451100  1.0
  O  O2879  1  0.841800  0.145500  0.951100  1.0
  O  O2880  1  0.341800  0.354500  0.048900  1.0
  O  O2881  1  0.587300  0.273500  0.577200  1.0
  O  O2882  1  0.912700  0.726500  0.077200  1.0
  O  O2883  1  0.087300  0.226500  0.422800  1.0
  O  O2884  1  0.412700  0.773500  0.922800  1.0
  O  O2885  1  0.577200  0.587300  0.273500  1.0
  O  O2886  1  0.922800  0.412700  0.773500  1.0
  O  O2887  1  0.077200  0.912700  0.726500  1.0
  O  O2888  1  0.422800  0.087300  0.226500  1.0
  O  O2889  1  0.273500  0.577200  0.587300  1.0
  O  O2890  1  0.773500  0.922800  0.412700  1.0
  O  O2891  1  0.726500  0.077200  0.912700  1.0
  O  O2892  1  0.226500  0.422800  0.087300  1.0
  O  O2893  1  0.546100  0.291200  0.528600  1.0
  O  O2894  1  0.953900  0.708800  0.028600  1.0
  O  O2895  1  0.046100  0.208800  0.471400  1.0
  O  O2896  1  0.453900  0.791200  0.971400  1.0
  O  O2897  1  0.528600  0.546100  0.291200  1.0
  O  O2898  1  0.971400  0.453900  0.791200  1.0
  O  O2899  1  0.028600  0.953900  0.708800  1.0
  O  O2900  1  0.471400  0.046100  0.208800  1.0
  O  O2901  1  0.291200  0.528600  0.546100  1.0
  O  O2902  1  0.791200  0.971400  0.453900  1.0
  O  O2903  1  0.708800  0.028600  0.953900  1.0
  O  O2904  1  0.208800  0.471400  0.046100  1.0
  O  O2905  1  0.432500  0.200600  0.540400  1.0
  O  O2906  1  0.067500  0.799400  0.040400  1.0
  O  O2907  1  0.932500  0.299400  0.459600  1.0
  O  O2908  1  0.567500  0.700600  0.959600  1.0
  O  O2909  1  0.540400  0.432500  0.200600  1.0
  O  O2910  1  0.959600  0.567500  0.700600  1.0
  O  O2911  1  0.040400  0.067500  0.799400  1.0
  O  O2912  1  0.459600  0.932500  0.299400  1.0
  O  O2913  1  0.200600  0.540400  0.432500  1.0
  O  O2914  1  0.700600  0.959600  0.567500  1.0
  O  O2915  1  0.799400  0.040400  0.067500  1.0
  O  O2916  1  0.299400  0.459600  0.932500  1.0
  O  O2917  1  0.733000  0.128800  0.472400  1.0
  O  O2918  1  0.767000  0.871200  0.972400  1.0
  O  O2919  1  0.233000  0.371200  0.527600  1.0
  O  O2920  1  0.267000  0.628800  0.027600  1.0
  O  O2921  1  0.472400  0.733000  0.128800  1.0
  O  O2922  1  0.027600  0.267000  0.628800  1.0
  O  O2923  1  0.972400  0.767000  0.871200  1.0
  O  O2924  1  0.527600  0.233000  0.371200  1.0
  O  O2925  1  0.128800  0.472400  0.733000  1.0
  O  O2926  1  0.628800  0.027600  0.267000  1.0
  O  O2927  1  0.871200  0.972400  0.767000  1.0
  O  O2928  1  0.371200  0.527600  0.233000  1.0
  O  O2929  1  0.732600  0.163700  0.530100  1.0
  O  O2930  1  0.767400  0.836300  0.030100  1.0
  O  O2931  1  0.232600  0.336300  0.469900  1.0
  O  O2932  1  0.267400  0.663700  0.969900  1.0
  O  O2933  1  0.530100  0.732600  0.163700  1.0
  O  O2934  1  0.969900  0.267400  0.663700  1.0
  O  O2935  1  0.030100  0.767400  0.836300  1.0
  O  O2936  1  0.469900  0.232600  0.336300  1.0
  O  O2937  1  0.163700  0.530100  0.732600  1.0
  O  O2938  1  0.663700  0.969900  0.267400  1.0
  O  O2939  1  0.836300  0.030100  0.767400  1.0
  O  O2940  1  0.336300  0.469900  0.232600  1.0
  O  O2941  1  0.650700  0.276900  0.538400  1.0
  O  O2942  1  0.849300  0.723100  0.038400  1.0
  O  O2943  1  0.150700  0.223100  0.461600  1.0
  O  O2944  1  0.349300  0.776900  0.961600  1.0
  O  O2945  1  0.538400  0.650700  0.276900  1.0
  O  O2946  1  0.961600  0.349300  0.776900  1.0
  O  O2947  1  0.038400  0.849300  0.723100  1.0
  O  O2948  1  0.461600  0.150700  0.223100  1.0
  O  O2949  1  0.276900  0.538400  0.650700  1.0
  O  O2950  1  0.776900  0.961600  0.349300  1.0
  O  O2951  1  0.723100  0.038400  0.849300  1.0
  O  O2952  1  0.223100  0.461600  0.150700  1.0
  O  O2953  1  0.615900  0.292900  0.484100  1.0
  O  O2954  1  0.884100  0.707100  0.984100  1.0
  O  O2955  1  0.115900  0.207100  0.515900  1.0
  O  O2956  1  0.384100  0.792900  0.015900  1.0
  O  O2957  1  0.484100  0.615900  0.292900  1.0
  O  O2958  1  0.015900  0.384100  0.792900  1.0
  O  O2959  1  0.984100  0.884100  0.707100  1.0
  O  O2960  1  0.515900  0.115900  0.207100  1.0
  O  O2961  1  0.292900  0.484100  0.615900  1.0
  O  O2962  1  0.792900  0.015900  0.384100  1.0
  O  O2963  1  0.707100  0.984100  0.884100  1.0
  O  O2964  1  0.207100  0.515900  0.115900  1.0
  O  O2965  1  0.682800  0.229700  0.375700  1.0
  O  O2966  1  0.817200  0.770300  0.875700  1.0
  O  O2967  1  0.182800  0.270300  0.624300  1.0
  O  O2968  1  0.317200  0.729700  0.124300  1.0
  O  O2969  1  0.375700  0.682800  0.229700  1.0
  O  O2970  1  0.124300  0.317200  0.729700  1.0
  O  O2971  1  0.875700  0.817200  0.770300  1.0
  O  O2972  1  0.624300  0.182800  0.270300  1.0
  O  O2973  1  0.229700  0.375700  0.682800  1.0
  O  O2974  1  0.729700  0.124300  0.317200  1.0
  O  O2975  1  0.770300  0.875700  0.817200  1.0
  O  O2976  1  0.270300  0.624300  0.182800  1.0
  O  O2977  1  0.600200  0.095000  0.649500  1.0
  O  O2978  1  0.899800  0.905000  0.149500  1.0
  O  O2979  1  0.100200  0.405000  0.350500  1.0
  O  O2980  1  0.399800  0.595000  0.850500  1.0
  O  O2981  1  0.649500  0.600200  0.095000  1.0
  O  O2982  1  0.850500  0.399800  0.595000  1.0
  O  O2983  1  0.149500  0.899800  0.905000  1.0
  O  O2984  1  0.350500  0.100200  0.405000  1.0
  O  O2985  1  0.095000  0.649500  0.600200  1.0
  O  O2986  1  0.595000  0.850500  0.399800  1.0
  O  O2987  1  0.905000  0.149500  0.899800  1.0
  O  O2988  1  0.405000  0.350500  0.100200  1.0
  O  O2989  1  0.549000  0.057100  0.633500  1.0
  O  O2990  1  0.951000  0.942900  0.133500  1.0
  O  O2991  1  0.049000  0.442900  0.366500  1.0
  O  O2992  1  0.451000  0.557100  0.866500  1.0
  O  O2993  1  0.633500  0.549000  0.057100  1.0
  O  O2994  1  0.866500  0.451000  0.557100  1.0
  O  O2995  1  0.133500  0.951000  0.942900  1.0
  O  O2996  1  0.366500  0.049000  0.442900  1.0
  O  O2997  1  0.057100  0.633500  0.549000  1.0
  O  O2998  1  0.557100  0.866500  0.451000  1.0
  O  O2999  1  0.942900  0.133500  0.951000  1.0
  O  O3000  1  0.442900  0.366500  0.049000  1.0
  O  O3001  1  0.712200  0.101100  0.569100  1.0
  O  O3002  1  0.787800  0.898900  0.069100  1.0
  O  O3003  1  0.212200  0.398900  0.430900  1.0
  O  O3004  1  0.287800  0.601100  0.930900  1.0
  O  O3005  1  0.569100  0.712200  0.101100  1.0
  O  O3006  1  0.930900  0.287800  0.601100  1.0
  O  O3007  1  0.069100  0.787800  0.898900  1.0
  O  O3008  1  0.430900  0.212200  0.398900  1.0
  O  O3009  1  0.101100  0.569100  0.712200  1.0
  O  O3010  1  0.601100  0.930900  0.287800  1.0
  O  O3011  1  0.898900  0.069100  0.787800  1.0
  O  O3012  1  0.398900  0.430900  0.212200  1.0
  O  O3013  1  0.713300  0.068600  0.513500  1.0
  O  O3014  1  0.786700  0.931400  0.013500  1.0
  O  O3015  1  0.213300  0.431400  0.486500  1.0
  O  O3016  1  0.286700  0.568600  0.986500  1.0
  O  O3017  1  0.513500  0.713300  0.068600  1.0
  O  O3018  1  0.986500  0.286700  0.568600  1.0
  O  O3019  1  0.013500  0.786700  0.931400  1.0
  O  O3020  1  0.486500  0.213300  0.431400  1.0
  O  O3021  1  0.068600  0.513500  0.713300  1.0
  O  O3022  1  0.568600  0.986500  0.286700  1.0
  O  O3023  1  0.931400  0.013500  0.786700  1.0
  O  O3024  1  0.431400  0.486500  0.213300  1.0
  O  O3025  1  0.590000  0.988300  0.508700  1.0
  O  O3026  1  0.910000  0.011700  0.008700  1.0
  O  O3027  1  0.090000  0.511700  0.491300  1.0
  O  O3028  1  0.410000  0.488300  0.991300  1.0
  O  O3029  1  0.508700  0.590000  0.988300  1.0
  O  O3030  1  0.991300  0.410000  0.488300  1.0
  O  O3031  1  0.008700  0.910000  0.011700  1.0
  O  O3032  1  0.491300  0.090000  0.511700  1.0
  O  O3033  1  0.988300  0.508700  0.590000  1.0
  O  O3034  1  0.488300  0.991300  0.410000  1.0
  O  O3035  1  0.011700  0.008700  0.910000  1.0
  O  O3036  1  0.511700  0.491300  0.090000  1.0
  O  O3037  1  0.851200  0.035700  0.690200  1.0
  O  O3038  1  0.648800  0.964300  0.190200  1.0
  O  O3039  1  0.351200  0.464300  0.309800  1.0
  O  O3040  1  0.148800  0.535700  0.809800  1.0
  O  O3041  1  0.690200  0.851200  0.035700  1.0
  O  O3042  1  0.809800  0.148800  0.535700  1.0
  O  O3043  1  0.190200  0.648800  0.964300  1.0
  O  O3044  1  0.309800  0.351200  0.464300  1.0
  O  O3045  1  0.035700  0.690200  0.851200  1.0
  O  O3046  1  0.535700  0.809800  0.148800  1.0
  O  O3047  1  0.964300  0.190200  0.648800  1.0
  O  O3048  1  0.464300  0.309800  0.351200  1.0
  O  O3049  1  0.891700  0.986400  0.687100  1.0
  O  O3050  1  0.608300  0.013600  0.187100  1.0
  O  O3051  1  0.391700  0.513600  0.312900  1.0
  O  O3052  1  0.108300  0.486400  0.812900  1.0
  O  O3053  1  0.687100  0.891700  0.986400  1.0
  O  O3054  1  0.812900  0.108300  0.486400  1.0
  O  O3055  1  0.187100  0.608300  0.013600  1.0
  O  O3056  1  0.312900  0.391700  0.513600  1.0
  O  O3057  1  0.986400  0.687100  0.891700  1.0
  O  O3058  1  0.486400  0.812900  0.108300  1.0
  O  O3059  1  0.013600  0.187100  0.608300  1.0
  O  O3060  1  0.513600  0.312900  0.391700  1.0
  O  O3061  1  0.788600  0.080400  0.579100  1.0
  O  O3062  1  0.711400  0.919600  0.079100  1.0
  O  O3063  1  0.288600  0.419600  0.420900  1.0
  O  O3064  1  0.211400  0.580400  0.920900  1.0
  O  O3065  1  0.579100  0.788600  0.080400  1.0
  O  O3066  1  0.920900  0.211400  0.580400  1.0
  O  O3067  1  0.079100  0.711400  0.919600  1.0
  O  O3068  1  0.420900  0.288600  0.419600  1.0
  O  O3069  1  0.080400  0.579100  0.788600  1.0
  O  O3070  1  0.580400  0.920900  0.211400  1.0
  O  O3071  1  0.919600  0.079100  0.711400  1.0
  O  O3072  1  0.419600  0.420900  0.288600  1.0
  O  O3073  1  0.787500  0.049000  0.520900  1.0
  O  O3074  1  0.712500  0.951000  0.020900  1.0
  O  O3075  1  0.287500  0.451000  0.479100  1.0
  O  O3076  1  0.212500  0.549000  0.979100  1.0
  O  O3077  1  0.520900  0.787500  0.049000  1.0
  O  O3078  1  0.979100  0.212500  0.549000  1.0
  O  O3079  1  0.020900  0.712500  0.951000  1.0
  O  O3080  1  0.479100  0.287500  0.451000  1.0
  O  O3081  1  0.049000  0.520900  0.787500  1.0
  O  O3082  1  0.549000  0.979100  0.212500  1.0
  O  O3083  1  0.951000  0.020900  0.712500  1.0
  O  O3084  1  0.451000  0.479100  0.287500  1.0
  O  O3085  1  0.864600  0.932700  0.555800  1.0
  O  O3086  1  0.635400  0.067300  0.055800  1.0
  O  O3087  1  0.364600  0.567300  0.444200  1.0
  O  O3088  1  0.135400  0.432700  0.944200  1.0
  O  O3089  1  0.555800  0.864600  0.932700  1.0
  O  O3090  1  0.944200  0.135400  0.432700  1.0
  O  O3091  1  0.055800  0.635400  0.067300  1.0
  O  O3092  1  0.444200  0.364600  0.567300  1.0
  O  O3093  1  0.932700  0.555800  0.864600  1.0
  O  O3094  1  0.432700  0.944200  0.135400  1.0
  O  O3095  1  0.067300  0.055800  0.635400  1.0
  O  O3096  1  0.567300  0.444200  0.364600  1.0
