
#######################################################################
#
#                 Cambridge Crystallographic Data Centre
#                                CCDC 
#
#######################################################################
#
# If this CIF has been generated from an entry in the Cambridge 
# Structural Database, then it will include bibliographic, chemical, 
# crystal, experimental, refinement or atomic coordinate data resulting 
# from the CCDC's data processing and validation procedures.
#
#######################################################################

data_WEVGIQ
_chemical_formula_moiety         'C288 H336 Cu24 O144,3(H2 O1)'
_chemical_name_systematic        
'dodecakis(\m-5-hydroxyisophthalato)-dodecakis(\m-5-(octyloxy)isophthalato)-tetracosa-aqua-tetracosa-copper(ii) unknown solvate trihydrate'
_symmetry_cell_setting           cubic
_symmetry_space_group_name_H-M   'P 21 3'
_symmetry_Int_Tables_number      198
_space_group_name_Hall           'P 2ac 2ab 3'
loop_
_symmetry_equiv_pos_site_id
_symmetry_equiv_pos_as_xyz
1 x,y,z
2 1/2-x,-y,1/2+z
3 1/2+x,1/2-y,-z
4 -x,1/2+y,1/2-z
5 z,x,y
6 1/2-z,-x,1/2+y
7 1/2+z,1/2-x,-y
8 -z,1/2+x,1/2-y
9 y,z,x
10 1/2+y,1/2-z,-x
11 -y,1/2+z,1/2-x
12 1/2-y,-z,1/2+x
_cell_length_a                   34.773(4)
_cell_length_b                   34.773(4)
_cell_length_c                   34.773(4)
_cell_angle_alpha                90
_cell_angle_beta                 90
_cell_angle_gamma                90
_cell_volume                     42046.2
_exptl_crystal_colour            blue
_exptl_crystal_description       block
_cell_formula_units_Z            4
loop_
_atom_site_label
_atom_site_type_symbol
_atom_site_fract_x
_atom_site_fract_y
_atom_site_fract_z
Cu1 Cu 0.49393(8) 0.26245(7) 0.91334(8)
Cu2 Cu 0.55731(7) 0.26137(7) 0.87385(7)
Cu3 Cu 0.57037(7) 0.12411(8) 0.68834(8)
Cu4 Cu 0.51107(8) 0.08163(8) 0.66767(8)
Cu5 Cu 0.62424(8) 0.31177(8) 0.57097(8)
Cu6 Cu 0.58323(8) 0.33237(7) 0.51209(7)
Cu7 Cu 0.76105(8) 0.12639(9) 0.55656(9)
Cu8 Cu 0.76089(8) 0.08688(9) 0.49310(8)
O1 O 0.6057(6) 0.2709(7) 0.8320(7)
O2 O 0.4358(4) 0.2551(8) 0.9402(7)
O3 O 0.6129(8) 0.1667(8) 0.7121(11)
O4 O 0.4644(5) 0.0377(5) 0.6592(7)
O5 O 0.6528(9) 0.2991(9) 0.6275(5)
O6 O 0.5401(5) 0.3528(6) 0.4688(5)
O7 O 0.7709(8) 0.1535(8) 0.6145(5)
O8 O 0.7472(9) 0.0468(8) 0.4443(7)
C1 C 0.4983(5) 0.1430(4) 0.7259(4)
C2 C 0.4761(5) 0.1599(3) 0.7571(3)
C3 C 0.4372(6) 0.1516(4) 0.7615(5)
H1 H 0.424939 0.134611 0.744001
C4 C 0.4172(5) 0.1671(5) 0.7900(6)
C5 C 0.4332(6) 0.1916(4) 0.8160(5)
H2 H 0.418387 0.202456 0.836250
C6 C 0.4735(6) 0.2005(3) 0.8117(4)
C7 C 0.4962(6) 0.1852(4) 0.7824(5)
H3 H 0.522766 0.191019 0.779589
C8 C 0.4905(6) 0.2266(4) 0.8394(5)
O9 O 0.5335(4) 0.1470(4) 0.7255(4)
O10 O 0.4855(4) 0.1116(4) 0.7064(4)
O11 O 0.5256(4) 0.2336(4) 0.8356(4)
O12 O 0.4716(4) 0.2379(4) 0.8663(4)
O13 O 0.3774(5) 0.1568(5) 0.7921(6)
H4 H 0.375210 0.135128 0.802639
C9 C 0.6737(4) 0.3655(3) 0.9949(5)
C10 C 0.6343(4) 0.3538(2) 1.0028(4)
C11 C 0.6163(5) 0.3620(3) 1.0377(5)
H5 H 0.628909 0.375514 1.057846
C12 C 0.5787(5) 0.3489(3) 1.0411(4)
C13 C 0.5589(6) 0.3290(4) 1.0128(5)
H6 H 0.533154 0.321107 1.017488
C14 C 0.5754(5) 0.3205(3) 0.9786(5)
C15 C 0.6157(5) 0.3334(3) 0.9724(5)
H7 H 0.628645 0.328203 0.948979
C16 C 0.5587(5) 0.3001(4) 0.9464(5)
O14 O 0.6894(4) 0.3890(4) 1.0194(4)
O15 O 0.6895(4) 0.3577(4) 0.9636(4)
O16 O 0.5753(4) 0.2891(4) 0.9174(4)
O17 O 0.5237(4) 0.2913(4) 0.9532(4)
O18 O 0.5633(4) 0.3588(4) 1.0778(4)
C17 C 0.5362(6) 0.3308(8) 1.0982(7)
H8 H 0.512093 0.344534 1.104639
H9 H 0.529651 0.309743 1.080286
C18 C 0.5526(12) 0.3135(7) 1.1348(6)
H10 H 0.580150 0.320600 1.136491
H11 H 0.539379 0.325363 1.157039
C19 C 0.5493(10) 0.2702(8) 1.1382(15)
H12 H 0.536672 0.260273 1.114766
H13 H 0.532327 0.264250 1.160298
C20 C 0.5870(11) 0.2490(9) 1.1437(15)
H14 H 0.606730 0.267638 1.152307
H15 H 0.595338 0.238744 1.118479
C21 C 0.5857(15) 0.2160(10) 1.1723(10)
H16 H 0.606493 0.219757 1.191388
H17 H 0.560924 0.217176 1.186310
C22 C 0.5899(12) 0.1763(8) 1.1549(14)
H18 H 0.598291 0.179099 1.127827
H19 H 0.564305 0.163758 1.154629
C23 C 0.6180(17) 0.1499(12) 1.1754(12)
H20 H 0.603414 0.133466 1.193545
H21 H 0.635861 0.165860 1.190755
C24 C 0.6415(16) 0.1241(15) 1.1491(17)
H22 H 0.658767 0.108093 1.164544
H23 H 0.624147 0.107529 1.134226
H24 H 0.656656 0.139985 1.131431
C25 C 0.6303(3) 0.0858(4) 0.9303(4)
C26 C 0.5980(3) 0.1078(3) 0.9452(3)
C27 C 0.5782(5) 0.0940(5) 0.9752(5)
H25 H 0.584636 0.070185 0.986987
C28 C 0.5468(4) 0.1169(5) 0.9886(4)
C29 C 0.5382(5) 0.1498(5) 0.9719(5)
H26 H 0.517124 0.164350 0.981538
C30 C 0.5574(5) 0.1632(4) 0.9428(5)
C31 C 0.5898(5) 0.1422(5) 0.9270(5)
H27 H 0.604313 0.151458 0.905808
C32 C 0.5488(6) 0.1995(5) 0.9236(5)
O19 O 0.6295(4) 0.0485(4) 0.9376(4)
O20 O 0.6493(4) 0.0971(4) 0.9026(4)
O21 O 0.5690(4) 0.2141(4) 0.8988(4)
O22 O 0.5140(4) 0.2141(4) 0.9337(4)
O23 O 0.5243(4) 0.1038(5) 1.0205(4)
H28 H 0.501926 0.112647 1.018711
C33 C 0.6275(3) 0.0227(4) 0.8471(3)
C34 C 0.5990(2) 0.0113(3) 0.8187(3)
C35 C 0.5796(4) -0.0240(5) 0.8221(5)
H29 H 0.584362 -0.041197 0.842817
C36 C 0.5521(4) -0.0325(4) 0.7927(5)
C37 C 0.5455(4) -0.0073(5) 0.7630(5)
H30 H 0.527140 -0.013610 0.743848
C38 C 0.5647(4) 0.0261(5) 0.7607(4)
C39 C 0.5918(4) 0.0383(5) 0.7866(4)
H31 H 0.604802 0.062214 0.784089
C40 C 0.5570(4) 0.0522(5) 0.7288(4)
O24 O 0.6300(3) 0.0018(4) 0.8781(4)
O25 O 0.6497(3) 0.0534(4) 0.8425(4)
O26 O 0.5792(3) 0.0803(3) 0.7249(3)
O27 O 0.5267(3) 0.0488(4) 0.7062(3)
O28 O 0.5309(4) -0.0677(4) 0.7936(4)
C41 C 0.5498(12) -0.1047(5) 0.8069(18)
H32 H 0.547507 -0.106417 0.835260
H33 H 0.577510 -0.103603 0.800577
C42 C 0.5329(13) -0.1411(4) 0.7894(19)
H34 H 0.516661 -0.153920 0.808919
H35 H 0.515964 -0.133663 0.767693
C43 C 0.562(2) -0.1697(15) 0.7748(18)
H36 H 0.556757 -0.195213 0.786120
H37 H 0.588162 -0.161754 0.784072
C44 C 0.5640(19) -0.174(3) 0.7313(19)
H38 H 0.551312 -0.198288 0.724055
H39 H 0.549119 -0.152623 0.719622
C45 C 0.604(3) -0.174(2) 0.714(3)
H40 H 0.622118 -0.162444 0.733470
H41 H 0.604354 -0.156495 0.691535
C46 C 0.619(2) -0.213(2) 0.702(2)
H42 H 0.597375 -0.230479 0.699119
H43 H 0.635710 -0.223029 0.723310
C47 C 0.643(2) -0.213(2) 0.6653(16)
H44 H 0.628227 -0.226997 0.645399
H45 H 0.645650 -0.185929 0.656371
C48 C 0.6826(18) -0.2306(18) 0.669(2)
H46 H 0.695631 -0.229511 0.643952
H47 H 0.697568 -0.216363 0.688014
H48 H 0.680114 -0.257505 0.677022
C49 C 0.5186(6) 0.1530(4) 0.6285(3)
C50 C 0.5100(4) 0.1822(3) 0.6002(3)
C51 C 0.4775(6) 0.1806(6) 0.5826(5)
H49 H 0.459670 0.160600 0.588121
C52 C 0.4694(4) 0.2071(5) 0.5567(4)
C53 C 0.4917(6) 0.2367(6) 0.5461(5)
H50 H 0.483586 0.254582 0.527046
C54 C 0.5281(6) 0.2402(5) 0.5646(5)
C55 C 0.5338(6) 0.2096(5) 0.5923(5)
H51 H 0.557425 0.209738 0.605977
C56 C 0.5567(6) 0.2699(6) 0.5576(6)
O29 O 0.4999(4) 0.1243(5) 0.6316(4)
O30 O 0.5489(5) 0.1582(5) 0.6455(4)
O31 O 0.5873(4) 0.2735(4) 0.5772(4)
O32 O 0.5461(4) 0.2912(4) 0.5286(4)
O33 O 0.4325(4) 0.2006(4) 0.5404(4)
C57 C 0.4158(6) 0.2279(7) 0.5108(7)
H52 H 0.432534 0.227772 0.487733
H53 H 0.415992 0.254274 0.521455
C58 C 0.3748(6) 0.2179(9) 0.4985(7)
H54 H 0.370496 0.227549 0.472061
H55 H 0.372017 0.189570 0.497929
C59 C 0.3440(6) 0.2346(8) 0.5248(12)
H56 H 0.321751 0.242607 0.508978
H57 H 0.335060 0.214193 0.542560
C60 C 0.3574(7) 0.2688(10) 0.5484(9)
H58 H 0.379237 0.281064 0.534996
H59 H 0.366948 0.259262 0.573511
C61 C 0.3267(12) 0.2991(8) 0.5558(9)
H60 H 0.309670 0.300863 0.533072
H61 H 0.339295 0.324430 0.559209
C62 C 0.3022(12) 0.2905(9) 0.5914(12)
H62 H 0.306087 0.311167 0.610577
H63 H 0.274697 0.290624 0.583960
C63 C 0.3118(11) 0.2519(12) 0.6099(12)
H64 H 0.314071 0.232284 0.589369
H65 H 0.337125 0.253960 0.622670
C64 C 0.2825(13) 0.2380(13) 0.6392(13)
H66 H 0.290810 0.213117 0.649633
H67 H 0.280528 0.256737 0.660100
H68 H 0.257433 0.235021 0.626738
C65 C 0.7241(3) 0.1603(4) 0.4923(7)
C66 C 0.7030(2) 0.1909(3) 0.4730(6)
C67 C 0.7028(4) 0.1959(5) 0.4335(6)
H69 H 0.716987 0.178975 0.417493
C68 C 0.6810(5) 0.2271(5) 0.4168(5)
C69 C 0.6598(4) 0.2525(5) 0.4395(6)
H70 H 0.645501 0.273020 0.428472
C70 C 0.6608(4) 0.2463(4) 0.4791(6)
C71 C 0.6815(4) 0.2168(5) 0.4953(6)
H71 H 0.681225 0.213804 0.522476
C72 C 0.6392(4) 0.2721(5) 0.5042(6)
O34 O 0.7330(5) 0.1288(5) 0.4724(5)
O35 O 0.7326(5) 0.1637(5) 0.5301(5)
O36 O 0.6507(4) 0.2769(4) 0.5384(4)
O37 O 0.6159(4) 0.2929(4) 0.4841(4)
O38 O 0.6828(5) 0.2297(5) 0.3757(4)
H72 H 0.678185 0.208077 0.366015
C73 C 0.5824(5) 0.0711(4) 0.6284(4)
C74 C 0.6024(4) 0.0579(3) 0.5941(3)
C75 C 0.5885(6) 0.0307(4) 0.5681(5)
H73 H 0.563952 0.020246 0.574041
C76 C 0.6058(6) 0.0165(4) 0.5345(5)
C77 C 0.6435(5) 0.0338(5) 0.5272(6)
H74 H 0.657502 0.026040 0.505103
C78 C 0.6597(5) 0.0617(5) 0.5522(6)
C79 C 0.6389(5) 0.0725(4) 0.5841(5)
H75 H 0.650023 0.091205 0.600649
C80 C 0.6971(5) 0.0783(5) 0.5443(6)
O39 O 0.6002(4) 0.0950(5) 0.6495(4)
O40 O 0.5490(5) 0.0571(4) 0.6335(4)
O41 O 0.7122(4) 0.1011(5) 0.5691(4)
O42 O 0.7133(4) 0.0686(4) 0.5135(5)
O43 O 0.5900(5) -0.0117(4) 0.5087(5)
H76 H 0.570972 -0.022321 0.519102
C81 C 0.8664(3) 0.0045(5) 0.6735(5)
C82 C 0.8526(2) 0.0030(4) 0.6341(4)
C83 C 0.8644(4) -0.0298(6) 0.6143(6)
H77 H 0.879871 -0.048726 0.626445
C84 C 0.8533(4) -0.0340(4) 0.5777(6)
C85 C 0.8310(4) -0.0085(6) 0.5574(7)
H78 H 0.823677 -0.012479 0.531368
C86 C 0.8200(4) 0.0242(5) 0.5788(6)
C87 C 0.8308(4) 0.0289(6) 0.6156(6)
H79 H 0.822628 0.051324 0.628968
C88 C 0.7965(5) 0.0504(6) 0.5565(6)
O44 O 0.8512(4) 0.0357(5) 0.6902(4)
O45 O 0.8917(5) -0.0136(5) 0.6871(5)
O46 O 0.7886(4) 0.0804(4) 0.5791(4)
O47 O 0.7875(4) 0.0490(4) 0.5209(5)
O48 O 0.8646(4) -0.0673(4) 0.5558(5)
C89 C 0.8348(8) -0.0859(6) 0.5293(7)
H80 H 0.808859 -0.077312 0.537341
H81 H 0.839122 -0.076620 0.502780
C90 C 0.8355(7) -0.1295(6) 0.5291(9)
H82 H 0.862388 -0.138126 0.532984
H83 H 0.827211 -0.138578 0.503450
C91 C 0.8103(7) -0.1484(10) 0.5595(9)
H84 H 0.821624 -0.173649 0.566255
H85 H 0.810589 -0.132270 0.582896
C92 C 0.7688(6) -0.1546(12) 0.5472(8)
H86 H 0.758418 -0.129838 0.537716
H87 H 0.768407 -0.172976 0.525512
C93 C 0.7425(7) -0.1696(10) 0.5786(12)
H88 H 0.736698 -0.196927 0.573297
H89 H 0.756368 -0.168396 0.603435
C94 C 0.7048(8) -0.1480(10) 0.5828(12)
H90 H 0.690939 -0.149078 0.557987
H91 H 0.710541 -0.120704 0.588314
C95 C 0.6782(8) -0.1632(14) 0.6141(9)
H92 H 0.686926 -0.152886 0.639233
H93 H 0.680546 -0.191512 0.615171
C96 C 0.6360(7) -0.1527(14) 0.6086(13)
H94 H 0.620841 -0.163401 0.629755
H95 H 0.633276 -0.124669 0.608230
H96 H 0.626886 -0.163354 0.584131
Cu1E Cu 0.58666(8) 0.50607(8) 0.76245(7)
Cu2E Cu 0.62615(7) 0.44269(7) 0.76137(7)
Cu3E Cu 0.81166(8) 0.42963(7) 0.62411(8)
Cu4E Cu 0.83233(8) 0.48893(8) 0.58163(8)
Cu5E Cu 0.92903(8) 0.37576(8) 0.81177(8)
Cu6E Cu 0.98791(7) 0.41677(8) 0.83237(7)
Cu7E Cu 0.94344(9) 0.23895(8) 0.62639(9)
Cu8E Cu 1.00690(8) 0.23911(8) 0.58688(9)
O1E O 0.6680(7) 0.3943(6) 0.7709(7)
O2E O 0.5598(7) 0.5642(4) 0.7551(8)
O3E O 0.7879(11) 0.3871(8) 0.6667(8)
O4E O 0.8408(7) 0.5356(5) 0.5377(5)
O5E O 0.8725(5) 0.3472(9) 0.7991(9)
O6E O 1.0312(5) 0.4599(5) 0.8528(6)
O7E O 0.8855(5) 0.2291(8) 0.6535(8)
O8E O 1.0557(7) 0.2528(9) 0.5468(8)
C1E C 0.7741(4) 0.5017(5) 0.6430(4)
C2E C 0.7429(3) 0.5239(5) 0.6599(3)
C3E C 0.7385(5) 0.5628(6) 0.6516(4)
H1E H 0.755999 0.575061 0.634611
C4E C 0.7100(6) 0.5828(5) 0.6671(5)
C5E C 0.6840(5) 0.5668(6) 0.6916(4)
H2E H 0.663750 0.581613 0.702456
C6E C 0.6883(4) 0.5265(6) 0.7005(3)
C7E C 0.7176(5) 0.5038(6) 0.6852(4)
H3E H 0.720411 0.477234 0.691019
C8E C 0.6606(5) 0.5095(6) 0.7266(4)
O9E O 0.7745(4) 0.4665(4) 0.6470(4)
O10E O 0.7936(4) 0.5145(4) 0.6116(4)
O11E O 0.6644(4) 0.4744(4) 0.7336(4)
O12E O 0.6337(4) 0.5284(4) 0.7379(4)
O13E O 0.7079(6) 0.6226(5) 0.6568(5)
H4E H 0.697361 0.624790 0.635128
C9E C 0.5051(5) 0.3263(4) 0.8655(3)
C10E C 0.4972(4) 0.3657(4) 0.8538(2)
C11E C 0.4623(5) 0.3837(5) 0.8620(3)
H5E H 0.442154 0.371091 0.875514
C12E C 0.4589(4) 0.4213(5) 0.8489(3)
C13E C 0.4872(5) 0.4411(6) 0.8290(4)
H6E H 0.482512 0.466846 0.821107
C14E C 0.5214(5) 0.4246(5) 0.8205(3)
C15E C 0.5276(5) 0.3843(5) 0.8334(3)
H7E H 0.551021 0.371355 0.828203
C16E C 0.5536(5) 0.4413(5) 0.8001(4)
O14E O 0.4806(4) 0.3106(4) 0.8890(4)
O15E O 0.5364(4) 0.3105(4) 0.8577(4)
O16E O 0.5826(4) 0.4247(4) 0.7891(4)
O17E O 0.5468(4) 0.4763(4) 0.7913(4)
O18E O 0.4222(4) 0.4367(4) 0.8588(4)
C17E C 0.4018(7) 0.4638(6) 0.8308(8)
H8E H 0.395361 0.487907 0.844534
H9E H 0.419714 0.470349 0.809743
C18E C 0.3652(6) 0.4474(12) 0.8135(7)
H10E H 0.363509 0.419850 0.820600
H11E H 0.342961 0.460621 0.825363
C19E C 0.3618(15) 0.4507(10) 0.7702(8)
H12E H 0.385234 0.463328 0.760273
H13E H 0.339702 0.467673 0.764250
C20E C 0.3563(15) 0.4130(11) 0.7490(9)
H14E H 0.347693 0.393270 0.767638
H15E H 0.381521 0.404662 0.738744
C21E C 0.3277(10) 0.4143(15) 0.7160(10)
H16E H 0.308612 0.393507 0.719757
H17E H 0.313690 0.439076 0.717176
C22E C 0.3451(14) 0.4101(12) 0.6763(8)
H18E H 0.372173 0.401709 0.679099
H19E H 0.345371 0.435695 0.663758
C23E C 0.3246(12) 0.3820(17) 0.6499(12)
H20E H 0.306455 0.396586 0.633466
H21E H 0.309245 0.364139 0.665860
C24E C 0.3509(17) 0.3585(16) 0.6241(15)
H22E H 0.335456 0.341233 0.608093
H23E H 0.365774 0.375853 0.607529
H24E H 0.368569 0.343344 0.639985
C25E C 0.5697(4) 0.3697(3) 0.5858(4)
C26E C 0.5548(3) 0.4020(3) 0.6078(3)
C27E C 0.5248(5) 0.4218(5) 0.5940(5)
H25E H 0.513013 0.415364 0.570185
C28E C 0.5114(4) 0.4532(4) 0.6169(5)
C29E C 0.5281(5) 0.4618(5) 0.6498(5)
H26E H 0.518462 0.482876 0.664350
C30E C 0.5572(5) 0.4426(5) 0.6632(4)
C31E C 0.5730(5) 0.4102(5) 0.6422(5)
H27E H 0.594192 0.395687 0.651458
C32E C 0.5764(5) 0.4512(6) 0.6995(5)
O19E O 0.5624(4) 0.3705(4) 0.5485(4)
O20E O 0.5974(4) 0.3507(4) 0.5971(4)
O21E O 0.6012(4) 0.4310(4) 0.7141(4)
O22E O 0.5663(4) 0.4860(4) 0.7141(4)
O23E O 0.4795(4) 0.4757(4) 0.6038(5)
H28E H 0.481289 0.498074 0.612647
C33E C 0.6529(3) 0.3725(3) 0.5227(4)
C34E C 0.6813(3) 0.4010(2) 0.5113(3)
C35E C 0.6779(5) 0.4204(4) 0.4760(5)
H29E H 0.657183 0.415638 0.458803
C36E C 0.7073(5) 0.4479(4) 0.4675(4)
C37E C 0.7370(5) 0.4545(4) 0.4927(5)
H30E H 0.756152 0.472860 0.486390
C38E C 0.7393(4) 0.4353(4) 0.5261(5)
C39E C 0.7134(4) 0.4082(4) 0.5383(5)
H31E H 0.715911 0.395198 0.562214
C40E C 0.7712(4) 0.4430(4) 0.5522(5)
O24E O 0.6219(4) 0.3700(3) 0.5018(4)
O25E O 0.6575(4) 0.3503(3) 0.5534(4)
O26E O 0.7751(3) 0.4208(3) 0.5803(3)
O27E O 0.7938(3) 0.4733(3) 0.5488(4)
O28E O 0.7064(4) 0.4691(4) 0.4323(4)
C41E C 0.6931(18) 0.4502(12) 0.3953(5)
H32E H 0.664740 0.452493 0.393583
H33E H 0.699423 0.422490 0.396397
C42E C 0.7106(19) 0.4671(13) 0.3589(4)
H34E H 0.691081 0.483339 0.346080
H35E H 0.732307 0.484036 0.366337
C43E C 0.7252(18) 0.438(2) 0.3303(15)
H36E H 0.713880 0.443243 0.304787
H37E H 0.715928 0.411838 0.338246
C44E C 0.7687(19) 0.4360(19) 0.326(3)
H38E H 0.775945 0.448688 0.301712
H39E H 0.780378 0.450881 0.347377
C45E C 0.786(3) 0.396(3) 0.326(2)
H40E H 0.766530 0.377882 0.337556
H41E H 0.808465 0.395646 0.343505
C46E C 0.798(2) 0.381(2) 0.287(2)
H42E H 0.800881 0.402625 0.269521
H43E H 0.776690 0.364290 0.276971
C47E C 0.8347(16) 0.357(2) 0.287(2)
H44E H 0.854601 0.371773 0.273003
H45E H 0.843629 0.354350 0.314071
C48E C 0.831(2) 0.3174(18) 0.2694(18)
H46E H 0.856048 0.304369 0.270489
H47E H 0.811986 0.302432 0.283637
H48E H 0.822978 0.319886 0.242495
C49E C 0.8715(3) 0.4814(6) 0.6530(4)
C50E C 0.8998(3) 0.4900(4) 0.6822(3)
C51E C 0.9174(5) 0.5225(6) 0.6806(6)
H49E H 0.911879 0.540330 0.660600
C52E C 0.9433(4) 0.5306(4) 0.7071(5)
C53E C 0.9539(5) 0.5083(6) 0.7367(6)
H50E H 0.972954 0.516414 0.754582
C54E C 0.9354(5) 0.4719(6) 0.7402(5)
C55E C 0.9077(5) 0.4662(6) 0.7096(5)
H51E H 0.894023 0.442575 0.709738
C56E C 0.9424(6) 0.4433(6) 0.7699(6)
O29E O 0.8684(4) 0.5001(4) 0.6243(5)
O30E O 0.8545(4) 0.4511(5) 0.6582(5)
O31E O 0.9228(4) 0.4127(4) 0.7735(4)
O32E O 0.9714(4) 0.4539(4) 0.7912(4)
O33E O 0.9596(4) 0.5675(4) 0.7006(4)
C57E C 0.9892(7) 0.5842(6) 0.7279(7)
H52E H 1.012267 0.567466 0.727772
H53E H 0.978545 0.584008 0.754274
C58E C 1.0015(7) 0.6252(6) 0.7179(9)
H54E H 1.027939 0.629504 0.727549
H55E H 1.002071 0.627983 0.689570
C59E C 0.9752(12) 0.6560(6) 0.7346(8)
H56E H 0.991022 0.678249 0.742607
H57E H 0.957440 0.664940 0.714193
C60E C 0.9516(9) 0.6426(7) 0.7688(10)
H58E H 0.965004 0.620763 0.781064
H59E H 0.926489 0.633052 0.759262
C61E C 0.9442(9) 0.6733(12) 0.7991(8)
H60E H 0.966928 0.690330 0.800863
H61E H 0.940791 0.660705 0.824430
C62E C 0.9086(12) 0.6978(12) 0.7905(9)
H62E H 0.889423 0.693913 0.811167
H63E H 0.916040 0.725303 0.790624
C63E C 0.8901(12) 0.6882(11) 0.7519(12)
H64E H 0.910631 0.685929 0.732284
H65E H 0.877330 0.662875 0.753960
C64E C 0.8608(13) 0.7175(13) 0.7380(13)
H66E H 0.850367 0.709190 0.713117
H67E H 0.839900 0.719472 0.756737
H68E H 0.873262 0.742567 0.735021
C65E C 1.0077(7) 0.2759(3) 0.6603(4)
C66E C 1.0270(6) 0.2970(2) 0.6909(3)
C67E C 1.0665(6) 0.2972(4) 0.6959(5)
H69E H 1.082507 0.283013 0.678975
C68E C 1.0832(5) 0.3190(5) 0.7271(5)
C69E C 1.0605(6) 0.3402(4) 0.7525(5)
H70E H 1.071528 0.354499 0.773020
C70E C 1.0209(6) 0.3392(4) 0.7463(4)
C71E C 1.0047(6) 0.3185(4) 0.7168(5)
H71E H 0.977524 0.318775 0.713804
C72E C 0.9958(6) 0.3608(4) 0.7721(5)
O34E O 1.0276(5) 0.2670(5) 0.6288(5)
O35E O 0.9699(5) 0.2674(5) 0.6637(5)
O36E O 0.9616(4) 0.3493(4) 0.7769(4)
O37E O 1.0159(4) 0.3841(4) 0.7929(4)
O38E O 1.1243(4) 0.3172(5) 0.7297(5)
H72E H 1.133985 0.321815 0.708077
C73E C 0.8716(4) 0.4176(5) 0.5711(4)
C74E C 0.9059(3) 0.3976(4) 0.5579(3)
C75E C 0.9319(5) 0.4115(6) 0.5307(4)
H73E H 0.925959 0.436048 0.520246
C76E C 0.9655(5) 0.3942(6) 0.5165(4)
C77E C 0.9728(6) 0.3565(5) 0.5338(5)
H74E H 0.994897 0.342498 0.526040
C78E C 0.9478(6) 0.3403(5) 0.5617(5)
C79E C 0.9159(5) 0.3611(5) 0.5725(4)
H75E H 0.899351 0.349977 0.591205
C80E C 0.9557(6) 0.3029(5) 0.5783(5)
O39E O 0.8505(4) 0.3998(4) 0.5950(5)
O40E O 0.8665(4) 0.4510(5) 0.5571(4)
O41E O 0.9309(4) 0.2878(4) 0.6011(5)
O42E O 0.9865(5) 0.2867(4) 0.5686(4)
O43E O 0.9913(5) 0.4100(5) 0.4883(4)
H76E H 0.980898 0.429028 0.477679
C81E C 0.8265(5) 0.1336(3) 0.5045(5)
C82E C 0.8659(4) 0.1474(2) 0.5030(4)
C83E C 0.8857(6) 0.1356(4) 0.4702(6)
H77E H 0.873555 0.120129 0.451274
C84E C 0.9223(6) 0.1467(4) 0.4660(4)
C85E C 0.9426(7) 0.1690(4) 0.4915(6)
H78E H 0.968632 0.176323 0.487521
C86E C 0.9212(6) 0.1800(4) 0.5242(5)
C87E C 0.8844(6) 0.1692(4) 0.5289(6)
H79E H 0.871032 0.177372 0.551324
C88E C 0.9435(6) 0.2035(5) 0.5504(6)
O44E O 0.8098(4) 0.1488(4) 0.5357(5)
O45E O 0.8129(5) 0.1083(5) 0.4864(5)
O46E O 0.9209(4) 0.2114(4) 0.5804(4)
O47E O 0.9791(5) 0.2125(4) 0.5490(4)
O48E O 0.9442(5) 0.1354(4) 0.4327(4)
C89E C 0.9707(7) 0.1652(8) 0.4141(6)
H80E H 0.962659 0.191141 0.422688
H81E H 0.997220 0.160878 0.423380
C90E C 0.9709(9) 0.1645(7) 0.3705(6)
H82E H 0.967016 0.137612 0.361874
H83E H 0.996550 0.172789 0.361422
C91E C 0.9405(9) 0.1897(7) 0.3516(10)
H84E H 0.933745 0.178376 0.326351
H85E H 0.917104 0.189411 0.367730
C92E C 0.9528(8) 0.2312(6) 0.3454(12)
H86E H 0.962284 0.241582 0.370162
H87E H 0.974488 0.231593 0.327024
C93E C 0.9214(12) 0.2575(7) 0.3304(10)
H88E H 0.926703 0.263302 0.303073
H89E H 0.896565 0.243632 0.331604
C94E C 0.9172(12) 0.2952(8) 0.3520(10)
H90E H 0.942013 0.309061 0.350922
H91E H 0.911686 0.289459 0.379296
C95E C 0.8859(9) 0.3218(8) 0.3368(14)
H92E H 0.860767 0.313074 0.347114
H93E H 0.884829 0.319454 0.308488
C96E C 0.8914(13) 0.3640(7) 0.3473(14)
H94E H 0.870245 0.379159 0.336599
H95E H 0.891770 0.366724 0.375331
H96E H 0.915869 0.373114 0.336646
Cu1J Cu 0.73755(7) 0.41334(8) 1.00607(8)
Cu2J Cu 0.73863(7) 0.37385(7) 0.94269(7)
Cu3J Cu 0.87589(8) 0.18834(8) 0.92963(7)
Cu4J Cu 0.91837(8) 0.16767(8) 0.98893(8)
Cu5J Cu 0.68823(8) 0.07097(8) 0.87576(8)
Cu6J Cu 0.66763(7) 0.01209(7) 0.91677(8)
Cu7J Cu 0.87361(9) 0.05656(9) 0.73895(8)
Cu8J Cu 0.91312(9) -0.00690(8) 0.73911(8)
O1J O 0.7291(7) 0.3320(7) 0.8943(6)
O2J O 0.7449(8) 0.4402(7) 1.0642(4)
O3J O 0.8333(8) 0.2121(11) 0.8871(8)
O4J O 0.9623(5) 0.1592(7) 1.0356(5)
O5J O 0.7009(9) 0.1275(5) 0.8472(9)
O6J O 0.6472(6) -0.0312(5) 0.9599(5)
O7J O 0.8465(8) 0.1145(5) 0.7291(8)
O8J O 0.9532(8) -0.0557(7) 0.7528(9)
C1J C 0.8570(4) 0.2259(4) 1.0017(5)
C2J C 0.8401(3) 0.2571(3) 1.0239(5)
C3J C 0.8484(4) 0.2615(5) 1.0628(6)
H1J H 0.865389 0.244001 1.075061
C4J C 0.8329(5) 0.2900(6) 1.0828(5)
C5J C 0.8084(4) 0.3160(5) 1.0668(6)
H2J H 0.797544 0.336250 1.081613
C6J C 0.7995(3) 0.3117(4) 1.0265(6)
C7J C 0.8148(4) 0.2824(5) 1.0038(6)
H3J H 0.808981 0.279589 0.977234
C8J C 0.7734(4) 0.3394(5) 1.0095(6)
O9J O 0.8530(4) 0.2255(4) 0.9665(4)
O10J O 0.8884(4) 0.2064(4) 1.0145(4)
O11J O 0.7664(4) 0.3356(4) 0.9744(4)
O12J O 0.7621(4) 0.3663(4) 1.0284(4)
O13J O 0.8432(5) 0.2921(6) 1.1226(5)
H4J H 0.864872 0.302639 1.124790
C9J C 0.6345(3) 0.4949(5) 0.8263(4)
C10J C 0.6462(2) 0.5028(4) 0.8657(4)
C11J C 0.6380(3) 0.5377(5) 0.8837(5)
H5J H 0.624486 0.557846 0.871091
C12J C 0.6511(3) 0.5411(4) 0.9213(5)
C13J C 0.6710(4) 0.5128(5) 0.9411(6)
H6J H 0.678893 0.517488 0.966846
C14J C 0.6795(3) 0.4786(5) 0.9246(5)
C15J C 0.6666(3) 0.4724(5) 0.8843(5)
H7J H 0.671797 0.448979 0.871355
C16J C 0.6999(4) 0.4464(5) 0.9413(5)
O14J O 0.6110(4) 0.5194(4) 0.8106(4)
O15J O 0.6423(4) 0.4636(4) 0.8105(4)
O16J O 0.7109(4) 0.4174(4) 0.9247(4)
O17J O 0.7087(4) 0.4532(4) 0.9763(4)
O18J O 0.6412(4) 0.5778(4) 0.9367(4)
C17J C 0.6692(8) 0.5982(7) 0.9638(6)
H8J H 0.655466 0.604639 0.987907
H9J H 0.690257 0.580286 0.970349
C18J C 0.6865(7) 0.6348(6) 0.9474(12)
H10J H 0.679400 0.636491 0.919850
H11J H 0.674637 0.657039 0.960621
C19J C 0.7298(8) 0.6382(15) 0.9507(10)
H12J H 0.739727 0.614766 0.963328
H13J H 0.735750 0.660298 0.967673
C20J C 0.7510(9) 0.6437(15) 0.9130(11)
H14J H 0.732362 0.652307 0.893270
H15J H 0.761256 0.618479 0.904662
C21J C 0.7840(10) 0.6723(10) 0.9143(15)
H16J H 0.780243 0.691388 0.893507
H17J H 0.782824 0.686310 0.939076
C22J C 0.8237(8) 0.6549(14) 0.9101(12)
H18J H 0.820901 0.627827 0.901709
H19J H 0.836242 0.654629 0.935695
C23J C 0.8501(12) 0.6754(12) 0.8820(17)
H20J H 0.866534 0.693545 0.896586
H21J H 0.834140 0.690755 0.864139
C24J C 0.8759(15) 0.6491(17) 0.8585(16)
H22J H 0.891907 0.664544 0.841233
H23J H 0.892471 0.634226 0.875853
H24J H 0.860015 0.631431 0.843344
C25J C 0.9142(4) 0.4303(4) 0.8697(3)
C26J C 0.8922(3) 0.4452(3) 0.9020(3)
C27J C 0.9060(5) 0.4752(5) 0.9218(5)
H25J H 0.929815 0.486987 0.915364
C28J C 0.8831(5) 0.4886(4) 0.9532(4)
C29J C 0.8502(5) 0.4719(5) 0.9618(5)
H26J H 0.835650 0.481538 0.982876
C30J C 0.8368(4) 0.4428(5) 0.9426(5)
C31J C 0.8578(5) 0.4270(5) 0.9102(5)
H27J H 0.848542 0.405808 0.895687
C32J C 0.8005(5) 0.4236(5) 0.9512(6)
O19J O 0.9515(4) 0.4376(4) 0.8705(4)
O20J O 0.9029(4) 0.4026(4) 0.8507(4)
O21J O 0.7859(4) 0.3988(4) 0.9310(4)
O22J O 0.7859(4) 0.4337(4) 0.9860(4)
O23J O 0.8962(5) 0.5205(4) 0.9757(4)
H28J H 0.887353 0.518711 0.998074
C33J C 0.9773(4) 0.3471(3) 0.8725(3)
C34J C 0.9887(3) 0.3187(3) 0.9010(2)
C35J C 1.0240(5) 0.3221(5) 0.9204(4)
H29J H 1.041197 0.342817 0.915638
C36J C 1.0325(4) 0.2927(5) 0.9479(4)
C37J C 1.0073(5) 0.2630(5) 0.9545(4)
H30J H 1.013610 0.243848 0.972860
C38J C 0.9739(5) 0.2607(4) 0.9353(4)
C39J C 0.9617(5) 0.2866(4) 0.9082(4)
H31J H 0.937786 0.284089 0.895198
C40J C 0.9478(5) 0.2288(4) 0.9430(4)
O24J O 0.9982(4) 0.3781(4) 0.8700(3)
O25J O 0.9466(4) 0.3425(4) 0.8503(3)
O26J O 0.9197(3) 0.2249(3) 0.9208(3)
O27J O 0.9512(4) 0.2062(3) 0.9733(3)
O28J O 1.0677(4) 0.2936(4) 0.9691(4)
C41J C 1.1047(5) 0.3069(18) 0.9502(12)
H32J H 1.106417 0.335260 0.952493
H33J H 1.103603 0.300577 0.922490
C42J C 1.1411(4) 0.2894(19) 0.9671(13)
H34J H 1.153920 0.308919 0.983339
H35J H 1.133663 0.267693 0.984036
C43J C 1.1697(15) 0.2748(18) 0.938(2)
H36J H 1.195213 0.286120 0.943243
H37J H 1.161754 0.284072 0.911838
C44J C 1.174(3) 0.2313(19) 0.9360(19)
H38J H 1.198288 0.224055 0.948688
H39J H 1.152623 0.219622 0.950881
C45J C 1.174(2) 0.214(3) 0.896(3)
H40J H 1.162444 0.233470 0.877882
H41J H 1.156495 0.191535 0.895646
C46J C 1.213(2) 0.202(2) 0.881(2)
H42J H 1.230479 0.199119 0.902625
H43J H 1.223029 0.223310 0.864290
C47J C 1.213(2) 0.1653(16) 0.857(2)
H44J H 1.226997 0.145399 0.871773
H45J H 1.185929 0.156371 0.854350
C48J C 1.2306(18) 0.169(2) 0.8174(18)
H46J H 1.229511 0.143952 0.804369
H47J H 1.216363 0.188014 0.802432
H48J H 1.257505 0.177022 0.819886
C49J C 0.8470(4) 0.1285(3) 0.9814(6)
C50J C 0.8178(3) 0.1002(3) 0.9900(4)
C51J C 0.8194(6) 0.0826(5) 1.0225(6)
H49J H 0.839400 0.088121 1.040330
C52J C 0.7929(5) 0.0567(4) 1.0306(4)
C53J C 0.7633(6) 0.0461(5) 1.0083(6)
H50J H 0.745418 0.027046 1.016414
C54J C 0.7598(5) 0.0646(5) 0.9719(6)
C55J C 0.7904(5) 0.0923(5) 0.9662(6)
H51J H 0.790262 0.105977 0.942575
C56J C 0.7301(6) 0.0576(6) 0.9433(6)
O29J O 0.8757(5) 0.1316(4) 1.0001(4)
O30J O 0.8418(5) 0.1455(4) 0.9511(5)
O31J O 0.7265(4) 0.0772(4) 0.9127(4)
O32J O 0.7088(4) 0.0286(4) 0.9539(4)
O33J O 0.7994(4) 0.0404(4) 1.0675(4)
C57J C 0.7721(7) 0.0108(7) 1.0842(6)
H52J H 0.772228 -0.012267 1.067466
H53J H 0.745726 0.021455 1.084008
C58J C 0.7821(9) -0.0015(7) 1.1252(6)
H54J H 0.772451 -0.027939 1.129504
H55J H 0.810430 -0.002071 1.127983
C59J C 0.7654(8) 0.0248(12) 1.1560(6)
H56J H 0.757393 0.008978 1.178249
H57J H 0.785807 0.042560 1.164940
C60J C 0.7312(10) 0.0484(9) 1.1426(7)
H58J H 0.718936 0.034996 1.120763
H59J H 0.740738 0.073511 1.133052
C61J C 0.7009(8) 0.0558(9) 1.1733(12)
H60J H 0.699137 0.033072 1.190330
H61J H 0.675570 0.059209 1.160705
C62J C 0.7095(9) 0.0914(12) 1.1978(12)
H62J H 0.688833 0.110577 1.193913
H63J H 0.709376 0.083960 1.225303
C63J C 0.7481(12) 0.1099(12) 1.1882(11)
H64J H 0.767716 0.089369 1.185929
H65J H 0.746040 0.122670 1.162875
C64J C 0.7620(13) 0.1392(13) 1.2175(13)
H66J H 0.786883 0.149633 1.209190
H67J H 0.743263 0.160100 1.219472
H68J H 0.764979 0.126738 1.242567
C65J C 0.8397(4) -0.0077(7) 0.7759(3)
C66J C 0.8091(3) -0.0270(6) 0.7970(2)
C67J C 0.8041(5) -0.0665(6) 0.7972(4)
H69J H 0.821025 -0.082507 0.783013
C68J C 0.7729(5) -0.0832(5) 0.8190(5)
C69J C 0.7475(5) -0.0605(6) 0.8402(4)
H70J H 0.726980 -0.071528 0.854499
C70J C 0.7537(4) -0.0209(6) 0.8392(4)
C71J C 0.7832(5) -0.0047(6) 0.8185(4)
H71J H 0.786196 0.022476 0.818775
C72J C 0.7279(5) 0.0042(6) 0.8608(4)
O34J O 0.8712(5) -0.0276(5) 0.7670(5)
O35J O 0.8363(5) 0.0301(5) 0.7674(5)
O36J O 0.7231(4) 0.0384(4) 0.8493(4)
O37J O 0.7071(4) -0.0159(4) 0.8841(4)
O38J O 0.7703(5) -0.1243(4) 0.8172(5)
H72J H 0.791923 -0.133985 0.821815
C73J C 0.9289(4) 0.1284(4) 0.9176(5)
C74J C 0.9421(3) 0.0941(3) 0.8976(4)
C75J C 0.9693(4) 0.0681(5) 0.9115(6)
H73J H 0.979754 0.074041 0.936048
C76J C 0.9835(4) 0.0345(5) 0.8942(6)
C77J C 0.9662(5) 0.0272(6) 0.8565(5)
H74J H 0.973960 0.005103 0.842498
C78J C 0.9383(5) 0.0522(6) 0.8403(5)
C79J C 0.9275(4) 0.0841(5) 0.8611(5)
H75J H 0.908795 0.100649 0.849977
C80J C 0.9217(5) 0.0443(6) 0.8029(5)
O39J O 0.9050(5) 0.1495(4) 0.8998(4)
O40J O 0.9429(4) 0.1335(4) 0.9510(5)
O41J O 0.8989(5) 0.0691(4) 0.7878(4)
O42J O 0.9314(4) 0.0135(5) 0.7867(4)
O43J O 1.0117(4) 0.0087(5) 0.9100(5)
H76J H 1.022321 0.019102 0.929028
C81J C 0.9955(5) 0.1735(5) 0.6336(3)
C82J C 0.9970(4) 0.1341(4) 0.6474(2)
C83J C 1.0298(6) 0.1143(6) 0.6356(4)
H77J H 1.048726 0.126445 0.620129
C84J C 1.0340(4) 0.0777(6) 0.6467(4)
C85J C 1.0085(6) 0.0574(7) 0.6690(4)
H78J H 1.012479 0.031368 0.676323
C86J C 0.9758(5) 0.0788(6) 0.6800(4)
C87J C 0.9711(6) 0.1156(6) 0.6692(4)
H79J H 0.948676 0.128968 0.677372
C88J C 0.9496(6) 0.0565(6) 0.7035(5)
O44J O 0.9643(5) 0.1902(4) 0.6488(4)
O45J O 1.0136(5) 0.1871(5) 0.6083(5)
O46J O 0.9196(4) 0.0791(4) 0.7114(4)
O47J O 0.9510(4) 0.0209(5) 0.7125(4)
O48J O 1.0673(4) 0.0558(5) 0.6354(4)
C89J C 1.0859(6) 0.0293(7) 0.6652(8)
H80J H 1.077312 0.037341 0.691141
H81J H 1.076620 0.002780 0.660878
C90J C 1.1295(6) 0.0291(9) 0.6645(7)
H82J H 1.138126 0.032984 0.637612
H83J H 1.138578 0.003450 0.672789
C91J C 1.1484(10) 0.0595(9) 0.6897(7)
H84J H 1.173649 0.066255 0.678376
H85J H 1.132270 0.082896 0.689411
C92J C 1.1546(12) 0.0472(8) 0.7312(6)
H86J H 1.129838 0.037716 0.741582
H87J H 1.172976 0.025512 0.731593
C93J C 1.1696(10) 0.0786(12) 0.7575(7)
H88J H 1.196927 0.073297 0.763302
H89J H 1.168396 0.103435 0.743632
C94J C 1.1480(10) 0.0828(12) 0.7952(8)
H90J H 1.149078 0.057987 0.809061
H91J H 1.120704 0.088314 0.789459
C95J C 1.1632(14) 0.1141(9) 0.8218(8)
H92J H 1.152886 0.139233 0.813074
H93J H 1.191512 0.115171 0.819454
C96J C 1.1527(14) 0.1086(13) 0.8640(7)
H94J H 1.163401 0.129755 0.879159
H95J H 1.124669 0.108230 0.866724
H96J H 1.163354 0.084131 0.873114
O49 O 0.5591(7) 0.0832(7) 1.0824(7)
loop_
_geom_bond_atom_site_label_1
_geom_bond_atom_site_label_2
_geom_bond_site_symmetry_1
_geom_bond_site_symmetry_2
Cu1 Cu2 1_555 1_555
Cu2 O1 1_555 1_555
Cu3 Cu4 1_555 1_555
Cu4 O4 1_555 1_555
Cu5 Cu6 1_555 1_555
Cu6 O6 1_555 1_555
Cu7 Cu8 1_555 1_555
Cu8 O8 1_555 1_555
O2 Cu1 1_555 1_555
O3 Cu3 1_555 1_555
O5 Cu5 1_555 1_555
O7 Cu7 1_555 1_555
C1 C2 1_555 1_555
C2 C3 1_555 1_555
C3 H1 1_555 1_555
C4 C3 1_555 1_555
C5 C4 1_555 1_555
H2 C5 1_555 1_555
C6 C5 1_555 1_555
C7 C2 1_555 1_555
H3 C7 1_555 1_555
C8 C6 1_555 1_555
O9 Cu3 1_555 1_555
O10 Cu4 1_555 1_555
O11 Cu2 1_555 1_555
O12 Cu1 1_555 1_555
O13 C4 1_555 1_555
H4 O13 1_555 1_555
C9 C10 1_555 1_555
C10 C11 1_555 1_555
C11 H5 1_555 1_555
C12 C11 1_555 1_555
C13 C12 1_555 1_555
H6 C13 1_555 1_555
C14 C13 1_555 1_555
C15 C10 1_555 1_555
H7 C15 1_555 1_555
C16 C14 1_555 1_555
O14 C9 1_555 1_555
O15 C9 1_555 1_555
O16 Cu2 1_555 1_555
O17 Cu1 1_555 1_555
O18 C12 1_555 1_555
C17 O18 1_555 1_555
H8 C17 1_555 1_555
H9 C17 1_555 1_555
C18 C17 1_555 1_555
H10 C18 1_555 1_555
H11 C18 1_555 1_555
C19 C18 1_555 1_555
H12 C19 1_555 1_555
H13 C19 1_555 1_555
C20 C19 1_555 1_555
H14 C20 1_555 1_555
H15 C20 1_555 1_555
C21 C20 1_555 1_555
H16 C21 1_555 1_555
H17 C21 1_555 1_555
C22 C21 1_555 1_555
H18 C22 1_555 1_555
H19 C22 1_555 1_555
C23 C22 1_555 1_555
H20 C23 1_555 1_555
H21 C23 1_555 1_555
C24 C23 1_555 1_555
H22 C24 1_555 1_555
H23 C24 1_555 1_555
H24 C24 1_555 1_555
C25 C26 1_555 1_555
C26 C27 1_555 1_555
C27 H25 1_555 1_555
C28 C27 1_555 1_555
C29 C28 1_555 1_555
H26 C29 1_555 1_555
C30 C29 1_555 1_555
C31 C26 1_555 1_555
H27 C31 1_555 1_555
C32 C30 1_555 1_555
O19 C25 1_555 1_555
O20 C25 1_555 1_555
O21 Cu2 1_555 1_555
O22 Cu1 1_555 1_555
O23 C28 1_555 1_555
H28 O23 1_555 1_555
C33 C34 1_555 1_555
C34 C35 1_555 1_555
C35 H29 1_555 1_555
C36 C35 1_555 1_555
C37 C36 1_555 1_555
H30 C37 1_555 1_555
C38 C37 1_555 1_555
C39 C34 1_555 1_555
H31 C39 1_555 1_555
C40 C38 1_555 1_555
O24 C33 1_555 1_555
O25 C33 1_555 1_555
O26 Cu3 1_555 1_555
O27 Cu4 1_555 1_555
O28 C36 1_555 1_555
C41 O28 1_555 1_555
H32 C41 1_555 1_555
H33 C41 1_555 1_555
C42 C41 1_555 1_555
H34 C42 1_555 1_555
H35 C42 1_555 1_555
C43 C42 1_555 1_555
H36 C43 1_555 1_555
H37 C43 1_555 1_555
C44 C43 1_555 1_555
H38 C44 1_555 1_555
H39 C44 1_555 1_555
C45 C44 1_555 1_555
H40 C45 1_555 1_555
H41 C45 1_555 1_555
C46 C45 1_555 1_555
H42 C46 1_555 1_555
H43 C46 1_555 1_555
C47 C46 1_555 1_555
H44 C47 1_555 1_555
H45 C47 1_555 1_555
C48 C47 1_555 1_555
H46 C48 1_555 1_555
H47 C48 1_555 1_555
H48 C48 1_555 1_555
C49 C50 1_555 1_555
C50 C51 1_555 1_555
C51 H49 1_555 1_555
C52 C51 1_555 1_555
C53 C52 1_555 1_555
H50 C53 1_555 1_555
C54 C53 1_555 1_555
C55 C50 1_555 1_555
H51 C55 1_555 1_555
C56 C54 1_555 1_555
O29 Cu4 1_555 1_555
O30 Cu3 1_555 1_555
O31 Cu5 1_555 1_555
O32 Cu6 1_555 1_555
O33 C52 1_555 1_555
C57 O33 1_555 1_555
H52 C57 1_555 1_555
H53 C57 1_555 1_555
C58 C57 1_555 1_555
H54 C58 1_555 1_555
H55 C58 1_555 1_555
C59 C58 1_555 1_555
H56 C59 1_555 1_555
H57 C59 1_555 1_555
C60 C59 1_555 1_555
H58 C60 1_555 1_555
H59 C60 1_555 1_555
C61 C60 1_555 1_555
H60 C61 1_555 1_555
H61 C61 1_555 1_555
C62 C61 1_555 1_555
H62 C62 1_555 1_555
H63 C62 1_555 1_555
C63 C62 1_555 1_555
H64 C63 1_555 1_555
H65 C63 1_555 1_555
C64 C63 1_555 1_555
H66 C64 1_555 1_555
H67 C64 1_555 1_555
H68 C64 1_555 1_555
C65 C66 1_555 1_555
C66 C67 1_555 1_555
C67 H69 1_555 1_555
C68 C67 1_555 1_555
C69 C68 1_555 1_555
H70 C69 1_555 1_555
C70 C69 1_555 1_555
C71 C66 1_555 1_555
H71 C71 1_555 1_555
C72 C70 1_555 1_555
O34 Cu8 1_555 1_555
O35 Cu7 1_555 1_555
O36 Cu5 1_555 1_555
O37 Cu6 1_555 1_555
O38 C68 1_555 1_555
H72 O38 1_555 1_555
C73 C74 1_555 1_555
C74 C75 1_555 1_555
C75 H73 1_555 1_555
C76 C75 1_555 1_555
C77 C76 1_555 1_555
H74 C77 1_555 1_555
C78 C77 1_555 1_555
C79 C74 1_555 1_555
H75 C79 1_555 1_555
C80 C78 1_555 1_555
O39 Cu3 1_555 1_555
O40 Cu4 1_555 1_555
O41 Cu7 1_555 1_555
O42 Cu8 1_555 1_555
O43 C76 1_555 1_555
H76 O43 1_555 1_555
C81 C82 1_555 1_555
C82 C83 1_555 1_555
C83 H77 1_555 1_555
C84 C83 1_555 1_555
C85 C84 1_555 1_555
H78 C85 1_555 1_555
C86 C85 1_555 1_555
C87 C82 1_555 1_555
H79 C87 1_555 1_555
C88 C86 1_555 1_555
O44 C81 1_555 1_555
O45 C81 1_555 1_555
O46 Cu7 1_555 1_555
O47 Cu8 1_555 1_555
O48 C84 1_555 1_555
C89 O48 1_555 1_555
H80 C89 1_555 1_555
H81 C89 1_555 1_555
C90 C89 1_555 1_555
H82 C90 1_555 1_555
H83 C90 1_555 1_555
C91 C90 1_555 1_555
H84 C91 1_555 1_555
H85 C91 1_555 1_555
C92 C91 1_555 1_555
H86 C92 1_555 1_555
H87 C92 1_555 1_555
C93 C92 1_555 1_555
H88 C93 1_555 1_555
H89 C93 1_555 1_555
C94 C93 1_555 1_555
H90 C94 1_555 1_555
H91 C94 1_555 1_555
C95 C94 1_555 1_555
H92 C95 1_555 1_555
H93 C95 1_555 1_555
C96 C95 1_555 1_555
H94 C96 1_555 1_555
H95 C96 1_555 1_555
H96 C96 1_555 1_555
Cu1E Cu2E 1_555 1_555
Cu2E O1E 1_555 1_555
Cu3E Cu4E 1_555 1_555
Cu4E O4E 1_555 1_555
Cu5E Cu6E 1_555 1_555
Cu6E O6E 1_555 1_555
Cu7E Cu8E 1_555 1_555
Cu8E O8E 1_555 1_555
O2E Cu1E 1_555 1_555
O3E Cu3E 1_555 1_555
O5E Cu5E 1_555 1_555
O7E Cu7E 1_555 1_555
C1E C2E 1_555 1_555
C2E C3E 1_555 1_555
C3E H1E 1_555 1_555
C4E C3E 1_555 1_555
C5E C4E 1_555 1_555
H2E C5E 1_555 1_555
C6E C5E 1_555 1_555
C7E C2E 1_555 1_555
H3E C7E 1_555 1_555
C8E C6E 1_555 1_555
O9E Cu3E 1_555 1_555
O10E Cu4E 1_555 1_555
O11E Cu2E 1_555 1_555
O12E Cu1E 1_555 1_555
O13E C4E 1_555 1_555
H4E O13E 1_555 1_555
C9E C10E 1_555 1_555
C10E C11E 1_555 1_555
C11E H5E 1_555 1_555
C12E C11E 1_555 1_555
C13E C12E 1_555 1_555
H6E C13E 1_555 1_555
C14E C13E 1_555 1_555
C15E C10E 1_555 1_555
H7E C15E 1_555 1_555
C16E C14E 1_555 1_555
O14E Cu1 1_555 1_555
O15E Cu2 1_555 1_555
O16E Cu2E 1_555 1_555
O17E Cu1E 1_555 1_555
O18E C12E 1_555 1_555
C17E O18E 1_555 1_555
H8E C17E 1_555 1_555
H9E C17E 1_555 1_555
C18E C17E 1_555 1_555
H10E C18E 1_555 1_555
H11E C18E 1_555 1_555
C19E C18E 1_555 1_555
H12E C19E 1_555 1_555
H13E C19E 1_555 1_555
C20E C19E 1_555 1_555
H14E C20E 1_555 1_555
H15E C20E 1_555 1_555
C21E C20E 1_555 1_555
H16E C21E 1_555 1_555
H17E C21E 1_555 1_555
C22E C21E 1_555 1_555
H18E C22E 1_555 1_555
H19E C22E 1_555 1_555
C23E C22E 1_555 1_555
H20E C23E 1_555 1_555
H21E C23E 1_555 1_555
C24E C23E 1_555 1_555
H22E C24E 1_555 1_555
H23E C24E 1_555 1_555
H24E C24E 1_555 1_555
C25E C26E 1_555 1_555
C26E C27E 1_555 1_555
C27E H25E 1_555 1_555
C28E C27E 1_555 1_555
C29E C28E 1_555 1_555
H26E C29E 1_555 1_555
C30E C29E 1_555 1_555
C31E C26E 1_555 1_555
H27E C31E 1_555 1_555
C32E C30E 1_555 1_555
O19E Cu6 1_555 1_555
O20E Cu5 1_555 1_555
O21E Cu2E 1_555 1_555
O22E Cu1E 1_555 1_555
O23E C28E 1_555 1_555
H28E O23E 1_555 1_555
C33E C34E 1_555 1_555
C34E C35E 1_555 1_555
C35E H29E 1_555 1_555
C36E C35E 1_555 1_555
C37E C36E 1_555 1_555
H30E C37E 1_555 1_555
C38E C37E 1_555 1_555
C39E C34E 1_555 1_555
H31E C39E 1_555 1_555
C40E C38E 1_555 1_555
O24E Cu6 1_555 1_555
O25E Cu5 1_555 1_555
O26E Cu3E 1_555 1_555
O27E Cu4E 1_555 1_555
O28E C36E 1_555 1_555
C41E O28E 1_555 1_555
H32E C41E 1_555 1_555
H33E C41E 1_555 1_555
C42E C41E 1_555 1_555
H34E C42E 1_555 1_555
H35E C42E 1_555 1_555
C43E C42E 1_555 1_555
H36E C43E 1_555 1_555
H37E C43E 1_555 1_555
C44E C43E 1_555 1_555
H38E C44E 1_555 1_555
H39E C44E 1_555 1_555
C45E C44E 1_555 1_555
H40E C45E 1_555 1_555
H41E C45E 1_555 1_555
C46E C45E 1_555 1_555
H42E C46E 1_555 1_555
H43E C46E 1_555 1_555
C47E C46E 1_555 1_555
H44E C47E 1_555 1_555
H45E C47E 1_555 1_555
C48E C47E 1_555 1_555
H46E C48E 1_555 1_555
H47E C48E 1_555 1_555
H48E C48E 1_555 1_555
C49E C50E 1_555 1_555
C50E C51E 1_555 1_555
C51E H49E 1_555 1_555
C52E C51E 1_555 1_555
C53E C52E 1_555 1_555
H50E C53E 1_555 1_555
C54E C53E 1_555 1_555
C55E C50E 1_555 1_555
H51E C55E 1_555 1_555
C56E C54E 1_555 1_555
O29E Cu4E 1_555 1_555
O30E Cu3E 1_555 1_555
O31E Cu5E 1_555 1_555
O32E Cu6E 1_555 1_555
O33E C52E 1_555 1_555
C57E O33E 1_555 1_555
H52E C57E 1_555 1_555
H53E C57E 1_555 1_555
C58E C57E 1_555 1_555
H54E C58E 1_555 1_555
H55E C58E 1_555 1_555
C59E C58E 1_555 1_555
H56E C59E 1_555 1_555
H57E C59E 1_555 1_555
C60E C59E 1_555 1_555
H58E C60E 1_555 1_555
H59E C60E 1_555 1_555
C61E C60E 1_555 1_555
H60E C61E 1_555 1_555
H61E C61E 1_555 1_555
C62E C61E 1_555 1_555
H62E C62E 1_555 1_555
H63E C62E 1_555 1_555
C63E C62E 1_555 1_555
H64E C63E 1_555 1_555
H65E C63E 1_555 1_555
C64E C63E 1_555 1_555
H66E C64E 1_555 1_555
H67E C64E 1_555 1_555
H68E C64E 1_555 1_555
C65E C66E 1_555 1_555
C66E C67E 1_555 1_555
C67E H69E 1_555 1_555
C68E C67E 1_555 1_555
C69E C68E 1_555 1_555
H70E C69E 1_555 1_555
C70E C69E 1_555 1_555
C71E C66E 1_555 1_555
H71E C71E 1_555 1_555
C72E C70E 1_555 1_555
O34E Cu8E 1_555 1_555
O35E Cu7E 1_555 1_555
O36E Cu5E 1_555 1_555
O37E Cu6E 1_555 1_555
O38E C68E 1_555 1_555
H72E O38E 1_555 1_555
C73E C74E 1_555 1_555
C74E C75E 1_555 1_555
C75E H73E 1_555 1_555
C76E C75E 1_555 1_555
C77E C76E 1_555 1_555
H74E C77E 1_555 1_555
C78E C77E 1_555 1_555
C79E C74E 1_555 1_555
H75E C79E 1_555 1_555
C80E C78E 1_555 1_555
O39E Cu3E 1_555 1_555
O40E Cu4E 1_555 1_555
O41E Cu7E 1_555 1_555
O42E Cu8E 1_555 1_555
O43E C76E 1_555 1_555
H76E O43E 1_555 1_555
C81E C82E 1_555 1_555
C82E C83E 1_555 1_555
C83E H77E 1_555 1_555
C84E C83E 1_555 1_555
C85E C84E 1_555 1_555
H78E C85E 1_555 1_555
C86E C85E 1_555 1_555
C87E C82E 1_555 1_555
H79E C87E 1_555 1_555
C88E C86E 1_555 1_555
O44E Cu7 1_555 1_555
O45E Cu8 1_555 1_555
O46E Cu7E 1_555 1_555
O47E Cu8E 1_555 1_555
O48E C84E 1_555 1_555
C89E O48E 1_555 1_555
H80E C89E 1_555 1_555
H81E C89E 1_555 1_555
C90E C89E 1_555 1_555
H82E C90E 1_555 1_555
H83E C90E 1_555 1_555
C91E C90E 1_555 1_555
H84E C91E 1_555 1_555
H85E C91E 1_555 1_555
C92E C91E 1_555 1_555
H86E C92E 1_555 1_555
H87E C92E 1_555 1_555
C93E C92E 1_555 1_555
H88E C93E 1_555 1_555
H89E C93E 1_555 1_555
C94E C93E 1_555 1_555
H90E C94E 1_555 1_555
H91E C94E 1_555 1_555
C95E C94E 1_555 1_555
H92E C95E 1_555 1_555
H93E C95E 1_555 1_555
C96E C95E 1_555 1_555
H94E C96E 1_555 1_555
H95E C96E 1_555 1_555
H96E C96E 1_555 1_555
Cu1J O14 1_555 1_555
Cu2J O15 1_555 1_555
Cu3J Cu4J 1_555 1_555
Cu4J O4J 1_555 1_555
Cu5J O20 1_555 1_555
Cu6J O19 1_555 1_555
Cu7J O44 1_555 1_555
Cu8J O45 1_555 1_555
O1J Cu2J 1_555 1_555
O2J Cu1J 1_555 1_555
O3J Cu3J 1_555 1_555
O5J Cu5J 1_555 1_555
O6J Cu6J 1_555 1_555
O7J Cu7J 1_555 1_555
O8J Cu8J 1_555 1_555
C1J C2J 1_555 1_555
C2J C3J 1_555 1_555
C3J H1J 1_555 1_555
C4J C3J 1_555 1_555
C5J C4J 1_555 1_555
H2J C5J 1_555 1_555
C6J C5J 1_555 1_555
C7J C2J 1_555 1_555
H3J C7J 1_555 1_555
C8J C6J 1_555 1_555
O9J Cu3J 1_555 1_555
O10J Cu4J 1_555 1_555
O11J Cu2J 1_555 1_555
O12J Cu1J 1_555 1_555
O13J C4J 1_555 1_555
H4J O13J 1_555 1_555
C9J C10J 1_555 1_555
C10J C11J 1_555 1_555
C11J H5J 1_555 1_555
C12J C11J 1_555 1_555
C13J C12J 1_555 1_555
H6J C13J 1_555 1_555
C14J C13J 1_555 1_555
C15J C10J 1_555 1_555
H7J C15J 1_555 1_555
C16J C14J 1_555 1_555
O14J Cu1E 1_555 1_555
O15J Cu2E 1_555 1_555
O16J Cu2J 1_555 1_555
O17J Cu1J 1_555 1_555
O18J C12J 1_555 1_555
C17J O18J 1_555 1_555
H8J C17J 1_555 1_555
H9J C17J 1_555 1_555
C18J C17J 1_555 1_555
H10J C18J 1_555 1_555
H11J C18J 1_555 1_555
C19J C18J 1_555 1_555
H12J C19J 1_555 1_555
H13J C19J 1_555 1_555
C20J C19J 1_555 1_555
H14J C20J 1_555 1_555
H15J C20J 1_555 1_555
C21J C20J 1_555 1_555
H16J C21J 1_555 1_555
H17J C21J 1_555 1_555
C22J C21J 1_555 1_555
H18J C22J 1_555 1_555
H19J C22J 1_555 1_555
C23J C22J 1_555 1_555
H20J C23J 1_555 1_555
H21J C23J 1_555 1_555
C24J C23J 1_555 1_555
H22J C24J 1_555 1_555
H23J C24J 1_555 1_555
H24J C24J 1_555 1_555
C25J C26J 1_555 1_555
C26J C27J 1_555 1_555
C27J H25J 1_555 1_555
C28J C27J 1_555 1_555
C29J C28J 1_555 1_555
H26J C29J 1_555 1_555
C30J C29J 1_555 1_555
C31J C26J 1_555 1_555
H27J C31J 1_555 1_555
C32J C30J 1_555 1_555
O19J Cu6E 1_555 1_555
O20J Cu5E 1_555 1_555
O21J Cu2J 1_555 1_555
O22J Cu1J 1_555 1_555
O23J C28J 1_555 1_555
H28J O23J 1_555 1_555
C33J C34J 1_555 1_555
C34J C35J 1_555 1_555
C35J H29J 1_555 1_555
C36J C35J 1_555 1_555
C37J C36J 1_555 1_555
H30J C37J 1_555 1_555
C38J C37J 1_555 1_555
C39J C34J 1_555 1_555
H31J C39J 1_555 1_555
C40J C38J 1_555 1_555
O24J Cu6E 1_555 1_555
O25J Cu5E 1_555 1_555
O26J Cu3J 1_555 1_555
O27J Cu4J 1_555 1_555
O28J C36J 1_555 1_555
C41J O28J 1_555 1_555
H32J C41J 1_555 1_555
H33J C41J 1_555 1_555
C42J C41J 1_555 1_555
H34J C42J 1_555 1_555
H35J C42J 1_555 1_555
C43J C42J 1_555 1_555
H36J C43J 1_555 1_555
H37J C43J 1_555 1_555
C44J C43J 1_555 1_555
H38J C44J 1_555 1_555
H39J C44J 1_555 1_555
C45J C44J 1_555 1_555
H40J C45J 1_555 1_555
H41J C45J 1_555 1_555
C46J C45J 1_555 1_555
H42J C46J 1_555 1_555
H43J C46J 1_555 1_555
C47J C46J 1_555 1_555
H44J C47J 1_555 1_555
H45J C47J 1_555 1_555
C48J C47J 1_555 1_555
H46J C48J 1_555 1_555
H47J C48J 1_555 1_555
H48J C48J 1_555 1_555
C49J C50J 1_555 1_555
C50J C51J 1_555 1_555
C51J H49J 1_555 1_555
C52J C51J 1_555 1_555
C53J C52J 1_555 1_555
H50J C53J 1_555 1_555
C54J C53J 1_555 1_555
C55J C50J 1_555 1_555
H51J C55J 1_555 1_555
C56J C54J 1_555 1_555
O29J Cu4J 1_555 1_555
O30J Cu3J 1_555 1_555
O31J Cu5J 1_555 1_555
O32J Cu6J 1_555 1_555
O33J C52J 1_555 1_555
C57J O33J 1_555 1_555
H52J C57J 1_555 1_555
H53J C57J 1_555 1_555
C58J C57J 1_555 1_555
H54J C58J 1_555 1_555
H55J C58J 1_555 1_555
C59J C58J 1_555 1_555
H56J C59J 1_555 1_555
H57J C59J 1_555 1_555
C60J C59J 1_555 1_555
H58J C60J 1_555 1_555
H59J C60J 1_555 1_555
C61J C60J 1_555 1_555
H60J C61J 1_555 1_555
H61J C61J 1_555 1_555
C62J C61J 1_555 1_555
H62J C62J 1_555 1_555
H63J C62J 1_555 1_555
C63J C62J 1_555 1_555
H64J C63J 1_555 1_555
H65J C63J 1_555 1_555
C64J C63J 1_555 1_555
H66J C64J 1_555 1_555
H67J C64J 1_555 1_555
H68J C64J 1_555 1_555
C65J C66J 1_555 1_555
C66J C67J 1_555 1_555
C67J H69J 1_555 1_555
C68J C67J 1_555 1_555
C69J C68J 1_555 1_555
H70J C69J 1_555 1_555
C70J C69J 1_555 1_555
C71J C66J 1_555 1_555
H71J C71J 1_555 1_555
C72J C70J 1_555 1_555
O34J Cu8J 1_555 1_555
O35J Cu7J 1_555 1_555
O36J Cu5J 1_555 1_555
O37J Cu6J 1_555 1_555
O38J C68J 1_555 1_555
H72J O38J 1_555 1_555
C73J C74J 1_555 1_555
C74J C75J 1_555 1_555
C75J H73J 1_555 1_555
C76J C75J 1_555 1_555
C77J C76J 1_555 1_555
H74J C77J 1_555 1_555
C78J C77J 1_555 1_555
C79J C74J 1_555 1_555
H75J C79J 1_555 1_555
C80J C78J 1_555 1_555
O39J Cu3J 1_555 1_555
O40J Cu4J 1_555 1_555
O41J Cu7J 1_555 1_555
O42J Cu8J 1_555 1_555
O43J C76J 1_555 1_555
H76J O43J 1_555 1_555
C81J C82J 1_555 1_555
C82J C83J 1_555 1_555
C83J H77J 1_555 1_555
C84J C83J 1_555 1_555
C85J C84J 1_555 1_555
H78J C85J 1_555 1_555
C86J C85J 1_555 1_555
C87J C82J 1_555 1_555
H79J C87J 1_555 1_555
C88J C86J 1_555 1_555
O44J Cu7E 1_555 1_555
O45J Cu8E 1_555 1_555
O46J Cu7J 1_555 1_555
O47J Cu8J 1_555 1_555
O48J C84J 1_555 1_555
C89J O48J 1_555 1_555
H80J C89J 1_555 1_555
H81J C89J 1_555 1_555
C90J C89J 1_555 1_555
H82J C90J 1_555 1_555
H83J C90J 1_555 1_555
C91J C90J 1_555 1_555
H84J C91J 1_555 1_555
H85J C91J 1_555 1_555
C92J C91J 1_555 1_555
H86J C92J 1_555 1_555
H87J C92J 1_555 1_555
C93J C92J 1_555 1_555
H88J C93J 1_555 1_555
H89J C93J 1_555 1_555
C94J C93J 1_555 1_555
H90J C94J 1_555 1_555
H91J C94J 1_555 1_555
C95J C94J 1_555 1_555
H92J C95J 1_555 1_555
H93J C95J 1_555 1_555
C96J C95J 1_555 1_555
H94J C96J 1_555 1_555
H95J C96J 1_555 1_555
H96J C96J 1_555 1_555
C1 O9 1_555 1_555
C1 O10 1_555 1_555
C6 C7 1_555 1_555
C8 O11 1_555 1_555
C8 O12 1_555 1_555
C14 C15 1_555 1_555
C16 O16 1_555 1_555
C16 O17 1_555 1_555
C30 C31 1_555 1_555
C32 O21 1_555 1_555
C32 O22 1_555 1_555
C38 C39 1_555 1_555
C40 O26 1_555 1_555
C40 O27 1_555 1_555
O24 Cu6J 1_555 1_555
O25 Cu5J 1_555 1_555
C49 O29 1_555 1_555
C49 O30 1_555 1_555
C54 C55 1_555 1_555
C56 O31 1_555 1_555
C56 O32 1_555 1_555
C65 O34 1_555 1_555
C65 O35 1_555 1_555
C70 C71 1_555 1_555
C72 O36 1_555 1_555
C72 O37 1_555 1_555
C73 O39 1_555 1_555
C73 O40 1_555 1_555
C78 C79 1_555 1_555
C80 O41 1_555 1_555
C80 O42 1_555 1_555
C86 C87 1_555 1_555
C88 O46 1_555 1_555
C88 O47 1_555 1_555
C1E O9E 1_555 1_555
C1E O10E 1_555 1_555
C6E C7E 1_555 1_555
C8E O11E 1_555 1_555
C8E O12E 1_555 1_555
C9E O14E 1_555 1_555
C9E O15E 1_555 1_555
C14E C15E 1_555 1_555
C16E O16E 1_555 1_555
C16E O17E 1_555 1_555
C25E O19E 1_555 1_555
C25E O20E 1_555 1_555
C30E C31E 1_555 1_555
C32E O21E 1_555 1_555
C32E O22E 1_555 1_555
C33E O24E 1_555 1_555
C33E O25E 1_555 1_555
C38E C39E 1_555 1_555
C40E O26E 1_555 1_555
C40E O27E 1_555 1_555
C49E O29E 1_555 1_555
C49E O30E 1_555 1_555
C54E C55E 1_555 1_555
C56E O31E 1_555 1_555
C56E O32E 1_555 1_555
C65E O34E 1_555 1_555
C65E O35E 1_555 1_555
C70E C71E 1_555 1_555
C72E O36E 1_555 1_555
C72E O37E 1_555 1_555
C73E O39E 1_555 1_555
C73E O40E 1_555 1_555
C78E C79E 1_555 1_555
C80E O41E 1_555 1_555
C80E O42E 1_555 1_555
C81E O44E 1_555 1_555
C81E O45E 1_555 1_555
C86E C87E 1_555 1_555
C88E O46E 1_555 1_555
C88E O47E 1_555 1_555
Cu1J Cu2J 1_555 1_555
Cu5J Cu6J 1_555 1_555
Cu7J Cu8J 1_555 1_555
C1J O9J 1_555 1_555
C1J O10J 1_555 1_555
C6J C7J 1_555 1_555
C8J O11J 1_555 1_555
C8J O12J 1_555 1_555
C9J O14J 1_555 1_555
C9J O15J 1_555 1_555
C14J C15J 1_555 1_555
C16J O16J 1_555 1_555
C16J O17J 1_555 1_555
C25J O19J 1_555 1_555
C25J O20J 1_555 1_555
C30J C31J 1_555 1_555
C32J O21J 1_555 1_555
C32J O22J 1_555 1_555
C33J O24J 1_555 1_555
C33J O25J 1_555 1_555
C38J C39J 1_555 1_555
C40J O26J 1_555 1_555
C40J O27J 1_555 1_555
C49J O29J 1_555 1_555
C49J O30J 1_555 1_555
C54J C55J 1_555 1_555
C56J O31J 1_555 1_555
C56J O32J 1_555 1_555
C65J O34J 1_555 1_555
C65J O35J 1_555 1_555
C70J C71J 1_555 1_555
C72J O36J 1_555 1_555
C72J O37J 1_555 1_555
C73J O39J 1_555 1_555
C73J O40J 1_555 1_555
C78J C79J 1_555 1_555
C80J O41J 1_555 1_555
C80J O42J 1_555 1_555
C81J O44J 1_555 1_555
C81J O45J 1_555 1_555
C86J C87J 1_555 1_555
C88J O46J 1_555 1_555
C88J O47J 1_555 1_555

#END
