
#######################################################################
#
#                 Cambridge Crystallographic Data Centre
#                                CCDC 
#
#######################################################################
#
# If this CIF has been generated from an entry in the Cambridge 
# Structural Database, then it will include bibliographic, chemical, 
# crystal, experimental, refinement or atomic coordinate data resulting 
# from the CCDC's data processing and validation procedures.
#
#######################################################################

data_WEZJUH
_chemical_formula_moiety         'C102 H114 La2 N24 O6 6+,6(Cl1 O4 1-)'
_chemical_name_systematic        
"tris(\m~2~-6,6'-(1,4-Phenylenebis(methylene-1H-pyrazole-1,3-diyl))-bis(N,N-diethylpyridine-2-carboxamide))-di-lanthanum(iii) hexaperchlorate"
_symmetry_cell_setting           hexagonal
_symmetry_space_group_name_H-M   'P 63/m'
_symmetry_Int_Tables_number      176
_space_group_name_Hall           '-P 6c'
loop_
_symmetry_equiv_pos_site_id
_symmetry_equiv_pos_as_xyz
1 x,y,z
2 -y,x-y,z
3 -x+y,-x,z
4 y,-x+y,1/2+z
5 x-y,x,1/2+z
6 -x,-y,1/2+z
7 -x,-y,-z
8 y,-x+y,-z
9 x-y,x,-z
10 -y,x-y,1/2-z
11 -x+y,-x,1/2-z
12 x,y,1/2-z
_cell_length_a                   13.8557(4)
_cell_length_b                   13.8557(4)
_cell_length_c                   40.129(3)
_cell_angle_alpha                90
_cell_angle_beta                 90
_cell_angle_gamma                120
_cell_volume                     6671.84
_exptl_crystal_colour            colorless
_exptl_crystal_description       prism
_cell_formula_units_Z            2
_exptl_crystal_recrystallization_method 'diethyl ether'
loop_
_atom_site_label
_atom_site_type_symbol
_atom_site_fract_x
_atom_site_fract_y
_atom_site_fract_z
La1 La 0.0000 0.0000 0.39899(2)
O1 O -0.0476(7) 0.1115(7) 0.4361(2)
N1 N 0.2333(9) 0.0528(10) 0.3386(3)
N2 N 0.1793(8) 0.0960(10) 0.3569(2)
N3 N 0.1292(9) 0.2215(9) 0.3978(2)
N4 N -0.0821(10) 0.2546(9) 0.4365(3)
C1 C 0.1777(12) -0.1352(10) 0.2664(3)
H1 H 0.1779 -0.1938 0.2777
C2 C 0.1775(13) -0.0473(11) 0.2854(3)
C3 C 0.1771(13) 0.0411(13) 0.2673(4)
H2 H 0.1768 0.0992 0.2788
C4 C 0.1711(13) -0.0561(12) 0.3227(3)
H3 H 0.0937 -0.0914 0.3295
H4 H 0.2008 -0.1028 0.3300
C5 C 0.3442(14) 0.1313(15) 0.3340(5)
H5 H 0.3968 0.1220 0.3222
C6 C 0.3616(14) 0.2260(17) 0.3503(5)
H6 H 0.4274 0.2944 0.3510
C7 C 0.2635(12) 0.1994(13) 0.3650(3)
C8 C 0.2315(11) 0.2687(11) 0.3852(3)
C9 C 0.3099(10) 0.3804(12) 0.3912(3)
H7 H 0.3813 0.4125 0.3823
C10 C 0.2779(14) 0.4430(12) 0.4112(4)
H8 H 0.3278 0.5179 0.4153
C11 C 0.1755(10) 0.3945(11) 0.4243(4)
H9 H 0.1554 0.4348 0.4383
C12 C 0.0980(10) 0.2826(11) 0.4169(3)
C13 C -0.0201(9) 0.2132(10) 0.4304(3)
C14 C -0.0665(12) 0.3619(11) 0.4241(4)
H10 H -0.1319 0.3479 0.4115
H11 H -0.0032 0.3948 0.4091
C15 C -0.0477(13) 0.4445(11) 0.4515(4)
H12 H -0.1137 0.4166 0.4649
H13 H -0.0311 0.5145 0.4418
H14 H 0.0137 0.4548 0.4652
C16 C -0.1899(13) 0.1803(13) 0.4529(3)
H15 H -0.2233 0.1073 0.4426
H16 H -0.2396 0.2096 0.4494
C17 C -0.1796(16) 0.1676(14) 0.4894(3)
H17 H -0.1341 0.1344 0.4932
H18 H -0.2523 0.1208 0.4988
H19 H -0.1458 0.2396 0.4999
La1K La 0.0000 0.0000 0.10101(2)
O1A O -0.1115(7) -0.1591(10) 0.4361(2)
O1B O 0.1591(10) 0.0476(7) 0.4361(2)
O1K O -0.0476(7) 0.1115(7) 0.0639(2)
O1I O -0.1115(7) -0.1591(10) 0.0639(2)
O1J O 0.1591(10) 0.0476(7) 0.0639(2)
N1K N 0.2333(9) 0.0528(10) 0.1614(3)
N1I N -0.0528(10) 0.1805(13) 0.1614(3)
N1A N -0.0528(10) 0.1805(13) 0.3386(3)
N1B N -0.1805(13) -0.2333(9) 0.3386(3)
N1J N -0.1805(13) -0.2333(9) 0.1614(3)
N2K N 0.1793(8) 0.0960(10) 0.1431(2)
N2I N -0.0960(10) 0.0833(13) 0.1431(2)
N2A N -0.0960(10) 0.0833(13) 0.3569(2)
N2B N -0.0833(13) -0.1793(8) 0.3569(2)
N2J N -0.0833(13) -0.1793(8) 0.1431(2)
N3A N -0.2215(9) -0.0923(13) 0.3978(2)
N3B N 0.0923(13) -0.1292(9) 0.3978(2)
N3K N 0.1292(9) 0.2215(9) 0.1022(2)
N3I N -0.2215(9) -0.0923(13) 0.1022(2)
N3J N 0.0923(13) -0.1292(9) 0.1022(2)
N4A N -0.2546(9) -0.3367(13) 0.4365(3)
N4B N 0.3367(13) 0.0821(10) 0.4365(3)
N4K N -0.0821(10) 0.2546(9) 0.0635(3)
N4I N -0.2546(9) -0.3367(13) 0.0635(3)
N4J N 0.3367(13) 0.0821(10) 0.0635(3)
C1K C 0.1777(12) -0.1352(10) 0.2336(3)
C1I C 0.1352(10) 0.3129(16) 0.2336(3)
C1A C 0.1352(10) 0.3129(16) 0.2664(3)
C1B C -0.3129(16) -0.1777(12) 0.2664(3)
C1J C -0.3129(16) -0.1777(12) 0.2336(3)
H1K H 0.1779 -0.1938 0.2223
H1A H 0.1938 0.3717 0.2777
H1B H -0.3717 -0.1779 0.2777
H1I H 0.1938 0.3717 0.2223
H1J H -0.3717 -0.1779 0.2223
C2K C 0.1775(13) -0.0473(11) 0.2146(3)
C2I C 0.0473(11) 0.2248(17) 0.2146(3)
C2A C 0.0473(11) 0.2248(17) 0.2854(3)
C2B C -0.2248(17) -0.1775(13) 0.2854(3)
C2J C -0.2248(17) -0.1775(13) 0.2146(3)
C3K C 0.1771(13) 0.0411(13) 0.2327(4)
C3A C -0.0411(13) 0.1360(18) 0.2673(4)
C3I C -0.0411(13) 0.1360(18) 0.2327(4)
C3B C -0.1360(18) -0.1771(13) 0.2673(4)
C3J C -0.1360(18) -0.1771(13) 0.2327(4)
H2K H 0.1768 0.0992 0.2212
H2I H -0.0992 0.0776 0.2212
H2A H -0.0992 0.0776 0.2788
H2B H -0.0776 -0.1768 0.2788
H2J H -0.0776 -0.1768 0.2212
C4K C 0.1711(13) -0.0561(12) 0.1773(3)
C4I C 0.0561(12) 0.2272(18) 0.1773(3)
C4A C 0.0561(12) 0.2272(18) 0.3227(3)
C4B C -0.2272(18) -0.1711(13) 0.3227(3)
C4J C -0.2272(18) -0.1711(13) 0.1773(3)
H3B H -0.1851 -0.0937 0.3295
H3A H 0.0914 0.1851 0.3295
H3I H 0.0914 0.1851 0.1705
H3J H -0.1851 -0.0937 0.1705
H3K H 0.0937 -0.0914 0.1705
H4B H -0.3036 -0.2008 0.3300
H4A H 0.1028 0.3036 0.3300
H4I H 0.1028 0.3036 0.1700
H4J H -0.3036 -0.2008 0.1700
H4K H 0.2008 -0.1028 0.1700
C5B C -0.2129(21) -0.3442(14) 0.3340(5)
C5A C -0.1313(15) 0.2129(21) 0.3340(5)
C5I C -0.1313(15) 0.2129(21) 0.1660(5)
C5J C -0.2129(21) -0.3442(14) 0.1660(5)
C5K C 0.3442(14) 0.1313(15) 0.1660(5)
H5B H -0.2748 -0.3968 0.3222
H5A H -0.1220 0.2748 0.3222
H5I H -0.1220 0.2748 0.1778
H5J H -0.2748 -0.3968 0.1778
H5K H 0.3968 0.1220 0.1778
C6B C -0.1356(22) -0.3616(14) 0.3503(5)
C6A C -0.2260(17) 0.1356(22) 0.3503(5)
C6I C -0.2260(17) 0.1356(22) 0.1497(5)
C6J C -0.1356(22) -0.3616(14) 0.1497(5)
C6K C 0.3616(14) 0.2260(17) 0.1497(5)
H6B H -0.1330 -0.4274 0.3510
H6A H -0.2944 0.1330 0.3510
H6I H -0.2944 0.1330 0.1490
H6J H -0.1330 -0.4274 0.1490
H6K H 0.4274 0.2944 0.1490
C7B C -0.0641(18) -0.2635(12) 0.3650(3)
C7A C -0.1994(13) 0.0641(18) 0.3650(3)
C7I C -0.1994(13) 0.0641(18) 0.1350(3)
C7J C -0.0641(18) -0.2635(12) 0.1350(3)
C7K C 0.2635(12) 0.1994(13) 0.1350(3)
C8B C 0.0372(16) -0.2315(11) 0.3852(3)
C8A C -0.2687(11) -0.0372(16) 0.3852(3)
C8I C -0.2687(11) -0.0372(16) 0.1148(3)
C8J C 0.0372(16) -0.2315(11) 0.1148(3)
C8K C 0.2315(11) 0.2687(11) 0.1148(3)
C9B C 0.0705(16) -0.3099(10) 0.3912(3)
C9A C -0.3804(12) -0.0705(16) 0.3912(3)
C9I C -0.3804(12) -0.0705(16) 0.1088(3)
C9J C 0.0705(16) -0.3099(10) 0.1088(3)
C9K C 0.3099(10) 0.3804(12) 0.1088(3)
H7B H 0.0312 -0.3813 0.3823
H7A H -0.4125 -0.0312 0.3823
H7I H -0.4125 -0.0312 0.1177
H7J H 0.0312 -0.3813 0.1177
H7K H 0.3813 0.4125 0.1177
C10B C 0.1651(18) -0.2779(14) 0.4112(4)
C10A C -0.4430(12) -0.1651(18) 0.4112(4)
C10I C -0.4430(12) -0.1651(18) 0.0888(4)
C10J C 0.1651(18) -0.2779(14) 0.0888(4)
C10K C 0.2779(14) 0.4430(12) 0.0888(4)
H8B H 0.1901 -0.3278 0.4153
H8A H -0.5179 -0.1901 0.4153
H8I H -0.5179 -0.1901 0.0847
H8J H 0.1901 -0.3278 0.0847
H8K H 0.3278 0.5179 0.0847
C11B C 0.2190(15) -0.1755(10) 0.4243(4)
C11A C -0.3945(11) -0.2190(15) 0.4243(4)
C11I C -0.3945(11) -0.2190(15) 0.0757(4)
C11J C 0.2190(15) -0.1755(10) 0.0757(4)
C11K C 0.1755(10) 0.3945(11) 0.0757(4)
H9B H 0.2794 -0.1554 0.4383
H9A H -0.4348 -0.2794 0.4383
H9I H -0.4348 -0.2794 0.0617
H9J H 0.2794 -0.1554 0.0617
H9K H 0.1554 0.4348 0.0617
C12A C -0.2826(11) -0.1846(15) 0.4169(3)
C12B C 0.1846(15) -0.0980(10) 0.4169(3)
C12K C 0.0980(10) 0.2826(11) 0.0831(3)
C12I C -0.2826(11) -0.1846(15) 0.0831(3)
C12J C 0.1846(15) -0.0980(10) 0.0831(3)
C13A C -0.2132(10) -0.2333(13) 0.4304(3)
C13B C 0.2333(13) 0.0201(9) 0.4304(3)
C13K C -0.0201(9) 0.2132(10) 0.0696(3)
C13I C -0.2132(10) -0.2333(13) 0.0696(3)
C13J C 0.2333(13) 0.0201(9) 0.0696(3)
C14A C -0.3619(11) -0.4284(16) 0.4241(4)
C14B C 0.4284(16) 0.0665(12) 0.4241(4)
C14K C -0.0665(12) 0.3619(11) 0.0759(4)
C14I C -0.3619(11) -0.4284(16) 0.0759(4)
C14J C 0.4284(16) 0.0665(12) 0.0759(4)
H10A H -0.3479 -0.4798 0.4115
H10B H 0.4798 0.1319 0.4115
H10K H -0.1319 0.3479 0.0885
H10I H -0.3479 -0.4798 0.0885
H10J H 0.4798 0.1319 0.0885
H11A H -0.3948 -0.3980 0.4091
H11B H 0.3980 0.0032 0.4091
H11K H -0.0032 0.3948 0.0909
H11I H -0.3948 -0.3980 0.0909
H11J H 0.3980 0.0032 0.0909
C15A C -0.4445(11) -0.4922(17) 0.4515(4)
C15B C 0.4922(17) 0.0477(13) 0.4515(4)
C15K C -0.0477(13) 0.4445(11) 0.0485(4)
C15I C -0.4445(11) -0.4922(17) 0.0485(4)
C15J C 0.4922(17) 0.0477(13) 0.0485(4)
H12A H -0.4166 -0.5303 0.4649
H12B H 0.5303 0.1137 0.4649
H12K H -0.1137 0.4166 0.0351
H12I H -0.4166 -0.5303 0.0351
H12J H 0.5303 0.1137 0.0351
H13A H -0.5145 -0.5456 0.4418
H13B H 0.5456 0.0311 0.4418
H13K H -0.0311 0.5145 0.0582
H13I H -0.5145 -0.5456 0.0582
H13J H 0.5456 0.0311 0.0582
H14A H -0.4548 -0.4411 0.4652
H14B H 0.4411 -0.0137 0.4652
H14K H 0.0137 0.4548 0.0348
H14I H -0.4548 -0.4411 0.0348
H14J H 0.4411 -0.0137 0.0348
C16A C -0.1803(13) -0.3702(18) 0.4529(3)
C16B C 0.3702(18) 0.1899(13) 0.4529(3)
C16K C -0.1899(13) 0.1803(13) 0.0471(3)
C16I C -0.1803(13) -0.3702(18) 0.0471(3)
C16J C 0.3702(18) 0.1899(13) 0.0471(3)
H15A H -0.1073 -0.3306 0.4426
H15B H 0.3306 0.2233 0.4426
H15K H -0.2233 0.1073 0.0574
H15I H -0.1073 -0.3306 0.0574
H15J H 0.3306 0.2233 0.0574
H16A H -0.2096 -0.4492 0.4494
H16B H 0.4492 0.2396 0.4494
H16K H -0.2396 0.2096 0.0506
H16I H -0.2096 -0.4492 0.0506
H16J H 0.4492 0.2396 0.0506
C17A C -0.1676(14) -0.3472(21) 0.4894(3)
C17B C 0.3472(21) 0.1796(16) 0.4894(3)
C17K C -0.1796(16) 0.1676(14) 0.0106(3)
C17I C -0.1676(14) -0.3472(21) 0.0106(3)
C17J C 0.3472(21) 0.1796(16) 0.0106(3)
H17A H -0.1344 -0.2685 0.4932
H17B H 0.2685 0.1341 0.4932
H17K H -0.1341 0.1344 0.0068
H17I H -0.1344 -0.2685 0.0068
H17J H 0.2685 0.1341 0.0068
H18A H -0.1208 -0.3731 0.4988
H18B H 0.3731 0.2523 0.4988
H18K H -0.2523 0.1208 0.0012
H18I H -0.1208 -0.3731 0.0012
H18J H 0.3731 0.2523 0.0012
H19A H -0.2396 -0.3854 0.4999
H19B H 0.3854 0.1458 0.4999
H19K H -0.1458 0.2396 0.0001
H19I H -0.2396 -0.3854 0.0001
H19J H 0.3854 0.1458 0.0001
Cl1 Cl 0.6667 0.3333 0.51450(11)
O2 O 0.6667 0.3333 0.4776(2)
O3 O 0.7799(7) 0.3937(9) 0.52654(18)
O3A O 0.6063(9) 0.3862(11) 0.52654(18)
O3B O 0.6138(11) 0.2201(7) 0.52654(18)
Cl3 Cl 0.6667 0.3333 0.3623(3)
O8 O 0.632(2) 0.402(2) 0.3465(3)
O9 O 0.6667 0.3333 0.3971(3)
O8A O 0.598(2) 0.230(3) 0.3465(3)
O8B O 0.770(3) 0.368(2) 0.3465(3)
loop_
_geom_bond_atom_site_label_1
_geom_bond_atom_site_label_2
_geom_bond_site_symmetry_1
_geom_bond_site_symmetry_2
La1 O1 1_555 1_555
O1 C13 1_555 1_555
N1 N2 1_555 1_555
N2 La1 1_555 1_555
N3 La1 1_555 1_555
N4 C13 1_555 1_555
C1 H1 1_555 1_555
C2 C1 1_555 1_555
C3 C2 1_555 1_555
H2 C3 1_555 1_555
C4 N1 1_555 1_555
H3 C4 1_555 1_555
H4 C4 1_555 1_555
C5 N1 1_555 1_555
H5 C5 1_555 1_555
C6 C5 1_555 1_555
H6 C6 1_555 1_555
C7 N2 1_555 1_555
C8 N3 1_555 1_555
C9 C8 1_555 1_555
H7 C9 1_555 1_555
C10 C9 1_555 1_555
H8 C10 1_555 1_555
C11 C10 1_555 1_555
H9 C11 1_555 1_555
C12 N3 1_555 1_555
C13 C12 1_555 1_555
C14 N4 1_555 1_555
H10 C14 1_555 1_555
H11 C14 1_555 1_555
C15 C14 1_555 1_555
H12 C15 1_555 1_555
H13 C15 1_555 1_555
H14 C15 1_555 1_555
C16 N4 1_555 1_555
H15 C16 1_555 1_555
H16 C16 1_555 1_555
C17 C16 1_555 1_555
H17 C17 1_555 1_555
H18 C17 1_555 1_555
H19 C17 1_555 1_555
Cl1 O2 1_555 1_555
O3 Cl1 1_555 1_555
Cl3 O8 1_555 1_555
O9 Cl3 1_555 1_555
La1K O1K 1_555 1_555
O1A La1 1_555 1_555
O1B La1 1_555 1_555
O1K C13K 1_555 1_555
O1I La1K 1_555 1_555
O1J La1K 1_555 1_555
N1K N2K 1_555 1_555
N1I N2I 1_555 1_555
N1A N2A 1_555 1_555
N1B N2B 1_555 1_555
N1J N2J 1_555 1_555
N2K La1K 1_555 1_555
N2I La1K 1_555 1_555
N2A La1 1_555 1_555
N2B La1 1_555 1_555
N2J La1K 1_555 1_555
N3A La1 1_555 1_555
N3B La1 1_555 1_555
N3K La1K 1_555 1_555
N3I La1K 1_555 1_555
N3J La1K 1_555 1_555
N4A C13A 1_555 1_555
N4B C13B 1_555 1_555
N4K C13K 1_555 1_555
N4I C13I 1_555 1_555
N4J C13J 1_555 1_555
C1K C1 1_555 1_555
C1I C1A 1_555 1_555
C1A H1A 1_555 1_555
C1B C1J 1_555 1_555
C1J H1J 1_555 1_555
H1K C1K 1_555 1_555
H1B C1B 1_555 1_555
H1I C1I 1_555 1_555
C2K C1K 1_555 1_555
C2I C1I 1_555 1_555
C2A C1A 1_555 1_555
C2B C1B 1_555 1_555
C2J C1J 1_555 1_555
C3K C3 1_555 1_555
C3A C2A 1_555 1_555
C3I C2I 1_555 1_555
C3B C2B 1_555 1_555
C3J C2J 1_555 1_555
H2K C3K 1_555 1_555
H2I C3I 1_555 1_555
H2A C3A 1_555 1_555
H2B C3B 1_555 1_555
H2J C3J 1_555 1_555
C4K N1K 1_555 1_555
C4I N1I 1_555 1_555
C4A N1A 1_555 1_555
C4B N1B 1_555 1_555
C4J N1J 1_555 1_555
H3B C4B 1_555 1_555
H3A C4A 1_555 1_555
H3I C4I 1_555 1_555
H3J C4J 1_555 1_555
H3K C4K 1_555 1_555
H4B C4B 1_555 1_555
H4A C4A 1_555 1_555
H4I C4I 1_555 1_555
H4J C4J 1_555 1_555
H4K C4K 1_555 1_555
C5B N1B 1_555 1_555
C5A N1A 1_555 1_555
C5I N1I 1_555 1_555
C5J N1J 1_555 1_555
C5K N1K 1_555 1_555
H5B C5B 1_555 1_555
H5A C5A 1_555 1_555
H5I C5I 1_555 1_555
H5J C5J 1_555 1_555
H5K C5K 1_555 1_555
C6B C5B 1_555 1_555
C6A C5A 1_555 1_555
C6I C5I 1_555 1_555
C6J C5J 1_555 1_555
C6K C5K 1_555 1_555
H6B C6B 1_555 1_555
H6A C6A 1_555 1_555
H6I C6I 1_555 1_555
H6J C6J 1_555 1_555
H6K C6K 1_555 1_555
C7B N2B 1_555 1_555
C7A N2A 1_555 1_555
C7I N2I 1_555 1_555
C7J N2J 1_555 1_555
C7K N2K 1_555 1_555
C8B N3B 1_555 1_555
C8A N3A 1_555 1_555
C8I N3I 1_555 1_555
C8J N3J 1_555 1_555
C8K N3K 1_555 1_555
C9B C8B 1_555 1_555
C9A C8A 1_555 1_555
C9I C8I 1_555 1_555
C9J C8J 1_555 1_555
C9K C8K 1_555 1_555
H7B C9B 1_555 1_555
H7A C9A 1_555 1_555
H7I C9I 1_555 1_555
H7J C9J 1_555 1_555
H7K C9K 1_555 1_555
C10B C9B 1_555 1_555
C10A C9A 1_555 1_555
C10I C9I 1_555 1_555
C10J C9J 1_555 1_555
C10K C9K 1_555 1_555
H8B C10B 1_555 1_555
H8A C10A 1_555 1_555
H8I C10I 1_555 1_555
H8J C10J 1_555 1_555
H8K C10K 1_555 1_555
C11B C10B 1_555 1_555
C11A C10A 1_555 1_555
C11I C10I 1_555 1_555
C11J C10J 1_555 1_555
C11K C10K 1_555 1_555
H9B C11B 1_555 1_555
H9A C11A 1_555 1_555
H9I C11I 1_555 1_555
H9J C11J 1_555 1_555
H9K C11K 1_555 1_555
C12A N3A 1_555 1_555
C12B N3B 1_555 1_555
C12K N3K 1_555 1_555
C12I N3I 1_555 1_555
C12J N3J 1_555 1_555
C13A O1A 1_555 1_555
C13B O1B 1_555 1_555
C13K C12K 1_555 1_555
C13I O1I 1_555 1_555
C13J O1J 1_555 1_555
C14A N4A 1_555 1_555
C14B N4B 1_555 1_555
C14K N4K 1_555 1_555
C14I N4I 1_555 1_555
C14J N4J 1_555 1_555
H10A C14A 1_555 1_555
H10B C14B 1_555 1_555
H10K C14K 1_555 1_555
H10I C14I 1_555 1_555
H10J C14J 1_555 1_555
H11A C14A 1_555 1_555
H11B C14B 1_555 1_555
H11K C14K 1_555 1_555
H11I C14I 1_555 1_555
H11J C14J 1_555 1_555
C15A C14A 1_555 1_555
C15B C14B 1_555 1_555
C15K C14K 1_555 1_555
C15I C14I 1_555 1_555
C15J C14J 1_555 1_555
H12A C15A 1_555 1_555
H12B C15B 1_555 1_555
H12K C15K 1_555 1_555
H12I C15I 1_555 1_555
H12J C15J 1_555 1_555
H13A C15A 1_555 1_555
H13B C15B 1_555 1_555
H13K C15K 1_555 1_555
H13I C15I 1_555 1_555
H13J C15J 1_555 1_555
H14A C15A 1_555 1_555
H14B C15B 1_555 1_555
H14K C15K 1_555 1_555
H14I C15I 1_555 1_555
H14J C15J 1_555 1_555
C16A N4A 1_555 1_555
C16B N4B 1_555 1_555
C16K N4K 1_555 1_555
C16I N4I 1_555 1_555
C16J N4J 1_555 1_555
H15A C16A 1_555 1_555
H15B C16B 1_555 1_555
H15K C16K 1_555 1_555
H15I C16I 1_555 1_555
H15J C16J 1_555 1_555
H16A C16A 1_555 1_555
H16B C16B 1_555 1_555
H16K C16K 1_555 1_555
H16I C16I 1_555 1_555
H16J C16J 1_555 1_555
C17A C16A 1_555 1_555
C17B C16B 1_555 1_555
C17K C16K 1_555 1_555
C17I C16I 1_555 1_555
C17J C16J 1_555 1_555
H17A C17A 1_555 1_555
H17B C17B 1_555 1_555
H17K C17K 1_555 1_555
H17I C17I 1_555 1_555
H17J C17J 1_555 1_555
H18A C17A 1_555 1_555
H18B C17B 1_555 1_555
H18K C17K 1_555 1_555
H18I C17I 1_555 1_555
H18J C17J 1_555 1_555
H19A C17A 1_555 1_555
H19B C17B 1_555 1_555
H19K C17K 1_555 1_555
H19I C17I 1_555 1_555
H19J C17J 1_555 1_555
O3A Cl1 1_555 1_555
O3B Cl1 1_555 1_555
O8A Cl3 1_555 1_555
O8B Cl3 1_555 1_555
C2 C4 1_555 1_555
C6 C7 1_555 1_555
C7 C8 1_555 1_555
C11 C12 1_555 1_555
C2K C3K 1_555 1_555
C2K C4K 1_555 1_555
C2I C4I 1_555 1_555
C2A C4A 1_555 1_555
C2B C4B 1_555 1_555
C2J C4J 1_555 1_555
C3A C3I 1_555 1_555
C3B C3J 1_555 1_555
C6B C7B 1_555 1_555
C6A C7A 1_555 1_555
C6I C7I 1_555 1_555
C6J C7J 1_555 1_555
C6K C7K 1_555 1_555
C7B C8B 1_555 1_555
C7A C8A 1_555 1_555
C7I C8I 1_555 1_555
C7J C8J 1_555 1_555
C7K C8K 1_555 1_555
C11B C12B 1_555 1_555
C11A C12A 1_555 1_555
C11I C12I 1_555 1_555
C11J C12J 1_555 1_555
C11K C12K 1_555 1_555
C12A C13A 1_555 1_555
C12B C13B 1_555 1_555
C12I C13I 1_555 1_555
C12J C13J 1_555 1_555

#END
