
#######################################################################
#
#                 Cambridge Crystallographic Data Centre
#                                CCDC 
#
#######################################################################
#
# If this CIF has been generated from an entry in the Cambridge 
# Structural Database, then it will include bibliographic, chemical, 
# crystal, experimental, refinement or atomic coordinate data resulting 
# from the CCDC's data processing and validation procedures.
#
#######################################################################

data_WEZJOB
_chemical_formula_moiety         'C102 H114 N24 Nd2 O6 6+,6(Cl1 O4 1-)'
_chemical_name_systematic        
"tris(\m~2~-6,6'-(1,4-Phenylenebis(methylene-1H-pyrazole-1,3-diyl))-bis(N,N-diethylpyridine-2-carboxamide))-di-neodymium(iii) hexaperchlorate"
_symmetry_cell_setting           hexagonal
_symmetry_space_group_name_H-M   'P 63/m'
_symmetry_Int_Tables_number      176
_space_group_name_Hall           '-P 6c'
loop_
_symmetry_equiv_pos_site_id
_symmetry_equiv_pos_as_xyz
1 x,y,z
2 -y,x-y,z
3 -x+y,-x,z
4 y,-x+y,1/2+z
5 x-y,x,1/2+z
6 -x,-y,1/2+z
7 -x,-y,-z
8 y,-x+y,-z
9 x-y,x,-z
10 -y,x-y,1/2-z
11 -x+y,-x,1/2-z
12 x,y,1/2-z
_cell_length_a                   13.6489(7)
_cell_length_b                   13.6489(7)
_cell_length_c                   40.211(4)
_cell_angle_alpha                90
_cell_angle_beta                 90
_cell_angle_gamma                120
_cell_volume                     6487.4
_exptl_crystal_colour            'pale purple'
_exptl_crystal_description       block
_cell_formula_units_Z            2
_exptl_crystal_recrystallization_method 'di-isopropyl ether'
_exptl_crystal_preparation       luminescent
loop_
_atom_site_label
_atom_site_type_symbol
_atom_site_fract_x
_atom_site_fract_y
_atom_site_fract_z
Nd1 Nd 0.0000 0.0000 0.397370(11)
O1 O -0.0460(4) 0.1079(4) 0.43537(10)
N1 N 0.2331(5) 0.0444(5) 0.33841(14)
N2 N 0.1806(4) 0.0883(5) 0.35650(11)
N3 N 0.1312(5) 0.2181(5) 0.39722(12)
N4 N -0.0799(5) 0.2530(5) 0.43660(13)
C1 C 0.1771(9) -0.1466(7) 0.26703(18)
H1 H 0.1770 -0.2060 0.2784
C2 C 0.1772(6) -0.0594(6) 0.28491(14)
C3 C 0.1740(8) 0.0274(7) 0.26740(18)
H2 H 0.1718 0.0853 0.2789
C4 C 0.1712(6) -0.0641(6) 0.32257(16)
H3 H 0.0926 -0.0991 0.3293
H4 H 0.2004 -0.1118 0.3304
C5 C 0.3445(7) 0.1192(7) 0.33469(19)
H5 H 0.3964 0.1067 0.3232
C6 C 0.3676(7) 0.2188(7) 0.35121(18)
H6 H 0.4364 0.2859 0.3528
C7 C 0.2657(6) 0.1945(6) 0.36444(17)
C8 C 0.2371(6) 0.2679(6) 0.38417(15)
C9 C 0.3166(6) 0.3808(6) 0.38940(17)
H7 H 0.3879 0.4128 0.3797
C10 C 0.2866(7) 0.4460(6) 0.40993(18)
H8 H 0.3380 0.5217 0.4142
C11 C 0.1802(6) 0.3947(6) 0.42325(17)
H9 H 0.1592 0.4353 0.4373
C12 C 0.1030(6) 0.2818(6) 0.41594(16)
C13 C -0.0150(6) 0.2103(5) 0.43002(14)
C14 C -0.0646(6) 0.3621(6) 0.42405(18)
H10 H -0.1305 0.3482 0.4112
H11 H 0.0008 0.3972 0.4095
C15 C -0.0481(6) 0.4428(6) 0.4529(2)
H12 H -0.1148 0.4102 0.4665
H13 H -0.0350 0.5138 0.4441
H14 H 0.0157 0.4549 0.4660
C16 C -0.1877(6) 0.1798(6) 0.45349(17)
H15 H -0.2242 0.1060 0.4430
H16 H -0.2368 0.2117 0.4508
C17 C -0.1739(7) 0.1656(7) 0.49042(17)
H17 H -0.1325 0.1263 0.4933
H18 H -0.2471 0.1228 0.5005
H19 H -0.1332 0.2387 0.5007
Nd1K Nd 0.0000 0.0000 0.102630(11)
O1A O -0.1079(4) -0.1539(6) 0.43537(10)
O1B O 0.1539(6) 0.0460(4) 0.43537(10)
O1K O -0.0460(4) 0.1079(4) 0.06463(10)
O1I O -0.1079(4) -0.1539(6) 0.06463(10)
O1J O 0.1539(6) 0.0460(4) 0.06463(10)
N1K N 0.2331(5) 0.0444(5) 0.16159(14)
N1I N -0.0444(5) 0.1887(7) 0.16159(14)
N1A N -0.0444(5) 0.1887(7) 0.33841(14)
N1B N -0.1887(7) -0.2331(5) 0.33841(14)
N1J N -0.1887(7) -0.2331(5) 0.16159(14)
N2K N 0.1806(4) 0.0883(5) 0.14350(11)
N2I N -0.0883(5) 0.0923(6) 0.14350(11)
N2A N -0.0883(5) 0.0923(6) 0.35650(11)
N2B N -0.0923(6) -0.1806(4) 0.35650(11)
N2J N -0.0923(6) -0.1806(4) 0.14350(11)
N3A N -0.2181(5) -0.0869(7) 0.39722(12)
N3B N 0.0869(7) -0.1312(5) 0.39722(12)
N3K N 0.1312(5) 0.2181(5) 0.10278(12)
N3I N -0.2181(5) -0.0869(7) 0.10278(12)
N3J N 0.0869(7) -0.1312(5) 0.10278(12)
N4A N -0.2530(5) -0.3329(7) 0.43660(13)
N4B N 0.3329(7) 0.0799(5) 0.43660(13)
N4K N -0.0799(5) 0.2530(5) 0.06340(13)
N4I N -0.2530(5) -0.3329(7) 0.06340(13)
N4J N 0.3329(7) 0.0799(5) 0.06340(13)
C1K C 0.1771(9) -0.1466(7) 0.23297(18)
C1I C 0.1466(7) 0.3237(11) 0.23297(18)
C1A C 0.1466(7) 0.3237(11) 0.26703(18)
C1B C -0.3237(11) -0.1771(9) 0.26703(18)
C1J C -0.3237(11) -0.1771(9) 0.23297(18)
H1K H 0.1770 -0.2060 0.2216
H1A H 0.2060 0.3830 0.2784
H1B H -0.3830 -0.1770 0.2784
H1I H 0.2060 0.3830 0.2216
H1J H -0.3830 -0.1770 0.2216
C2K C 0.1772(6) -0.0594(6) 0.21509(14)
C2I C 0.0594(6) 0.2366(8) 0.21509(14)
C2A C 0.0594(6) 0.2366(8) 0.28491(14)
C2B C -0.2366(8) -0.1772(6) 0.28491(14)
C2J C -0.2366(8) -0.1772(6) 0.21509(14)
C3K C 0.1740(8) 0.0274(7) 0.23260(18)
C3A C -0.0274(7) 0.1466(11) 0.26740(18)
C3I C -0.0274(7) 0.1466(11) 0.23260(18)
C3B C -0.1466(11) -0.1740(8) 0.26740(18)
C3J C -0.1466(11) -0.1740(8) 0.23260(18)
H2K H 0.1718 0.0853 0.2211
H2I H -0.0853 0.0865 0.2211
H2A H -0.0853 0.0865 0.2789
H2B H -0.0865 -0.1718 0.2789
H2J H -0.0865 -0.1718 0.2211
C4K C 0.1712(6) -0.0641(6) 0.17743(16)
C4I C 0.0641(6) 0.2353(8) 0.17743(16)
C4A C 0.0641(6) 0.2353(8) 0.32257(16)
C4B C -0.2353(8) -0.1712(6) 0.32257(16)
C4J C -0.2353(8) -0.1712(6) 0.17743(16)
H3B H -0.1917 -0.0926 0.3293
H3A H 0.0991 0.1917 0.3293
H3I H 0.0991 0.1917 0.1707
H3J H -0.1917 -0.0926 0.1707
H3K H 0.0926 -0.0991 0.1707
H4B H -0.3122 -0.2004 0.3304
H4A H 0.1118 0.3122 0.3304
H4I H 0.1118 0.3122 0.1696
H4J H -0.3122 -0.2004 0.1696
H4K H 0.2004 -0.1118 0.1696
C5B C -0.2253(10) -0.3445(7) 0.33469(19)
C5A C -0.1192(7) 0.2253(10) 0.33469(19)
C5I C -0.1192(7) 0.2253(10) 0.16531(19)
C5J C -0.2253(10) -0.3445(7) 0.16531(19)
C5K C 0.3445(7) 0.1192(7) 0.16531(19)
H5B H -0.2897 -0.3964 0.3232
H5A H -0.1067 0.2897 0.3232
H5I H -0.1067 0.2897 0.1768
H5J H -0.2897 -0.3964 0.1768
H5K H 0.3964 0.1067 0.1768
C6B C -0.1488(10) -0.3676(7) 0.35121(18)
C6A C -0.2188(7) 0.1488(10) 0.35121(18)
C6I C -0.2188(7) 0.1488(10) 0.14879(18)
C6J C -0.1488(10) -0.3676(7) 0.14879(18)
C6K C 0.3676(7) 0.2188(7) 0.14879(18)
H6B H -0.1505 -0.4364 0.3528
H6A H -0.2859 0.1505 0.3528
H6I H -0.2859 0.1505 0.1472
H6J H -0.1505 -0.4364 0.1472
H6K H 0.4364 0.2859 0.1472
C7B C -0.0712(8) -0.2657(6) 0.36444(17)
C7A C -0.1945(6) 0.0712(8) 0.36444(17)
C7I C -0.1945(6) 0.0712(8) 0.13556(17)
C7J C -0.0712(8) -0.2657(6) 0.13556(17)
C7K C 0.2657(6) 0.1945(6) 0.13556(17)
C8B C 0.0308(8) -0.2371(6) 0.38417(15)
C8A C -0.2679(6) -0.0308(8) 0.38417(15)
C8I C -0.2679(6) -0.0308(8) 0.11583(15)
C8J C 0.0308(8) -0.2371(6) 0.11583(15)
C8K C 0.2371(6) 0.2679(6) 0.11583(15)
C9B C 0.0642(8) -0.3166(6) 0.38940(17)
C9A C -0.3808(6) -0.0642(8) 0.38940(17)
C9I C -0.3808(6) -0.0642(8) 0.11060(17)
C9J C 0.0642(8) -0.3166(6) 0.11060(17)
C9K C 0.3166(6) 0.3808(6) 0.11060(17)
H7B H 0.0249 -0.3879 0.3797
H7A H -0.4128 -0.0249 0.3797
H7I H -0.4128 -0.0249 0.1203
H7J H 0.0249 -0.3879 0.1203
H7K H 0.3879 0.4128 0.1203
C10B C 0.1594(9) -0.2866(7) 0.40993(18)
C10A C -0.4460(6) -0.1594(9) 0.40993(18)
C10I C -0.4460(6) -0.1594(9) 0.09007(18)
C10J C 0.1594(9) -0.2866(7) 0.09007(18)
C10K C 0.2866(7) 0.4460(6) 0.09007(18)
H8B H 0.1837 -0.3380 0.4142
H8A H -0.5217 -0.1837 0.4142
H8I H -0.5217 -0.1837 0.0858
H8J H 0.1837 -0.3380 0.0858
H8K H 0.3380 0.5217 0.0858
C11B C 0.2145(8) -0.1802(6) 0.42325(17)
C11A C -0.3947(6) -0.2145(8) 0.42325(17)
C11I C -0.3947(6) -0.2145(8) 0.07675(17)
C11J C 0.2145(8) -0.1802(6) 0.07675(17)
C11K C 0.1802(6) 0.3947(6) 0.07675(17)
H9B H 0.2761 -0.1592 0.4373
H9A H -0.4353 -0.2761 0.4373
H9I H -0.4353 -0.2761 0.0627
H9J H 0.2761 -0.1592 0.0627
H9K H 0.1592 0.4353 0.0627
C12A C -0.2818(6) -0.1788(8) 0.41594(16)
C12B C 0.1788(8) -0.1030(6) 0.41594(16)
C12K C 0.1030(6) 0.2818(6) 0.08406(16)
C12I C -0.2818(6) -0.1788(8) 0.08406(16)
C12J C 0.1788(8) -0.1030(6) 0.08406(16)
C13A C -0.2103(5) -0.2253(8) 0.43002(14)
C13B C 0.2253(8) 0.0150(6) 0.43002(14)
C13K C -0.0150(6) 0.2103(5) 0.06998(14)
C13I C -0.2103(5) -0.2253(8) 0.06998(14)
C13J C 0.2253(8) 0.0150(6) 0.06998(14)
C14A C -0.3621(6) -0.4267(8) 0.42405(18)
C14B C 0.4267(8) 0.0646(6) 0.42405(18)
C14K C -0.0646(6) 0.3621(6) 0.07595(18)
C14I C -0.3621(6) -0.4267(8) 0.07595(18)
C14J C 0.4267(8) 0.0646(6) 0.07595(18)
H10A H -0.3482 -0.4787 0.4112
H10B H 0.4787 0.1305 0.4112
H10K H -0.1305 0.3482 0.0888
H10I H -0.3482 -0.4787 0.0888
H10J H 0.4787 0.1305 0.0888
H11A H -0.3972 -0.3964 0.4095
H11B H 0.3964 -0.0008 0.4095
H11K H 0.0008 0.3972 0.0905
H11I H -0.3972 -0.3964 0.0905
H11J H 0.3964 -0.0008 0.0905
C15A C -0.4428(6) -0.4909(8) 0.4529(2)
C15B C 0.4909(8) 0.0481(6) 0.4529(2)
C15K C -0.0481(6) 0.4428(6) 0.0471(2)
C15I C -0.4428(6) -0.4909(8) 0.0471(2)
C15J C 0.4909(8) 0.0481(6) 0.0471(2)
H12A H -0.4102 -0.5250 0.4665
H12B H 0.5250 0.1148 0.4665
H12K H -0.1148 0.4102 0.0335
H12I H -0.4102 -0.5250 0.0335
H12J H 0.5250 0.1148 0.0335
H13A H -0.5138 -0.5488 0.4441
H13B H 0.5488 0.0350 0.4441
H13K H -0.0350 0.5138 0.0559
H13I H -0.5138 -0.5488 0.0559
H13J H 0.5488 0.0350 0.0559
H14A H -0.4549 -0.4392 0.4660
H14B H 0.4392 -0.0157 0.4660
H14K H 0.0157 0.4549 0.0340
H14I H -0.4549 -0.4392 0.0340
H14J H 0.4392 -0.0157 0.0340
C16A C -0.1798(6) -0.3675(8) 0.45349(17)
C16B C 0.3675(8) 0.1877(6) 0.45349(17)
C16K C -0.1877(6) 0.1798(6) 0.04651(17)
C16I C -0.1798(6) -0.3675(8) 0.04651(17)
C16J C 0.3675(8) 0.1877(6) 0.04651(17)
H15A H -0.1060 -0.3302 0.4430
H15B H 0.3302 0.2242 0.4430
H15K H -0.2242 0.1060 0.0570
H15I H -0.1060 -0.3302 0.0570
H15J H 0.3302 0.2242 0.0570
H16A H -0.2117 -0.4485 0.4508
H16B H 0.4485 0.2368 0.4508
H16K H -0.2368 0.2117 0.0492
H16I H -0.2117 -0.4485 0.0492
H16J H 0.4485 0.2368 0.0492
C17A C -0.1656(7) -0.3395(10) 0.49042(17)
C17B C 0.3395(10) 0.1739(7) 0.49042(17)
C17K C -0.1739(7) 0.1656(7) 0.00958(17)
C17I C -0.1656(7) -0.3395(10) 0.00958(17)
C17J C 0.3395(10) 0.1739(7) 0.00958(17)
H17A H -0.1263 -0.2588 0.4933
H17B H 0.2588 0.1325 0.4933
H17K H -0.1325 0.1263 0.0067
H17I H -0.1263 -0.2588 0.0067
H17J H 0.2588 0.1325 0.0067
H18A H -0.1228 -0.3699 0.5005
H18B H 0.3699 0.2471 0.5005
H18K H -0.2471 0.1228 -0.0005
H18I H -0.1228 -0.3699 -0.0005
H18J H 0.3699 0.2471 -0.0005
H19A H -0.2387 -0.3719 0.5007
H19B H 0.3719 0.1332 0.5007
H19K H -0.1332 0.2387 -0.0007
H19I H -0.2387 -0.3719 -0.0007
H19J H 0.3719 0.1332 -0.0007
Cl1 Cl 0.6667 0.3333 0.51434(6)
O2 O 0.6667 0.3333 0.4781(2)
O3 O 0.7813(4) 0.3914(5) 0.52603(12)
O3A O 0.6086(5) 0.3899(6) 0.52603(12)
O3B O 0.6101(6) 0.2187(4) 0.52603(12)
Cl3 Cl 0.6667 0.3333 0.3657(3)
O8 O 0.624(2) 0.400(2) 0.3454(5)
O9 O 0.6667 0.3333 0.3999(5)
O8A O 0.600(2) 0.224(3) 0.3454(5)
O8B O 0.776(3) 0.376(2) 0.3454(5)
loop_
_geom_bond_atom_site_label_1
_geom_bond_atom_site_label_2
_geom_bond_site_symmetry_1
_geom_bond_site_symmetry_2
Nd1 O1 1_555 1_555
O1 C13 1_555 1_555
N1 N2 1_555 1_555
N2 Nd1 1_555 1_555
N3 Nd1 1_555 1_555
N4 C13 1_555 1_555
C1 H1 1_555 1_555
C2 C1 1_555 1_555
C3 C2 1_555 1_555
H2 C3 1_555 1_555
C4 N1 1_555 1_555
H3 C4 1_555 1_555
H4 C4 1_555 1_555
C5 N1 1_555 1_555
H5 C5 1_555 1_555
C6 C5 1_555 1_555
H6 C6 1_555 1_555
C7 N2 1_555 1_555
C8 N3 1_555 1_555
C9 C8 1_555 1_555
H7 C9 1_555 1_555
C10 C9 1_555 1_555
H8 C10 1_555 1_555
C11 C10 1_555 1_555
H9 C11 1_555 1_555
C12 N3 1_555 1_555
C13 C12 1_555 1_555
C14 N4 1_555 1_555
H10 C14 1_555 1_555
H11 C14 1_555 1_555
C15 C14 1_555 1_555
H12 C15 1_555 1_555
H13 C15 1_555 1_555
H14 C15 1_555 1_555
C16 N4 1_555 1_555
H15 C16 1_555 1_555
H16 C16 1_555 1_555
C17 C16 1_555 1_555
H17 C17 1_555 1_555
H18 C17 1_555 1_555
H19 C17 1_555 1_555
Cl1 O2 1_555 1_555
O3 Cl1 1_555 1_555
Cl3 O8 1_555 1_555
O9 Cl3 1_555 1_555
Nd1K O1K 1_555 1_555
O1A Nd1 1_555 1_555
O1B Nd1 1_555 1_555
O1K C13K 1_555 1_555
O1I Nd1K 1_555 1_555
O1J Nd1K 1_555 1_555
N1K N2K 1_555 1_555
N1I N2I 1_555 1_555
N1A N2A 1_555 1_555
N1B N2B 1_555 1_555
N1J N2J 1_555 1_555
N2K Nd1K 1_555 1_555
N2I Nd1K 1_555 1_555
N2A Nd1 1_555 1_555
N2B Nd1 1_555 1_555
N2J Nd1K 1_555 1_555
N3A Nd1 1_555 1_555
N3B Nd1 1_555 1_555
N3K Nd1K 1_555 1_555
N3I Nd1K 1_555 1_555
N3J Nd1K 1_555 1_555
N4A C13A 1_555 1_555
N4B C13B 1_555 1_555
N4K C13K 1_555 1_555
N4I C13I 1_555 1_555
N4J C13J 1_555 1_555
C1K C1 1_555 1_555
C1I C1A 1_555 1_555
C1A H1A 1_555 1_555
C1B C1J 1_555 1_555
C1J H1J 1_555 1_555
H1K C1K 1_555 1_555
H1B C1B 1_555 1_555
H1I C1I 1_555 1_555
C2K C1K 1_555 1_555
C2I C1I 1_555 1_555
C2A C1A 1_555 1_555
C2B C1B 1_555 1_555
C2J C1J 1_555 1_555
C3K C3 1_555 1_555
C3A C2A 1_555 1_555
C3I C2I 1_555 1_555
C3B C2B 1_555 1_555
C3J C2J 1_555 1_555
H2K C3K 1_555 1_555
H2I C3I 1_555 1_555
H2A C3A 1_555 1_555
H2B C3B 1_555 1_555
H2J C3J 1_555 1_555
C4K N1K 1_555 1_555
C4I N1I 1_555 1_555
C4A N1A 1_555 1_555
C4B N1B 1_555 1_555
C4J N1J 1_555 1_555
H3B C4B 1_555 1_555
H3A C4A 1_555 1_555
H3I C4I 1_555 1_555
H3J C4J 1_555 1_555
H3K C4K 1_555 1_555
H4B C4B 1_555 1_555
H4A C4A 1_555 1_555
H4I C4I 1_555 1_555
H4J C4J 1_555 1_555
H4K C4K 1_555 1_555
C5B N1B 1_555 1_555
C5A N1A 1_555 1_555
C5I N1I 1_555 1_555
C5J N1J 1_555 1_555
C5K N1K 1_555 1_555
H5B C5B 1_555 1_555
H5A C5A 1_555 1_555
H5I C5I 1_555 1_555
H5J C5J 1_555 1_555
H5K C5K 1_555 1_555
C6B C5B 1_555 1_555
C6A C5A 1_555 1_555
C6I C5I 1_555 1_555
C6J C5J 1_555 1_555
C6K C5K 1_555 1_555
H6B C6B 1_555 1_555
H6A C6A 1_555 1_555
H6I C6I 1_555 1_555
H6J C6J 1_555 1_555
H6K C6K 1_555 1_555
C7B N2B 1_555 1_555
C7A N2A 1_555 1_555
C7I N2I 1_555 1_555
C7J N2J 1_555 1_555
C7K N2K 1_555 1_555
C8B N3B 1_555 1_555
C8A N3A 1_555 1_555
C8I N3I 1_555 1_555
C8J N3J 1_555 1_555
C8K N3K 1_555 1_555
C9B C8B 1_555 1_555
C9A C8A 1_555 1_555
C9I C8I 1_555 1_555
C9J C8J 1_555 1_555
C9K C8K 1_555 1_555
H7B C9B 1_555 1_555
H7A C9A 1_555 1_555
H7I C9I 1_555 1_555
H7J C9J 1_555 1_555
H7K C9K 1_555 1_555
C10B C9B 1_555 1_555
C10A C9A 1_555 1_555
C10I C9I 1_555 1_555
C10J C9J 1_555 1_555
C10K C9K 1_555 1_555
H8B C10B 1_555 1_555
H8A C10A 1_555 1_555
H8I C10I 1_555 1_555
H8J C10J 1_555 1_555
H8K C10K 1_555 1_555
C11B C10B 1_555 1_555
C11A C10A 1_555 1_555
C11I C10I 1_555 1_555
C11J C10J 1_555 1_555
C11K C10K 1_555 1_555
H9B C11B 1_555 1_555
H9A C11A 1_555 1_555
H9I C11I 1_555 1_555
H9J C11J 1_555 1_555
H9K C11K 1_555 1_555
C12A N3A 1_555 1_555
C12B N3B 1_555 1_555
C12K N3K 1_555 1_555
C12I N3I 1_555 1_555
C12J N3J 1_555 1_555
C13A O1A 1_555 1_555
C13B O1B 1_555 1_555
C13K C12K 1_555 1_555
C13I O1I 1_555 1_555
C13J O1J 1_555 1_555
C14A N4A 1_555 1_555
C14B N4B 1_555 1_555
C14K N4K 1_555 1_555
C14I N4I 1_555 1_555
C14J N4J 1_555 1_555
H10A C14A 1_555 1_555
H10B C14B 1_555 1_555
H10K C14K 1_555 1_555
H10I C14I 1_555 1_555
H10J C14J 1_555 1_555
H11A C14A 1_555 1_555
H11B C14B 1_555 1_555
H11K C14K 1_555 1_555
H11I C14I 1_555 1_555
H11J C14J 1_555 1_555
C15A C14A 1_555 1_555
C15B C14B 1_555 1_555
C15K C14K 1_555 1_555
C15I C14I 1_555 1_555
C15J C14J 1_555 1_555
H12A C15A 1_555 1_555
H12B C15B 1_555 1_555
H12K C15K 1_555 1_555
H12I C15I 1_555 1_555
H12J C15J 1_555 1_555
H13A C15A 1_555 1_555
H13B C15B 1_555 1_555
H13K C15K 1_555 1_555
H13I C15I 1_555 1_555
H13J C15J 1_555 1_555
H14A C15A 1_555 1_555
H14B C15B 1_555 1_555
H14K C15K 1_555 1_555
H14I C15I 1_555 1_555
H14J C15J 1_555 1_555
C16A N4A 1_555 1_555
C16B N4B 1_555 1_555
C16K N4K 1_555 1_555
C16I N4I 1_555 1_555
C16J N4J 1_555 1_555
H15A C16A 1_555 1_555
H15B C16B 1_555 1_555
H15K C16K 1_555 1_555
H15I C16I 1_555 1_555
H15J C16J 1_555 1_555
H16A C16A 1_555 1_555
H16B C16B 1_555 1_555
H16K C16K 1_555 1_555
H16I C16I 1_555 1_555
H16J C16J 1_555 1_555
C17A C16A 1_555 1_555
C17B C16B 1_555 1_555
C17K C16K 1_555 1_555
C17I C16I 1_555 1_555
C17J C16J 1_555 1_555
H17A C17A 1_555 1_555
H17B C17B 1_555 1_555
H17K C17K 1_555 1_555
H17I C17I 1_555 1_555
H17J C17J 1_555 1_555
H18A C17A 1_555 1_555
H18B C17B 1_555 1_555
H18K C17K 1_555 1_555
H18I C17I 1_555 1_555
H18J C17J 1_555 1_555
H19A C17A 1_555 1_555
H19B C17B 1_555 1_555
H19K C17K 1_555 1_555
H19I C17I 1_555 1_555
H19J C17J 1_555 1_555
O3A Cl1 1_555 1_555
O3B Cl1 1_555 1_555
O8A Cl3 1_555 1_555
O8B Cl3 1_555 1_555
C2 C4 1_555 1_555
C6 C7 1_555 1_555
C7 C8 1_555 1_555
C11 C12 1_555 1_555
C2K C3K 1_555 1_555
C2K C4K 1_555 1_555
C2I C4I 1_555 1_555
C2A C4A 1_555 1_555
C2B C4B 1_555 1_555
C2J C4J 1_555 1_555
C3A C3I 1_555 1_555
C3B C3J 1_555 1_555
C6B C7B 1_555 1_555
C6A C7A 1_555 1_555
C6I C7I 1_555 1_555
C6J C7J 1_555 1_555
C6K C7K 1_555 1_555
C7B C8B 1_555 1_555
C7A C8A 1_555 1_555
C7I C8I 1_555 1_555
C7J C8J 1_555 1_555
C7K C8K 1_555 1_555
C11B C12B 1_555 1_555
C11A C12A 1_555 1_555
C11I C12I 1_555 1_555
C11J C12J 1_555 1_555
C11K C12K 1_555 1_555
C12A C13A 1_555 1_555
C12B C13B 1_555 1_555
C12I C13I 1_555 1_555
C12J C13J 1_555 1_555

#END
