# generated using pymatgen
data_Nd4H180C156N39(Cl8O51)2
_symmetry_space_group_name_H-M   'P 1'
_cell_length_a   21.77200000
_cell_length_b   22.22680000
_cell_length_c   24.61650000
_cell_angle_alpha   69.86500000
_cell_angle_beta   83.75400000
_cell_angle_gamma   70.51900000
_symmetry_Int_Tables_number   1
_chemical_formula_structural   Nd4H180C156N39(Cl8O51)2
_chemical_formula_sum   'Nd8 H360 C312 N78 Cl32 O204'
_cell_volume   10543.89606206
_cell_formula_units_Z   2
loop_
 _symmetry_equiv_pos_site_id
 _symmetry_equiv_pos_as_xyz
  1  'x, y, z'
loop_
 _atom_site_type_symbol
 _atom_site_label
 _atom_site_symmetry_multiplicity
 _atom_site_fract_x
 _atom_site_fract_y
 _atom_site_fract_z
 _atom_site_occupancy
  Nd  Nd1  1  0.778340  0.271870  0.764040  1
  Nd  Nd2  1  0.221660  0.728130  0.235960  1
  Nd  Nd3  1  0.870560  0.730050  0.874112  1
  Nd  Nd4  1  0.129440  0.269950  0.125888  1
  Nd  Nd5  1  0.391650  0.655350  0.747901  1
  Nd  Nd6  1  0.608350  0.344650  0.252099  1
  Nd  Nd7  1  0.270970  0.217010  0.608860  1
  Nd  Nd8  1  0.729030  0.782990  0.391140  1
  H  H9  1  0.677100  0.502100  0.568000  1
  H  H10  1  0.322900  0.497900  0.432000  1
  H  H11  1  0.727100  0.526100  0.591900  1
  H  H12  1  0.272900  0.473900  0.408100  1
  H  H13  1  0.661500  0.520600  0.626400  1
  H  H14  1  0.338500  0.479400  0.373600  1
  H  H15  1  0.943300  0.053000  0.691600  1
  H  H16  1  0.056700  0.947000  0.308400  1
  H  H17  1  0.891200  0.985300  0.676200  1
  H  H18  1  0.108800  0.014700  0.323800  1
  H  H19  1  0.815100  0.958400  0.836600  1
  H  H20  1  0.184900  0.041600  0.163400  1
  H  H21  1  0.866400  0.027000  0.851800  1
  H  H22  1  0.133600  0.973000  0.148200  1
  H  H23  1  0.988800  0.076400  0.776700  1
  H  H24  1  0.011200  0.923600  0.223300  1
  H  H25  1  0.928300  0.139400  0.744700  1
  H  H26  1  0.071700  0.860600  0.255300  1
  H  H27  1  0.985500  0.034500  0.892700  1
  H  H28  1  0.014500  0.965500  0.107300  1
  H  H29  1  0.932900  0.096600  0.961700  1
  H  H30  1  0.067100  0.903400  0.038300  1
  H  H31  1  0.857600  0.191200  0.991200  1
  H  H32  1  0.142400  0.808800  0.008800  1
  H  H33  1  0.799400  0.292700  0.008300  1
  H  H34  1  0.200600  0.707300  0.991700  1
  H  H35  1  0.750200  0.389500  0.929500  1
  H  H36  1  0.249800  0.610500  0.070500  1
  H  H37  1  0.811700  0.446700  0.859800  1
  H  H38  1  0.188300  0.553300  0.140200  1
  H  H39  1  0.810500  0.505600  0.799500  1
  H  H40  1  0.189500  0.494400  0.200500  1
  H  H41  1  0.716200  0.575800  0.826100  1
  H  H42  1  0.283800  0.424200  0.173900  1
  H  H43  1  0.770500  0.549200  0.875200  1
  H  H44  1  0.229500  0.450800  0.124800  1
  H  H45  1  0.713200  0.516500  0.884900  1
  H  H46  1  0.286800  0.483500  0.115100  1
  H  H47  1  0.711300  0.491300  0.720400  1
  H  H48  1  0.288700  0.508700  0.279600  1
  H  H49  1  0.717600  0.551300  0.739100  1
  H  H50  1  0.282400  0.448700  0.260900  1
  H  H51  1  0.615800  0.492500  0.773500  1
  H  H52  1  0.384200  0.507500  0.226500  1
  H  H53  1  0.607900  0.567300  0.730200  1
  H  H54  1  0.392100  0.432700  0.269800  1
  H  H55  1  0.623200  0.548300  0.797300  1
  H  H56  1  0.376800  0.451700  0.202700  1
  H  H57  1  0.787800  0.904300  0.781600  1
  H  H58  1  0.212200  0.095700  0.218400  1
  H  H59  1  0.776700  0.951500  0.715200  1
  H  H60  1  0.223300  0.048500  0.284800  1
  H  H61  1  0.849600  0.902800  0.639100  1
  H  H62  1  0.150400  0.097200  0.360900  1
  H  H63  1  0.940400  0.792500  0.644100  1
  H  H64  1  0.059600  0.207500  0.355900  1
  H  H65  1  0.020000  0.683400  0.691100  1
  H  H66  1  0.980000  0.316600  0.308900  1
  H  H67  1  0.088400  0.578300  0.741000  1
  H  H68  1  0.911600  0.421700  0.259000  1
  H  H69  1  0.093600  0.541100  0.843100  1
  H  H70  1  0.906400  0.458900  0.156900  1
  H  H71  1  0.066300  0.508500  0.029600  1
  H  H72  1  0.933700  0.491500  0.970400  1
  H  H73  1  0.005700  0.576100  0.020800  1
  H  H74  1  0.994300  0.423900  0.979200  1
  H  H75  1  0.137300  0.566100  0.035700  1
  H  H76  1  0.862700  0.433900  0.964300  1
  H  H77  1  0.081900  0.571500  0.083700  1
  H  H78  1  0.918100  0.428500  0.916300  1
  H  H79  1  0.077300  0.634300  0.025800  1
  H  H80  1  0.922700  0.365700  0.974200  1
  H  H81  1  0.154000  0.586100  0.950000  1
  H  H82  1  0.846000  0.413900  0.050000  1
  H  H83  1  0.135200  0.585100  0.889300  1
  H  H84  1  0.864800  0.414900  0.110700  1
  H  H85  1  0.168800  0.470300  0.991800  1
  H  H86  1  0.831200  0.529700  0.008200  1
  H  H87  1  0.213000  0.482100  0.935200  1
  H  H88  1  0.787000  0.517900  0.064800  1
  H  H89  1  0.145900  0.468400  0.933000  1
  H  H90  1  0.854100  0.531600  0.067000  1
  H  H91  1  0.022700  0.867400  0.722800  1
  H  H92  1  0.977300  0.132600  0.277200  1
  H  H93  1  0.100600  0.807800  0.671900  1
  H  H94  1  0.899400  0.192200  0.328100  1
  H  H95  1  0.181600  0.668700  0.822000  1
  H  H96  1  0.818400  0.331300  0.178000  1
  H  H97  1  0.104100  0.727600  0.873200  1
  H  H98  1  0.895900  0.272400  0.126800  1
  H  H99  1  0.008500  0.886500  0.828700  1
  H  H100  1  0.991500  0.113500  0.171300  1
  H  H101  1  0.958800  0.855100  0.814100  1
  H  H102  1  0.041200  0.144900  0.185900  1
  H  H103  1  0.059500  0.829700  0.934400  1
  H  H104  1  0.940500  0.170300  0.065600  1
  H  H105  1  0.021900  0.763000  0.026500  1
  H  H106  1  0.978100  0.237000  0.973500  1
  H  H107  1  0.964600  0.682900  0.088200  1
  H  H108  1  0.035400  0.317100  0.911800  1
  H  H109  1  0.894100  0.626900  0.142000  1
  H  H110  1  0.105900  0.373100  0.858000  1
  H  H111  1  0.801300  0.632700  0.097600  1
  H  H112  1  0.198700  0.367300  0.902400  1
  H  H113  1  0.643000  0.750400  0.041200  1
  H  H114  1  0.357000  0.249600  0.958800  1
  H  H115  1  0.713600  0.715700  0.071000  1
  H  H116  1  0.286400  0.284300  0.929000  1
  H  H117  1  0.637000  0.634900  0.067900  1
  H  H118  1  0.363000  0.365100  0.932100  1
  H  H119  1  0.630200  0.664300  0.120000  1
  H  H120  1  0.369800  0.335700  0.880000  1
  H  H121  1  0.698000  0.612500  0.109500  1
  H  H122  1  0.302000  0.387500  0.890500  1
  H  H123  1  0.618000  0.720300  0.966500  1
  H  H124  1  0.382000  0.279700  0.033500  1
  H  H125  1  0.670400  0.727600  0.915800  1
  H  H126  1  0.329600  0.272400  0.084200  1
  H  H127  1  0.709000  0.615300  0.933000  1
  H  H128  1  0.291000  0.384700  0.067000  1
  H  H129  1  0.631600  0.631800  0.937100  1
  H  H130  1  0.368400  0.368200  0.062900  1
  H  H131  1  0.674800  0.599400  0.994900  1
  H  H132  1  0.325200  0.400600  0.005100  1
  H  H133  1  0.228000  0.650000  0.737500  1
  H  H134  1  0.772000  0.350000  0.262500  1
  H  H135  1  0.172800  0.670600  0.690600  1
  H  H136  1  0.827200  0.329400  0.309400  1
  H  H137  1  0.179200  0.767100  0.590800  1
  H  H138  1  0.820800  0.232900  0.409200  1
  H  H139  1  0.257000  0.831200  0.549200  1
  H  H140  1  0.743000  0.168800  0.450800  1
  H  H141  1  0.345300  0.873900  0.550400  1
  H  H142  1  0.654700  0.126100  0.449600  1
  H  H143  1  0.437500  0.901100  0.552900  1
  H  H144  1  0.562500  0.098900  0.447100  1
  H  H145  1  0.502800  0.850500  0.637200  1
  H  H146  1  0.497200  0.149500  0.362800  1
  H  H147  1  0.556500  0.733800  0.843400  1
  H  H148  1  0.443500  0.266200  0.156600  1
  H  H149  1  0.566700  0.677200  0.813800  1
  H  H150  1  0.433300  0.322800  0.186200  1
  H  H151  1  0.647500  0.709700  0.756200  1
  H  H152  1  0.352500  0.290300  0.243800  1
  H  H153  1  0.664100  0.699100  0.821300  1
  H  H154  1  0.335900  0.300900  0.178700  1
  H  H155  1  0.633300  0.773800  0.777000  1
  H  H156  1  0.366700  0.226200  0.223000  1
  H  H157  1  0.472400  0.872200  0.720800  1
  H  H158  1  0.527600  0.127800  0.279200  1
  H  H159  1  0.547000  0.856600  0.735900  1
  H  H160  1  0.453000  0.143400  0.264100  1
  H  H161  1  0.447200  0.850800  0.820700  1
  H  H162  1  0.552800  0.149200  0.179300  1
  H  H163  1  0.475200  0.913100  0.795000  1
  H  H164  1  0.524800  0.086900  0.205000  1
  H  H165  1  0.521200  0.840800  0.833200  1
  H  H166  1  0.478800  0.159200  0.166800  1
  H  H167  1  0.177000  0.898600  0.679700  1
  H  H168  1  0.823000  0.101400  0.320300  1
  H  H169  1  0.194500  0.984700  0.599300  1
  H  H170  1  0.805500  0.015300  0.400700  1
  H  H171  1  0.355300  0.970500  0.676800  1
  H  H172  1  0.644700  0.029500  0.323200  1
  H  H173  1  0.339100  0.883100  0.756100  1
  H  H174  1  0.660900  0.116900  0.243900  1
  H  H175  1  0.203200  0.840400  0.793300  1
  H  H176  1  0.796800  0.159600  0.206700  1
  H  H177  1  0.239000  0.789800  0.758200  1
  H  H178  1  0.761000  0.210200  0.241800  1
  H  H179  1  0.272700  0.844600  0.873100  1
  H  H180  1  0.727300  0.155400  0.126900  1
  H  H181  1  0.372400  0.757000  0.930400  1
  H  H182  1  0.627600  0.243000  0.069600  1
  H  H183  1  0.473300  0.662000  0.949600  1
  H  H184  1  0.526700  0.338000  0.050400  1
  H  H185  1  0.555300  0.557800  0.974400  1
  H  H186  1  0.444700  0.442200  0.025600  1
  H  H187  1  0.563500  0.483800  0.922100  1
  H  H188  1  0.436500  0.516200  0.077900  1
  H  H189  1  0.554000  0.368400  0.804000  1
  H  H190  1  0.446000  0.631600  0.196000  1
  H  H191  1  0.529400  0.442900  0.757400  1
  H  H192  1  0.470600  0.557100  0.242600  1
  H  H193  1  0.442100  0.374400  0.825200  1
  H  H194  1  0.557900  0.625600  0.174800  1
  H  H195  1  0.459700  0.378100  0.759500  1
  H  H196  1  0.540300  0.621900  0.240500  1
  H  H197  1  0.420400  0.445600  0.774300  1
  H  H198  1  0.579600  0.554400  0.225700  1
  H  H199  1  0.505300  0.357700  0.907300  1
  H  H200  1  0.494700  0.642300  0.092700  1
  H  H201  1  0.509600  0.415800  0.929700  1
  H  H202  1  0.490400  0.584200  0.070300  1
  H  H203  1  0.619200  0.341000  0.878800  1
  H  H204  1  0.380800  0.659000  0.121200  1
  H  H205  1  0.607800  0.318800  0.947200  1
  H  H206  1  0.392200  0.681200  0.052800  1
  H  H207  1  0.620600  0.389200  0.913800  1
  H  H208  1  0.379400  0.610800  0.086200  1
  H  H209  1  0.325300  0.054300  0.587800  1
  H  H210  1  0.674700  0.945700  0.412200  1
  H  H211  1  0.315000  0.015200  0.547500  1
  H  H212  1  0.685000  0.984800  0.452500  1
  H  H213  1  0.199900  0.065900  0.493100  1
  H  H214  1  0.800100  0.934100  0.506900  1
  H  H215  1  0.107300  0.172900  0.478700  1
  H  H216  1  0.892700  0.827100  0.521300  1
  H  H217  1  0.046300  0.278400  0.489900  1
  H  H218  1  0.953700  0.721600  0.510100  1
  H  H219  1  0.992000  0.380200  0.502400  1
  H  H220  1  0.008000  0.619800  0.497600  1
  H  H221  1  0.036400  0.418600  0.561100  1
  H  H222  1  0.963600  0.581400  0.438900  1
  H  H223  1  0.024000  0.397500  0.648800  1
  H  H224  1  0.976000  0.602500  0.351200  1
  H  H225  1  0.035600  0.411300  0.705900  1
  H  H226  1  0.964400  0.588700  0.294100  1
  H  H227  1  0.049700  0.514000  0.649800  1
  H  H228  1  0.950300  0.486000  0.350200  1
  H  H229  1  0.980800  0.512100  0.634800  1
  H  H230  1  0.019200  0.487900  0.365200  1
  H  H231  1  0.041100  0.500000  0.592000  1
  H  H232  1  0.958900  0.500000  0.408000  1
  H  H233  1  0.142400  0.437000  0.707000  1
  H  H234  1  0.857600  0.563000  0.293000  1
  H  H235  1  0.205800  0.384700  0.689300  1
  H  H236  1  0.794200  0.615300  0.310700  1
  H  H237  1  0.111800  0.344800  0.777000  1
  H  H238  1  0.888200  0.655200  0.223000  1
  H  H239  1  0.186100  0.332500  0.790700  1
  H  H240  1  0.813900  0.667500  0.209300  1
  H  H241  1  0.169300  0.290600  0.756200  1
  H  H242  1  0.830700  0.709400  0.243800  1
  H  H243  1  0.076900  0.093700  0.634900  1
  H  H244  1  0.923100  0.906300  0.365100  1
  H  H245  1  0.975000  0.167400  0.600000  1
  H  H246  1  0.025000  0.832600  0.400000  1
  H  H247  1  0.985900  0.282500  0.692400  1
  H  H248  1  0.014100  0.717500  0.307600  1
  H  H249  1  0.085800  0.208800  0.727500  1
  H  H250  1  0.914200  0.791200  0.272500  1
  H  H251  1  0.155800  0.049700  0.728600  1
  H  H252  1  0.844200  0.950300  0.271400  1
  H  H253  1  0.187000  0.088300  0.670800  1
  H  H254  1  0.813000  0.911700  0.329200  1
  H  H255  1  0.166600  0.075600  0.823400  1
  H  H256  1  0.833400  0.924400  0.176600  1
  H  H257  1  0.230300  0.136600  0.848600  1
  H  H258  1  0.769700  0.863400  0.151400  1
  H  H259  1  0.885700  0.314400  0.643500  1
  H  H260  1  0.114300  0.685600  0.356500  1
  H  H261  1  0.904700  0.311200  0.579600  1
  H  H262  1  0.095300  0.688800  0.420400  1
  H  H263  1  0.858200  0.236800  0.546600  1
  H  H264  1  0.141800  0.763200  0.453400  1
  H  H265  1  0.786400  0.165400  0.589600  1
  H  H266  1  0.213600  0.834600  0.410400  1
  H  H267  1  0.723700  0.110600  0.663300  1
  H  H268  1  0.276300  0.889400  0.336700  1
  H  H269  1  0.658000  0.066300  0.736600  1
  H  H270  1  0.342000  0.933700  0.263400  1
  H  H271  1  0.653800  0.082800  0.824800  1
  H  H272  1  0.346200  0.917200  0.175200  1
  H  H273  1  0.701600  0.194000  0.940300  1
  H  H274  1  0.298400  0.806000  0.059700  1
  H  H275  1  0.662600  0.143400  0.976600  1
  H  H276  1  0.337400  0.856600  0.023400  1
  H  H277  1  0.740900  0.079300  0.028800  1
  H  H278  1  0.259100  0.920700  0.971200  1
  H  H279  1  0.765600  0.143900  0.008200  1
  H  H280  1  0.234400  0.856100  0.991800  1
  H  H281  1  0.792100  0.087700  0.977100  1
  H  H282  1  0.207900  0.912300  0.022900  1
  H  H283  1  0.742100  0.015400  0.951800  1
  H  H284  1  0.257900  0.984600  0.048200  1
  H  H285  1  0.722300  0.034100  0.886000  1
  H  H286  1  0.277700  0.965900  0.114000  1
  H  H287  1  0.629200  0.046200  0.978600  1
  H  H288  1  0.370800  0.953800  0.021400  1
  H  H289  1  0.642400  0.991700  0.946300  1
  H  H290  1  0.357600  0.008300  0.053700  1
  H  H291  1  0.607500  0.070100  0.912400  1
  H  H292  1  0.392500  0.929900  0.087600  1
  H  H293  1  0.286000  0.232600  0.819200  1
  H  H294  1  0.714000  0.767400  0.180800  1
  H  H295  1  0.359900  0.293700  0.795800  1
  H  H296  1  0.640100  0.706300  0.204200  1
  H  H297  1  0.414000  0.307600  0.707100  1
  H  H298  1  0.586000  0.692400  0.292900  1
  H  H299  1  0.502900  0.311600  0.526400  1
  H  H300  1  0.497100  0.688400  0.473600  1
  H  H301  1  0.438800  0.295400  0.515900  1
  H  H302  1  0.561200  0.704600  0.484100  1
  H  H303  1  0.537000  0.211300  0.497600  1
  H  H304  1  0.463000  0.788700  0.502400  1
  H  H305  1  0.497200  0.176300  0.550500  1
  H  H306  1  0.502800  0.823700  0.449500  1
  H  H307  1  0.560200  0.191500  0.562800  1
  H  H308  1  0.439800  0.808500  0.437200  1
  H  H309  1  0.556500  0.184900  0.617100  1
  H  H310  1  0.443500  0.815100  0.382900  1
  H  H311  1  0.513000  0.181000  0.675100  1
  H  H312  1  0.487000  0.819000  0.324900  1
  H  H313  1  0.591000  0.241800  0.672700  1
  H  H314  1  0.409000  0.758200  0.327300  1
  H  H315  1  0.517800  0.291000  0.671100  1
  H  H316  1  0.482200  0.709000  0.328900  1
  H  H317  1  0.559200  0.296500  0.612800  1
  H  H318  1  0.440800  0.703500  0.387200  1
  H  H319  1  0.140800  0.378500  0.370800  1
  H  H320  1  0.859200  0.621500  0.629200  1
  H  H321  1  0.202500  0.313700  0.397800  1
  H  H322  1  0.797500  0.686300  0.602200  1
  H  H323  1  0.136300  0.304100  0.385200  1
  H  H324  1  0.863700  0.695900  0.614800  1
  H  H325  1  0.689600  0.005300  0.099300  1
  H  H326  1  0.310400  0.994700  0.900700  1
  H  H327  1  0.694800  0.066000  0.117400  1
  H  H328  1  0.305200  0.934000  0.882600  1
  H  H329  1  0.625700  0.067300  0.099600  1
  H  H330  1  0.374300  0.932700  0.900400  1
  H  H331  1  0.324800  0.187400  0.408300  1
  H  H332  1  0.675200  0.812600  0.591700  1
  H  H333  1  0.344100  0.106800  0.428800  1
  H  H334  1  0.655900  0.893200  0.571200  1
  H  H335  1  0.270600  0.151500  0.435000  1
  H  H336  1  0.729400  0.848500  0.565000  1
  H  H337  1  0.886800  0.968300  0.043300  1
  H  H338  1  0.113200  0.031700  0.956700  1
  H  H339  1  0.871100  0.924900  0.009600  1
  H  H340  1  0.128900  0.075100  0.990400  1
  H  H341  1  0.942800  0.930400  0.007500  1
  H  H342  1  0.057200  0.069600  0.992500  1
  H  H343  1  0.303200  0.189200  0.846900  1
  H  H344  1  0.696800  0.810800  0.153100  1
  H  H345  1  0.370000  0.257300  0.828800  1
  H  H346  1  0.630000  0.742700  0.171200  1
  H  H347  1  0.396900  0.310100  0.733600  1
  H  H348  1  0.603100  0.689900  0.266400  1
  H  H349  1  0.370400  0.450700  0.537000  1
  H  H350  1  0.629600  0.549300  0.463000  1
  H  H351  1  0.332100  0.404600  0.526100  1
  H  H352  1  0.667900  0.595400  0.473900  1
  H  H353  1  0.442100  0.371300  0.491000  1
  H  H354  1  0.557900  0.628700  0.509000  1
  H  H355  1  0.432400  0.310400  0.545800  1
  H  H356  1  0.567600  0.689600  0.454200  1
  H  H357  1  0.469800  0.358200  0.553100  1
  H  H358  1  0.530200  0.641800  0.446900  1
  H  H359  1  0.332400  0.399700  0.679100  1
  H  H360  1  0.667600  0.600300  0.320900  1
  H  H361  1  0.332100  0.461300  0.620400  1
  H  H362  1  0.667900  0.538700  0.379600  1
  H  H363  1  0.424700  0.439700  0.680000  1
  H  H364  1  0.575300  0.560300  0.320000  1
  H  H365  1  0.451400  0.422500  0.622200  1
  H  H366  1  0.548600  0.577500  0.377800  1
  H  H367  1  0.450800  0.362800  0.681400  1
  H  H368  1  0.549200  0.637200  0.318600  1
  C  C369  1  0.732100  0.426000  0.638400  1
  C  C370  1  0.267900  0.574000  0.361600  1
  C  C371  1  0.696100  0.500600  0.602900  1
  C  C372  1  0.303900  0.499400  0.397100  1
  C  C373  1  0.908800  0.050000  0.771900  1
  C  C374  1  0.091200  0.950000  0.228100  1
  C  C375  1  0.916300  0.034600  0.721100  1
  C  C376  1  0.083700  0.965400  0.278900  1
  C  C377  1  0.886100  0.993700  0.712000  1
  C  C378  1  0.113900  0.006300  0.288000  1
  C  C379  1  0.847500  0.964300  0.755600  1
  C  C380  1  0.152500  0.035700  0.244400  1
  C  C381  1  0.841100  0.978000  0.806700  1
  C  C382  1  0.158900  0.022000  0.193300  1
  C  C383  1  0.871100  0.019200  0.815700  1
  C  C384  1  0.128900  0.980800  0.184300  1
  C  C385  1  0.941000  0.097100  0.778100  1
  C  C386  1  0.059000  0.902900  0.221900  1
  C  C387  1  0.952100  0.077000  0.883700  1
  C  C388  1  0.047900  0.923000  0.116300  1
  C  C389  1  0.924100  0.110600  0.921500  1
  C  C390  1  0.075900  0.889400  0.078500  1
  C  C391  1  0.879700  0.170000  0.888000  1
  C  C392  1  0.120300  0.830000  0.112000  1
  C  C393  1  0.840400  0.230200  0.903200  1
  C  C394  1  0.159600  0.769800  0.096800  1
  C  C395  1  0.837000  0.230700  0.960400  1
  C  C396  1  0.163000  0.769300  0.039600  1
  C  C397  1  0.802800  0.290400  0.970200  1
  C  C398  1  0.197200  0.709600  0.029800  1
  C  C399  1  0.773200  0.347600  0.923700  1
  C  C400  1  0.226800  0.652400  0.076300  1
  C  C401  1  0.778200  0.341900  0.869400  1
  C  C402  1  0.221800  0.658100  0.130600  1
  C  C403  1  0.744800  0.395900  0.815900  1
  C  C404  1  0.255200  0.604100  0.184100  1
  C  C405  1  0.782800  0.485200  0.829800  1
  C  C406  1  0.217200  0.514800  0.170200  1
  C  C407  1  0.742300  0.536000  0.856200  1
  C  C408  1  0.257700  0.464000  0.143800  1
  C  C409  1  0.703100  0.510800  0.752100  1
  C  C410  1  0.296900  0.489200  0.247900  1
  C  C411  1  0.631200  0.531500  0.764300  1
  C  C412  1  0.368800  0.468500  0.235700  1
  C  C413  1  0.810300  0.922400  0.745500  1
  C  C414  1  0.189700  0.077600  0.254500  1
  C  C415  1  0.869100  0.867300  0.673100  1
  C  C416  1  0.130900  0.132700  0.326900  1
  C  C417  1  0.919300  0.806700  0.675500  1
  C  C418  1  0.080700  0.193300  0.324500  1
  C  C419  1  0.931000  0.772000  0.735000  1
  C  C420  1  0.069000  0.228000  0.265000  1
  C  C421  1  0.977800  0.706500  0.762600  1
  C  C422  1  0.022200  0.293500  0.237400  1
  C  C423  1  0.020000  0.667300  0.732200  1
  C  C424  1  0.980000  0.332700  0.267800  1
  C  C425  1  0.061100  0.606200  0.761700  1
  C  C426  1  0.938900  0.393800  0.238300  1
  C  C427  1  0.064000  0.583400  0.822000  1
  C  C428  1  0.936000  0.416600  0.178000  1
  C  C429  1  0.021200  0.625900  0.849600  1
  C  C430  1  0.978800  0.374100  0.150400  1
  C  C431  1  0.012900  0.608800  0.913700  1
  C  C432  1  0.987100  0.391200  0.086300  1
  C  C433  1  0.052700  0.558400  0.013000  1
  C  C434  1  0.947300  0.441600  0.987000  1
  C  C435  1  0.090600  0.584900  0.042100  1
  C  C436  1  0.909400  0.415100  0.957900  1
  C  C437  1  0.132700  0.564800  0.931800  1
  C  C438  1  0.867300  0.435200  0.068200  1
  C  C439  1  0.168200  0.489800  0.949500  1
  C  C440  1  0.831800  0.510200  0.050500  1
  C  C441  1  0.054800  0.803100  0.803300  1
  C  C442  1  0.945200  0.196900  0.196700  1
  C  C443  1  0.054800  0.826700  0.743200  1
  C  C444  1  0.945200  0.173300  0.256800  1
  C  C445  1  0.100900  0.791300  0.713000  1
  C  C446  1  0.899100  0.208700  0.287000  1
  C  C447  1  0.148400  0.730900  0.742700  1
  C  C448  1  0.851600  0.269100  0.257300  1
  C  C449  1  0.148900  0.709000  0.801600  1
  C  C450  1  0.851100  0.291000  0.198400  1
  C  C451  1  0.102900  0.744000  0.832100  1
  C  C452  1  0.897100  0.256000  0.167900  1
  C  C453  1  0.000700  0.843600  0.833500  1
  C  C454  1  0.999300  0.156400  0.166500  1
  C  C455  1  0.027300  0.808400  0.938600  1
  C  C456  1  0.972700  0.191600  0.061400  1
  C  C457  1  0.007000  0.772500  0.988700  1
  C  C458  1  0.993000  0.227500  0.011300  1
  C  C459  1  0.959000  0.752200  0.973300  1
  C  C460  1  0.041000  0.247800  0.026700  1
  C  C461  1  0.917200  0.715400  0.010700  1
  C  C462  1  0.082800  0.284600  0.989300  1
  C  C463  1  0.928200  0.682800  0.070200  1
  C  C464  1  0.071800  0.317200  0.929800  1
  C  C465  1  0.886200  0.650900  0.101900  1
  C  C466  1  0.113800  0.349100  0.898100  1
  C  C467  1  0.831900  0.653400  0.075600  1
  C  C468  1  0.168100  0.346600  0.924400  1
  C  C469  1  0.823200  0.686600  0.017000  1
  C  C470  1  0.176800  0.313400  0.983000  1
  C  C471  1  0.771100  0.690200  0.979300  1
  C  C472  1  0.228900  0.309800  0.020700  1
  C  C473  1  0.681000  0.708800  0.050600  1
  C  C474  1  0.319000  0.291200  0.949400  1
  C  C475  1  0.659700  0.649900  0.090600  1
  C  C476  1  0.340300  0.350100  0.909400  1
  C  C477  1  0.663000  0.699300  0.955300  1
  C  C478  1  0.337000  0.300700  0.044700  1
  C  C479  1  0.670200  0.630700  0.955000  1
  C  C480  1  0.329800  0.369300  0.045000  1
  C  C481  1  0.196700  0.688800  0.709700  1
  C  C482  1  0.803300  0.311200  0.290300  1
  C  C483  1  0.215400  0.765400  0.610400  1
  C  C484  1  0.784600  0.234600  0.389600  1
  C  C485  1  0.257400  0.800600  0.587300  1
  C  C486  1  0.742600  0.199400  0.412700  1
  C  C487  1  0.300400  0.782300  0.630900  1
  C  C488  1  0.699600  0.217700  0.369100  1
  C  C489  1  0.356900  0.803300  0.631200  1
  C  C490  1  0.643100  0.196700  0.368800  1
  C  C491  1  0.372500  0.852300  0.583900  1
  C  C492  1  0.627500  0.147700  0.416100  1
  C  C493  1  0.426000  0.868900  0.585700  1
  C  C494  1  0.574000  0.131100  0.414300  1
  C  C495  1  0.464800  0.839300  0.635400  1
  C  C496  1  0.535200  0.160700  0.364600  1
  C  C497  1  0.445600  0.792200  0.682600  1
  C  C498  1  0.554400  0.207800  0.317400  1
  C  C499  1  0.485300  0.749200  0.736200  1
  C  C500  1  0.514700  0.250800  0.263800  1
  C  C501  1  0.567700  0.723500  0.806800  1
  C  C502  1  0.432300  0.276500  0.193200  1
  C  C503  1  0.633600  0.726800  0.788800  1
  C  C504  1  0.366400  0.273200  0.211200  1
  C  C505  1  0.506700  0.845200  0.750800  1
  C  C506  1  0.493300  0.154800  0.249200  1
  C  C507  1  0.485800  0.864200  0.804600  1
  C  C508  1  0.514200  0.135800  0.195400  1
  C  C509  1  0.257300  0.880300  0.725700  1
  C  C510  1  0.742700  0.119700  0.274300  1
  C  C511  1  0.214100  0.912300  0.678900  1
  C  C512  1  0.785900  0.087700  0.321100  1
  C  C513  1  0.224300  0.963900  0.630900  1
  C  C514  1  0.775700  0.036100  0.369100  1
  C  C515  1  0.277900  0.985100  0.629100  1
  C  C516  1  0.722100  0.014900  0.370900  1
  C  C517  1  0.319500  0.955100  0.676700  1
  C  C518  1  0.680500  0.044900  0.323300  1
  C  C519  1  0.309700  0.903200  0.724200  1
  C  C520  1  0.690300  0.096800  0.275800  1
  C  C521  1  0.244600  0.822700  0.774500  1
  C  C522  1  0.755400  0.177300  0.225500  1
  C  C523  1  0.301000  0.806300  0.864300  1
  C  C524  1  0.699000  0.193700  0.135700  1
  C  C525  1  0.355800  0.758200  0.895800  1
  C  C526  1  0.644200  0.241800  0.104200  1
  C  C527  1  0.380800  0.712900  0.866000  1
  C  C528  1  0.619200  0.287100  0.134000  1
  C  C529  1  0.434300  0.649200  0.883000  1
  C  C530  1  0.565700  0.350800  0.117000  1
  C  C531  1  0.477600  0.631500  0.929100  1
  C  C532  1  0.522400  0.368500  0.070900  1
  C  C533  1  0.525800  0.570400  0.943700  1
  C  C534  1  0.474200  0.429600  0.056300  1
  C  C535  1  0.530700  0.526800  0.912700  1
  C  C536  1  0.469300  0.473200  0.087300  1
  C  C537  1  0.486900  0.547300  0.867900  1
  C  C538  1  0.513100  0.452700  0.132100  1
  C  C539  1  0.488300  0.509300  0.827300  1
  C  C540  1  0.511700  0.490700  0.172700  1
  C  C541  1  0.518500  0.412200  0.794200  1
  C  C542  1  0.481500  0.587800  0.205800  1
  C  C543  1  0.454500  0.401600  0.787700  1
  C  C544  1  0.545500  0.598400  0.212300  1
  C  C545  1  0.527100  0.392200  0.901100  1
  C  C546  1  0.472900  0.607800  0.098900  1
  C  C547  1  0.600200  0.357200  0.911100  1
  C  C548  1  0.399800  0.642800  0.088900  1
  C  C549  1  0.293800  0.037100  0.576600  1
  C  C550  1  0.706200  0.962900  0.423400  1
  C  C551  1  0.194700  0.098500  0.511500  1
  C  C552  1  0.805300  0.901500  0.488500  1
  C  C553  1  0.144200  0.156800  0.503200  1
  C  C554  1  0.855800  0.843200  0.496800  1
  C  C555  1  0.158700  0.187900  0.538900  1
  C  C556  1  0.841300  0.812100  0.461100  1
  C  C557  1  0.121800  0.252400  0.546000  1
  C  C558  1  0.878200  0.747600  0.454000  1
  C  C559  1  0.063200  0.293100  0.515200  1
  C  C560  1  0.936800  0.706900  0.484800  1
  C  C561  1  0.032000  0.352800  0.522200  1
  C  C562  1  0.968000  0.647200  0.477800  1
  C  C563  1  0.057100  0.375000  0.558000  1
  C  C564  1  0.942900  0.625000  0.442000  1
  C  C565  1  0.113900  0.331600  0.589700  1
  C  C566  1  0.886100  0.668400  0.410300  1
  C  C567  1  0.148500  0.345200  0.630000  1
  C  C568  1  0.851500  0.654800  0.370000  1
  C  C569  1  0.048000  0.418500  0.664800  1
  C  C570  1  0.952000  0.581500  0.335200  1
  C  C571  1  0.028200  0.492500  0.632600  1
  C  C572  1  0.971800  0.507500  0.367400  1
  C  C573  1  0.160200  0.391700  0.702800  1
  C  C574  1  0.839800  0.608300  0.297200  1
  C  C575  1  0.156500  0.334400  0.762400  1
  C  C576  1  0.843500  0.665600  0.237600  1
  C  C577  1  0.093900  0.143000  0.684700  1
  C  C578  1  0.906100  0.857000  0.315300  1
  C  C579  1  0.058500  0.132400  0.646700  1
  C  C580  1  0.941500  0.867600  0.353300  1
  C  C581  1  0.997600  0.176200  0.625900  1
  C  C582  1  0.002400  0.823800  0.374100  1
  C  C583  1  0.969000  0.233800  0.642600  1
  C  C584  1  0.031000  0.766200  0.357400  1
  C  C585  1  0.004100  0.243900  0.680500  1
  C  C586  1  0.995900  0.756100  0.319500  1
  C  C587  1  0.063900  0.200100  0.701100  1
  C  C588  1  0.936100  0.799900  0.298900  1
  C  C589  1  0.160200  0.094200  0.704900  1
  C  C590  1  0.839800  0.905800  0.295100  1
  C  C591  1  0.189600  0.103100  0.797100  1
  C  C592  1  0.810400  0.896900  0.202900  1
  C  C593  1  0.224300  0.136100  0.811200  1
  C  C594  1  0.775700  0.863900  0.188800  1
  C  C595  1  0.249400  0.169400  0.758600  1
  C  C596  1  0.750600  0.830600  0.241400  1
  C  C597  1  0.901400  0.283600  0.620400  1
  C  C598  1  0.098600  0.716400  0.379600  1
  C  C599  1  0.842700  0.226700  0.585200  1
  C  C600  1  0.157300  0.773300  0.414800  1
  C  C601  1  0.803600  0.187600  0.608000  1
  C  C602  1  0.196400  0.812400  0.392000  1
  C  C603  1  0.794700  0.187800  0.664500  1
  C  C604  1  0.205300  0.812200  0.335500  1
  C  C605  1  0.755000  0.155100  0.710100  1
  C  C606  1  0.245000  0.844900  0.289900  1
  C  C607  1  0.720900  0.117700  0.699500  1
  C  C608  1  0.279100  0.882300  0.300500  1
  C  C609  1  0.682900  0.091200  0.742900  1
  C  C610  1  0.317100  0.908800  0.257100  1
  C  C611  1  0.680700  0.100400  0.794700  1
  C  C612  1  0.319300  0.899600  0.205300  1
  C  C613  1  0.718800  0.136200  0.803300  1
  C  C614  1  0.281200  0.863800  0.196700  1
  C  C615  1  0.719600  0.155600  0.856100  1
  C  C616  1  0.280400  0.844400  0.143900  1
  C  C617  1  0.704100  0.145900  0.956600  1
  C  C618  1  0.295900  0.854100  0.043400  1
  C  C619  1  0.754200  0.111800  0.995400  1
  C  C620  1  0.245800  0.888200  0.004600  1
  C  C621  1  0.709600  0.047100  0.921300  1
  C  C622  1  0.290400  0.952900  0.078700  1
  C  C623  1  0.640600  0.037900  0.941600  1
  C  C624  1  0.359400  0.962100  0.058400  1
  C  C625  1  0.296300  0.210300  0.744400  1
  C  C626  1  0.703700  0.789700  0.255600  1
  C  C627  1  0.308000  0.238300  0.783200  1
  C  C628  1  0.692000  0.761700  0.216800  1
  C  C629  1  0.351900  0.274600  0.769300  1
  C  C630  1  0.648100  0.725400  0.230700  1
  C  C631  1  0.384000  0.282800  0.716600  1
  C  C632  1  0.616000  0.717200  0.283400  1
  C  C633  1  0.372400  0.254800  0.677800  1
  C  C634  1  0.627600  0.745200  0.322200  1
  C  C635  1  0.396300  0.262700  0.620300  1
  C  C636  1  0.603700  0.737300  0.379700  1
  C  C637  1  0.479200  0.278100  0.539100  1
  C  C638  1  0.520800  0.721900  0.460900  1
  C  C639  1  0.522000  0.208000  0.537300  1
  C  C640  1  0.478000  0.792000  0.462700  1
  C  C641  1  0.525000  0.212000  0.639000  1
  C  C642  1  0.475000  0.788000  0.361000  1
  C  C643  1  0.551000  0.265000  0.650000  1
  C  C644  1  0.449000  0.735000  0.350000  1
  C  C645  1  0.187700  0.332900  0.313100  1
  C  C646  1  0.812300  0.667100  0.686900  1
  C  C647  1  0.164900  0.332300  0.371600  1
  C  C648  1  0.835100  0.667700  0.628400  1
  C  C649  1  0.655700  0.001900  0.180600  1
  C  C650  1  0.344300  0.998100  0.819400  1
  C  C651  1  0.667500  0.038300  0.118900  1
  C  C652  1  0.332500  0.961700  0.881100  1
  C  C653  1  0.294400  0.153800  0.352000  1
  C  C654  1  0.705600  0.846200  0.648000  1
  C  C655  1  0.309800  0.149500  0.411100  1
  C  C656  1  0.690200  0.850500  0.588900  1
  C  C657  1  0.922800  0.866600  0.084300  1
  C  C658  1  0.077200  0.133400  0.915700  1
  C  C659  1  0.904300  0.927800  0.031700  1
  C  C660  1  0.095700  0.072200  0.968300  1
  C  C661  1  0.290400  0.201400  0.762400  1
  C  C662  1  0.709600  0.798600  0.237600  1
  C  C663  1  0.314100  0.210600  0.808200  1
  C  C664  1  0.685900  0.789400  0.191800  1
  C  C665  1  0.353800  0.251100  0.797500  1
  C  C666  1  0.646200  0.748900  0.202500  1
  C  C667  1  0.369800  0.282400  0.741000  1
  C  C668  1  0.630200  0.717600  0.259000  1
  C  C669  1  0.346100  0.273300  0.695200  1
  C  C670  1  0.653900  0.726700  0.304800  1
  C  C671  1  0.358100  0.299800  0.634600  1
  C  C672  1  0.641900  0.700200  0.365400  1
  C  C673  1  0.369000  0.404000  0.546100  1
  C  C674  1  0.631000  0.596000  0.453900  1
  C  C675  1  0.434000  0.357000  0.532800  1
  C  C676  1  0.566000  0.643000  0.467200  1
  C  C677  1  0.357000  0.415000  0.643000  1
  C  C678  1  0.643000  0.585000  0.357000  1
  C  C679  1  0.428000  0.409000  0.658000  1
  C  C680  1  0.572000  0.591000  0.342000  1
  N  N681  1  0.754700  0.371100  0.668500  1
  N  N682  1  0.245300  0.628900  0.331500  1
  N  N683  1  0.741600  0.460400  0.803900  1
  N  N684  1  0.258400  0.539600  0.196100  1
  N  N685  1  0.808900  0.284000  0.859600  1
  N  N686  1  0.191100  0.716000  0.140400  1
  N  N687  1  0.878900  0.172400  0.832100  1
  N  N688  1  0.121100  0.827600  0.167900  1
  N  N689  1  0.924700  0.114000  0.831600  1
  N  N690  1  0.075300  0.886000  0.168400  1
  N  N691  1  0.854200  0.865500  0.727400  1
  N  N692  1  0.145800  0.134500  0.272600  1
  N  N693  1  0.892000  0.807700  0.767000  1
  N  N694  1  0.108000  0.192300  0.233000  1
  N  N695  1  0.978100  0.685700  0.821200  1
  N  N696  1  0.021900  0.314300  0.178800  1
  N  N697  1  0.063300  0.578300  0.949500  1
  N  N698  1  0.936700  0.421700  0.050500  1
  N  N699  1  0.709800  0.697200  0.996100  1
  N  N700  1  0.290200  0.302800  0.003900  1
  N  N701  1  0.867300  0.714300  0.984700  1
  N  N702  1  0.132700  0.285700  0.015300  1
  N  N703  1  0.951700  0.773400  0.915800  1
  N  N704  1  0.048300  0.226600  0.084200  1
  N  N705  1  0.994500  0.809100  0.895200  1
  N  N706  1  0.005500  0.190900  0.104800  1
  N  N707  1  0.232900  0.727400  0.665700  1
  N  N708  1  0.767100  0.272600  0.334300  1
  N  N709  1  0.286000  0.737400  0.680400  1
  N  N710  1  0.714000  0.262600  0.319600  1
  N  N711  1  0.393100  0.774200  0.679800  1
  N  N712  1  0.606900  0.225800  0.320200  1
  N  N713  1  0.518900  0.772600  0.761300  1
  N  N714  1  0.481100  0.227400  0.238700  1
  N  N715  1  0.511300  0.442200  0.841400  1
  N  N716  1  0.488700  0.557800  0.158600  1
  N  N717  1  0.440500  0.607200  0.853000  1
  N  N718  1  0.559500  0.392800  0.147000  1
  N  N719  1  0.344900  0.730400  0.817800  1
  N  N720  1  0.655100  0.269600  0.182200  1
  N  N721  1  0.296400  0.787300  0.818500  1
  N  N722  1  0.703600  0.212700  0.181500  1
  N  N723  1  0.235900  0.094600  0.550100  1
  N  N724  1  0.764100  0.905400  0.449900  1
  N  N725  1  0.215300  0.149200  0.568400  1
  N  N726  1  0.784700  0.850800  0.431600  1
  N  N727  1  0.146200  0.271100  0.582800  1
  N  N728  1  0.853800  0.728900  0.417200  1
  N  N729  1  0.119700  0.384500  0.661400  1
  N  N730  1  0.880300  0.615500  0.338600  1
  N  N731  1  0.231100  0.157100  0.714500  1
  N  N732  1  0.768900  0.842900  0.285500  1
  N  N733  1  0.193400  0.116000  0.738700  1
  N  N734  1  0.806600  0.884000  0.261300  1
  N  N735  1  0.855700  0.248400  0.624500  1
  N  N736  1  0.144300  0.751600  0.375500  1
  N  N737  1  0.825700  0.224700  0.676300  1
  N  N738  1  0.174300  0.775300  0.323700  1
  N  N739  1  0.754100  0.165200  0.760700  1
  N  N740  1  0.245900  0.834800  0.239300  1
  N  N741  1  0.713200  0.116800  0.908500  1
  N  N742  1  0.286800  0.883200  0.091500  1
  N  N743  1  0.466000  0.258000  0.602900  1
  N  N744  1  0.534000  0.742000  0.397100  1
  N  N745  1  0.328500  0.218500  0.691700  1
  N  N746  1  0.671500  0.781500  0.308300  1
  N  N747  1  0.205100  0.336300  0.266000  1
  N  N748  1  0.794900  0.663700  0.734000  1
  N  N749  1  0.645800  0.977800  0.229900  1
  N  N750  1  0.354200  0.022200  0.770100  1
  N  N751  1  0.268900  0.169900  0.307000  1
  N  N752  1  0.731100  0.830100  0.693000  1
  N  N753  1  0.948900  0.817400  0.122500  1
  N  N754  1  0.051100  0.182600  0.877500  1
  N  N755  1  0.369800  0.368000  0.609400  1
  N  N756  1  0.630200  0.632000  0.390600  1
  N  N757  1  0.306400  0.232800  0.705900  1
  N  N758  1  0.693600  0.767200  0.294100  1
  Cl  Cl759  1  0.876550  0.061260  0.123880  1
  Cl  Cl760  1  0.123450  0.938740  0.876120  1
  Cl  Cl761  1  0.368300  0.081860  0.167690  1
  Cl  Cl762  1  0.631700  0.918140  0.832310  1
  Cl  Cl763  1  0.747900  0.041300  0.564100  1
  Cl  Cl764  1  0.252100  0.958700  0.435900  1
  Cl  Cl765  1  0.688350  0.432670  0.034730  1
  Cl  Cl766  1  0.311650  0.567330  0.965270  1
  Cl  Cl767  1  0.936600  0.269600  0.436600  1
  Cl  Cl768  1  0.063400  0.730400  0.563400  1
  Cl  Cl769  1  0.034570  0.514490  0.207720  1
  Cl  Cl770  1  0.965430  0.485510  0.792280  1
  Cl  Cl771  1  0.140800  0.489740  0.460750  1
  Cl  Cl772  1  0.859200  0.510260  0.539250  1
  Cl  Cl773  1  0.239400  0.138330  0.971900  1
  Cl  Cl774  1  0.760600  0.861670  0.028100  1
  Cl  Cl775  1  0.242590  0.483550  0.772800  1
  Cl  Cl776  1  0.757410  0.516450  0.227200  1
  Cl  Cl777  1  0.620960  0.692000  0.610620  1
  Cl  Cl778  1  0.379040  0.308000  0.389380  1
  Cl  Cl779  1  0.471100  0.778800  0.158700  1
  Cl  Cl780  1  0.528900  0.221200  0.841300  1
  Cl  Cl781  1  0.474900  0.781500  0.001300  1
  Cl  Cl782  1  0.525100  0.218500  0.998700  1
  Cl  Cl783  1  0.718000  0.045300  0.573800  1
  Cl  Cl784  1  0.282000  0.954700  0.426200  1
  Cl  Cl785  1  0.928000  0.303800  0.426400  1
  Cl  Cl786  1  0.072000  0.696200  0.573600  1
  Cl  Cl787  1  0.253100  0.473900  0.794200  1
  Cl  Cl788  1  0.746900  0.526100  0.205800  1
  Cl  Cl789  1  0.486800  0.805300  0.975900  1
  Cl  Cl790  1  0.513200  0.194700  0.024100  1
  O  O791  1  0.719900  0.376500  0.784000  1
  O  O792  1  0.280100  0.623500  0.216000  1
  O  O793  1  0.954300  0.625900  0.930500  1
  O  O794  1  0.045700  0.374100  0.069500  1
  O  O795  1  0.788500  0.686700  0.930400  1
  O  O796  1  0.211500  0.313300  0.069600  1
  O  O797  1  0.486600  0.688300  0.754700  1
  O  O798  1  0.513400  0.311700  0.245300  1
  O  O799  1  0.467800  0.543900  0.777700  1
  O  O800  1  0.532200  0.456100  0.222300  1
  O  O801  1  0.209800  0.316100  0.633800  1
  O  O802  1  0.790200  0.683900  0.366200  1
  O  O803  1  0.727000  0.212500  0.847000  1
  O  O804  1  0.273000  0.787500  0.153000  1
  O  O805  1  0.869500  0.318200  0.745800  1
  O  O806  1  0.130500  0.681800  0.254200  1
  O  O807  1  0.664200  0.299600  0.733800  1
  O  O808  1  0.335800  0.700400  0.266200  1
  O  O809  1  0.801800  0.836100  0.890500  1
  O  O810  1  0.198200  0.163900  0.109500  1
  O  O811  1  0.770600  0.778700  0.810900  1
  O  O812  1  0.229400  0.221300  0.189100  1
  O  O813  1  0.862700  0.644700  0.833200  1
  O  O814  1  0.137300  0.355300  0.166800  1
  O  O815  1  0.315800  0.602800  0.812800  1
  O  O816  1  0.684200  0.397200  0.187200  1
  O  O817  1  0.352300  0.588700  0.700700  1
  O  O818  1  0.647700  0.411300  0.299300  1
  O  O819  1  0.456600  0.646500  0.659700  1
  O  O820  1  0.543400  0.353500  0.340300  1
  O  O821  1  0.352800  0.105300  0.653900  1
  O  O822  1  0.647200  0.894700  0.346100  1
  O  O823  1  0.344200  0.176500  0.532300  1
  O  O824  1  0.655800  0.823500  0.467700  1
  O  O825  1  0.248500  0.306200  0.510300  1
  O  O826  1  0.751500  0.693800  0.489700  1
  O  O827  1  0.364000  0.259500  0.583900  1
  O  O828  1  0.636000  0.740500  0.416100  1
  O  O829  1  0.915000  0.061300  0.072200  1
  O  O830  1  0.085000  0.938700  0.927800  1
  O  O831  1  0.905900  0.001100  0.169700  1
  O  O832  1  0.094100  0.998900  0.830300  1
  O  O833  1  0.813900  0.059000  0.109700  1
  O  O834  1  0.186100  0.941000  0.890300  1
  O  O835  1  0.866300  0.120400  0.138100  1
  O  O836  1  0.133700  0.879600  0.861900  1
  O  O837  1  0.316000  0.062500  0.157200  1
  O  O838  1  0.684000  0.937500  0.842800  1
  O  O839  1  0.429600  0.047700  0.149400  1
  O  O840  1  0.570400  0.952300  0.850600  1
  O  O841  1  0.364100  0.067300  0.229100  1
  O  O842  1  0.635900  0.932700  0.770900  1
  O  O843  1  0.344100  0.151300  0.136100  1
  O  O844  1  0.655900  0.848700  0.863900  1
  O  O845  1  0.713600  0.028700  0.527700  1
  O  O846  1  0.286400  0.971300  0.472300  1
  O  O847  1  0.740000  0.011800  0.622700  1
  O  O848  1  0.260000  0.988200  0.377300  1
  O  O849  1  0.814900  0.005800  0.556400  1
  O  O850  1  0.185100  0.994200  0.443600  1
  O  O851  1  0.732000  0.111200  0.551200  1
  O  O852  1  0.268000  0.888800  0.448800  1
  O  O853  1  0.721500  0.375200  0.081200  1
  O  O854  1  0.278500  0.624800  0.918800  1
  O  O855  1  0.649900  0.412700  0.004300  1
  O  O856  1  0.350100  0.587300  0.995700  1
  O  O857  1  0.734000  0.458400  0.995000  1
  O  O858  1  0.266000  0.541600  0.005000  1
  O  O859  1  0.646900  0.483900  0.058100  1
  O  O860  1  0.353100  0.516100  0.941900  1
  O  O861  1  0.898000  0.308200  0.385700  1
  O  O862  1  0.102000  0.691800  0.614300  1
  O  O863  1  0.002900  0.247900  0.425100  1
  O  O864  1  0.997100  0.752100  0.574900  1
  O  O865  1  0.927400  0.292800  0.482200  1
  O  O866  1  0.072600  0.707200  0.517800  1
  O  O867  1  0.917300  0.209000  0.462300  1
  O  O868  1  0.082700  0.791000  0.537700  1
  O  O869  1  0.074600  0.474600  0.256600  1
  O  O870  1  0.925400  0.525400  0.743400  1
  O  O871  1  0.044900  0.580000  0.184200  1
  O  O872  1  0.955100  0.420000  0.815800  1
  O  O873  1  0.051100  0.481600  0.164600  1
  O  O874  1  0.948900  0.518400  0.835400  1
  O  O875  1  0.967500  0.525600  0.221900  1
  O  O876  1  0.032500  0.474400  0.778100  1
  O  O877  1  0.150200  0.467200  0.413100  1
  O  O878  1  0.849800  0.532800  0.586900  1
  O  O879  1  0.074800  0.505300  0.476100  1
  O  O880  1  0.925200  0.494700  0.523900  1
  O  O881  1  0.155800  0.550500  0.442600  1
  O  O882  1  0.844200  0.449500  0.557400  1
  O  O883  1  0.179900  0.442400  0.506400  1
  O  O884  1  0.820100  0.557600  0.493600  1
  O  O885  1  0.215000  0.196100  0.923300  1
  O  O886  1  0.785000  0.803900  0.076700  1
  O  O887  1  0.185200  0.131800  0.014100  1
  O  O888  1  0.814800  0.868200  0.985900  1
  O  O889  1  0.289100  0.145200  0.000000  1
  O  O890  1  0.710900  0.854800  0.000000  1
  O  O891  1  0.262500  0.080300  0.953800  1
  O  O892  1  0.737500  0.919700  0.046200  1
  O  O893  1  0.198900  0.450700  0.803600  1
  O  O894  1  0.801100  0.549300  0.196400  1
  O  O895  1  0.210000  0.525900  0.719100  1
  O  O896  1  0.790000  0.474100  0.280900  1
  O  O897  1  0.238600  0.525400  0.809600  1
  O  O898  1  0.761400  0.474600  0.190400  1
  O  O899  1  0.307100  0.460900  0.758700  1
  O  O900  1  0.692900  0.539100  0.241300  1
  O  O901  1  0.584900  0.644400  0.621400  1
  O  O902  1  0.415100  0.355600  0.378600  1
  O  O903  1  0.587100  0.752200  0.562600  1
  O  O904  1  0.412900  0.247800  0.437400  1
  O  O905  1  0.613500  0.713900  0.659900  1
  O  O906  1  0.386500  0.286100  0.340100  1
  O  O907  1  0.684400  0.665200  0.595600  1
  O  O908  1  0.315600  0.334800  0.404400  1
  O  O909  1  0.532200  0.754300  0.124500  1
  O  O910  1  0.467800  0.245700  0.875500  1
  O  O911  1  0.461200  0.851300  0.153000  1
  O  O912  1  0.538800  0.148700  0.847000  1
  O  O913  1  0.413800  0.769600  0.137600  1
  O  O914  1  0.586200  0.230400  0.862400  1
  O  O915  1  0.483100  0.735100  0.223100  1
  O  O916  1  0.516900  0.264900  0.776900  1
  O  O917  1  0.510000  0.723300  0.992000  1
  O  O918  1  0.490000  0.276700  0.008000  1
  O  O919  1  0.448000  0.767000  0.060900  1
  O  O920  1  0.552000  0.233000  0.939100  1
  O  O921  1  0.506000  0.834000  0.998000  1
  O  O922  1  0.494000  0.166000  0.002000  1
  O  O923  1  0.421200  0.817000  0.958900  1
  O  O924  1  0.578800  0.183000  0.041100  1
  O  O925  1  0.138800  0.550600  0.299100  1
  O  O926  1  0.861200  0.449400  0.700900  1
  O  O927  1  0.514900  0.982800  0.462900  1
  O  O928  1  0.485100  0.017200  0.537100  1
  O  O929  1  0.552100  0.469200  0.623100  1
  O  O930  1  0.447900  0.530800  0.376900  1
  O  O931  1  0.347300  0.275000  0.600700  1
  O  O932  1  0.652700  0.725000  0.399300  1
  O  O933  1  0.921500  0.031000  0.171700  1
  O  O934  1  0.078500  0.969000  0.828300  1
  O  O935  1  0.821800  0.038600  0.139100  1
  O  O936  1  0.178200  0.961400  0.860900  1
  O  O937  1  0.853600  0.133500  0.113100  1
  O  O938  1  0.146400  0.866500  0.886900  1
  O  O939  1  0.415500  0.069400  0.123100  1
  O  O940  1  0.584500  0.930600  0.876900  1
  O  O941  1  0.401600  0.041100  0.220900  1
  O  O942  1  0.598400  0.958900  0.779100  1
  O  O943  1  0.356500  0.150400  0.162900  1
  O  O944  1  0.643500  0.849600  0.837100  1
  O  O945  1  0.686700  0.024400  0.540800  1
  O  O946  1  0.313300  0.975600  0.459200  1
  O  O947  1  0.699100  0.022700  0.630900  1
  O  O948  1  0.300900  0.977300  0.369100  1
  O  O949  1  0.787600  0.021700  0.576400  1
  O  O950  1  0.212400  0.978300  0.423600  1
  O  O951  1  0.696700  0.116100  0.556600  1
  O  O952  1  0.303300  0.883900  0.443400  1
  O  O953  1  0.885000  0.347300  0.380200  1
  O  O954  1  0.115000  0.652700  0.619800  1
  O  O955  1  0.995000  0.290800  0.408900  1
  O  O956  1  0.005000  0.709200  0.591100  1
  O  O957  1  0.918900  0.327600  0.471900  1
  O  O958  1  0.081100  0.672400  0.528100  1
  O  O959  1  0.935600  0.231600  0.449700  1
  O  O960  1  0.064400  0.768400  0.550300  1
  O  O961  1  0.197700  0.493000  0.825900  1
  O  O962  1  0.802300  0.507000  0.174100  1
  O  O963  1  0.234000  0.528800  0.737800  1
  O  O964  1  0.766000  0.471200  0.262200  1
  O  O965  1  0.297300  0.491000  0.821400  1
  O  O966  1  0.702700  0.509000  0.178600  1
  O  O967  1  0.286000  0.420800  0.774000  1
  O  O968  1  0.714000  0.579200  0.226000  1
  O  O969  1  0.561300  0.684500  0.630400  1
  O  O970  1  0.438700  0.315500  0.369600  1
  O  O971  1  0.636700  0.686200  0.554600  1
  O  O972  1  0.363300  0.313800  0.445400  1
  O  O973  1  0.622700  0.757400  0.609000  1
  O  O974  1  0.377300  0.242600  0.391000  1
  O  O975  1  0.674000  0.642200  0.649700  1
  O  O976  1  0.326000  0.357800  0.350300  1
  O  O977  1  0.527700  0.727000  0.142400  1
  O  O978  1  0.472300  0.273000  0.857600  1
  O  O979  1  0.492400  0.802000  0.203200  1
  O  O980  1  0.507600  0.198000  0.796800  1
  O  O981  1  0.414300  0.753100  0.181100  1
  O  O982  1  0.585700  0.246900  0.818900  1
  O  O983  1  0.448500  0.843000  0.104500  1
  O  O984  1  0.551500  0.157000  0.895500  1
  O  O985  1  0.493900  0.760500  0.949500  1
  O  O986  1  0.506100  0.239500  0.050500  1
  O  O987  1  0.494000  0.771000  0.040200  1
  O  O988  1  0.506000  0.229000  0.959800  1
  O  O989  1  0.529000  0.849000  0.969000  1
  O  O990  1  0.471000  0.151000  0.031000  1
  O  O991  1  0.422600  0.858000  0.962000  1
  O  O992  1  0.577400  0.142000  0.038000  1
  O  O993  1  0.579400  0.429700  0.582000  1
  O  O994  1  0.420600  0.570300  0.418000  1
