# generated using pymatgen
data_La4H170C141N37(Cl2O15)6
_symmetry_space_group_name_H-M   'P 1'
_cell_length_a   16.24900000
_cell_length_b   25.43190000
_cell_length_c   28.14880000
_cell_angle_alpha   98.59900000
_cell_angle_beta   90.00000000
_cell_angle_gamma   90.00000000
_symmetry_Int_Tables_number   1
_chemical_formula_structural   La4H170C141N37(Cl2O15)6
_chemical_formula_sum   'La8 H340 C282 N74 Cl24 O180'
_cell_volume   11501.53424436
_cell_formula_units_Z   2
loop_
 _symmetry_equiv_pos_site_id
 _symmetry_equiv_pos_as_xyz
  1  'x, y, z'
loop_
 _atom_site_type_symbol
 _atom_site_label
 _atom_site_symmetry_multiplicity
 _atom_site_fract_x
 _atom_site_fract_y
 _atom_site_fract_z
 _atom_site_occupancy
  La  La1  1  0.970530  0.626635  0.372541  1
  La  La2  1  0.970530  0.873365  0.127459  1
  La  La3  1  0.029470  0.373365  0.627459  1
  La  La4  1  0.029470  0.126635  0.872541  1
  La  La5  1  0.512240  0.798626  0.543230  1
  La  La6  1  0.512240  0.701374  0.956770  1
  La  La7  1  0.487760  0.201374  0.456770  1
  La  La8  1  0.487760  0.298626  0.043230  1
  H  H9  1  0.741900  0.624700  0.543600  1
  H  H10  1  0.741900  0.875300  0.956400  1
  H  H11  1  0.258100  0.375300  0.456400  1
  H  H12  1  0.258100  0.124700  0.043600  1
  H  H13  1  0.870600  0.622700  0.508000  1
  H  H14  1  0.870600  0.877300  0.992000  1
  H  H15  1  0.129400  0.377300  0.492000  1
  H  H16  1  0.129400  0.122700  0.008000  1
  H  H17  1  0.907800  0.771700  0.572500  1
  H  H18  1  0.907800  0.728300  0.927500  1
  H  H19  1  0.092200  0.228300  0.427500  1
  H  H20  1  0.092200  0.271700  0.072500  1
  H  H21  1  0.779600  0.772400  0.606200  1
  H  H22  1  0.779600  0.727600  0.893800  1
  H  H23  1  0.220400  0.227600  0.393800  1
  H  H24  1  0.220400  0.272400  0.106200  1
  H  H25  1  0.622100  0.694300  0.573900  1
  H  H26  1  0.622100  0.805700  0.926100  1
  H  H27  1  0.377900  0.305700  0.426100  1
  H  H28  1  0.377900  0.194300  0.073900  1
  H  H29  1  0.656700  0.665600  0.615100  1
  H  H30  1  0.656700  0.834400  0.884900  1
  H  H31  1  0.343300  0.334400  0.384900  1
  H  H32  1  0.343300  0.165600  0.115100  1
  H  H33  1  0.695600  0.729600  0.696800  1
  H  H34  1  0.695600  0.770400  0.803200  1
  H  H35  1  0.304400  0.270400  0.303200  1
  H  H36  1  0.304400  0.229600  0.196800  1
  H  H37  1  0.633000  0.815800  0.733300  1
  H  H38  1  0.633000  0.684200  0.766700  1
  H  H39  1  0.367000  0.184200  0.266700  1
  H  H40  1  0.367000  0.315800  0.233300  1
  H  H41  1  0.547900  0.892500  0.734700  1
  H  H42  1  0.547900  0.607500  0.765300  1
  H  H43  1  0.452100  0.107500  0.265300  1
  H  H44  1  0.452100  0.392500  0.234700  1
  H  H45  1  0.461200  0.962700  0.735600  1
  H  H46  1  0.461200  0.537300  0.764400  1
  H  H47  1  0.538800  0.037300  0.264400  1
  H  H48  1  0.538800  0.462700  0.235600  1
  H  H49  1  0.390400  0.974700  0.664400  1
  H  H50  1  0.390400  0.525300  0.835600  1
  H  H51  1  0.609600  0.025300  0.335600  1
  H  H52  1  0.609600  0.474700  0.164400  1
  H  H53  1  0.397700  0.033000  0.560100  1
  H  H54  1  0.397700  0.467000  0.939900  1
  H  H55  1  0.602300  0.967000  0.439900  1
  H  H56  1  0.602300  0.533000  0.060100  1
  H  H57  1  0.423300  0.013600  0.608400  1
  H  H58  1  0.423300  0.486400  0.891600  1
  H  H59  1  0.576700  0.986400  0.391600  1
  H  H60  1  0.576700  0.513600  0.108400  1
  H  H61  1  0.258800  0.026400  0.580400  1
  H  H62  1  0.258800  0.473600  0.919600  1
  H  H63  1  0.741200  0.973600  0.419600  1
  H  H64  1  0.741200  0.526400  0.080400  1
  H  H65  1  0.304500  0.065100  0.620400  1
  H  H66  1  0.304500  0.434900  0.879600  1
  H  H67  1  0.695500  0.934900  0.379600  1
  H  H68  1  0.695500  0.565100  0.120400  1
  H  H69  1  0.284300  0.006800  0.628600  1
  H  H70  1  0.284300  0.493200  0.871400  1
  H  H71  1  0.715700  0.993200  0.371400  1
  H  H72  1  0.715700  0.506800  0.128600  1
  H  H73  1  0.314200  0.912800  0.503800  1
  H  H74  1  0.314200  0.587200  0.996200  1
  H  H75  1  0.685800  0.087200  0.496200  1
  H  H76  1  0.685800  0.412800  0.003800  1
  H  H77  1  0.298600  0.974300  0.508500  1
  H  H78  1  0.298600  0.525700  0.991500  1
  H  H79  1  0.701400  0.025700  0.491500  1
  H  H80  1  0.701400  0.474300  0.008500  1
  H  H81  1  0.426400  0.986900  0.477500  1
  H  H82  1  0.426400  0.513100  0.022500  1
  H  H83  1  0.573600  0.013100  0.522500  1
  H  H84  1  0.573600  0.486900  0.977500  1
  H  H85  1  0.380200  0.943600  0.441700  1
  H  H86  1  0.380200  0.556400  0.058300  1
  H  H87  1  0.619800  0.056400  0.558300  1
  H  H88  1  0.619800  0.443600  0.941700  1
  H  H89  1  0.447600  0.926600  0.476200  1
  H  H90  1  0.447600  0.573400  0.023800  1
  H  H91  1  0.552400  0.073400  0.523800  1
  H  H92  1  0.552400  0.426600  0.976200  1
  H  H93  1  0.985100  0.713800  0.487300  1
  H  H94  1  0.985100  0.786200  0.012700  1
  H  H95  1  0.014900  0.286200  0.512700  1
  H  H96  1  0.014900  0.213800  0.987300  1
  H  H97  1  0.023300  0.720300  0.539000  1
  H  H98  1  0.023300  0.779700  0.961000  1
  H  H99  1  0.976700  0.279700  0.461000  1
  H  H100  1  0.976700  0.220300  0.039000  1
  H  H101  1  0.082000  0.633100  0.568300  1
  H  H102  1  0.082000  0.866900  0.931700  1
  H  H103  1  0.918000  0.366900  0.431700  1
  H  H104  1  0.918000  0.133100  0.068300  1
  H  H105  1  0.109700  0.541200  0.526900  1
  H  H106  1  0.109700  0.958800  0.973100  1
  H  H107  1  0.890300  0.458800  0.473100  1
  H  H108  1  0.890300  0.041200  0.026900  1
  H  H109  1  0.124300  0.472300  0.458700  1
  H  H110  1  0.124300  0.027700  0.041300  1
  H  H111  1  0.875700  0.527700  0.541300  1
  H  H112  1  0.875700  0.972300  0.958700  1
  H  H113  1  0.123200  0.406000  0.392100  1
  H  H114  1  0.123200  0.094000  0.107900  1
  H  H115  1  0.876800  0.594000  0.607900  1
  H  H116  1  0.876800  0.906000  0.892100  1
  H  H117  1  0.045100  0.416300  0.325200  1
  H  H118  1  0.045100  0.083700  0.174800  1
  H  H119  1  0.954900  0.583700  0.674800  1
  H  H120  1  0.954900  0.916300  0.825200  1
  H  H121  1  0.898600  0.517700  0.230100  1
  H  H122  1  0.898600  0.982300  0.269900  1
  H  H123  1  0.101400  0.482300  0.769900  1
  H  H124  1  0.101400  0.017700  0.730100  1
  H  H125  1  0.864200  0.460100  0.213500  1
  H  H126  1  0.864200  0.039900  0.286500  1
  H  H127  1  0.135800  0.539900  0.786500  1
  H  H128  1  0.135800  0.960100  0.713500  1
  H  H129  1  0.749200  0.476800  0.254500  1
  H  H130  1  0.749200  0.023200  0.245500  1
  H  H131  1  0.250800  0.523200  0.745500  1
  H  H132  1  0.250800  0.976800  0.754500  1
  H  H133  1  0.764800  0.530200  0.234400  1
  H  H134  1  0.764800  0.969800  0.265600  1
  H  H135  1  0.235200  0.469800  0.765600  1
  H  H136  1  0.235200  0.030200  0.734400  1
  H  H137  1  0.787300  0.525700  0.287800  1
  H  H138  1  0.787300  0.974300  0.212200  1
  H  H139  1  0.212700  0.474300  0.712200  1
  H  H140  1  0.212700  0.025700  0.787800  1
  H  H141  1  0.836600  0.408600  0.281300  1
  H  H142  1  0.836600  0.091400  0.218700  1
  H  H143  1  0.163400  0.591400  0.718700  1
  H  H144  1  0.163400  0.908600  0.781300  1
  H  H145  1  0.910300  0.408000  0.317000  1
  H  H146  1  0.910300  0.092000  0.183000  1
  H  H147  1  0.089700  0.592000  0.683000  1
  H  H148  1  0.089700  0.908000  0.817000  1
  H  H149  1  0.922800  0.377500  0.216300  1
  H  H150  1  0.922800  0.122500  0.283700  1
  H  H151  1  0.077200  0.622500  0.783700  1
  H  H152  1  0.077200  0.877500  0.716300  1
  H  H153  1  0.926700  0.338100  0.254100  1
  H  H154  1  0.926700  0.161900  0.245900  1
  H  H155  1  0.073300  0.661900  0.745900  1
  H  H156  1  0.073300  0.838100  0.754100  1
  H  H157  1  0.998400  0.378700  0.251000  1
  H  H158  1  0.998400  0.121300  0.249000  1
  H  H159  1  0.001600  0.621300  0.749000  1
  H  H160  1  0.001600  0.878700  0.751000  1
  H  H161  1  0.723400  0.820300  0.377600  1
  H  H162  1  0.723400  0.679700  0.122400  1
  H  H163  1  0.276600  0.179700  0.622400  1
  H  H164  1  0.276600  0.320300  0.877600  1
  H  H165  1  0.792200  0.748900  0.339400  1
  H  H166  1  0.792200  0.751100  0.160600  1
  H  H167  1  0.207800  0.251100  0.660600  1
  H  H168  1  0.207800  0.248900  0.839400  1
  H  H169  1  0.585700  0.662200  0.337900  1
  H  H170  1  0.585700  0.837800  0.162100  1
  H  H171  1  0.414300  0.337800  0.662100  1
  H  H172  1  0.414300  0.162200  0.837900  1
  H  H173  1  0.519800  0.734800  0.380200  1
  H  H174  1  0.519800  0.765200  0.119800  1
  H  H175  1  0.480200  0.265200  0.619800  1
  H  H176  1  0.480200  0.234800  0.880200  1
  H  H177  1  0.598300  0.845200  0.438400  1
  H  H178  1  0.598300  0.654800  0.061600  1
  H  H179  1  0.401700  0.154800  0.561600  1
  H  H180  1  0.401700  0.345200  0.938400  1
  H  H181  1  0.579800  0.863200  0.388700  1
  H  H182  1  0.579800  0.636800  0.111300  1
  H  H183  1  0.420200  0.136800  0.611300  1
  H  H184  1  0.420200  0.363200  0.888700  1
  H  H185  1  0.426400  0.848500  0.355900  1
  H  H186  1  0.426400  0.651500  0.144100  1
  H  H187  1  0.573600  0.151500  0.644100  1
  H  H188  1  0.573600  0.348500  0.855900  1
  H  H189  1  0.299000  0.820700  0.390800  1
  H  H190  1  0.299000  0.679300  0.109200  1
  H  H191  1  0.701000  0.179300  0.609200  1
  H  H192  1  0.701000  0.320700  0.890800  1
  H  H193  1  0.211000  0.797500  0.456300  1
  H  H194  1  0.211000  0.702500  0.043700  1
  H  H195  1  0.789000  0.202500  0.543700  1
  H  H196  1  0.789000  0.297500  0.956300  1
  H  H197  1  0.136400  0.768900  0.517500  1
  H  H198  1  0.136400  0.731100  0.982500  1
  H  H199  1  0.863600  0.231100  0.482500  1
  H  H200  1  0.863600  0.268900  0.017500  1
  H  H201  1  0.204600  0.728900  0.575400  1
  H  H202  1  0.204600  0.771100  0.924600  1
  H  H203  1  0.795400  0.271100  0.424600  1
  H  H204  1  0.795400  0.228900  0.075400  1
  H  H205  1  0.327800  0.605900  0.582700  1
  H  H206  1  0.327800  0.894100  0.917300  1
  H  H207  1  0.672200  0.394100  0.417300  1
  H  H208  1  0.672200  0.105900  0.082700  1
  H  H209  1  0.270800  0.648500  0.564300  1
  H  H210  1  0.270800  0.851500  0.935700  1
  H  H211  1  0.729200  0.351500  0.435700  1
  H  H212  1  0.729200  0.148500  0.064300  1
  H  H213  1  0.267700  0.628000  0.659600  1
  H  H214  1  0.267700  0.872000  0.840400  1
  H  H215  1  0.732300  0.372000  0.340400  1
  H  H216  1  0.732300  0.128000  0.159600  1
  H  H217  1  0.203500  0.603900  0.620700  1
  H  H218  1  0.203500  0.896100  0.879300  1
  H  H219  1  0.796500  0.396100  0.379300  1
  H  H220  1  0.796500  0.103900  0.120700  1
  H  H221  1  0.206400  0.665500  0.637700  1
  H  H222  1  0.206400  0.834500  0.862300  1
  H  H223  1  0.793600  0.334500  0.362300  1
  H  H224  1  0.793600  0.165500  0.137700  1
  H  H225  1  0.422300  0.628500  0.645500  1
  H  H226  1  0.422300  0.871500  0.854500  1
  H  H227  1  0.577700  0.371500  0.354500  1
  H  H228  1  0.577700  0.128500  0.145500  1
  H  H229  1  0.482100  0.669800  0.627700  1
  H  H230  1  0.482100  0.830200  0.872300  1
  H  H231  1  0.517900  0.330200  0.372300  1
  H  H232  1  0.517900  0.169800  0.127700  1
  H  H233  1  0.418300  0.733900  0.686900  1
  H  H234  1  0.418300  0.766100  0.813100  1
  H  H235  1  0.581700  0.266100  0.313100  1
  H  H236  1  0.581700  0.233900  0.186900  1
  H  H237  1  0.479100  0.693700  0.705500  1
  H  H238  1  0.479100  0.806300  0.794500  1
  H  H239  1  0.520900  0.306300  0.294500  1
  H  H240  1  0.520900  0.193700  0.205500  1
  H  H241  1  0.383900  0.684900  0.708400  1
  H  H242  1  0.383900  0.815100  0.791600  1
  H  H243  1  0.616100  0.315100  0.291600  1
  H  H244  1  0.616100  0.184900  0.208400  1
  H  H245  1  0.700600  0.624600  0.293800  1
  H  H246  1  0.700600  0.875400  0.206200  1
  H  H247  1  0.299400  0.375400  0.706200  1
  H  H248  1  0.299400  0.124600  0.793800  1
  H  H249  1  0.759900  0.628800  0.338100  1
  H  H250  1  0.759900  0.871200  0.161900  1
  H  H251  1  0.240100  0.371200  0.661900  1
  H  H252  1  0.240100  0.128800  0.838100  1
  H  H253  1  0.755900  0.669800  0.219600  1
  H  H254  1  0.755900  0.830200  0.280400  1
  H  H255  1  0.244100  0.330200  0.780400  1
  H  H256  1  0.244100  0.169800  0.719600  1
  H  H257  1  0.896600  0.686400  0.191500  1
  H  H258  1  0.896600  0.813600  0.308500  1
  H  H259  1  0.103400  0.313600  0.808500  1
  H  H260  1  0.103400  0.186400  0.691500  1
  H  H261  1  0.044400  0.695200  0.197700  1
  H  H262  1  0.044400  0.804800  0.302300  1
  H  H263  1  0.955600  0.304800  0.802300  1
  H  H264  1  0.955600  0.195200  0.697700  1
  H  H265  1  0.186000  0.689300  0.201200  1
  H  H266  1  0.186000  0.810700  0.298800  1
  H  H267  1  0.814000  0.310700  0.798800  1
  H  H268  1  0.814000  0.189300  0.701200  1
  H  H269  1  0.247400  0.662000  0.267400  1
  H  H270  1  0.247400  0.838000  0.232600  1
  H  H271  1  0.752600  0.338000  0.732600  1
  H  H272  1  0.752600  0.162000  0.767400  1
  H  H273  1  0.320100  0.698100  0.387400  1
  H  H274  1  0.320100  0.801900  0.112600  1
  H  H275  1  0.679900  0.301900  0.612600  1
  H  H276  1  0.679900  0.198100  0.887400  1
  H  H277  1  0.275900  0.703500  0.338900  1
  H  H278  1  0.275900  0.796500  0.161100  1
  H  H279  1  0.724100  0.296500  0.661100  1
  H  H280  1  0.724100  0.203500  0.838900  1
  H  H281  1  0.398100  0.626100  0.343800  1
  H  H282  1  0.398100  0.873900  0.156200  1
  H  H283  1  0.601900  0.373900  0.656200  1
  H  H284  1  0.601900  0.126100  0.843800  1
  H  H285  1  0.419000  0.682100  0.330000  1
  H  H286  1  0.419000  0.817900  0.170000  1
  H  H287  1  0.581000  0.317900  0.670000  1
  H  H288  1  0.581000  0.182100  0.830000  1
  H  H289  1  0.362100  0.642800  0.296600  1
  H  H290  1  0.362100  0.857200  0.203400  1
  H  H291  1  0.637900  0.357200  0.703400  1
  H  H292  1  0.637900  0.142800  0.796600  1
  H  H293  1  0.237100  0.572700  0.398600  1
  H  H294  1  0.237100  0.927300  0.101400  1
  H  H295  1  0.762900  0.427300  0.601400  1
  H  H296  1  0.762900  0.072700  0.898600  1
  H  H297  1  0.323700  0.600200  0.403400  1
  H  H298  1  0.323700  0.899800  0.096600  1
  H  H299  1  0.676300  0.399800  0.596600  1
  H  H300  1  0.676300  0.100200  0.903400  1
  H  H301  1  0.268600  0.668600  0.458100  1
  H  H302  1  0.268600  0.831400  0.041900  1
  H  H303  1  0.731400  0.331400  0.541900  1
  H  H304  1  0.731400  0.168600  0.958100  1
  H  H305  1  0.259800  0.613600  0.476500  1
  H  H306  1  0.259800  0.886400  0.023500  1
  H  H307  1  0.740200  0.386400  0.523500  1
  H  H308  1  0.740200  0.113600  0.976500  1
  H  H309  1  0.183600  0.639100  0.454400  1
  H  H310  1  0.183600  0.860900  0.045600  1
  H  H311  1  0.816400  0.360900  0.545600  1
  H  H312  1  0.816400  0.139100  0.954400  1
  H  H313  1  0.566100  0.543500  0.322200  1
  H  H314  1  0.566100  0.956500  0.177800  1
  H  H315  1  0.433900  0.456500  0.677800  1
  H  H316  1  0.433900  0.043500  0.822200  1
  H  H317  1  0.556400  0.560100  0.377800  1
  H  H318  1  0.556400  0.939900  0.122200  1
  H  H319  1  0.443600  0.439900  0.622200  1
  H  H320  1  0.443600  0.060100  0.877800  1
  H  H321  1  0.481300  0.536100  0.346900  1
  H  H322  1  0.481300  0.963900  0.153100  1
  H  H323  1  0.518700  0.463900  0.653100  1
  H  H324  1  0.518700  0.036100  0.846900  1
  H  H325  1  0.915700  0.864700  0.520800  1
  H  H326  1  0.915700  0.635300  0.979200  1
  H  H327  1  0.084300  0.135300  0.479200  1
  H  H328  1  0.084300  0.364700  0.020800  1
  H  H329  1  0.863600  0.910600  0.504100  1
  H  H330  1  0.863600  0.589400  0.995900  1
  H  H331  1  0.136400  0.089400  0.495900  1
  H  H332  1  0.136400  0.410600  0.004100  1
  H  H333  1  0.951100  0.897100  0.482200  1
  H  H334  1  0.951100  0.602900  0.017800  1
  H  H335  1  0.048900  0.102900  0.517800  1
  H  H336  1  0.048900  0.397100  0.982200  1
  H  H337  1  0.501200  0.228400  0.772800  1
  H  H338  1  0.501200  0.271600  0.727200  1
  H  H339  1  0.498800  0.771600  0.227200  1
  H  H340  1  0.498800  0.728400  0.272800  1
  H  H341  1  0.501200  0.285700  0.758700  1
  H  H342  1  0.501200  0.214300  0.741300  1
  H  H343  1  0.498800  0.714300  0.241300  1
  H  H344  1  0.498800  0.785700  0.258700  1
  H  H345  1  0.501200  0.235900  0.718500  1.0
  H  H346  1  0.501200  0.264100  0.781500  1.0
  H  H347  1  0.498800  0.764100  0.281500  1.0
  H  H348  1  0.498800  0.735900  0.218500  1.0
  C  C349  1  0.775600  0.654500  0.549500  1
  C  C350  1  0.775600  0.845500  0.950500  1
  C  C351  1  0.224400  0.345500  0.450500  1
  C  C352  1  0.224400  0.154500  0.049500  1
  C  C353  1  0.853200  0.652900  0.528300  1
  C  C354  1  0.853200  0.847100  0.971700  1
  C  C355  1  0.146800  0.347100  0.471700  1
  C  C356  1  0.146800  0.152900  0.028300  1
  C  C357  1  0.874700  0.741600  0.566800  1
  C  C358  1  0.874700  0.758400  0.933200  1
  C  C359  1  0.125300  0.258400  0.433200  1
  C  C360  1  0.125300  0.241600  0.066800  1
  C  C361  1  0.798200  0.742000  0.586700  1
  C  C362  1  0.798200  0.758000  0.913300  1
  C  C363  1  0.201800  0.258000  0.413300  1
  C  C364  1  0.201800  0.242000  0.086700  1
  C  C365  1  0.748100  0.697900  0.578300  1
  C  C366  1  0.748100  0.802100  0.921700  1
  C  C367  1  0.251900  0.302100  0.421700  1
  C  C368  1  0.251900  0.197900  0.078300  1
  C  C369  1  0.661900  0.697200  0.599800  1
  C  C370  1  0.661900  0.802800  0.900200  1
  C  C371  1  0.338100  0.302800  0.400200  1
  C  C372  1  0.338100  0.197200  0.099800  1
  C  C373  1  0.663400  0.751700  0.680900  1
  C  C374  1  0.663400  0.748300  0.819100  1
  C  C375  1  0.336600  0.248300  0.319100  1
  C  C376  1  0.336600  0.251700  0.180900  1
  C  C377  1  0.630100  0.799500  0.701400  1
  C  C378  1  0.630100  0.700500  0.798600  1
  C  C379  1  0.369900  0.200500  0.298600  1
  C  C380  1  0.369900  0.299500  0.201400  1
  C  C381  1  0.590500  0.817900  0.662500  1
  C  C382  1  0.590500  0.682100  0.837500  1
  C  C383  1  0.409500  0.182100  0.337500  1
  C  C384  1  0.409500  0.317900  0.162500  1
  C  C385  1  0.535800  0.864900  0.664500  1
  C  C386  1  0.535800  0.635100  0.835500  1
  C  C387  1  0.464200  0.135100  0.335500  1
  C  C388  1  0.464200  0.364900  0.164500  1
  C  C389  1  0.521600  0.898400  0.706600  1
  C  C390  1  0.521600  0.601600  0.793400  1
  C  C391  1  0.478400  0.101600  0.293400  1
  C  C392  1  0.478400  0.398400  0.206600  1
  C  C393  1  0.470000  0.939500  0.707300  1
  C  C394  1  0.470000  0.560500  0.792700  1
  C  C395  1  0.530000  0.060500  0.292700  1
  C  C396  1  0.530000  0.439500  0.207300  1
  C  C397  1  0.428500  0.947400  0.664400  1
  C  C398  1  0.428500  0.552600  0.835600  1
  C  C399  1  0.571500  0.052600  0.335600  1
  C  C400  1  0.571500  0.447400  0.164400  1
  C  C401  1  0.446800  0.913200  0.622800  1
  C  C402  1  0.446800  0.586800  0.877200  1
  C  C403  1  0.553200  0.086800  0.377200  1
  C  C404  1  0.553200  0.413200  0.122800  1
  C  C405  1  0.410300  0.912800  0.574700  1
  C  C406  1  0.410300  0.587200  0.925300  1
  C  C407  1  0.589700  0.087200  0.425300  1
  C  C408  1  0.589700  0.412800  0.074700  1
  C  C409  1  0.381700  0.010300  0.583400  1
  C  C410  1  0.381700  0.489700  0.916600  1
  C  C411  1  0.618300  0.989700  0.416600  1
  C  C412  1  0.618300  0.510300  0.083400  1
  C  C413  1  0.299900  0.028800  0.605200  1
  C  C414  1  0.299900  0.471200  0.894800  1
  C  C415  1  0.700100  0.971200  0.394800  1
  C  C416  1  0.700100  0.528800  0.105200  1
  C  C417  1  0.340400  0.947500  0.510100  1
  C  C418  1  0.340400  0.552500  0.989900  1
  C  C419  1  0.659600  0.052500  0.489900  1
  C  C420  1  0.659600  0.447500  0.010100  1
  C  C421  1  0.404300  0.951500  0.473100  1
  C  C422  1  0.404300  0.548500  0.026900  1
  C  C423  1  0.595700  0.048500  0.526900  1
  C  C424  1  0.595700  0.451500  0.973100  1
  C  C425  1  0.988200  0.698000  0.516600  1
  C  C426  1  0.988200  0.802000  0.983400  1
  C  C427  1  0.011800  0.302000  0.483400  1
  C  C428  1  0.011800  0.198000  0.016600  1
  C  C429  1  0.067000  0.618800  0.537200  1
  C  C430  1  0.067000  0.881200  0.962800  1
  C  C431  1  0.933000  0.381200  0.462800  1
  C  C432  1  0.933000  0.118800  0.037200  1
  C  C433  1  0.082800  0.568300  0.514400  1
  C  C434  1  0.082800  0.931700  0.985600  1
  C  C435  1  0.917200  0.431700  0.485600  1
  C  C436  1  0.917200  0.068300  0.014400  1
  C  C437  1  0.049900  0.566400  0.468500  1
  C  C438  1  0.049900  0.933600  0.031500  1
  C  C439  1  0.950100  0.433600  0.531500  1
  C  C440  1  0.950100  0.066400  0.968500  1
  C  C441  1  0.048800  0.523000  0.428900  1
  C  C442  1  0.048800  0.977000  0.071100  1
  C  C443  1  0.951200  0.477000  0.571100  1
  C  C444  1  0.951200  0.023000  0.928900  1
  C  C445  1  0.094200  0.476400  0.431400  1
  C  C446  1  0.094200  0.023600  0.068600  1
  C  C447  1  0.905800  0.523600  0.568600  1
  C  C448  1  0.905800  0.976400  0.931400  1
  C  C449  1  0.092700  0.436900  0.391700  1
  C  C450  1  0.092700  0.063100  0.108300  1
  C  C451  1  0.907300  0.563100  0.608300  1
  C  C452  1  0.907300  0.936900  0.891700  1
  C  C453  1  0.046400  0.442800  0.351800  1
  C  C454  1  0.046400  0.057200  0.148200  1
  C  C455  1  0.953600  0.557200  0.648200  1
  C  C456  1  0.953600  0.942800  0.851800  1
  C  C457  1  0.001800  0.489600  0.352200  1
  C  C458  1  0.001800  0.010400  0.147800  1
  C  C459  1  0.998200  0.510400  0.647800  1
  C  C460  1  0.998200  0.989600  0.852200  1
  C  C461  1  0.952000  0.503900  0.311800  1
  C  C462  1  0.952000  0.996100  0.188200  1
  C  C463  1  0.048000  0.496100  0.688200  1
  C  C464  1  0.048000  0.003900  0.811800  1
  C  C465  1  0.868000  0.488600  0.240400  1
  C  C466  1  0.868000  0.011400  0.259600  1
  C  C467  1  0.132000  0.511400  0.759600  1
  C  C468  1  0.132000  0.988600  0.740400  1
  C  C469  1  0.785100  0.506900  0.255600  1
  C  C470  1  0.785100  0.993100  0.244400  1
  C  C471  1  0.214900  0.493100  0.744400  1
  C  C472  1  0.214900  0.006900  0.755600  1
  C  C473  1  0.895400  0.414400  0.285000  1
  C  C474  1  0.895400  0.085600  0.215000  1
  C  C475  1  0.104600  0.585600  0.715000  1
  C  C476  1  0.104600  0.914400  0.785000  1
  C  C477  1  0.940000  0.373300  0.248100  1
  C  C478  1  0.940000  0.126700  0.251900  1
  C  C479  1  0.060000  0.626700  0.751900  1
  C  C480  1  0.060000  0.873300  0.748100  1
  C  C481  1  0.695700  0.788100  0.370000  1
  C  C482  1  0.695700  0.711900  0.130000  1
  C  C483  1  0.304300  0.211900  0.630000  1
  C  C484  1  0.304300  0.288100  0.870000  1
  C  C485  1  0.737000  0.745700  0.347200  1
  C  C486  1  0.737000  0.754300  0.152800  1
  C  C487  1  0.263000  0.254300  0.652800  1
  C  C488  1  0.263000  0.245700  0.847200  1
  C  C489  1  0.697100  0.697000  0.335100  1
  C  C490  1  0.697100  0.803000  0.164900  1
  C  C491  1  0.302900  0.303000  0.664900  1
  C  C492  1  0.302900  0.197000  0.835100  1
  C  C493  1  0.614300  0.693800  0.346600  1
  C  C494  1  0.614300  0.806200  0.153400  1
  C  C495  1  0.385700  0.306200  0.653400  1
  C  C496  1  0.385700  0.193800  0.846600  1
  C  C497  1  0.574400  0.737800  0.371200  1
  C  C498  1  0.574400  0.762200  0.128800  1
  C  C499  1  0.425600  0.262200  0.628800  1
  C  C500  1  0.425600  0.237800  0.871200  1
  C  C501  1  0.613900  0.785500  0.382400  1
  C  C502  1  0.613900  0.714500  0.117600  1
  C  C503  1  0.386100  0.214500  0.617600  1
  C  C504  1  0.386100  0.285500  0.882400  1
  C  C505  1  0.571900  0.834700  0.407600  1
  C  C506  1  0.571900  0.665300  0.092400  1
  C  C507  1  0.428100  0.165300  0.592400  1
  C  C508  1  0.428100  0.334700  0.907600  1
  C  C509  1  0.421500  0.835200  0.384900  1
  C  C510  1  0.421500  0.664800  0.115100  1
  C  C511  1  0.578500  0.164800  0.615100  1
  C  C512  1  0.578500  0.335200  0.884900  1
  C  C513  1  0.351600  0.819700  0.403500  1
  C  C514  1  0.351600  0.680300  0.096500  1
  C  C515  1  0.648400  0.180300  0.596500  1
  C  C516  1  0.648400  0.319700  0.903500  1
  C  C517  1  0.374100  0.801400  0.446500  1
  C  C518  1  0.374100  0.698600  0.053500  1
  C  C519  1  0.625900  0.198600  0.553500  1
  C  C520  1  0.625900  0.301400  0.946500  1
  C  C521  1  0.323000  0.781300  0.482200  1
  C  C522  1  0.323000  0.718700  0.017800  1
  C  C523  1  0.677000  0.218700  0.517800  1
  C  C524  1  0.677000  0.281300  0.982200  1
  C  C525  1  0.237700  0.783800  0.481000  1
  C  C526  1  0.237700  0.716200  0.019000  1
  C  C527  1  0.762300  0.216200  0.519000  1
  C  C528  1  0.762300  0.283800  0.981000  1
  C  C529  1  0.193400  0.765800  0.516700  1
  C  C530  1  0.193400  0.734200  0.983300  1
  C  C531  1  0.806600  0.234200  0.483300  1
  C  C532  1  0.806600  0.265800  0.016700  1
  C  C533  1  0.234200  0.742900  0.551900  1
  C  C534  1  0.234200  0.757100  0.948100  1
  C  C535  1  0.765800  0.257100  0.448100  1
  C  C536  1  0.765800  0.242900  0.051900  1
  C  C537  1  0.318300  0.741200  0.551500  1
  C  C538  1  0.318300  0.758800  0.948500  1
  C  C539  1  0.681700  0.258800  0.448500  1
  C  C540  1  0.681700  0.241200  0.051500  1
  C  C541  1  0.373800  0.723900  0.588500  1
  C  C542  1  0.373800  0.776100  0.911500  1
  C  C543  1  0.626200  0.276100  0.411500  1
  C  C544  1  0.626200  0.223900  0.088500  1
  C  C545  1  0.299700  0.639500  0.592200  1
  C  C546  1  0.299700  0.860500  0.907800  1
  C  C547  1  0.700300  0.360500  0.407800  1
  C  C548  1  0.700300  0.139500  0.092200  1
  C  C549  1  0.238900  0.633700  0.631000  1
  C  C550  1  0.238900  0.866300  0.869000  1
  C  C551  1  0.761100  0.366300  0.369000  1
  C  C552  1  0.761100  0.133700  0.131000  1
  C  C553  1  0.428800  0.665700  0.642200  1
  C  C554  1  0.428800  0.834300  0.857800  1
  C  C555  1  0.571200  0.334300  0.357800  1
  C  C556  1  0.571200  0.165700  0.142200  1
  C  C557  1  0.427400  0.697200  0.689800  1
  C  C558  1  0.427400  0.802800  0.810200  1
  C  C559  1  0.572600  0.302800  0.310200  1
  C  C560  1  0.572600  0.197200  0.189800  1
  C  C561  1  0.739800  0.647500  0.312900  1
  C  C562  1  0.739800  0.852500  0.187100  1
  C  C563  1  0.260200  0.352500  0.687100  1
  C  C564  1  0.260200  0.147500  0.812900  1
  C  C565  1  0.804300  0.668800  0.237000  1
  C  C566  1  0.804300  0.831200  0.263000  1
  C  C567  1  0.195700  0.331200  0.763000  1
  C  C568  1  0.195700  0.168800  0.737000  1
  C  C569  1  0.881400  0.677700  0.221200  1
  C  C570  1  0.881400  0.822300  0.278800  1
  C  C571  1  0.118600  0.322300  0.778800  1
  C  C572  1  0.118600  0.177700  0.721200  1
  C  C573  1  0.932600  0.670900  0.259700  1
  C  C574  1  0.932600  0.829100  0.240300  1
  C  C575  1  0.067400  0.329100  0.740300  1
  C  C576  1  0.067400  0.170900  0.759700  1
  C  C577  1  0.022200  0.671800  0.262000  1
  C  C578  1  0.022200  0.828200  0.238000  1
  C  C579  1  0.977800  0.328200  0.738000  1
  C  C580  1  0.977800  0.171800  0.762000  1
  C  C581  1  0.069600  0.684400  0.224300  1
  C  C582  1  0.069600  0.815600  0.275700  1
  C  C583  1  0.930400  0.315600  0.775700  1
  C  C584  1  0.930400  0.184400  0.724300  1
  C  C585  1  0.154000  0.681000  0.226400  1
  C  C586  1  0.154000  0.819000  0.273600  1
  C  C587  1  0.846000  0.319000  0.773600  1
  C  C588  1  0.846000  0.181000  0.726400  1
  C  C589  1  0.190500  0.665400  0.265800  1
  C  C590  1  0.190500  0.834600  0.234200  1
  C  C591  1  0.809500  0.334600  0.734200  1
  C  C592  1  0.809500  0.165400  0.765800  1
  C  C593  1  0.139700  0.654500  0.304000  1
  C  C594  1  0.139700  0.845500  0.196000  1
  C  C595  1  0.860300  0.345500  0.696000  1
  C  C596  1  0.860300  0.154500  0.804000  1
  C  C597  1  0.168300  0.631600  0.346800  1
  C  C598  1  0.168300  0.868400  0.153200  1
  C  C599  1  0.831700  0.368400  0.653200  1
  C  C600  1  0.831700  0.131600  0.846800  1
  C  C601  1  0.302500  0.678600  0.356800  1
  C  C602  1  0.302500  0.821400  0.143200  1
  C  C603  1  0.697500  0.321400  0.643200  1
  C  C604  1  0.697500  0.178600  0.856800  1
  C  C605  1  0.377300  0.655200  0.329300  1
  C  C606  1  0.377300  0.844800  0.170700  1
  C  C607  1  0.622700  0.344800  0.670700  1
  C  C608  1  0.622700  0.155200  0.829300  1
  C  C609  1  0.264800  0.606800  0.404300  1
  C  C610  1  0.264800  0.893200  0.095700  1
  C  C611  1  0.735200  0.393200  0.595700  1
  C  C612  1  0.735200  0.106800  0.904300  1
  C  C613  1  0.242200  0.634400  0.452600  1
  C  C614  1  0.242200  0.865600  0.047400  1
  C  C615  1  0.757800  0.365600  0.547400  1
  C  C616  1  0.757800  0.134400  0.952600  1
  C  C617  1  0.903100  0.696000  0.537800  1
  C  C618  1  0.903100  0.804000  0.962200  1
  C  C619  1  0.096900  0.304000  0.462200  1
  C  C620  1  0.096900  0.196000  0.037800  1
  C  C621  1  0.540000  0.534900  0.350600  1
  C  C622  1  0.540000  0.965100  0.149400  1
  C  C623  1  0.460000  0.465100  0.649400  1
  C  C624  1  0.460000  0.034900  0.850600  1
  C  C625  1  0.520900  0.250000  0.750000  1
  C  C626  1  0.479100  0.750000  0.250000  1
  C  C627  1  0.902100  0.882500  0.494000  1
  C  C628  1  0.902100  0.617500  0.006000  1
  C  C629  1  0.097900  0.117500  0.506000  1
  C  C630  1  0.097900  0.382500  0.994000  1
  N  N631  1  0.378200  0.955000  0.559670  1
  N  N632  1  0.378200  0.545000  0.940330  1
  N  N633  1  0.621800  0.045000  0.440330  1
  N  N634  1  0.621800  0.455000  0.059670  1
  N  N635  1  0.500600  0.870700  0.623070  1
  N  N636  1  0.500600  0.629300  0.876930  1
  N  N637  1  0.499400  0.129300  0.376930  1
  N  N638  1  0.499400  0.370700  0.123070  1
  N  N639  1  0.597800  0.783700  0.621660  1
  N  N640  1  0.597800  0.716300  0.878340  1
  N  N641  1  0.402200  0.216300  0.378340  1
  N  N642  1  0.402200  0.283700  0.121660  1
  N  N643  1  0.641900  0.741900  0.633770  1
  N  N644  1  0.641900  0.758100  0.866230  1
  N  N645  1  0.358100  0.258100  0.366230  1
  N  N646  1  0.358100  0.241900  0.133770  1
  N  N647  1  0.025400  0.643600  0.505500  1
  N  N648  1  0.025400  0.856400  0.994500  1
  N  N649  1  0.974600  0.356400  0.494500  1
  N  N650  1  0.974600  0.143600  0.005500  1
  N  N651  1  0.014400  0.612600  0.463090  1
  N  N652  1  0.014400  0.887400  0.036910  1
  N  N653  1  0.985600  0.387400  0.536910  1
  N  N654  1  0.985600  0.112600  0.963090  1
  N  N655  1  0.004900  0.528600  0.389900  1
  N  N656  1  0.004900  0.971400  0.110100  1
  N  N657  1  0.995100  0.471400  0.610100  1
  N  N658  1  0.995100  0.028600  0.889900  1
  N  N659  1  0.912400  0.469100  0.281400  1
  N  N660  1  0.912400  0.030900  0.218600  1
  N  N661  1  0.087600  0.530900  0.718600  1
  N  N662  1  0.087600  0.969100  0.781400  1
  N  N663  1  0.360900  0.681400  0.608650  1
  N  N664  1  0.360900  0.818600  0.891350  1
  N  N665  1  0.639100  0.318600  0.391350  1
  N  N666  1  0.639100  0.181400  0.108650  1
  N  N667  1  0.361200  0.761900  0.518010  1
  N  N668  1  0.361200  0.738100  0.981990  1
  N  N669  1  0.638800  0.238100  0.481990  1
  N  N670  1  0.638800  0.261900  0.018010  1
  N  N671  1  0.455900  0.806900  0.453570  1
  N  N672  1  0.455900  0.693100  0.046430  1
  N  N673  1  0.544100  0.193100  0.546430  1
  N  N674  1  0.544100  0.306900  0.953570  1
  N  N675  1  0.484400  0.828300  0.415290  1
  N  N676  1  0.484400  0.671700  0.084710  1
  N  N677  1  0.515600  0.171700  0.584710  1
  N  N678  1  0.515600  0.328300  0.915290  1
  N  N679  1  0.810400  0.658400  0.281670  1
  N  N680  1  0.810400  0.841600  0.218330  1
  N  N681  1  0.189600  0.341600  0.718330  1
  N  N682  1  0.189600  0.158400  0.781670  1
  N  N683  1  0.888000  0.660200  0.297780  1
  N  N684  1  0.888000  0.839800  0.202220  1
  N  N685  1  0.112000  0.339800  0.702220  1
  N  N686  1  0.112000  0.160200  0.797780  1
  N  N687  1  0.057600  0.657300  0.301770  1
  N  N688  1  0.057600  0.842700  0.198230  1
  N  N689  1  0.942400  0.342700  0.698230  1
  N  N690  1  0.942400  0.157300  0.801770  1
  N  N691  1  0.242800  0.637760  0.365640  1
  N  N692  1  0.242800  0.862240  0.134360  1
  N  N693  1  0.757200  0.362240  0.634360  1
  N  N694  1  0.757200  0.137760  0.865640  1
  N  N695  1  0.562800  0.485600  0.357500  1
  N  N696  1  0.562800  0.014400  0.142500  1
  N  N697  1  0.437200  0.514400  0.642500  1
  N  N698  1  0.437200  0.985600  0.857500  1
  N  N699  1  0.609400  0.250000  0.750000  1
  N  N700  1  0.390600  0.750000  0.250000  1
  N  N701  1  0.868300  0.847500  0.458900  1
  N  N702  1  0.868300  0.652500  0.041100  1
  N  N703  1  0.131700  0.152500  0.541100  1
  N  N704  1  0.131700  0.347500  0.958900  1
  Cl  Cl705  1  0.665890  0.904770  0.543120  1
  Cl  Cl706  1  0.665890  0.595230  0.956880  1
  Cl  Cl707  1  0.334110  0.095230  0.456880  1
  Cl  Cl708  1  0.334110  0.404770  0.043120  1
  Cl  Cl709  1  0.494600  0.652830  0.479950  1
  Cl  Cl710  1  0.494600  0.847170  0.020050  1
  Cl  Cl711  1  0.505400  0.347170  0.520050  1
  Cl  Cl712  1  0.505400  0.152830  0.979950  1
  Cl  Cl713  1  0.789770  0.544400  0.412260  1
  Cl  Cl714  1  0.789770  0.955600  0.087740  1
  Cl  Cl715  1  0.210230  0.455600  0.587740  1
  Cl  Cl716  1  0.210230  0.044400  0.912260  1
  Cl  Cl717  1  0.053190  0.760650  0.398760  1
  Cl  Cl718  1  0.053190  0.739350  0.101240  1
  Cl  Cl719  1  0.946810  0.239350  0.601240  1
  Cl  Cl720  1  0.946810  0.260650  0.898760  1
  Cl  Cl721  1  0.438310  0.098960  0.717810  1
  Cl  Cl722  1  0.438310  0.401040  0.782190  1
  Cl  Cl723  1  0.561690  0.901040  0.282190  1
  Cl  Cl724  1  0.561690  0.598960  0.217810  1
  Cl  Cl725  1  0.040300  0.739900  0.659590  1
  Cl  Cl726  1  0.040300  0.760100  0.840410  1
  Cl  Cl727  1  0.959700  0.260100  0.340410  1
  Cl  Cl728  1  0.959700  0.239900  0.159590  1
  O  O729  1  0.408600  0.867700  0.547600  1
  O  O730  1  0.408600  0.632300  0.952400  1
  O  O731  1  0.591400  0.132300  0.452400  1
  O  O732  1  0.591400  0.367700  0.047600  1
  O  O733  1  0.951500  0.552300  0.307680  1
  O  O734  1  0.951500  0.947700  0.192320  1
  O  O735  1  0.048500  0.447700  0.692320  1
  O  O736  1  0.048500  0.052300  0.807680  1
  O  O737  1  0.434900  0.753100  0.599830  1
  O  O738  1  0.434900  0.746900  0.900170  1
  O  O739  1  0.565100  0.246900  0.400170  1
  O  O740  1  0.565100  0.253100  0.099830  1
  O  O741  1  0.117800  0.602570  0.364940  1
  O  O742  1  0.117800  0.897430  0.135060  1
  O  O743  1  0.882200  0.397430  0.635060  1
  O  O744  1  0.882200  0.102570  0.864940  1
  O  O745  1  0.651400  0.775000  0.504050  1
  O  O746  1  0.651400  0.725000  0.995950  1
  O  O747  1  0.348600  0.225000  0.495950  1
  O  O748  1  0.348600  0.275000  0.004050  1
  O  O749  1  0.870500  0.694520  0.416710  1
  O  O750  1  0.870500  0.805480  0.083290  1
  O  O751  1  0.129500  0.305480  0.583290  1
  O  O752  1  0.129500  0.194520  0.916710  1
  O  O753  1  0.585700  0.885600  0.528050  1
  O  O754  1  0.585700  0.614400  0.971950  1
  O  O755  1  0.414300  0.114400  0.471950  1
  O  O756  1  0.414300  0.385600  0.028050  1
  O  O757  1  0.658400  0.949600  0.579800  1
  O  O758  1  0.658400  0.550400  0.920200  1
  O  O759  1  0.341600  0.050400  0.420200  1
  O  O760  1  0.341600  0.449600  0.079800  1
  O  O761  1  0.704300  0.930500  0.507400  1
  O  O762  1  0.704300  0.569500  0.992600  1
  O  O763  1  0.295700  0.069500  0.492600  1
  O  O764  1  0.295700  0.430500  0.007400  1
  O  O765  1  0.725800  0.864300  0.555000  1
  O  O766  1  0.725800  0.635700  0.945000  1
  O  O767  1  0.274200  0.135700  0.445000  1
  O  O768  1  0.274200  0.364300  0.055000  1
  O  O769  1  0.527300  0.701300  0.507650  1
  O  O770  1  0.527300  0.798700  0.992350  1
  O  O771  1  0.472700  0.298700  0.492350  1
  O  O772  1  0.472700  0.201300  0.007650  1
  O  O773  1  0.455200  0.667800  0.438700  1
  O  O774  1  0.455200  0.832200  0.061300  1
  O  O775  1  0.544800  0.332200  0.561300  1
  O  O776  1  0.544800  0.167800  0.938700  1
  O  O777  1  0.437600  0.630600  0.508000  1
  O  O778  1  0.437600  0.869400  0.992000  1
  O  O779  1  0.562400  0.369400  0.492000  1
  O  O780  1  0.562400  0.130600  0.008000  1
  O  O781  1  0.560500  0.617500  0.467400  1
  O  O782  1  0.560500  0.882500  0.032600  1
  O  O783  1  0.439500  0.382500  0.532600  1
  O  O784  1  0.439500  0.117500  0.967400  1
  O  O785  1  0.837800  0.580200  0.388200  1
  O  O786  1  0.837800  0.919800  0.111800  1
  O  O787  1  0.162200  0.419800  0.611800  1
  O  O788  1  0.162200  0.080200  0.888200  1
  O  O789  1  0.712000  0.565900  0.427400  1
  O  O790  1  0.712000  0.934100  0.072600  1
  O  O791  1  0.288000  0.434100  0.572600  1
  O  O792  1  0.288000  0.065900  0.927400  1
  O  O793  1  0.786500  0.497900  0.377400  1
  O  O794  1  0.786500  0.002100  0.122600  1
  O  O795  1  0.213500  0.502100  0.622600  1
  O  O796  1  0.213500  0.997900  0.877400  1
  O  O797  1  0.834200  0.533800  0.454000  1
  O  O798  1  0.834200  0.966200  0.046000  1
  O  O799  1  0.165800  0.466200  0.546000  1
  O  O800  1  0.165800  0.033800  0.954000  1
  O  O801  1  0.062400  0.706680  0.410200  1
  O  O802  1  0.062400  0.793320  0.089800  1
  O  O803  1  0.937600  0.293320  0.589800  1
  O  O804  1  0.937600  0.206680  0.910200  1
  O  O805  1  0.982900  0.761500  0.368330  1
  O  O806  1  0.982900  0.738500  0.131670  1
  O  O807  1  0.017100  0.238500  0.631670  1
  O  O808  1  0.017100  0.261500  0.868330  1
  O  O809  1  0.041900  0.794800  0.442670  1
  O  O810  1  0.041900  0.705200  0.057330  1
  O  O811  1  0.958100  0.205200  0.557330  1
  O  O812  1  0.958100  0.294800  0.942670  1
  O  O813  1  0.126400  0.773890  0.374850  1
  O  O814  1  0.126400  0.726110  0.125150  1
  O  O815  1  0.873600  0.226110  0.625150  1
  O  O816  1  0.873600  0.273890  0.874850  1
  O  O817  1  0.478000  0.077400  0.674350  1
  O  O818  1  0.478000  0.422600  0.825650  1
  O  O819  1  0.522000  0.922600  0.325650  1
  O  O820  1  0.522000  0.577400  0.174350  1
  O  O821  1  0.379900  0.058400  0.728300  1
  O  O822  1  0.379900  0.441600  0.771700  1
  O  O823  1  0.620100  0.941600  0.271700  1
  O  O824  1  0.620100  0.558400  0.228300  1
  O  O825  1  0.494100  0.108600  0.756000  1
  O  O826  1  0.494100  0.391400  0.744000  1
  O  O827  1  0.505900  0.891400  0.244000  1
  O  O828  1  0.505900  0.608600  0.256000  1
  O  O829  1  0.394500  0.148600  0.714500  1
  O  O830  1  0.394500  0.351400  0.785500  1
  O  O831  1  0.605500  0.851400  0.285500  1
  O  O832  1  0.605500  0.648600  0.214500  1
  O  O833  1  0.707600  0.683300  0.447680  1
  O  O834  1  0.707600  0.816700  0.052320  1
  O  O835  1  0.292400  0.316700  0.552320  1
  O  O836  1  0.292400  0.183300  0.947680  1
  O  O837  1  0.556100  0.473800  0.400500  1
  O  O838  1  0.556100  0.026200  0.099500  1
  O  O839  1  0.443900  0.526200  0.599500  1
  O  O840  1  0.443900  0.973800  0.900500  1
  O  O841  1  0.599200  0.456800  0.324100  1
  O  O842  1  0.599200  0.043200  0.175900  1
  O  O843  1  0.400800  0.543200  0.675900  1
  O  O844  1  0.400800  0.956800  0.824100  1
  O  O845  1  0.841600  0.803200  0.460900  1
  O  O846  1  0.841600  0.696800  0.039100  1
  O  O847  1  0.158400  0.196800  0.539100  1
  O  O848  1  0.158400  0.303200  0.960900  1
  O  O849  1  0.865700  0.862300  0.418400  1
  O  O850  1  0.865700  0.637700  0.081600  1
  O  O851  1  0.134300  0.137700  0.581600  1
  O  O852  1  0.134300  0.362300  0.918400  1
  O  O853  1  0.109300  0.747200  0.697200  1
  O  O854  1  0.109300  0.752800  0.802800  1
  O  O855  1  0.890700  0.252800  0.302800  1
  O  O856  1  0.890700  0.247200  0.197200  1
  O  O857  1  0.060800  0.765500  0.617900  1
  O  O858  1  0.060800  0.734500  0.882100  1
  O  O859  1  0.939200  0.234500  0.382100  1
  O  O860  1  0.939200  0.265500  0.117900  1
  O  O861  1  0.025600  0.680400  0.646500  1
  O  O862  1  0.025600  0.819600  0.853500  1
  O  O863  1  0.974400  0.319600  0.353500  1
  O  O864  1  0.974400  0.180400  0.146500  1
  O  O865  1  0.962900  0.761000  0.685300  1
  O  O866  1  0.962900  0.739000  0.814700  1
  O  O867  1  0.037100  0.239000  0.314700  1
  O  O868  1  0.037100  0.261000  0.185300  1
  O  O869  1  0.712000  0.905300  0.496300  1
  O  O870  1  0.712000  0.594700  0.003700  1
  O  O871  1  0.288000  0.094700  0.503700  1
  O  O872  1  0.288000  0.405300  0.996300  1
  O  O873  1  0.691500  0.861900  0.568100  1
  O  O874  1  0.691500  0.638100  0.931900  1
  O  O875  1  0.308500  0.138100  0.431900  1
  O  O876  1  0.308500  0.361900  0.068100  1
  O  O877  1  0.835400  0.594900  0.406100  1
  O  O878  1  0.835400  0.905100  0.093900  1
  O  O879  1  0.164600  0.405100  0.593900  1
  O  O880  1  0.164600  0.094900  0.906100  1
  O  O881  1  0.705300  0.552300  0.396600  1
  O  O882  1  0.705300  0.947700  0.103400  1
  O  O883  1  0.294700  0.447700  0.603400  1
  O  O884  1  0.294700  0.052300  0.896600  1
  O  O885  1  0.822100  0.497200  0.387500  1
  O  O886  1  0.822100  0.002800  0.112500  1
  O  O887  1  0.177900  0.502800  0.612500  1
  O  O888  1  0.177900  0.997200  0.887500  1
  O  O889  1  0.791500  0.544200  0.463600  1
  O  O890  1  0.791500  0.955800  0.036400  1
  O  O891  1  0.208500  0.455800  0.536400  1
  O  O892  1  0.208500  0.044200  0.963600  1
  O  O893  1  0.416300  0.075200  0.758100  1
  O  O894  1  0.416300  0.424800  0.741900  1
  O  O895  1  0.583700  0.924800  0.241900  1
  O  O896  1  0.583700  0.575200  0.258100  1
  O  O897  1  0.520300  0.125300  0.728400  1
  O  O898  1  0.520300  0.374700  0.771600  1
  O  O899  1  0.479700  0.874700  0.271600  1
  O  O900  1  0.479700  0.625300  0.228400  1
  O  O901  1  0.384100  0.131400  0.698000  1
  O  O902  1  0.384100  0.368600  0.802000  1
  O  O903  1  0.615900  0.868600  0.302000  1
  O  O904  1  0.615900  0.631400  0.198000  1
  O  O905  1  0.646200  0.224800  0.716320  1.0
  O  O906  1  0.646200  0.275200  0.783680  1.0
  O  O907  1  0.353800  0.775200  0.283680  1.0
  O  O908  1  0.353800  0.724800  0.216320  1.0
