
#######################################################################
#
#                 Cambridge Crystallographic Data Centre
#                                CCDC 
#
#######################################################################
#
# If this CIF has been generated from an entry in the Cambridge 
# Structural Database, then it will include bibliographic, chemical, 
# crystal, experimental, refinement or atomic coordinate data resulting 
# from the CCDC's data processing and validation procedures.
#
#######################################################################

data_WEZKES
_chemical_formula_moiety         
'C68 H80 Cl4 La2 N16 O22 2+,2(Cl1 O4 1-),2.5(C1 H3 N1 O2),H2 O1'
_chemical_name_systematic        
"bis(\m~2~-6,6'-(1,4-Phenylenebis(methylene-1H-pyrazole-1,3-diyl))-bis(N,N-diethylpyridine-2-carboxamide))-diaqua-tetrakis(perchlorato-O)-di-lanthanum(iii) diperchlorate nitromethane solvate monohydrate"
_symmetry_cell_setting           monoclinic
_symmetry_space_group_name_H-M   'P 2/n'
_symmetry_Int_Tables_number      13
_space_group_name_Hall           '-P 2yac'
loop_
_symmetry_equiv_pos_site_id
_symmetry_equiv_pos_as_xyz
1 x,y,z
2 1/2-x,y,1/2-z
3 -x,-y,-z
4 1/2+x,-y,1/2+z
_cell_length_a                   25.4319(14)
_cell_length_b                   16.2490(8)
_cell_length_c                   28.1488(14)
_cell_angle_alpha                90
_cell_angle_beta                 98.599(3)
_cell_angle_gamma                90
_cell_volume                     11501.5
_exptl_crystal_colour            colorless
_exptl_crystal_description       block
_cell_formula_units_Z            4
_exptl_crystal_recrystallization_method 'di-isopropyl ether'
loop_
_atom_site_label
_atom_site_type_symbol
_atom_site_fract_x
_atom_site_fract_y
_atom_site_fract_z
La1 La 0.373365(18) 0.02947(2) 0.627459(14)
La2 La 0.201374(16) 0.48776(2) 0.456770(12)
O1 O 0.1323(2) 0.5914(3) 0.45240(16)
O2 O 0.4477(2) 0.0485(3) 0.69232(17)
O3 O 0.2469(2) 0.5651(3) 0.40017(15)
O4 O 0.39743(18) -0.1178(2) 0.63506(14)
O5 O 0.2250(2) 0.3486(3) 0.49595(16)
O6 O 0.30548(19) 0.1295(3) 0.58329(16)
N1 N 0.0450(2) 0.6218(4) 0.44033(19)
N2 N 0.1293(2) 0.4994(3) 0.37693(17)
N3 N 0.2163(2) 0.4022(3) 0.37834(18)
N4 N 0.2581(3) 0.3581(3) 0.36623(19)
N5 N 0.3564(2) -0.0254(3) 0.4945(2)
N6 N 0.3874(2) -0.0144(3) 0.53691(18)
N7 N 0.4714(3) -0.0049(3) 0.6101(2)
N8 N 0.5309(3) 0.0876(4) 0.7186(2)
N9 N 0.3186(2) 0.6391(4) 0.39135(19)
N10 N 0.2381(2) 0.6388(3) 0.48199(17)
N11 N 0.1931(2) 0.5441(3) 0.54643(17)
N12 N 0.1717(2) 0.5156(3) 0.58471(17)
N13 N 0.3416(2) 0.1896(3) 0.71833(19)
N14 N 0.3398(2) 0.1120(3) 0.70222(18)
N15 N 0.3427(2) -0.0576(3) 0.69823(17)
N16 N 0.36224(19) -0.2428(3) 0.63436(15)
C1 C 0.3455(3) 0.2244(4) 0.4505(3)
H1 H 0.3753 0.2581 0.4564
C2 C 0.3471(3) 0.1468(4) 0.4717(3)
H2 H 0.3773 0.1294 0.4920
C3 C 0.2584(3) 0.1253(4) 0.4332(2)
H3 H 0.2283 0.0922 0.4275
C4 C 0.2580(4) 0.2018(5) 0.4133(3)
H4 H 0.2276 0.2204 0.3938
C5 C 0.3021(3) 0.2519(4) 0.4217(2)
C6 C 0.3028(3) 0.3381(4) 0.4002(2)
H5 H 0.3057 0.3779 0.4261
H6 H 0.3344 0.3433 0.3849
C7 C 0.2483(4) 0.3366(5) 0.3191(2)
H7 H 0.2704 0.3044 0.3032
C8 C 0.2005(4) 0.3699(5) 0.2986(2)
H8 H 0.1842 0.3670 0.2667
C9 C 0.1821(3) 0.4095(4) 0.3375(2)
C10 C 0.1351(3) 0.4642(4) 0.3355(2)
C11 C 0.1016(3) 0.4784(6) 0.2934(3)
H9 H 0.1075 0.4521 0.2653
C12 C 0.0605(3) 0.5300(6) 0.2927(3)
H10 H 0.0373 0.5388 0.2644
C13 C 0.0526(3) 0.5715(6) 0.3356(2)
H11 H 0.0253 0.6096 0.3356
C14 C 0.0868(3) 0.5532(4) 0.3772(2)
C15 C 0.0872(3) 0.5897(4) 0.4253(2)
C16 C -0.0103(3) 0.6183(5) 0.4166(3)
H12 H -0.0330 0.6023 0.4399
H13 H -0.0136 0.5767 0.3916
C17 C -0.0288(3) 0.7001(5) 0.3948(3)
H14 H -0.0264 0.7412 0.4196
H15 H -0.0651 0.6955 0.3796
H16 H -0.0068 0.7157 0.3714
C18 C 0.0525(3) 0.6596(5) 0.4899(3)
H17 H 0.0872 0.6858 0.4962
H18 H 0.0257 0.7014 0.4915
C19 C 0.0485(3) 0.5957(6) 0.5269(3)
H19 H 0.0131 0.5736 0.5225
H20 H 0.0564 0.6198 0.5583
H21 H 0.0734 0.5524 0.5238
C20 C 0.3020(3) 0.0118(4) 0.4834(3)
H22 H 0.2862 0.0149 0.5127
H23 H 0.2797 -0.0233 0.4610
C21 C 0.3812(3) -0.0670(4) 0.4628(2)
H24 H 0.3669 -0.0820 0.4317
C22 C 0.4317(3) -0.0828(4) 0.4856(2)
H25 H 0.4588 -0.1097 0.4731
C23 C 0.4336(3) -0.0499(3) 0.5315(2)
C24 C 0.4770(3) -0.0488(4) 0.5711(2)
C25 C 0.5236(3) -0.0942(4) 0.5686(3)
H26 H 0.5277 -0.1243 0.5413
C26 C 0.5631(4) -0.0927(5) 0.6083(3)
H27 H 0.5940 -0.1232 0.6079
C27 C 0.5572(4) -0.0464(5) 0.6482(3)
H28 H 0.5837 -0.0451 0.6748
C28 C 0.5104(3) -0.0018(4) 0.6478(3)
C29 C 0.4961(4) 0.0480(4) 0.6882(2)
C30 C 0.5114(4) 0.1320(6) 0.7596(3)
H29 H 0.4823 0.1014 0.7699
H30 H 0.5399 0.1358 0.7865
C31 C 0.4931(5) 0.2149(7) 0.7444(4)
H31 H 0.5232 0.2508 0.7455
H32 H 0.4698 0.2352 0.7656
H33 H 0.4743 0.2127 0.7122
C32 C 0.5856(3) 0.1046(5) 0.7150(3)
H34 H 0.5914 0.1634 0.7187
H35 H 0.5920 0.0897 0.6830
C33 C 0.6267(4) 0.0600(7) 0.7519(4)
H36 H 0.6225 0.0772 0.7837
H37 H 0.6619 0.0733 0.7459
H38 H 0.6213 0.0016 0.7490
C34 C 0.2119(3) 0.3043(4) 0.6300(2)
H39 H 0.1797 0.2766 0.6224
C35 C 0.2543(3) 0.2630(4) 0.6528(2)
H40 H 0.2511 0.2078 0.6606
C36 C 0.3030(3) 0.3029(4) 0.6649(2)
C37 C 0.3062(3) 0.3857(4) 0.6534(2)
H41 H 0.3378 0.4143 0.6621
C38 C 0.2622(3) 0.4256(4) 0.6288(2)
H42 H 0.2652 0.4802 0.6198
C39 C 0.2145(3) 0.3861(4) 0.6176(2)
C40 C 0.1653(3) 0.4281(4) 0.5924(2)
H43 H 0.1548 0.4017 0.5616
H44 H 0.1368 0.4202 0.6113
C41 C 0.1648(3) 0.5785(4) 0.6151(2)
H45 H 0.1515 0.5736 0.6441
C42 C 0.1803(3) 0.6484(4) 0.5965(2)
H46 H 0.1793 0.7010 0.6092
C43 C 0.1986(2) 0.6259(4) 0.5535(2)
C44 C 0.2187(2) 0.6770(4) 0.5178(2)
C45 C 0.2162(3) 0.7623(4) 0.5190(2)
H47 H 0.2025 0.7890 0.5437
C46 C 0.2342(3) 0.8066(4) 0.4833(3)
H48 H 0.2311 0.8636 0.4825
C47 C 0.2571(3) 0.7658(4) 0.4481(3)
H49 H 0.2711 0.7954 0.4246
C48 C 0.2588(3) 0.6817(4) 0.4485(2)
C49 C 0.2761(3) 0.6262(4) 0.4115(2)
C50 C 0.3605(3) 0.7003(5) 0.4078(3)
H50 H 0.3941 0.6722 0.4173
H51 H 0.3515 0.7292 0.4357
C51 C 0.3663(3) 0.7611(5) 0.3690(3)
H52 H 0.3720 0.7323 0.3404
H53 H 0.3961 0.7965 0.3793
H54 H 0.3345 0.7936 0.3623
C52 C 0.3343(4) 0.5712(6) 0.3578(3)
H55 H 0.3715 0.5777 0.3545
H56 H 0.3302 0.5179 0.3723
C53 C 0.3028(4) 0.5726(8) 0.3102(4)
H57 H 0.2661 0.5817 0.3131
H58 H 0.3063 0.5209 0.2945
H59 H 0.3151 0.6161 0.2916
C54 C 0.3525(3) 0.2602(4) 0.6871(2)
H60 H 0.3754 0.2994 0.7062
H61 H 0.3712 0.2401 0.6619
C55 C 0.3312(3) 0.1957(4) 0.7630(2)
H62 H 0.3302 0.2441 0.7804
C56 C 0.3223(3) 0.1186(4) 0.7788(3)
H63 H 0.3136 0.1034 0.8085
C57 C 0.3291(3) 0.0674(4) 0.7403(2)
C58 C 0.3282(3) -0.0222(4) 0.7380(2)
C59 C 0.3156(3) -0.0696(4) 0.7757(2)
H64 H 0.3048 -0.0444 0.8023
C60 C 0.3190(3) -0.1540(4) 0.7736(2)
H65 H 0.3107 -0.1860 0.7988
C61 C 0.3346(3) -0.1905(3) 0.7342(2)
H66 H 0.3380 -0.2474 0.7326
C62 C 0.3455(3) -0.1397(3) 0.6960(2)
C63 C 0.3684(2) -0.1683(3) 0.6532(2)
C64 C 0.3214(3) -0.3025(4) 0.6432(2)
H67 H 0.3019 -0.3201 0.6126
H68 H 0.2965 -0.2759 0.6611
C65 C 0.3448(3) -0.3773(3) 0.6707(2)
H69 H 0.3739 -0.3981 0.6562
H70 H 0.3179 -0.4190 0.6700
H71 H 0.3572 -0.3621 0.7034
C66 C 0.3932(3) -0.2648(4) 0.5957(2)
H72 H 0.4273 -0.2371 0.6014
H73 H 0.3998 -0.3237 0.5966
C67 C 0.3656(3) -0.2422(4) 0.5474(2)
H74 H 0.3314 -0.2686 0.5419
H75 H 0.3864 -0.2598 0.5235
H76 H 0.3609 -0.1836 0.5456
C68 C 0.3040(3) 0.0969(4) 0.4622(2)
Cl1 Cl 0.09523(9) 0.33411(14) 0.45688(8)
Cl2 Cl 0.34717(8) 0.50540(10) 0.52005(6)
Cl3 Cl 0.45560(8) 0.21023(9) 0.58774(7)
O7 O 0.1144(2) 0.4143(3) 0.47195(18)
O8 O 0.0504(3) 0.3416(6) 0.4202(3)
O11 O 0.0695(6) 0.2957(7) 0.4926(4)
O12 O 0.1357(4) 0.2742(8) 0.4450(5)
O13 O 0.2987(2) 0.4727(3) 0.49235(18)
O14 O 0.3322(3) 0.5448(4) 0.5613(2)
O15 O 0.3694(2) 0.5624(4) 0.4920(2)
O16 O 0.3825(2) 0.4395(4) 0.5326(3)
O17 O 0.4198(3) 0.1622(5) 0.6118(3)
O18 O 0.4341(4) 0.2880(5) 0.5726(4)
O19 O 0.5021(4) 0.2135(9) 0.6226(4)
O20 O 0.4662(4) 0.1658(7) 0.5460(3)
Cl5 Cl 0.23935(7) -0.05319(9) 0.60124(6)
O25 O 0.29332(19) -0.0624(3) 0.58980(15)
O26 O 0.2385(2) 0.0171(3) 0.63167(17)
O27 O 0.2052(2) -0.0419(3) 0.55733(18)
O28 O 0.22611(19) -0.1264(3) 0.62515(16)
Cl4 Cl 0.90104(7) 0.56169(10) 0.28219(5)
O29 O 0.9226(2) 0.5220(4) 0.32565(19)
O33 O 0.9416(3) 0.6201(4) 0.2717(3)
O34 O 0.8914(3) 0.5059(5) 0.2440(3)
O35 O 0.8514(3) 0.6055(4) 0.2855(3)
O36 O 0.3167(2) 0.2924(3) 0.55232(17)
O37 O 0.5262(4) 0.4439(7) 0.5995(4)
O38 O 0.5432(4) 0.4008(7) 0.6759(4)
N17 N 0.5144(5) 0.4372(8) 0.6425(5)
C69 C 0.4651(5) 0.4600(8) 0.6494(5)
H77 H 0.4565 0.4339 0.6778
H78 H 0.4399 0.4436 0.6222
H79 H 0.4639 0.5187 0.6531
N18 N 0.7500 0.3906(5) 0.2500
O39 O 0.7752(3) 0.3538(4) 0.28368(19)
C70 C 0.7500 0.4791(6) 0.2500
H81 H 0.7641 0.4988 0.2815
O39A O 0.7248(3) 0.3538(4) 0.21632(19)
H81A H 0.7359 0.4988 0.2185
O40 O 0.1968(3) 0.1584(5) 0.5391(2)
N19 N 0.1525(4) 0.1317(6) 0.5411(4)
O41 O 0.1377(4) 0.1343(6) 0.5816(4)
C71 C 0.1175(5) 0.0979(9) 0.5060(5)
H83 H 0.1353 0.0843 0.4792
H84 H 0.0894 0.1364 0.4959
H85 H 0.1029 0.0489 0.5178
Cl6 Cl 0.2601(2) 0.9597(3) 0.34041(15)
O42 O 0.2528(6) 0.8907(8) 0.3028(5)
O43 O 0.2345(7) 0.9392(9) 0.3821(4)
O44 O 0.3196(3) 0.9744(6) 0.3535(3)
O45 O 0.2390(6) 1.0371(7) 0.3147(4)
O9? O 0.0947(7) 0.2880(7) 0.5037(4)
O10? O 0.1381(5) 0.3085(12) 0.4319(5)
O21? O 0.4051(3) 0.1646(5) 0.5939(3)
O22? O 0.4477(4) 0.2947(5) 0.6034(4)
O23? O 0.5028(4) 0.1779(8) 0.6125(4)
O24? O 0.4558(4) 0.2085(9) 0.5364(3)
O30? O 0.9248(9) 0.5837(13) 0.2419(7)
O31? O 0.8747(9) 0.4797(10) 0.2716(10)
O32? O 0.8686(9) 0.6159(11) 0.3020(9)
H80? H 0.7716 0.4988 0.2272
H82? H 0.7143 0.4988 0.2413
loop_
_geom_bond_atom_site_label_1
_geom_bond_atom_site_label_2
_geom_bond_site_symmetry_1
_geom_bond_site_symmetry_2
La1 O2 1_555 1_555
La2 O1 1_555 1_555
O1 C15 1_555 1_555
O2 C29 1_555 1_555
O3 La2 1_555 1_555
O4 La1 1_555 1_555
O5 La2 1_555 1_555
O6 La1 1_555 1_555
N1 C15 1_555 1_555
N2 La2 1_555 1_555
N3 La2 1_555 1_555
N4 N3 1_555 1_555
N5 N6 1_555 1_555
N6 La1 1_555 1_555
N7 La1 1_555 1_555
N8 C29 1_555 1_555
N9 C49 1_555 1_555
N10 La2 1_555 1_555
N11 La2 1_555 1_555
N12 N11 1_555 1_555
N13 N14 1_555 1_555
N14 La1 1_555 1_555
N15 La1 1_555 1_555
N16 C63 1_555 1_555
C1 H1 1_555 1_555
C2 C1 1_555 1_555
H2 C2 1_555 1_555
C3 H3 1_555 1_555
C4 C3 1_555 1_555
H4 C4 1_555 1_555
C5 C1 1_555 1_555
C6 N4 1_555 1_555
H5 C6 1_555 1_555
H6 C6 1_555 1_555
C7 N4 1_555 1_555
H7 C7 1_555 1_555
C8 C7 1_555 1_555
H8 C8 1_555 1_555
C9 N3 1_555 1_555
C10 N2 1_555 1_555
C11 C10 1_555 1_555
H9 C11 1_555 1_555
C12 C11 1_555 1_555
H10 C12 1_555 1_555
C13 C12 1_555 1_555
H11 C13 1_555 1_555
C14 N2 1_555 1_555
C15 C14 1_555 1_555
C16 N1 1_555 1_555
H12 C16 1_555 1_555
H13 C16 1_555 1_555
C17 C16 1_555 1_555
H14 C17 1_555 1_555
H15 C17 1_555 1_555
H16 C17 1_555 1_555
C18 N1 1_555 1_555
H17 C18 1_555 1_555
H18 C18 1_555 1_555
C19 C18 1_555 1_555
H19 C19 1_555 1_555
H20 C19 1_555 1_555
H21 C19 1_555 1_555
C20 N5 1_555 1_555
H22 C20 1_555 1_555
H23 C20 1_555 1_555
C21 N5 1_555 1_555
H24 C21 1_555 1_555
C22 C21 1_555 1_555
H25 C22 1_555 1_555
C23 N6 1_555 1_555
C24 N7 1_555 1_555
C25 C24 1_555 1_555
H26 C25 1_555 1_555
C26 C25 1_555 1_555
H27 C26 1_555 1_555
C27 C26 1_555 1_555
H28 C27 1_555 1_555
C28 N7 1_555 1_555
C29 C28 1_555 1_555
C30 N8 1_555 1_555
H29 C30 1_555 1_555
H30 C30 1_555 1_555
C31 C30 1_555 1_555
H31 C31 1_555 1_555
H32 C31 1_555 1_555
H33 C31 1_555 1_555
C32 N8 1_555 1_555
H34 C32 1_555 1_555
H35 C32 1_555 1_555
C33 C32 1_555 1_555
H36 C33 1_555 1_555
H37 C33 1_555 1_555
H38 C33 1_555 1_555
C34 H39 1_555 1_555
C35 C34 1_555 1_555
H40 C35 1_555 1_555
C36 C35 1_555 1_555
C37 C36 1_555 1_555
H41 C37 1_555 1_555
C38 C37 1_555 1_555
H42 C38 1_555 1_555
C39 C34 1_555 1_555
C40 N12 1_555 1_555
H43 C40 1_555 1_555
H44 C40 1_555 1_555
C41 N12 1_555 1_555
H45 C41 1_555 1_555
C42 C41 1_555 1_555
H46 C42 1_555 1_555
C43 N11 1_555 1_555
C44 N10 1_555 1_555
C45 C44 1_555 1_555
H47 C45 1_555 1_555
C46 C45 1_555 1_555
H48 C46 1_555 1_555
C47 C46 1_555 1_555
H49 C47 1_555 1_555
C48 N10 1_555 1_555
C49 O3 1_555 1_555
C50 N9 1_555 1_555
H50 C50 1_555 1_555
H51 C50 1_555 1_555
C51 C50 1_555 1_555
H52 C51 1_555 1_555
H53 C51 1_555 1_555
H54 C51 1_555 1_555
C52 N9 1_555 1_555
H55 C52 1_555 1_555
H56 C52 1_555 1_555
C53 C52 1_555 1_555
H57 C53 1_555 1_555
H58 C53 1_555 1_555
H59 C53 1_555 1_555
C54 N13 1_555 1_555
H60 C54 1_555 1_555
H61 C54 1_555 1_555
C55 N13 1_555 1_555
H62 C55 1_555 1_555
C56 C55 1_555 1_555
H63 C56 1_555 1_555
C57 N14 1_555 1_555
C58 N15 1_555 1_555
C59 C58 1_555 1_555
H64 C59 1_555 1_555
C60 C59 1_555 1_555
H65 C60 1_555 1_555
C61 C60 1_555 1_555
H66 C61 1_555 1_555
C62 N15 1_555 1_555
C63 O4 1_555 1_555
C64 N16 1_555 1_555
H67 C64 1_555 1_555
H68 C64 1_555 1_555
C65 C64 1_555 1_555
H69 C65 1_555 1_555
H70 C65 1_555 1_555
H71 C65 1_555 1_555
C66 N16 1_555 1_555
H72 C66 1_555 1_555
H73 C66 1_555 1_555
C67 C66 1_555 1_555
H74 C67 1_555 1_555
H75 C67 1_555 1_555
H76 C67 1_555 1_555
C68 C2 1_555 1_555
Cl1 O7 1_555 1_555
Cl2 O13 1_555 1_555
Cl3 O17 1_555 1_555
Cl4 O29 1_555 1_555
O7 La2 1_555 1_555
O8 Cl1 1_555 1_555
O11 Cl1 1_555 1_555
O12 Cl1 1_555 1_555
O13 La2 1_555 1_555
O14 Cl2 1_555 1_555
O15 Cl2 1_555 1_555
O16 Cl2 1_555 1_555
O17 La1 1_555 1_555
O18 Cl3 1_555 1_555
O19 Cl3 1_555 1_555
O20 Cl3 1_555 1_555
Cl5 O25 1_555 1_555
O25 La1 1_555 1_555
O26 Cl5 1_555 1_555
O27 Cl5 1_555 1_555
O28 Cl5 1_555 1_555
O33 Cl4 1_555 1_555
O34 Cl4 1_555 1_555
O35 Cl4 1_555 1_555
O37 N17 1_555 1_555
O38 N17 1_555 1_555
N17 C69 1_555 1_555
C69 H77 1_555 1_555
H78 C69 1_555 1_555
H79 C69 1_555 1_555
N18 O39 1_555 1_555
C70 N18 1_555 1_555
H81 C70 1_555 1_555
O40 N19 1_555 1_555
N19 O41 1_555 1_555
C71 N19 1_555 1_555
H83 C71 1_555 1_555
H84 C71 1_555 1_555
H85 C71 1_555 1_555
Cl6 O42 1_555 1_555
O43 Cl6 1_555 1_555
O44 Cl6 1_555 1_555
O45 Cl6 1_555 1_555
O39A N18 1_555 1_555
H81A C70 1_555 1_555
C3 C68 1_555 1_555
C4 C5 1_555 1_555
C5 C6 1_555 1_555
C8 C9 1_555 1_555
C9 C10 1_555 1_555
C13 C14 1_555 1_555
C20 C68 1_555 1_555
C22 C23 1_555 1_555
C23 C24 1_555 1_555
C27 C28 1_555 1_555
C36 C54 1_555 1_555
C38 C39 1_555 1_555
C39 C40 1_555 1_555
C42 C43 1_555 1_555
C43 C44 1_555 1_555
C47 C48 1_555 1_555
C48 C49 1_555 1_555
C56 C57 1_555 1_555
C57 C58 1_555 1_555
C61 C62 1_555 1_555
C62 C63 1_555 1_555

#END
