
#######################################################################
#
#                 Cambridge Crystallographic Data Centre
#                                CCDC 
#
#######################################################################
#
# If this CIF has been generated from an entry in the Cambridge 
# Structural Database, then it will include bibliographic, chemical, 
# crystal, experimental, refinement or atomic coordinate data resulting 
# from the CCDC's data processing and validation procedures.
#
#######################################################################

data_WEZKAO
_chemical_formula_moiety         
'C138 H177 N33 Nd4 O19 12+,12(Cl1 O4 1-),4(C2 H3 N1),2.5(H2 O1)'
_chemical_name_systematic        
"tetrakis(\m~2~-6,6'-(1,4-Phenylenebis(methylene-1H-pyrazole-1,3-diyl))-bis(N,N-diethylpyridine-2-carboxamide))-(acetonitrile)-undeca-aqua-tetra-neodymium(iii) dodecaperchlorate acetonitrile solvate hydrate"
_symmetry_cell_setting           triclinic
_symmetry_space_group_name_H-M   'P -1'
_symmetry_Int_Tables_number      2
_space_group_name_Hall           '-P 1'
loop_
_symmetry_equiv_pos_site_id
_symmetry_equiv_pos_as_xyz
1 x,y,z
2 -x,-y,-z
_cell_length_a                   21.7720(2)
_cell_length_b                   22.2268(3)
_cell_length_c                   24.6165(3)
_cell_angle_alpha                69.8650(10)
_cell_angle_beta                 83.7540(10)
_cell_angle_gamma                70.5190(10)
_cell_volume                     10543.9
_exptl_crystal_colour            colorless
_exptl_crystal_description       plate
_cell_formula_units_Z            2
_exptl_crystal_recrystallization_method 'di-isopropyl ether'
_exptl_crystal_preparation       luminescent
loop_
_atom_site_label
_atom_site_type_symbol
_atom_site_fract_x
_atom_site_fract_y
_atom_site_fract_z
Nd1 Nd 0.77834(3) 0.27187(3) 0.76404(2)
Nd2 Nd 0.87056(2) -0.26995(2) 0.874112(17)
Nd3 Nd 1.39165(2) -0.34465(2) 0.747901(19)
Nd4 Nd 1.27097(2) 0.21701(2) 0.60886(2)
O1 O 0.7199(4) 0.3765(3) 0.7840(3)
O2 O 0.9543(3) -0.3741(3) 0.9305(2)
O3 O 0.7885(3) -0.3133(3) 0.9304(3)
O4 O 1.4866(3) -0.3117(3) 0.7547(3)
O5 O 1.4678(3) -0.4561(3) 0.7777(3)
O6 O 1.2098(3) 0.3161(4) 0.6338(3)
O7 O 0.7270(4) 0.2125(4) 0.8470(3)
O8 O 0.8695(5) 0.3182(5) 0.7458(4)
N1 N 0.7547(6) 0.3711(7) 0.6685(5)
C1 C 0.7321(11) 0.4260(12) 0.6384(10)
C2 C 0.6961(16) 0.5006(16) 0.6029(15)
O9 O 0.6642(4) 0.2996(4) 0.7338(4)
O10 O 0.8018(3) -0.1639(3) 0.8905(2)
O11 O 0.7706(3) -0.2213(3) 0.8109(3)
O12 O 0.8627(3) -0.3553(3) 0.8332(3)
O13 O 1.3158(3) -0.3972(4) 0.8128(3)
O14 O 1.3523(4) -0.4113(4) 0.7007(3)
O15 O 1.4566(3) -0.3535(4) 0.6597(3)
O16 O 1.3528(4) 0.1053(4) 0.6539(4)
O17 O 1.3442(4) 0.1765(4) 0.5323(4)
O18 O 1.2485(3) 0.3062(3) 0.5103(3)
N2 N 0.7416(4) 0.4604(4) 0.8039(4)
N3 N 0.8089(4) 0.2840(4) 0.8596(4)
N4 N 0.8789(4) 0.1724(4) 0.8321(4)
N5 N 0.9247(4) 0.1140(4) 0.8316(4)
N6 N 0.8542(4) -0.1345(3) 0.7274(3)
N7 N 0.8920(3) -0.1923(3) 0.7670(3)
N8 N 0.9781(3) -0.3143(3) 0.8212(3)
N9 N 1.0633(3) -0.4217(4) 0.9495(3)
N10 N 0.7098(3) -0.3028(4) 0.9961(3)
N11 N 0.8673(3) -0.2857(3) 0.9847(3)
N12 N 0.9517(3) -0.2266(3) 0.9158(3)
N13 N 0.9945(3) -0.1909(4) 0.8952(3)
N14 N 1.2329(3) -0.2726(4) 0.6657(3)
N15 N 1.2860(3) -0.2626(4) 0.6804(3)
N16 N 1.3931(3) -0.2258(4) 0.6798(3)
N17 N 1.5189(4) -0.2274(4) 0.7613(4)
N18 N 1.5113(5) -0.5578(4) 0.8414(3)
N19 N 1.4405(3) -0.3928(3) 0.8530(3)
N20 N 1.3449(3) -0.2696(3) 0.8178(3)
N21 N 1.2964(3) -0.2127(4) 0.8185(3)
N22 N 1.2359(5) 0.0946(4) 0.5501(3)
N23 N 1.2153(4) 0.1492(3) 0.5684(3)
N24 N 1.1462(3) 0.2711(3) 0.5828(3)
N25 N 1.1197(4) 0.3845(5) 0.6614(4)
N26 N 1.2311(5) 0.1571(4) 0.7145(4)
N27 N 1.1934(6) 0.1160(5) 0.7387(4)
N28 N 0.8557(5) 0.2484(5) 0.6245(4)
N29 N 0.8257(4) 0.2247(4) 0.6763(4)
N30 N 0.7541(4) 0.1652(4) 0.7607(3)
N31 N 0.7132(6) 0.1168(5) 0.9085(4)
C3 C 0.9088(4) 0.0500(4) 0.7719(4)
C4 C 0.9163(5) 0.0346(5) 0.7211(4)
C5 C 0.8861(5) -0.0063(5) 0.7120(4)
C6 C 0.8475(4) -0.0357(4) 0.7556(4)
C7 C 0.8411(5) -0.0220(4) 0.8067(4)
C8 C 0.8711(5) 0.0192(4) 0.8157(4)
C9 C 0.9410(5) 0.0971(5) 0.7781(5)
C10 C 0.9521(5) 0.0770(6) 0.8837(5)
C11 C 0.9241(5) 0.1106(5) 0.9215(5)
C12 C 0.8797(5) 0.1700(5) 0.8880(5)
C13 C 0.8404(5) 0.2302(5) 0.9032(5)
C14 C 0.8370(5) 0.2307(6) 0.9604(5)
C15 C 0.8028(5) 0.2904(6) 0.9702(6)
C16 C 0.7732(6) 0.3476(6) 0.9237(5)
C17 C 0.7782(5) 0.3419(5) 0.8694(5)
C18 C 0.7448(5) 0.3959(6) 0.8159(6)
C19 C 0.7828(6) 0.4852(7) 0.8298(6)
C20 C 0.7423(10) 0.5360(7) 0.8562(7)
C21 C 0.7031(6) 0.5108(6) 0.7521(4)
C22 C 0.6312(7) 0.5315(8) 0.7643(7)
C23 C 0.8103(5) -0.0776(4) 0.7455(4)
C24 C 0.8691(5) -0.1327(5) 0.6731(4)
C25 C 0.9193(5) -0.1933(5) 0.6755(4)
C26 C 0.9310(4) -0.2280(4) 0.7350(4)
C27 C 0.9778(4) -0.2935(4) 0.7626(4)
C28 C 1.0200(5) -0.3327(5) 0.7322(4)
C29 C 1.0611(4) -0.3938(5) 0.7617(4)
C30 C 1.0640(4) -0.4166(5) 0.8220(4)
C31 C 1.0212(4) -0.3741(4) 0.8496(4)
C32 C 1.0129(4) -0.3912(4) 0.9137(4)
C33 C 1.0527(5) -0.4416(6) 1.0130(3)
C34 C 1.0906(6) -0.4151(7) 1.0421(5)
C35 C 1.1327(3) -0.4352(5) 0.9318(4)
C36 C 1.1682(6) -0.5102(5) 0.9495(6)
C37 C 1.0548(4) -0.1969(4) 0.8033(4)
C38 C 1.0548(4) -0.1733(5) 0.7432(4)
C39 C 1.1009(4) -0.2087(5) 0.7130(4)
C40 C 1.1484(4) -0.2691(5) 0.7427(4)
C41 C 1.1489(4) -0.2910(5) 0.8016(4)
C42 C 1.1029(4) -0.2560(4) 0.8321(4)
C43 C 1.0007(4) -0.1564(5) 0.8335(4)
C44 C 1.0273(5) -0.1916(5) 0.9386(4)
C45 C 1.0070(5) -0.2275(5) 0.9887(4)
C46 C 0.9590(4) -0.2478(4) 0.9733(4)
C47 C 0.9172(4) -0.2846(4) 1.0107(3)
C48 C 0.9282(5) -0.3172(5) 1.0702(4)
C49 C 0.8862(5) -0.3491(5) 1.1019(4)
C50 C 0.8319(5) -0.3466(5) 1.0756(4)
C51 C 0.8232(4) -0.3134(4) 1.0170(4)
C52 C 0.7711(4) -0.3098(4) 0.9793(4)
C53 C 0.6810(6) -0.2912(8) 1.0506(5)
C54 C 0.6597(8) -0.3501(10) 1.0906(7)
C55 C 0.6630(4) -0.3007(6) 0.9553(4)
C56 C 0.6702(6) -0.3693(6) 0.9550(6)
C57 C 1.1967(4) -0.3112(5) 0.7097(4)
C58 C 1.2154(5) -0.2346(7) 0.6104(4)
C59 C 1.2574(5) -0.1994(6) 0.5873(4)
C60 C 1.3004(4) -0.2177(5) 0.6309(4)
C61 C 1.3569(4) -0.1967(5) 0.6312(4)
C62 C 1.3725(5) -0.1477(5) 0.5839(5)
C63 C 1.4260(6) -0.1311(5) 0.5857(5)
C64 C 1.4648(5) -0.1607(5) 0.6354(5)
C65 C 1.4456(4) -0.2078(5) 0.6826(4)
C66 C 1.4853(4) -0.2508(5) 0.7362(4)
C67 C 1.5677(5) -0.2765(5) 0.8068(5)
C68 C 1.6336(6) -0.2732(7) 0.7888(6)
C69 C 1.5067(5) -0.1548(6) 0.7508(6)
C70 C 1.4858(7) -0.1358(8) 0.8046(8)
C71 C 1.2573(4) -0.1197(4) 0.7257(4)
C72 C 1.2141(5) -0.0877(5) 0.6789(4)
C73 C 1.2243(5) -0.0361(5) 0.6309(5)
C74 C 1.2779(5) -0.0149(5) 0.6291(4)
C75 C 1.3195(5) -0.0449(4) 0.6767(4)
C76 C 1.3097(4) -0.0968(4) 0.7242(4)
C77 C 1.2446(4) -0.1773(4) 0.7745(4)
C78 C 1.3010(5) -0.1937(5) 0.8643(4)
C79 C 1.3558(5) -0.2418(5) 0.8958(4)
C80 C 1.3808(4) -0.2871(5) 0.8660(4)
C81 C 1.4343(4) -0.3508(5) 0.8830(4)
C82 C 1.4776(4) -0.3685(5) 0.9291(4)
C83 C 1.5258(4) -0.4296(5) 0.9437(4)
C84 C 1.5307(4) -0.4732(5) 0.9127(4)
C85 C 1.4869(4) -0.4527(4) 0.8679(4)
C86 C 1.4883(5) -0.4907(5) 0.8273(4)
C87 C 1.5185(7) -0.5878(7) 0.7942(5)
C88 C 1.4545(11) -0.5984(12) 0.7877(10)
C89 C 1.5271(6) -0.6078(5) 0.9011(4)
C90 C 1.6002(7) -0.6428(7) 0.9111(6)
C91 C 1.2938(6) 0.0371(5) 0.5766(4)
C92 C 1.1947(7) 0.0985(6) 0.5115(5)
C93 C 1.1442(6) 0.1568(5) 0.5032(5)
C94 C 1.1587(5) 0.1879(4) 0.5389(4)
C95 C 1.1218(4) 0.2524(4) 0.5460(4)
C96 C 1.0632(5) 0.2931(5) 0.5152(5)
C97 C 1.0320(5) 0.3528(6) 0.5222(6)
C98 C 1.0571(5) 0.3750(5) 0.5580(5)
C99 C 1.1139(4) 0.3316(5) 0.5897(4)
C100 C 1.1485(5) 0.3452(5) 0.6300(5)
C101 C 1.0480(5) 0.4185(6) 0.6648(6)
C102 C 1.0282(9) 0.4925(7) 0.6326(8)
C103 C 1.1602(8) 0.3917(9) 0.7028(6)
C104 C 1.1565(11) 0.3344(11) 0.7624(9)
C105 C 1.0939(6) 0.1430(6) 0.6847(5)
C106 C 1.0585(7) 0.1324(7) 0.6467(5)
C107 C 0.9976(7) 0.1762(7) 0.6259(5)
C108 C 0.9690(7) 0.2338(7) 0.6426(5)
C109 C 1.0041(7) 0.2439(7) 0.6805(6)
C110 C 1.0639(7) 0.2001(7) 0.7011(6)
C111 C 1.1602(6) 0.0942(6) 0.7049(5)
C112 C 1.1896(10) 0.1031(10) 0.7971(6)
C113 C 1.2243(11) 0.1361(10) 0.8112(7)
C114 C 1.2494(7) 0.1694(7) 0.7586(5)
C115 C 0.9014(7) 0.2836(7) 0.6204(6)
C116 C 0.8427(7) 0.2267(8) 0.5852(5)
C117 C 0.8036(8) 0.1876(8) 0.6080(5)
C118 C 0.7947(6) 0.1878(5) 0.6645(4)
C119 C 0.7550(5) 0.1551(5) 0.7101(5)
C120 C 0.7209(5) 0.1177(5) 0.6995(5)
C121 C 0.6829(6) 0.0912(6) 0.7429(6)
C122 C 0.6807(5) 0.1004(5) 0.7947(5)
C123 C 0.7188(5) 0.1362(5) 0.8033(5)
C124 C 0.7196(5) 0.1556(6) 0.8561(4)
C125 C 0.7041(10) 0.1459(10) 0.9566(7)
C126 C 0.7542(13) 0.1118(14) 0.9954(12)
C127 C 0.7096(8) 0.0471(6) 0.9213(7)
C128 C 0.6406(10) 0.0379(10) 0.9416(9)
O19 O 1.3640(7) 0.2595(7) 0.5839(6)
N32 N 1.4660(15) 0.258(2) 0.6029(14)
C129 C 1.2963(7) 0.2103(8) 0.7444(6)
C130 C 1.3080(9) 0.2383(10) 0.7832(6)
C131 C 1.3519(9) 0.2746(10) 0.7693(7)
C132 C 1.3840(8) 0.2828(9) 0.7166(7)
C133 C 1.3724(7) 0.2548(8) 0.6778(5)
N33 N 1.3285(6) 0.2185(6) 0.6917(5)
C134 C 1.3963(10) 0.2627(11) 0.6203(8)
C135 C 1.4792(19) 0.2781(19) 0.5391(15)
C136 C 1.522(2) 0.208(2) 0.5373(19)
C137 C 1.525(2) 0.212(3) 0.639(2)
C138 C 1.551(3) 0.265(3) 0.650(3)
H1 H 0.6771 0.5021 0.5680
H2 H 0.7271 0.5261 0.5919
H3 H 0.6615 0.5206 0.6264
H4 H 0.9433 0.0530 0.6916
H5 H 0.8912 -0.0147 0.6762
H6 H 0.8151 -0.0416 0.8366
H7 H 0.8664 0.0270 0.8518
H8 H 0.9888 0.0764 0.7767
H9 H 0.9283 0.1394 0.7447
H10 H 0.9855 0.0345 0.8927
H11 H 0.9329 0.0966 0.9617
H12 H 0.8576 0.1912 0.9912
H13 H 0.7994 0.2927 1.0083
H14 H 0.7502 0.3895 0.9295
H15 H 0.8117 0.4467 0.8598
H16 H 0.8105 0.5056 0.7995
H17 H 0.7162 0.5758 0.8261
H18 H 0.7705 0.5492 0.8752
H19 H 0.7132 0.5165 0.8849
H20 H 0.7113 0.4913 0.7204
H21 H 0.7176 0.5513 0.7391
H22 H 0.6158 0.4925 0.7735
H23 H 0.6079 0.5673 0.7302
H24 H 0.6232 0.5483 0.7973
H25 H 0.7878 -0.0957 0.7816
H26 H 0.7767 -0.0485 0.7152
H27 H 0.8496 -0.0972 0.6391
H28 H 0.9404 -0.2075 0.6441
H29 H 1.0200 -0.3166 0.6911
H30 H 1.0884 -0.4217 0.7410
H31 H 1.0936 -0.4589 0.8431
H32 H 1.0663 -0.4915 1.0296
H33 H 1.0057 -0.4239 1.0208
H34 H 1.1373 -0.4339 1.0357
H35 H 1.0819 -0.4285 1.0837
H36 H 1.0773 -0.3657 1.0258
H37 H 1.1540 -0.4139 0.9500
H38 H 1.1352 -0.4149 0.8893
H39 H 1.1688 -0.5297 0.9918
H40 H 1.2130 -0.5179 0.9352
H41 H 1.1459 -0.5316 0.9330
H42 H 1.0227 -0.1326 0.7228
H43 H 1.1006 -0.1922 0.6719
H44 H 1.1816 -0.3313 0.8220
H45 H 1.1041 -0.2724 0.8732
H46 H 1.0085 -0.1135 0.8287
H47 H 0.9588 -0.1449 0.8141
H48 H 1.0595 -0.1703 0.9344
H49 H 1.0219 -0.2370 1.0265
H50 H 0.9646 -0.3171 1.0882
H51 H 0.8941 -0.3731 1.1420
H52 H 0.8013 -0.3673 1.0976
H53 H 0.6430 -0.2496 1.0412
H54 H 0.7136 -0.2843 1.0710
H55 H 0.6370 -0.3651 1.0679
H56 H 0.6302 -0.3357 1.1200
H57 H 0.6980 -0.3875 1.1095
H58 H 0.6180 -0.2797 0.9665
H59 H 0.6704 -0.2724 0.9158
H60 H 0.7090 -0.3847 0.9330
H61 H 0.6316 -0.3682 0.9371
H62 H 0.6748 -0.4006 0.9949
H63 H 1.2280 -0.3500 0.7375
H64 H 1.1728 -0.3294 0.6906
H65 H 1.1792 -0.2329 0.5908
H66 H 1.2570 -0.1688 0.5492
H67 H 1.3453 -0.1261 0.5504
H68 H 1.4375 -0.0989 0.5529
H69 H 1.5028 -0.1495 0.6372
H70 H 1.5565 -0.2662 0.8434
H71 H 1.5667 -0.3228 0.8138
H72 H 1.6475 -0.2903 0.7562
H73 H 1.6641 -0.3009 0.8213
H74 H 1.6333 -0.2262 0.7770
H75 H 1.4724 -0.1278 0.7208
H76 H 1.5470 -0.1434 0.7359
H77 H 1.4472 -0.1492 0.8207
H78 H 1.4752 -0.0869 0.7950
H79 H 1.5212 -0.1592 0.8332
H80 H 1.1770 -0.1014 0.6797
H81 H 1.1945 -0.0153 0.5993
H82 H 1.3553 -0.0295 0.6768
H83 H 1.3391 -0.1169 0.7561
H84 H 1.2032 -0.1596 0.7933
H85 H 1.2390 -0.2102 0.7582
H86 H 1.2727 -0.1554 0.8731
H87 H 1.3724 -0.2430 0.9304
H88 H 1.4733 -0.3380 0.9496
H89 H 1.5553 -0.4422 0.9744
H90 H 1.5635 -0.5162 0.9221
H91 H 1.5540 -0.6316 0.8040
H92 H 1.5294 -0.5571 0.7574
H93 H 1.4421 -0.6256 0.8252
H94 H 1.4597 -0.6219 0.7595
H95 H 1.4204 -0.5544 0.7743
H96 H 1.5053 -0.6423 0.9073
H97 H 1.5096 -0.5842 0.9297
H98 H 1.6192 -0.6590 0.8788
H99 H 1.6078 -0.6812 0.9472
H100 H 1.6206 -0.6108 0.9138
H101 H 1.3253 0.0543 0.5878
H102 H 1.3150 0.0152 0.5475
H103 H 1.1999 0.0659 0.4931
H104 H 1.1073 0.1729 0.4787
H105 H 1.0463 0.2784 0.4899
H106 H 0.9920 0.3802 0.5024
H107 H 1.0364 0.4186 0.5611
H108 H 1.0240 0.3975 0.6488
H109 H 1.0356 0.4113 0.7059
H110 H 1.0497 0.5140 0.6498
H111 H 0.9808 0.5121 0.6348
H112 H 1.0411 0.5000 0.5920
H113 H 1.1424 0.4370 0.7070
H114 H 1.2058 0.3847 0.6893
H115 H 1.1118 0.3448 0.7770
H116 H 1.1861 0.3325 0.7907
H117 H 1.1693 0.2906 0.7562
H118 H 1.0769 0.0937 0.6349
H119 H 0.9750 0.1674 0.6000
H120 H 0.9859 0.2825 0.6924
H121 H 1.0858 0.2088 0.7275
H122 H 1.1558 0.0497 0.7286
H123 H 1.1870 0.0883 0.6708
H124 H 1.1666 0.0756 0.8234
H125 H 1.2303 0.1366 0.8486
H126 H 0.8857 0.3144 0.6435
H127 H 0.9047 0.3112 0.5796
H128 H 0.8582 0.2368 0.5466
H129 H 0.7864 0.1654 0.5896
H130 H 0.7237 0.1106 0.6633
H131 H 0.6580 0.0663 0.7366
H132 H 0.6538 0.0828 0.8248
H133 H 0.7016 0.1940 0.9403
H134 H 0.6626 0.1434 0.9766
H135 H 0.7409 0.0793 1.0288
H136 H 0.7656 0.1439 1.0082
H137 H 0.7921 0.0877 0.9771
H138 H 0.7421 0.0154 0.9518
H139 H 0.7223 0.0341 0.8860
H140 H 0.6292 0.0462 0.9786
H141 H 0.6424 -0.0083 0.9463
H142 H 0.6075 0.0701 0.9124
H143 H 1.2860 0.2326 0.8192
H144 H 1.3599 0.2937 0.7958
H145 H 1.4140 0.3076 0.7071
H146 H 1.5029 0.3116 0.5264
H147 H 1.4388 0.2954 0.5159
H148 H 1.5370 0.2113 0.4976
H149 H 1.4972 0.1763 0.5505
H150 H 1.5602 0.1915 0.5628
H151 H 1.5565 0.1849 0.6171
H152 H 1.5130 0.1810 0.6751
H153 H 1.5910 0.2418 0.6727
H154 H 1.5178 0.2910 0.6711
H155 H 1.5592 0.2965 0.6128
Cl1 Cl 0.87655(12) 0.06126(13) 0.12388(13)
O21 O 0.9150(5) 0.0613(4) 0.0722(4)
O22 O 0.9059(9) 0.0011(7) 0.1697(7)
O23 O 0.8139(7) 0.0590(8) 0.1097(8)
O24 O 0.8663(7) 0.1204(6) 0.1381(7)
Cl2 Cl 0.36830(15) 0.08186(16) 0.16769(15)
O28 O 0.3160(5) 0.0625(6) 0.1572(5)
O32 O 0.4296(9) 0.0477(11) 0.1494(11)
O33 O 0.3641(14) 0.0673(13) 0.2291(6)
O34 O 0.3441(9) 0.1513(7) 0.1361(9)
Cl3 Cl 0.7479(3) 0.0413(2) 0.5641(2)
O35 O 0.7136(11) 0.0287(10) 0.5277(8)
O36 O 0.7400(13) 0.0118(11) 0.6227(8)
O37 O 0.8149(12) 0.0058(13) 0.5564(12)
O38 O 0.7320(10) 0.1112(7) 0.5512(7)
Cl5 Cl 0.68835(11) 0.43267(11) 0.03473(9)
O43 O 0.7215(4) 0.3752(4) 0.0812(3)
O44 O 0.6499(4) 0.4127(4) 0.0043(3)
O45 O 0.7340(3) 0.4584(4) -0.0050(3)
O46 O 0.6469(4) 0.4839(4) 0.0581(3)
Cl7 Cl 0.9366(3) 0.2696(5) 0.4366(3)
O51 O 0.8980(9) 0.3082(11) 0.3857(7)
O52 O 1.0029(7) 0.2479(11) 0.4251(9)
O53 O 0.9274(8) 0.2928(10) 0.4822(6)
O54 O 0.9173(12) 0.2090(11) 0.4623(10)
Cl8 Cl 1.03457(13) -0.48551(14) 0.20772(12)
O55 O 1.0746(5) -0.5254(6) 0.2566(4)
O56 O 1.0449(6) -0.4200(5) 0.1842(4)
O57 O 1.0511(4) -0.5184(4) 0.1646(4)
O58 O 0.9675(4) -0.4744(5) 0.2219(4)
Cl9 Cl 0.1408(2) 0.48974(18) 0.46075(19)
O59 O 0.1502(8) 0.4672(8) 0.4131(6)
O60 O 0.0748(6) 0.5053(8) 0.4761(7)
O61 O 0.1558(8) 0.5505(7) 0.4426(7)
O62 O 0.1799(6) 0.4424(6) 0.5064(5)
Cl10 Cl 0.2394(2) 0.13833(17) 0.97190(14)
O63 O 0.2150(6) 0.1961(5) 0.9233(4)
O64 O 0.1852(6) 0.1318(6) 1.0141(5)
O65 O 0.2891(6) 0.1452(8) 1.0000(5)
O66 O 0.2625(7) 0.0803(4) 0.9538(4)
Cl11 Cl 0.24259(19) 0.48355(19) 0.7728(2)
O67 O 0.1989(7) 0.4507(7) 0.8036(6)
O68 O 0.2100(6) 0.5259(6) 0.7191(6)
O69 O 0.2386(8) 0.5254(8) 0.8096(7)
O70 O 0.3071(9) 0.4609(11) 0.7587(9)
Cl13 Cl 0.62096(19) 0.6920(2) 0.61062(16)
O75 O 0.5849(9) 0.6444(9) 0.6214(8)
O76 O 0.5871(9) 0.7522(8) 0.5626(8)
O77 O 0.6135(10) 0.7139(10) 0.6599(7)
O78 O 0.6844(7) 0.6652(9) 0.5956(9)
Cl14 Cl 0.4711(3) 0.7788(3) 0.1587(4)
O83 O 0.5322(12) 0.7543(19) 0.1245(15)
O84 O 0.4612(16) 0.8513(11) 0.1530(18)
O85 O 0.4138(10) 0.7696(13) 0.1376(12)
O86 O 0.4831(17) 0.7351(18) 0.2231(9)
Cl15 Cl 0.4749(8) 0.7815(9) 0.0013(7)
O91 O 0.5100(15) 0.7233(13) -0.0080(15)
O92 O 0.448(2) 0.767(2) 0.0609(13)
O93 O 0.506(2) 0.834(2) -0.002(2)
O94 O 0.4212(19) 0.817(2) -0.0411(19)
N36 N 0.2051(10) 0.3363(10) 0.2660(8)
C149 C 0.1877(10) 0.3329(11) 0.3131(8)
C150 C 0.1649(12) 0.3323(12) 0.3716(9)
H169 H 0.1408 0.3785 0.3708
H170 H 0.2025 0.3137 0.3978
H171 H 0.1363 0.3041 0.3852
N37 N 0.6458(9) -0.0222(9) 0.2299(8)
C151 C 0.6557(11) 0.0019(11) 0.1806(9)
C152 C 0.6675(13) 0.0383(13) 0.1189(9)
H172 H 0.6896 0.0053 0.0993
H173 H 0.6948 0.0660 0.1174
H174 H 0.6257 0.0673 0.0996
N38 N 1.2689(8) 0.1699(9) 0.3070(8)
C153 C 1.2944(12) 0.1538(12) 0.3520(9)
C154 C 1.3098(13) 0.1495(14) 0.4111(10)
H175 H 1.3248 0.1874 0.4083
H176 H 1.3441 0.1068 0.4288
H177 H 1.2706 0.1515 0.4350
O99 O 1.1388(6) -0.4494(6) 0.2991(5)
O100 O 0.5149(6) -0.0172(6) 0.4629(5)
N39 N 0.9489(8) -0.1826(9) 1.1225(7)
C155 C 0.9228(9) -0.1334(9) 1.0843(8)
C156 C 0.9043(14) -0.0722(12) 1.0317(10)
H178 H 0.8868 -0.0317 1.0433
H179 H 0.8711 -0.0751 1.0096
H180 H 0.9428 -0.0696 1.0075
O101 O 1.5521(12) 0.4692(13) 0.6231(11)
loop_
_geom_bond_atom_site_label_1
_geom_bond_atom_site_label_2
_geom_bond_site_symmetry_1
_geom_bond_site_symmetry_2
Nd1 O1 1_555 1_555
Nd2 O2 1_555 1_555
Nd3 O4 1_555 1_555
Nd4 O6 1_555 1_555
O1 C18 1_555 1_555
O2 C32 1_555 1_555
O3 Nd2 1_555 1_555
O4 C66 1_555 1_555
O5 Nd3 1_555 1_555
O6 C100 1_555 1_555
O7 Nd1 1_555 1_555
O8 Nd1 1_555 1_555
N1 Nd1 1_555 1_555
C1 N1 1_555 1_555
C2 C1 1_555 1_555
O9 Nd1 1_555 1_555
O10 Nd2 1_555 1_555
O11 Nd2 1_555 1_555
O12 Nd2 1_555 1_555
O13 Nd3 1_555 1_555
O14 Nd3 1_555 1_555
O15 Nd3 1_555 1_555
O16 Nd4 1_555 1_555
O17 Nd4 1_555 1_555
O18 Nd4 1_555 1_555
N2 C18 1_555 1_555
N3 Nd1 1_555 1_555
N4 Nd1 1_555 1_555
N5 N4 1_555 1_555
N6 N7 1_555 1_555
N7 Nd2 1_555 1_555
N8 Nd2 1_555 1_555
N9 C32 1_555 1_555
N10 C52 1_555 1_555
N11 Nd2 1_555 1_555
N12 Nd2 1_555 1_555
N13 N12 1_555 1_555
N14 N15 1_555 1_555
N15 Nd3 1_555 1_555
N16 Nd3 1_555 1_555
N17 C66 1_555 1_555
N18 C86 1_555 1_555
N19 Nd3 1_555 1_555
N20 Nd3 1_555 1_555
N21 N20 1_555 1_555
N22 N23 1_555 1_555
N23 Nd4 1_555 1_555
N24 Nd4 1_555 1_555
N25 C100 1_555 1_555
N26 Nd4 1_555 1_555
N27 N26 1_555 1_555
N28 N29 1_555 1_555
N29 Nd1 1_555 1_555
N30 Nd1 1_555 1_555
N31 C124 1_555 1_555
C3 C4 1_555 1_555
C4 C5 1_555 1_555
C5 C6 1_555 1_555
C6 C7 1_555 1_555
C7 C8 1_555 1_555
C8 C3 1_555 1_555
C9 N5 1_555 1_555
C10 N5 1_555 1_555
C11 C10 1_555 1_555
C12 N4 1_555 1_555
C13 N3 1_555 1_555
C14 C13 1_555 1_555
C15 C14 1_555 1_555
C16 C15 1_555 1_555
C17 N3 1_555 1_555
C18 C17 1_555 1_555
C19 N2 1_555 1_555
C20 C19 1_555 1_555
C21 N2 1_555 1_555
C22 C21 1_555 1_555
C23 N6 1_555 1_555
C24 N6 1_555 1_555
C25 C24 1_555 1_555
C26 N7 1_555 1_555
C27 N8 1_555 1_555
C28 C27 1_555 1_555
C29 C28 1_555 1_555
C30 C29 1_555 1_555
C31 N8 1_555 1_555
C32 C31 1_555 1_555
C33 N9 1_555 1_555
C34 C33 1_555 1_555
C35 N9 1_555 1_555
C36 C35 1_555 1_555
C37 C38 1_555 1_555
C38 C39 1_555 1_555
C39 C40 1_555 1_555
C40 C41 1_555 1_555
C41 C42 1_555 1_555
C42 C37 1_555 1_555
C43 N13 1_555 1_555
C44 N13 1_555 1_555
C45 C44 1_555 1_555
C46 N12 1_555 1_555
C47 N11 1_555 1_555
C48 C47 1_555 1_555
C49 C48 1_555 1_555
C50 C49 1_555 1_555
C51 N11 1_555 1_555
C52 O3 1_555 1_555
C53 N10 1_555 1_555
C54 C53 1_555 1_555
C55 N10 1_555 1_555
C56 C55 1_555 1_555
C57 N14 1_555 1_555
C58 N14 1_555 1_555
C59 C58 1_555 1_555
C60 N15 1_555 1_555
C61 N16 1_555 1_555
C62 C61 1_555 1_555
C63 C62 1_555 1_555
C64 C63 1_555 1_555
C65 N16 1_555 1_555
C66 C65 1_555 1_555
C67 N17 1_555 1_555
C68 C67 1_555 1_555
C69 N17 1_555 1_555
C70 C69 1_555 1_555
C71 C72 1_555 1_555
C72 C73 1_555 1_555
C73 C74 1_555 1_555
C74 C75 1_555 1_555
C75 C76 1_555 1_555
C76 C71 1_555 1_555
C77 N21 1_555 1_555
C78 N21 1_555 1_555
C79 C78 1_555 1_555
C80 N20 1_555 1_555
C81 N19 1_555 1_555
C82 C81 1_555 1_555
C83 C82 1_555 1_555
C84 C83 1_555 1_555
C85 N19 1_555 1_555
C86 O5 1_555 1_555
C87 N18 1_555 1_555
C88 C87 1_555 1_555
C89 N18 1_555 1_555
C90 C89 1_555 1_555
C91 N22 1_555 1_555
C92 N22 1_555 1_555
C93 C92 1_555 1_555
C94 N23 1_555 1_555
C95 N24 1_555 1_555
C96 C95 1_555 1_555
C97 C96 1_555 1_555
C98 C97 1_555 1_555
C99 N24 1_555 1_555
C100 C99 1_555 1_555
C101 N25 1_555 1_555
C102 C101 1_555 1_555
C103 N25 1_555 1_555
C104 C103 1_555 1_555
C105 C106 1_555 1_555
C106 C107 1_555 1_555
C107 C108 1_555 1_555
C108 C109 1_555 1_555
C109 C110 1_555 1_555
C110 C105 1_555 1_555
C111 N27 1_555 1_555
C112 N27 1_555 1_555
C113 C112 1_555 1_555
C114 N26 1_555 1_555
C115 N28 1_555 1_555
C116 N28 1_555 1_555
C117 C116 1_555 1_555
C118 N29 1_555 1_555
C119 N30 1_555 1_555
C120 C119 1_555 1_555
C121 C120 1_555 1_555
C122 C121 1_555 1_555
C123 N30 1_555 1_555
C124 O7 1_555 1_555
C125 N31 1_555 1_555
C126 C125 1_555 1_555
C127 N31 1_555 1_555
C128 C127 1_555 1_555
O19 Nd4 1_555 1_555
N32 C134 1_555 1_555
C129 C114 1_555 1_555
C130 C129 1_555 1_555
C131 C130 1_555 1_555
C132 C131 1_555 1_555
C133 C132 1_555 1_555
N33 Nd4 1_555 1_555
C134 O19 1_555 1_555
C135 N32 1_555 1_555
C136 C135 1_555 1_555
C137 N32 1_555 1_555
C138 C137 1_555 1_555
Cl1 O21 1_555 1_555
O22 Cl1 1_555 1_555
O23 Cl1 1_555 1_555
O24 Cl1 1_555 1_555
Cl2 O28 1_555 1_555
O32 Cl2 1_555 1_555
O33 Cl2 1_555 1_555
O34 Cl2 1_555 1_555
Cl3 O35 1_555 1_555
O36 Cl3 1_555 1_555
O37 Cl3 1_555 1_555
O38 Cl3 1_555 1_555
Cl5 O43 1_555 1_555
O44 Cl5 1_555 1_555
O45 Cl5 1_555 1_555
O46 Cl5 1_555 1_555
Cl7 O51 1_555 1_555
O52 Cl7 1_555 1_555
O53 Cl7 1_555 1_555
O54 Cl7 1_555 1_555
Cl8 O55 1_555 1_555
O56 Cl8 1_555 1_555
O57 Cl8 1_555 1_555
O58 Cl8 1_555 1_555
Cl9 O59 1_555 1_555
O60 Cl9 1_555 1_555
O61 Cl9 1_555 1_555
O62 Cl9 1_555 1_555
Cl10 O63 1_555 1_555
O64 Cl10 1_555 1_555
O65 Cl10 1_555 1_555
O66 Cl10 1_555 1_555
Cl11 O67 1_555 1_555
O68 Cl11 1_555 1_555
O69 Cl11 1_555 1_555
O70 Cl11 1_555 1_555
Cl13 O75 1_555 1_555
O76 Cl13 1_555 1_555
O77 Cl13 1_555 1_555
O78 Cl13 1_555 1_555
Cl14 O83 1_555 1_555
O84 Cl14 1_555 1_555
O85 Cl14 1_555 1_555
O86 Cl14 1_555 1_555
Cl15 O91 1_555 1_555
O92 Cl15 1_555 1_555
O93 Cl15 1_555 1_555
O94 Cl15 1_555 1_555
N36 C149 1_555 1_555
C149 C150 1_555 1_555
C150 H169 1_555 1_555
N37 C151 1_555 1_555
C151 C152 1_555 1_555
C152 H172 1_555 1_555
N38 C153 1_555 1_555
C153 C154 1_555 1_555
C154 H175 1_555 1_555
N39 C155 1_555 1_555
C155 C156 1_555 1_555
C156 H178 1_555 1_555
H1 C2 1_555 1_555
H2 C2 1_555 1_555
H3 C2 1_555 1_555
H4 C4 1_555 1_555
H5 C5 1_555 1_555
H6 C7 1_555 1_555
H7 C8 1_555 1_555
H8 C9 1_555 1_555
H9 C9 1_555 1_555
H10 C10 1_555 1_555
H11 C11 1_555 1_555
H12 C14 1_555 1_555
H13 C15 1_555 1_555
H14 C16 1_555 1_555
H15 C19 1_555 1_555
H16 C19 1_555 1_555
H17 C20 1_555 1_555
H18 C20 1_555 1_555
H19 C20 1_555 1_555
H20 C21 1_555 1_555
H21 C21 1_555 1_555
H22 C22 1_555 1_555
H23 C22 1_555 1_555
H24 C22 1_555 1_555
H25 C23 1_555 1_555
H26 C23 1_555 1_555
H27 C24 1_555 1_555
H28 C25 1_555 1_555
H29 C28 1_555 1_555
H30 C29 1_555 1_555
H31 C30 1_555 1_555
H32 C33 1_555 1_555
H33 C33 1_555 1_555
H34 C34 1_555 1_555
H35 C34 1_555 1_555
H36 C34 1_555 1_555
H37 C35 1_555 1_555
H38 C35 1_555 1_555
H39 C36 1_555 1_555
H40 C36 1_555 1_555
H41 C36 1_555 1_555
H42 C38 1_555 1_555
H43 C39 1_555 1_555
H44 C41 1_555 1_555
H45 C42 1_555 1_555
H46 C43 1_555 1_555
H47 C43 1_555 1_555
H48 C44 1_555 1_555
H49 C45 1_555 1_555
H50 C48 1_555 1_555
H51 C49 1_555 1_555
H52 C50 1_555 1_555
H53 C53 1_555 1_555
H54 C53 1_555 1_555
H55 C54 1_555 1_555
H56 C54 1_555 1_555
H57 C54 1_555 1_555
H58 C55 1_555 1_555
H59 C55 1_555 1_555
H60 C56 1_555 1_555
H61 C56 1_555 1_555
H62 C56 1_555 1_555
H63 C57 1_555 1_555
H64 C57 1_555 1_555
H65 C58 1_555 1_555
H66 C59 1_555 1_555
H67 C62 1_555 1_555
H68 C63 1_555 1_555
H69 C64 1_555 1_555
H70 C67 1_555 1_555
H71 C67 1_555 1_555
H72 C68 1_555 1_555
H73 C68 1_555 1_555
H74 C68 1_555 1_555
H75 C69 1_555 1_555
H76 C69 1_555 1_555
H77 C70 1_555 1_555
H78 C70 1_555 1_555
H79 C70 1_555 1_555
H80 C72 1_555 1_555
H81 C73 1_555 1_555
H82 C75 1_555 1_555
H83 C76 1_555 1_555
H84 C77 1_555 1_555
H85 C77 1_555 1_555
H86 C78 1_555 1_555
H87 C79 1_555 1_555
H88 C82 1_555 1_555
H89 C83 1_555 1_555
H90 C84 1_555 1_555
H91 C87 1_555 1_555
H92 C87 1_555 1_555
H93 C88 1_555 1_555
H94 C88 1_555 1_555
H95 C88 1_555 1_555
H96 C89 1_555 1_555
H97 C89 1_555 1_555
H98 C90 1_555 1_555
H99 C90 1_555 1_555
H100 C90 1_555 1_555
H101 C91 1_555 1_555
H102 C91 1_555 1_555
H103 C92 1_555 1_555
H104 C93 1_555 1_555
H105 C96 1_555 1_555
H106 C97 1_555 1_555
H107 C98 1_555 1_555
H108 C101 1_555 1_555
H109 C101 1_555 1_555
H110 C102 1_555 1_555
H111 C102 1_555 1_555
H112 C102 1_555 1_555
H113 C103 1_555 1_555
H114 C103 1_555 1_555
H115 C104 1_555 1_555
H116 C104 1_555 1_555
H117 C104 1_555 1_555
H118 C106 1_555 1_555
H119 C107 1_555 1_555
H120 C109 1_555 1_555
H121 C110 1_555 1_555
H122 C111 1_555 1_555
H123 C111 1_555 1_555
H124 C112 1_555 1_555
H125 C113 1_555 1_555
H126 C115 1_555 1_555
H127 C115 1_555 1_555
H128 C116 1_555 1_555
H129 C117 1_555 1_555
H130 C120 1_555 1_555
H131 C121 1_555 1_555
H132 C122 1_555 1_555
H133 C125 1_555 1_555
H134 C125 1_555 1_555
H135 C126 1_555 1_555
H136 C126 1_555 1_555
H137 C126 1_555 1_555
H138 C127 1_555 1_555
H139 C127 1_555 1_555
H140 C128 1_555 1_555
H141 C128 1_555 1_555
H142 C128 1_555 1_555
H143 C130 1_555 1_555
H144 C131 1_555 1_555
H145 C132 1_555 1_555
H146 C135 1_555 1_555
H147 C135 1_555 1_555
H148 C136 1_555 1_555
H149 C136 1_555 1_555
H150 C136 1_555 1_555
H151 C137 1_555 1_555
H152 C137 1_555 1_555
H153 C138 1_555 1_555
H154 C138 1_555 1_555
H155 C138 1_555 1_555
H170 C150 1_555 1_555
H171 C150 1_555 1_555
H173 C152 1_555 1_555
H174 C152 1_555 1_555
H176 C154 1_555 1_555
H177 C154 1_555 1_555
H179 C156 1_555 1_555
H180 C156 1_555 1_555
C3 C9 1_555 1_555
C6 C23 1_555 1_555
C11 C12 1_555 1_555
C12 C13 1_555 1_555
C16 C17 1_555 1_555
C25 C26 1_555 1_555
C26 C27 1_555 1_555
C30 C31 1_555 1_555
C37 C43 1_555 1_555
C40 C57 1_555 1_555
C45 C46 1_555 1_555
C46 C47 1_555 1_555
C50 C51 1_555 1_555
C51 C52 1_555 1_555
C59 C60 1_555 1_555
C60 C61 1_555 1_555
C64 C65 1_555 1_555
C71 C77 1_555 1_555
C74 C91 1_555 1_555
C79 C80 1_555 1_555
C80 C81 1_555 1_555
C84 C85 1_555 1_555
C85 C86 1_555 1_555
C93 C94 1_555 1_555
C94 C95 1_555 1_555
C98 C99 1_555 1_555
C105 C111 1_555 1_555
C108 C115 1_555 1_555
C113 C114 1_555 1_555
C117 C118 1_555 1_555
C118 C119 1_555 1_555
C122 C123 1_555 1_555
C123 C124 1_555 1_555
C129 N33 1_555 1_555
C133 N33 1_555 1_555
C133 C134 1_555 1_555

#END
