
#######################################################################
#
#                 Cambridge Crystallographic Data Centre
#                                CCDC 
#
#######################################################################
#
# If this CIF has been generated from an entry in the Cambridge 
# Structural Database, then it will include bibliographic, chemical, 
# crystal, experimental, refinement or atomic coordinate data resulting 
# from the CCDC's data processing and validation procedures.
#
#######################################################################

data_WIBXEL
_chemical_formula_moiety         
'C158 H196 N4 O6 P8 Pt4 4+,4(N1 O3 1-),H2 O1,C1 H2 Cl2'
_chemical_name_systematic        
'bis(\m~2~-5-(3,5-bis(Benzyloxy)benzyloxy)phenylene-1,3-diethynylbis(4-pyridyl))-bis(\m~2~-phenanthren-3,6-diyl)-octakis(triethylphosphine)-tetra-platinum(ii) tetranitrate dichloromethane solvate hydrate'
_symmetry_cell_setting           triclinic
_symmetry_space_group_name_H-M   'P -1'
_symmetry_Int_Tables_number      2
_space_group_name_Hall           '-P 1'
loop_
_symmetry_equiv_pos_site_id
_symmetry_equiv_pos_as_xyz
1 x,y,z
2 -x,-y,-z
_cell_length_a                   14.111(3)
_cell_length_b                   14.348(3)
_cell_length_c                   26.476(5)
_cell_angle_alpha                79.705(3)
_cell_angle_beta                 78.901(3)
_cell_angle_gamma                76.468(3)
_cell_volume                     5063.72
_cell_formula_units_Z            1
_exptl_crystal_recrystallization_method pentane/dichloromethane/acetone
loop_
_atom_site_label
_atom_site_type_symbol
_atom_site_fract_x
_atom_site_fract_y
_atom_site_fract_z
Cl1 Cl 0.8096(9) 0.4764(10) 0.1871(9)
Cl2 Cl 0.880(3) 0.5071(16) 0.2559(11)
C80 C 0.740(2) 0.5656(19) 0.2433(13)
O4 O 0.5349(16) 0.8639(15) 0.4050(7)
O5 O 0.4973(16) 0.015(3) 0.4387(9)
O6 O 0.5100(18) 0.856(3) 0.5112(8)
O7 O 0.3339(16) 0.8125(13) 0.3892(9)
O9 O 0.384(3) 0.721(4) 0.3249(14)
O10 O 0.329(6) 0.761(2) 0.529(4)
Cl3 Cl 0.3588(5) 0.3359(5) 0.1481(2)
Cl4 Cl 0.5025(6) 0.1801(6) 0.1222(6)
C79 C 0.4133(15) 0.2690(19) 0.0943(12)
H84 H 0.3653 0.2411 0.0835
H85 H 0.4426 0.3093 0.0648
N2 N 0.663(4) 0.691(6) 0.311(2)
C1 C 0.4707(6) 0.6152(6) 0.1780(3)
Pt1 Pt 0.16362(3) 1.15138(3) 0.334839(15)
Pt2 Pt 0.40494(3) 0.75831(3) 0.150860(15)
P1 P 0.5556(2) 0.8014(2) 0.13846(11)
P2 P 0.2940(2) 1.2283(2) 0.31830(11)
C2 C 0.9328(9) 0.0954(8) 0.0848(4)
C3 C 0.8502(8) 0.1118(8) 0.0591(5)
H1 H 0.8524 0.0784 0.0317
C4 C 0.9314(11) 0.1450(8) 0.1247(5)
H2 H 0.9862 0.1347 0.1412
C5 C 0.8436(16) 0.2128(11) 0.1401(6)
H3 H 0.8407 0.2476 0.1671
C6 C 0.7680(10) 0.1764(9) 0.0747(6)
H4 H 0.7139 0.1869 0.0576
C7 C 0.7620(13) 0.2272(9) 0.1150(6)
H5 H 0.7042 0.2705 0.1254
C8 C 0.5618(8) 0.9227(8) 0.1082(5)
H6 H 0.5420 0.9321 0.0742
H7 H 0.5143 0.9674 0.1288
C9 C 0.6620(8) 0.9490(8) 0.1014(4)
H8 H 0.6881 0.9293 0.1335
H9 H 0.6551 1.0177 0.0919
H10 H 0.7061 0.9166 0.0746
C10 C 0.6045(10) 0.7859(11) 0.1994(5)
H11 H 0.6090 0.7191 0.2156
H12 H 0.6708 0.7984 0.1915
C11 C 0.6506(10) 0.7240(9) 0.0974(6)
H13 H 0.7142 0.7404 0.0954
H14 H 0.6553 0.6567 0.1125
C12 C 0.6222(11) 0.7397(11) 0.0412(6)
H15 H 0.5575 0.7270 0.0436
H16 H 0.6692 0.6962 0.0204
H17 H 0.6227 0.8053 0.0254
C13 C 0.2500(9) 0.5911(8) 0.1818(5)
H18 H 0.2935 0.5547 0.1558
H19 H 0.2766 0.5701 0.2141
C14 C 0.1482(9) 0.5650(9) 0.1898(6)
H20 H 0.1069 0.5931 0.2188
H21 H 0.1555 0.4959 0.1964
H22 H 0.1185 0.5897 0.1590
C15 C 0.1985(16) 0.7514(16) 0.1045(11)
H23 H 0.1346 0.7332 0.1122
H24 H 0.1866 0.8213 0.0957
P3 P 0.2527(2) 0.7197(2) 0.16173(15)
C16 C 0.3405(7) 0.8940(7) 0.1236(4)
C17 C 0.2006(7) 1.1308(7) 0.1721(4)
C18 C 0.2490(7) 1.0583(7) 0.1379(4)
C19 C 0.1455(7) 1.2403(7) 0.0962(4)
H25 H 0.1110 1.2999 0.0823
C20 C 0.1472(7) 1.2196(7) 0.1506(4)
C21 C 0.3407(7) 0.9206(7) 0.0702(4)
H26 H 0.3718 0.8760 0.0476
C22 C 0.1939(8) 1.1739(7) 0.0642(4)
H27 H 0.1928 1.1894 0.0286
C23 C 0.2457(7) 1.0821(7) 0.0837(4)
C24 C 0.2947(7) 1.0135(8) 0.0504(4)
H28 H 0.2964 1.0304 0.0147
C25 C 0.5051(7) 0.5487(7) 0.1448(5)
H29 H 0.5009 0.5677 0.1097
C26 C 0.6818(8) 0.1206(7) 0.3218(4)
H30 H 0.6635 0.1665 0.3445
C27 C 0.7359(7) -0.0168(7) 0.2537(4)
C28 C 0.6961(8) 0.0792(8) 0.2355(4)
H31 H 0.6874 0.0964 0.2008
C29 C 0.7209(8) 0.0252(8) 0.3390(4)
C30 C 0.5198(9) 0.4951(7) 0.2485(4)
H32 H 0.5243 0.4790 0.2837
C31 C 0.7488(7) -0.0454(7) 0.3056(4)
H33 H 0.7752 -0.1094 0.3177
C32 C 0.4792(8) 0.5887(7) 0.2287(4)
H34 H 0.4571 0.6351 0.2511
C33 C 0.6698(7) 0.1477(7) 0.2679(4)
C34 C 0.5456(8) 0.4548(7) 0.1613(4)
H35 H 0.5676 0.4108 0.1375
C35 C 0.5543(8) 0.4240(7) 0.2147(4)
C36 C 0.5964(8) 0.3284(9) 0.2338(4)
C37 C 0.6318(8) 0.2457(7) 0.2498(4)
C38 C 0.7348(8) -0.0031(8) 0.3919(4)
C39 C 0.8363(10) -0.1439(9) 0.4990(4)
H36 H 0.8650 -0.1844 0.4740
C40 C 0.7524(9) -0.0277(9) 0.4342(5)
C41 C 0.7730(9) -0.0552(9) 0.4862(4)
O1 O 0.7623(5) -0.0787(5) 0.2171(3)
C42 C 0.8372(8) -0.1620(7) 0.2247(4)
H37 H 0.8093 -0.2162 0.2438
H38 H 0.8842 -0.1501 0.2440
C43 C 0.9588(7) -0.2056(7) 0.0674(4)
H39 H 0.9824 -0.2124 0.0327
C44 C 0.9156(7) -0.2778(7) 0.1015(4)
C45 C 0.9652(7) -0.1227(7) 0.0878(4)
C46 C 0.8868(7) -0.1824(7) 0.1704(4)
C47 C 0.8808(8) -0.2663(7) 0.1526(4)
H40 H 0.8534 -0.3141 0.1751
C48 C 0.9283(7) -0.1120(7) 0.1385(4)
H41 H 0.9315 -0.0567 0.1513
O2 O 1.0088(5) -0.0589(5) 0.0511(3)
C49 C 1.0254(9) 0.0222(8) 0.0691(5)
H42 H 1.0684 0.0543 0.0420
H43 H 1.0598 -0.0006 0.0988
C50 C 0.9378(8) -0.3758(7) 0.0336(4)
H44 H 0.9219 -0.3162 0.0102
H45 H 0.9040 -0.4221 0.0261
C51 C 1.0491(8) -0.4153(7) 0.0241(4)
C52 C 1.0897(8) -0.4819(7) 0.0622(4)
H46 H 1.0513 -0.4983 0.0939
C53 C 1.1055(9) -0.3902(8) -0.0217(5)
H47 H 1.0777 -0.3431 -0.0467
C54 C 1.2058(10) -0.4349(10) -0.0315(7)
H48 H 1.2439 -0.4203 -0.0635
C55 C 1.2477(9) -0.5027(9) 0.0081(9)
H49 H 1.3144 -0.5318 0.0035
C56 C 1.1875(11) -0.5236(8) 0.0528(7)
H50 H 1.2142 -0.5692 0.0787
O3 O 0.9032(6) -0.3575(5) 0.0863(3)
C57 C 0.0994(8) 1.2692(7) 0.2364(4)
H51 H 0.0636 1.3149 0.2575
C58 C 0.2045(7) 1.1145(7) 0.2264(4)
H52 H 0.2415 1.0567 0.2406
C59 C 0.0980(8) 1.2865(7) 0.1833(4)
H53 H 0.0626 1.3454 0.1692
C60 C 0.1552(7) 1.1818(7) 0.2581(4)
P4 P 0.0269(3) 1.0832(3) 0.34839(13)
N1 N 0.1840(7) 1.1120(7) 0.4130(3)
C61 C 0.2414(8) 1.0244(8) 0.4264(4)
H54 H 0.2672 0.9837 0.4013
C62 C 0.7366(9) 0.0069(8) 0.5233(4)
H55 H 0.6985 0.0680 0.5149
C63 C 0.8555(10) -0.1706(9) 0.5505(5)
H56 H 0.8964 -0.2299 0.5594
C64 C 0.2646(11) 1.3542(10) 0.2859(5)
H57 H 0.3232 1.3816 0.2791
H58 H 0.2446 1.3546 0.2528
C65 C 0.3408(10) 1.2425(10) 0.3763(5)
H59 H 0.2865 1.2773 0.3988
H60 H 0.3617 1.1787 0.3950
C66 C 0.5439(13) 0.8503(14) 0.2374(6)
H61 H 0.5481 0.9163 0.2242
H62 H 0.5684 0.8321 0.2699
H63 H 0.4764 0.8440 0.2425
C67 C 0.244(3) 0.717(2) 0.0666(10)
H64 H 0.2860 0.7586 0.0468
H65 H 0.1990 0.7087 0.0456
H66 H 0.2839 0.6546 0.0772
C68 C 0.1612(13) 0.7815(11) 0.2087(12)
H67 H 0.1545 0.8510 0.1994
H68 H 0.0977 0.7656 0.2096
C69 C 0.2996(7) 0.9631(6) 0.1559(3)
H69 H 0.3050 0.9472 0.1910
C70 C 0.3988(10) 1.1685(10) 0.2771(5)
H70 H 0.3797 1.1658 0.2442
H71 H 0.4502 1.2058 0.2701
C71 C 0.4219(10) 1.2926(11) 0.3668(5)
H72 H 0.4764 1.2592 0.3446
H73 H 0.4419 1.2943 0.3992
H74 H 0.4010 1.3576 0.3503
C72 C 0.1838(14) 1.4152(10) 0.3185(6)
H75 H 0.1277 1.3851 0.3279
H76 H 0.1654 1.4781 0.2991
H77 H 0.2065 1.4215 0.3494
C73 C 0.4388(11) 1.0678(11) 0.3014(7)
C74 C -0.083(2) 1.183(4) 0.354(2)
C75 C -0.038(2) 1.082(3) 0.2601(12)
H78 H -0.0993 1.1187 0.2761
H79 H -0.0515 1.0462 0.2359
H80 H 0.0034 1.1258 0.2420
C76 C -0.008(2) 1.026(3) 0.4144(10)
C77 C 0.195(3) 0.749(3) 0.2613(13)
H81 H 0.1720 0.6911 0.2774
H82 H 0.1678 0.7991 0.2828
H83 H 0.2655 0.7364 0.2568
C78 C -0.084(4) 1.174(4) 0.410(4)
C81 C 0.024(3) 0.999(3) 0.310(2)
H86 H -0.0146 0.9514 0.3286
H87 H 0.0895 0.9657 0.2964
C82 C 0.048(4) 0.938(5) 0.402(2)
C1A C 0.5293(6) 0.3848(6) 0.8220(3)
Pt1A Pt 0.83638(3) -0.15138(3) 0.665161(15)
Pt2A Pt 0.59506(3) 0.24169(3) 0.849140(15)
P1A P 0.4444(2) 0.1986(2) 0.86154(11)
P2A P 0.7060(2) -0.2283(2) 0.68170(11)
C2A C 0.0672(9) 0.9046(8) 0.9152(4)
C3A C 0.1498(8) 0.8882(8) 0.9409(5)
H1A H 0.1476 0.9216 0.9683
C4A C 0.0686(11) 0.8550(8) 0.8753(5)
H2A H 0.0138 0.8653 0.8588
C5A C 0.1564(16) 0.7872(11) 0.8599(6)
H3A H 0.1593 0.7524 0.8329
C6A C 0.2320(10) 0.8236(9) 0.9253(6)
H4A H 0.2861 0.8131 0.9424
C7A C 0.2380(13) 0.7728(9) 0.8850(6)
H5A H 0.2958 0.7295 0.8746
C8A C 0.4382(8) 0.0773(8) 0.8918(5)
H6A H 0.4580 0.0679 0.9258
H7A H 0.4857 0.0326 0.8712
C9A C 0.3380(8) 0.0510(8) 0.8986(4)
H8A H 0.3119 0.0707 0.8665
H9A H 0.3449 -0.0177 0.9081
H10A H 0.2939 0.0834 0.9254
C10A C 0.3955(10) 0.2141(11) 0.8006(5)
H11A H 0.3910 0.2809 0.7844
H12A H 0.3292 0.2016 0.8085
C11A C 0.3494(10) 0.2760(9) 0.9026(6)
H13A H 0.2858 0.2596 0.9046
H14A H 0.3447 0.3433 0.8875
C12A C 0.3778(11) 0.2603(11) 0.9588(6)
H15A H 0.4425 0.2730 0.9564
H16A H 0.3308 0.3038 0.9796
H17A H 0.3773 0.1947 0.9746
C13A C 0.7500(9) 0.4089(8) 0.8182(5)
H18A H 0.7065 0.4453 0.8442
H19A H 0.7234 0.4299 0.7859
C14A C 0.8518(9) 0.4350(9) 0.8102(6)
H20A H 0.8931 0.4069 0.7812
H21A H 0.8445 0.5041 0.8036
H22A H 0.8815 0.4103 0.8410
C15A C 0.8015(16) 0.2486(16) 0.8955(11)
H23A H 0.8654 0.2668 0.8878
H24A H 0.8134 0.1787 0.9043
P3A P 0.7473(2) 0.2803(2) 0.83827(15)
C16A C 0.6595(7) 0.1060(7) 0.8764(4)
C17A C 0.7994(7) -0.1308(7) 0.8279(4)
C18A C 0.7510(7) -0.0583(7) 0.8621(4)
C19A C 0.8545(7) -0.2403(7) 0.9038(4)
H25A H 0.8890 -0.2999 0.9177
C20A C 0.8528(7) -0.2196(7) 0.8494(4)
C21A C 0.6593(7) 0.0794(7) 0.9298(4)
H26A H 0.6282 0.1240 0.9524
C22A C 0.8061(8) -0.1739(7) 0.9358(4)
H27A H 0.8072 -0.1894 0.9714
C23A C 0.7543(7) -0.0821(7) 0.9163(4)
C24A C 0.7053(7) -0.0135(8) 0.9496(4)
H28A H 0.7036 -0.0304 0.9853
C25A C 0.4949(7) 0.4513(7) 0.8552(5)
H29A H 0.4991 0.4323 0.8903
C26A C 0.3182(8) 0.8794(7) 0.6782(4)
H30A H 0.3365 0.8335 0.6555
C27A C 0.2641(7) 1.0168(7) 0.7463(4)
C28A C 0.3039(8) 0.9208(8) 0.7645(4)
H31A H 0.3126 0.9036 0.7992
C29A C 0.2791(8) 0.9748(8) 0.6610(4)
C30A C 0.4802(9) 0.5049(7) 0.7515(4)
H32A H 0.4757 0.5210 0.7163
C31A C 0.2512(7) 1.0454(7) 0.6944(4)
H33A H 0.2248 1.1094 0.6823
C32A C 0.5208(8) 0.4113(7) 0.7713(4)
H34A H 0.5429 0.3649 0.7489
C33A C 0.3302(7) 0.8523(7) 0.7321(4)
C34A C 0.4544(8) 0.5452(7) 0.8387(4)
H35A H 0.4324 0.5892 0.8625
C35A C 0.4457(8) 0.5760(7) 0.7853(4)
C36A C 0.4036(8) 0.6716(9) 0.7662(4)
C37A C 0.3682(8) 0.7543(7) 0.7502(4)
C38A C 0.2652(8) 1.0031(8) 0.6081(4)
C39A C 0.1637(10) 1.1439(9) 0.5010(4)
H36A H 0.1350 1.1844 0.5260
C40A C 0.2476(9) 1.0277(9) 0.5658(5)
C41A C 0.2270(9) 1.0552(9) 0.5138(4)
O1A O 0.2377(5) 1.0787(5) 0.7829(3)
C42A C 0.1628(8) 1.1620(7) 0.7753(4)
H37A H 0.1907 1.2162 0.7562
H38A H 0.1158 1.1501 0.7560
C43A C 0.0412(7) 1.2056(7) 0.9326(4)
H39A H 0.0176 1.2124 0.9673
C44A C 0.0844(7) 1.2778(7) 0.8985(4)
C45A C 0.0348(7) 1.1227(7) 0.9122(4)
C46A C 0.1132(7) 1.1824(7) 0.8296(4)
C47A C 0.1192(8) 1.2663(7) 0.8474(4)
H40A H 0.1466 1.3141 0.8249
C48A C 0.0717(7) 1.1120(7) 0.8615(4)
H41A H 0.0685 1.0567 0.8487
O2A O -0.0088(5) 1.0589(5) 0.9489(3)
C49A C -0.0254(9) 0.9778(8) 0.9309(5)
H42A H -0.0684 0.9457 0.9580
H43A H -0.0598 1.0006 0.9012
C50A C 0.0622(8) 1.3758(7) 0.9664(4)
H44A H 0.0781 1.3162 0.9898
H45A H 0.0960 1.4221 0.9739
C51A C -0.0491(8) 1.4153(7) 0.9759(4)
C52A C -0.0897(8) 1.4819(7) 0.9378(4)
H46A H -0.0513 1.4983 0.9061
C53A C -0.1055(9) 1.3902(8) 1.0217(5)
H47A H -0.0777 1.3431 1.0467
C54A C -0.2058(10) 1.4349(10) 1.0315(7)
H48A H -0.2439 1.4203 1.0635
C55A C -0.2477(9) 1.5027(9) 0.9919(9)
H49A H -0.3144 1.5318 0.9965
C56A C -0.1875(11) 1.5236(8) 0.9472(7)
H50A H -0.2142 1.5692 0.9213
O3A O 0.0968(6) 1.3575(5) 0.9137(3)
C57A C 0.9006(8) -0.2692(7) 0.7636(4)
H51A H 0.9364 -0.3149 0.7425
C58A C 0.7955(7) -0.1145(7) 0.7736(4)
H52A H 0.7585 -0.0567 0.7594
C59A C 0.9020(8) -0.2865(7) 0.8167(4)
H53A H 0.9374 -0.3454 0.8308
C60A C 0.8448(7) -0.1818(7) 0.7419(4)
P4A P 0.9731(3) -0.0832(3) 0.65161(13)
N1A N 0.8160(7) -0.1120(7) 0.5870(3)
C61A C 0.7586(8) -0.0244(8) 0.5736(4)
H54A H 0.7328 0.0163 0.5987
C62A C 0.2634(9) 0.9931(8) 0.4767(4)
H55A H 0.3015 0.9320 0.4851
C63A C 0.1445(10) 1.1706(9) 0.4495(5)
H56A H 0.1036 1.2299 0.4406
C64A C 0.7354(11) -0.3542(10) 0.7141(5)
H57A H 0.6768 -0.3816 0.7209
H58A H 0.7554 -0.3546 0.7472
C65A C 0.6592(10) -0.2425(10) 0.6237(5)
H59A H 0.7135 -0.2773 0.6012
H60A H 0.6383 -0.1787 0.6050
C66A C 0.4561(13) 0.1497(14) 0.7626(6)
H61A H 0.4519 0.0837 0.7758
H62A H 0.4316 0.1679 0.7301
H63A H 0.5236 0.1560 0.7575
C67A C 0.756(3) 0.283(2) 0.9334(10)
H64A H 0.7140 0.2414 0.9532
H65A H 0.8010 0.2913 0.9544
H66A H 0.7161 0.3454 0.9228
C68A C 0.8388(13) 0.2185(11) 0.7913(12)
H67A H 0.8455 0.1490 0.8006
H68A H 0.9023 0.2344 0.7904
C69A C 0.7004(7) 0.0369(6) 0.8441(3)
H69A H 0.6950 0.0528 0.8090
C70A C 0.6012(10) -0.1685(10) 0.7229(5)
H70A H 0.6203 -0.1658 0.7558
H71A H 0.5498 -0.2058 0.7299
C71A C 0.5781(10) -0.2926(11) 0.6332(5)
H72A H 0.5236 -0.2592 0.6554
H73A H 0.5581 -0.2943 0.6008
H74A H 0.5990 -0.3576 0.6497
C72A C 0.8162(14) -0.4152(10) 0.6815(6)
H75A H 0.8723 -0.3851 0.6721
H76A H 0.8346 -0.4781 0.7009
H77A H 0.7935 -0.4215 0.6506
C73A C 0.5612(11) -0.0678(11) 0.6986(7)
C74A C 1.083(2) -0.183(4) 0.646(2)
C75A C 1.038(2) -0.082(3) 0.7399(12)
H78A H 1.0993 -0.1187 0.7239
H79A H 1.0515 -0.0462 0.7641
H80A H 0.9966 -0.1258 0.7580
C76A C 1.008(2) -0.026(3) 0.5856(10)
C77A C 0.805(3) 0.251(3) 0.7387(13)
H81A H 0.8280 0.3089 0.7226
H82A H 0.8322 0.2009 0.7172
H83A H 0.7345 0.2636 0.7432
C78A C 1.084(4) -0.174(4) 0.590(4)
C81A C 0.976(3) 0.001(3) 0.690(2)
H86A H 1.0146 0.0486 0.6714
H87A H 0.9105 0.0343 0.7036
C82A C 0.952(4) 0.062(5) 0.598(2)
loop_
_geom_bond_atom_site_label_1
_geom_bond_atom_site_label_2
_geom_bond_site_symmetry_1
_geom_bond_site_symmetry_2
C1 Pt2 1_555 1_555
Pt1 P2 1_555 1_555
Pt2 P1 1_555 1_555
P1 C8 1_555 1_555
P2 C64 1_555 1_555
C2 C3 1_555 1_555
C3 H1 1_555 1_555
C4 C2 1_555 1_555
H2 C4 1_555 1_555
C5 C4 1_555 1_555
H3 C5 1_555 1_555
C6 C3 1_555 1_555
H4 C6 1_555 1_555
C7 C5 1_555 1_555
H5 C7 1_555 1_555
C8 H6 1_555 1_555
H7 C8 1_555 1_555
C9 C8 1_555 1_555
H8 C9 1_555 1_555
H9 C9 1_555 1_555
H10 C9 1_555 1_555
C10 P1 1_555 1_555
H11 C10 1_555 1_555
H12 C10 1_555 1_555
C11 P1 1_555 1_555
H13 C11 1_555 1_555
H14 C11 1_555 1_555
C12 C11 1_555 1_555
H15 C12 1_555 1_555
H16 C12 1_555 1_555
H17 C12 1_555 1_555
C13 H18 1_555 1_555
H19 C13 1_555 1_555
C14 C13 1_555 1_555
H20 C14 1_555 1_555
H21 C14 1_555 1_555
H22 C14 1_555 1_555
C15 H23 1_555 1_555
H24 C15 1_555 1_555
P3 Pt2 1_555 1_555
C16 Pt2 1_555 1_555
C17 C18 1_555 1_555
C18 C23 1_555 1_555
C19 H25 1_555 1_555
C20 C17 1_555 1_555
C21 C16 1_555 1_555
H26 C21 1_555 1_555
C22 C19 1_555 1_555
H27 C22 1_555 1_555
C23 C22 1_555 1_555
C24 C21 1_555 1_555
H28 C24 1_555 1_555
C25 C1 1_555 1_555
H29 C25 1_555 1_555
C26 H30 1_555 1_555
C27 C28 1_555 1_555
C28 H31 1_555 1_555
C29 C26 1_555 1_555
C30 H32 1_555 1_555
C31 C27 1_555 1_555
H33 C31 1_555 1_555
C32 C1 1_555 1_555
H34 C32 1_555 1_555
C33 C26 1_555 1_555
C34 C25 1_555 1_555
H35 C34 1_555 1_555
C35 C30 1_555 1_555
C36 C35 1_555 1_555
C37 C33 1_555 1_555
C38 C29 1_555 1_555
C39 H36 1_555 1_555
C40 C38 1_555 1_555
C41 C39 1_555 1_555
O1 C27 1_555 1_555
C42 O1 1_555 1_555
H37 C42 1_555 1_555
H38 C42 1_555 1_555
C43 H39 1_555 1_555
C44 C43 1_555 1_555
C45 C43 1_555 1_555
C46 C42 1_555 1_555
C47 C44 1_555 1_555
H40 C47 1_555 1_555
C48 C45 1_555 1_555
H41 C48 1_555 1_555
O2 C45 1_555 1_555
C49 C2 1_555 1_555
H42 C49 1_555 1_555
H43 C49 1_555 1_555
C50 H44 1_555 1_555
H45 C50 1_555 1_555
C51 C50 1_555 1_555
C52 C51 1_555 1_555
H46 C52 1_555 1_555
C53 C51 1_555 1_555
H47 C53 1_555 1_555
C54 C53 1_555 1_555
H48 C54 1_555 1_555
C55 C54 1_555 1_555
H49 C55 1_555 1_555
C56 C52 1_555 1_555
H50 C56 1_555 1_555
O3 C44 1_555 1_555
C57 H51 1_555 1_555
C58 C17 1_555 1_555
H52 C58 1_555 1_555
C59 C20 1_555 1_555
H53 C59 1_555 1_555
C60 Pt1 1_555 1_555
P4 Pt1 1_555 1_555
N1 Pt1 1_555 1_555
C61 N1 1_555 1_555
H54 C61 1_555 1_555
C62 C41 1_555 1_555
H55 C62 1_555 1_555
C63 C39 1_555 1_555
H56 C63 1_555 1_555
C64 H57 1_555 1_555
H58 C64 1_555 1_555
C65 P2 1_555 1_555
H59 C65 1_555 1_555
H60 C65 1_555 1_555
C66 C10 1_555 1_555
H61 C66 1_555 1_555
H62 C66 1_555 1_555
H63 C66 1_555 1_555
C67 C15 1_555 1_555
H64 C67 1_555 1_555
H65 C67 1_555 1_555
H66 C67 1_555 1_555
C68 P3 1_555 1_555
H67 C68 1_555 1_555
H68 C68 1_555 1_555
C69 C16 1_555 1_555
H69 C69 1_555 1_555
C70 P2 1_555 1_555
H70 C70 1_555 1_555
H71 C70 1_555 1_555
C71 C65 1_555 1_555
H72 C71 1_555 1_555
H73 C71 1_555 1_555
H74 C71 1_555 1_555
C72 C64 1_555 1_555
H75 C72 1_555 1_555
H76 C72 1_555 1_555
H77 C72 1_555 1_555
C73 C70 1_555 1_555
C74 P4 1_555 1_555
C75 H78 1_555 1_555
H79 C75 1_555 1_555
H80 C75 1_555 1_555
Cl1 C80 1_555 1_555
C76 P4 1_555 1_555
C77 C68 1_555 1_555
H81 C77 1_555 1_555
H82 C77 1_555 1_555
H83 C77 1_555 1_555
C78 C74 1_555 1_555
Cl2 C80 1_555 1_555
Cl3 C79 1_555 1_555
Cl4 C79 1_555 1_555
C79 H84 1_555 1_555
H85 C79 1_555 1_555
C81 P4 1_555 1_555
H86 C81 1_555 1_555
H87 C81 1_555 1_555
C82 C76 1_555 1_555
C1A Pt2A 1_555 1_555
Pt1A P2A 1_555 1_555
Pt2A P1A 1_555 1_555
P1A C8A 1_555 1_555
P2A C64A 1_555 1_555
C2A C3A 1_555 1_555
C3A H1A 1_555 1_555
C4A C2A 1_555 1_555
H2A C4A 1_555 1_555
C5A C4A 1_555 1_555
H3A C5A 1_555 1_555
C6A C3A 1_555 1_555
H4A C6A 1_555 1_555
C7A C5A 1_555 1_555
H5A C7A 1_555 1_555
C8A H6A 1_555 1_555
H7A C8A 1_555 1_555
C9A C8A 1_555 1_555
H8A C9A 1_555 1_555
H9A C9A 1_555 1_555
H10A C9A 1_555 1_555
C10A P1A 1_555 1_555
H11A C10A 1_555 1_555
H12A C10A 1_555 1_555
C11A P1A 1_555 1_555
H13A C11A 1_555 1_555
H14A C11A 1_555 1_555
C12A C11A 1_555 1_555
H15A C12A 1_555 1_555
H16A C12A 1_555 1_555
H17A C12A 1_555 1_555
C13A H18A 1_555 1_555
H19A C13A 1_555 1_555
C14A C13A 1_555 1_555
H20A C14A 1_555 1_555
H21A C14A 1_555 1_555
H22A C14A 1_555 1_555
C15A H23A 1_555 1_555
H24A C15A 1_555 1_555
P3A Pt2A 1_555 1_555
C16A Pt2A 1_555 1_555
C17A C18A 1_555 1_555
C18A C23A 1_555 1_555
C19A H25A 1_555 1_555
C20A C17A 1_555 1_555
C21A C16A 1_555 1_555
H26A C21A 1_555 1_555
C22A C19A 1_555 1_555
H27A C22A 1_555 1_555
C23A C22A 1_555 1_555
C24A C21A 1_555 1_555
H28A C24A 1_555 1_555
C25A C1A 1_555 1_555
H29A C25A 1_555 1_555
C26A H30A 1_555 1_555
C27A C28A 1_555 1_555
C28A H31A 1_555 1_555
C29A C26A 1_555 1_555
C30A H32A 1_555 1_555
C31A C27A 1_555 1_555
H33A C31A 1_555 1_555
C32A C1A 1_555 1_555
H34A C32A 1_555 1_555
C33A C26A 1_555 1_555
C34A C25A 1_555 1_555
H35A C34A 1_555 1_555
C35A C30A 1_555 1_555
C36A C35A 1_555 1_555
C37A C33A 1_555 1_555
C38A C29A 1_555 1_555
C39A H36A 1_555 1_555
C40A C38A 1_555 1_555
C41A C39A 1_555 1_555
O1A C27A 1_555 1_555
C42A O1A 1_555 1_555
H37A C42A 1_555 1_555
H38A C42A 1_555 1_555
C43A H39A 1_555 1_555
C44A C43A 1_555 1_555
C45A C43A 1_555 1_555
C46A C42A 1_555 1_555
C47A C44A 1_555 1_555
H40A C47A 1_555 1_555
C48A C45A 1_555 1_555
H41A C48A 1_555 1_555
O2A C45A 1_555 1_555
C49A C2A 1_555 1_555
H42A C49A 1_555 1_555
H43A C49A 1_555 1_555
C50A H44A 1_555 1_555
H45A C50A 1_555 1_555
C51A C50A 1_555 1_555
C52A C51A 1_555 1_555
H46A C52A 1_555 1_555
C53A C51A 1_555 1_555
H47A C53A 1_555 1_555
C54A C53A 1_555 1_555
H48A C54A 1_555 1_555
C55A C54A 1_555 1_555
H49A C55A 1_555 1_555
C56A C52A 1_555 1_555
H50A C56A 1_555 1_555
O3A C44A 1_555 1_555
C57A H51A 1_555 1_555
C58A C17A 1_555 1_555
H52A C58A 1_555 1_555
C59A C20A 1_555 1_555
H53A C59A 1_555 1_555
C60A Pt1A 1_555 1_555
P4A Pt1A 1_555 1_555
N1A C63 1_555 1_555
C61A C62 1_555 1_555
H54A C61A 1_555 1_555
C62A C61 1_555 1_555
H55A C62A 1_555 1_555
C63A N1 1_555 1_555
H56A C63A 1_555 1_555
C64A H57A 1_555 1_555
H58A C64A 1_555 1_555
C65A P2A 1_555 1_555
H59A C65A 1_555 1_555
H60A C65A 1_555 1_555
C66A C10A 1_555 1_555
H61A C66A 1_555 1_555
H62A C66A 1_555 1_555
H63A C66A 1_555 1_555
C67A C15A 1_555 1_555
H64A C67A 1_555 1_555
H65A C67A 1_555 1_555
H66A C67A 1_555 1_555
C68A P3A 1_555 1_555
H67A C68A 1_555 1_555
H68A C68A 1_555 1_555
C69A C16A 1_555 1_555
H69A C69A 1_555 1_555
C70A P2A 1_555 1_555
H70A C70A 1_555 1_555
H71A C70A 1_555 1_555
C71A C65A 1_555 1_555
H72A C71A 1_555 1_555
H73A C71A 1_555 1_555
H74A C71A 1_555 1_555
C72A C64A 1_555 1_555
H75A C72A 1_555 1_555
H76A C72A 1_555 1_555
H77A C72A 1_555 1_555
C73A C70A 1_555 1_555
C74A P4A 1_555 1_555
C75A H78A 1_555 1_555
H79A C75A 1_555 1_555
H80A C75A 1_555 1_555
C76A P4A 1_555 1_555
C77A C68A 1_555 1_555
H81A C77A 1_555 1_555
H82A C77A 1_555 1_555
H83A C77A 1_555 1_555
C78A C74A 1_555 1_555
C81A P4A 1_555 1_555
H86A C81A 1_555 1_555
H87A C81A 1_555 1_555
C82A C76A 1_555 1_555
C6 C7 1_555 1_555
C13 P3 1_555 1_555
C15 P3 1_555 1_555
C18 C69 1_555 1_555
C19 C20 1_555 1_555
C23 C24 1_555 1_555
C28 C33 1_555 1_555
C29 C31 1_555 1_555
C30 C32 1_555 1_555
C34 C35 1_555 1_555
C36 C37 1_555 1_555
C40 C41 1_555 1_555
C46 C47 1_555 1_555
C46 C48 1_555 1_555
O2 C49 1_555 1_555
C50 O3 1_555 1_555
C55 C56 1_555 1_555
C57 C59 1_555 1_555
C57 C60 1_555 1_555
C58 C60 1_555 1_555
C75 C81 1_555 1_555
Pt1A N1A 1_555 1_555
C6A C7A 1_555 1_555
C13A P3A 1_555 1_555
C15A P3A 1_555 1_555
C18A C69A 1_555 1_555
C19A C20A 1_555 1_555
C23A C24A 1_555 1_555
C28A C33A 1_555 1_555
C29A C31A 1_555 1_555
C30A C32A 1_555 1_555
C34A C35A 1_555 1_555
C36A C37A 1_555 1_555
C39A C63A 1_555 1_555
C40A C41A 1_555 1_555
C41A C62A 1_555 1_555
C46A C47A 1_555 1_555
C46A C48A 1_555 1_555
O2A C49A 1_555 1_555
C50A O3A 1_555 1_555
C55A C56A 1_555 1_555
C57A C59A 1_555 1_555
C57A C60A 1_555 1_555
C58A C60A 1_555 1_555
N1A C61A 1_555 1_555
C75A C81A 1_555 1_555

#END
