
#######################################################################
#
#                 Cambridge Crystallographic Data Centre
#                                CCDC 
#
#######################################################################
#
# If this CIF has been generated from an entry in the Cambridge 
# Structural Database, then it will include bibliographic, chemical, 
# crystal, experimental, refinement or atomic coordinate data resulting 
# from the CCDC's data processing and validation procedures.
#
#######################################################################

data_WIGDUO
_chemical_formula_moiety         
'C212 H184 N8 O24 Pd2 4+,x(C12 H18 O9),4(N1 O3 1-)'
_chemical_name_systematic        
"tetrakis(\m-3,3'-{[4,5,6-tris(2-methoxyethoxy)-1,3-phenylene]bis(anthracene-10,9-diyl)}dipyridine)-di-palladium(ii) tetranitrate 2-{[2-({2-[(2-hydroxypropanoyl)oxy]propanoyl}oxy)propanoyl]oxy}propanoic acid clathrate"
_symmetry_cell_setting           triclinic
_symmetry_space_group_name_H-M   'P 1'
_symmetry_Int_Tables_number      1
_space_group_name_Hall           'P 1'
loop_
_symmetry_equiv_pos_site_id
_symmetry_equiv_pos_as_xyz
1 x,y,z
_cell_length_a                   21.2986(9)
_cell_length_b                   21.5374(7)
_cell_length_c                   27.4318(12)
_cell_angle_alpha                69.628(4)
_cell_angle_beta                 68.728(4)
_cell_angle_gamma                61.317(4)
_cell_volume                     10051.5
_exptl_crystal_colour            colorless
_exptl_crystal_description       block
_cell_formula_units_Z            2
loop_
_atom_site_label
_atom_site_type_symbol
_atom_site_fract_x
_atom_site_fract_y
_atom_site_fract_z
Pd1 Pd 0.82710(9) 0.53774(8) 0.13345(7)
Pd2 Pd 0.80885(10) -0.08072(9) 0.08354(7)
O1 O 0.6820(9) 0.5533(9) -0.1863(6)
O2 O 0.3171(10) 0.5355(9) 0.2119(7)
O3 O 0.8269(8) -0.0737(8) 0.4576(6)
C1 C 1.1487(13) 0.2611(13) 0.0286(9)
C2 C 0.6785(16) 0.6694(13) 0.0052(10)
H1 H 0.650116 0.696703 -0.020888
C3 C 1.1082(12) 0.3358(12) 0.0386(8)
C4 C 0.7835(15) 0.5259(16) -0.1130(11)
O4 O 0.8664(9) 0.1234(8) 0.4579(6)
C5 C 1.1098(14) 0.3397(13) 0.0827(10)
H2 H 1.084509 0.386527 0.090727
N1 N 0.7369(9) 0.5421(8) 0.1911(6)
N2 N 0.7582(10) -0.0935(10) 0.1609(5)
C6 C 0.7215(11) -0.1393(12) 0.1832(8)
H3 H 0.709906 -0.155283 0.160627
C7 C 0.7018(13) -0.1618(12) 0.2385(8)
H4 H 0.676703 -0.193127 0.253683
C8 C 0.7187(12) -0.1384(12) 0.2715(5)
H5 H 0.705243 -0.153808 0.309252
C9 C 0.7554(11) -0.0926(11) 0.2492(6)
C10 C 0.7751(10) -0.0701(9) 0.1939(7)
H6 H 0.800189 -0.038799 0.178710
O5 O 0.7670(11) 0.3381(11) -0.2494(7)
C11 C 0.6052(15) 0.5497(12) 0.2685(11)
H7 H 0.560280 0.552923 0.294430
C12 C 0.4741(14) 0.2796(12) 0.1279(9)
C13 C 0.8237(13) 0.0271(12) 0.3773(8)
C14 C 0.8999(17) -0.1551(19) 0.2688(13)
H8 H 0.887628 -0.177905 0.251730
N3 N 0.9181(10) 0.5325(12) 0.0725(6)
C15 C 0.5769(15) 0.2989(14) -0.0324(9)
H9 H 0.600495 0.304333 -0.069417
C16 C 0.8707(13) 0.1810(12) 0.3465(10)
C17 C 0.8386(18) -0.0946(17) 0.2935(11)
C18 C 0.9885(16) 0.4477(15) 0.2297(13)
H10 H 1.028328 0.456235 0.229642
O6 O 0.7044(11) 0.4852(9) -0.2629(8)
C19 C 0.8471(14) 0.0275(15) 0.4538(9)
C20 C 0.7788(14) 0.5602(15) -0.0796(10)
C21 C 0.5053(11) 0.2844(10) 0.0783(9)
O7 O 0.8560(10) -0.0086(9) 0.5092(6)
O8 O 0.2372(10) 0.4827(10) 0.1862(8)
C22 C 0.6552(13) 0.5665(11) 0.2764(8)
H11 H 0.644557 0.581517 0.308246
C23 C 0.7115(12) 0.3863(12) 0.3724(9)
H12 H 0.675429 0.432332 0.379360
C24 C 0.5215(14) 0.1511(13) 0.1420(10)
C25 C 0.9392(12) 0.1728(12) 0.3152(8)
C26 C 1.1376(19) -0.0349(16) -0.0056(12)
O9 O 1.2911(11) 0.1955(12) -0.0760(9)
C27 C 0.8342(12) 0.3125(11) 0.3263(9)
C28 C 0.7300(13) 0.5577(12) -0.0290(9)
O10 O 0.3198(9) 0.3552(9) 0.1411(8)
C29 C 1.0304(14) 0.1292(14) -0.1103(10)
H13 H 1.075391 0.104697 -0.099281
C30 C 0.4838(13) 0.5226(13) 0.1680(10)
C31 C 0.7780(13) 0.3801(11) 0.3369(10)
H14 H 0.786749 0.422711 0.318760
C32 C 0.8173(11) 0.2498(10) 0.3558(8)
C33 C 1.0635(16) -0.0743(13) 0.0691(12)
C34 C 0.7624(12) -0.0901(12) 0.4589(9)
H15 H 0.715378 -0.046714 0.462086
H16 H 0.772242 -0.105871 0.426061
C35 C 0.4483(14) 0.2031(16) 0.2184(10)
H17 H 0.425979 0.243766 0.234395
C36 C 0.5328(13) 0.5513(13) 0.1759(9)
C37 C 0.5665(8) 0.4377(7) 0.2429(6)
C38 C 0.5163(7) 0.4184(7) 0.2373(5)
C39 C 0.5099(8) 0.3541(7) 0.2679(6)
H18 H 0.475525 0.340889 0.264087
C40 C 0.5537(9) 0.3091(7) 0.3042(6)
H19 H 0.549272 0.265101 0.325083
C41 C 0.6039(9) 0.3284(8) 0.3098(6)
H20 H 0.633834 0.297602 0.334522
C42 C 0.6103(8) 0.3927(8) 0.2791(6)
H21 H 0.644649 0.405892 0.282965
C43 C 0.8294(11) -0.0090(11) 0.4299(8)
C44 C 0.6879(13) 0.5265(12) 0.1877(8)
H22 H 0.698684 0.511187 0.155867
C45 C 0.6740(13) 0.7002(10) 0.0456(9)
H23 H 0.641507 0.749216 0.046802
C46 C 0.6741(11) 0.4160(13) -0.0251(9)
H24 H 0.678403 0.388331 -0.047504
C47 C 0.9351(13) 0.1130(16) 0.4599(12)
H25 H 0.965906 0.122656 0.423552
H26 H 0.961430 0.063164 0.478751
C48 C 0.5483(11) 0.2228(10) 0.0544(8)
C49 C 0.9400(17) 0.4906(13) 0.1937(11)
H27 H 0.943859 0.534859 0.173108
C50 C 0.2994(16) 0.5203(13) 0.2698(11)
H28 H 0.344735 0.483110 0.281437
H29 H 0.286824 0.564940 0.280695
C51 C 1.1011(16) 0.0139(14) 0.0758(10)
C52 C 1.0356(14) 0.5226(14) -0.0191(10)
H30 H 1.076089 0.519367 -0.049385
N4 N 0.9031(10) -0.1274(10) 0.1034(7)
C53 C 0.8770(13) 0.4148(11) 0.2207(10)
H31 H 0.841978 0.403110 0.216280
O11 O 1.3017(13) -0.0536(11) -0.0205(8)
C54 C 0.5745(11) 0.5062(12) 0.2111(8)
C55 C 0.9497(14) -0.0959(13) 0.0864(8)
H32 H 0.934006 -0.049340 0.063667
C56 C 0.955(2) -0.1049(15) -0.0676(13)
H33 H 0.991397 -0.145043 -0.083231
C57 C 1.1027(19) 0.0527(14) 0.1082(9)
H34 H 1.137325 0.073771 0.096313
C58 C 0.8063(17) -0.0097(14) 0.3451(9)
N5 N 0.8890(8) 0.4762(8) 0.1851(7)
C59 C 0.7463(10) 0.4387(8) -0.1363(6)
C60 C 0.7835(9) 0.3638(8) -0.1289(5)
H35 H 0.800649 0.336268 -0.097271
C61 C 0.7956(9) 0.3292(6) -0.1678(6)
C62 C 0.7704(10) 0.3694(8) -0.2141(5)
C63 C 0.7332(10) 0.4443(8) -0.2215(5)
C64 C 0.7211(9) 0.4789(6) -0.1826(7)
C65 C 1.1016(17) -0.0736(15) 0.0190(12)
C66 C 0.3564(14) 0.4698(12) 0.1920(10)
C67 C 1.1127(8) 0.3052(7) -0.0567(6)
C68 C 1.1170(9) 0.2906(8) -0.1036(7)
H36 H 1.145745 0.243000 -0.110170
C69 C 1.0794(11) 0.3455(11) -0.1409(6)
H37 H 1.082323 0.335439 -0.172975
C70 C 1.0374(10) 0.4151(9) -0.1313(6)
H38 H 1.011619 0.452581 -0.156840
C71 C 1.0330(9) 0.4297(7) -0.0845(7)
H39 H 1.004338 0.477284 -0.077900
C72 C 1.0707(9) 0.3748(9) -0.0471(6)
O12 O 0.8852(16) 0.2445(13) 0.4688(11)
C73 C 0.8236(15) 0.2456(14) -0.1497(10)
C74 C 1.0816(13) 0.1554(13) 0.2441(10)
H40 H 1.130163 0.148226 0.223122
C75 C 0.7129(8) 0.0001(8) 0.3080(6)
C76 C 0.7303(7) 0.0232(9) 0.3409(6)
C77 C 0.6770(10) 0.0799(9) 0.3657(6)
H41 H 0.688889 0.095673 0.388166
C78 C 0.6061(9) 0.1136(8) 0.3576(8)
H42 H 0.569667 0.152376 0.374489
C79 C 0.5887(7) 0.0905(10) 0.3247(8)
H43 H 0.540297 0.113542 0.319106
C80 C 0.6421(10) 0.0338(10) 0.2999(6)
H44 H 0.630149 0.018004 0.277398
C81 C 1.0653(14) 0.0866(14) 0.2737(10)
H45 H 1.099699 0.039309 0.268656
C82 C 0.4309(12) 0.3474(13) 0.1492(8)
C83 C 1.0138(16) -0.0284(13) 0.1543(11)
H46 H 0.990949 -0.061615 0.171508
O13 O 1.3794(13) 0.0381(15) -0.0577(12)
C84 C 0.9449(19) -0.0314(15) -0.0993(13)
H47 H 0.974886 -0.022324 -0.134000
C85 C 0.7046(15) 0.5070(15) -0.0126(11)
C86 C 0.9136(15) 0.1289(13) -0.1140(9)
C87 C 1.0202(13) -0.1213(14) 0.0972(8)
C88 C 0.4706(12) 0.3771(12) 0.1636(8)
H48 H 0.522309 0.353022 0.160227
C89 C 0.8872(15) 0.0245(14) -0.0744(10)
O14 O 0.1667(15) 0.5597(15) 0.2909(9)
C90 C 0.5875(15) 0.2329(13) -0.0010(10)
H49 H 0.621848 0.191460 -0.015642
C91 C 0.5323(12) 0.6234(11) 0.1452(9)
H50 H 0.557388 0.643093 0.153912
C92 C 0.6974(13) 0.3239(13) 0.3984(10)
H51 H 0.650671 0.329276 0.422321
C93 C 0.7692(16) -0.0662(16) 0.2892(10)
C94 C 1.1777(15) 0.2069(16) 0.0677(11)
H52 H 1.197774 0.159103 0.062164
C95 C 1.1786(18) -0.0348(17) -0.0632(14)
H53 H 1.209731 -0.009412 -0.080316
C96 C 1.1396(14) 0.0120(13) 0.0232(10)
C97 C 0.770(2) 0.550(2) -0.3254(15)
H54 H 0.782022 0.568590 -0.364620
H55 H 0.729585 0.591205 -0.308974
C98 C 0.8364(18) 0.2803(17) -0.2722(12)
H56 H 0.872452 0.300251 -0.297667
H57 H 0.859307 0.241290 -0.243786
C99 C 0.9583(12) 0.2306(11) 0.2842(9)
C100 C 0.4458(14) 0.5713(13) 0.1223(10)
H58 H 0.413371 0.560790 0.113282
C101 C 0.9286(11) -0.1936(12) 0.1325(9)
H59 H 0.899885 -0.221222 0.144305
C102 C 0.8934(14) 0.2024(14) -0.1404(11)
C103 C 0.5302(14) 0.3605(13) -0.0095(10)
H60 H 0.521866 0.407223 -0.032031
C104 C 1.0313(13) 0.2264(14) 0.2458(11)
H61 H 1.041587 0.267554 0.225138
C105 C 0.5602(13) 0.1580(12) 0.0831(9)
C106 C 0.4984(11) 0.3555(10) 0.0407(8)
H62 H 0.469616 0.398562 0.054247
C107 C 1.0077(13) 0.2049(13) -0.1396(9)
H63 H 1.037490 0.230423 -0.147802
C108 C 0.253(3) 0.322(3) 0.2305(16)
H64 H 0.204209 0.318834 0.246781
H65 H 0.287908 0.271814 0.227338
N6 N 0.7625(12) 0.5984(13) 0.0822(9)
C109 C 0.6611(13) 0.4956(12) 0.0495(10)
H66 H 0.657004 0.520751 0.073634
C110 C 0.7254(14) 0.5992(13) 0.0063(10)
C111 C 0.5312(16) 0.0800(16) 0.1738(11)
H67 H 0.559343 0.037561 0.159435
C112 C 0.7535(14) 0.4800(13) -0.0998(9)
O15 O 0.7379(12) -0.1322(14) 0.5510(8)
C113 C 0.7057(14) 0.4649(13) -0.0453(9)
C114 C 0.6305(13) 0.4465(12) 0.0645(9)
H68 H 0.604585 0.438532 0.100893
C115 C 0.6332(13) 0.4061(14) 0.0317(10)
H69 H 0.609439 0.373723 0.045925
C116 C 0.7439(17) 0.4895(14) -0.3126(11)
H70 H 0.713818 0.500801 -0.337347
H71 H 0.786927 0.442953 -0.316727
C117 C 1.1518(13) 0.2460(15) -0.0180(9)
C118 C 1.1431(15) 0.2854(15) 0.1201(11)
H72 H 1.140937 0.295900 0.151724
C119 C 1.1707(14) -0.0705(13) -0.0901(10)
H73 H 1.191331 -0.065333 -0.127619
C120 C 0.4749(12) 0.4662(12) 0.1952(9)
C121 C 0.8617(18) 0.613(2) -0.1495(14)
H74 H 0.879874 0.650368 -0.164458
C122 C 0.8742(17) 0.0957(12) -0.1024(11)
C123 C 0.6224(13) 0.5284(12) 0.2226(10)
C124 C 0.4981(12) 0.6603(13) 0.1065(10)
H75 H 0.498813 0.706254 0.087546
C125 C 1.1322(17) -0.1158(16) -0.0640(11)
H76 H 1.130136 -0.145271 -0.081898
C126 C 1.1000(15) -0.1146(15) -0.0142(10)
H77 H 1.071967 -0.143072 0.003356
C127 C 0.9163(18) -0.1171(12) -0.0177(10)
H78 H 0.928038 -0.165849 0.001677
C128 C 0.9859(15) 0.0943(12) -0.0993(8)
H79 H 1.001991 0.044950 -0.080990
C129 C 0.4623(13) 0.6345(12) 0.0933(9)
H80 H 0.445567 0.660326 0.061323
C130 C 0.6688(15) 0.2117(18) -0.1477(10)
H81 H 0.622863 0.237956 -0.157475
O16 O 0.266(2) 0.326(2) 0.2750(15)
C131 C 0.7105(15) 0.2471(16) -0.1556(9)
H82 H 0.691933 0.297566 -0.170682
C132 C 0.7397(16) -0.2051(16) 0.5958(9)
H83 H 0.724593 -0.232764 0.583869
H84 H 0.705679 -0.192161 0.629618
H85 H 0.789712 -0.234636 0.601170
C133 C 0.3564(15) 0.3875(13) 0.1561(10)
C134 C 1.0407(11) -0.1908(11) 0.1300(8)
H86 H 1.086024 -0.213791 0.140438
C135 C 0.4313(13) 0.4387(13) 0.1815(9)
C136 C 0.7597(14) -0.1493(15) 0.5070(11)
H87 H 0.726888 -0.168989 0.505692
H88 H 0.809665 -0.188767 0.504852
C137 C 0.9663(16) 0.3873(14) 0.2675(12)
H89 H 0.988877 0.358605 0.296691
O17 O 0.5567(10) 0.6156(9) -0.0951(7)
C138 C 0.4752(12) 0.2143(12) 0.1634(9)
C139 C 0.6925(14) 0.1329(16) -0.1242(10)
H90 H 0.665175 0.106575 -0.120486
C140 C 0.8535(13) 0.0043(11) -0.0240(8)
H91 H 0.818733 0.043060 -0.006474
C141 C 0.9908(17) 0.5854(16) -0.0048(12)
H92 H 0.998718 0.627608 -0.026039
C142 C 0.4516(17) 0.1381(18) 0.2511(10)
H93 H 0.424748 0.135014 0.287424
C143 C 0.6064(15) 0.5771(14) -0.1808(10)
H94 H 0.598748 0.546410 -0.195882
H95 H 0.587222 0.627482 -0.201441
C144 C 0.2210(17) 0.5530(14) 0.1487(11)
H96 H 0.259655 0.549467 0.114840
H97 H 0.217992 0.589714 0.164385
C145 C 0.7431(12) 0.2615(12) 0.3918(8)
H98 H 0.729958 0.221387 0.409926
C146 C 0.8100(19) 0.262(3) 0.4957(17)
H99 H 0.791533 0.234702 0.486388
H100 H 0.781422 0.313912 0.484801
H101 H 0.805153 0.248964 0.534442
C147 C 1.0734(14) 0.3885(13) -0.0008(10)
C148 C 1.1854(9) 0.0542(8) -0.0036(7)
C149 C 1.2613(9) 0.0223(7) -0.0227(8)
C150 C 1.3018(6) 0.0647(9) -0.0444(8)
C151 C 1.2662(8) 0.1389(9) -0.0470(7)
C152 C 1.1903(9) 0.1708(6) -0.0280(7)
C153 C 1.1498(6) 0.1285(8) -0.0063(7)
H102 H 1.097930 0.150240 0.006769
C154 C 0.3162(12) 0.4529(14) 0.1767(10)
C155 C 1.0029(19) 0.0203(16) 0.1812(11)
H103 H 0.965767 0.028853 0.213241
N7 N 0.7153(8) -0.0185(8) 0.0604(7)
C156 C 0.6680(10) 0.0428(8) 0.0817(7)
H104 H 0.681049 0.053721 0.106409
C157 C 0.6016(9) 0.0880(8) 0.0669(8)
C158 C 0.5825(10) 0.0720(11) 0.0308(10)
H105 H 0.537105 0.102870 0.020718
C159 C 0.6298(13) 0.0107(12) 0.0095(10)
H106 H 0.616739 -0.000242 -0.015217
C160 C 0.6962(11) -0.0345(9) 0.0242(9)
H107 H 0.728529 -0.076373 0.009660
C161 C 0.8539(15) -0.0645(17) 0.3216(10)
C162 C 0.9350(16) -0.0965(17) 0.3244(14)
H108 H 0.947996 -0.081657 0.346837
C163 C 0.5604(14) 0.5741(17) -0.1182(12)
H109 H 0.509495 0.583408 -0.116522
H110 H 0.582730 0.524113 -0.097836
C164 C 0.7800(13) 0.2147(13) -0.1432(8)
C165 C 0.8553(14) 0.1163(12) 0.3779(8)
C166 C 0.8309(14) 0.5290(16) -0.1699(10)
H111 H 0.832254 0.507861 -0.195626
C167 C 0.8723(14) 0.5681(19) -0.1784(12)
H112 H 0.913181 0.561988 -0.208561
C168 C 0.9115(12) 0.3724(10) 0.2600(9)
C169 C 0.2468(15) 0.3570(19) 0.1701(13)
H113 H 0.233936 0.328512 0.156674
H114 H 0.208985 0.407420 0.166612
C170 C 0.8553(16) 0.0877(15) 0.4309(10)
O18 O 0.7902(14) 0.2992(12) -0.3486(9)
C171 C 0.7562(17) 0.1017(14) -0.1084(10)
H115 H 0.770757 0.052279 -0.090320
C172 C 0.9754(17) -0.1821(19) 0.2685(17)
H116 H 1.013991 -0.220494 0.252026
C173 C 0.7992(16) -0.0203(17) 0.5519(12)
H117 H 0.806762 -0.018726 0.584937
H118 H 0.804352 -0.069879 0.555991
C174 C 0.4934(19) 0.0786(18) 0.2309(14)
H119 H 0.499165 0.032912 0.254559
C175 C 0.7135(15) 0.6623(14) 0.0803(9)
H120 H 0.704670 0.685080 0.107575
C176 C 0.9282(16) 0.5920(18) 0.0438(10)
H121 H 0.896723 0.637408 0.053716
C177 C 0.7190(16) 0.0326(13) 0.5484(19)
H122 H 0.707826 0.033052 0.516256
H123 H 0.682785 0.020912 0.580803
C178 C 0.1469(18) 0.5730(19) 0.1389(14)
H124 H 0.114854 0.555186 0.171448
H125 H 0.121084 0.626038 0.127257
C179 C 1.0592(17) -0.0305(13) 0.1004(10)
C180 C 0.9628(13) 0.4690(13) 0.0543(10)
H126 H 0.952112 0.427517 0.072683
C181 C 0.5155(17) 0.6143(17) -0.0469(11)
H127 H 0.468336 0.616452 -0.046581
H128 H 0.506703 0.655971 -0.034529
H129 H 0.540241 0.569412 -0.023051
O19 O 0.8309(12) 0.524(2) -0.3056(8)
C182 C 0.8257(16) 0.6035(16) -0.1005(11)
H130 H 0.828592 0.624069 -0.076254
C183 C 0.108(2) 0.539(3) 0.3116(18)
H131 H 0.121457 0.495015 0.300113
H132 H 0.065022 0.577992 0.298371
H133 H 0.095637 0.529620 0.350757
C184 C 0.7671(12) 0.5633(11) 0.0480(11)
H134 H 0.798650 0.513231 0.050952
C185 C 0.9948(15) -0.2245(11) 0.1465(9)
H135 H 1.008741 -0.271595 0.168833
C186 C 0.8091(18) 0.2551(15) -0.2991(10)
H136 H 0.846803 0.206976 -0.305791
H137 H 0.764767 0.247975 -0.274154
C187 C 0.8326(14) 0.0871(14) 0.3540(11)
H138 H 0.823189 0.111238 0.319467
C188 C 0.7212(11) 0.5620(11) 0.2382(8)
H139 H 0.755407 0.572626 0.244796
C189 C 0.9426(16) 0.2378(14) -0.1547(8)
H140 H 0.929119 0.285902 -0.175461
C190 C 0.915(2) 0.1697(13) 0.4919(13)
H141 H 0.878773 0.161078 0.525652
H142 H 0.959740 0.158907 0.501811
C191 C 1.1811(15) 0.2129(15) 0.1132(12)
H143 H 1.206183 0.173242 0.138169
C192 C 0.6539(13) 0.1674(12) 0.5364(10)
H144 H 0.664419 0.210111 0.527888
H145 H 0.614425 0.168289 0.569082
H146 H 0.638506 0.167705 0.506729
O20 O 0.1690(14) 0.5351(12) 0.0955(9)
O21 O 0.7210(11) 0.1011(9) 0.5449(8)
C193 C 1.406(3) -0.184(2) -0.0535(12)
H147 H 1.450611 -0.204738 -0.080474
H148 H 1.372593 -0.206710 -0.045768
H149 H 1.381748 -0.131553 -0.067204
C194 C 1.296(4) 0.085(4) -0.208(2)
H150 H 1.243560 0.112193 -0.205948
H151 H 1.323794 0.110604 -0.237446
H152 H 1.312465 0.036527 -0.212705
C195 C 0.8963(13) 0.3061(11) 0.2902(10)
C196 C 1.0223(14) 0.4628(12) 0.0105(10)
C197 C 0.321(2) 0.2967(17) 0.3074(13)
H153 H 0.299672 0.321606 0.337053
H154 H 0.333096 0.244742 0.321705
H155 H 0.365300 0.304036 0.284915
C198 C 1.388(2) 0.231(2) -0.1002(18)
H156 H 1.410753 0.206423 -0.130964
H157 H 1.353338 0.280740 -0.112102
C199 C 0.246(2) 0.4982(18) 0.2967(13)
H158 H 0.247093 0.481471 0.335074
H159 H 0.255079 0.456314 0.283921
O22 O 1.310(2) 0.080(3) -0.1578(18)
C200 C 0.9980(11) 0.1006(12) 0.3070(8)
H160 H 0.986867 0.059901 0.327574
O23 O 1.423(2) -0.1934(19) -0.0143(16)
C201 C 0.856(3) 0.578(3) -0.317(2)
H161 H 0.899717 0.558405 -0.302883
H162 H 0.869698 0.595161 -0.356199
H163 H 0.817440 0.618912 -0.301030
C202 C 1.0521(17) 0.0586(14) 0.1575(10)
H164 H 1.049129 0.089088 0.176958
N8 N 0.8610(13) -0.0642(10) 0.0069(7)
C203 C 0.8038(14) 0.1347(14) -0.1160(8)
C204 C 0.985(2) -0.144(2) 0.2962(13)
H165 H 1.034808 -0.153917 0.293749
C205 C 1.3438(17) 0.1895(18) -0.0537(12)
H166 H 1.376262 0.138101 -0.042591
H167 H 1.320034 0.212431 -0.022397
C206 C 1.456(3) 0.294(3) -0.123(3)
H168 H 1.494246 0.300143 -0.115979
H169 H 1.472488 0.285559 -0.159749
H170 H 1.410457 0.338132 -0.120617
C207 C 1.325(3) -0.0879(16) 0.0196(18)
H171 H 1.281117 -0.078431 0.050105
H172 H 1.353883 -0.064490 0.021634
C208 C 0.100(2) 0.534(3) 0.098(2)
H173 H 0.110166 0.490533 0.087771
H174 H 0.073552 0.577211 0.074121
H175 H 0.069612 0.533934 0.135092
O24 O 1.443(2) 0.232(2) -0.085(2)
C209 C 0.853(2) 0.292(2) -0.3917(11)
H176 H 0.837256 0.322802 -0.424803
H177 H 0.885650 0.305962 -0.385096
H178 H 0.878559 0.241116 -0.395391
C210 C 1.387(2) 0.040(4) -0.1594(18)
H179 H 1.412569 0.073190 -0.180490
H180 H 1.407455 0.000638 -0.178379
C211 C 1.372(2) -0.1698(16) 0.0322(15)
H181 H 1.398227 -0.181113 0.059281
H182 H 1.338846 -0.195989 0.047435
C212 C 1.405(3) 0.008(3) -0.1047(17)
H183 H 1.394586 -0.035778 -0.091261
H184 H 1.459584 -0.010095 -0.112825
Pd3 Pd 0.27649(9) 0.46502(8) 0.54146(7)
Pd4 Pd 0.29232(10) 1.08156(8) 0.59361(6)
N9 N 0.2404(8) 1.0648(8) 0.6699(5)
C213 C 0.1854(9) 1.1230(6) 0.6924(5)
H185 H 0.176470 1.171161 0.672340
C214 C 0.1433(8) 1.1109(7) 0.7442(5)
H186 H 0.105732 1.150736 0.759558
C215 C 0.1563(8) 1.0405(8) 0.7735(4)
H187 H 0.127608 1.032211 0.808893
C216 C 0.2113(9) 0.9822(6) 0.7510(6)
C217 C 0.2534(8) 0.9944(6) 0.6992(6)
H188 H 0.290961 0.954533 0.683793
O25 O 0.7796(10) 0.6463(10) 0.5354(6)
C218 C -0.0491(14) 0.8718(16) 0.6823(9)
H189 H 0.002930 0.850853 0.669592
O26 O 0.2771(11) 0.4648(10) 0.9792(9)
C219 C 0.1120(15) 0.8964(13) 0.3688(11)
H190 H 0.120756 0.938788 0.349750
C220 C 0.3039(8) 0.8642(8) 0.7939(6)
C221 C 0.3283(9) 0.7898(8) 0.8137(6)
C222 C 0.3963(10) 0.7507(6) 0.8267(6)
H191 H 0.413005 0.699824 0.840201
C223 C 0.4400(7) 0.7860(9) 0.8199(6)
H192 H 0.486522 0.759212 0.828832
C224 C 0.4156(9) 0.8604(9) 0.8002(6)
H193 H 0.445478 0.884465 0.795547
C225 C 0.3476(10) 0.8995(6) 0.7871(6)
H194 H 0.330914 0.950330 0.773631
C226 C 0.1959(11) 0.6999(12) 0.3841(8)
O27 O 0.2707(9) 1.0848(9) 0.2162(6)
O28 O 0.5374(12) 0.3827(13) 0.7784(8)
O29 O 0.2386(9) 1.0177(9) 0.1694(6)
C227 C 0.2655(11) 0.9204(11) 0.3226(8)
H195 H 0.268730 0.899204 0.358807
O30 O 0.8610(8) 0.5220(9) 0.4899(8)
O31 O 0.4048(8) 0.5154(9) 0.9384(5)
N10 N 0.3358(7) 0.4089(7) 0.5961(5)
C228 C 0.3314(8) 0.4445(6) 0.6316(6)
H196 H 0.296655 0.493114 0.632024
C229 C 0.3780(10) 0.4090(9) 0.6664(5)
C230 C 0.4288(8) 0.3379(9) 0.6658(6)
H197 H 0.460636 0.313645 0.689604
C231 C 0.4332(9) 0.3023(7) 0.6303(8)
H198 H 0.467936 0.253679 0.629847
C232 C 0.3866(9) 0.3378(7) 0.5954(7)
H199 H 0.389595 0.313430 0.571179
N11 N 0.2154(12) 0.5304(11) 0.4851(8)
O32 O 0.3618(10) 1.1422(11) 0.1220(7)
C233 C 0.1204(18) 1.1547(17) 0.3722(12)
H200 H 0.071675 1.179526 0.367093
O33 O -0.1948(10) 1.0482(12) 0.6925(8)
N12 N 0.1961(8) 1.1340(7) 0.5725(6)
C234 C 0.1724(9) 1.2023(7) 0.5395(6)
H201 H 0.202347 1.228923 0.525733
C235 C 0.1049(10) 1.2317(6) 0.5265(6)
H202 H 0.088755 1.278420 0.503965
C236 C 0.0612(8) 1.1928(9) 0.5467(7)
H203 H 0.015038 1.212896 0.537824
C237 C 0.0848(9) 1.1245(9) 0.5797(7)
C238 C 0.1523(10) 1.0951(6) 0.5926(6)
H204 H 0.168505 1.048376 0.615219
C239 C 0.2503(13) 0.8865(12) 0.2960(9)
O34 O 0.9266(11) 0.4442(13) 0.3863(10)
C240 C 0.6289(14) 0.5426(13) 0.4741(10)
C241 C 0.1827(14) 0.6384(13) 0.4168(9)
O35 O 0.7866(9) 0.4700(10) 0.4629(8)
C242 C 0.2389(15) 1.0704(13) 0.3545(9)
C243 C 0.3693(12) 0.9808(11) 0.3346(8)
C244 C 0.6187(13) 0.7926(14) 0.5119(9)
O36 O 0.3303(10) 0.6596(8) 0.9278(6)
C245 C 0.2410(14) 0.9193(13) 0.2466(9)
C246 C 0.0383(8) 0.6132(7) 0.6751(7)
C247 C 0.0004(9) 0.6696(10) 0.6385(5)
C248 C -0.0408(8) 0.7386(8) 0.6493(6)
C249 C -0.0442(9) 0.7512(7) 0.6968(6)
C250 C -0.0063(10) 0.6948(10) 0.7334(5)
C251 C 0.0349(9) 0.6258(8) 0.7225(6)
C252 C 0.6033(16) 0.3495(13) 0.5687(10)
H205 H 0.598168 0.305665 0.589158
C253 C 0.6718(12) 0.5660(13) 0.4858(8)
N13 N 0.1910(7) 0.4702(8) 0.5996(6)
C254 C 0.1449(9) 0.5355(7) 0.6159(6)
H206 H 0.155411 0.577148 0.597939
C255 C 0.0836(9) 0.5397(8) 0.6584(7)
C256 C 0.0682(9) 0.4787(11) 0.6847(6)
H207 H 0.026289 0.481654 0.713747
C257 C 0.1143(11) 0.4135(8) 0.6684(7)
H208 H 0.103834 0.371844 0.686306
C258 C 0.1757(9) 0.4093(7) 0.6258(7)
H209 H 0.207169 0.364686 0.614682
C259 C 0.5407(17) 0.4385(15) 0.8005(9)
H210 H 0.592086 0.429168 0.797538
H211 H 0.515345 0.488972 0.782027
C260 C 0.6564(15) 0.3697(16) 0.5794(11)
H212 H 0.685518 0.341157 0.604920
C261 C -0.0737(15) 0.777(2) 0.5627(11)
H213 H -0.094460 0.814628 0.534974
C262 C -0.0819(16) 0.8276(13) 0.7024(11)
C263 C 0.3896(14) 1.0085(13) 0.3678(9)
N14 N 0.3680(6) 0.4613(8) 0.4833(5)
C264 C 0.4175(7) 0.4819(7) 0.4884(5)
H214 H 0.407489 0.499190 0.519093
C265 C 0.4818(7) 0.4772(7) 0.4487(5)
C266 C 0.4965(6) 0.4520(8) 0.4039(5)
H215 H 0.540447 0.448784 0.376722
C267 C 0.4470(9) 0.4314(9) 0.3987(5)
H216 H 0.457038 0.414113 0.368022
C268 C 0.3827(8) 0.4361(9) 0.4384(7)
H217 H 0.348854 0.421980 0.434858
C269 C 0.8631(18) 0.505(2) 0.3752(14)
H218 H 0.864853 0.519634 0.336479
H219 H 0.855023 0.546024 0.388197
C270 C 0.6112(14) 0.9270(15) 0.4476(11)
H220 H 0.608614 0.972983 0.425702
C271 C 0.3609(11) 0.5280(14) 0.7739(10)
C272 C 0.1502(13) 0.7635(12) 0.3907(9)
C273 C 0.4624(14) 0.9718(13) 0.3753(9)
H221 H 0.475653 0.984788 0.398732
N15 N 0.3414(7) 1.0944(8) 0.5159(4)
C274 C 0.3854(10) 1.1331(10) 0.4955(6)
H222 H 0.395987 1.148352 0.519069
C275 C 0.4140(12) 1.1494(13) 0.4406(7)
H223 H 0.444115 1.175793 0.426692
C276 C 0.3985(13) 1.1270(13) 0.4061(4)
H224 H 0.418084 1.138127 0.368620
C277 C 0.3545(11) 1.0883(11) 0.4265(5)
C278 C 0.3259(8) 1.0720(9) 0.4814(5)
H225 H 0.295795 1.045578 0.495301
O37 O 0.2956(18) 0.6879(17) 1.0287(9)
C279 C 0.1727(14) 1.0953(14) 0.3498(9)
H226 H 0.159888 1.074102 0.331815
C280 C 0.4071(11) 0.4966(12) 0.6824(7)
C281 C 0.0415(11) 1.0398(10) 0.5733(6)
C282 C 0.0854(13) 1.0373(12) 0.5216(7)
H227 H 0.113304 1.066002 0.505393
C283 C 0.0883(14) 0.9929(14) 0.4935(6)
H228 H 0.118235 0.991239 0.458145
C284 C 0.0474(15) 0.9510(13) 0.5172(8)
H229 H 0.049407 0.920641 0.498000
C285 C 0.0036(12) 0.9535(12) 0.5689(7)
H230 H -0.024353 0.924806 0.585103
C286 C 0.0007(10) 0.9979(11) 0.5970(5)
C287 C 0.3966(12) 0.5342(14) 0.7189(11)
C288 C 0.3022(14) 1.0114(13) 0.3266(9)
C289 C 0.7863(12) 0.5614(14) 0.4963(11)
C290 C 0.7522(13) 0.6229(15) 0.5143(10)
C291 C 0.6405(13) 0.6299(12) 0.5105(9)
H231 H 0.588304 0.653414 0.519613
C292 C 0.2905(16) 0.3951(17) 0.7737(13)
H232 H 0.301390 0.362495 0.752777
C293 C -0.0845(15) 0.9516(13) 0.6771(9)
C294 C -0.0085(16) 0.7103(15) 0.7812(8)
H233 H -0.038486 0.756549 0.790012
C295 C 0.0353(17) 0.6545(17) 0.8128(9)
H234 H 0.039396 0.663968 0.842621
C296 C 0.0731(15) 0.5868(15) 0.8042(10)
H235 H 0.098666 0.549527 0.829911
C297 C 0.0757(14) 0.5705(14) 0.7607(9)
H236 H 0.104346 0.522578 0.754878
C298 C 0.5639(14) 0.3912(11) 0.5317(10)
H237 H 0.528291 0.379145 0.528521
C299 C 0.6746(14) 0.6567(11) 0.5207(9)
C300 C 0.5527(15) 0.8524(13) 0.5827(12)
C301 C 0.0813(14) 0.7798(13) 0.4249(9)
H238 H 0.068775 0.740111 0.446116
C302 C 0.4441(15) 0.5108(15) 0.6324(9)
H239 H 0.454066 0.481399 0.609219
C303 C 0.2667(14) 1.0155(13) 0.2444(11)
C304 C 0.1652(12) 0.8306(13) 0.3633(9)
C305 C 0.6490(14) 0.8662(15) 0.4253(11)
H240 H 0.668682 0.872629 0.387644
C306 C 0.5017(13) 0.4237(15) 0.8554(9)
H241 H 0.510747 0.446645 0.876316
H242 H 0.522787 0.370751 0.869509
C307 C 0.3727(11) 0.5564(12) 0.8944(7)
C308 C 0.3804(13) 0.5255(11) 0.8570(9)
C309 C 0.2888(7) 0.7504(6) 0.3206(6)
C310 C 0.2737(6) 0.6895(8) 0.3481(5)
C311 C 0.3259(8) 0.6214(6) 0.3392(6)
H243 H 0.315570 0.579806 0.357952
C312 C 0.3933(8) 0.6142(6) 0.3030(6)
H244 H 0.429060 0.567705 0.296938
C313 C 0.4085(6) 0.6751(8) 0.2756(5)
H245 H 0.454559 0.670188 0.250798
C314 C 0.3562(7) 0.7432(6) 0.2844(5)
H246 H 0.366567 0.784772 0.265673
C315 C 0.1427(15) 0.6112(15) 0.4061(12)
H247 H 0.119625 0.636075 0.376904
C316 C 0.2705(16) 0.4703(15) 0.8433(11)
H248 H 0.261486 0.499179 0.866538
C317 C 0.4697(15) 0.5659(17) 0.6112(11)
H249 H 0.491154 0.578171 0.574197
C318 C -0.0365(15) 0.7072(18) 0.5522(12)
H250 H -0.036362 0.698155 0.520591
C319 C 0.5392(13) 0.4983(13) 0.4534(9)
C320 C 0.3471(13) 0.5614(13) 0.8119(9)
C321 C 0.2093(7) 0.7922(7) 0.8141(5)
C322 C 0.1885(8) 0.8650(8) 0.7890(6)
C323 C 0.1194(9) 0.9049(6) 0.7778(7)
H251 H 0.105133 0.954697 0.760608
C324 C 0.0710(7) 0.8721(9) 0.7917(7)
H252 H 0.023747 0.899419 0.784018
C325 C 0.0918(9) 0.7993(9) 0.8168(7)
H253 H 0.058774 0.776856 0.826296
C326 C 0.1610(9) 0.7593(6) 0.8280(6)
H254 H 0.175189 0.709570 0.845165
C327 C 0.2379(14) 0.9001(15) 0.7783(8)
O38 O 0.2113(18) 0.7707(13) 0.2064(12)
C328 C 0.5912(8) 0.5798(8) 0.4349(5)
C329 C 0.6021(8) 0.6423(9) 0.4048(7)
H255 H 0.636872 0.653180 0.410400
C330 C 0.5621(9) 0.6888(7) 0.3665(6)
H256 H 0.569500 0.731476 0.345898
C331 C 0.5112(9) 0.6728(7) 0.3583(6)
H257 H 0.483835 0.704617 0.332071
C332 C 0.5003(8) 0.6104(7) 0.3884(6)
H258 H 0.465541 0.599461 0.382746
C333 C 0.5403(8) 0.5639(6) 0.4267(5)
C334 C 0.2640(18) 0.697(2) 1.0809(10)
H259 H 0.289735 0.717030 1.090269
H260 H 0.267845 0.650105 1.105006
H261 H 0.211955 0.730394 1.084280
C335 C 0.3272(13) 1.1660(13) 0.1763(9)
H262 H 0.358268 1.182392 0.183834
H263 H 0.277099 1.205160 0.177387
C336 C 0.2379(17) 0.4285(16) 0.8620(12)
H264 H 0.214960 0.417804 0.898895
C337 C 0.5758(12) 0.4544(12) 0.4967(10)
C338 C -0.0844(13) 0.7987(16) 0.6084(11)
H265 H -0.115853 0.846447 0.613896
O39 O -0.315(2) 1.1953(14) 0.6744(9)
C339 C 0.0444(11) 0.9013(10) 0.4024(8)
H266 H 0.006277 0.948197 0.404325
C340 C 0.1459(17) 1.1764(15) 0.4044(10)
H267 H 0.110222 1.215326 0.421411
C341 C 0.5809(13) 0.9215(14) 0.4957(11)
H268 H 0.554775 0.964631 0.509106
C342 C 0.2198(13) 0.5909(12) 0.4601(9)
H269 H 0.248181 0.605735 0.469918
C343 C 0.4311(13) 0.9233(10) 0.3082(7)
H270 H 0.422034 0.906445 0.284741
C344 C 0.6559(13) 0.4294(15) 0.5496(10)
H271 H 0.683890 0.448372 0.555626
C345 C 0.3334(15) 1.0595(13) 0.3956(8)
C346 C 0.7469(16) 0.5304(15) 0.4823(10)
C347 C 0.8500(12) 0.6417(16) 0.5145(9)
H272 H 0.885041 0.590184 0.518053
H273 H 0.860661 0.664354 0.534716
C348 C 0.1781(19) 0.8467(16) 0.1814(15)
H274 H 0.128862 0.871805 0.203370
H275 H 0.173777 0.852801 0.145108
C349 C 0.0298(15) 0.8463(16) 0.4314(12)
H276 H -0.016115 0.852432 0.456654
C350 C 0.2803(15) 0.7510(13) 0.8270(8)
C351 C -0.0758(13) 1.0305(14) 0.7353(8)
H277 H -0.102832 1.000943 0.752335
C352 C 0.2517(12) 0.9859(12) 0.2147(9)
C353 C 0.2769(14) 0.9887(12) 0.2965(10)
O40 O 0.4202(11) 0.4492(10) 0.8646(7)
C354 C 0.0099(15) 1.1163(14) 0.6873(12)
H278 H 0.036542 1.146191 0.672087
C355 C 0.6203(12) 0.4692(11) 0.5104(8)
C356 C -0.225(2) 1.0911(17) 0.6449(14)
H279 H -0.188020 1.077653 0.611761
H280 H -0.269168 1.084246 0.647513
C357 C 0.3617(14) 0.4511(14) 0.7057(9)
C358 C 0.0063(13) 1.0795(14) 0.6571(9)
C359 C -0.0420(14) 0.9971(15) 0.6517(12)
C360 C -0.0737(19) 1.069(2) 0.7645(14)
H281 H -0.103273 1.068810 0.800044
C361 C -0.1576(16) 0.9807(17) 0.6953(10)
C362 C 0.2332(13) 0.8209(11) 0.3262(7)
C363 C 0.3137(11) 0.6335(12) 0.8081(7)
H282 H 0.287436 0.660642 0.780784
C364 C 0.4976(13) 0.8941(10) 0.3151(8)
H283 H 0.535638 0.856681 0.297335
C365 C 0.2600(17) 0.4019(16) 0.9931(12)
H284 H 0.219472 0.414282 0.977730
H285 H 0.245481 0.387177 1.032175
H286 H 0.303619 0.361894 0.978873
C366 C 0.5970(9) 0.7168(8) 0.6018(4)
C367 C 0.5513(10) 0.7786(7) 0.6227(6)
C368 C 0.5136(9) 0.7725(8) 0.6763(6)
H287 H 0.482380 0.814705 0.690597
C369 C 0.5214(9) 0.7045(10) 0.7089(4)
H288 H 0.495592 0.700314 0.745492
C370 C 0.5670(10) 0.6427(7) 0.6880(6)
H289 H 0.572407 0.596259 0.710239
C371 C 0.6048(9) 0.6488(7) 0.6344(6)
H290 H 0.636010 0.606595 0.620090
C372 C 0.3429(14) 0.5150(17) 0.9912(10)
H291 H 0.357616 0.518710 1.020130
H292 H 0.296904 0.558052 0.985680
C373 C 0.0446(13) 1.0823(14) 0.6011(9)
O41 O -0.2709(10) 0.9670(13) 0.7414(10)
C374 C 0.3638(19) 0.996(2) 0.1163(13)
H293 H 0.391467 0.993071 0.078826
H294 H 0.350628 1.045309 0.120174
C375 C 0.4613(15) 0.6014(13) 0.6485(10)
H295 H 0.480145 0.637536 0.636781
C376 C 0.8862(14) 0.4564(18) 0.5258(15)
H296 H 0.879440 0.419095 0.517534
H297 H 0.857487 0.462048 0.562707
C377 C -0.0291(15) 1.1078(15) 0.7437(12)
H298 H -0.024341 1.128884 0.766653
C378 C 0.6596(13) 0.7962(14) 0.4551(9)
H299 H 0.690490 0.754353 0.440242
C379 C 0.3689(18) 1.1938(19) 0.0788(15)
H300 H 0.389199 1.173960 0.046560
H301 H 0.402224 1.211676 0.080875
H302 H 0.320542 1.233860 0.077194
O42 O -0.2120(12) 0.8340(12) 0.7327(12)
O43 O 0.9296(8) 0.6859(8) 0.4412(6)
O44 O 0.4114(15) 0.946(2) 0.1500(12)
C380 C 0.6340(10) 0.7228(11) 0.5434(8)
C381 C -0.296(2) 0.951(3) 0.7987(13)
H303 H -0.294725 0.901229 0.810352
H304 H -0.348150 0.984884 0.808991
O45 O 0.1992(17) 0.8959(12) 0.2301(8)
C382 C 0.1679(15) 0.5124(16) 0.4780(12)
H305 H 0.156151 0.473047 0.501536
O46 O 0.9937(14) 0.4828(12) 0.5228(12)
C383 C 0.3250(15) 1.0963(14) 0.2151(11)
H306 H 0.371610 1.055138 0.204607
H307 H 0.321226 1.098782 0.251491
C384 C 0.3124(16) 0.6739(15) 0.8394(10)
C385 C 0.5818(13) 0.8588(13) 0.5311(10)
C386 C -0.0401(13) 1.0328(15) 0.6817(10)
C387 C -0.243(2) 1.161(2) 0.6461(17)
H308 H -0.237069 1.189061 0.608849
H309 H -0.208688 1.160552 0.662304
C388 C 0.4289(17) 0.5870(14) 0.6982(10)
H310 H 0.426048 0.611824 0.722074
C389 C 0.2615(15) 1.0940(14) 0.3885(9)
C390 C 0.3256(15) 0.4399(14) 0.7567(11)
C391 C 0.3366(14) 0.6300(13) 0.8878(9)
C392 C 0.8005(19) 0.473(2) 0.4091(14)
H311 H 0.754621 0.504261 0.396454
H312 H 0.817678 0.423625 0.403432
C393 C 0.2609(19) 0.7029(16) 0.9487(10)
H313 H 0.230240 0.674654 0.963256
H314 H 0.240981 0.742854 0.919417
C394 C 0.3289(15) 0.4505(15) 1.0079(11)
H315 H 0.374976 0.408062 0.998834
H316 H 0.307913 0.440602 1.046962
C395 C 0.2975(14) 0.9890(19) 0.1250(9)
H317 H 0.308904 0.936942 0.131136
H318 H 0.279185 1.013782 0.091857
C396 C 0.2385(18) 0.3975(18) 0.8219(12)
H319 H 0.202869 0.379026 0.829075
C397 C -0.1951(12) 0.9313(19) 0.7218(13)
C398 C -0.133(2) 0.8845(19) 0.8524(11)
H320 H -0.081021 0.872477 0.834031
H321 H -0.145417 0.844095 0.857069
H322 H -0.142005 0.893225 0.887596
C399 C 0.986(2) 0.474(2) 0.3719(18)
H323 H 1.032116 0.434589 0.378773
H324 H 0.993121 0.498450 0.333938
H325 H 0.968892 0.509484 0.393831
C400 C 0.5783(18) 0.397(2) 0.7149(12)
H326 H 0.569399 0.371394 0.696328
H327 H 0.631400 0.378878 0.710885
H328 H 0.558590 0.448951 0.699273
C401 C 0.253(2) 0.7357(19) 0.9927(12)
H329 H 0.266535 0.777733 0.976010
H330 H 0.200561 0.753840 1.012433
C402 C 0.9415(13) 0.7205(15) 0.3871(11)
H331 H 0.968750 0.684178 0.364869
H332 H 0.969984 0.748498 0.380517
H333 H 0.893910 0.753200 0.377942
C403 C 0.2072(17) 1.1500(15) 0.4115(10)
H334 H 0.217550 1.168511 0.433177
O47 O -0.2876(15) 0.7607(14) 0.7316(10)
C404 C 0.8599(14) 0.6785(19) 0.4580(9)
H335 H 0.860719 0.649755 0.436157
H336 H 0.818798 0.726771 0.453170
C405 C 0.984(3) 0.471(3) 0.587(2)
H337 H 0.999334 0.503684 0.592619
H338 H 0.932011 0.481969 0.605478
H339 H 1.014279 0.420821 0.601012
N16 N 0.3896(7) 1.0243(7) 0.6142(7)
C406 C 0.4344(8) 0.9604(8) 0.5959(6)
H340 H 0.421078 0.949017 0.571546
C407 C 0.4987(7) 0.9130(7) 0.6131(6)
C408 C 0.5181(8) 0.9296(9) 0.6487(7)
H341 H 0.562081 0.897255 0.660505
C409 C 0.4734(11) 0.9935(10) 0.6671(7)
H342 H 0.486665 1.004878 0.691374
C410 C 0.4091(10) 1.0409(8) 0.6498(8)
H343 H 0.378454 1.084571 0.662330
C411 C 0.3185(13) 0.4806(12) 0.7928(10)
C412 C -0.0003(14) 0.6524(18) 0.5895(12)
H344 H 0.024229 0.603904 0.584735
C413 C 0.1371(12) 0.5531(14) 0.4354(10)
H345 H 0.109088 0.536361 0.427028
C414 C 0.5124(16) 0.9186(14) 0.3492(9)
H346 H 0.561034 0.896091 0.354175
C415 C -0.157(2) 0.8576(18) 0.7176(15)
C416 C 0.2363(16) 0.8757(16) 0.1789(11)
H347 H 0.286600 0.837212 0.178178
H348 H 0.237341 0.917582 0.148941
C417 C 0.474(2) 0.964(3) 0.129(2)
H349 H 0.491193 0.965078 0.090432
H350 H 0.513126 0.927213 0.146880
H351 H 0.459778 1.011349 0.135150
C418 C -0.1924(15) 0.7623(16) 0.7603(17)
H352 H -0.175855 0.754827 0.792042
H353 H -0.151808 0.729661 0.736910
C419 C -0.345(2) 0.735(2) 0.7463(17)
H354 H -0.361973 0.745176 0.714488
H355 H -0.325562 0.682860 0.761063
H356 H -0.386352 0.760123 0.773201
C420 C 0.292(2) 0.7250(19) 0.1883(13)
H357 H 0.303216 0.675582 0.210045
H358 H 0.302948 0.723824 0.150586
H359 H 0.321149 0.745531 0.192483
C421 C -0.2623(16) 0.7464(17) 0.7777(14)
H360 H -0.250491 0.695083 0.796458
H361 H -0.301503 0.777254 0.802704
C422 C 0.969(2) 0.4321(19) 0.5216(17)
H362 H 0.983104 0.389836 0.551296
H363 H 0.997331 0.414772 0.487846
O48 O -0.1769(16) 0.947(2) 0.8220(14)
C423 C -0.357(3) 1.159(3) 0.673(3)
H364 H -0.408673 1.181487 0.692664
H365 H -0.355962 1.163888 0.635924
H366 H -0.336169 1.107633 0.690042
C424 C -0.2503(17) 0.956(3) 0.8278(16)
H367 H -0.279641 1.005750 0.834302
H368 H -0.259594 0.924112 0.863219
O49 O 0.6341(17) 0.7514(18) 0.2241(15)
N17 N 0.5821(17) 0.7538(16) 0.2126(13)
O50 O 0.5900(12) 0.7225(15) 0.1806(11)
O51 O 0.5229(18) 0.7867(18) 0.2392(12)
O52 O 0.042(2) 0.286(2) 0.7195(15)
N18 N 0.061(3) 0.285(5) 0.6715(19)
O53 O 0.019(3) 0.284(4) 0.650(2)
O54 O 0.121(2) 0.283(2) 0.6380(17)
O55 O 0.564(3) 0.228(2) 0.4315(14)
O56 O 0.5116(18) 0.2848(15) 0.4924(11)
O57 O 0.448(2) 0.2667(15) 0.4590(16)
N19 N 0.507(2) 0.2615(19) 0.4605(14)
O58 O -0.0026(15) 0.7186(15) 0.0407(11)
O59 O 0.0705(11) 0.7232(9) -0.0371(7)
O60 O 0.115(2) 0.687(2) 0.0297(14)
N20 N 0.0600(16) 0.7132(14) 0.0117(9)
O61 O 0.9206(19) 0.6523(16) 0.2641(13)
N21 N 0.875(3) 0.661(3) 0.2421(16)
O62 O 0.8292(17) 0.6334(15) 0.2656(10)
O63 O 0.895(3) 0.659(2) 0.1939(14)
C425 C 0.753(5) 0.322(4) 0.173(3)
H369 H 0.703928 0.326942 0.173749
H370 H 0.749385 0.367958 0.174359
H371 H 0.787502 0.307048 0.139846
C426 C 0.777(3) 0.269(2) 0.217(2)
H372 H 0.742722 0.277516 0.252728
C427 C 0.798(3) 0.195(2) 0.206(2)
C428 C 0.724(2) 0.1541(19) 0.1870(13)
H373 H 0.738822 0.113634 0.217930
C429 C 0.640(3) 0.178(3) 0.194(2)
H374 H 0.632502 0.138546 0.189228
H375 H 0.612714 0.187997 0.229199
H376 H 0.622162 0.221250 0.166242
C430 C 0.771(2) 0.1266(18) 0.1360(12)
O64 O 0.844(2) 0.2691(19) 0.2092(14)
H377 H 0.876451 0.226507 0.211254
O65 O 0.8382(15) 0.1458(14) 0.2174(10)
O66 O 0.7225(15) 0.2132(14) 0.1940(10)
O67 O 0.8031(11) 0.1745(10) 0.1012(7)
O68 O 0.780(2) 0.0735(16) 0.1222(13)
C431 C 0.8997(17) 0.1852(15) 0.0243(17)
C432 C 0.782(2) 0.1943(19) 0.0114(14)
H378 H 0.807755 0.181472 -0.023734
H379 H 0.742313 0.177351 0.028013
H380 H 0.761435 0.246983 0.006958
C433 C 0.8375(19) 0.158(2) 0.0477(12)
H381 H 0.859551 0.104124 0.051237
O69 O 0.9631(14) 0.1456(13) 0.0209(11)
O70 O 0.8695(17) 0.2581(14) 0.0186(13)
C434 C 0.899(3) 0.358(2) -0.0398(14)
H382 H 0.929065 0.384114 -0.045394
H383 H 0.912838 0.339022 -0.071494
H384 H 0.846694 0.391873 -0.034031
C435 C 0.911(3) 0.297(2) 0.0082(15)
H385 H 0.962915 0.262719 -0.002609
C436 C 0.906(3) 0.312(3) 0.0587(17)
O71 O 0.941(4) 0.258(3) 0.087(2)
O72 O 0.868(5) 0.374(3) 0.080(3)
H386 H 0.896518 0.393644 0.074331
C437 C 0.238(3) 0.745(3) 0.5049(14)
H387 H 0.205332 0.793644 0.489172
H388 H 0.227676 0.708531 0.500001
H389 H 0.229634 0.741586 0.543156
C438 C 0.317(3) 0.734(3) 0.4775(13)
H390 H 0.327291 0.740509 0.437905
O73 O 0.358(3) 0.670(2) 0.4997(16)
H391 H 0.335524 0.658245 0.531356
C439 C 0.336(3) 0.786(2) 0.4932(12)
O74 O 0.387(2) 0.768(2) 0.5116(16)
O75 O 0.279(3) 0.857(2) 0.4869(12)
C440 C 0.294(3) 0.905(2) 0.4974(14)
H392 H 0.344854 0.899763 0.476667
C441 C 0.240(3) 0.972(2) 0.4694(18)
H393 H 0.242157 1.014925 0.472375
H394 H 0.252546 0.970869 0.431562
H395 H 0.189931 0.973999 0.486162
C442 C 0.286(2) 0.9034(17) 0.5556(15)
O76 O 0.301(3) 0.938(2) 0.5745(19)
O77 O 0.2636(19) 0.8464(15) 0.5888(13)
C443 C 0.239(2) 0.8560(19) 0.6436(14)
H396 H 0.273044 0.870518 0.649883
C444 C 0.159(3) 0.913(2) 0.6574(18)
H397 H 0.145753 0.917131 0.694688
H398 H 0.155159 0.960493 0.633683
H399 H 0.124838 0.898678 0.652486
C445 C 0.247(3) 0.781(2) 0.6777(12)
O78 O 0.296(3) 0.736(2) 0.7001(14)
O79 O 0.200(2) 0.7568(19) 0.6734(12)
C446 C 0.207(3) 0.686(2) 0.7010(13)
H400 H 0.239065 0.663979 0.726613
C447 C 0.129(3) 0.687(3) 0.7288(17)
H401 H 0.132800 0.638327 0.748008
H402 H 0.103913 0.719485 0.754194
H403 H 0.100599 0.705245 0.701858
C448 C 0.241(2) 0.6491(17) 0.6542(15)
O80 O 0.302(2) 0.6477(15) 0.6305(15)
O81 O 0.209(3) 0.627(2) 0.6309(18)
H404 H 0.178655 0.611478 0.654875
loop_
_geom_bond_atom_site_label_1
_geom_bond_atom_site_label_2
_geom_bond_site_symmetry_1
_geom_bond_site_symmetry_2
Pd1 N1 1_555 1_555
Pd2 N2 1_555 1_555
O1 C64 1_555 1_555
O2 C50 1_555 1_555
O3 C34 1_555 1_555
C1 C3 1_555 1_555
C2 H1 1_555 1_555
C3 C5 1_555 1_555
C4 C20 1_555 1_555
O4 C47 1_555 1_555
C5 H2 1_555 1_555
N1 C44 1_555 1_555
N2 C6 1_555 1_555
C6 H3 1_555 1_555
C7 C6 1_555 1_555
H4 C7 1_555 1_555
C8 C7 1_555 1_555
H5 C8 1_555 1_555
C9 C8 1_555 1_555
C10 N2 1_555 1_555
H6 C10 1_555 1_555
O5 C62 1_555 1_555
C11 H7 1_555 1_555
C12 C21 1_555 1_555
C13 C43 1_555 1_555
C14 H8 1_555 1_555
N3 Pd1 1_555 1_555
C15 H9 1_555 1_555
C16 C25 1_555 1_555
C17 C14 1_555 1_555
C18 H10 1_555 1_555
O6 C63 1_555 1_555
C19 O7 1_555 1_555
C20 C28 1_555 1_555
C21 C48 1_555 1_555
O7 C173 1_555 1_555
O8 C144 1_555 1_555
C22 C11 1_555 1_555
H11 C22 1_555 1_555
C23 H12 1_555 1_555
C24 C105 1_555 1_555
C25 C99 1_555 1_555
C26 C65 1_555 1_555
O9 C151 1_555 1_555
C27 C31 1_555 1_555
C28 C85 1_555 1_555
O10 C133 1_555 1_555
C29 H13 1_555 1_555
C30 C36 1_555 1_555
C31 C23 1_555 1_555
H14 C31 1_555 1_555
C32 C16 1_555 1_555
C33 C65 1_555 1_555
C34 H15 1_555 1_555
H16 C34 1_555 1_555
C35 H17 1_555 1_555
C36 C54 1_555 1_555
C37 C38 1_555 1_555
C38 C39 1_555 1_555
C39 H18 1_555 1_555
C40 C39 1_555 1_555
H19 C40 1_555 1_555
C41 C40 1_555 1_555
H20 C41 1_555 1_555
C42 C37 1_555 1_555
H21 C42 1_555 1_555
C43 O3 1_555 1_555
C44 H22 1_555 1_555
C45 C2 1_555 1_555
H23 C45 1_555 1_555
C46 H24 1_555 1_555
C47 H25 1_555 1_555
H26 C47 1_555 1_555
C48 C90 1_555 1_555
C49 C18 1_555 1_555
H27 C49 1_555 1_555
C50 H28 1_555 1_555
H29 C50 1_555 1_555
C51 C57 1_555 1_555
C52 H30 1_555 1_555
N4 Pd2 1_555 1_555
C53 H31 1_555 1_555
O11 C149 1_555 1_555
C54 C37 1_555 1_555
C55 N4 1_555 1_555
H32 C55 1_555 1_555
C56 H33 1_555 1_555
C57 H34 1_555 1_555
C58 C13 1_555 1_555
N5 Pd1 1_555 1_555
C59 C60 1_555 1_555
C60 H35 1_555 1_555
C61 C60 1_555 1_555
C62 C61 1_555 1_555
C63 C62 1_555 1_555
C64 C59 1_555 1_555
C65 C126 1_555 1_555
C66 O2 1_555 1_555
C67 C68 1_555 1_555
C68 H36 1_555 1_555
C69 C68 1_555 1_555
H37 C69 1_555 1_555
C70 C69 1_555 1_555
H38 C70 1_555 1_555
C71 C70 1_555 1_555
H39 C71 1_555 1_555
C72 C67 1_555 1_555
O12 C146 1_555 1_555
C73 C61 1_555 1_555
C74 H40 1_555 1_555
C75 C76 1_555 1_555
C76 C58 1_555 1_555
C77 C76 1_555 1_555
H41 C77 1_555 1_555
C78 C77 1_555 1_555
H42 C78 1_555 1_555
C79 C78 1_555 1_555
H43 C79 1_555 1_555
C80 C75 1_555 1_555
H44 C80 1_555 1_555
C81 C74 1_555 1_555
H45 C81 1_555 1_555
C82 C12 1_555 1_555
C83 H46 1_555 1_555
O13 C150 1_555 1_555
C84 C56 1_555 1_555
H47 C84 1_555 1_555
C85 C109 1_555 1_555
C86 C102 1_555 1_555
C87 C33 1_555 1_555
C88 C82 1_555 1_555
H48 C88 1_555 1_555
C89 C84 1_555 1_555
O14 C183 1_555 1_555
C90 C15 1_555 1_555
H49 C90 1_555 1_555
C91 C36 1_555 1_555
H50 C91 1_555 1_555
C92 C23 1_555 1_555
H51 C92 1_555 1_555
C93 C9 1_555 1_555
C94 C1 1_555 1_555
H52 C94 1_555 1_555
C95 C26 1_555 1_555
H53 C95 1_555 1_555
C96 C26 1_555 1_555
C97 H54 1_555 1_555
H55 C97 1_555 1_555
C98 O5 1_555 1_555
H56 C98 1_555 1_555
H57 C98 1_555 1_555
C99 C104 1_555 1_555
C100 C30 1_555 1_555
H58 C100 1_555 1_555
C101 N4 1_555 1_555
H59 C101 1_555 1_555
C102 C73 1_555 1_555
C103 C15 1_555 1_555
H60 C103 1_555 1_555
C104 C74 1_555 1_555
H61 C104 1_555 1_555
C105 C48 1_555 1_555
C106 C21 1_555 1_555
H62 C106 1_555 1_555
C107 C29 1_555 1_555
H63 C107 1_555 1_555
C108 H64 1_555 1_555
H65 C108 1_555 1_555
N6 Pd1 1_555 1_555
C109 H66 1_555 1_555
C110 C2 1_555 1_555
C111 C24 1_555 1_555
H67 C111 1_555 1_555
C112 C4 1_555 1_555
O15 C132 1_555 1_555
C113 C46 1_555 1_555
C114 C109 1_555 1_555
H68 C114 1_555 1_555
C115 C46 1_555 1_555
H69 C115 1_555 1_555
C116 O6 1_555 1_555
H70 C116 1_555 1_555
H71 C116 1_555 1_555
C117 C1 1_555 1_555
C118 C5 1_555 1_555
H72 C118 1_555 1_555
C119 C95 1_555 1_555
H73 C119 1_555 1_555
C120 C30 1_555 1_555
C121 H74 1_555 1_555
C122 C86 1_555 1_555
C123 C11 1_555 1_555
C124 C91 1_555 1_555
H75 C124 1_555 1_555
C125 C119 1_555 1_555
H76 C125 1_555 1_555
C126 C125 1_555 1_555
H77 C126 1_555 1_555
C127 C56 1_555 1_555
H78 C127 1_555 1_555
C128 C29 1_555 1_555
H79 C128 1_555 1_555
C129 C100 1_555 1_555
H80 C129 1_555 1_555
C130 H81 1_555 1_555
O16 C108 1_555 1_555
C131 C130 1_555 1_555
H82 C131 1_555 1_555
C132 H83 1_555 1_555
H84 C132 1_555 1_555
H85 C132 1_555 1_555
C133 C82 1_555 1_555
C134 C87 1_555 1_555
H86 C134 1_555 1_555
C135 C66 1_555 1_555
C136 C34 1_555 1_555
H87 C136 1_555 1_555
H88 C136 1_555 1_555
C137 C18 1_555 1_555
H89 C137 1_555 1_555
O17 C163 1_555 1_555
C138 C12 1_555 1_555
C139 C130 1_555 1_555
H90 C139 1_555 1_555
C140 C89 1_555 1_555
H91 C140 1_555 1_555
C141 C52 1_555 1_555
H92 C141 1_555 1_555
C142 C35 1_555 1_555
H93 C142 1_555 1_555
C143 O1 1_555 1_555
H94 C143 1_555 1_555
H95 C143 1_555 1_555
C144 H96 1_555 1_555
H97 C144 1_555 1_555
C145 C32 1_555 1_555
H98 C145 1_555 1_555
C146 H99 1_555 1_555
H100 C146 1_555 1_555
H101 C146 1_555 1_555
C147 C3 1_555 1_555
C148 C96 1_555 1_555
C149 C148 1_555 1_555
C150 C149 1_555 1_555
C151 C150 1_555 1_555
C152 C117 1_555 1_555
C153 C148 1_555 1_555
H102 C153 1_555 1_555
C154 O8 1_555 1_555
C155 C83 1_555 1_555
H103 C155 1_555 1_555
N7 Pd2 1_555 1_555
C156 N7 1_555 1_555
H104 C156 1_555 1_555
C157 C105 1_555 1_555
C158 C157 1_555 1_555
H105 C158 1_555 1_555
C159 C158 1_555 1_555
H106 C159 1_555 1_555
C160 N7 1_555 1_555
H107 C160 1_555 1_555
C161 C17 1_555 1_555
C162 C161 1_555 1_555
H108 C162 1_555 1_555
C163 C143 1_555 1_555
H109 C163 1_555 1_555
H110 C163 1_555 1_555
C164 C73 1_555 1_555
C165 C16 1_555 1_555
C166 C4 1_555 1_555
H111 C166 1_555 1_555
C167 C121 1_555 1_555
H112 C167 1_555 1_555
C168 C53 1_555 1_555
C169 O10 1_555 1_555
H113 C169 1_555 1_555
H114 C169 1_555 1_555
C170 O4 1_555 1_555
O18 C186 1_555 1_555
C171 C139 1_555 1_555
H115 C171 1_555 1_555
C172 C14 1_555 1_555
H116 C172 1_555 1_555
C173 H117 1_555 1_555
H118 C173 1_555 1_555
C174 C111 1_555 1_555
H119 C174 1_555 1_555
C175 C45 1_555 1_555
H120 C175 1_555 1_555
C176 N3 1_555 1_555
H121 C176 1_555 1_555
C177 C173 1_555 1_555
H122 C177 1_555 1_555
H123 C177 1_555 1_555
C178 C144 1_555 1_555
H124 C178 1_555 1_555
H125 C178 1_555 1_555
C179 C33 1_555 1_555
C180 N3 1_555 1_555
H126 C180 1_555 1_555
C181 O17 1_555 1_555
H127 C181 1_555 1_555
H128 C181 1_555 1_555
H129 C181 1_555 1_555
O19 C97 1_555 1_555
C182 C20 1_555 1_555
H130 C182 1_555 1_555
C183 H131 1_555 1_555
H132 C183 1_555 1_555
H133 C183 1_555 1_555
C184 N6 1_555 1_555
H134 C184 1_555 1_555
C185 C101 1_555 1_555
H135 C185 1_555 1_555
C186 C98 1_555 1_555
H136 C186 1_555 1_555
H137 C186 1_555 1_555
C187 C13 1_555 1_555
H138 C187 1_555 1_555
C188 N1 1_555 1_555
H139 C188 1_555 1_555
C189 C102 1_555 1_555
H140 C189 1_555 1_555
C190 C47 1_555 1_555
H141 C190 1_555 1_555
H142 C190 1_555 1_555
C191 C94 1_555 1_555
H143 C191 1_555 1_555
C192 H144 1_555 1_555
H145 C192 1_555 1_555
H146 C192 1_555 1_555
O20 C178 1_555 1_555
O21 C177 1_555 1_555
C193 H147 1_555 1_555
H148 C193 1_555 1_555
H149 C193 1_555 1_555
C194 H150 1_555 1_555
H151 C194 1_555 1_555
H152 C194 1_555 1_555
C195 C27 1_555 1_555
C196 C52 1_555 1_555
C197 O16 1_555 1_555
H153 C197 1_555 1_555
H154 C197 1_555 1_555
H155 C197 1_555 1_555
C198 H156 1_555 1_555
H157 C198 1_555 1_555
C199 C50 1_555 1_555
H158 C199 1_555 1_555
H159 C199 1_555 1_555
O22 C194 1_555 1_555
C200 C25 1_555 1_555
H160 C200 1_555 1_555
O23 C193 1_555 1_555
C201 O19 1_555 1_555
H161 C201 1_555 1_555
H162 C201 1_555 1_555
H163 C201 1_555 1_555
C202 C57 1_555 1_555
H164 C202 1_555 1_555
N8 Pd2 1_555 1_555
C203 C122 1_555 1_555
C204 C162 1_555 1_555
H165 C204 1_555 1_555
C205 O9 1_555 1_555
H166 C205 1_555 1_555
H167 C205 1_555 1_555
C206 H168 1_555 1_555
H169 C206 1_555 1_555
H170 C206 1_555 1_555
C207 O11 1_555 1_555
H171 C207 1_555 1_555
H172 C207 1_555 1_555
C208 O20 1_555 1_555
H173 C208 1_555 1_555
H174 C208 1_555 1_555
H175 C208 1_555 1_555
O24 C198 1_555 1_555
C209 O18 1_555 1_555
H176 C209 1_555 1_555
H177 C209 1_555 1_555
H178 C209 1_555 1_555
C210 O22 1_555 1_555
H179 C210 1_555 1_555
H180 C210 1_555 1_555
C211 O23 1_555 1_555
H181 C211 1_555 1_555
H182 C211 1_555 1_555
C212 O13 1_555 1_555
H183 C212 1_555 1_555
H184 C212 1_555 1_555
Pd3 N10 1_555 1_555
Pd4 N9 1_555 1_555
N9 C213 1_555 1_555
C213 H185 1_555 1_555
C214 C213 1_555 1_555
H186 C214 1_555 1_555
C215 C214 1_555 1_555
H187 C215 1_555 1_555
C216 C215 1_555 1_555
C217 N9 1_555 1_555
H188 C217 1_555 1_555
O25 C290 1_555 1_555
C218 H189 1_555 1_555
O26 C365 1_555 1_555
C219 H190 1_555 1_555
C220 C221 1_555 1_555
C221 C222 1_555 1_555
C222 H191 1_555 1_555
C223 C222 1_555 1_555
H192 C223 1_555 1_555
C224 C223 1_555 1_555
H193 C224 1_555 1_555
C225 C220 1_555 1_555
H194 C225 1_555 1_555
C226 C241 1_555 1_555
O27 C303 1_555 1_555
O28 C259 1_555 1_555
O29 C352 1_555 1_555
C227 H195 1_555 1_555
O30 C289 1_555 1_555
O31 C307 1_555 1_555
N10 C228 1_555 1_555
C228 H196 1_555 1_555
C229 C228 1_555 1_555
C230 C229 1_555 1_555
H197 C230 1_555 1_555
C231 C230 1_555 1_555
H198 C231 1_555 1_555
C232 N10 1_555 1_555
H199 C232 1_555 1_555
N11 Pd3 1_555 1_555
O32 C335 1_555 1_555
C233 H200 1_555 1_555
O33 C356 1_555 1_555
N12 Pd4 1_555 1_555
C234 N12 1_555 1_555
H201 C234 1_555 1_555
C235 C234 1_555 1_555
H202 C235 1_555 1_555
C236 C235 1_555 1_555
H203 C236 1_555 1_555
C237 C236 1_555 1_555
C238 N12 1_555 1_555
H204 C238 1_555 1_555
C239 C227 1_555 1_555
O34 C269 1_555 1_555
C240 C253 1_555 1_555
C241 C315 1_555 1_555
O35 C346 1_555 1_555
C242 C279 1_555 1_555
C243 C263 1_555 1_555
C244 C378 1_555 1_555
O36 C391 1_555 1_555
C245 C239 1_555 1_555
C246 C247 1_555 1_555
C247 C248 1_555 1_555
C248 C249 1_555 1_555
C249 C250 1_555 1_555
C250 C251 1_555 1_555
C251 C246 1_555 1_555
C252 H205 1_555 1_555
C253 C291 1_555 1_555
N13 Pd3 1_555 1_555
C254 N13 1_555 1_555
H206 C254 1_555 1_555
C255 C246 1_555 1_555
C256 C255 1_555 1_555
H207 C256 1_555 1_555
C257 C256 1_555 1_555
H208 C257 1_555 1_555
C258 N13 1_555 1_555
H209 C258 1_555 1_555
C259 H210 1_555 1_555
H211 C259 1_555 1_555
C260 C252 1_555 1_555
H212 C260 1_555 1_555
C261 H213 1_555 1_555
C262 C218 1_555 1_555
C263 C273 1_555 1_555
N14 Pd3 1_555 1_555
C264 N14 1_555 1_555
H214 C264 1_555 1_555
C265 C264 1_555 1_555
C266 C265 1_555 1_555
H215 C266 1_555 1_555
C267 C266 1_555 1_555
H216 C267 1_555 1_555
C268 N14 1_555 1_555
H217 C268 1_555 1_555
C269 H218 1_555 1_555
H219 C269 1_555 1_555
C270 H220 1_555 1_555
C271 C287 1_555 1_555
C272 C226 1_555 1_555
C273 H221 1_555 1_555
N15 Pd4 1_555 1_555
C274 N15 1_555 1_555
H222 C274 1_555 1_555
C275 C274 1_555 1_555
H223 C275 1_555 1_555
C276 C275 1_555 1_555
H224 C276 1_555 1_555
C277 C276 1_555 1_555
C278 N15 1_555 1_555
H225 C278 1_555 1_555
O37 C334 1_555 1_555
C279 C233 1_555 1_555
H226 C279 1_555 1_555
C280 C287 1_555 1_555
C281 C282 1_555 1_555
C282 H227 1_555 1_555
C283 C282 1_555 1_555
H228 C283 1_555 1_555
C284 C283 1_555 1_555
H229 C284 1_555 1_555
C285 C284 1_555 1_555
H230 C285 1_555 1_555
C286 C281 1_555 1_555
C287 C388 1_555 1_555
C288 C242 1_555 1_555
C289 C290 1_555 1_555
C290 C299 1_555 1_555
C291 H231 1_555 1_555
C292 H232 1_555 1_555
C293 C218 1_555 1_555
C294 C250 1_555 1_555
H233 C294 1_555 1_555
C295 C294 1_555 1_555
H234 C295 1_555 1_555
C296 C295 1_555 1_555
H235 C296 1_555 1_555
C297 C251 1_555 1_555
H236 C297 1_555 1_555
C298 C252 1_555 1_555
H237 C298 1_555 1_555
C299 C291 1_555 1_555
C300 C367 1_555 1_555
C301 C272 1_555 1_555
H238 C301 1_555 1_555
C302 C280 1_555 1_555
H239 C302 1_555 1_555
C303 C352 1_555 1_555
C304 C219 1_555 1_555
C305 C270 1_555 1_555
H240 C305 1_555 1_555
C306 C259 1_555 1_555
H241 C306 1_555 1_555
H242 C306 1_555 1_555
C307 C308 1_555 1_555
C308 C320 1_555 1_555
C309 C310 1_555 1_555
C310 C226 1_555 1_555
C311 C310 1_555 1_555
H243 C311 1_555 1_555
C312 C311 1_555 1_555
H244 C312 1_555 1_555
C313 C312 1_555 1_555
H245 C313 1_555 1_555
C314 C309 1_555 1_555
H246 C314 1_555 1_555
C315 H247 1_555 1_555
C316 H248 1_555 1_555
C317 C302 1_555 1_555
H249 C317 1_555 1_555
C318 C261 1_555 1_555
H250 C318 1_555 1_555
C319 C265 1_555 1_555
C320 C271 1_555 1_555
C321 C322 1_555 1_555
C322 C323 1_555 1_555
C323 H251 1_555 1_555
C324 C323 1_555 1_555
H252 C324 1_555 1_555
C325 C324 1_555 1_555
H253 C325 1_555 1_555
C326 C321 1_555 1_555
H254 C326 1_555 1_555
C327 C216 1_555 1_555
O38 C348 1_555 1_555
C328 C240 1_555 1_555
C329 C328 1_555 1_555
H255 C329 1_555 1_555
C330 C329 1_555 1_555
H256 C330 1_555 1_555
C331 C330 1_555 1_555
H257 C331 1_555 1_555
C332 C331 1_555 1_555
H258 C332 1_555 1_555
C333 C319 1_555 1_555
C334 H259 1_555 1_555
H260 C334 1_555 1_555
H261 C334 1_555 1_555
C335 H262 1_555 1_555
H263 C335 1_555 1_555
C336 C316 1_555 1_555
H264 C336 1_555 1_555
C337 C298 1_555 1_555
C338 C248 1_555 1_555
H265 C338 1_555 1_555
O39 C387 1_555 1_555
C339 C219 1_555 1_555
H266 C339 1_555 1_555
C340 C233 1_555 1_555
H267 C340 1_555 1_555
C341 C270 1_555 1_555
H268 C341 1_555 1_555
C342 N11 1_555 1_555
H269 C342 1_555 1_555
C343 C243 1_555 1_555
H270 C343 1_555 1_555
C344 C260 1_555 1_555
H271 C344 1_555 1_555
C345 C263 1_555 1_555
C346 C253 1_555 1_555
C347 O25 1_555 1_555
H272 C347 1_555 1_555
H273 C347 1_555 1_555
C348 H274 1_555 1_555
H275 C348 1_555 1_555
C349 C301 1_555 1_555
H276 C349 1_555 1_555
C350 C221 1_555 1_555
C351 H277 1_555 1_555
C352 C245 1_555 1_555
C353 C227 1_555 1_555
O40 C306 1_555 1_555
C354 H278 1_555 1_555
C355 C240 1_555 1_555
C356 H279 1_555 1_555
H280 C356 1_555 1_555
C357 C229 1_555 1_555
C358 C354 1_555 1_555
C359 C286 1_555 1_555
C360 C351 1_555 1_555
H281 C360 1_555 1_555
C361 O33 1_555 1_555
C362 C239 1_555 1_555
C363 C320 1_555 1_555
H282 C363 1_555 1_555
C364 C343 1_555 1_555
H283 C364 1_555 1_555
C365 H284 1_555 1_555
H285 C365 1_555 1_555
H286 C365 1_555 1_555
C366 C367 1_555 1_555
C367 C368 1_555 1_555
C368 H287 1_555 1_555
C369 C368 1_555 1_555
H288 C369 1_555 1_555
C370 C369 1_555 1_555
H289 C370 1_555 1_555
C371 C366 1_555 1_555
H290 C371 1_555 1_555
C372 O31 1_555 1_555
H291 C372 1_555 1_555
H292 C372 1_555 1_555
C373 C237 1_555 1_555
O41 C381 1_555 1_555
C374 H293 1_555 1_555
H294 C374 1_555 1_555
C375 C317 1_555 1_555
H295 C375 1_555 1_555
C376 O30 1_555 1_555
H296 C376 1_555 1_555
H297 C376 1_555 1_555
C377 C354 1_555 1_555
H298 C377 1_555 1_555
C378 C305 1_555 1_555
H299 C378 1_555 1_555
C379 O32 1_555 1_555
H300 C379 1_555 1_555
H301 C379 1_555 1_555
H302 C379 1_555 1_555
O42 C415 1_555 1_555
O43 C402 1_555 1_555
O44 C374 1_555 1_555
C380 C244 1_555 1_555
C381 H303 1_555 1_555
H304 C381 1_555 1_555
O45 C245 1_555 1_555
C382 N11 1_555 1_555
H305 C382 1_555 1_555
O46 C405 1_555 1_555
C383 O27 1_555 1_555
H306 C383 1_555 1_555
H307 C383 1_555 1_555
C384 C350 1_555 1_555
C385 C244 1_555 1_555
C386 C351 1_555 1_555
C387 C356 1_555 1_555
H308 C387 1_555 1_555
H309 C387 1_555 1_555
C388 C375 1_555 1_555
H310 C388 1_555 1_555
C389 C242 1_555 1_555
C390 C292 1_555 1_555
C391 C307 1_555 1_555
C392 O35 1_555 1_555
H311 C392 1_555 1_555
H312 C392 1_555 1_555
C393 O36 1_555 1_555
H313 C393 1_555 1_555
H314 C393 1_555 1_555
C394 O26 1_555 1_555
H315 C394 1_555 1_555
H316 C394 1_555 1_555
C395 O29 1_555 1_555
H317 C395 1_555 1_555
H318 C395 1_555 1_555
C396 C292 1_555 1_555
H319 C396 1_555 1_555
C397 C361 1_555 1_555
C398 H320 1_555 1_555
H321 C398 1_555 1_555
H322 C398 1_555 1_555
C399 O34 1_555 1_555
H323 C399 1_555 1_555
H324 C399 1_555 1_555
H325 C399 1_555 1_555
C400 O28 1_555 1_555
H326 C400 1_555 1_555
H327 C400 1_555 1_555
H328 C400 1_555 1_555
C401 O37 1_555 1_555
H329 C401 1_555 1_555
H330 C401 1_555 1_555
C402 H331 1_555 1_555
H332 C402 1_555 1_555
H333 C402 1_555 1_555
C403 C340 1_555 1_555
H334 C403 1_555 1_555
O47 C419 1_555 1_555
C404 C347 1_555 1_555
H335 C404 1_555 1_555
H336 C404 1_555 1_555
C405 H337 1_555 1_555
H338 C405 1_555 1_555
H339 C405 1_555 1_555
N16 Pd4 1_555 1_555
C406 N16 1_555 1_555
H340 C406 1_555 1_555
C407 C300 1_555 1_555
C408 C407 1_555 1_555
H341 C408 1_555 1_555
C409 C408 1_555 1_555
H342 C409 1_555 1_555
C410 N16 1_555 1_555
H343 C410 1_555 1_555
C411 C271 1_555 1_555
C412 C247 1_555 1_555
H344 C412 1_555 1_555
C413 C315 1_555 1_555
H345 C413 1_555 1_555
C414 C273 1_555 1_555
H346 C414 1_555 1_555
C415 C262 1_555 1_555
C416 C348 1_555 1_555
H347 C416 1_555 1_555
H348 C416 1_555 1_555
C417 O44 1_555 1_555
H349 C417 1_555 1_555
H350 C417 1_555 1_555
H351 C417 1_555 1_555
C418 O42 1_555 1_555
H352 C418 1_555 1_555
H353 C418 1_555 1_555
C419 H354 1_555 1_555
H355 C419 1_555 1_555
H356 C419 1_555 1_555
C420 O38 1_555 1_555
H357 C420 1_555 1_555
H358 C420 1_555 1_555
H359 C420 1_555 1_555
C421 O47 1_555 1_555
H360 C421 1_555 1_555
H361 C421 1_555 1_555
C422 C376 1_555 1_555
H362 C422 1_555 1_555
H363 C422 1_555 1_555
O48 C398 1_555 1_555
C423 O39 1_555 1_555
H364 C423 1_555 1_555
H365 C423 1_555 1_555
H366 C423 1_555 1_555
C424 C381 1_555 1_555
H367 C424 1_555 1_555
H368 C424 1_555 1_555
O49 N17 1_555 1_555
N17 O50 1_555 1_555
O51 N17 1_555 1_555
O52 N18 1_555 1_555
N18 O53 1_555 1_555
O54 N18 1_555 1_555
O55 N19 1_555 1_555
O56 N19 1_555 1_555
O57 N19 1_555 1_555
O58 N20 1_555 1_555
O59 N20 1_555 1_555
O60 N20 1_555 1_555
O61 N21 1_555 1_555
N21 O62 1_555 1_555
O63 N21 1_555 1_555
C425 H369 1_555 1_555
H370 C425 1_555 1_555
H371 C425 1_555 1_555
C426 C425 1_555 1_555
H372 C426 1_555 1_555
C427 C426 1_555 1_555
C428 H373 1_555 1_555
C429 C428 1_555 1_555
H374 C429 1_555 1_555
H375 C429 1_555 1_555
H376 C429 1_555 1_555
C430 C428 1_555 1_555
O64 C426 1_555 1_555
H377 O64 1_555 1_555
O65 C427 1_555 1_555
O66 C427 1_555 1_555
O67 C430 1_555 1_555
O68 C430 1_555 1_555
C431 C433 1_555 1_555
C432 H378 1_555 1_555
H379 C432 1_555 1_555
H380 C432 1_555 1_555
C433 O67 1_555 1_555
H381 C433 1_555 1_555
O69 C431 1_555 1_555
O70 C431 1_555 1_555
C434 H382 1_555 1_555
H383 C434 1_555 1_555
H384 C434 1_555 1_555
C435 O70 1_555 1_555
H385 C435 1_555 1_555
C436 C435 1_555 1_555
O71 C436 1_555 1_555
O72 C436 1_555 1_555
H386 O72 1_555 1_555
C437 H387 1_555 1_555
H388 C437 1_555 1_555
H389 C437 1_555 1_555
C438 C437 1_555 1_555
H390 C438 1_555 1_555
O73 C438 1_555 1_555
H391 O73 1_555 1_555
C439 C438 1_555 1_555
O74 C439 1_555 1_555
O75 C439 1_555 1_555
C440 O75 1_555 1_555
H392 C440 1_555 1_555
C441 C440 1_555 1_555
H393 C441 1_555 1_555
H394 C441 1_555 1_555
H395 C441 1_555 1_555
C442 C440 1_555 1_555
O76 C442 1_555 1_555
O77 C442 1_555 1_555
C443 O77 1_555 1_555
H396 C443 1_555 1_555
C444 C443 1_555 1_555
H397 C444 1_555 1_555
H398 C444 1_555 1_555
H399 C444 1_555 1_555
C445 C443 1_555 1_555
O78 C445 1_555 1_555
O79 C445 1_555 1_555
C446 O79 1_555 1_555
H400 C446 1_555 1_555
C447 C446 1_555 1_555
H401 C447 1_555 1_555
H402 C447 1_555 1_555
H403 C447 1_555 1_555
C448 C446 1_555 1_555
O80 C448 1_555 1_555
O81 C448 1_555 1_555
H404 O81 1_555 1_555
C9 C10 1_555 1_555
C17 C93 1_555 1_555
C19 C43 1_555 1_555
C19 C170 1_555 1_555
C22 C188 1_555 1_555
C24 C138 1_555 1_555
C27 C32 1_555 1_555
C28 C110 1_555 1_555
C35 C138 1_555 1_555
C38 C120 1_555 1_555
C41 C42 1_555 1_555
C44 C123 1_555 1_555
C49 N5 1_555 1_555
C51 C96 1_555 1_555
C51 C179 1_555 1_555
C53 N5 1_555 1_555
C54 C123 1_555 1_555
C55 C87 1_555 1_555
C58 C161 1_555 1_555
C59 C112 1_555 1_555
C63 C64 1_555 1_555
C66 C154 1_555 1_555
C67 C117 1_555 1_555
C71 C72 1_555 1_555
C72 C147 1_555 1_555
O12 C190 1_555 1_555
C75 C93 1_555 1_555
C79 C80 1_555 1_555
C81 C200 1_555 1_555
C83 C179 1_555 1_555
C85 C113 1_555 1_555
C86 C128 1_555 1_555
C88 C135 1_555 1_555
C89 C122 1_555 1_555
O14 C199 1_555 1_555
C92 C145 1_555 1_555
C97 C116 1_555 1_555
C99 C195 1_555 1_555
C103 C106 1_555 1_555
C107 C189 1_555 1_555
C108 C169 1_555 1_555
N6 C175 1_555 1_555
C110 C184 1_555 1_555
C112 C113 1_555 1_555
O15 C136 1_555 1_555
C114 C115 1_555 1_555
C118 C191 1_555 1_555
C120 C135 1_555 1_555
C121 C182 1_555 1_555
C124 C129 1_555 1_555
C127 N8 1_555 1_555
C131 C164 1_555 1_555
C133 C154 1_555 1_555
C134 C185 1_555 1_555
C137 C168 1_555 1_555
C140 N8 1_555 1_555
C141 C176 1_555 1_555
C142 C174 1_555 1_555
C147 C196 1_555 1_555
C151 C152 1_555 1_555
C152 C153 1_555 1_555
C155 C202 1_555 1_555
C156 C157 1_555 1_555
C159 C160 1_555 1_555
C164 C203 1_555 1_555
C165 C170 1_555 1_555
C165 C187 1_555 1_555
C166 C167 1_555 1_555
C168 C195 1_555 1_555
C171 C203 1_555 1_555
C172 C204 1_555 1_555
C180 C196 1_555 1_555
C192 O21 1_555 1_555
C198 C205 1_555 1_555
C206 O24 1_555 1_555
C207 C211 1_555 1_555
C210 C212 1_555 1_555
C216 C217 1_555 1_555
C220 C327 1_555 1_555
C224 C225 1_555 1_555
C231 C232 1_555 1_555
C237 C238 1_555 1_555
C241 C342 1_555 1_555
C243 C288 1_555 1_555
C249 C262 1_555 1_555
C254 C255 1_555 1_555
C257 C258 1_555 1_555
C261 C338 1_555 1_555
C267 C268 1_555 1_555
C269 C392 1_555 1_555
C272 C304 1_555 1_555
C277 C278 1_555 1_555
C277 C345 1_555 1_555
C280 C357 1_555 1_555
C281 C373 1_555 1_555
C285 C286 1_555 1_555
C288 C353 1_555 1_555
C289 C346 1_555 1_555
C293 C359 1_555 1_555
C293 C361 1_555 1_555
C296 C297 1_555 1_555
C299 C380 1_555 1_555
C300 C385 1_555 1_555
C303 C353 1_555 1_555
C304 C362 1_555 1_555
C308 O40 1_555 1_555
C309 C362 1_555 1_555
C313 C314 1_555 1_555
C316 C411 1_555 1_555
C318 C412 1_555 1_555
C319 C337 1_555 1_555
C321 C350 1_555 1_555
C322 C327 1_555 1_555
C325 C326 1_555 1_555
C328 C333 1_555 1_555
C332 C333 1_555 1_555
C335 C383 1_555 1_555
C336 C396 1_555 1_555
C337 C355 1_555 1_555
C339 C349 1_555 1_555
C341 C385 1_555 1_555
C344 C355 1_555 1_555
C345 C389 1_555 1_555
C357 C390 1_555 1_555
C358 C373 1_555 1_555
C358 C386 1_555 1_555
C359 C386 1_555 1_555
C360 C377 1_555 1_555
C363 C384 1_555 1_555
C364 C414 1_555 1_555
C366 C380 1_555 1_555
C370 C371 1_555 1_555
C372 C394 1_555 1_555
O41 C397 1_555 1_555
C374 C395 1_555 1_555
O43 C404 1_555 1_555
O45 C416 1_555 1_555
C382 C413 1_555 1_555
O46 C422 1_555 1_555
C384 C391 1_555 1_555
C389 C403 1_555 1_555
C390 C411 1_555 1_555
C393 C401 1_555 1_555
C397 C415 1_555 1_555
C406 C407 1_555 1_555
C409 C410 1_555 1_555
C418 C421 1_555 1_555
O48 C424 1_555 1_555
C428 O66 1_555 1_555
C432 C433 1_555 1_555
C434 C435 1_555 1_555

#END
