# generated using pymatgen
data_H404Pd4C448(N7O27)3
_symmetry_space_group_name_H-M   'P 1'
_cell_length_a   21.29860000
_cell_length_b   21.53740000
_cell_length_c   27.43180000
_cell_angle_alpha   69.62800000
_cell_angle_beta   68.72800000
_cell_angle_gamma   61.31700000
_symmetry_Int_Tables_number   1
_chemical_formula_structural   H404Pd4C448(N7O27)3
_chemical_formula_sum   'H404 Pd4 C448 N21 O81'
_cell_volume   10051.50019803
_cell_formula_units_Z   1
loop_
 _symmetry_equiv_pos_site_id
 _symmetry_equiv_pos_as_xyz
  1  'x, y, z'
loop_
 _atom_site_type_symbol
 _atom_site_label
 _atom_site_symmetry_multiplicity
 _atom_site_fract_x
 _atom_site_fract_y
 _atom_site_fract_z
 _atom_site_occupancy
  H  H1  1  0.650116  0.696703  0.979112  1
  H  H2  1  0.084509  0.386527  0.090727  1
  H  H3  1  0.709906  0.844717  0.160627  1
  H  H4  1  0.676703  0.806873  0.253683  1
  H  H5  1  0.705243  0.846192  0.309252  1
  H  H6  1  0.800189  0.961201  0.178710  1
  H  H7  1  0.560280  0.552923  0.294430  1
  H  H8  1  0.887628  0.822095  0.251730  1
  H  H9  1  0.600495  0.304333  0.930583  1
  H  H10  1  0.028328  0.456235  0.229642  1
  H  H11  1  0.644557  0.581517  0.308246  1
  H  H12  1  0.675429  0.432332  0.379360  1
  H  H13  1  0.075391  0.104697  0.900719  1
  H  H14  1  0.786749  0.422711  0.318760  1
  H  H15  1  0.715378  0.953286  0.462086  1
  H  H16  1  0.772242  0.894129  0.426061  1
  H  H17  1  0.425979  0.243766  0.234395  1
  H  H18  1  0.475525  0.340889  0.264087  1
  H  H19  1  0.549272  0.265101  0.325083  1
  H  H20  1  0.633834  0.297602  0.334522  1
  H  H21  1  0.644649  0.405892  0.282965  1
  H  H22  1  0.698684  0.511187  0.155867  1
  H  H23  1  0.641507  0.749216  0.046802  1
  H  H24  1  0.678403  0.388331  0.952496  1
  H  H25  1  0.965906  0.122656  0.423552  1
  H  H26  1  0.961430  0.063164  0.478751  1
  H  H27  1  0.943859  0.534859  0.173108  1
  H  H28  1  0.344735  0.483110  0.281437  1
  H  H29  1  0.286824  0.564940  0.280695  1
  H  H30  1  0.076089  0.519367  0.950615  1
  H  H31  1  0.841978  0.403110  0.216280  1
  H  H32  1  0.934006  0.950660  0.063667  1
  H  H33  1  0.991397  0.854957  0.916769  1
  H  H34  1  0.137325  0.073771  0.096313  1
  H  H35  1  0.800649  0.336268  0.902729  1
  H  H36  1  0.145745  0.243000  0.889830  1
  H  H37  1  0.082323  0.335439  0.827025  1
  H  H38  1  0.011619  0.452581  0.843160  1
  H  H39  1  0.004338  0.477284  0.922100  1
  H  H40  1  0.130163  0.148226  0.223122  1
  H  H41  1  0.688889  0.095673  0.388166  1
  H  H42  1  0.569667  0.152376  0.374489  1
  H  H43  1  0.540297  0.113542  0.319106  1
  H  H44  1  0.630149  0.018004  0.277398  1
  H  H45  1  0.099699  0.039309  0.268656  1
  H  H46  1  0.990949  0.938385  0.171508  1
  H  H47  1  0.974886  0.977676  0.866000  1
  H  H48  1  0.522309  0.353022  0.160227  1
  H  H49  1  0.621848  0.191460  0.984358  1
  H  H50  1  0.557388  0.643093  0.153912  1
  H  H51  1  0.650671  0.329276  0.422321  1
  H  H52  1  0.197774  0.159103  0.062164  1
  H  H53  1  0.209731  0.990588  0.919684  1
  H  H54  1  0.782022  0.568590  0.635380  1
  H  H55  1  0.729585  0.591205  0.691026  1
  H  H56  1  0.872452  0.300251  0.702333  1
  H  H57  1  0.859307  0.241290  0.756214  1
  H  H58  1  0.413371  0.560790  0.113282  1
  H  H59  1  0.899885  0.778778  0.144305  1
  H  H60  1  0.521866  0.407223  0.967969  1
  H  H61  1  0.041587  0.267554  0.225138  1
  H  H62  1  0.469616  0.398562  0.054247  1
  H  H63  1  0.037490  0.230423  0.852198  1
  H  H64  1  0.204209  0.318834  0.246781  1
  H  H65  1  0.287908  0.271814  0.227338  1
  H  H66  1  0.657004  0.520751  0.073634  1
  H  H67  1  0.559343  0.037561  0.159435  1
  H  H68  1  0.604585  0.438532  0.100893  1
  H  H69  1  0.609439  0.373723  0.045925  1
  H  H70  1  0.713818  0.500801  0.662653  1
  H  H71  1  0.786927  0.442953  0.683273  1
  H  H72  1  0.140937  0.295900  0.151724  1
  H  H73  1  0.191331  0.934667  0.872381  1
  H  H74  1  0.879874  0.650368  0.835542  1
  H  H75  1  0.498813  0.706254  0.087546  1
  H  H76  1  0.130136  0.854729  0.918102  1
  H  H77  1  0.071967  0.856928  0.003356  1
  H  H78  1  0.928038  0.834151  0.001677  1
  H  H79  1  0.001991  0.044950  0.919010  1
  H  H80  1  0.445567  0.660326  0.061323  1
  H  H81  1  0.622863  0.237956  0.842525  1
  H  H82  1  0.691933  0.297566  0.829318  1
  H  H83  1  0.724593  0.767236  0.583869  1
  H  H84  1  0.705679  0.807839  0.629618  1
  H  H85  1  0.789712  0.765364  0.601170  1
  H  H86  1  0.086024  0.786209  0.140438  1
  H  H87  1  0.726888  0.831011  0.505692  1
  H  H88  1  0.809665  0.811233  0.504852  1
  H  H89  1  0.988877  0.358605  0.296691  1
  H  H90  1  0.665175  0.106575  0.879514  1
  H  H91  1  0.818733  0.043060  0.993526  1
  H  H92  1  0.998718  0.627608  0.973961  1
  H  H93  1  0.424748  0.135014  0.287424  1
  H  H94  1  0.598748  0.546410  0.804118  1
  H  H95  1  0.587222  0.627482  0.798559  1
  H  H96  1  0.259655  0.549467  0.114840  1
  H  H97  1  0.217992  0.589714  0.164385  1
  H  H98  1  0.729958  0.221387  0.409926  1
  H  H99  1  0.791533  0.234702  0.486388  1
  H  H100  1  0.781422  0.313912  0.484801  1
  H  H101  1  0.805153  0.248964  0.534442  1
  H  H102  1  0.097930  0.150240  0.006769  1
  H  H103  1  0.965767  0.028853  0.213241  1
  H  H104  1  0.681049  0.053721  0.106409  1
  H  H105  1  0.537105  0.102870  0.020718  1
  H  H106  1  0.616739  0.999758  0.984783  1
  H  H107  1  0.728529  0.923627  0.009660  1
  H  H108  1  0.947996  0.918343  0.346837  1
  H  H109  1  0.509495  0.583408  0.883478  1
  H  H110  1  0.582730  0.524113  0.902164  1
  H  H111  1  0.832254  0.507861  0.804374  1
  H  H112  1  0.913181  0.561988  0.791439  1
  H  H113  1  0.233936  0.328512  0.156674  1
  H  H114  1  0.208985  0.407420  0.166612  1
  H  H115  1  0.770757  0.052279  0.909680  1
  H  H116  1  0.013991  0.779506  0.252026  1
  H  H117  1  0.806762  0.981274  0.584937  1
  H  H118  1  0.804352  0.930121  0.555991  1
  H  H119  1  0.499165  0.032912  0.254559  1
  H  H120  1  0.704670  0.685080  0.107575  1
  H  H121  1  0.896723  0.637408  0.053716  1
  H  H122  1  0.707826  0.033052  0.516256  1
  H  H123  1  0.682785  0.020912  0.580803  1
  H  H124  1  0.114854  0.555186  0.171448  1
  H  H125  1  0.121084  0.626038  0.127257  1
  H  H126  1  0.952112  0.427517  0.072683  1
  H  H127  1  0.468336  0.616452  0.953419  1
  H  H128  1  0.506703  0.655971  0.965471  1
  H  H129  1  0.540241  0.569412  0.976949  1
  H  H130  1  0.828592  0.624069  0.923746  1
  H  H131  1  0.121457  0.495015  0.300113  1
  H  H132  1  0.065022  0.577992  0.298371  1
  H  H133  1  0.095637  0.529620  0.350757  1
  H  H134  1  0.798650  0.513231  0.050952  1
  H  H135  1  0.008741  0.728405  0.168833  1
  H  H136  1  0.846803  0.206976  0.694209  1
  H  H137  1  0.764767  0.247975  0.725846  1
  H  H138  1  0.823189  0.111238  0.319467  1
  H  H139  1  0.755407  0.572626  0.244796  1
  H  H140  1  0.929119  0.285902  0.824539  1
  H  H141  1  0.878773  0.161078  0.525652  1
  H  H142  1  0.959740  0.158907  0.501811  1
  H  H143  1  0.206183  0.173242  0.138169  1
  H  H144  1  0.664419  0.210111  0.527888  1
  H  H145  1  0.614425  0.168289  0.569082  1
  H  H146  1  0.638506  0.167705  0.506729  1
  H  H147  1  0.450611  0.795262  0.919526  1
  H  H148  1  0.372593  0.793290  0.954232  1
  H  H149  1  0.381748  0.868447  0.932796  1
  H  H150  1  0.243560  0.112193  0.794052  1
  H  H151  1  0.323794  0.110604  0.762554  1
  H  H152  1  0.312465  0.036527  0.787295  1
  H  H153  1  0.299672  0.321606  0.337053  1
  H  H154  1  0.333096  0.244742  0.321705  1
  H  H155  1  0.365300  0.304036  0.284915  1
  H  H156  1  0.410753  0.206423  0.869036  1
  H  H157  1  0.353338  0.280740  0.887898  1
  H  H158  1  0.247093  0.481471  0.335074  1
  H  H159  1  0.255079  0.456314  0.283921  1
  H  H160  1  0.986867  0.059901  0.327574  1
  H  H161  1  0.899717  0.558405  0.697117  1
  H  H162  1  0.869698  0.595161  0.643801  1
  H  H163  1  0.817440  0.618912  0.698970  1
  H  H164  1  0.049129  0.089088  0.176958  1
  H  H165  1  0.034808  0.846083  0.293749  1
  H  H166  1  0.376262  0.138101  0.957409  1
  H  H167  1  0.320034  0.212431  0.977603  1
  H  H168  1  0.494246  0.300143  0.884021  1
  H  H169  1  0.472488  0.285559  0.840251  1
  H  H170  1  0.410457  0.338132  0.879383  1
  H  H171  1  0.281117  0.921569  0.050105  1
  H  H172  1  0.353883  0.935510  0.021634  1
  H  H173  1  0.110166  0.490533  0.087771  1
  H  H174  1  0.073552  0.577211  0.074121  1
  H  H175  1  0.069612  0.533934  0.135092  1
  H  H176  1  0.837256  0.322802  0.575197  1
  H  H177  1  0.885650  0.305962  0.614904  1
  H  H178  1  0.878559  0.241116  0.604609  1
  H  H179  1  0.412569  0.073190  0.819510  1
  H  H180  1  0.407455  0.000638  0.821621  1
  H  H181  1  0.398227  0.818887  0.059281  1
  H  H182  1  0.338846  0.804011  0.047435  1
  H  H183  1  0.394586  0.964222  0.908739  1
  H  H184  1  0.459584  0.989905  0.887175  1
  H  H185  1  0.176470  0.171161  0.672340  1
  H  H186  1  0.105732  0.150736  0.759558  1
  H  H187  1  0.127608  0.032211  0.808893  1
  H  H188  1  0.290961  0.954533  0.683793  1
  H  H189  1  0.002930  0.850853  0.669592  1
  H  H190  1  0.120756  0.938788  0.349750  1
  H  H191  1  0.413005  0.699824  0.840201  1
  H  H192  1  0.486522  0.759212  0.828832  1
  H  H193  1  0.445478  0.884465  0.795547  1
  H  H194  1  0.330914  0.950330  0.773631  1
  H  H195  1  0.268730  0.899204  0.358807  1
  H  H196  1  0.296655  0.493114  0.632024  1
  H  H197  1  0.460636  0.313645  0.689604  1
  H  H198  1  0.467936  0.253679  0.629847  1
  H  H199  1  0.389595  0.313430  0.571179  1
  H  H200  1  0.071675  0.179526  0.367093  1
  H  H201  1  0.202347  0.228923  0.525733  1
  H  H202  1  0.088755  0.278420  0.503965  1
  H  H203  1  0.015038  0.212896  0.537824  1
  H  H204  1  0.168505  0.048376  0.615219  1
  H  H205  1  0.598168  0.305665  0.589158  1
  H  H206  1  0.155411  0.577148  0.597939  1
  H  H207  1  0.026289  0.481654  0.713747  1
  H  H208  1  0.103834  0.371844  0.686306  1
  H  H209  1  0.207169  0.364686  0.614682  1
  H  H210  1  0.592086  0.429168  0.797538  1
  H  H211  1  0.515345  0.488972  0.782027  1
  H  H212  1  0.685518  0.341157  0.604920  1
  H  H213  1  0.905540  0.814628  0.534974  1
  H  H214  1  0.407489  0.499190  0.519093  1
  H  H215  1  0.540447  0.448784  0.376722  1
  H  H216  1  0.457038  0.414113  0.368022  1
  H  H217  1  0.348854  0.421980  0.434858  1
  H  H218  1  0.864853  0.519634  0.336479  1
  H  H219  1  0.855023  0.546024  0.388197  1
  H  H220  1  0.608614  0.972983  0.425702  1
  H  H221  1  0.475653  0.984788  0.398732  1
  H  H222  1  0.395987  0.148352  0.519069  1
  H  H223  1  0.444115  0.175793  0.426692  1
  H  H224  1  0.418084  0.138127  0.368620  1
  H  H225  1  0.295795  0.045578  0.495301  1
  H  H226  1  0.159888  0.074102  0.331815  1
  H  H227  1  0.113304  0.066002  0.505393  1
  H  H228  1  0.118235  0.991239  0.458145  1
  H  H229  1  0.049407  0.920641  0.498000  1
  H  H230  1  0.975647  0.924806  0.585103  1
  H  H231  1  0.588304  0.653414  0.519613  1
  H  H232  1  0.301390  0.362495  0.752777  1
  H  H233  1  0.961514  0.756549  0.790012  1
  H  H234  1  0.039396  0.663968  0.842621  1
  H  H235  1  0.098666  0.549527  0.829911  1
  H  H236  1  0.104346  0.522578  0.754878  1
  H  H237  1  0.528291  0.379145  0.528521  1
  H  H238  1  0.068775  0.740111  0.446116  1
  H  H239  1  0.454066  0.481399  0.609219  1
  H  H240  1  0.668682  0.872629  0.387644  1
  H  H241  1  0.510747  0.446645  0.876316  1
  H  H242  1  0.522787  0.370751  0.869509  1
  H  H243  1  0.315570  0.579806  0.357952  1
  H  H244  1  0.429060  0.567705  0.296938  1
  H  H245  1  0.454559  0.670188  0.250798  1
  H  H246  1  0.366567  0.784772  0.265673  1
  H  H247  1  0.119625  0.636075  0.376904  1
  H  H248  1  0.261486  0.499179  0.866538  1
  H  H249  1  0.491154  0.578171  0.574197  1
  H  H250  1  0.963638  0.698155  0.520591  1
  H  H251  1  0.105133  0.954697  0.760608  1
  H  H252  1  0.023747  0.899419  0.784018  1
  H  H253  1  0.058774  0.776856  0.826296  1
  H  H254  1  0.175189  0.709570  0.845165  1
  H  H255  1  0.636872  0.653180  0.410400  1
  H  H256  1  0.569500  0.731476  0.345898  1
  H  H257  1  0.483835  0.704617  0.332071  1
  H  H258  1  0.465541  0.599461  0.382746  1
  H  H259  1  0.289735  0.717030  0.090269  1
  H  H260  1  0.267845  0.650105  0.105006  1
  H  H261  1  0.211955  0.730394  0.084280  1
  H  H262  1  0.358268  0.182392  0.183834  1
  H  H263  1  0.277099  0.205160  0.177387  1
  H  H264  1  0.214960  0.417804  0.898895  1
  H  H265  1  0.884147  0.846447  0.613896  1
  H  H266  1  0.006277  0.948197  0.404325  1
  H  H267  1  0.110222  0.215326  0.421411  1
  H  H268  1  0.554775  0.964631  0.509106  1
  H  H269  1  0.248181  0.605735  0.469918  1
  H  H270  1  0.422034  0.906445  0.284741  1
  H  H271  1  0.683890  0.448372  0.555626  1
  H  H272  1  0.885041  0.590184  0.518053  1
  H  H273  1  0.860661  0.664354  0.534716  1
  H  H274  1  0.128862  0.871805  0.203370  1
  H  H275  1  0.173777  0.852801  0.145108  1
  H  H276  1  0.983885  0.852432  0.456654  1
  H  H277  1  0.897168  0.000943  0.752335  1
  H  H278  1  0.036542  0.146191  0.672087  1
  H  H279  1  0.811980  0.077653  0.611761  1
  H  H280  1  0.730832  0.084246  0.647513  1
  H  H281  1  0.896727  0.068810  0.800044  1
  H  H282  1  0.287436  0.660642  0.780784  1
  H  H283  1  0.535638  0.856681  0.297335  1
  H  H284  1  0.219472  0.414282  0.977730  1
  H  H285  1  0.245481  0.387177  0.032175  1
  H  H286  1  0.303619  0.361894  0.978873  1
  H  H287  1  0.482380  0.814705  0.690597  1
  H  H288  1  0.495592  0.700314  0.745492  1
  H  H289  1  0.572407  0.596259  0.710239  1
  H  H290  1  0.636010  0.606595  0.620090  1
  H  H291  1  0.357616  0.518710  0.020130  1
  H  H292  1  0.296904  0.558052  0.985680  1
  H  H293  1  0.391467  0.993071  0.078826  1
  H  H294  1  0.350628  0.045309  0.120174  1
  H  H295  1  0.480145  0.637536  0.636781  1
  H  H296  1  0.879440  0.419095  0.517534  1
  H  H297  1  0.857487  0.462048  0.562707  1
  H  H298  1  0.975659  0.128884  0.766653  1
  H  H299  1  0.690490  0.754353  0.440242  1
  H  H300  1  0.389199  0.173960  0.046560  1
  H  H301  1  0.402224  0.211676  0.080875  1
  H  H302  1  0.320542  0.233860  0.077194  1
  H  H303  1  0.705275  0.901229  0.810352  1
  H  H304  1  0.651850  0.984884  0.808991  1
  H  H305  1  0.156151  0.473047  0.501536  1
  H  H306  1  0.371610  0.055138  0.204607  1
  H  H307  1  0.321226  0.098782  0.251491  1
  H  H308  1  0.762931  0.189061  0.608849  1
  H  H309  1  0.791312  0.160552  0.662304  1
  H  H310  1  0.426048  0.611824  0.722074  1
  H  H311  1  0.754621  0.504261  0.396454  1
  H  H312  1  0.817678  0.423625  0.403432  1
  H  H313  1  0.230240  0.674654  0.963256  1
  H  H314  1  0.240981  0.742854  0.919417  1
  H  H315  1  0.374976  0.408062  0.998834  1
  H  H316  1  0.307913  0.440602  0.046962  1
  H  H317  1  0.308904  0.936942  0.131136  1
  H  H318  1  0.279185  0.013782  0.091857  1
  H  H319  1  0.202869  0.379026  0.829075  1
  H  H320  1  0.918979  0.872477  0.834031  1
  H  H321  1  0.854583  0.844095  0.857069  1
  H  H322  1  0.857995  0.893225  0.887596  1
  H  H323  1  0.032116  0.434589  0.378773  1
  H  H324  1  0.993121  0.498450  0.333938  1
  H  H325  1  0.968892  0.509484  0.393831  1
  H  H326  1  0.569399  0.371394  0.696328  1
  H  H327  1  0.631400  0.378878  0.710885  1
  H  H328  1  0.558590  0.448951  0.699273  1
  H  H329  1  0.266535  0.777733  0.976010  1
  H  H330  1  0.200561  0.753840  0.012433  1
  H  H331  1  0.968750  0.684178  0.364869  1
  H  H332  1  0.969984  0.748498  0.380517  1
  H  H333  1  0.893910  0.753200  0.377942  1
  H  H334  1  0.217550  0.168511  0.433177  1
  H  H335  1  0.860719  0.649755  0.436157  1
  H  H336  1  0.818798  0.726771  0.453170  1
  H  H337  1  0.999334  0.503684  0.592619  1
  H  H338  1  0.932011  0.481969  0.605478  1
  H  H339  1  0.014279  0.420821  0.601012  1
  H  H340  1  0.421078  0.949017  0.571546  1
  H  H341  1  0.562081  0.897255  0.660505  1
  H  H342  1  0.486665  0.004878  0.691374  1
  H  H343  1  0.378454  0.084571  0.662330  1
  H  H344  1  0.024229  0.603904  0.584735  1
  H  H345  1  0.109088  0.536361  0.427028  1
  H  H346  1  0.561034  0.896091  0.354175  1
  H  H347  1  0.286600  0.837212  0.178178  1
  H  H348  1  0.237341  0.917582  0.148941  1
  H  H349  1  0.491193  0.965078  0.090432  1
  H  H350  1  0.513126  0.927213  0.146880  1
  H  H351  1  0.459778  0.011349  0.135150  1
  H  H352  1  0.824145  0.754827  0.792042  1
  H  H353  1  0.848192  0.729661  0.736910  1
  H  H354  1  0.638027  0.745176  0.714488  1
  H  H355  1  0.674438  0.682860  0.761063  1
  H  H356  1  0.613648  0.760123  0.773201  1
  H  H357  1  0.303216  0.675582  0.210045  1
  H  H358  1  0.302948  0.723824  0.150586  1
  H  H359  1  0.321149  0.745531  0.192483  1
  H  H360  1  0.749509  0.695083  0.796458  1
  H  H361  1  0.698497  0.777254  0.802704  1
  H  H362  1  0.983104  0.389836  0.551296  1
  H  H363  1  0.997331  0.414772  0.487846  1
  H  H364  1  0.591327  0.181487  0.692664  1
  H  H365  1  0.644038  0.163888  0.635924  1
  H  H366  1  0.663831  0.107633  0.690042  1
  H  H367  1  0.720359  0.005750  0.834302  1
  H  H368  1  0.740406  0.924112  0.863219  1
  H  H369  1  0.703928  0.326942  0.173749  1
  H  H370  1  0.749385  0.367958  0.174359  1
  H  H371  1  0.787502  0.307048  0.139846  1
  H  H372  1  0.742722  0.277516  0.252728  1
  H  H373  1  0.738822  0.113634  0.217930  1
  H  H374  1  0.632502  0.138546  0.189228  1
  H  H375  1  0.612714  0.187997  0.229199  1
  H  H376  1  0.622162  0.221250  0.166242  1
  H  H377  1  0.876451  0.226507  0.211254  1
  H  H378  1  0.807755  0.181472  0.976266  1
  H  H379  1  0.742313  0.177351  0.028013  1
  H  H380  1  0.761435  0.246983  0.006958  1
  H  H381  1  0.859551  0.104124  0.051237  1
  H  H382  1  0.929065  0.384114  0.954606  1
  H  H383  1  0.912838  0.339022  0.928506  1
  H  H384  1  0.846694  0.391873  0.965969  1
  H  H385  1  0.962915  0.262719  0.997391  1
  H  H386  1  0.896518  0.393644  0.074331  1
  H  H387  1  0.205332  0.793644  0.489172  1
  H  H388  1  0.227676  0.708531  0.500001  1
  H  H389  1  0.229634  0.741586  0.543156  1
  H  H390  1  0.327291  0.740509  0.437905  1
  H  H391  1  0.335524  0.658245  0.531356  1
  H  H392  1  0.344854  0.899763  0.476667  1
  H  H393  1  0.242157  0.014925  0.472375  1
  H  H394  1  0.252546  0.970869  0.431562  1
  H  H395  1  0.189931  0.973999  0.486162  1
  H  H396  1  0.273044  0.870518  0.649883  1
  H  H397  1  0.145753  0.917131  0.694688  1
  H  H398  1  0.155159  0.960493  0.633683  1
  H  H399  1  0.124838  0.898678  0.652486  1
  H  H400  1  0.239065  0.663979  0.726613  1
  H  H401  1  0.132800  0.638327  0.748008  1
  H  H402  1  0.103913  0.719485  0.754194  1
  H  H403  1  0.100599  0.705245  0.701858  1
  H  H404  1  0.178655  0.611478  0.654875  1
  Pd  Pd405  1  0.827100  0.537740  0.133450  1
  Pd  Pd406  1  0.808850  0.919280  0.083540  1
  Pd  Pd407  1  0.276490  0.465020  0.541460  1
  Pd  Pd408  1  0.292320  0.081560  0.593610  1
  C  C409  1  0.148700  0.261100  0.028600  1
  C  C410  1  0.678500  0.669400  0.005200  1
  C  C411  1  0.108200  0.335800  0.038600  1
  C  C412  1  0.783500  0.525900  0.887000  1
  C  C413  1  0.109800  0.339700  0.082700  1
  C  C414  1  0.721500  0.860700  0.183200  1
  C  C415  1  0.701800  0.838200  0.238500  1
  C  C416  1  0.718700  0.861600  0.271500  1
  C  C417  1  0.755400  0.907400  0.249200  1
  C  C418  1  0.775100  0.929900  0.193900  1
  C  C419  1  0.605200  0.549700  0.268500  1
  C  C420  1  0.474100  0.279600  0.127900  1
  C  C421  1  0.823700  0.027100  0.377300  1
  C  C422  1  0.899900  0.844900  0.268800  1
  C  C423  1  0.576900  0.298900  0.967600  1
  C  C424  1  0.870700  0.181000  0.346500  1
  C  C425  1  0.838600  0.905400  0.293500  1
  C  C426  1  0.988500  0.447700  0.229700  1
  C  C427  1  0.847100  0.027500  0.453800  1
  C  C428  1  0.778800  0.560200  0.920400  1
  C  C429  1  0.505300  0.284400  0.078300  1
  C  C430  1  0.655200  0.566500  0.276400  1
  C  C431  1  0.711500  0.386300  0.372400  1
  C  C432  1  0.521500  0.151100  0.142000  1
  C  C433  1  0.939200  0.172800  0.315200  1
  C  C434  1  0.137600  0.965100  0.994400  1
  C  C435  1  0.834200  0.312500  0.326300  1
  C  C436  1  0.730000  0.557700  0.971000  1
  C  C437  1  0.030400  0.129200  0.889700  1
  C  C438  1  0.483800  0.522600  0.168000  1
  C  C439  1  0.778000  0.380100  0.336900  1
  C  C440  1  0.817300  0.249800  0.355800  1
  C  C441  1  0.063500  0.925700  0.069100  1
  C  C442  1  0.762400  0.909900  0.458900  1
  C  C443  1  0.448300  0.203100  0.218400  1
  C  C444  1  0.532800  0.551300  0.175900  1
  C  C445  1  0.566500  0.437700  0.242900  1
  C  C446  1  0.516300  0.418400  0.237300  1
  C  C447  1  0.509900  0.354100  0.267900  1
  C  C448  1  0.553700  0.309100  0.304200  1
  C  C449  1  0.603900  0.328400  0.309800  1
  C  C450  1  0.610300  0.392700  0.279100  1
  C  C451  1  0.829400  0.991000  0.429900  1
  C  C452  1  0.687900  0.526500  0.187700  1
  C  C453  1  0.674000  0.700200  0.045600  1
  C  C454  1  0.674100  0.416000  0.974900  1
  C  C455  1  0.935100  0.113000  0.459900  1
  C  C456  1  0.548300  0.222800  0.054400  1
  C  C457  1  0.940000  0.490600  0.193700  1
  C  C458  1  0.299400  0.520300  0.269800  1
  C  C459  1  0.101100  0.013900  0.075800  1
  C  C460  1  0.035600  0.522600  0.980900  1
  C  C461  1  0.877000  0.414800  0.220700  1
  C  C462  1  0.574500  0.506200  0.211100  1
  C  C463  1  0.949700  0.904100  0.086400  1
  C  C464  1  0.955000  0.895100  0.932400  1
  C  C465  1  0.102700  0.052700  0.108200  1
  C  C466  1  0.806300  0.990300  0.345100  1
  C  C467  1  0.746300  0.438700  0.863700  1
  C  C468  1  0.783500  0.363800  0.871100  1
  C  C469  1  0.795600  0.329200  0.832200  1
  C  C470  1  0.770400  0.369400  0.785900  1
  C  C471  1  0.733200  0.444300  0.778500  1
  C  C472  1  0.721100  0.478900  0.817400  1
  C  C473  1  0.101600  0.926400  0.019000  1
  C  C474  1  0.356400  0.469800  0.192000  1
  C  C475  1  0.112700  0.305200  0.943300  1
  C  C476  1  0.117000  0.290600  0.896400  1
  C  C477  1  0.079400  0.345500  0.859100  1
  C  C478  1  0.037400  0.415100  0.868700  1
  C  C479  1  0.033000  0.429700  0.915500  1
  C  C480  1  0.070700  0.374800  0.952900  1
  C  C481  1  0.823600  0.245600  0.850300  1
  C  C482  1  0.081600  0.155400  0.244100  1
  C  C483  1  0.712900  0.000100  0.308000  1
  C  C484  1  0.730300  0.023200  0.340900  1
  C  C485  1  0.677000  0.079900  0.365700  1
  C  C486  1  0.606100  0.113600  0.357600  1
  C  C487  1  0.588700  0.090500  0.324700  1
  C  C488  1  0.642100  0.033800  0.299900  1
  C  C489  1  0.065300  0.086600  0.273700  1
  C  C490  1  0.430900  0.347400  0.149200  1
  C  C491  1  0.013800  0.971600  0.154300  1
  C  C492  1  0.944900  0.968600  0.900700  1
  C  C493  1  0.704600  0.507000  0.987400  1
  C  C494  1  0.913600  0.128900  0.886000  1
  C  C495  1  0.020200  0.878700  0.097200  1
  C  C496  1  0.470600  0.377100  0.163600  1
  C  C497  1  0.887200  0.024500  0.925600  1
  C  C498  1  0.587500  0.232900  0.999000  1
  C  C499  1  0.532300  0.623400  0.145200  1
  C  C500  1  0.697400  0.323900  0.398400  1
  C  C501  1  0.769200  0.933800  0.289200  1
  C  C502  1  0.177700  0.206900  0.067700  1
  C  C503  1  0.178600  0.965200  0.936800  1
  C  C504  1  0.139600  0.012000  0.023200  1
  C  C505  1  0.770000  0.550000  0.674600  1
  C  C506  1  0.836400  0.280300  0.727800  1
  C  C507  1  0.958300  0.230600  0.284200  1
  C  C508  1  0.445800  0.571300  0.122300  1
  C  C509  1  0.928600  0.806400  0.132500  1
  C  C510  1  0.893400  0.202400  0.859600  1
  C  C511  1  0.530200  0.360500  0.990500  1
  C  C512  1  0.031300  0.226400  0.245800  1
  C  C513  1  0.560200  0.158000  0.083100  1
  C  C514  1  0.498400  0.355500  0.040700  1
  C  C515  1  0.007700  0.204900  0.860400  1
  C  C516  1  0.253000  0.322000  0.230500  1
  C  C517  1  0.661100  0.495600  0.049500  1
  C  C518  1  0.725400  0.599200  0.006300  1
  C  C519  1  0.531200  0.080000  0.173800  1
  C  C520  1  0.753500  0.480000  0.900200  1
  C  C521  1  0.705700  0.464900  0.954700  1
  C  C522  1  0.630500  0.446500  0.064500  1
  C  C523  1  0.633200  0.406100  0.031700  1
  C  C524  1  0.743900  0.489500  0.687400  1
  C  C525  1  0.151800  0.246000  0.982000  1
  C  C526  1  0.143100  0.285400  0.120100  1
  C  C527  1  0.170700  0.929500  0.909900  1
  C  C528  1  0.474900  0.466200  0.195200  1
  C  C529  1  0.861700  0.613000  0.850500  1
  C  C530  1  0.874200  0.095700  0.897600  1
  C  C531  1  0.622400  0.528400  0.222600  1
  C  C532  1  0.498100  0.660300  0.106500  1
  C  C533  1  0.132200  0.884200  0.936000  1
  C  C534  1  0.100000  0.885400  0.985800  1
  C  C535  1  0.916300  0.882900  0.982300  1
  C  C536  1  0.985900  0.094300  0.900700  1
  C  C537  1  0.462300  0.634500  0.093300  1
  C  C538  1  0.668800  0.211700  0.852300  1
  C  C539  1  0.710500  0.247100  0.844400  1
  C  C540  1  0.739700  0.794900  0.595800  1
  C  C541  1  0.356400  0.387500  0.156100  1
  C  C542  1  0.040700  0.809200  0.130000  1
  C  C543  1  0.431300  0.438700  0.181500  1
  C  C544  1  0.759700  0.850700  0.507000  1
  C  C545  1  0.966300  0.387300  0.267500  1
  C  C546  1  0.475200  0.214300  0.163400  1
  C  C547  1  0.692500  0.132900  0.875800  1
  C  C548  1  0.853500  0.004300  0.976000  1
  C  C549  1  0.990800  0.585400  0.995200  1
  C  C550  1  0.451600  0.138100  0.251100  1
  C  C551  1  0.606400  0.577100  0.819200  1
  C  C552  1  0.221000  0.553000  0.148700  1
  C  C553  1  0.743100  0.261500  0.391800  1
  C  C554  1  0.810000  0.262000  0.495700  1
  C  C555  1  0.073400  0.388500  0.999200  1
  C  C556  1  0.185400  0.054200  0.996400  1
  C  C557  1  0.261300  0.022300  0.977300  1
  C  C558  1  0.301800  0.064700  0.955600  1
  C  C559  1  0.266200  0.138900  0.953000  1
  C  C560  1  0.190300  0.170800  0.972000  1
  C  C561  1  0.149800  0.128500  0.993700  1
  C  C562  1  0.316200  0.452900  0.176700  1
  C  C563  1  0.002900  0.020300  0.181200  1
  C  C564  1  0.668000  0.042800  0.081700  1
  C  C565  1  0.601600  0.088000  0.066900  1
  C  C566  1  0.582500  0.072000  0.030800  1
  C  C567  1  0.629800  0.010700  0.009500  1
  C  C568  1  0.696200  0.965500  0.024200  1
  C  C569  1  0.853900  0.935500  0.321600  1
  C  C570  1  0.935000  0.903500  0.324400  1
  C  C571  1  0.560400  0.574100  0.881800  1
  C  C572  1  0.780000  0.214700  0.856800  1
  C  C573  1  0.855300  0.116300  0.377900  1
  C  C574  1  0.830900  0.529000  0.830100  1
  C  C575  1  0.872300  0.568100  0.821600  1
  C  C576  1  0.911500  0.372400  0.260000  1
  C  C577  1  0.246800  0.357000  0.170100  1
  C  C578  1  0.855300  0.087700  0.430900  1
  C  C579  1  0.756200  0.101700  0.891600  1
  C  C580  1  0.975400  0.817900  0.268500  1
  C  C581  1  0.799200  0.979700  0.551900  1
  C  C582  1  0.493400  0.078600  0.230900  1
  C  C583  1  0.713500  0.662300  0.080300  1
  C  C584  1  0.928200  0.592000  0.043800  1
  C  C585  1  0.719000  0.032600  0.548400  1
  C  C586  1  0.146900  0.573000  0.138900  1
  C  C587  1  0.059200  0.969500  0.100400  1
  C  C588  1  0.962800  0.469000  0.054300  1
  C  C589  1  0.515500  0.614300  0.953100  1
  C  C590  1  0.825700  0.603500  0.899500  1
  C  C591  1  0.108000  0.539000  0.311600  1
  C  C592  1  0.767100  0.563300  0.048000  1
  C  C593  1  0.994800  0.775500  0.146500  1
  C  C594  1  0.809100  0.255100  0.700900  1
  C  C595  1  0.832600  0.087100  0.354000  1
  C  C596  1  0.721200  0.562000  0.238200  1
  C  C597  1  0.942600  0.237800  0.845300  1
  C  C598  1  0.915000  0.169700  0.491900  1
  C  C599  1  0.181100  0.212900  0.113200  1
  C  C600  1  0.653900  0.167400  0.536400  1
  C  C601  1  0.406000  0.816000  0.946500  1
  C  C602  1  0.296000  0.085000  0.792000  1
  C  C603  1  0.896300  0.306100  0.290200  1
  C  C604  1  0.022300  0.462800  0.010500  1
  C  C605  1  0.321000  0.296700  0.307400  1
  C  C606  1  0.388000  0.231000  0.899800  1
  C  C607  1  0.246000  0.498200  0.296700  1
  C  C608  1  0.998000  0.100600  0.307000  1
  C  C609  1  0.856000  0.578000  0.683000  1
  C  C610  1  0.052100  0.058600  0.157500  1
  C  C611  1  0.803800  0.134700  0.884000  1
  C  C612  1  0.985000  0.856000  0.296200  1
  C  C613  1  0.343800  0.189500  0.946300  1
  C  C614  1  0.456000  0.294000  0.877000  1
  C  C615  1  0.325000  0.912100  0.019600  1
  C  C616  1  0.100000  0.534000  0.098000  1
  C  C617  1  0.853000  0.292000  0.608300  1
  C  C618  1  0.387000  0.040000  0.840600  1
  C  C619  1  0.372000  0.830200  0.032200  1
  C  C620  1  0.405000  0.008000  0.895300  1
  C  C621  1  0.185400  0.123000  0.692400  1
  C  C622  1  0.143300  0.110900  0.744200  1
  C  C623  1  0.156300  0.040500  0.773500  1
  C  C624  1  0.211300  0.982200  0.751000  1
  C  C625  1  0.253400  0.994400  0.699200  1
  C  C626  1  0.950900  0.871800  0.682300  1
  C  C627  1  0.112000  0.896400  0.368800  1
  C  C628  1  0.303900  0.864200  0.793900  1
  C  C629  1  0.328300  0.789800  0.813700  1
  C  C630  1  0.396300  0.750700  0.826700  1
  C  C631  1  0.440000  0.786000  0.819900  1
  C  C632  1  0.415600  0.860400  0.800200  1
  C  C633  1  0.347600  0.899500  0.787100  1
  C  C634  1  0.195900  0.699900  0.384100  1
  C  C635  1  0.265500  0.920400  0.322600  1
  C  C636  1  0.331400  0.444500  0.631600  1
  C  C637  1  0.378000  0.409000  0.666400  1
  C  C638  1  0.428800  0.337900  0.665800  1
  C  C639  1  0.433200  0.302300  0.630300  1
  C  C640  1  0.386600  0.337800  0.595400  1
  C  C641  1  0.120400  0.154700  0.372200  1
  C  C642  1  0.172400  0.202300  0.539500  1
  C  C643  1  0.104900  0.231700  0.526500  1
  C  C644  1  0.061200  0.192800  0.546700  1
  C  C645  1  0.084800  0.124500  0.579700  1
  C  C646  1  0.152300  0.095100  0.592600  1
  C  C647  1  0.250300  0.886500  0.296000  1
  C  C648  1  0.628900  0.542600  0.474100  1
  C  C649  1  0.182700  0.638400  0.416800  1
  C  C650  1  0.238900  0.070400  0.354500  1
  C  C651  1  0.369300  0.980800  0.334600  1
  C  C652  1  0.618700  0.792600  0.511900  1
  C  C653  1  0.241000  0.919300  0.246600  1
  C  C654  1  0.038300  0.613200  0.675100  1
  C  C655  1  0.000400  0.669600  0.638500  1
  C  C656  1  0.959200  0.738600  0.649300  1
  C  C657  1  0.955800  0.751200  0.696800  1
  C  C658  1  0.993700  0.694800  0.733400  1
  C  C659  1  0.034900  0.625800  0.722500  1
  C  C660  1  0.603300  0.349500  0.568700  1
  C  C661  1  0.671800  0.566000  0.485800  1
  C  C662  1  0.144900  0.535500  0.615900  1
  C  C663  1  0.083600  0.539700  0.658400  1
  C  C664  1  0.068200  0.478700  0.684700  1
  C  C665  1  0.114300  0.413500  0.668400  1
  C  C666  1  0.175700  0.409300  0.625800  1
  C  C667  1  0.540700  0.438500  0.800500  1
  C  C668  1  0.656400  0.369700  0.579400  1
  C  C669  1  0.926300  0.777000  0.562700  1
  C  C670  1  0.918100  0.827600  0.702400  1
  C  C671  1  0.389600  0.008500  0.367800  1
  C  C672  1  0.417500  0.481900  0.488400  1
  C  C673  1  0.481800  0.477200  0.448700  1
  C  C674  1  0.496500  0.452000  0.403900  1
  C  C675  1  0.447000  0.431400  0.398700  1
  C  C676  1  0.382700  0.436100  0.438400  1
  C  C677  1  0.863100  0.505000  0.375200  1
  C  C678  1  0.611200  0.927000  0.447600  1
  C  C679  1  0.360900  0.528000  0.773900  1
  C  C680  1  0.150200  0.763500  0.390700  1
  C  C681  1  0.462400  0.971800  0.375300  1
  C  C682  1  0.385400  0.133100  0.495500  1
  C  C683  1  0.414000  0.149400  0.440600  1
  C  C684  1  0.398500  0.127000  0.406100  1
  C  C685  1  0.354500  0.088300  0.426500  1
  C  C686  1  0.325900  0.072000  0.481400  1
  C  C687  1  0.172700  0.095300  0.349800  1
  C  C688  1  0.407100  0.496600  0.682400  1
  C  C689  1  0.041500  0.039800  0.573300  1
  C  C690  1  0.085400  0.037300  0.521600  1
  C  C691  1  0.088300  0.992900  0.493500  1
  C  C692  1  0.047400  0.951000  0.517200  1
  C  C693  1  0.003600  0.953500  0.568900  1
  C  C694  1  0.000700  0.997900  0.597000  1
  C  C695  1  0.396600  0.534200  0.718900  1
  C  C696  1  0.302200  0.011400  0.326600  1
  C  C697  1  0.786300  0.561400  0.496300  1
  C  C698  1  0.752200  0.622900  0.514300  1
  C  C699  1  0.640500  0.629900  0.510500  1
  C  C700  1  0.290500  0.395100  0.773700  1
  C  C701  1  0.915500  0.951600  0.677100  1
  C  C702  1  0.991500  0.710300  0.781200  1
  C  C703  1  0.035300  0.654500  0.812800  1
  C  C704  1  0.073100  0.586800  0.804200  1
  C  C705  1  0.075700  0.570500  0.760700  1
  C  C706  1  0.563900  0.391200  0.531700  1
  C  C707  1  0.674600  0.656700  0.520700  1
  C  C708  1  0.552700  0.852400  0.582700  1
  C  C709  1  0.081300  0.779800  0.424900  1
  C  C710  1  0.444100  0.510800  0.632400  1
  C  C711  1  0.266700  0.015500  0.244400  1
  C  C712  1  0.165200  0.830600  0.363300  1
  C  C713  1  0.649000  0.866200  0.425300  1
  C  C714  1  0.501700  0.423700  0.855400  1
  C  C715  1  0.372700  0.556400  0.894400  1
  C  C716  1  0.380400  0.525500  0.857000  1
  C  C717  1  0.288800  0.750400  0.320600  1
  C  C718  1  0.273700  0.689500  0.348100  1
  C  C719  1  0.325900  0.621400  0.339200  1
  C  C720  1  0.393300  0.614200  0.303000  1
  C  C721  1  0.408500  0.675100  0.275600  1
  C  C722  1  0.356200  0.743200  0.284400  1
  C  C723  1  0.142700  0.611200  0.406100  1
  C  C724  1  0.270500  0.470300  0.843300  1
  C  C725  1  0.469700  0.565900  0.611200  1
  C  C726  1  0.963500  0.707200  0.552200  1
  C  C727  1  0.539200  0.498300  0.453400  1
  C  C728  1  0.347100  0.561400  0.811900  1
  C  C729  1  0.209300  0.792200  0.814100  1
  C  C730  1  0.188500  0.865000  0.789000  1
  C  C731  1  0.119400  0.904900  0.777800  1
  C  C732  1  0.071000  0.872100  0.791700  1
  C  C733  1  0.091800  0.799300  0.816800  1
  C  C734  1  0.161000  0.759300  0.828000  1
  C  C735  1  0.237900  0.900100  0.778300  1
  C  C736  1  0.591200  0.579800  0.434900  1
  C  C737  1  0.602100  0.642300  0.404800  1
  C  C738  1  0.562100  0.688800  0.366500  1
  C  C739  1  0.511200  0.672800  0.358300  1
  C  C740  1  0.500300  0.610400  0.388400  1
  C  C741  1  0.540300  0.563900  0.426700  1
  C  C742  1  0.264000  0.697000  0.080900  1
  C  C743  1  0.327200  0.166000  0.176300  1
  C  C744  1  0.237900  0.428500  0.862000  1
  C  C745  1  0.575800  0.454400  0.496700  1
  C  C746  1  0.915600  0.798700  0.608400  1
  C  C747  1  0.044400  0.901300  0.402400  1
  C  C748  1  0.145900  0.176400  0.404400  1
  C  C749  1  0.580900  0.921500  0.495700  1
  C  C750  1  0.219800  0.590900  0.460100  1
  C  C751  1  0.431100  0.923300  0.308200  1
  C  C752  1  0.655900  0.429400  0.549600  1
  C  C753  1  0.333400  0.059500  0.395600  1
  C  C754  1  0.746900  0.530400  0.482300  1
  C  C755  1  0.850000  0.641700  0.514500  1
  C  C756  1  0.178100  0.846700  0.181400  1
  C  C757  1  0.029800  0.846300  0.431400  1
  C  C758  1  0.280300  0.751000  0.827000  1
  C  C759  1  0.924200  0.030500  0.735300  1
  C  C760  1  0.251700  0.985900  0.214700  1
  C  C761  1  0.276900  0.988700  0.296500  1
  C  C762  1  0.009900  0.116300  0.687300  1
  C  C763  1  0.620300  0.469200  0.510400  1
  C  C764  1  0.775000  0.091100  0.644900  1
  C  C765  1  0.361700  0.451100  0.705700  1
  C  C766  1  0.006300  0.079500  0.657100  1
  C  C767  1  0.958000  0.997100  0.651700  1
  C  C768  1  0.926300  0.069000  0.764500  1
  C  C769  1  0.842400  0.980700  0.695300  1
  C  C770  1  0.233200  0.820900  0.326200  1
  C  C771  1  0.313700  0.633500  0.808100  1
  C  C772  1  0.497600  0.894100  0.315100  1
  C  C773  1  0.260000  0.401900  0.993100  1
  C  C774  1  0.597000  0.716800  0.601800  1
  C  C775  1  0.551300  0.778600  0.622700  1
  C  C776  1  0.513600  0.772500  0.676300  1
  C  C777  1  0.521400  0.704500  0.708900  1
  C  C778  1  0.567000  0.642700  0.688000  1
  C  C779  1  0.604800  0.648800  0.634400  1
  C  C780  1  0.342900  0.515000  0.991200  1
  C  C781  1  0.044600  0.082300  0.601100  1
  C  C782  1  0.363800  0.996000  0.116300  1
  C  C783  1  0.461300  0.601400  0.648500  1
  C  C784  1  0.886200  0.456400  0.525800  1
  C  C785  1  0.970900  0.107800  0.743700  1
  C  C786  1  0.659600  0.796200  0.455100  1
  C  C787  1  0.368900  0.193800  0.078800  1
  C  C788  1  0.634000  0.722800  0.543400  1
  C  C789  1  0.704000  0.951000  0.798700  1
  C  C790  1  0.167900  0.512400  0.478000  1
  C  C791  1  0.325000  0.096300  0.215100  1
  C  C792  1  0.312400  0.673900  0.839400  1
  C  C793  1  0.581800  0.858800  0.531100  1
  C  C794  1  0.959900  0.032800  0.681700  1
  C  C795  1  0.757000  0.161000  0.646100  1
  C  C796  1  0.428900  0.587000  0.698200  1
  C  C797  1  0.261500  0.094000  0.388500  1
  C  C798  1  0.325600  0.439900  0.756700  1
  C  C799  1  0.336600  0.630000  0.887800  1
  C  C800  1  0.800500  0.473000  0.409100  1
  C  C801  1  0.260900  0.702900  0.948700  1
  C  C802  1  0.328900  0.450500  0.007900  1
  C  C803  1  0.297500  0.989000  0.125000  1
  C  C804  1  0.238500  0.397500  0.821900  1
  C  C805  1  0.804900  0.931300  0.721800  1
  C  C806  1  0.867000  0.884500  0.852400  1
  C  C807  1  0.986000  0.474000  0.371900  1
  C  C808  1  0.578300  0.397000  0.714900  1
  C  C809  1  0.253000  0.735700  0.992700  1
  C  C810  1  0.941500  0.720500  0.387100  1
  C  C811  1  0.207200  0.150000  0.411500  1
  C  C812  1  0.859900  0.678500  0.458000  1
  C  C813  1  0.984000  0.471000  0.587000  1
  C  C814  1  0.434400  0.960400  0.595900  1
  C  C815  1  0.498700  0.913000  0.613100  1
  C  C816  1  0.518100  0.929600  0.648700  1
  C  C817  1  0.473400  0.993500  0.667100  1
  C  C818  1  0.409100  0.040900  0.649800  1
  C  C819  1  0.318500  0.480600  0.792800  1
  C  C820  1  0.999700  0.652400  0.589500  1
  C  C821  1  0.137100  0.553100  0.435400  1
  C  C822  1  0.512400  0.918600  0.349200  1
  C  C823  1  0.843000  0.857600  0.717600  1
  C  C824  1  0.236300  0.875700  0.178900  1
  C  C825  1  0.474000  0.964000  0.129000  1
  C  C826  1  0.807600  0.762300  0.760300  1
  C  C827  1  0.655000  0.735000  0.746300  1
  C  C828  1  0.292000  0.725000  0.188300  1
  C  C829  1  0.737700  0.746400  0.777700  1
  C  C830  1  0.969000  0.432100  0.521600  1
  C  C831  1  0.643000  0.159000  0.673000  1
  C  C832  1  0.749700  0.956000  0.827800  1
  C  C833  1  0.753000  0.322000  0.173000  1
  C  C834  1  0.777000  0.269000  0.217000  1
  C  C835  1  0.798000  0.195000  0.206000  1
  C  C836  1  0.724000  0.154100  0.187000  1
  C  C837  1  0.640000  0.178000  0.194000  1
  C  C838  1  0.771000  0.126600  0.136000  1
  C  C839  1  0.899700  0.185200  0.024300  1
  C  C840  1  0.782000  0.194300  0.011400  1
  C  C841  1  0.837500  0.158000  0.047700  1
  C  C842  1  0.899000  0.358000  0.960200  1
  C  C843  1  0.911000  0.297000  0.008200  1
  C  C844  1  0.906000  0.312000  0.058700  1
  C  C845  1  0.238000  0.745000  0.504900  1
  C  C846  1  0.317000  0.734000  0.477500  1
  C  C847  1  0.336000  0.786000  0.493200  1
  C  C848  1  0.294000  0.905000  0.497400  1
  C  C849  1  0.240000  0.972000  0.469400  1
  C  C850  1  0.286000  0.903400  0.555600  1
  C  C851  1  0.239000  0.856000  0.643600  1
  C  C852  1  0.159000  0.913000  0.657400  1
  C  C853  1  0.247000  0.781000  0.677700  1
  C  C854  1  0.207000  0.686000  0.701000  1
  C  C855  1  0.129000  0.687000  0.728800  1
  C  C856  1  0.241000  0.649100  0.654200  1
  N  N857  1  0.736900  0.542100  0.191100  1
  N  N858  1  0.758200  0.906500  0.160900  1
  N  N859  1  0.918100  0.532500  0.072500  1
  N  N860  1  0.903100  0.872600  0.103400  1
  N  N861  1  0.889000  0.476200  0.185100  1
  N  N862  1  0.762500  0.598400  0.082200  1
  N  N863  1  0.715300  0.981500  0.060400  1
  N  N864  1  0.861000  0.935800  0.006900  1
  N  N865  1  0.240400  0.064800  0.669900  1
  N  N866  1  0.335800  0.408900  0.596100  1
  N  N867  1  0.215400  0.530400  0.485100  1
  N  N868  1  0.196100  0.134000  0.572500  1
  N  N869  1  0.191000  0.470200  0.599600  1
  N  N870  1  0.368000  0.461300  0.483300  1
  N  N871  1  0.341400  0.094400  0.515900  1
  N  N872  1  0.389600  0.024300  0.614200  1
  N  N873  1  0.582100  0.753800  0.212600  1
  N  N874  1  0.061000  0.285000  0.671500  1
  N  N875  1  0.507000  0.261500  0.460500  1
  N  N876  1  0.060000  0.713200  0.011700  1
  N  N877  1  0.875000  0.661000  0.242100  1
  O  O878  1  0.682000  0.553300  0.813700  1
  O  O879  1  0.317100  0.535500  0.211900  1
  O  O880  1  0.826900  0.926300  0.457600  1
  O  O881  1  0.866400  0.123400  0.457900  1
  O  O882  1  0.767000  0.338100  0.750600  1
  O  O883  1  0.704400  0.485200  0.737100  1
  O  O884  1  0.856000  0.991400  0.509200  1
  O  O885  1  0.237200  0.482700  0.186200  1
  O  O886  1  0.291100  0.195500  0.924000  1
  O  O887  1  0.319800  0.355200  0.141100  1
  O  O888  1  0.301700  0.946400  0.979500  1
  O  O889  1  0.885200  0.244500  0.468800  1
  O  O890  1  0.379400  0.038100  0.942300  1
  O  O891  1  0.166700  0.559700  0.290900  1
  O  O892  1  0.737900  0.867800  0.551000  1
  O  O893  1  0.266000  0.326000  0.275000  1
  O  O894  1  0.556700  0.615600  0.904900  1
  O  O895  1  0.790200  0.299200  0.651400  1
  O  O896  1  0.830900  0.524000  0.694400  1
  O  O897  1  0.169000  0.535100  0.095500  1
  O  O898  1  0.721000  0.101100  0.544900  1
  O  O899  1  0.310000  0.080000  0.842200  1
  O  O900  1  0.423000  0.806600  0.985700  1
  O  O901  1  0.443000  0.232000  0.915000  1
  O  O902  1  0.779600  0.646300  0.535400  1
  O  O903  1  0.277100  0.464800  0.979200  1
  O  O904  1  0.270700  0.084800  0.216200  1
  O  O905  1  0.537400  0.382700  0.778400  1
  O  O906  1  0.238600  0.017700  0.169400  1
  O  O907  1  0.861000  0.522000  0.489900  1
  O  O908  1  0.404800  0.515400  0.938400  1
  O  O909  1  0.361800  0.142200  0.122000  1
  O  O910  1  0.805200  0.048200  0.692500  1
  O  O911  1  0.926600  0.444200  0.386300  1
  O  O912  1  0.786600  0.470000  0.462900  1
  O  O913  1  0.330300  0.659600  0.927800  1
  O  O914  1  0.295600  0.687900  0.028700  1
  O  O915  1  0.211300  0.770700  0.206400  1
  O  O916  1  0.685000  0.195300  0.674400  1
  O  O917  1  0.420200  0.449200  0.864600  1
  O  O918  1  0.729100  0.967000  0.741400  1
  O  O919  1  0.788000  0.834000  0.732700  1
  O  O920  1  0.929600  0.685900  0.441200  1
  O  O921  1  0.411400  0.946000  0.150000  1
  O  O922  1  0.199200  0.895900  0.230100  1
  O  O923  1  0.993700  0.482800  0.522800  1
  O  O924  1  0.712400  0.760700  0.731600  1
  O  O925  1  0.823100  0.947000  0.822000  1
  O  O926  1  0.634100  0.751400  0.224100  1
  O  O927  1  0.590000  0.722500  0.180600  1
  O  O928  1  0.522900  0.786700  0.239200  1
  O  O929  1  0.042000  0.286000  0.719500  1
  O  O930  1  0.019000  0.284000  0.650000  1
  O  O931  1  0.121000  0.283000  0.638000  1
  O  O932  1  0.564000  0.228000  0.431500  1
  O  O933  1  0.511600  0.284800  0.492400  1
  O  O934  1  0.448000  0.266700  0.459000  1
  O  O935  1  0.997400  0.718600  0.040700  1
  O  O936  1  0.070500  0.723200  0.962900  1
  O  O937  1  0.115000  0.687000  0.029700  1
  O  O938  1  0.920600  0.652300  0.264100  1
  O  O939  1  0.829200  0.633400  0.265600  1
  O  O940  1  0.895000  0.659000  0.193900  1
  O  O941  1  0.844000  0.269100  0.209200  1
  O  O942  1  0.838200  0.145800  0.217400  1
  O  O943  1  0.722500  0.213200  0.194000  1
  O  O944  1  0.803100  0.174500  0.101200  1
  O  O945  1  0.780000  0.073500  0.122200  1
  O  O946  1  0.963100  0.145600  0.020900  1
  O  O947  1  0.869500  0.258100  0.018600  1
  O  O948  1  0.941000  0.258000  0.087000  1
  O  O949  1  0.868000  0.374000  0.080000  1
  O  O950  1  0.358000  0.670000  0.499700  1
  O  O951  1  0.387000  0.768000  0.511600  1
  O  O952  1  0.279000  0.857000  0.486900  1
  O  O953  1  0.301000  0.938000  0.574500  1
  O  O954  1  0.263600  0.846400  0.588800  1
  O  O955  1  0.296000  0.736000  0.700100  1
  O  O956  1  0.200000  0.756800  0.673400  1
  O  O957  1  0.302000  0.647700  0.630500  1
  O  O958  1  0.209000  0.627000  0.630900  1
