
#######################################################################
#
#                 Cambridge Crystallographic Data Centre
#                                CCDC 
#
#######################################################################
#
# If this CIF has been generated from an entry in the Cambridge 
# Structural Database, then it will include bibliographic, chemical, 
# crystal, experimental, refinement or atomic coordinate data resulting 
# from the CCDC's data processing and validation procedures.
#
#######################################################################

data_WITKIT
_chemical_formula_moiety         
'C84 H64 Co2 Fe2 N20 6+,6(F6 P1 1-),2(C1 H1 Cl3),4(C1 H3 N1 O2)'
_chemical_name_systematic        
"tetrakis(\m~2~-Cyano)-octakis(2,2'-bipyridine)-di-cobalt(iii)-di-iron(ii) hexakis(hexafluorophosphate) chloroform nitromethane solvate"
_symmetry_cell_setting           monoclinic
_symmetry_space_group_name_H-M   'P 21/n'
_symmetry_Int_Tables_number      14
_space_group_name_Hall           '-P 2yn'
loop_
_symmetry_equiv_pos_site_id
_symmetry_equiv_pos_as_xyz
1 x,y,z
2 1/2+x,1/2-y,1/2+z
3 -x,-y,-z
4 1/2-x,1/2+y,1/2-z
_cell_length_a                   14.735(5)
_cell_length_b                   15.429(4)
_cell_length_c                   25.421(3)
_cell_angle_alpha                90
_cell_angle_beta                 95.42(2)
_cell_angle_gamma                90
_cell_volume                     5753.53
_exptl_crystal_colour            'dark red'
_cell_formula_units_Z            2
loop_
_atom_site_label
_atom_site_type_symbol
_atom_site_fract_x
_atom_site_fract_y
_atom_site_fract_z
Co1 Co 0.42602(6) 0.47144(6) 0.62394(3)
Fe1 Fe 0.39652(7) 0.30514(6) 0.45816(3)
N1 N 0.4153(4) 0.4106(4) 0.5590(2)
N2 N 0.5079(4) 0.5497(4) 0.5964(2)
N3 N 0.3282(4) 0.5527(4) 0.6021(2)
N4 N 0.4340(4) 0.5399(4) 0.6880(2)
N5 N 0.3438(4) 0.3846(4) 0.6494(2)
N6 N 0.5157(4) 0.3880(4) 0.6477(2)
N7 N 0.3368(4) 0.2115(4) 0.4969(2)
N8 N 0.2693(4) 0.3490(4) 0.4488(2)
N9 N 0.5160(4) 0.2506(4) 0.4669(2)
N10 N 0.3874(4) 0.2388(4) 0.3910(2)
C1 C 0.4116(5) 0.3692(4) 0.5212(3)
C2 C 0.5492(4) 0.6025(4) 0.5766(2)
C3 C 0.2765(6) 0.5543(6) 0.5571(3)
H1 H 0.2861(6) 0.5120(6) 0.5322(3)
C4 C 0.2107(7) 0.6129(7) 0.5449(4)
H2 H 0.1734(7) 0.6094(7) 0.5134(4)
C5 C 0.2004(8) 0.6783(7) 0.5806(5)
H3 H 0.1569(8) 0.7212(7) 0.5726(5)
C6 C 0.2528(7) 0.6808(7) 0.6271(5)
H4 H 0.2444(7) 0.7239(7) 0.6518(5)
C7 C 0.3203(6) 0.6170(5) 0.6375(3)
C8 C 0.3821(5) 0.6116(5) 0.6855(3)
C9 C 0.3936(7) 0.6736(6) 0.7252(4)
H5 H 0.3578(7) 0.7233(6) 0.7228(4)
C10 C 0.4544(7) 0.6631(7) 0.7661(4)
H6 H 0.4616(7) 0.7053(7) 0.7922(4)
C11 C 0.5064(7) 0.5909(7) 0.7700(3)
H7 H 0.5497(7) 0.5829(7) 0.7986(3)
C12 C 0.4938(6) 0.5276(6) 0.7295(3)
H8 H 0.5280(6) 0.4768(6) 0.7322(3)
C13 C 0.2534(6) 0.3911(6) 0.6471(3)
H9 H 0.2263(6) 0.4445(6) 0.6390(3)
C14 C 0.1995(7) 0.3220(7) 0.6564(4)
H10 H 0.1366(7) 0.3283(7) 0.6552(4)
C15 C 0.2388(9) 0.2447(7) 0.6672(4)
H11 H 0.2025(9) 0.1964(7) 0.6712(4)
C16 C 0.3304(8) 0.2364(6) 0.6724(4)
H12 H 0.3582(8) 0.1841(6) 0.6824(4)
C17 C 0.3824(6) 0.3105(6) 0.6618(3)
C18 C 0.4823(7) 0.3095(6) 0.6622(3)
C19 C 0.5391(8) 0.2404(7) 0.6738(5)
H13 H 0.5148(8) 0.1869(7) 0.6817(5)
C20 C 0.6300(8) 0.2498(8) 0.6737(5)
H14 H 0.6689(8) 0.2038(8) 0.6834(5)
C21 C 0.6642(7) 0.3264(7) 0.6593(4)
H15 H 0.7266(7) 0.3333(7) 0.6576(4)
C22 C 0.6050(6) 0.3946(6) 0.6471(3)
H16 H 0.6292(6) 0.4477(6) 0.6381(3)
C23 C 0.3776(6) 0.1436(5) 0.5202(3)
H17 H 0.4393(6) 0.1348(5) 0.5169(3)
C24 C 0.3315(8) 0.0845(6) 0.5494(4)
H18 H 0.3615(8) 0.0368(6) 0.5652(4)
C25 C 0.2426(9) 0.0982(7) 0.5544(4)
H19 H 0.2111(9) 0.0597(7) 0.5742(4)
C26 C 0.1972(7) 0.1689(7) 0.5304(4)
H20 H 0.1356(7) 0.1782(7) 0.5333(4)
C27 C 0.2475(6) 0.2250(6) 0.5021(3)
C28 C 0.2104(5) 0.3043(6) 0.4762(3)
C29 C 0.1208(7) 0.3340(8) 0.4775(4)
H21 H 0.0803(7) 0.3029(8) 0.4962(4)
C30 C 0.0929(7) 0.4071(8) 0.4520(4)
H22 H 0.0340(7) 0.4277(8) 0.4538(4)
C31 C 0.1520(6) 0.4507(7) 0.4234(4)
H23 H 0.1334(6) 0.4999(7) 0.4042(4)
C32 C 0.2396(6) 0.4201(5) 0.4237(3)
H24 H 0.2803(6) 0.4511(5) 0.4052(3)
C33 C 0.5794(6) 0.2578(5) 0.5070(4)
H25 H 0.5674(6) 0.2949(5) 0.5343(4)
C34 C 0.6603(6) 0.2157(6) 0.5116(4)
H26 H 0.7015(6) 0.2222(6) 0.5413(4)
C35 C 0.6789(7) 0.1626(7) 0.4701(5)
H27 H 0.7331(7) 0.1314(7) 0.4722(5)
C36 C 0.6190(7) 0.1556(7) 0.4267(4)
H28 H 0.6327(7) 0.1218(7) 0.3982(4)
C37 C 0.5356(6) 0.2003(5) 0.4252(3)
C38 C 0.4636(5) 0.1950(5) 0.3813(3)
C39 C 0.4698(7) 0.1549(6) 0.3335(4)
H29 H 0.5227(7) 0.1253(6) 0.3275(4)
C40 C 0.3993(8) 0.1581(6) 0.2949(4)
H30 H 0.4036(8) 0.1321(6) 0.2622(4)
C41 C 0.3227(7) 0.2003(6) 0.3057(3)
H31 H 0.2731(7) 0.2030(6) 0.2802(3)
C42 C 0.3176(6) 0.2391(5) 0.3537(3)
H32 H 0.2637(6) 0.2665(5) 0.3605(3)
C2B C 0.4508(4) 0.3975(4) 0.4234(2)
N2B N 0.4921(4) 0.4503(4) 0.4036(2)
Co1B Co 0.57398(6) 0.52856(6) 0.37606(3)
N1B N 0.5847(4) 0.5894(4) 0.4410(2)
C1B C 0.5884(5) 0.6308(4) 0.4788(3)
Fe1B Fe 0.60348(7) 0.69486(6) 0.54184(3)
N7B N 0.6632(4) 0.7885(4) 0.5031(2)
C23B C 0.6224(6) 0.8564(5) 0.4798(3)
H17B H 0.5607(6) 0.8652(5) 0.4831(3)
C24B C 0.6685(8) 0.9155(6) 0.4506(4)
H18B H 0.6385(8) 0.9632(6) 0.4348(4)
C25B C 0.7574(9) 0.9018(7) 0.4456(4)
H19B H 0.7889(9) 0.9403(7) 0.4258(4)
C26B C 0.8028(7) 0.8311(7) 0.4696(4)
H20B H 0.8644(7) 0.8218(7) 0.4667(4)
C27B C 0.7525(6) 0.7750(6) 0.4979(3)
C28B C 0.7896(5) 0.6957(6) 0.5238(3)
N8B N 0.7307(4) 0.6510(4) 0.5512(2)
N9B N 0.4840(4) 0.7494(4) 0.5331(2)
C33B C 0.4206(6) 0.7422(5) 0.4930(4)
H25B H 0.4326(6) 0.7051(5) 0.4657(4)
C34B C 0.3397(6) 0.7843(6) 0.4884(4)
H26B H 0.2985(6) 0.7778(6) 0.4587(4)
C35B C 0.3211(7) 0.8374(7) 0.5299(5)
H27B H 0.2669(7) 0.8686(7) 0.5278(5)
C36B C 0.3810(7) 0.8444(7) 0.5733(4)
H28B H 0.3673(7) 0.8782(7) 0.6018(4)
C37B C 0.4644(6) 0.7997(5) 0.5748(3)
C38B C 0.5364(5) 0.8050(5) 0.6187(3)
N10B N 0.6126(4) 0.7612(4) 0.6090(2)
C42B C 0.6824(6) 0.7609(5) 0.6463(3)
C41B C 0.6773(7) 0.7997(6) 0.6943(3)
C40B C 0.6007(8) 0.8419(6) 0.7051(4)
C39B C 0.5302(7) 0.8451(6) 0.6665(4)
H29B H 0.4773(7) 0.8747(6) 0.6725(4)
H30B H 0.5964(8) 0.8679(6) 0.7378(4)
H31B H 0.7269(7) 0.7970(6) 0.7198(3)
H32B H 0.7363(6) 0.7335(5) 0.6395(3)
C32B C 0.7604(6) 0.5799(5) 0.5763(3)
C31B C 0.8480(6) 0.5493(7) 0.5766(4)
C30B C 0.9071(7) 0.5929(8) 0.5480(4)
C29B C 0.8792(7) 0.6660(8) 0.5225(4)
H21B H 0.9197(7) 0.6971(8) 0.5038(4)
H22B H 0.9660(7) 0.5723(8) 0.5462(4)
H23B H 0.8666(6) 0.5001(7) 0.5958(4)
H24B H 0.7197(6) 0.5489(5) 0.5948(3)
N3B N 0.6718(4) 0.4473(4) 0.3979(2)
C3B C 0.7235(6) 0.4457(6) 0.4429(3)
H1B H 0.7139(6) 0.4880(6) 0.4678(3)
C4B C 0.7893(7) 0.3871(7) 0.4551(4)
H2B H 0.8266(7) 0.3906(7) 0.4866(4)
C5B C 0.7996(8) 0.3217(7) 0.4194(5)
H3B H 0.8431(8) 0.2788(7) 0.4274(5)
C6B C 0.7472(7) 0.3192(7) 0.3729(5)
H4B H 0.7556(7) 0.2761(7) 0.3482(5)
C7B C 0.6797(6) 0.3830(5) 0.3625(3)
C8B C 0.6179(5) 0.3884(5) 0.3145(3)
N4B N 0.5660(4) 0.4601(4) 0.3120(2)
N5B N 0.6562(4) 0.6154(4) 0.3506(2)
C13B C 0.7466(6) 0.6089(6) 0.3529(3)
H9B H 0.7737(6) 0.5555(6) 0.3610(3)
C14B C 0.8005(7) 0.6780(7) 0.3436(4)
H10B H 0.8634(7) 0.6717(7) 0.3448(4)
C15B C 0.7612(9) 0.7553(7) 0.3328(4)
H11B H 0.7975(9) 0.8036(7) 0.3288(4)
C16B C 0.6696(8) 0.7636(6) 0.3276(4)
H12B H 0.6418(8) 0.8159(6) 0.3176(4)
C17B C 0.6176(6) 0.6895(6) 0.3382(3)
C18B C 0.5177(7) 0.6905(6) 0.3378(3)
N6B N 0.4843(4) 0.6120(4) 0.3523(2)
C22B C 0.3950(6) 0.6054(6) 0.3529(3)
C21B C 0.3358(7) 0.6736(7) 0.3407(4)
C20B C 0.3700(8) 0.7502(8) 0.3263(5)
C19B C 0.4609(8) 0.7596(7) 0.3262(5)
H13B H 0.4852(8) 0.8131(7) 0.3183(5)
H14B H 0.3311(8) 0.7962(8) 0.3166(5)
H15B H 0.2734(7) 0.6667(7) 0.3424(4)
H16B H 0.3708(6) 0.5523(6) 0.3619(3)
C12B C 0.5062(6) 0.4724(6) 0.2705(3)
C11B C 0.4936(7) 0.4091(7) 0.2300(3)
C10B C 0.5456(7) 0.3369(7) 0.2339(4)
C9B C 0.6064(7) 0.3264(6) 0.2748(4)
H5B H 0.6422(7) 0.2767(6) 0.2772(4)
H6B H 0.5384(7) 0.2947(7) 0.2078(4)
H7B H 0.4503(7) 0.4171(7) 0.2014(3)
H8B H 0.4720(6) 0.5232(6) 0.2678(3)
Cl1 Cl 0.5845(5) 0.3595(6) 0.8651(4)
Cl2 Cl 0.5336(5) 0.5200(4) 0.9131(3)
Cl3 Cl 0.4656(4) 0.3639(4) 0.9489(2)
C43 C 0.4981(9) 0.4165(6) 0.8928(5)
P1 P 0.2568(2) 0.4528(2) 0.80325(9)
F1 F 0.3242(4) 0.5247(4) 0.8262(2)
F2 F 0.1868(5) 0.3795(4) 0.7824(3)
F3 F 0.2770(5) 0.4022(4) 0.8576(2)
F4 F 0.2378(4) 0.5042(4) 0.7497(2)
F5 F 0.1741(4) 0.5012(4) 0.8274(2)
F6 F 0.3388(4) 0.4045(4) 0.7793(3)
P2 P -0.2365(2) 0.5542(2) 0.73741(10)
F7 F -0.1540(4) 0.5380(4) 0.7807(2)
F8 F -0.3186(3) 0.5724(4) 0.6937(2)
F9 F -0.2794(4) 0.6207(4) 0.7754(2)
F10 F -0.1945(4) 0.4870(4) 0.6996(2)
F11 F -0.2937(4) 0.4773(4) 0.7605(2)
F12 F -0.1791(4) 0.6306(4) 0.7129(2)
P3 P -0.0784(2) 0.2792(2) 0.59259(10)
F13 F -0.1701(4) 0.3336(4) 0.5840(2)
F14 F 0.0131(4) 0.2257(4) 0.6003(3)
F16 F -0.0389(23) 0.3277(38) 0.6432(17)
F17 F -0.0390(15) 0.3489(19) 0.5584(9)
F18 F -0.1143(17) 0.2079(24) 0.6285(14)
F19 F -0.1155(19) 0.2259(31) 0.5388(17)
O1 O 0.0874(9) 0.5426(9) 0.6443(5)
O2 O 0.0800(12) 0.6437(11) 0.7084(7)
N11 N 0.0636(12) 0.5748(12) 0.6852(7)
C44 C 0.0187(10) 0.5096(14) 0.7165(8)
O3 O 0.0508(13) 0.5020(14) 0.0642(9)
O4 O 0.0777(17) 0.4063(14) 0.0997(8)
N12 N 0.1180(10) 0.4727(9) 0.0891(6)
C45 C 0.2166(10) 0.4916(12) 0.1005(6)
loop_
_geom_bond_atom_site_label_1
_geom_bond_atom_site_label_2
_geom_bond_site_symmetry_1
_geom_bond_site_symmetry_2
Co1 N1 1_555 1_555
Fe1 N7 1_555 1_555
Cl1 C43 1_555 1_555
Cl2 C43 1_555 1_555
Cl3 C43 1_555 1_555
P1 F1 1_555 1_555
P2 F7 1_555 1_555
P3 F13 1_555 1_555
F2 P1 1_555 1_555
F3 P1 1_555 1_555
F4 P1 1_555 1_555
F5 P1 1_555 1_555
F6 P1 1_555 1_555
F8 P2 1_555 1_555
F9 P2 1_555 1_555
F10 P2 1_555 1_555
F11 P2 1_555 1_555
F12 P2 1_555 1_555
F14 P3 1_555 1_555
F16 P3 1_555 1_555
F17 P3 1_555 1_555
F18 P3 1_555 1_555
F19 P3 1_555 1_555
O1 N11 1_555 1_555
O2 N11 1_555 1_555
O3 N12 1_555 1_555
O4 N12 1_555 1_555
N1 C1 1_555 1_555
N2 Co1 1_555 1_555
N3 Co1 1_555 1_555
N4 Co1 1_555 1_555
N5 Co1 1_555 1_555
N6 Co1 1_555 1_555
N7 C23 1_555 1_555
N8 Fe1 1_555 1_555
N9 Fe1 1_555 1_555
N10 Fe1 1_555 1_555
N11 C44 1_555 1_555
N12 C45 1_555 1_555
C1 Fe1 1_555 1_555
C2 N2 1_555 1_555
C3 N3 1_555 1_555
H1 C3 1_555 1_555
C4 C3 1_555 1_555
H2 C4 1_555 1_555
C5 C4 1_555 1_555
H3 C5 1_555 1_555
C6 C5 1_555 1_555
H4 C6 1_555 1_555
C7 N3 1_555 1_555
C8 N4 1_555 1_555
C9 C8 1_555 1_555
H5 C9 1_555 1_555
C10 C9 1_555 1_555
H6 C10 1_555 1_555
C11 C10 1_555 1_555
H7 C11 1_555 1_555
C12 N4 1_555 1_555
H8 C12 1_555 1_555
C13 N5 1_555 1_555
H9 C13 1_555 1_555
C14 C13 1_555 1_555
H10 C14 1_555 1_555
C15 C14 1_555 1_555
H11 C15 1_555 1_555
C16 C15 1_555 1_555
H12 C16 1_555 1_555
C17 N5 1_555 1_555
C18 N6 1_555 1_555
C19 C18 1_555 1_555
H13 C19 1_555 1_555
C20 C19 1_555 1_555
H14 C20 1_555 1_555
C21 C20 1_555 1_555
H15 C21 1_555 1_555
C22 N6 1_555 1_555
H16 C22 1_555 1_555
C23 H17 1_555 1_555
C24 C23 1_555 1_555
H18 C24 1_555 1_555
C25 C24 1_555 1_555
H19 C25 1_555 1_555
C26 C25 1_555 1_555
H20 C26 1_555 1_555
C27 N7 1_555 1_555
C28 N8 1_555 1_555
C29 C28 1_555 1_555
H21 C29 1_555 1_555
C30 C29 1_555 1_555
H22 C30 1_555 1_555
C31 C30 1_555 1_555
H23 C31 1_555 1_555
C32 N8 1_555 1_555
H24 C32 1_555 1_555
C33 N9 1_555 1_555
H25 C33 1_555 1_555
C34 C33 1_555 1_555
H26 C34 1_555 1_555
C35 C34 1_555 1_555
H27 C35 1_555 1_555
C36 C35 1_555 1_555
H28 C36 1_555 1_555
C37 N9 1_555 1_555
C38 N10 1_555 1_555
C39 C38 1_555 1_555
H29 C39 1_555 1_555
C40 C39 1_555 1_555
H30 C40 1_555 1_555
C41 C40 1_555 1_555
H31 C41 1_555 1_555
C42 N10 1_555 1_555
H32 C42 1_555 1_555
C2B Fe1 1_555 1_555
N2B C2B 1_555 1_555
Co1B N2B 1_555 1_555
N1B Co1B 1_555 1_555
C1B N1B 1_555 1_555
Fe1B C2 1_555 1_555
N7B Fe1B 1_555 1_555
C23B N7B 1_555 1_555
H17B C23B 1_555 1_555
C24B C23B 1_555 1_555
H18B C24B 1_555 1_555
C25B C24B 1_555 1_555
H19B C25B 1_555 1_555
C26B C25B 1_555 1_555
H20B C26B 1_555 1_555
C27B N7B 1_555 1_555
C28B C27B 1_555 1_555
N8B Fe1B 1_555 1_555
N9B Fe1B 1_555 1_555
C33B N9B 1_555 1_555
H25B C33B 1_555 1_555
C34B C33B 1_555 1_555
H26B C34B 1_555 1_555
C35B C34B 1_555 1_555
H27B C35B 1_555 1_555
C36B C35B 1_555 1_555
H28B C36B 1_555 1_555
C37B N9B 1_555 1_555
C38B C37B 1_555 1_555
N10B Fe1B 1_555 1_555
C42B N10B 1_555 1_555
C41B C42B 1_555 1_555
C40B C41B 1_555 1_555
C39B C38B 1_555 1_555
H29B C39B 1_555 1_555
H30B C40B 1_555 1_555
H31B C41B 1_555 1_555
H32B C42B 1_555 1_555
C32B N8B 1_555 1_555
C31B C32B 1_555 1_555
C30B C31B 1_555 1_555
C29B C28B 1_555 1_555
H21B C29B 1_555 1_555
H22B C30B 1_555 1_555
H23B C31B 1_555 1_555
H24B C32B 1_555 1_555
N3B Co1B 1_555 1_555
C3B N3B 1_555 1_555
H1B C3B 1_555 1_555
C4B C3B 1_555 1_555
H2B C4B 1_555 1_555
C5B C4B 1_555 1_555
H3B C5B 1_555 1_555
C6B C5B 1_555 1_555
H4B C6B 1_555 1_555
C7B N3B 1_555 1_555
C8B C7B 1_555 1_555
N4B Co1B 1_555 1_555
N5B Co1B 1_555 1_555
C13B N5B 1_555 1_555
H9B C13B 1_555 1_555
C14B C13B 1_555 1_555
H10B C14B 1_555 1_555
C15B C14B 1_555 1_555
H11B C15B 1_555 1_555
C16B C15B 1_555 1_555
H12B C16B 1_555 1_555
C17B N5B 1_555 1_555
C18B C17B 1_555 1_555
N6B Co1B 1_555 1_555
C22B N6B 1_555 1_555
C21B C22B 1_555 1_555
C20B C21B 1_555 1_555
C19B C18B 1_555 1_555
H13B C19B 1_555 1_555
H14B C20B 1_555 1_555
H15B C21B 1_555 1_555
H16B C22B 1_555 1_555
C12B N4B 1_555 1_555
C11B C12B 1_555 1_555
C10B C11B 1_555 1_555
C9B C8B 1_555 1_555
H5B C9B 1_555 1_555
H6B C10B 1_555 1_555
H7B C11B 1_555 1_555
H8B C12B 1_555 1_555
C6 C7 1_555 1_555
C7 C8 1_555 1_555
C11 C12 1_555 1_555
C16 C17 1_555 1_555
C17 C18 1_555 1_555
C21 C22 1_555 1_555
C26 C27 1_555 1_555
C27 C28 1_555 1_555
C31 C32 1_555 1_555
C36 C37 1_555 1_555
C37 C38 1_555 1_555
C41 C42 1_555 1_555
C1B Fe1B 1_555 1_555
C26B C27B 1_555 1_555
C28B N8B 1_555 1_555
C36B C37B 1_555 1_555
C38B N10B 1_555 1_555
C40B C39B 1_555 1_555
C30B C29B 1_555 1_555
C6B C7B 1_555 1_555
C8B N4B 1_555 1_555
C16B C17B 1_555 1_555
C18B N6B 1_555 1_555
C20B C19B 1_555 1_555
C10B C9B 1_555 1_555

#END
