
#######################################################################
#
#                 Cambridge Crystallographic Data Centre
#                                CCDC 
#
#######################################################################
#
# If this CIF has been generated from an entry in the Cambridge 
# Structural Database, then it will include bibliographic, chemical, 
# crystal, experimental, refinement or atomic coordinate data resulting 
# from the CCDC's data processing and validation procedures.
#
#######################################################################

data_WITKAL
_chemical_formula_moiety         'C84 H64 Fe4 N20 4+,4(F6 P1 1-),4(H2 O1)'
_chemical_name_systematic        
"tetrakis(\m~2~-Cyano)-octakis(2,2'-bipyridine)-tetra-iron(ii) tetrakis(hexafluorophosphate) tetrahydrate"
_symmetry_cell_setting           triclinic
_symmetry_space_group_name_H-M   'P -1'
_symmetry_Int_Tables_number      2
_space_group_name_Hall           '-P 1'
loop_
_symmetry_equiv_pos_site_id
_symmetry_equiv_pos_as_xyz
1 x,y,z
2 -x,-y,-z
_cell_length_a                   15.216(3)
_cell_length_b                   24.108(3)
_cell_length_c                   13.359(2)
_cell_angle_alpha                100.180(10)
_cell_angle_beta                 101.640(10)
_cell_angle_gamma                74.460(10)
_cell_volume                     4584.96
_exptl_crystal_colour            'dark violet'
_cell_formula_units_Z            2
_exptl_crystal_recrystallization_method acetonitrile/chloroform
loop_
_atom_site_label
_atom_site_type_symbol
_atom_site_fract_x
_atom_site_fract_y
_atom_site_fract_z
Fe1 Fe 0.28898(4) 0.23991(3) 0.47492(5)
Fe2 Fe 0.35005(4) 0.27332(3) 0.14316(5)
Fe3 Fe 0.06104(4) 0.21342(3) -0.02893(5)
Fe4 Fe -0.03354(4) 0.23429(3) 0.31292(5)
N1 N 0.3107(3) 0.2592(2) 0.2632(3)
N2 N 0.0873(3) 0.2360(2) 0.3932(3)
N3 N 0.2446(3) 0.2478(2) 0.0576(3)
N4 N 0.0167(3) 0.2257(2) 0.1880(3)
N5 N 0.2851(2) 0.2254(2) 0.6135(3)
N6 N 0.3219(3) 0.1553(2) 0.4515(3)
N7 N 0.4185(3) 0.2451(2) 0.5261(3)
N8 N 0.2669(3) 0.3250(2) 0.5028(3)
N9 N 0.4313(2) 0.1951(2) 0.1456(3)
N10 N 0.4572(3) 0.2935(2) 0.2397(3)
N11 N 0.3908(2) 0.2942(2) 0.0267(3)
N12 N 0.2747(2) 0.3532(2) 0.1445(3)
N13 N 0.1290(3) 0.1323(2) -0.0317(3)
N14 N 0.0809(3) 0.1989(2) -0.1728(3)
N15 N -0.0135(3) 0.2938(2) -0.0326(3)
N16 N -0.0621(3) 0.1967(2) -0.0806(3)
N17 N -0.0609(2) 0.3191(2) 0.3298(3)
N18 N -0.0923(2) 0.2503(2) 0.4379(3)
N19 N -0.1512(3) 0.2263(2) 0.2261(3)
N20 N -0.0107(3) 0.1491(2) 0.2971(3)
C1 C 0.2999(3) 0.2487(2) 0.3398(3)
C2 C 0.1615(3) 0.2396(2) 0.4291(3)
C3 C 0.1763(3) 0.2356(2) 0.0214(3)
C4 C 0.0391(3) 0.2201(2) 0.1087(3)
C5 C 0.2615(3) 0.2660(2) 0.6930(3)
H1 H 0.2415(3) 0.3048(2) 0.6825(3)
C6 C 0.2664(3) 0.2513(2) 0.7898(4)
H2 H 0.2477(3) 0.2799(2) 0.8431(4)
C7 C 0.2987(3) 0.1948(2) 0.8063(4)
H3 H 0.3052(3) 0.1847(2) 0.8719(4)
C8 C 0.3215(3) 0.1528(2) 0.7254(4)
H4 H 0.3424(3) 0.1139(2) 0.7353(4)
C9 C 0.3131(3) 0.1692(2) 0.6293(4)
C10 C 0.3315(3) 0.1284(2) 0.5355(4)
C11 C 0.3550(4) 0.0685(2) 0.5298(4)
H5 H 0.3607(4) 0.0508(2) 0.5881(4)
C12 C 0.3698(4) 0.0355(2) 0.4368(5)
H6 H 0.3855(4) -0.0048(2) 0.4315(5)
C13 C 0.3611(4) 0.0623(2) 0.3529(4)
H7 H 0.3720(4) 0.0405(2) 0.2899(4)
C14 C 0.3364(4) 0.1216(2) 0.3615(4)
H8 H 0.3292(4) 0.1394(2) 0.3031(4)
C15 C 0.4929(3) 0.2014(2) 0.5415(4)
H9 H 0.4864(3) 0.1637(2) 0.5201(4)
C16 C 0.5790(4) 0.2095(3) 0.5877(4)
H10 H 0.6293(4) 0.1779(3) 0.5964(4)
C17 C 0.5888(4) 0.2644(3) 0.6201(4)
H11 H 0.6457(4) 0.2708(3) 0.6537(4)
C18 C 0.5139(4) 0.3105(3) 0.6029(4)
H12 H 0.5200(4) 0.3484(3) 0.6235(4)
C19 C 0.4291(3) 0.3000(2) 0.5547(4)
C20 C 0.3442(3) 0.3455(2) 0.5314(4)
C21 C 0.3418(4) 0.4031(2) 0.5341(5)
H13 H 0.3959(4) 0.4160(2) 0.5550(5)
C22 C 0.2603(5) 0.4412(2) 0.5061(5)
H14 H 0.2585(5) 0.4801(2) 0.5056(5)
C23 C 0.1799(4) 0.4216(2) 0.4782(4)
H15 H 0.1232(4) 0.4471(2) 0.4599(4)
C24 C 0.1859(3) 0.3640(2) 0.4782(4)
H16 H 0.1318(3) 0.3509(2) 0.4605(4)
C25 C 0.4118(3) 0.1451(2) 0.0956(4)
H17 H 0.3591(3) 0.1472(2) 0.0456(4)
C26 C 0.4656(4) 0.0915(2) 0.1145(4)
H18 H 0.4496(4) 0.0580(2) 0.0781(4)
C27 C 0.5439(4) 0.0879(2) 0.1885(5)
H19 H 0.5813(4) 0.0519(2) 0.2028(5)
C28 C 0.5662(4) 0.1381(2) 0.2410(5)
H20 H 0.6186(4) 0.1364(2) 0.2912(5)
C29 C 0.5092(3) 0.1912(2) 0.2178(4)
C30 C 0.5244(3) 0.2480(2) 0.2693(4)
C31 C 0.6004(4) 0.2550(3) 0.3430(4)
H21 H 0.6471(4) 0.2229(3) 0.3616(4)
C32 C 0.6056(4) 0.3106(3) 0.3886(4)
H22 H 0.6554(4) 0.3163(3) 0.4391(4)
C33 C 0.5371(4) 0.3565(3) 0.3585(4)
H23 H 0.5397(4) 0.3941(3) 0.3881(4)
C34 C 0.4645(4) 0.3471(2) 0.2843(4)
H24 H 0.4183(4) 0.3789(2) 0.2639(4)
C35 C 0.4530(3) 0.2614(2) -0.0303(4)
H25 H 0.4789(3) 0.2231(2) -0.0182(4)
C36 C 0.4807(4) 0.2814(2) -0.1059(4)
H26 H 0.5256(4) 0.2574(2) -0.1426(4)
C37 C 0.4416(5) 0.3368(3) -0.1265(5)
H27 H 0.4596(5) 0.3512(3) -0.1772(5)
C38 C 0.3753(5) 0.3711(2) -0.0715(5)
H28 H 0.3471(5) 0.4088(2) -0.0856(5)
C39 C 0.3507(4) 0.3494(2) 0.0046(4)
C40 C 0.2812(4) 0.3822(2) 0.0703(4)
C41 C 0.2273(4) 0.4373(2) 0.0580(5)
H29 H 0.2317(4) 0.4559(2) 0.0045(5)
C42 C 0.1670(4) 0.4644(2) 0.1259(5)
H30 H 0.1305(4) 0.5017(2) 0.1193(5)
C43 C 0.1613(4) 0.4358(2) 0.2031(4)
H31 H 0.1220(4) 0.4535(2) 0.2506(4)
C44 C 0.2148(3) 0.3804(2) 0.2091(4)
H32 H 0.2093(3) 0.3607(2) 0.2605(4)
C45 C 0.1611(4) 0.1027(2) 0.0498(4)
H33 H 0.1461(4) 0.1207(2) 0.1138(4)
C46 C 0.2149(4) 0.0472(2) 0.0424(5)
H34 H 0.2361(4) 0.0281(2) 0.1005(5)
C47 C 0.2375(4) 0.0199(2) -0.0521(5)
H35 H 0.2747(4) -0.0177(2) -0.0583(5)
C48 C 0.2042(4) 0.0489(2) -0.1363(5)
H36 H 0.2181(4) 0.0311(2) -0.2007(5)
C49 C 0.1497(3) 0.1052(2) -0.1250(4)
C50 C 0.1154(3) 0.1421(2) -0.2077(4)
C51 C 0.1213(4) 0.1232(3) -0.3107(4)
H37 H 0.1416(4) 0.0840(3) -0.3342(4)
C52 C 0.0960(4) 0.1646(3) -0.3779(4)
H38 H 0.0985(4) 0.1531(3) -0.4477(4)
C53 C 0.0677(3) 0.2214(3) -0.3430(4)
H39 H 0.0547(3) 0.2493(3) -0.3874(4)
C54 C 0.0583(3) 0.2376(2) -0.2406(4)
H40 H 0.0355(3) 0.2766(2) -0.2177(4)
C55 C 0.0166(4) 0.3424(2) -0.0014(4)
H41 H 0.0800(4) 0.3392(2) 0.0146(4)
C56 C -0.0425(4) 0.3973(2) 0.0081(5)
H42 H -0.0190(4) 0.4301(2) 0.0304(5)
C57 C -0.1345(4) 0.4024(3) -0.0156(5)
H43 H -0.1753(4) 0.4387(3) -0.0080(5)
C58 C -0.1678(4) 0.3533(3) -0.0512(5)
H44 H -0.2311(4) 0.3563(3) -0.0696(5)
C59 C -0.1058(3) 0.2993(2) -0.0591(4)
C60 C -0.1326(3) 0.2440(2) -0.0934(4)
C61 C -0.2222(4) 0.2388(3) -0.1348(5)
H45 H -0.2703(4) 0.2718(3) -0.1424(5)
C62 C -0.2387(4) 0.1849(3) -0.1641(5)
H46 H -0.2978(4) 0.1809(3) -0.1937(5)
C63 C -0.1673(4) 0.1365(3) -0.1496(5)
H47 H -0.1777(4) 0.0995(3) -0.1676(5)
C64 C -0.0808(4) 0.1441(2) -0.1081(4)
H48 H -0.0326(4) 0.1113(2) -0.0984(4)
C65 C -0.0455(3) 0.3521(2) 0.2674(4)
H49 H -0.0256(3) 0.3341(2) 0.2055(4)
C66 C -0.0577(4) 0.4114(2) 0.2908(4)
H50 H -0.0482(4) 0.4329(2) 0.2444(4)
C67 C -0.0837(4) 0.4383(2) 0.3827(4)
H51 H -0.0906(4) 0.4781(2) 0.4005(4)
C68 C -0.0998(4) 0.4056(2) 0.4485(4)
H52 H -0.1176(4) 0.4231(2) 0.5115(4)
C69 C -0.0891(3) 0.3461(2) 0.4202(4)
C70 C -0.1102(3) 0.3070(2) 0.4803(4)
C71 C -0.1483(3) 0.3254(2) 0.5693(4)
H53 H -0.1586(3) 0.3643(2) 0.5978(4)
C72 C -0.1711(3) 0.2852(3) 0.6155(4)
H54 H -0.1961(3) 0.2966(3) 0.6760(4)
C73 C -0.1563(3) 0.2286(2) 0.5709(4)
H55 H -0.1727(3) 0.2012(2) 0.5997(4)
C74 C -0.1165(3) 0.2127(2) 0.4821(4)
H56 H -0.1064(3) 0.1741(2) 0.4523(4)
C75 C -0.2204(3) 0.2691(2) 0.1907(4)
H57 H -0.2158(3) 0.3072(2) 0.2119(4)
C76 C -0.2982(4) 0.2593(3) 0.1245(5)
H58 H -0.3446(4) 0.2901(3) 0.1003(5)
C77 C -0.3058(4) 0.2033(3) 0.0951(5)
H59 H -0.3577(4) 0.1956(3) 0.0504(5)
C78 C -0.2368(4) 0.1587(3) 0.1316(5)
H60 H -0.2417(4) 0.1205(3) 0.1125(5)
C79 C -0.1595(3) 0.1710(2) 0.1971(4)
C80 C -0.0785(4) 0.1270(2) 0.2382(4)
C81 C -0.0715(5) 0.0680(3) 0.2192(6)
H61 H -0.1204(5) 0.0537(3) 0.1795(6)
C82 C 0.0075(5) 0.0306(3) 0.2589(6)
H62 H 0.0126(5) -0.0093(3) 0.2470(6)
C83 C 0.0791(5) 0.0525(2) 0.3165(5)
H63 H 0.1340(5) 0.0279(2) 0.3433(5)
C84 C 0.0675(4) 0.1117(2) 0.3334(4)
H64 H 0.1160(4) 0.1267(2) 0.3719(4)
P1 P -0.22361(11) 0.06447(6) 0.45429(12)
F1 F -0.2160(4) 0.0810(2) 0.5737(3)
F2 F -0.2363(4) 0.0486(2) 0.3343(3)
F3 F -0.3293(3) 0.0656(2) 0.4468(4)
F4 F -0.1210(3) 0.0668(2) 0.4636(5)
F5 F -0.2559(3) 0.1314(2) 0.4390(3)
F6 F -0.1937(3) -0.0017(2) 0.4697(4)
P2 P 0.57528(10) 0.08630(6) 0.84324(12)
F7 F 0.5854(3) 0.02414(15) 0.8724(3)
F8 F 0.5660(3) 0.1485(2) 0.8133(5)
F9 F 0.6699(2) 0.0620(2) 0.7995(3)
F10 F 0.4816(2) 0.1103(2) 0.8878(3)
F11 F 0.5212(3) 0.0688(2) 0.7341(3)
F12 F 0.6304(3) 0.1035(2) 0.9529(4)
P3 P 0.05958(10) 0.41768(6) 0.74888(11)
F13 F 0.0627(3) 0.36511(14) 0.6571(3)
F14 F 0.0550(3) 0.47067(14) 0.8391(3)
F15 F 0.1156(3) 0.37442(14) 0.8294(3)
F16 F 0.0028(3) 0.46188(15) 0.6688(3)
F17 F -0.0350(3) 0.4086(2) 0.7683(3)
F18 F 0.1532(3) 0.4263(2) 0.7280(3)
P4 P 0.36672(14) 0.55230(11) 0.2965(3)
F25 F 0.4726(15) 0.5452(12) 0.3215(29)
F26 F 0.2592(7) 0.5659(7) 0.2685(17)
F27 F 0.3637(8) 0.5958(6) 0.3947(11)
F28 F 0.3713(19) 0.5117(18) 0.1920(27)
F29 F 0.3932(12) 0.4946(5) 0.3013(28)
F30 F 0.3307(12) 0.6182(7) 0.2718(27)
O1 O 0.3032(3) 0.4978(2) 0.7933(3)
O2 O 0.3886(3) 0.5367(2) 0.9936(4)
O3 O 0.4221(7) 0.5907(2) 0.8467(9)
O4 O 0.3221(5) 0.5785(3) 0.7086(8)
F19? F 0.3864(30) 0.5734(14) 0.4118(25)
F20? F 0.3312(28) 0.5449(11) 0.1758(28)
F21? F 0.3654(28) 0.4966(15) 0.3611(29)
F22? F 0.3632(20) 0.6122(16) 0.2394(14)
F23? F 0.2758(18) 0.5426(9) 0.3331(24)
F24? F 0.4575(18) 0.5614(13) 0.2688(23)
loop_
_geom_bond_atom_site_label_1
_geom_bond_atom_site_label_2
_geom_bond_site_symmetry_1
_geom_bond_site_symmetry_2
Fe1 N5 1_555 1_555
Fe2 N1 1_555 1_555
Fe3 N13 1_555 1_555
Fe4 N2 1_555 1_555
P1 F1 1_555 1_555
P2 F7 1_555 1_555
P3 F13 1_555 1_555
P4 F25 1_555 1_555
F2 P1 1_555 1_555
F3 P1 1_555 1_555
F4 P1 1_555 1_555
F5 P1 1_555 1_555
F6 P1 1_555 1_555
F8 P2 1_555 1_555
F9 P2 1_555 1_555
F10 P2 1_555 1_555
F11 P2 1_555 1_555
F12 P2 1_555 1_555
F14 P3 1_555 1_555
F15 P3 1_555 1_555
F16 P3 1_555 1_555
F17 P3 1_555 1_555
F18 P3 1_555 1_555
N1 C1 1_555 1_555
N2 C2 1_555 1_555
N3 Fe2 1_555 1_555
N4 Fe4 1_555 1_555
N5 C5 1_555 1_555
N6 Fe1 1_555 1_555
N7 Fe1 1_555 1_555
N8 Fe1 1_555 1_555
N9 Fe2 1_555 1_555
N10 Fe2 1_555 1_555
N11 Fe2 1_555 1_555
N12 Fe2 1_555 1_555
N13 C45 1_555 1_555
N14 Fe3 1_555 1_555
N15 Fe3 1_555 1_555
N16 Fe3 1_555 1_555
N17 Fe4 1_555 1_555
N18 Fe4 1_555 1_555
N19 Fe4 1_555 1_555
N20 Fe4 1_555 1_555
C1 Fe1 1_555 1_555
C2 Fe1 1_555 1_555
C3 Fe3 1_555 1_555
C4 Fe3 1_555 1_555
C5 H1 1_555 1_555
C6 C5 1_555 1_555
H2 C6 1_555 1_555
C7 C6 1_555 1_555
H3 C7 1_555 1_555
C8 C7 1_555 1_555
H4 C8 1_555 1_555
C9 N5 1_555 1_555
C10 N6 1_555 1_555
C11 C10 1_555 1_555
H5 C11 1_555 1_555
C12 C11 1_555 1_555
H6 C12 1_555 1_555
C13 C12 1_555 1_555
H7 C13 1_555 1_555
C14 N6 1_555 1_555
H8 C14 1_555 1_555
C15 N7 1_555 1_555
H9 C15 1_555 1_555
C16 C15 1_555 1_555
H10 C16 1_555 1_555
C17 C16 1_555 1_555
H11 C17 1_555 1_555
C18 C17 1_555 1_555
H12 C18 1_555 1_555
C19 N7 1_555 1_555
C20 N8 1_555 1_555
C21 C20 1_555 1_555
H13 C21 1_555 1_555
C22 C21 1_555 1_555
H14 C22 1_555 1_555
C23 C22 1_555 1_555
H15 C23 1_555 1_555
C24 N8 1_555 1_555
H16 C24 1_555 1_555
C25 N9 1_555 1_555
H17 C25 1_555 1_555
C26 C25 1_555 1_555
H18 C26 1_555 1_555
C27 C26 1_555 1_555
H19 C27 1_555 1_555
C28 C27 1_555 1_555
H20 C28 1_555 1_555
C29 N9 1_555 1_555
C30 N10 1_555 1_555
C31 C30 1_555 1_555
H21 C31 1_555 1_555
C32 C31 1_555 1_555
H22 C32 1_555 1_555
C33 C32 1_555 1_555
H23 C33 1_555 1_555
C34 N10 1_555 1_555
H24 C34 1_555 1_555
C35 N11 1_555 1_555
H25 C35 1_555 1_555
C36 C35 1_555 1_555
H26 C36 1_555 1_555
C37 C36 1_555 1_555
H27 C37 1_555 1_555
C38 C37 1_555 1_555
H28 C38 1_555 1_555
C39 N11 1_555 1_555
C40 N12 1_555 1_555
C41 C40 1_555 1_555
H29 C41 1_555 1_555
C42 C41 1_555 1_555
H30 C42 1_555 1_555
C43 C42 1_555 1_555
H31 C43 1_555 1_555
C44 N12 1_555 1_555
H32 C44 1_555 1_555
C45 H33 1_555 1_555
C46 C45 1_555 1_555
H34 C46 1_555 1_555
C47 C46 1_555 1_555
H35 C47 1_555 1_555
C48 C47 1_555 1_555
H36 C48 1_555 1_555
C49 N13 1_555 1_555
C50 N14 1_555 1_555
C51 C50 1_555 1_555
H37 C51 1_555 1_555
C52 C51 1_555 1_555
H38 C52 1_555 1_555
C53 C52 1_555 1_555
H39 C53 1_555 1_555
C54 N14 1_555 1_555
H40 C54 1_555 1_555
C55 N15 1_555 1_555
H41 C55 1_555 1_555
C56 C55 1_555 1_555
H42 C56 1_555 1_555
C57 C56 1_555 1_555
H43 C57 1_555 1_555
C58 C57 1_555 1_555
H44 C58 1_555 1_555
C59 N15 1_555 1_555
C60 N16 1_555 1_555
C61 C60 1_555 1_555
H45 C61 1_555 1_555
C62 C61 1_555 1_555
H46 C62 1_555 1_555
C63 C62 1_555 1_555
H47 C63 1_555 1_555
C64 N16 1_555 1_555
H48 C64 1_555 1_555
C65 N17 1_555 1_555
H49 C65 1_555 1_555
C66 C65 1_555 1_555
H50 C66 1_555 1_555
C67 C66 1_555 1_555
H51 C67 1_555 1_555
C68 C67 1_555 1_555
H52 C68 1_555 1_555
C69 N17 1_555 1_555
C70 N18 1_555 1_555
C71 C70 1_555 1_555
H53 C71 1_555 1_555
C72 C71 1_555 1_555
H54 C72 1_555 1_555
C73 C72 1_555 1_555
H55 C73 1_555 1_555
C74 N18 1_555 1_555
H56 C74 1_555 1_555
C75 N19 1_555 1_555
H57 C75 1_555 1_555
C76 C75 1_555 1_555
H58 C76 1_555 1_555
C77 C76 1_555 1_555
H59 C77 1_555 1_555
C78 C77 1_555 1_555
H60 C78 1_555 1_555
C79 N19 1_555 1_555
C80 N20 1_555 1_555
C81 C80 1_555 1_555
H61 C81 1_555 1_555
C82 C81 1_555 1_555
H62 C82 1_555 1_555
C83 C82 1_555 1_555
H63 C83 1_555 1_555
C84 N20 1_555 1_555
H64 C84 1_555 1_555
F26 P4 1_555 1_555
F27 P4 1_555 1_555
F28 P4 1_555 1_555
F29 P4 1_555 1_555
F30 P4 1_555 1_555
N3 C3 1_555 1_555
N4 C4 1_555 1_555
C8 C9 1_555 1_555
C9 C10 1_555 1_555
C13 C14 1_555 1_555
C18 C19 1_555 1_555
C19 C20 1_555 1_555
C23 C24 1_555 1_555
C28 C29 1_555 1_555
C29 C30 1_555 1_555
C33 C34 1_555 1_555
C38 C39 1_555 1_555
C39 C40 1_555 1_555
C43 C44 1_555 1_555
C48 C49 1_555 1_555
C49 C50 1_555 1_555
C53 C54 1_555 1_555
C58 C59 1_555 1_555
C59 C60 1_555 1_555
C63 C64 1_555 1_555
C68 C69 1_555 1_555
C69 C70 1_555 1_555
C73 C74 1_555 1_555
C78 C79 1_555 1_555
C79 C80 1_555 1_555
C83 C84 1_555 1_555

#END
