
#######################################################################
#
#                 Cambridge Crystallographic Data Centre
#                                CCDC 
#
#######################################################################
#
# If this CIF has been generated from an entry in the Cambridge 
# Structural Database, then it will include bibliographic, chemical, 
# crystal, experimental, refinement or atomic coordinate data resulting 
# from the CCDC's data processing and validation procedures.
#
#######################################################################

data_WIYNOH
_chemical_formula_moiety         
'C343 H405 La8 N48 O72 S11,20(C1 H4 O1),12(H2 O1)'
_chemical_name_systematic        
'octakis(\m~3~-4-(1,3,5-Benzenetricarbonyl)-tris(1-phenyl-3-methyl-pyrazolone-5-one))-hexadecakis(dimethylsulfoxy)-octakis(methanolato)-octa-lanthanum methanol solvate dodecahydrate'
_symmetry_cell_setting           tetragonal
_symmetry_space_group_name_H-M   'P 4/n'
_symmetry_Int_Tables_number      85
_space_group_name_Hall           '-P 4a'
loop_
_symmetry_equiv_pos_site_id
_symmetry_equiv_pos_as_xyz
1 x,y,z
2 1/2-y,x,z
3 y,1/2-x,z
4 1/2+x,1/2+y,-z
5 -x,-y,-z
6 1/2+y,-x,-z
7 -y,1/2+x,-z
8 1/2-x,1/2-y,z
_cell_length_a                   31.5567(3)
_cell_length_b                   31.5567(3)
_cell_length_c                   28.8080(5)
_cell_angle_alpha                90
_cell_angle_beta                 90
_cell_angle_gamma                90
_cell_volume                     28687.7
_exptl_crystal_colour            yellow
_exptl_crystal_description       rhomboid
_cell_formula_units_Z            2
loop_
_atom_site_label
_atom_site_type_symbol
_atom_site_fract_x
_atom_site_fract_y
_atom_site_fract_z
La1 La 0.43289(4) 0.38311(4) 0.15291(3)
O1 O 0.4394(6) 0.3274(4) 0.0888(4)
S1 S 0.4801(6) 0.3156(4) 0.0638(4)
C2 C 0.4937(16) 0.2633(10) 0.0594(17)
H1 H 0.4921 0.2503 0.0895
H2 H 0.5221 0.2610 0.0477
H3 H 0.4745 0.2493 0.0386
C3 C 0.4859(15) 0.3380(14) 0.0070(11)
H4 H 0.4866 0.3684 0.0093
H5 H 0.4623 0.3296 -0.0120
H6 H 0.5118 0.3281 -0.0067
O2 O 0.4817(5) 0.4097(5) 0.0885(4)
S2 S 0.5154(4) 0.4449(4) 0.0939(4)
C5 C 0.5118(12) 0.4809(11) 0.0468(11)
H10 H 0.4845 0.4944 0.0473
H12 H 0.5336 0.5019 0.0496
C6 C 0.534(2) 0.432(2) 0.0258(15)
O3 O 0.4344(3) 0.3909(3) 0.2394(3)
O4 O 0.4417(4) 0.4594(4) 0.1707(4)
O5 O 0.3644(3) 0.4189(4) 0.1864(3)
O6 O 0.3861(4) 0.4110(4) 0.0898(3)
O7 O 0.4657(5) 0.3157(4) 0.1853(4)
O8 O 0.5078(4) 0.3943(4) 0.1833(3)
O9 O 0.3740(5) 0.3330(4) 0.1654(5)
S4 S 0.3523(14) 0.3211(16) 0.2116(11)
C8 C 0.376(2) 0.2797(18) 0.244(2)
C9 C 0.324(2) 0.3591(18) 0.245(2)
H13 H 0.3351 0.2873 0.1805
H14 H 0.3695 0.2956 0.2187
La2 La 0.27769(4) 0.47918(5) 0.45130(3)
O10 O 0.2810(7) 0.5416(9) 0.5153(5)
S5 S 0.3008(4) 0.5872(5) 0.5042(4)
C11 C 0.2638(13) 0.6189(13) 0.5232(13)
H16 H 0.2436 0.6242 0.4989
H17 H 0.2762 0.6453 0.5329
H18 H 0.2496 0.6060 0.5491
C12 C 0.3266(12) 0.6003(13) 0.5578(14)
H19 H 0.3525 0.5846 0.5604
H20 H 0.3084 0.5933 0.5834
H21 H 0.3328 0.6301 0.5585
O11 O 0.3417(4) 0.4327(3) 0.4178(3)
O12 O 0.3270(4) 0.4560(4) 0.5131(3)
O13 O 0.2847(4) 0.4815(4) 0.3629(3)
O14 O 0.3381(3) 0.5222(4) 0.4318(3)
O15 O 0.2045(3) 0.4700(4) 0.4186(3)
O16 O 0.2491(4) 0.5474(4) 0.4206(4)
O17 O 0.2230(6) 0.4707(7) 0.5212(4)
H22 H 0.2292 0.4873 0.5420
O18 O 0.2609(5) 0.4007(6) 0.4509(7)
C14 C 0.2390(9) 0.3742(9) 0.4195(9)
H23 H 0.2458 0.3451 0.4259
H24 H 0.2474 0.3809 0.3883
H25 H 0.2091 0.3784 0.4229
C15 C 0.4095(5) 0.4107(5) 0.3964(5)
C16 C 0.4091(5) 0.4260(5) 0.3502(5)
H26 H 0.3909 0.4476 0.3408
C17 C 0.4385(5) 0.4061(5) 0.3185(5)
C18 C 0.4641(5) 0.3729(5) 0.3309(5)
H27 H 0.4819 0.3602 0.3092
C19 C 0.4628(5) 0.3580(5) 0.3787(5)
C20 C 0.4355(5) 0.3777(5) 0.4090(5)
H28 H 0.4347 0.3683 0.4395
C21 C 0.3798(6) 0.4318(5) 0.4286(6)
C22 C 0.4417(5) 0.4210(6) 0.2691(6)
C23 C 0.4892(6) 0.3213(6) 0.3948(6)
C24 C 0.3108(6) 0.4686(5) 0.2068(6)
C25 C 0.3252(6) 0.4778(5) 0.2536(6)
H29 H 0.3534 0.4742 0.2620
C26 C 0.2954(6) 0.4923(6) 0.2852(6)
C27 C 0.2526(6) 0.5013(5) 0.2736(6)
H30 H 0.2337 0.5122 0.2953
C28 C 0.2399(5) 0.4925(5) 0.2256(6)
C29 C 0.2700(5) 0.4759(5) 0.1956(6)
H31 H 0.2613 0.4692 0.1656
C30 C 0.3431(6) 0.4493(6) 0.1747(6)
C31 C 0.3067(5) 0.4994(5) 0.3343(6)
C32 C 0.4961(6) 0.3055(6) 0.2093(6)
N1 N 0.4613(5) 0.5175(5) 0.2121(4)
N2 N 0.4714(4) 0.5322(4) 0.2545(5)
C33 C 0.4499(5) 0.4785(7) 0.2076(7)
C34 C 0.4470(5) 0.4621(5) 0.2574(5)
C35 C 0.4625(5) 0.4993(6) 0.2810(6)
C36 C 0.4714(5) 0.5042(5) 0.3352(5)
H32 H 0.4822 0.5321 0.3414
H33 H 0.4919 0.4835 0.3447
H34 H 0.4456 0.5000 0.3521
C37 C 0.4659(6) 0.5497(6) 0.1747(6)
C38 C 0.4412(6) 0.5457(6) 0.1364(6)
H35 H 0.4222 0.5233 0.1347
C39 C 0.4436(7) 0.5756(7) 0.0975(7)
H36 H 0.4277 0.5735 0.0705
C40 C 0.4719(7) 0.6063(7) 0.1062(8)
H37 H 0.4734 0.6268 0.0831
C41 C 0.4984(6) 0.6130(7) 0.1414(7)
H38 H 0.5168 0.6360 0.1420
C42 C 0.4967(6) 0.5816(6) 0.1798(7)
H39 H 0.5146 0.5830 0.2053
N3 N 0.3680(6) 0.4749(8) 0.0544(5)
N4 N 0.3482(6) 0.5116(7) 0.0651(7)
C43 C 0.3702(7) 0.4433(8) 0.0929(8)
C44 C 0.3476(5) 0.4700(6) 0.1274(6)
C45 C 0.3372(6) 0.5118(6) 0.1100(7)
C46 C 0.3168(6) 0.5480(6) 0.1321(7)
H40 H 0.3116 0.5696 0.1094
H41 H 0.3349 0.5589 0.1561
H42 H 0.2903 0.5391 0.1455
C47 C 0.3788(7) 0.4647(7) 0.0088(8)
C48 C 0.3564(9) 0.4836(8) -0.0263(10)
H43 H 0.3340 0.5015 -0.0193
C49 C 0.3675(9) 0.4756(8) -0.0745(10)
H44 H 0.3525 0.4877 -0.0989
C50 C 0.3979(11) 0.4519(11) -0.0816(12)
H45 H 0.4075 0.4506 -0.1121
C51 C 0.4199(9) 0.4267(9) -0.0496(10)
H46 H 0.4388 0.4054 -0.0581
C52 C 0.4098(7) 0.4376(7) -0.0007(8)
H47 H 0.4253 0.4255 0.0234
N5 N 0.5712(7) 0.3850(6) 0.2167(5)
N6 N 0.5988(6) 0.3533(7) 0.2372(6)
C53 C 0.5342(7) 0.3718(6) 0.2051(6)
C54 C 0.5311(7) 0.3276(6) 0.2188(6)
C55 C 0.5717(7) 0.3202(7) 0.2359(6)
C56 C 0.5916(7) 0.2821(7) 0.2568(7)
H48 H 0.6199 0.2887 0.2664
H49 H 0.5923 0.2597 0.2343
H50 H 0.5753 0.2732 0.2833
C57 C 0.5906(7) 0.4294(7) 0.2086(6)
C58 C 0.6353(7) 0.4302(7) 0.1980(7)
H51 H 0.6510 0.4054 0.1946
C59 C 0.6531(8) 0.4687(8) 0.1934(7)
H52 H 0.6822 0.4710 0.1891
C60 C 0.6296(7) 0.5030(7) 0.1949(6)
H53 H 0.6430 0.5289 0.1901
C61 C 0.5855(6) 0.5033(6) 0.2035(6)
H54 H 0.5694 0.5280 0.2033
C62 C 0.5684(7) 0.4640(7) 0.2119(6)
H55 H 0.5400 0.4621 0.2203
N7 N 0.3951(5) 0.4728(5) 0.5443(4)
N8 N 0.4356(5) 0.4722(5) 0.5309(4)
C63 C 0.3691(7) 0.4595(6) 0.5106(7)
C64 C 0.3942(5) 0.4456(5) 0.4726(5)
C65 C 0.4355(6) 0.4546(5) 0.4895(7)
C66 C 0.4786(5) 0.4530(5) 0.4620(5)
H56 H 0.4737 0.4414 0.4316
H57 H 0.4984 0.4355 0.4784
H58 H 0.4898 0.4812 0.4591
C67 C 0.3855(7) 0.4853(6) 0.5901(7)
C68 C 0.3483(11) 0.5018(10) 0.6014(12)
H59 H 0.3286 0.5046 0.5776
C69 C 0.3355(13) 0.5157(11) 0.6460(14)
H60 H 0.3087 0.5262 0.6529
C70 C 0.3699(8) 0.5112(7) 0.6800(8)
H61 H 0.3644 0.5152 0.7114
C71 C 0.4078(7) 0.5018(6) 0.6663(7)
H62 H 0.4300 0.5026 0.6874
C72 C 0.4157(6) 0.4905(5) 0.6202(6)
H63 H 0.4436 0.4865 0.6107
N9 N 0.3819(5) 0.5703(5) 0.3912(5)
N10 N 0.3875(5) 0.5825(5) 0.3452(6)
C73 C 0.3528(6) 0.5403(6) 0.3947(7)
C74 C 0.3395(5) 0.5301(6) 0.3463(6)
C75 C 0.3630(6) 0.5575(6) 0.3193(7)
C76 C 0.3631(6) 0.5666(6) 0.2683(6)
H64 H 0.3830 0.5888 0.2618
H65 H 0.3352 0.5753 0.2588
H66 H 0.3710 0.5415 0.2516
C77 C 0.4006(6) 0.5924(7) 0.4272(7)
C78 C 0.4103(7) 0.6331(7) 0.4206(8)
H67 H 0.4064 0.6466 0.3922
C79 C 0.4274(8) 0.6548(8) 0.4614(9)
H68 H 0.4317 0.6839 0.4596
C80 C 0.4369(7) 0.6360(8) 0.4995(8)
H69 H 0.4513 0.6508 0.5225
C81 C 0.4261(6) 0.5952(7) 0.5067(7)
H70 H 0.4293 0.5826 0.5357
C82 C 0.4098(6) 0.5719(6) 0.4682(6)
H71 H 0.4053 0.5429 0.4707
N11 N 0.2085(7) 0.5946(8) 0.3856(7)
N12 N 0.1672(7) 0.6024(6) 0.3676(6)
C83 C 0.2169(9) 0.5548(8) 0.3992(8)
C84 C 0.5333(6) 0.3206(6) 0.3858(6)
C85 C 0.1540(8) 0.5650(9) 0.3663(7)
C86 C 0.1057(6) 0.5618(6) 0.3516(7)
H72 H 0.0963 0.5888 0.3402
H73 H 0.0890 0.5538 0.3780
H74 H 0.1026 0.5409 0.3276
C87 C 0.2333(9) 0.6317(8) 0.3899(10)
C88 C 0.2138(10) 0.6702(8) 0.4002(12)
H75 H 0.1847 0.6732 0.3964
C89 C 0.2381(15) 0.7043(8) 0.4162(13)
H76 H 0.2251 0.7301 0.4229
C90 C 0.2819(15) 0.6996(11) 0.4224(16)
H77 H 0.2980 0.7222 0.4334
C91 C 0.3015(10) 0.6609(13) 0.4118(15)
H78 H 0.3304 0.6576 0.4164
C92 C 0.2774(8) 0.6274(10) 0.3946(14)
H79 H 0.2906 0.6022 0.3862
O15B O 0.4700(4) 0.2955(3) 0.4186(3)
La2B La 0.47918(5) 0.22231(4) 0.45130(3)
O10B O 0.5416(9) 0.2190(7) 0.5153(5)
S5B S 0.5872(5) 0.1992(4) 0.5042(4)
C11B C 0.6189(13) 0.2362(13) 0.5232(13)
H16B H 0.6242 0.2564 0.4989
H17B H 0.6453 0.2238 0.5329
H18B H 0.6060 0.2504 0.5491
C12B C 0.6003(13) 0.1734(12) 0.5578(14)
H19B H 0.5846 0.1475 0.5604
H20B H 0.5933 0.1916 0.5834
H21B H 0.6301 0.1672 0.5585
O11B O 0.4327(3) 0.1583(4) 0.4178(3)
C21B C 0.4318(5) 0.1202(6) 0.4286(6)
C15B C 0.4107(5) 0.0905(5) 0.3964(5)
C16B C 0.4260(5) 0.0909(5) 0.3502(5)
H26B H 0.4476 0.1091 0.3408
C17B C 0.4061(5) 0.0615(5) 0.3185(5)
C18B C 0.3729(5) 0.0359(5) 0.3309(5)
H27B H 0.3602 0.0181 0.3092
C19B C 0.3580(5) 0.0372(5) 0.3787(5)
C20B C 0.3777(5) 0.0645(5) 0.4090(5)
H28B H 0.3683 0.0653 0.4395
C23B C 0.3213(6) 0.0108(6) 0.3948(6)
O15G O 0.2955(3) 0.0300(4) 0.4186(3)
La2G La 0.22231(4) 0.02082(5) 0.45130(3)
O10G O 0.2190(7) -0.0416(9) 0.5153(5)
S5G S 0.1992(4) -0.0872(5) 0.5042(4)
C11G C 0.2362(13) -0.1189(13) 0.5232(13)
H16G H 0.2564 -0.1242 0.4989
H17G H 0.2238 -0.1453 0.5329
H18G H 0.2504 -0.1060 0.5491
C12G C 0.1734(12) -0.1003(13) 0.5578(14)
H19G H 0.1475 -0.0846 0.5604
H20G H 0.1916 -0.0933 0.5834
H21G H 0.1672 -0.1301 0.5585
O11G O 0.1583(4) 0.0673(3) 0.4178(3)
C21G C 0.1202(6) 0.0682(5) 0.4286(6)
C15G C 0.0905(5) 0.0893(5) 0.3964(5)
C16G C 0.0909(5) 0.0740(5) 0.3502(5)
H26G H 0.1091 0.0524 0.3408
C17G C 0.0615(5) 0.0939(5) 0.3185(5)
C18G C 0.0359(5) 0.1271(5) 0.3309(5)
H27G H 0.0181 0.1398 0.3092
C19G C 0.0372(5) 0.1420(5) 0.3787(5)
C20G C 0.0645(5) 0.1223(5) 0.4090(5)
H28G H 0.0653 0.1317 0.4395
C23G C 0.0108(6) 0.1787(6) 0.3948(6)
O15A O 0.0300(4) 0.2045(3) 0.4186(3)
La2A La 0.02082(5) 0.27769(4) 0.45130(3)
O10A O -0.0416(9) 0.2810(7) 0.5153(5)
S5A S -0.0872(5) 0.3008(4) 0.5042(4)
C11A C -0.1189(13) 0.2638(13) 0.5232(13)
H16A H -0.1242 0.2436 0.4989
H17A H -0.1453 0.2762 0.5329
H18A H -0.1060 0.2496 0.5491
C12A C -0.1003(13) 0.3266(12) 0.5578(14)
H19A H -0.0846 0.3525 0.5604
H20A H -0.0933 0.3084 0.5834
H21A H -0.1301 0.3328 0.5585
O11A O 0.0673(3) 0.3417(4) 0.4178(3)
C21A C 0.0682(5) 0.3798(6) 0.4286(6)
C15A C 0.0893(5) 0.4095(5) 0.3964(5)
C16A C 0.0740(5) 0.4091(5) 0.3502(5)
H26A H 0.0524 0.3909 0.3408
C17A C 0.0939(5) 0.4385(5) 0.3185(5)
C18A C 0.1271(5) 0.4641(5) 0.3309(5)
H27A H 0.1398 0.4819 0.3092
C19A C 0.1420(5) 0.4628(5) 0.3787(5)
C20A C 0.1223(5) 0.4355(5) 0.4090(5)
H28A H 0.1317 0.4347 0.4395
C23A C 0.1787(6) 0.4892(6) 0.3948(6)
C32A C 0.1945(6) 0.4961(6) 0.2093(6)
O7A O 0.1843(4) 0.4657(5) 0.1853(4)
La1A La 0.11689(4) 0.43289(4) 0.15291(3)
O1A O 0.1726(4) 0.4394(6) 0.0888(4)
S1A S 0.1844(4) 0.4801(6) 0.0638(4)
C2A C 0.2367(10) 0.4937(16) 0.0594(17)
H1A H 0.2497 0.4921 0.0895
H2A H 0.2390 0.5221 0.0477
H3A H 0.2507 0.4745 0.0386
C3A C 0.1620(14) 0.4859(15) 0.0070(11)
H4A H 0.1316 0.4866 0.0093
H5A H 0.1704 0.4623 -0.0120
H6A H 0.1719 0.5118 -0.0067
O2A O 0.0903(5) 0.4817(5) 0.0885(4)
S2A S 0.0551(4) 0.5154(4) 0.0939(4)
C5A C 0.0191(11) 0.5118(12) 0.0468(11)
H10A H 0.0056 0.4845 0.0473
H12A H -0.0019 0.5336 0.0496
C6A C 0.068(2) 0.534(2) 0.0258(15)
O3A O 0.1091(3) 0.4344(3) 0.2394(3)
C22A C 0.0790(6) 0.4417(5) 0.2691(6)
C34A C 0.0379(5) 0.4470(5) 0.2574(5)
C33A C 0.0215(7) 0.4499(5) 0.2076(7)
O4A O 0.0406(4) 0.4417(4) 0.1707(4)
O5A O 0.0811(4) 0.3644(3) 0.1864(3)
C30A C 0.0507(6) 0.3431(6) 0.1747(6)
C24A C 0.0314(5) 0.3108(6) 0.2068(6)
C25A C 0.0222(5) 0.3252(6) 0.2536(6)
H29A H 0.0258 0.3534 0.2620
C26A C 0.0077(6) 0.2954(6) 0.2852(6)
C27A C -0.0013(5) 0.2526(6) 0.2736(6)
H30A H -0.0122 0.2337 0.2953
C28A C 0.0075(5) 0.2399(5) 0.2256(6)
C29A C 0.0241(5) 0.2700(5) 0.1956(6)
H31A H 0.0308 0.2613 0.1656
C32G C 0.0039(6) 0.1945(6) 0.2093(6)
O7G O 0.0343(5) 0.1843(4) 0.1853(4)
La1G La 0.06711(4) 0.11689(4) 0.15291(3)
O1G O 0.0606(6) 0.1726(4) 0.0888(4)
S1G S 0.0199(6) 0.1844(4) 0.0638(4)
C2G C 0.0063(16) 0.2367(10) 0.0594(17)
H1G H 0.0079 0.2497 0.0895
H2G H -0.0221 0.2390 0.0477
H3G H 0.0255 0.2507 0.0386
C3G C 0.0141(15) 0.1620(14) 0.0070(11)
H4G H 0.0134 0.1316 0.0093
H5G H 0.0377 0.1704 -0.0120
H6G H -0.0118 0.1719 -0.0067
O2G O 0.0183(5) 0.0903(5) 0.0885(4)
S2G S -0.0154(4) 0.0551(4) 0.0939(4)
C5G C -0.0118(12) 0.0191(11) 0.0468(11)
H10G H 0.0155 0.0056 0.0473
H12G H -0.0336 -0.0019 0.0496
C6G C -0.034(2) 0.068(2) 0.0258(15)
O3G O 0.0656(3) 0.1091(3) 0.2394(3)
C22G C 0.0583(5) 0.0790(6) 0.2691(6)
C34G C 0.0530(5) 0.0379(5) 0.2574(5)
C33G C 0.0501(5) 0.0215(7) 0.2076(7)
O4G O 0.0583(4) 0.0406(4) 0.1707(4)
O5G O 0.1356(3) 0.0811(4) 0.1864(3)
C30G C 0.1569(6) 0.0507(6) 0.1747(6)
C24G C 0.1892(6) 0.0314(5) 0.2068(6)
C25G C 0.1748(6) 0.0222(5) 0.2536(6)
H29G H 0.1466 0.0258 0.2620
C26G C 0.2046(6) 0.0077(6) 0.2852(6)
C27G C 0.2474(6) -0.0013(5) 0.2736(6)
H30G H 0.2663 -0.0122 0.2953
C28G C 0.2601(5) 0.0075(5) 0.2256(6)
C29G C 0.2300(5) 0.0241(5) 0.1956(6)
H31G H 0.2387 0.0308 0.1656
C32B C 0.3055(6) 0.0039(6) 0.2093(6)
O7B O 0.3157(4) 0.0343(5) 0.1853(4)
La1B La 0.38311(4) 0.06711(4) 0.15291(3)
O1B O 0.3274(4) 0.0606(6) 0.0888(4)
S1B S 0.3156(4) 0.0199(6) 0.0638(4)
C2B C 0.2633(10) 0.0063(16) 0.0594(17)
H1B H 0.2503 0.0079 0.0895
H2B H 0.2610 -0.0221 0.0477
H3B H 0.2493 0.0255 0.0386
C3B C 0.3380(14) 0.0141(15) 0.0070(11)
H4B H 0.3684 0.0134 0.0093
H5B H 0.3296 0.0377 -0.0120
H6B H 0.3281 -0.0118 -0.0067
O2B O 0.4097(5) 0.0183(5) 0.0885(4)
S2B S 0.4449(4) -0.0154(4) 0.0939(4)
C5B C 0.4809(11) -0.0118(12) 0.0468(11)
H10B H 0.4944 0.0155 0.0473
H12B H 0.5019 -0.0336 0.0496
C6B C 0.432(2) -0.034(2) 0.0258(15)
O3B O 0.3909(3) 0.0656(3) 0.2394(3)
C22B C 0.4210(6) 0.0583(5) 0.2691(6)
C34B C 0.4621(5) 0.0530(5) 0.2574(5)
C33B C 0.4785(7) 0.0501(5) 0.2076(7)
O4B O 0.4594(4) 0.0583(4) 0.1707(4)
O5B O 0.4189(4) 0.1356(3) 0.1864(3)
C30B C 0.4493(6) 0.1569(6) 0.1747(6)
C24B C 0.4686(5) 0.1892(6) 0.2068(6)
C25B C 0.4778(5) 0.1748(6) 0.2536(6)
H29B H 0.4742 0.1466 0.2620
C26B C 0.4923(6) 0.2046(6) 0.2852(6)
C27B C 0.5013(5) 0.2474(6) 0.2736(6)
H30B H 0.5122 0.2663 0.2953
C28B C 0.4925(5) 0.2601(5) 0.2256(6)
C29B C 0.4759(5) 0.2300(5) 0.1956(6)
H31B H 0.4692 0.2387 0.1656
C31B C 0.4994(5) 0.1933(5) 0.3343(6)
O13B O 0.4815(4) 0.2153(4) 0.3629(3)
O12B O 0.4560(4) 0.1730(4) 0.5131(3)
C63B C 0.4595(6) 0.1309(7) 0.5106(7)
N7B N 0.4728(5) 0.1049(5) 0.5443(4)
N8B N 0.4722(5) 0.0644(5) 0.5309(4)
C65B C 0.4546(5) 0.0645(6) 0.4895(7)
C64B C 0.4456(5) 0.1058(5) 0.4726(5)
C66B C 0.4530(5) 0.0214(5) 0.4620(5)
H56B H 0.4414 0.0263 0.4316
H57B H 0.4355 0.0016 0.4784
H58B H 0.4812 0.0102 0.4591
C67B C 0.4853(6) 0.1145(7) 0.5901(7)
C68B C 0.5018(10) 0.1517(11) 0.6014(12)
H59B H 0.5046 0.1714 0.5776
C69B C 0.5157(11) 0.1645(13) 0.6460(14)
H60B H 0.5262 0.1913 0.6529
C70B C 0.5112(7) 0.1301(8) 0.6800(8)
H61B H 0.5152 0.1356 0.7114
C71B C 0.5018(6) 0.0922(7) 0.6663(7)
H62B H 0.5026 0.0700 0.6874
C72B C 0.4905(5) 0.0843(6) 0.6202(6)
H63B H 0.4865 0.0564 0.6107
O14B O 0.5222(4) 0.1619(3) 0.4318(3)
C73B C 0.5403(6) 0.1472(6) 0.3947(7)
N9B N 0.5703(5) 0.1181(5) 0.3912(5)
N10B N 0.5825(5) 0.1125(5) 0.3452(6)
C75B C 0.5575(6) 0.1370(6) 0.3193(7)
C74B C 0.5301(6) 0.1605(5) 0.3463(6)
C76B C 0.5666(6) 0.1369(6) 0.2683(6)
H64B H 0.5888 0.1170 0.2618
H65B H 0.5753 0.1648 0.2588
H66B H 0.5415 0.1290 0.2516
C77B C 0.5924(7) 0.0994(6) 0.4272(7)
C78B C 0.6331(7) 0.0897(7) 0.4206(8)
H67B H 0.6466 0.0936 0.3922
C79B C 0.6548(8) 0.0726(8) 0.4614(9)
H68B H 0.6839 0.0683 0.4596
C80B C 0.6360(8) 0.0631(7) 0.4995(8)
H69B H 0.6508 0.0487 0.5225
C81B C 0.5952(7) 0.0739(6) 0.5067(7)
H70B H 0.5826 0.0707 0.5357
C82B C 0.5719(6) 0.0902(6) 0.4682(6)
H71B H 0.5429 0.0947 0.4707
O16B O 0.5474(4) 0.2509(4) 0.4206(4)
C83B C 0.5548(8) 0.2831(9) 0.3992(8)
N11B N 0.5946(8) 0.2915(7) 0.3856(7)
N12B N 0.6024(6) 0.3328(7) 0.3676(6)
C85B C 0.5650(9) 0.3460(8) 0.3663(7)
C86B C 0.5618(6) 0.3943(6) 0.3516(7)
H72B H 0.5888 0.4037 0.3402
H73B H 0.5538 0.4110 0.3780
H74B H 0.5409 0.3974 0.3276
C87B C 0.6317(8) 0.2667(9) 0.3899(10)
C88B C 0.6702(8) 0.2862(10) 0.4002(12)
H75B H 0.6732 0.3153 0.3964
C89B C 0.7043(8) 0.2619(15) 0.4162(13)
H76B H 0.7301 0.2749 0.4229
C90B C 0.6996(11) 0.2181(15) 0.4224(16)
H77B H 0.7222 0.2020 0.4334
C91B C 0.6609(13) 0.1985(10) 0.4118(15)
H78B H 0.6576 0.1696 0.4164
C92B C 0.6274(10) 0.2226(8) 0.3946(14)
H79B H 0.6022 0.2094 0.3862
O17B O 0.4707(7) 0.2770(6) 0.5212(4)
H22B H 0.4873 0.2708 0.5420
O18B O 0.4007(6) 0.2391(5) 0.4509(7)
C14B C 0.3742(9) 0.2610(9) 0.4195(9)
H23B H 0.3451 0.2542 0.4259
H24B H 0.3809 0.2526 0.3883
H25B H 0.3784 0.2909 0.4229
C44B C 0.4700(6) 0.1524(5) 0.1274(6)
C43B C 0.4433(8) 0.1298(7) 0.0929(8)
O6B O 0.4110(4) 0.1139(4) 0.0898(3)
O8B O 0.3943(4) -0.0078(4) 0.1833(3)
C53B C 0.3718(6) -0.0342(7) 0.2051(6)
N5B N 0.3850(6) -0.0712(7) 0.2167(5)
N6B N 0.3533(7) -0.0988(6) 0.2372(6)
C55B C 0.3202(7) -0.0717(7) 0.2359(6)
C54B C 0.3276(6) -0.0311(7) 0.2188(6)
C56B C 0.2821(7) -0.0916(7) 0.2568(7)
H48B H 0.2887 -0.1199 0.2664
H49B H 0.2597 -0.0923 0.2343
H50B H 0.2732 -0.0753 0.2833
C57B C 0.4294(7) -0.0906(7) 0.2086(6)
C58B C 0.4302(7) -0.1353(7) 0.1980(7)
H51B H 0.4054 -0.1510 0.1946
C59B C 0.4687(8) -0.1531(8) 0.1934(7)
H52B H 0.4710 -0.1822 0.1891
C60B C 0.5030(7) -0.1296(7) 0.1949(6)
H53B H 0.5289 -0.1430 0.1901
C61B C 0.5033(6) -0.0855(6) 0.2035(6)
H54B H 0.5280 -0.0694 0.2033
C62B C 0.4640(7) -0.0684(7) 0.2119(6)
H55B H 0.4621 -0.0400 0.2203
O9B O 0.3330(4) 0.1260(5) 0.1654(5)
S4B S 0.3211(16) 0.1477(14) 0.2116(11)
C8B C 0.2797(18) 0.124(2) 0.244(2)
H14B H 0.2956 0.1305 0.2187
C9B C 0.3591(18) 0.176(2) 0.245(2)
H13B H 0.2873 0.1649 0.1805
N3B N 0.4749(8) 0.1320(6) 0.0544(5)
N4B N 0.5116(7) 0.1518(6) 0.0651(7)
C45B C 0.5118(6) 0.1628(6) 0.1100(7)
C46B C 0.5480(6) 0.1832(6) 0.1321(7)
H40B H 0.5696 0.1884 0.1094
H41B H 0.5589 0.1651 0.1561
H42B H 0.5391 0.2097 0.1455
C47B C 0.4647(7) 0.1212(7) 0.0088(8)
C48B C 0.4836(8) 0.1436(9) -0.0263(10)
H43B H 0.5015 0.1660 -0.0193
C49B C 0.4756(8) 0.1325(9) -0.0745(10)
H44B H 0.4877 0.1475 -0.0989
C50B C 0.4519(11) 0.1021(11) -0.0816(12)
H45B H 0.4506 0.0925 -0.1121
C51B C 0.4267(9) 0.0801(9) -0.0496(10)
H46B H 0.4054 0.0612 -0.0581
C52B C 0.4376(7) 0.0902(7) -0.0007(8)
H47B H 0.4255 0.0747 0.0234
N1B N 0.5175(5) 0.0387(5) 0.2121(4)
N2B N 0.5322(4) 0.0286(4) 0.2545(5)
C35B C 0.4993(6) 0.0375(5) 0.2810(6)
C36B C 0.5042(5) 0.0286(5) 0.3352(5)
H32B H 0.5321 0.0178 0.3414
H33B H 0.4835 0.0081 0.3447
H34B H 0.5000 0.0544 0.3521
C37B C 0.5497(6) 0.0341(6) 0.1747(6)
C38B C 0.5457(6) 0.0588(6) 0.1364(6)
H35B H 0.5233 0.0778 0.1347
C39B C 0.5756(7) 0.0564(7) 0.0975(7)
H36B H 0.5735 0.0723 0.0705
C40B C 0.6063(7) 0.0281(7) 0.1062(8)
H37B H 0.6268 0.0266 0.0831
C41B C 0.6130(7) 0.0016(6) 0.1414(7)
H38B H 0.6360 -0.0168 0.1420
C42B C 0.5816(6) 0.0033(6) 0.1798(7)
H39B H 0.5830 -0.0146 0.2053
C31G C 0.1933(5) 0.0006(5) 0.3343(6)
O13G O 0.2153(4) 0.0185(4) 0.3629(3)
O12G O 0.1730(4) 0.0440(4) 0.5131(3)
C63G C 0.1309(7) 0.0405(6) 0.5106(7)
N7G N 0.1049(5) 0.0272(5) 0.5443(4)
N8G N 0.0644(5) 0.0278(5) 0.5309(4)
C65G C 0.0645(6) 0.0454(5) 0.4895(7)
C64G C 0.1058(5) 0.0544(5) 0.4726(5)
C66G C 0.0214(5) 0.0470(5) 0.4620(5)
H56G H 0.0263 0.0586 0.4316
H57G H 0.0016 0.0645 0.4784
H58G H 0.0102 0.0188 0.4591
C67G C 0.1145(7) 0.0147(6) 0.5901(7)
C68G C 0.1517(11) -0.0018(10) 0.6014(12)
H59G H 0.1714 -0.0046 0.5776
C69G C 0.1645(13) -0.0157(11) 0.6460(14)
H60G H 0.1913 -0.0262 0.6529
C70G C 0.1301(8) -0.0112(7) 0.6800(8)
H61G H 0.1356 -0.0152 0.7114
C71G C 0.0922(7) -0.0018(6) 0.6663(7)
H62G H 0.0700 -0.0026 0.6874
C72G C 0.0843(6) 0.0095(5) 0.6202(6)
H63G H 0.0564 0.0135 0.6107
O14G O 0.1619(3) -0.0222(4) 0.4318(3)
C73G C 0.1472(6) -0.0403(6) 0.3947(7)
N9G N 0.1181(5) -0.0703(5) 0.3912(5)
N10G N 0.1125(5) -0.0825(5) 0.3452(6)
C75G C 0.1370(6) -0.0575(6) 0.3193(7)
C74G C 0.1605(5) -0.0301(6) 0.3463(6)
C76G C 0.1369(6) -0.0666(6) 0.2683(6)
H64G H 0.1170 -0.0888 0.2618
H65G H 0.1648 -0.0753 0.2588
H66G H 0.1290 -0.0415 0.2516
C77G C 0.0994(6) -0.0924(7) 0.4272(7)
C78G C 0.0897(7) -0.1331(7) 0.4206(8)
H67G H 0.0936 -0.1466 0.3922
C79G C 0.0726(8) -0.1548(8) 0.4614(9)
H68G H 0.0683 -0.1839 0.4596
C80G C 0.0631(7) -0.1360(8) 0.4995(8)
H69G H 0.0487 -0.1508 0.5225
C81G C 0.0739(6) -0.0952(7) 0.5067(7)
H70G H 0.0707 -0.0826 0.5357
C82G C 0.0902(6) -0.0719(6) 0.4682(6)
H71G H 0.0947 -0.0429 0.4707
O16G O 0.2509(4) -0.0474(4) 0.4206(4)
C83G C 0.2831(9) -0.0548(8) 0.3992(8)
N11G N 0.2915(7) -0.0946(8) 0.3856(7)
N12G N 0.3328(7) -0.1024(6) 0.3676(6)
C85G C 0.3460(8) -0.0650(9) 0.3663(7)
C84B C 0.3206(6) -0.0333(6) 0.3858(6)
C86G C 0.3943(6) -0.0618(6) 0.3516(7)
H72G H 0.4037 -0.0888 0.3402
H73G H 0.4110 -0.0538 0.3780
H74G H 0.3974 -0.0409 0.3276
C87G C 0.2667(9) -0.1317(8) 0.3899(10)
C88G C 0.2862(10) -0.1702(8) 0.4002(12)
H75G H 0.3153 -0.1732 0.3964
C89G C 0.2619(15) -0.2043(8) 0.4162(13)
H76G H 0.2749 -0.2301 0.4229
C90G C 0.2181(15) -0.1996(11) 0.4224(16)
H77G H 0.2020 -0.2222 0.4334
C91G C 0.1985(10) -0.1609(13) 0.4118(15)
H78G H 0.1696 -0.1576 0.4164
C92G C 0.2226(8) -0.1274(10) 0.3946(14)
H79G H 0.2094 -0.1022 0.3862
O17G O 0.2770(6) 0.0293(7) 0.5212(4)
H22G H 0.2708 0.0127 0.5420
O18G O 0.2391(5) 0.0993(6) 0.4509(7)
C14G C 0.2610(9) 0.1258(9) 0.4195(9)
H23G H 0.2542 0.1549 0.4259
H24G H 0.2526 0.1191 0.3883
H25G H 0.2909 0.1216 0.4229
C44G C 0.1524(5) 0.0300(6) 0.1274(6)
C43G C 0.1298(7) 0.0567(8) 0.0929(8)
O6G O 0.1139(4) 0.0890(4) 0.0898(3)
O8G O -0.0078(4) 0.1057(4) 0.1833(3)
C53G C -0.0342(7) 0.1282(6) 0.2051(6)
N5G N -0.0712(7) 0.1150(6) 0.2167(5)
N6G N -0.0988(6) 0.1467(7) 0.2372(6)
C55G C -0.0717(7) 0.1798(7) 0.2359(6)
C54G C -0.0311(7) 0.1724(6) 0.2188(6)
C56G C -0.0916(7) 0.2179(7) 0.2568(7)
H48G H -0.1199 0.2113 0.2664
H49G H -0.0923 0.2403 0.2343
H50G H -0.0753 0.2268 0.2833
C57G C -0.0906(7) 0.0706(7) 0.2086(6)
C58G C -0.1353(7) 0.0698(7) 0.1980(7)
H51G H -0.1510 0.0946 0.1946
C59G C -0.1531(8) 0.0313(8) 0.1934(7)
H52G H -0.1822 0.0290 0.1891
C60G C -0.1296(7) -0.0030(7) 0.1949(6)
H53G H -0.1430 -0.0289 0.1901
C61G C -0.0855(6) -0.0033(6) 0.2035(6)
H54G H -0.0694 -0.0280 0.2033
C62G C -0.0684(7) 0.0360(7) 0.2119(6)
H55G H -0.0400 0.0379 0.2203
O9G O 0.1260(5) 0.1670(4) 0.1654(5)
S4G S 0.1477(14) 0.1789(16) 0.2116(11)
C8G C 0.124(2) 0.2203(18) 0.244(2)
H14G H 0.1305 0.2044 0.2187
C9G C 0.176(2) 0.1409(18) 0.245(2)
H13G H 0.1649 0.2127 0.1805
N3G N 0.1320(6) 0.0251(8) 0.0544(5)
N4G N 0.1518(6) -0.0116(7) 0.0651(7)
C45G C 0.1628(6) -0.0118(6) 0.1100(7)
C46G C 0.1832(6) -0.0480(6) 0.1321(7)
H40G H 0.1884 -0.0696 0.1094
H41G H 0.1651 -0.0589 0.1561
H42G H 0.2097 -0.0391 0.1455
C47G C 0.1212(7) 0.0353(7) 0.0088(8)
C48G C 0.1436(9) 0.0164(8) -0.0263(10)
H43G H 0.1660 -0.0015 -0.0193
C49G C 0.1325(9) 0.0244(8) -0.0745(10)
H44G H 0.1475 0.0123 -0.0989
C50G C 0.1021(11) 0.0481(11) -0.0816(12)
H45G H 0.0925 0.0494 -0.1121
C51G C 0.0801(9) 0.0733(9) -0.0496(10)
H46G H 0.0612 0.0946 -0.0581
C52G C 0.0902(7) 0.0624(7) -0.0007(8)
H47G H 0.0747 0.0745 0.0234
N1G N 0.0387(5) -0.0175(5) 0.2121(4)
N2G N 0.0286(4) -0.0322(4) 0.2545(5)
C35G C 0.0375(5) 0.0007(6) 0.2810(6)
C36G C 0.0286(5) -0.0042(5) 0.3352(5)
H32G H 0.0178 -0.0321 0.3414
H33G H 0.0081 0.0165 0.3447
H34G H 0.0544 0.0000 0.3521
C37G C 0.0341(6) -0.0497(6) 0.1747(6)
C38G C 0.0588(6) -0.0457(6) 0.1364(6)
H35G H 0.0778 -0.0233 0.1347
C39G C 0.0564(7) -0.0756(7) 0.0975(7)
H36G H 0.0723 -0.0735 0.0705
C40G C 0.0281(7) -0.1063(7) 0.1062(8)
H37G H 0.0266 -0.1268 0.0831
C41G C 0.0016(6) -0.1130(7) 0.1414(7)
H38G H -0.0168 -0.1360 0.1420
C42G C 0.0033(6) -0.0816(6) 0.1798(7)
H39G H -0.0146 -0.0830 0.2053
C31A C 0.0006(5) 0.3067(5) 0.3343(6)
O13A O 0.0185(4) 0.2847(4) 0.3629(3)
O12A O 0.0440(4) 0.3270(4) 0.5131(3)
C63A C 0.0405(6) 0.3691(7) 0.5106(7)
N7A N 0.0272(5) 0.3951(5) 0.5443(4)
N8A N 0.0278(5) 0.4356(5) 0.5309(4)
C65A C 0.0454(5) 0.4355(6) 0.4895(7)
C64A C 0.0544(5) 0.3942(5) 0.4726(5)
C66A C 0.0470(5) 0.4786(5) 0.4620(5)
H56A H 0.0586 0.4737 0.4316
H57A H 0.0645 0.4984 0.4784
H58A H 0.0188 0.4898 0.4591
C67A C 0.0147(6) 0.3855(7) 0.5901(7)
C68A C -0.0018(10) 0.3483(11) 0.6014(12)
H59A H -0.0046 0.3286 0.5776
C69A C -0.0157(11) 0.3355(13) 0.6460(14)
H60A H -0.0262 0.3087 0.6529
C70A C -0.0112(7) 0.3699(8) 0.6800(8)
H61A H -0.0152 0.3644 0.7114
C71A C -0.0018(6) 0.4078(7) 0.6663(7)
H62A H -0.0026 0.4300 0.6874
C72A C 0.0095(5) 0.4157(6) 0.6202(6)
H63A H 0.0135 0.4436 0.6107
O14A O -0.0222(4) 0.3381(3) 0.4318(3)
C73A C -0.0403(6) 0.3528(6) 0.3947(7)
N9A N -0.0703(5) 0.3819(5) 0.3912(5)
N10A N -0.0825(5) 0.3875(5) 0.3452(6)
C75A C -0.0575(6) 0.3630(6) 0.3193(7)
C74A C -0.0301(6) 0.3395(5) 0.3463(6)
C76A C -0.0666(6) 0.3631(6) 0.2683(6)
H64A H -0.0888 0.3830 0.2618
H65A H -0.0753 0.3352 0.2588
H66A H -0.0415 0.3710 0.2516
C77A C -0.0924(7) 0.4006(6) 0.4272(7)
C78A C -0.1331(7) 0.4103(7) 0.4206(8)
H67A H -0.1466 0.4064 0.3922
C79A C -0.1548(8) 0.4274(8) 0.4614(9)
H68A H -0.1839 0.4317 0.4596
C80A C -0.1360(8) 0.4369(7) 0.4995(8)
H69A H -0.1508 0.4513 0.5225
C81A C -0.0952(7) 0.4261(6) 0.5067(7)
H70A H -0.0826 0.4293 0.5357
C82A C -0.0719(6) 0.4098(6) 0.4682(6)
H71A H -0.0429 0.4053 0.4707
O16A O -0.0474(4) 0.2491(4) 0.4206(4)
C83A C -0.0548(8) 0.2169(9) 0.3992(8)
N11A N -0.0946(8) 0.2085(7) 0.3856(7)
N12A N -0.1024(6) 0.1672(7) 0.3676(6)
C85A C -0.0650(9) 0.1540(8) 0.3663(7)
C84G C -0.0333(6) 0.1794(6) 0.3858(6)
C86A C -0.0618(6) 0.1057(6) 0.3516(7)
H72A H -0.0888 0.0963 0.3402
H73A H -0.0538 0.0890 0.3780
H74A H -0.0409 0.1026 0.3276
C87A C -0.1317(8) 0.2333(9) 0.3899(10)
C88A C -0.1702(8) 0.2138(10) 0.4002(12)
H75A H -0.1732 0.1847 0.3964
C89A C -0.2043(8) 0.2381(15) 0.4162(13)
H76A H -0.2301 0.2251 0.4229
C90A C -0.1996(11) 0.2819(15) 0.4224(16)
H77A H -0.2222 0.2980 0.4334
C91A C -0.1609(13) 0.3015(10) 0.4118(15)
H78A H -0.1576 0.3304 0.4164
C92A C -0.1274(10) 0.2774(8) 0.3946(14)
H79A H -0.1022 0.2906 0.3862
O17A O 0.0293(7) 0.2230(6) 0.5212(4)
H22A H 0.0127 0.2292 0.5420
O18A O 0.0993(6) 0.2609(5) 0.4509(7)
C14A C 0.1258(9) 0.2390(9) 0.4195(9)
H23A H 0.1549 0.2458 0.4259
H24A H 0.1191 0.2474 0.3883
H25A H 0.1216 0.2091 0.4229
C44A C 0.0300(6) 0.3476(5) 0.1274(6)
C43A C 0.0567(8) 0.3702(7) 0.0929(8)
O6A O 0.0890(4) 0.3861(4) 0.0898(3)
O8A O 0.1057(4) 0.5078(4) 0.1833(3)
C53A C 0.1282(6) 0.5342(7) 0.2051(6)
N5A N 0.1150(6) 0.5712(7) 0.2167(5)
N6A N 0.1467(7) 0.5988(6) 0.2372(6)
C55A C 0.1798(7) 0.5717(7) 0.2359(6)
C54A C 0.1724(6) 0.5311(7) 0.2188(6)
C56A C 0.2179(7) 0.5916(7) 0.2568(7)
H48A H 0.2113 0.6199 0.2664
H49A H 0.2403 0.5923 0.2343
H50A H 0.2268 0.5753 0.2833
C57A C 0.0706(7) 0.5906(7) 0.2086(6)
C58A C 0.0698(7) 0.6353(7) 0.1980(7)
H51A H 0.0946 0.6510 0.1946
C59A C 0.0313(8) 0.6531(8) 0.1934(7)
H52A H 0.0290 0.6822 0.1891
C60A C -0.0030(7) 0.6296(7) 0.1949(6)
H53A H -0.0289 0.6430 0.1901
C61A C -0.0033(6) 0.5855(6) 0.2035(6)
H54A H -0.0280 0.5694 0.2033
C62A C 0.0360(7) 0.5684(7) 0.2119(6)
H55A H 0.0379 0.5400 0.2203
O9A O 0.1670(4) 0.3740(5) 0.1654(5)
S4A S 0.1789(16) 0.3523(14) 0.2116(11)
C8A C 0.2203(18) 0.376(2) 0.244(2)
H14A H 0.2044 0.3695 0.2187
C9A C 0.1409(18) 0.324(2) 0.245(2)
H13A H 0.2127 0.3351 0.1805
N3A N 0.0251(8) 0.3680(6) 0.0544(5)
N4A N -0.0116(7) 0.3482(6) 0.0651(7)
C45A C -0.0118(6) 0.3372(6) 0.1100(7)
C46A C -0.0480(6) 0.3168(6) 0.1321(7)
H40A H -0.0696 0.3116 0.1094
H41A H -0.0589 0.3349 0.1561
H42A H -0.0391 0.2903 0.1455
C47A C 0.0353(7) 0.3788(7) 0.0088(8)
C48A C 0.0164(8) 0.3564(9) -0.0263(10)
H43A H -0.0015 0.3340 -0.0193
C49A C 0.0244(8) 0.3675(9) -0.0745(10)
H44A H 0.0123 0.3525 -0.0989
C50A C 0.0481(11) 0.3979(11) -0.0816(12)
H45A H 0.0494 0.4075 -0.1121
C51A C 0.0733(9) 0.4199(9) -0.0496(10)
H46A H 0.0946 0.4388 -0.0581
C52A C 0.0624(7) 0.4098(7) -0.0007(8)
H47A H 0.0745 0.4253 0.0234
N1A N -0.0175(5) 0.4613(5) 0.2121(4)
N2A N -0.0322(4) 0.4714(4) 0.2545(5)
C35A C 0.0007(6) 0.4625(5) 0.2810(6)
C36A C -0.0042(5) 0.4714(5) 0.3352(5)
H32A H -0.0321 0.4822 0.3414
H33A H 0.0165 0.4919 0.3447
H34A H 0.0000 0.4456 0.3521
C37A C -0.0497(6) 0.4659(6) 0.1747(6)
C38A C -0.0457(6) 0.4412(6) 0.1364(6)
H35A H -0.0233 0.4222 0.1347
C39A C -0.0756(7) 0.4436(7) 0.0975(7)
H36A H -0.0735 0.4277 0.0705
C40A C -0.1063(7) 0.4719(7) 0.1062(8)
H37A H -0.1268 0.4734 0.0831
C41A C -0.1130(7) 0.4984(6) 0.1414(7)
H38A H -0.1360 0.5168 0.1420
C42A C -0.0816(6) 0.4967(6) 0.1798(7)
H39A H -0.0830 0.5146 0.2053
C84A C 0.1794(6) 0.5333(6) 0.3858(6)
O20 O 0.1398(13) 0.4538(14) 0.5585(13)
C94 C 0.1585(11) 0.4313(10) 0.5258(12)
C96 C 0.629(2) 0.274(2) 0.133(2)
O22 O 0.627(2) 0.326(2) 0.123(2)
O23 O 0.3691(10) 0.7492(10) 0.3269(11)
C97 C 0.3894(17) 0.7484(17) 0.3709(19)
O24 O 0.3114(9) 0.3738(9) 0.0293(10)
C98 C 0.345(5) 0.339(5) 0.027(5)
C99 C 0.269(3) 0.374(3) -0.005(3)
O25 O 0.2290(10) 0.5184(11) 0.6096(10)
C100 C 0.2298(13) 0.4834(15) 0.6100(13)
C102 C 0.606(2) 0.619(2) 0.204(2)
O27 O 0.596(2) 0.6202(19) 0.250(2)
O28 O 0.278(3) 0.374(3) 0.102(3)
C103 C 0.312(5) 0.345(5) 0.091(5)
O29 O 0.2609(11) 0.3572(11) 0.3451(12)
C104 C 0.312(3) 0.366(3) 0.350(3)
O31 O 0.4661(9) 0.6104(9) 0.3019(9)
C106 C 0.4444(15) 0.6376(15) 0.3034(14)
O32 O 0.4050(18) 0.6553(17) 0.1887(19)
C107 C 0.415(2) 0.698(2) 0.153(2)
O33 O 0.3529(9) 0.5884(9) 0.0138(10)
O34 O 0.3617(9) 0.8382(9) 0.3022(10)
O35 O 0.3256(15) 0.3694(14) 0.5779(15)
O36 O 0.4160(16) 0.7691(17) 0.2798(17)
O37 O 0.3247(17) 0.3580(17) 0.5032(18)
O38 O 0.3137(17) 0.6498(17) 0.1835(19)
O39 O 0.4110(18) 0.6542(18) 0.010(2)
O40 O 0.527(2) 0.5976(19) 0.299(2)
loop_
_geom_bond_atom_site_label_1
_geom_bond_atom_site_label_2
_geom_bond_site_symmetry_1
_geom_bond_site_symmetry_2
La1 O1 1_555 1_555
O1 S1 1_555 1_555
S1 C2 1_555 1_555
C2 H1 1_555 1_555
H2 C2 1_555 1_555
H3 C2 1_555 1_555
C3 S1 1_555 1_555
H4 C3 1_555 1_555
H5 C3 1_555 1_555
H6 C3 1_555 1_555
O2 La1 1_555 1_555
S2 O2 1_555 1_555
C5 S2 1_555 1_555
H10 C5 1_555 1_555
H12 C5 1_555 1_555
C6 S2 1_555 1_555
O3 La1 1_555 1_555
O4 La1 1_555 1_555
O5 La1 1_555 1_555
O6 La1 1_555 1_555
O7 La1 1_555 1_555
O8 La1 1_555 1_555
O9 La1 1_555 1_555
S4 O9 1_555 1_555
C8 S4 1_555 1_555
C9 S4 1_555 1_555
H13 S4 1_555 1_555
H14 S4 1_555 1_555
La2 O10 1_555 1_555
O10 S5 1_555 1_555
S5 C11 1_555 1_555
C11 H16 1_555 1_555
H17 C11 1_555 1_555
H18 C11 1_555 1_555
C12 S5 1_555 1_555
H19 C12 1_555 1_555
H20 C12 1_555 1_555
H21 C12 1_555 1_555
O11 La2 1_555 1_555
O12 La2 1_555 1_555
O13 La2 1_555 1_555
O14 La2 1_555 1_555
O15 La2 1_555 1_555
O16 La2 1_555 1_555
O17 La2 1_555 1_555
H22 O17 1_555 1_555
O18 La2 1_555 1_555
C14 O18 1_555 1_555
H23 C14 1_555 1_555
H24 C14 1_555 1_555
H25 C14 1_555 1_555
C15 C16 1_555 1_555
C16 H26 1_555 1_555
C17 C16 1_555 1_555
C18 C17 1_555 1_555
H27 C18 1_555 1_555
C19 C18 1_555 1_555
C20 C15 1_555 1_555
H28 C20 1_555 1_555
C21 O11 1_555 1_555
C22 O3 1_555 1_555
C23 C19 1_555 1_555
C24 C25 1_555 1_555
C25 H29 1_555 1_555
C26 C25 1_555 1_555
C27 C26 1_555 1_555
H30 C27 1_555 1_555
C28 C27 1_555 1_555
C29 C24 1_555 1_555
H31 C29 1_555 1_555
C30 O5 1_555 1_555
C31 O13 1_555 1_555
C32 O7 1_555 1_555
N1 N2 1_555 1_555
N2 C35 1_555 1_555
C33 O4 1_555 1_555
C34 C22 1_555 1_555
C35 C34 1_555 1_555
C36 C35 1_555 1_555
H32 C36 1_555 1_555
H33 C36 1_555 1_555
H34 C36 1_555 1_555
C37 N1 1_555 1_555
C38 C37 1_555 1_555
H35 C38 1_555 1_555
C39 C38 1_555 1_555
H36 C39 1_555 1_555
C40 C39 1_555 1_555
H37 C40 1_555 1_555
C41 C40 1_555 1_555
H38 C41 1_555 1_555
C42 C37 1_555 1_555
H39 C42 1_555 1_555
N3 N4 1_555 1_555
N4 C45 1_555 1_555
C43 O6 1_555 1_555
C44 C30 1_555 1_555
C45 C44 1_555 1_555
C46 C45 1_555 1_555
H40 C46 1_555 1_555
H41 C46 1_555 1_555
H42 C46 1_555 1_555
C47 N3 1_555 1_555
C48 C47 1_555 1_555
H43 C48 1_555 1_555
C49 C48 1_555 1_555
H44 C49 1_555 1_555
C50 C49 1_555 1_555
H45 C50 1_555 1_555
C51 C50 1_555 1_555
H46 C51 1_555 1_555
C52 C47 1_555 1_555
H47 C52 1_555 1_555
N5 N6 1_555 1_555
N6 C55 1_555 1_555
C53 O8 1_555 1_555
C54 C32 1_555 1_555
C55 C54 1_555 1_555
C56 C55 1_555 1_555
H48 C56 1_555 1_555
H49 C56 1_555 1_555
H50 C56 1_555 1_555
C57 N5 1_555 1_555
C58 C57 1_555 1_555
H51 C58 1_555 1_555
C59 C58 1_555 1_555
H52 C59 1_555 1_555
C60 C59 1_555 1_555
H53 C60 1_555 1_555
C61 C60 1_555 1_555
H54 C61 1_555 1_555
C62 C57 1_555 1_555
H55 C62 1_555 1_555
N7 N8 1_555 1_555
N8 C65 1_555 1_555
C63 O12 1_555 1_555
C64 C21 1_555 1_555
C65 C64 1_555 1_555
C66 C65 1_555 1_555
H56 C66 1_555 1_555
H57 C66 1_555 1_555
H58 C66 1_555 1_555
C67 N7 1_555 1_555
C68 C67 1_555 1_555
H59 C68 1_555 1_555
C69 C68 1_555 1_555
H60 C69 1_555 1_555
C70 C69 1_555 1_555
H61 C70 1_555 1_555
C71 C70 1_555 1_555
H62 C71 1_555 1_555
C72 C67 1_555 1_555
H63 C72 1_555 1_555
N9 N10 1_555 1_555
N10 C75 1_555 1_555
C73 O14 1_555 1_555
C74 C31 1_555 1_555
C75 C74 1_555 1_555
C76 C75 1_555 1_555
H64 C76 1_555 1_555
H65 C76 1_555 1_555
H66 C76 1_555 1_555
C77 N9 1_555 1_555
C78 C77 1_555 1_555
H67 C78 1_555 1_555
C79 C78 1_555 1_555
H68 C79 1_555 1_555
C80 C79 1_555 1_555
H69 C80 1_555 1_555
C81 C80 1_555 1_555
H70 C81 1_555 1_555
C82 C77 1_555 1_555
H71 C82 1_555 1_555
N11 N12 1_555 1_555
N12 C85 1_555 1_555
C83 O16 1_555 1_555
C84 C23 1_555 1_555
C85 C86 1_555 1_555
C86 H72 1_555 1_555
H73 C86 1_555 1_555
H74 C86 1_555 1_555
C87 N11 1_555 1_555
C88 C87 1_555 1_555
H75 C88 1_555 1_555
C89 C88 1_555 1_555
H76 C89 1_555 1_555
C90 C89 1_555 1_555
H77 C90 1_555 1_555
C91 C90 1_555 1_555
H78 C91 1_555 1_555
C92 C87 1_555 1_555
H79 C92 1_555 1_555
O20 C94 1_555 1_555
C96 O22 1_555 1_555
O23 C97 1_555 1_555
O24 C98 1_555 1_555
C99 O24 1_555 1_555
O25 C100 1_555 1_555
C102 O27 1_555 1_555
O28 C103 1_555 1_555
O29 C104 1_555 1_555
O31 C106 1_555 1_555
O32 C107 1_555 1_555
O15B C23 1_555 1_555
La2B O15B 1_555 1_555
O10B La2B 1_555 1_555
S5B O10B 1_555 1_555
C11B S5B 1_555 1_555
H16B C11B 1_555 1_555
H17B C11B 1_555 1_555
H18B C11B 1_555 1_555
C12B S5B 1_555 1_555
H19B C12B 1_555 1_555
H20B C12B 1_555 1_555
H21B C12B 1_555 1_555
O11B La2B 1_555 1_555
C21B O11B 1_555 1_555
C15B C21B 1_555 1_555
C16B C15B 1_555 1_555
H26B C16B 1_555 1_555
C17B C16B 1_555 1_555
C18B C17B 1_555 1_555
H27B C18B 1_555 1_555
C19B C18B 1_555 1_555
C20B C15B 1_555 1_555
H28B C20B 1_555 1_555
C23B C19B 1_555 1_555
O15G C23B 1_555 1_555
La2G O15G 1_555 1_555
O10G La2G 1_555 1_555
S5G O10G 1_555 1_555
C11G S5G 1_555 1_555
H16G C11G 1_555 1_555
H17G C11G 1_555 1_555
H18G C11G 1_555 1_555
C12G S5G 1_555 1_555
H19G C12G 1_555 1_555
H20G C12G 1_555 1_555
H21G C12G 1_555 1_555
O11G La2G 1_555 1_555
C21G O11G 1_555 1_555
C15G C21G 1_555 1_555
C16G C15G 1_555 1_555
H26G C16G 1_555 1_555
C17G C16G 1_555 1_555
C18G C17G 1_555 1_555
H27G C18G 1_555 1_555
C19G C18G 1_555 1_555
C20G C15G 1_555 1_555
H28G C20G 1_555 1_555
C23G C19G 1_555 1_555
O15A C23G 1_555 1_555
La2A O15A 1_555 1_555
O10A La2A 1_555 1_555
S5A O10A 1_555 1_555
C11A S5A 1_555 1_555
H16A C11A 1_555 1_555
H17A C11A 1_555 1_555
H18A C11A 1_555 1_555
C12A S5A 1_555 1_555
H19A C12A 1_555 1_555
H20A C12A 1_555 1_555
H21A C12A 1_555 1_555
O11A La2A 1_555 1_555
C21A O11A 1_555 1_555
C15A C21A 1_555 1_555
C16A C15A 1_555 1_555
H26A C16A 1_555 1_555
C17A C16A 1_555 1_555
C18A C17A 1_555 1_555
H27A C18A 1_555 1_555
C19A C18A 1_555 1_555
C20A C15A 1_555 1_555
H28A C20A 1_555 1_555
C23A O15 1_555 1_555
C32A C28 1_555 1_555
O7A C32A 1_555 1_555
La1A O7A 1_555 1_555
O1A La1A 1_555 1_555
S1A O1A 1_555 1_555
C2A S1A 1_555 1_555
H1A C2A 1_555 1_555
H2A C2A 1_555 1_555
H3A C2A 1_555 1_555
C3A S1A 1_555 1_555
H4A C3A 1_555 1_555
H5A C3A 1_555 1_555
H6A C3A 1_555 1_555
O2A La1A 1_555 1_555
S2A O2A 1_555 1_555
C5A S2A 1_555 1_555
H10A C5A 1_555 1_555
H12A C5A 1_555 1_555
C6A S2A 1_555 1_555
O3A La1A 1_555 1_555
C22A C17A 1_555 1_555
C34A C22A 1_555 1_555
C33A C34A 1_555 1_555
O4A La1A 1_555 1_555
O5A La1A 1_555 1_555
C30A O5A 1_555 1_555
C24A C30A 1_555 1_555
C25A C24A 1_555 1_555
H29A C25A 1_555 1_555
C26A C25A 1_555 1_555
C27A C26A 1_555 1_555
H30A C27A 1_555 1_555
C28A C27A 1_555 1_555
C29A C24A 1_555 1_555
H31A C29A 1_555 1_555
C32G C28A 1_555 1_555
O7G C32G 1_555 1_555
La1G O7G 1_555 1_555
O1G La1G 1_555 1_555
S1G O1G 1_555 1_555
C2G S1G 1_555 1_555
H1G C2G 1_555 1_555
H2G C2G 1_555 1_555
H3G C2G 1_555 1_555
C3G S1G 1_555 1_555
H4G C3G 1_555 1_555
H5G C3G 1_555 1_555
H6G C3G 1_555 1_555
O2G La1G 1_555 1_555
S2G O2G 1_555 1_555
C5G S2G 1_555 1_555
H10G C5G 1_555 1_555
H12G C5G 1_555 1_555
C6G S2G 1_555 1_555
O3G La1G 1_555 1_555
C22G C17G 1_555 1_555
C34G C22G 1_555 1_555
C33G C34G 1_555 1_555
O4G La1G 1_555 1_555
O5G La1G 1_555 1_555
C30G O5G 1_555 1_555
C24G C30G 1_555 1_555
C25G C24G 1_555 1_555
H29G C25G 1_555 1_555
C26G C25G 1_555 1_555
C27G C26G 1_555 1_555
H30G C27G 1_555 1_555
C28G C27G 1_555 1_555
C29G C24G 1_555 1_555
H31G C29G 1_555 1_555
C32B C28G 1_555 1_555
O7B C32B 1_555 1_555
La1B O7B 1_555 1_555
O1B La1B 1_555 1_555
S1B O1B 1_555 1_555
C2B S1B 1_555 1_555
H1B C2B 1_555 1_555
H2B C2B 1_555 1_555
H3B C2B 1_555 1_555
C3B S1B 1_555 1_555
H4B C3B 1_555 1_555
H5B C3B 1_555 1_555
H6B C3B 1_555 1_555
O2B La1B 1_555 1_555
S2B O2B 1_555 1_555
C5B S2B 1_555 1_555
H10B C5B 1_555 1_555
H12B C5B 1_555 1_555
C6B S2B 1_555 1_555
O3B La1B 1_555 1_555
C22B C17B 1_555 1_555
C34B C22B 1_555 1_555
C33B C34B 1_555 1_555
O4B La1B 1_555 1_555
O5B La1B 1_555 1_555
C30B O5B 1_555 1_555
C24B C30B 1_555 1_555
C25B C24B 1_555 1_555
H29B C25B 1_555 1_555
C26B C25B 1_555 1_555
C27B C26B 1_555 1_555
H30B C27B 1_555 1_555
C28B C32 1_555 1_555
C29B C24B 1_555 1_555
H31B C29B 1_555 1_555
C31B C26B 1_555 1_555
O13B La2B 1_555 1_555
O12B La2B 1_555 1_555
C63B O12B 1_555 1_555
N7B C63B 1_555 1_555
N8B N7B 1_555 1_555
C65B N8B 1_555 1_555
C64B C21B 1_555 1_555
C66B C65B 1_555 1_555
H56B C66B 1_555 1_555
H57B C66B 1_555 1_555
H58B C66B 1_555 1_555
C67B N7B 1_555 1_555
C68B C67B 1_555 1_555
H59B C68B 1_555 1_555
C69B C68B 1_555 1_555
H60B C69B 1_555 1_555
C70B C69B 1_555 1_555
H61B C70B 1_555 1_555
C71B C70B 1_555 1_555
H62B C71B 1_555 1_555
C72B C67B 1_555 1_555
H63B C72B 1_555 1_555
O14B La2B 1_555 1_555
C73B O14B 1_555 1_555
N9B C73B 1_555 1_555
N10B N9B 1_555 1_555
C75B N10B 1_555 1_555
C74B C31B 1_555 1_555
C76B C75B 1_555 1_555
H64B C76B 1_555 1_555
H65B C76B 1_555 1_555
H66B C76B 1_555 1_555
C77B N9B 1_555 1_555
C78B C77B 1_555 1_555
H67B C78B 1_555 1_555
C79B C78B 1_555 1_555
H68B C79B 1_555 1_555
C80B C79B 1_555 1_555
H69B C80B 1_555 1_555
C81B C80B 1_555 1_555
H70B C81B 1_555 1_555
C82B C77B 1_555 1_555
H71B C82B 1_555 1_555
O16B La2B 1_555 1_555
C83B C84 1_555 1_555
N11B C83B 1_555 1_555
N12B N11B 1_555 1_555
C85B C84 1_555 1_555
C86B C85B 1_555 1_555
H72B C86B 1_555 1_555
H73B C86B 1_555 1_555
H74B C86B 1_555 1_555
C87B N11B 1_555 1_555
C88B C87B 1_555 1_555
H75B C88B 1_555 1_555
C89B C88B 1_555 1_555
H76B C89B 1_555 1_555
C90B C89B 1_555 1_555
H77B C90B 1_555 1_555
C91B C90B 1_555 1_555
H78B C91B 1_555 1_555
C92B C87B 1_555 1_555
H79B C92B 1_555 1_555
O17B La2B 1_555 1_555
H22B O17B 1_555 1_555
O18B La2B 1_555 1_555
C14B O18B 1_555 1_555
H23B C14B 1_555 1_555
H24B C14B 1_555 1_555
H25B C14B 1_555 1_555
C44B C30B 1_555 1_555
C43B C44B 1_555 1_555
O6B La1B 1_555 1_555
O8B La1B 1_555 1_555
C53B O8B 1_555 1_555
N5B C53B 1_555 1_555
N6B N5B 1_555 1_555
C55B N6B 1_555 1_555
C54B C32B 1_555 1_555
C56B C55B 1_555 1_555
H48B C56B 1_555 1_555
H49B C56B 1_555 1_555
H50B C56B 1_555 1_555
C57B N5B 1_555 1_555
C58B C57B 1_555 1_555
H51B C58B 1_555 1_555
C59B C58B 1_555 1_555
H52B C59B 1_555 1_555
C60B C59B 1_555 1_555
H53B C60B 1_555 1_555
C61B C60B 1_555 1_555
H54B C61B 1_555 1_555
C62B C57B 1_555 1_555
H55B C62B 1_555 1_555
O9B La1B 1_555 1_555
S4B O9B 1_555 1_555
C8B S4B 1_555 1_555
H14B S4B 1_555 1_555
C9B S4B 1_555 1_555
H13B S4B 1_555 1_555
N3B C43B 1_555 1_555
N4B N3B 1_555 1_555
C45B C44B 1_555 1_555
C46B C45B 1_555 1_555
H40B C46B 1_555 1_555
H41B C46B 1_555 1_555
H42B C46B 1_555 1_555
C47B N3B 1_555 1_555
C48B C47B 1_555 1_555
H43B C48B 1_555 1_555
C49B C48B 1_555 1_555
H44B C49B 1_555 1_555
C50B C49B 1_555 1_555
H45B C50B 1_555 1_555
C51B C50B 1_555 1_555
H46B C51B 1_555 1_555
C52B C47B 1_555 1_555
H47B C52B 1_555 1_555
N1B C33B 1_555 1_555
N2B N1B 1_555 1_555
C35B C34B 1_555 1_555
C36B C35B 1_555 1_555
H32B C36B 1_555 1_555
H33B C36B 1_555 1_555
H34B C36B 1_555 1_555
C37B N1B 1_555 1_555
C38B C37B 1_555 1_555
H35B C38B 1_555 1_555
C39B C38B 1_555 1_555
H36B C39B 1_555 1_555
C40B C39B 1_555 1_555
H37B C40B 1_555 1_555
C41B C40B 1_555 1_555
H38B C41B 1_555 1_555
C42B C37B 1_555 1_555
H39B C42B 1_555 1_555
C31G C26G 1_555 1_555
O13G La2G 1_555 1_555
O12G La2G 1_555 1_555
C63G O12G 1_555 1_555
N7G C63G 1_555 1_555
N8G N7G 1_555 1_555
C65G N8G 1_555 1_555
C64G C21G 1_555 1_555
C66G C65G 1_555 1_555
H56G C66G 1_555 1_555
H57G C66G 1_555 1_555
H58G C66G 1_555 1_555
C67G N7G 1_555 1_555
C68G C67G 1_555 1_555
H59G C68G 1_555 1_555
C69G C68G 1_555 1_555
H60G C69G 1_555 1_555
C70G C69G 1_555 1_555
H61G C70G 1_555 1_555
C71G C70G 1_555 1_555
H62G C71G 1_555 1_555
C72G C67G 1_555 1_555
H63G C72G 1_555 1_555
O14G La2G 1_555 1_555
C73G O14G 1_555 1_555
N9G C73G 1_555 1_555
N10G N9G 1_555 1_555
C75G N10G 1_555 1_555
C74G C31G 1_555 1_555
C76G C75G 1_555 1_555
H64G C76G 1_555 1_555
H65G C76G 1_555 1_555
H66G C76G 1_555 1_555
C77G N9G 1_555 1_555
C78G C77G 1_555 1_555
H67G C78G 1_555 1_555
C79G C78G 1_555 1_555
H68G C79G 1_555 1_555
C80G C79G 1_555 1_555
H69G C80G 1_555 1_555
C81G C80G 1_555 1_555
H70G C81G 1_555 1_555
C82G C77G 1_555 1_555
H71G C82G 1_555 1_555
O16G La2G 1_555 1_555
C83G O16G 1_555 1_555
N11G C83G 1_555 1_555
N12G N11G 1_555 1_555
C85G N12G 1_555 1_555
C84B C23B 1_555 1_555
C86G C85G 1_555 1_555
H72G C86G 1_555 1_555
H73G C86G 1_555 1_555
H74G C86G 1_555 1_555
C87G N11G 1_555 1_555
C88G C87G 1_555 1_555
H75G C88G 1_555 1_555
C89G C88G 1_555 1_555
H76G C89G 1_555 1_555
C90G C89G 1_555 1_555
H77G C90G 1_555 1_555
C91G C90G 1_555 1_555
H78G C91G 1_555 1_555
C92G C87G 1_555 1_555
H79G C92G 1_555 1_555
O17G La2G 1_555 1_555
H22G O17G 1_555 1_555
O18G La2G 1_555 1_555
C14G O18G 1_555 1_555
H23G C14G 1_555 1_555
H24G C14G 1_555 1_555
H25G C14G 1_555 1_555
C44G C30G 1_555 1_555
C43G C44G 1_555 1_555
O6G La1G 1_555 1_555
O8G La1G 1_555 1_555
C53G O8G 1_555 1_555
N5G C53G 1_555 1_555
N6G N5G 1_555 1_555
C55G N6G 1_555 1_555
C54G C32G 1_555 1_555
C56G C55G 1_555 1_555
H48G C56G 1_555 1_555
H49G C56G 1_555 1_555
H50G C56G 1_555 1_555
C57G N5G 1_555 1_555
C58G C57G 1_555 1_555
H51G C58G 1_555 1_555
C59G C58G 1_555 1_555
H52G C59G 1_555 1_555
C60G C59G 1_555 1_555
H53G C60G 1_555 1_555
C61G C60G 1_555 1_555
H54G C61G 1_555 1_555
C62G C57G 1_555 1_555
H55G C62G 1_555 1_555
O9G La1G 1_555 1_555
S4G O9G 1_555 1_555
C8G S4G 1_555 1_555
H14G S4G 1_555 1_555
C9G S4G 1_555 1_555
H13G S4G 1_555 1_555
N3G C43G 1_555 1_555
N4G N3G 1_555 1_555
C45G C44G 1_555 1_555
C46G C45G 1_555 1_555
H40G C46G 1_555 1_555
H41G C46G 1_555 1_555
H42G C46G 1_555 1_555
C47G N3G 1_555 1_555
C48G C47G 1_555 1_555
H43G C48G 1_555 1_555
C49G C48G 1_555 1_555
H44G C49G 1_555 1_555
C50G C49G 1_555 1_555
H45G C50G 1_555 1_555
C51G C50G 1_555 1_555
H46G C51G 1_555 1_555
C52G C47G 1_555 1_555
H47G C52G 1_555 1_555
N1G C33G 1_555 1_555
N2G N1G 1_555 1_555
C35G C34G 1_555 1_555
C36G C35G 1_555 1_555
H32G C36G 1_555 1_555
H33G C36G 1_555 1_555
H34G C36G 1_555 1_555
C37G N1G 1_555 1_555
C38G C37G 1_555 1_555
H35G C38G 1_555 1_555
C39G C38G 1_555 1_555
H36G C39G 1_555 1_555
C40G C39G 1_555 1_555
H37G C40G 1_555 1_555
C41G C40G 1_555 1_555
H38G C41G 1_555 1_555
C42G C37G 1_555 1_555
H39G C42G 1_555 1_555
C31A C26A 1_555 1_555
O13A La2A 1_555 1_555
O12A La2A 1_555 1_555
C63A O12A 1_555 1_555
N7A C63A 1_555 1_555
N8A N7A 1_555 1_555
C65A N8A 1_555 1_555
C64A C21A 1_555 1_555
C66A C65A 1_555 1_555
H56A C66A 1_555 1_555
H57A C66A 1_555 1_555
H58A C66A 1_555 1_555
C67A N7A 1_555 1_555
C68A C67A 1_555 1_555
H59A C68A 1_555 1_555
C69A C68A 1_555 1_555
H60A C69A 1_555 1_555
C70A C69A 1_555 1_555
H61A C70A 1_555 1_555
C71A C70A 1_555 1_555
H62A C71A 1_555 1_555
C72A C67A 1_555 1_555
H63A C72A 1_555 1_555
O14A La2A 1_555 1_555
C73A O14A 1_555 1_555
N9A C73A 1_555 1_555
N10A N9A 1_555 1_555
C75A N10A 1_555 1_555
C74A C31A 1_555 1_555
C76A C75A 1_555 1_555
H64A C76A 1_555 1_555
H65A C76A 1_555 1_555
H66A C76A 1_555 1_555
C77A N9A 1_555 1_555
C78A C77A 1_555 1_555
H67A C78A 1_555 1_555
C79A C78A 1_555 1_555
H68A C79A 1_555 1_555
C80A C79A 1_555 1_555
H69A C80A 1_555 1_555
C81A C80A 1_555 1_555
H70A C81A 1_555 1_555
C82A C77A 1_555 1_555
H71A C82A 1_555 1_555
O16A La2A 1_555 1_555
C83A O16A 1_555 1_555
N11A C83A 1_555 1_555
N12A N11A 1_555 1_555
C85A N12A 1_555 1_555
C84G C23G 1_555 1_555
C86A C85A 1_555 1_555
H72A C86A 1_555 1_555
H73A C86A 1_555 1_555
H74A C86A 1_555 1_555
C87A N11A 1_555 1_555
C88A C87A 1_555 1_555
H75A C88A 1_555 1_555
C89A C88A 1_555 1_555
H76A C89A 1_555 1_555
C90A C89A 1_555 1_555
H77A C90A 1_555 1_555
C91A C90A 1_555 1_555
H78A C91A 1_555 1_555
C92A C87A 1_555 1_555
H79A C92A 1_555 1_555
O17A La2A 1_555 1_555
H22A O17A 1_555 1_555
O18A La2A 1_555 1_555
C14A O18A 1_555 1_555
H23A C14A 1_555 1_555
H24A C14A 1_555 1_555
H25A C14A 1_555 1_555
C44A C30A 1_555 1_555
C43A C44A 1_555 1_555
O6A La1A 1_555 1_555
O8A La1A 1_555 1_555
C53A O8A 1_555 1_555
N5A C53A 1_555 1_555
N6A N5A 1_555 1_555
C55A N6A 1_555 1_555
C54A C32A 1_555 1_555
C56A C55A 1_555 1_555
H48A C56A 1_555 1_555
H49A C56A 1_555 1_555
H50A C56A 1_555 1_555
C57A N5A 1_555 1_555
C58A C57A 1_555 1_555
H51A C58A 1_555 1_555
C59A C58A 1_555 1_555
H52A C59A 1_555 1_555
C60A C59A 1_555 1_555
H53A C60A 1_555 1_555
C61A C60A 1_555 1_555
H54A C61A 1_555 1_555
C62A C57A 1_555 1_555
H55A C62A 1_555 1_555
O9A La1A 1_555 1_555
S4A O9A 1_555 1_555
C8A S4A 1_555 1_555
H14A S4A 1_555 1_555
C9A S4A 1_555 1_555
H13A S4A 1_555 1_555
N3A C43A 1_555 1_555
N4A N3A 1_555 1_555
C45A C44A 1_555 1_555
C46A C45A 1_555 1_555
H40A C46A 1_555 1_555
H41A C46A 1_555 1_555
H42A C46A 1_555 1_555
C47A N3A 1_555 1_555
C48A C47A 1_555 1_555
H43A C48A 1_555 1_555
C49A C48A 1_555 1_555
H44A C49A 1_555 1_555
C50A C49A 1_555 1_555
H45A C50A 1_555 1_555
C51A C50A 1_555 1_555
H46A C51A 1_555 1_555
C52A C47A 1_555 1_555
H47A C52A 1_555 1_555
N1A C33A 1_555 1_555
N2A N1A 1_555 1_555
C35A C34A 1_555 1_555
C36A C35A 1_555 1_555
H32A C36A 1_555 1_555
H33A C36A 1_555 1_555
H34A C36A 1_555 1_555
C37A N1A 1_555 1_555
C38A C37A 1_555 1_555
H35A C38A 1_555 1_555
C39A C38A 1_555 1_555
H36A C39A 1_555 1_555
C40A C39A 1_555 1_555
H37A C40A 1_555 1_555
C41A C40A 1_555 1_555
H38A C41A 1_555 1_555
C42A C37A 1_555 1_555
H39A C42A 1_555 1_555
C84A C83 1_555 1_555
C8 H14 1_555 1_555
C15 C21 1_555 1_555
C17 C22 1_555 1_555
C19 C20 1_555 1_555
C24 C30 1_555 1_555
C26 C31 1_555 1_555
C28 C29 1_555 1_555
N1 C33 1_555 1_555
C33 C34 1_555 1_555
C41 C42 1_555 1_555
N3 C43 1_555 1_555
C43 C44 1_555 1_555
C51 C52 1_555 1_555
N5 C53 1_555 1_555
C53 C54 1_555 1_555
C61 C62 1_555 1_555
N7 C63 1_555 1_555
C63 C64 1_555 1_555
C71 C72 1_555 1_555
N9 C73 1_555 1_555
C73 C74 1_555 1_555
C81 C82 1_555 1_555
N11 C83 1_555 1_555
C85 C84A 1_555 1_555
C91 C92 1_555 1_555
C19B C20B 1_555 1_555
C19G C20G 1_555 1_555
C19A C20A 1_555 1_555
C19A C23A 1_555 1_555
C23A C84A 1_555 1_555
O3A C22A 1_555 1_555
C33A O4A 1_555 1_555
C28A C29A 1_555 1_555
O3G C22G 1_555 1_555
C33G O4G 1_555 1_555
C28G C29G 1_555 1_555
O3B C22B 1_555 1_555
C33B O4B 1_555 1_555
C27B C28B 1_555 1_555
C28B C29B 1_555 1_555
C31B O13B 1_555 1_555
C63B C64B 1_555 1_555
C65B C64B 1_555 1_555
C71B C72B 1_555 1_555
C73B C74B 1_555 1_555
C75B C74B 1_555 1_555
C81B C82B 1_555 1_555
O16B C83B 1_555 1_555
N12B C85B 1_555 1_555
C91B C92B 1_555 1_555
C43B O6B 1_555 1_555
C53B C54B 1_555 1_555
C55B C54B 1_555 1_555
C61B C62B 1_555 1_555
C8B H14B 1_555 1_555
N4B C45B 1_555 1_555
C51B C52B 1_555 1_555
N2B C35B 1_555 1_555
C41B C42B 1_555 1_555
C31G O13G 1_555 1_555
C63G C64G 1_555 1_555
C65G C64G 1_555 1_555
C71G C72G 1_555 1_555
C73G C74G 1_555 1_555
C75G C74G 1_555 1_555
C81G C82G 1_555 1_555
C83G C84B 1_555 1_555
C85G C84B 1_555 1_555
C91G C92G 1_555 1_555
C43G O6G 1_555 1_555
C53G C54G 1_555 1_555
C55G C54G 1_555 1_555
C61G C62G 1_555 1_555
C8G H14G 1_555 1_555
N4G C45G 1_555 1_555
C51G C52G 1_555 1_555
N2G C35G 1_555 1_555
C41G C42G 1_555 1_555
C31A O13A 1_555 1_555
C63A C64A 1_555 1_555
C65A C64A 1_555 1_555
C71A C72A 1_555 1_555
C73A C74A 1_555 1_555
C75A C74A 1_555 1_555
C81A C82A 1_555 1_555
C83A C84G 1_555 1_555
C85A C84G 1_555 1_555
C91A C92A 1_555 1_555
C43A O6A 1_555 1_555
C53A C54A 1_555 1_555
C55A C54A 1_555 1_555
C61A C62A 1_555 1_555
C8A H14A 1_555 1_555
N4A C45A 1_555 1_555
C51A C52A 1_555 1_555
N2A C35A 1_555 1_555
C41A C42A 1_555 1_555

#END
