# generated using pymatgen
data_La2H79C107S5N12O41
_symmetry_space_group_name_H-M   'P 1'
_cell_length_a   28.80800000
_cell_length_b   31.55670000
_cell_length_c   31.55670000
_cell_angle_alpha   90.00000000
_cell_angle_beta   90.00000000
_cell_angle_gamma   90.00000000
_symmetry_Int_Tables_number   1
_chemical_formula_structural   La2H79C107S5N12O41
_chemical_formula_sum   'La16 H632 C856 S40 N96 O328'
_cell_volume   28687.73567135
_cell_formula_units_Z   8
loop_
 _symmetry_equiv_pos_site_id
 _symmetry_equiv_pos_as_xyz
  1  'x, y, z'
loop_
 _atom_site_type_symbol
 _atom_site_label
 _atom_site_symmetry_multiplicity
 _atom_site_fract_x
 _atom_site_fract_y
 _atom_site_fract_z
 _atom_site_occupancy
  La  La1  1  0.152910  0.432890  0.383110  1.0
  La  La2  1  0.152910  0.116890  0.432890  1.0
  La  La3  1  0.152910  0.383110  0.067110  1.0
  La  La4  1  0.847090  0.932890  0.883110  1.0
  La  La5  1  0.847090  0.567110  0.616890  1.0
  La  La6  1  0.847090  0.883110  0.567110  1.0
  La  La7  1  0.847090  0.616890  0.932890  1.0
  La  La8  1  0.152910  0.067110  0.116890  1.0
  La  La9  1  0.451300  0.277690  0.479180  1.0
  La  La10  1  0.451300  0.020820  0.277690  1.0
  La  La11  1  0.451300  0.479180  0.222310  1.0
  La  La12  1  0.548700  0.777690  0.979180  1.0
  La  La13  1  0.548700  0.722310  0.520820  1.0
  La  La14  1  0.548700  0.979180  0.722310  1.0
  La  La15  1  0.548700  0.520820  0.777690  1.0
  La  La16  1  0.451300  0.222310  0.020820  1.0
  H  H17  1  0.112500  0.571900  0.401600  1
  H  H18  1  0.112500  0.098400  0.571900  1
  H  H19  1  0.112500  0.401600  0.928100  1
  H  H20  1  0.887500  0.071900  0.901600  1
  H  H21  1  0.887500  0.428100  0.598400  1
  H  H22  1  0.887500  0.901600  0.428100  1
  H  H23  1  0.887500  0.598400  0.071900  1
  H  H24  1  0.112500  0.928100  0.098400  1
  H  H25  1  0.084400  0.587900  0.441100  1
  H  H26  1  0.084400  0.058900  0.587900  1
  H  H27  1  0.084400  0.441100  0.912100  1
  H  H28  1  0.915600  0.087900  0.941100  1
  H  H29  1  0.915600  0.412100  0.558900  1
  H  H30  1  0.915600  0.941100  0.412100  1
  H  H31  1  0.915600  0.558900  0.087900  1
  H  H32  1  0.084400  0.912100  0.058900  1
  H  H33  1  0.058400  0.566100  0.403300  1
  H  H34  1  0.058400  0.096700  0.566100  1
  H  H35  1  0.058400  0.403300  0.933900  1
  H  H36  1  0.941600  0.066100  0.903300  1
  H  H37  1  0.941600  0.433900  0.596700  1
  H  H38  1  0.941600  0.903300  0.433900  1
  H  H39  1  0.941600  0.596700  0.066100  1
  H  H40  1  0.058400  0.933900  0.096700  1
  H  H41  1  0.018100  0.515200  0.465800  1
  H  H42  1  0.018100  0.034200  0.515200  1
  H  H43  1  0.018100  0.465800  0.984800  1
  H  H44  1  0.981900  0.015200  0.965800  1
  H  H45  1  0.981900  0.484800  0.534200  1
  H  H46  1  0.981900  0.965800  0.484800  1
  H  H47  1  0.981900  0.534200  0.015200  1
  H  H48  1  0.018100  0.984800  0.034200  1
  H  H49  1  0.172600  0.381900  0.272300  1
  H  H50  1  0.172600  0.227700  0.381900  1
  H  H51  1  0.172600  0.272300  0.118100  1
  H  H52  1  0.827400  0.881900  0.772300  1
  H  H53  1  0.827400  0.618100  0.727700  1
  H  H54  1  0.827400  0.772300  0.618100  1
  H  H55  1  0.827400  0.727700  0.881900  1
  H  H56  1  0.172600  0.118100  0.227700  1
  H  H57  1  0.089500  0.492100  0.250300  1.0
  H  H58  1  0.089500  0.249700  0.492100  1.0
  H  H59  1  0.089500  0.250300  0.007900  1.0
  H  H60  1  0.910500  0.992100  0.750300  1.0
  H  H61  1  0.910500  0.507900  0.749700  1.0
  H  H62  1  0.910500  0.750300  0.507900  1.0
  H  H63  1  0.910500  0.749700  0.992100  1.0
  H  H64  1  0.089500  0.007900  0.249700  1.0
  H  H65  1  0.047700  0.522100  0.261000  1.0
  H  H66  1  0.047700  0.239000  0.522100  1.0
  H  H67  1  0.047700  0.261000  0.977900  1.0
  H  H68  1  0.952300  0.022100  0.761000  1.0
  H  H69  1  0.952300  0.477900  0.739000  1.0
  H  H70  1  0.952300  0.761000  0.477900  1.0
  H  H71  1  0.952300  0.739000  0.022100  1.0
  H  H72  1  0.047700  0.977900  0.239000  1.0
  H  H73  1  0.038600  0.474500  0.249300  1.0
  H  H74  1  0.038600  0.250700  0.474500  1.0
  H  H75  1  0.038600  0.249300  0.025500  1.0
  H  H76  1  0.961400  0.974500  0.749300  1.0
  H  H77  1  0.961400  0.525500  0.750700  1.0
  H  H78  1  0.961400  0.749300  0.525500  1.0
  H  H79  1  0.961400  0.750700  0.974500  1.0
  H  H80  1  0.038600  0.025500  0.250700  1.0
  H  H81  1  0.009300  0.486600  0.368400  1.0
  H  H82  1  0.009300  0.131600  0.486600  1.0
  H  H83  1  0.009300  0.368400  0.013400  1.0
  H  H84  1  0.990700  0.986600  0.868400  1.0
  H  H85  1  0.990700  0.513400  0.631600  1.0
  H  H86  1  0.990700  0.868400  0.513400  1.0
  H  H87  1  0.990700  0.631600  0.986600  1.0
  H  H88  1  0.009300  0.013400  0.131600  1.0
  H  H89  1  0.988000  0.462300  0.329600  1.0
  H  H90  1  0.988000  0.170400  0.462300  1.0
  H  H91  1  0.988000  0.329600  0.037700  1.0
  H  H92  1  0.012000  0.962300  0.829600  1.0
  H  H93  1  0.012000  0.537700  0.670400  1.0
  H  H94  1  0.012000  0.829600  0.537700  1.0
  H  H95  1  0.012000  0.670400  0.962300  1.0
  H  H96  1  0.988000  0.037700  0.170400  1.0
  H  H97  1  0.993300  0.511800  0.328100  1.0
  H  H98  1  0.993300  0.171900  0.511800  1.0
  H  H99  1  0.993300  0.328100  0.988200  1.0
  H  H100  1  0.006700  0.011800  0.828100  1.0
  H  H101  1  0.006700  0.488200  0.671900  1.0
  H  H102  1  0.006700  0.828100  0.488200  1.0
  H  H103  1  0.006700  0.671900  0.011800  1.0
  H  H104  1  0.993300  0.988200  0.171900  1.0
  H  H105  1  0.047300  0.484500  0.494400  1.0
  H  H106  1  0.047300  0.005600  0.484500  1.0
  H  H107  1  0.047300  0.494400  0.015500  1.0
  H  H108  1  0.952700  0.984500  0.994400  1.0
  H  H109  1  0.952700  0.515500  0.505600  1.0
  H  H110  1  0.952700  0.994400  0.515500  1.0
  H  H111  1  0.952700  0.505600  0.984500  1.0
  H  H112  1  0.047300  0.015500  0.005600  1.0
  H  H113  1  0.049600  0.533600  0.501900  1.0
  H  H114  1  0.049600  0.998100  0.533600  1.0
  H  H115  1  0.049600  0.501900  0.966400  1.0
  H  H116  1  0.950400  0.033600  0.001900  1.0
  H  H117  1  0.950400  0.466400  0.498100  1.0
  H  H118  1  0.950400  0.001900  0.466400  1.0
  H  H119  1  0.950400  0.498100  0.033600  1.0
  H  H120  1  0.049600  0.966400  0.998100  1.0
  H  H121  1  0.180500  0.335100  0.287300  1.0
  H  H122  1  0.180500  0.212700  0.335100  1.0
  H  H123  1  0.180500  0.287300  0.164900  1.0
  H  H124  1  0.819500  0.835100  0.787300  1.0
  H  H125  1  0.819500  0.664900  0.712700  1.0
  H  H126  1  0.819500  0.787300  0.664900  1.0
  H  H127  1  0.819500  0.712700  0.835100  1.0
  H  H128  1  0.180500  0.164900  0.212700  1.0
  H  H129  1  0.218700  0.369500  0.295600  1.0
  H  H130  1  0.218700  0.204400  0.369500  1.0
  H  H131  1  0.218700  0.295600  0.130500  1.0
  H  H132  1  0.781300  0.869500  0.795600  1.0
  H  H133  1  0.781300  0.630500  0.704400  1.0
  H  H134  1  0.781300  0.795600  0.630500  1.0
  H  H135  1  0.781300  0.704400  0.869500  1.0
  H  H136  1  0.218700  0.130500  0.204400  1.0
  H  H137  1  0.498900  0.243600  0.624200  1.0
  H  H138  1  0.498900  0.875800  0.243600  1.0
  H  H139  1  0.498900  0.624200  0.256400  1.0
  H  H140  1  0.501100  0.743600  0.124200  1.0
  H  H141  1  0.501100  0.756400  0.375800  1.0
  H  H142  1  0.501100  0.124200  0.756400  1.0
  H  H143  1  0.501100  0.375800  0.743600  1.0
  H  H144  1  0.498900  0.256400  0.875800  1.0
  H  H145  1  0.532900  0.276200  0.645300  1.0
  H  H146  1  0.532900  0.854700  0.276200  1.0
  H  H147  1  0.532900  0.645300  0.223800  1.0
  H  H148  1  0.467100  0.776200  0.145300  1.0
  H  H149  1  0.467100  0.723800  0.354700  1.0
  H  H150  1  0.467100  0.145300  0.723800  1.0
  H  H151  1  0.467100  0.354700  0.776200  1.0
  H  H152  1  0.532900  0.223800  0.854700  1.0
  H  H153  1  0.549100  0.249600  0.606000  1.0
  H  H154  1  0.549100  0.894000  0.249600  1.0
  H  H155  1  0.549100  0.606000  0.250400  1.0
  H  H156  1  0.450900  0.749600  0.106000  1.0
  H  H157  1  0.450900  0.750400  0.394000  1.0
  H  H158  1  0.450900  0.106000  0.750400  1.0
  H  H159  1  0.450900  0.394000  0.749600  1.0
  H  H160  1  0.549100  0.250400  0.894000  1.0
  H  H161  1  0.560400  0.352500  0.584600  1.0
  H  H162  1  0.560400  0.915400  0.352500  1.0
  H  H163  1  0.560400  0.584600  0.147500  1.0
  H  H164  1  0.439600  0.852500  0.084600  1.0
  H  H165  1  0.439600  0.647500  0.415400  1.0
  H  H166  1  0.439600  0.084600  0.647500  1.0
  H  H167  1  0.439600  0.415400  0.852500  1.0
  H  H168  1  0.560400  0.147500  0.915400  1.0
  H  H169  1  0.583400  0.308400  0.593300  1.0
  H  H170  1  0.583400  0.906700  0.308400  1.0
  H  H171  1  0.583400  0.593300  0.191600  1.0
  H  H172  1  0.416600  0.808400  0.093300  1.0
  H  H173  1  0.416600  0.691600  0.406700  1.0
  H  H174  1  0.416600  0.093300  0.691600  1.0
  H  H175  1  0.416600  0.406700  0.808400  1.0
  H  H176  1  0.583400  0.191600  0.906700  1.0
  H  H177  1  0.558500  0.332800  0.630100  1.0
  H  H178  1  0.558500  0.869900  0.332800  1.0
  H  H179  1  0.558500  0.630100  0.167200  1.0
  H  H180  1  0.441500  0.832800  0.130100  1.0
  H  H181  1  0.441500  0.667200  0.369900  1.0
  H  H182  1  0.441500  0.130100  0.667200  1.0
  H  H183  1  0.441500  0.369900  0.832800  1.0
  H  H184  1  0.558500  0.167200  0.869900  1.0
  H  H185  1  0.542000  0.229200  0.487300  1.0
  H  H186  1  0.542000  0.012700  0.229200  1.0
  H  H187  1  0.542000  0.487300  0.270800  1.0
  H  H188  1  0.458000  0.729200  0.987300  1.0
  H  H189  1  0.458000  0.770800  0.512700  1.0
  H  H190  1  0.458000  0.987300  0.770800  1.0
  H  H191  1  0.458000  0.512700  0.729200  1.0
  H  H192  1  0.542000  0.270800  0.012700  1.0
  H  H193  1  0.425900  0.245800  0.345100  1.0
  H  H194  1  0.425900  0.154900  0.245800  1.0
  H  H195  1  0.425900  0.345100  0.254200  1.0
  H  H196  1  0.574100  0.745800  0.845100  1.0
  H  H197  1  0.574100  0.754200  0.654900  1.0
  H  H198  1  0.574100  0.845100  0.754200  1.0
  H  H199  1  0.574100  0.654900  0.745800  1.0
  H  H200  1  0.425900  0.254200  0.154900  1.0
  H  H201  1  0.388300  0.247400  0.380900  1.0
  H  H202  1  0.388300  0.119100  0.247400  1.0
  H  H203  1  0.388300  0.380900  0.252600  1.0
  H  H204  1  0.611700  0.747400  0.880900  1.0
  H  H205  1  0.611700  0.752600  0.619100  1.0
  H  H206  1  0.611700  0.880900  0.752600  1.0
  H  H207  1  0.611700  0.619100  0.747400  1.0
  H  H208  1  0.388300  0.252600  0.119100  1.0
  H  H209  1  0.422900  0.209100  0.378400  1.0
  H  H210  1  0.422900  0.121600  0.209100  1.0
  H  H211  1  0.422900  0.378400  0.290900  1.0
  H  H212  1  0.577100  0.709100  0.878400  1.0
  H  H213  1  0.577100  0.790900  0.621600  1.0
  H  H214  1  0.577100  0.878400  0.790900  1.0
  H  H215  1  0.577100  0.621600  0.709100  1.0
  H  H216  1  0.422900  0.290900  0.121600  1.0
  H  H217  1  0.340800  0.390900  0.447600  1.0
  H  H218  1  0.340800  0.052400  0.390900  1.0
  H  H219  1  0.340800  0.447600  0.109100  1.0
  H  H220  1  0.659200  0.890900  0.947600  1.0
  H  H221  1  0.659200  0.609100  0.552400  1.0
  H  H222  1  0.659200  0.947600  0.609100  1.0
  H  H223  1  0.659200  0.552400  0.890900  1.0
  H  H224  1  0.340800  0.109100  0.052400  1.0
  H  H225  1  0.309200  0.481900  0.360200  1.0
  H  H226  1  0.309200  0.139800  0.481900  1.0
  H  H227  1  0.309200  0.360200  0.018100  1.0
  H  H228  1  0.690800  0.981900  0.860200  1.0
  H  H229  1  0.690800  0.518100  0.639800  1.0
  H  H230  1  0.690800  0.860200  0.518100  1.0
  H  H231  1  0.690800  0.639800  0.981900  1.0
  H  H232  1  0.309200  0.018100  0.139800  1.0
  H  H233  1  0.439500  0.434700  0.368300  1.0
  H  H234  1  0.439500  0.131700  0.434700  1.0
  H  H235  1  0.439500  0.368300  0.065300  1.0
  H  H236  1  0.560500  0.934700  0.868300  1.0
  H  H237  1  0.560500  0.565300  0.631700  1.0
  H  H238  1  0.560500  0.868300  0.565300  1.0
  H  H239  1  0.560500  0.631700  0.934700  1.0
  H  H240  1  0.439500  0.065300  0.131700  1.0
  H  H241  1  0.262000  0.353400  0.474200  1.0
  H  H242  1  0.262000  0.025800  0.353400  1.0
  H  H243  1  0.262000  0.474200  0.146600  1.0
  H  H244  1  0.738000  0.853400  0.974200  1.0
  H  H245  1  0.738000  0.646600  0.525800  1.0
  H  H246  1  0.738000  0.974200  0.646600  1.0
  H  H247  1  0.738000  0.525800  0.853400  1.0
  H  H248  1  0.262000  0.146600  0.025800  1.0
  H  H249  1  0.295300  0.233700  0.512200  1.0
  H  H250  1  0.295300  0.987800  0.233700  1.0
  H  H251  1  0.295300  0.512200  0.266300  1.0
  H  H252  1  0.704700  0.733700  0.012200  1.0
  H  H253  1  0.704700  0.766300  0.487800  1.0
  H  H254  1  0.704700  0.012200  0.766300  1.0
  H  H255  1  0.704700  0.487800  0.733700  1.0
  H  H256  1  0.295300  0.266300  0.987800  1.0
  H  H257  1  0.165600  0.261300  0.469200  1.0
  H  H258  1  0.165600  0.030800  0.261300  1.0
  H  H259  1  0.165600  0.469200  0.238700  1.0
  H  H260  1  0.834400  0.761300  0.969200  1.0
  H  H261  1  0.834400  0.738700  0.530800  1.0
  H  H262  1  0.834400  0.969200  0.738700  1.0
  H  H263  1  0.834400  0.530800  0.761300  1.0
  H  H264  1  0.165600  0.238700  0.030800  1.0
  H  H265  1  0.341400  0.482200  0.532100  1.0
  H  H266  1  0.341400  0.967900  0.482200  1.0
  H  H267  1  0.341400  0.532100  0.017800  1.0
  H  H268  1  0.658600  0.982200  0.032100  1.0
  H  H269  1  0.658600  0.517800  0.467900  1.0
  H  H270  1  0.658600  0.032100  0.517800  1.0
  H  H271  1  0.658600  0.467900  0.982200  1.0
  H  H272  1  0.341400  0.017800  0.967900  1.0
  H  H273  1  0.344700  0.491900  0.483500  1.0
  H  H274  1  0.344700  0.016500  0.491900  1.0
  H  H275  1  0.344700  0.483500  0.008100  1.0
  H  H276  1  0.655300  0.991900  0.983500  1.0
  H  H277  1  0.655300  0.508100  0.516500  1.0
  H  H278  1  0.655300  0.983500  0.508100  1.0
  H  H279  1  0.655300  0.516500  0.991900  1.0
  H  H280  1  0.344700  0.008100  0.016500  1.0
  H  H281  1  0.352100  0.445600  0.500000  1.0
  H  H282  1  0.352100  1.000000  0.445600  1.0
  H  H283  1  0.352100  0.500000  0.054400  1.0
  H  H284  1  0.647900  0.945600  0.000000  1.0
  H  H285  1  0.647900  0.554400  0.500000  1.0
  H  H286  1  0.647900  1.000000  0.554400  1.0
  H  H287  1  0.647900  0.500000  0.945600  1.0
  H  H288  1  0.352100  0.054400  0.000000  1.0
  H  H289  1  0.134700  0.422200  0.523300  1.0
  H  H290  1  0.134700  0.976700  0.422200  1.0
  H  H291  1  0.134700  0.523300  0.077800  1.0
  H  H292  1  0.865300  0.922200  0.023300  1.0
  H  H293  1  0.865300  0.577800  0.476700  1.0
  H  H294  1  0.865300  0.023300  0.577800  1.0
  H  H295  1  0.865300  0.476700  0.922200  1.0
  H  H296  1  0.134700  0.077800  0.976700  1.0
  H  H297  1  0.070500  0.427700  0.573500  1.0
  H  H298  1  0.070500  0.926500  0.427700  1.0
  H  H299  1  0.070500  0.573500  0.072300  1.0
  H  H300  1  0.929500  0.927700  0.073500  1.0
  H  H301  1  0.929500  0.572300  0.426500  1.0
  H  H302  1  0.929500  0.073500  0.572300  1.0
  H  H303  1  0.929500  0.426500  0.927700  1.0
  H  H304  1  0.070500  0.072300  0.926500  1.0
  H  H305  1  0.083100  0.473400  0.626800  1.0
  H  H306  1  0.083100  0.873200  0.473400  1.0
  H  H307  1  0.083100  0.626800  0.026600  1.0
  H  H308  1  0.916900  0.973400  0.126800  1.0
  H  H309  1  0.916900  0.526600  0.373200  1.0
  H  H310  1  0.916900  0.126800  0.526600  1.0
  H  H311  1  0.916900  0.373200  0.973400  1.0
  H  H312  1  0.083100  0.026600  0.873200  1.0
  H  H313  1  0.142000  0.516800  0.636000  1.0
  H  H314  1  0.142000  0.864000  0.516800  1.0
  H  H315  1  0.142000  0.636000  0.983200  1.0
  H  H316  1  0.858000  0.016800  0.136000  1.0
  H  H317  1  0.858000  0.483200  0.364000  1.0
  H  H318  1  0.858000  0.136000  0.483200  1.0
  H  H319  1  0.858000  0.364000  0.016800  1.0
  H  H320  1  0.142000  0.983200  0.864000  1.0
  H  H321  1  0.205300  0.514600  0.583000  1.0
  H  H322  1  0.205300  0.917000  0.514600  1.0
  H  H323  1  0.205300  0.583000  0.985400  1.0
  H  H324  1  0.794700  0.014600  0.083000  1.0
  H  H325  1  0.794700  0.485400  0.417000  1.0
  H  H326  1  0.794700  0.083000  0.485400  1.0
  H  H327  1  0.794700  0.417000  0.014600  1.0
  H  H328  1  0.205300  0.985400  0.917000  1.0
  H  H329  1  0.109400  0.311600  0.569600  1.0
  H  H330  1  0.109400  0.930400  0.311600  1.0
  H  H331  1  0.109400  0.569600  0.188400  1.0
  H  H332  1  0.890600  0.811600  0.069600  1.0
  H  H333  1  0.890600  0.688400  0.430400  1.0
  H  H334  1  0.890600  0.069600  0.688400  1.0
  H  H335  1  0.890600  0.430400  0.811600  1.0
  H  H336  1  0.109400  0.188400  0.930400  1.0
  H  H337  1  0.156100  0.334900  0.558900  1.0
  H  H338  1  0.156100  0.941100  0.334900  1.0
  H  H339  1  0.156100  0.558900  0.165100  1.0
  H  H340  1  0.843900  0.834900  0.058900  1.0
  H  H341  1  0.843900  0.665100  0.441100  1.0
  H  H342  1  0.843900  0.058900  0.665100  1.0
  H  H343  1  0.843900  0.441100  0.834900  1.0
  H  H344  1  0.156100  0.165100  0.941100  1.0
  H  H345  1  0.145500  0.290300  0.539100  1.0
  H  H346  1  0.145500  0.960900  0.290300  1.0
  H  H347  1  0.145500  0.539100  0.209700  1.0
  H  H348  1  0.854500  0.790300  0.039100  1.0
  H  H349  1  0.854500  0.709700  0.460900  1.0
  H  H350  1  0.854500  0.039100  0.709700  1.0
  H  H351  1  0.854500  0.460900  0.790300  1.0
  H  H352  1  0.145500  0.209700  0.960900  1.0
  H  H353  1  0.980700  0.334000  0.501500  1.0
  H  H354  1  0.980700  0.998500  0.334000  1.0
  H  H355  1  0.980700  0.501500  0.166000  1.0
  H  H356  1  0.019300  0.834000  0.001500  1.0
  H  H357  1  0.019300  0.666000  0.498500  1.0
  H  H358  1  0.019300  0.001500  0.666000  1.0
  H  H359  1  0.019300  0.498500  0.834000  1.0
  H  H360  1  0.980700  0.166000  0.998500  1.0
  H  H361  1  0.901100  0.352500  0.487700  1.0
  H  H362  1  0.901100  0.012300  0.352500  1.0
  H  H363  1  0.901100  0.487700  0.147500  1.0
  H  H364  1  0.098900  0.852500  0.987700  1.0
  H  H365  1  0.098900  0.647500  0.512300  1.0
  H  H366  1  0.098900  0.987700  0.647500  1.0
  H  H367  1  0.098900  0.512300  0.852500  1.0
  H  H368  1  0.901100  0.147500  0.012300  1.0
  H  H369  1  0.887900  0.407500  0.450600  1.0
  H  H370  1  0.887900  0.049400  0.407500  1.0
  H  H371  1  0.887900  0.450600  0.092500  1.0
  H  H372  1  0.112100  0.907500  0.950600  1.0
  H  H373  1  0.112100  0.592500  0.549400  1.0
  H  H374  1  0.112100  0.950600  0.592500  1.0
  H  H375  1  0.112100  0.549400  0.907500  1.0
  H  H376  1  0.887900  0.092500  0.049400  1.0
  H  H377  1  0.941900  0.438800  0.405400  1.0
  H  H378  1  0.941900  0.094600  0.438800  1.0
  H  H379  1  0.941900  0.405400  0.061200  1.0
  H  H380  1  0.058100  0.938800  0.905400  1.0
  H  H381  1  0.058100  0.561200  0.594600  1.0
  H  H382  1  0.058100  0.905400  0.561200  1.0
  H  H383  1  0.058100  0.594600  0.938800  1.0
  H  H384  1  0.941900  0.061200  0.094600  1.0
  H  H385  1  0.023400  0.425300  0.425500  1.0
  H  H386  1  0.023400  0.074500  0.425300  1.0
  H  H387  1  0.023400  0.425500  0.074700  1.0
  H  H388  1  0.976600  0.925300  0.925500  1.0
  H  H389  1  0.976600  0.574700  0.574500  1.0
  H  H390  1  0.976600  0.925500  0.574700  1.0
  H  H391  1  0.976600  0.574500  0.925300  1.0
  H  H392  1  0.023400  0.074700  0.074500  1.0
  H  H393  1  0.266400  0.619900  0.288700  1.0
  H  H394  1  0.266400  0.211300  0.619900  1.0
  H  H395  1  0.266400  0.288700  0.880100  1.0
  H  H396  1  0.733600  0.119900  0.788700  1.0
  H  H397  1  0.733600  0.380100  0.711300  1.0
  H  H398  1  0.733600  0.788700  0.380100  1.0
  H  H399  1  0.733600  0.711300  0.119900  1.0
  H  H400  1  0.266400  0.880100  0.211300  1.0
  H  H401  1  0.234300  0.592300  0.259700  1.0
  H  H402  1  0.234300  0.240300  0.592300  1.0
  H  H403  1  0.234300  0.259700  0.907700  1.0
  H  H404  1  0.765700  0.092300  0.759700  1.0
  H  H405  1  0.765700  0.407700  0.740300  1.0
  H  H406  1  0.765700  0.759700  0.407700  1.0
  H  H407  1  0.765700  0.740300  0.092300  1.0
  H  H408  1  0.234300  0.907700  0.240300  1.0
  H  H409  1  0.283300  0.575300  0.273200  1.0
  H  H410  1  0.283300  0.226800  0.575300  1.0
  H  H411  1  0.283300  0.273200  0.924700  1.0
  H  H412  1  0.716700  0.075300  0.773200  1.0
  H  H413  1  0.716700  0.424700  0.726800  1.0
  H  H414  1  0.716700  0.773200  0.424700  1.0
  H  H415  1  0.716700  0.726800  0.075300  1.0
  H  H416  1  0.283300  0.924700  0.226800  1.0
  H  H417  1  0.194600  0.651000  0.405400  1.0
  H  H418  1  0.194600  0.094600  0.651000  1.0
  H  H419  1  0.194600  0.405400  0.849000  1.0
  H  H420  1  0.805400  0.151000  0.905400  1.0
  H  H421  1  0.805400  0.349000  0.594600  1.0
  H  H422  1  0.805400  0.905400  0.349000  1.0
  H  H423  1  0.805400  0.594600  0.151000  1.0
  H  H424  1  0.194600  0.849000  0.094600  1.0
  H  H425  1  0.189100  0.682200  0.471000  1.0
  H  H426  1  0.189100  0.029000  0.682200  1.0
  H  H427  1  0.189100  0.471000  0.817800  1.0
  H  H428  1  0.810900  0.182200  0.971000  1.0
  H  H429  1  0.810900  0.317800  0.529000  1.0
  H  H430  1  0.810900  0.971000  0.317800  1.0
  H  H431  1  0.810900  0.529000  0.182200  1.0
  H  H432  1  0.189100  0.817800  0.029000  1.0
  H  H433  1  0.190100  0.643000  0.528900  1.0
  H  H434  1  0.190100  0.971100  0.643000  1.0
  H  H435  1  0.190100  0.528900  0.857000  1.0
  H  H436  1  0.809900  0.143000  0.028900  1.0
  H  H437  1  0.809900  0.357000  0.471100  1.0
  H  H438  1  0.809900  0.028900  0.357000  1.0
  H  H439  1  0.809900  0.471100  0.143000  1.0
  H  H440  1  0.190100  0.857000  0.971100  1.0
  H  H441  1  0.203300  0.569400  0.528000  1.0
  H  H442  1  0.203300  0.972000  0.569400  1.0
  H  H443  1  0.203300  0.528000  0.930600  1.0
  H  H444  1  0.796700  0.069400  0.028000  1.0
  H  H445  1  0.796700  0.430600  0.472000  1.0
  H  H446  1  0.796700  0.028000  0.430600  1.0
  H  H447  1  0.796700  0.472000  0.069400  1.0
  H  H448  1  0.203300  0.930600  0.972000  1.0
  H  H449  1  0.220300  0.540000  0.462100  1.0
  H  H450  1  0.220300  0.037900  0.540000  1.0
  H  H451  1  0.220300  0.462100  0.960000  1.0
  H  H452  1  0.779700  0.040000  0.962100  1.0
  H  H453  1  0.779700  0.460000  0.537900  1.0
  H  H454  1  0.779700  0.962100  0.460000  1.0
  H  H455  1  0.779700  0.537900  0.040000  1.0
  H  H456  1  0.220300  0.960000  0.037900  1.0
  H  H457  1  0.431600  0.473700  0.441400  1.0
  H  H458  1  0.431600  0.058600  0.473700  1.0
  H  H459  1  0.431600  0.441400  0.026300  1.0
  H  H460  1  0.568400  0.973700  0.941400  1.0
  H  H461  1  0.568400  0.526300  0.558600  1.0
  H  H462  1  0.568400  0.941400  0.526300  1.0
  H  H463  1  0.568400  0.558600  0.973700  1.0
  H  H464  1  0.431600  0.026300  0.058600  1.0
  H  H465  1  0.478400  0.498400  0.435500  1.0
  H  H466  1  0.478400  0.064500  0.498400  1.0
  H  H467  1  0.478400  0.435500  0.001600  1.0
  H  H468  1  0.521600  0.998400  0.935500  1.0
  H  H469  1  0.521600  0.501600  0.564500  1.0
  H  H470  1  0.521600  0.935500  0.501600  1.0
  H  H471  1  0.521600  0.564500  0.998400  1.0
  H  H472  1  0.478400  0.001600  0.064500  1.0
  H  H473  1  0.459100  0.489800  0.481200  1.0
  H  H474  1  0.459100  0.018800  0.489800  1.0
  H  H475  1  0.459100  0.481200  0.010200  1.0
  H  H476  1  0.540900  0.989800  0.981200  1.0
  H  H477  1  0.540900  0.510200  0.518800  1.0
  H  H478  1  0.540900  0.981200  0.510200  1.0
  H  H479  1  0.540900  0.518800  0.989800  1.0
  H  H480  1  0.459100  0.010200  0.018800  1.0
  H  H481  1  0.577600  0.328600  0.504600  1.0
  H  H482  1  0.577600  0.995400  0.328600  1.0
  H  H483  1  0.577600  0.504600  0.171400  1.0
  H  H484  1  0.422400  0.828600  0.004600  1.0
  H  H485  1  0.422400  0.671400  0.495400  1.0
  H  H486  1  0.422400  0.004600  0.671400  1.0
  H  H487  1  0.422400  0.495400  0.828600  1.0
  H  H488  1  0.577600  0.171400  0.995400  1.0
  H  H489  1  0.652900  0.308700  0.526200  1.0
  H  H490  1  0.652900  0.973800  0.308700  1.0
  H  H491  1  0.652900  0.526200  0.191300  1.0
  H  H492  1  0.347100  0.808700  0.026200  1.0
  H  H493  1  0.347100  0.691300  0.473800  1.0
  H  H494  1  0.347100  0.026200  0.691300  1.0
  H  H495  1  0.347100  0.473800  0.808700  1.0
  H  H496  1  0.652900  0.191300  0.973800  1.0
  H  H497  1  0.711400  0.364400  0.515200  1.0
  H  H498  1  0.711400  0.984800  0.364400  1.0
  H  H499  1  0.711400  0.515200  0.135600  1.0
  H  H500  1  0.288600  0.864400  0.015200  1.0
  H  H501  1  0.288600  0.635600  0.484800  1.0
  H  H502  1  0.288600  0.015200  0.635600  1.0
  H  H503  1  0.288600  0.484800  0.864400  1.0
  H  H504  1  0.711400  0.135600  0.984800  1.0
  H  H505  1  0.687400  0.430000  0.502600  1.0
  H  H506  1  0.687400  0.997400  0.430000  1.0
  H  H507  1  0.687400  0.502600  0.070000  1.0
  H  H508  1  0.312600  0.930000  0.002600  1.0
  H  H509  1  0.312600  0.570000  0.497400  1.0
  H  H510  1  0.312600  0.002600  0.570000  1.0
  H  H511  1  0.312600  0.497400  0.930000  1.0
  H  H512  1  0.687400  0.070000  0.997400  1.0
  H  H513  1  0.610700  0.443600  0.486500  1.0
  H  H514  1  0.610700  0.013500  0.443600  1.0
  H  H515  1  0.610700  0.486500  0.056400  1.0
  H  H516  1  0.389300  0.943600  0.986500  1.0
  H  H517  1  0.389300  0.556400  0.513500  1.0
  H  H518  1  0.389300  0.986500  0.556400  1.0
  H  H519  1  0.389300  0.513500  0.943600  1.0
  H  H520  1  0.610700  0.056400  0.013500  1.0
  H  H521  1  0.261800  0.383000  0.588800  1.0
  H  H522  1  0.261800  0.911200  0.383000  1.0
  H  H523  1  0.261800  0.588800  0.117000  1.0
  H  H524  1  0.738200  0.883000  0.088800  1.0
  H  H525  1  0.738200  0.617000  0.411200  1.0
  H  H526  1  0.738200  0.088800  0.617000  1.0
  H  H527  1  0.738200  0.411200  0.883000  1.0
  H  H528  1  0.261800  0.117000  0.911200  1.0
  H  H529  1  0.258800  0.335200  0.575300  1.0
  H  H530  1  0.258800  0.924700  0.335200  1.0
  H  H531  1  0.258800  0.575300  0.164800  1.0
  H  H532  1  0.741200  0.835200  0.075300  1.0
  H  H533  1  0.741200  0.664800  0.424700  1.0
  H  H534  1  0.741200  0.075300  0.664800  1.0
  H  H535  1  0.741200  0.424700  0.835200  1.0
  H  H536  1  0.258800  0.164800  0.924700  1.0
  H  H537  1  0.251600  0.371000  0.541500  1.0
  H  H538  1  0.251600  0.958500  0.371000  1.0
  H  H539  1  0.251600  0.541500  0.129000  1.0
  H  H540  1  0.748400  0.871000  0.041500  1.0
  H  H541  1  0.748400  0.629000  0.458500  1.0
  H  H542  1  0.748400  0.041500  0.629000  1.0
  H  H543  1  0.748400  0.458500  0.871000  1.0
  H  H544  1  0.251600  0.129000  0.958500  1.0
  H  H545  1  0.392200  0.406400  0.646600  1.0
  H  H546  1  0.392200  0.853400  0.406400  1.0
  H  H547  1  0.392200  0.646600  0.093600  1.0
  H  H548  1  0.607800  0.906400  0.146600  1.0
  H  H549  1  0.607800  0.593600  0.353400  1.0
  H  H550  1  0.607800  0.146600  0.593600  1.0
  H  H551  1  0.607800  0.353400  0.906400  1.0
  H  H552  1  0.392200  0.093600  0.853400  1.0
  H  H553  1  0.459600  0.431700  0.683900  1.0
  H  H554  1  0.459600  0.816100  0.431700  1.0
  H  H555  1  0.459600  0.683900  0.068300  1.0
  H  H556  1  0.540400  0.931700  0.183900  1.0
  H  H557  1  0.540400  0.568300  0.316100  1.0
  H  H558  1  0.540400  0.183900  0.568300  1.0
  H  H559  1  0.540400  0.316100  0.931700  1.0
  H  H560  1  0.459600  0.068300  0.816100  1.0
  H  H561  1  0.522500  0.451300  0.650800  1.0
  H  H562  1  0.522500  0.849200  0.451300  1.0
  H  H563  1  0.522500  0.650800  0.048700  1.0
  H  H564  1  0.477500  0.951300  0.150800  1.0
  H  H565  1  0.477500  0.548700  0.349200  1.0
  H  H566  1  0.477500  0.150800  0.548700  1.0
  H  H567  1  0.477500  0.349200  0.951300  1.0
  H  H568  1  0.522500  0.048700  0.849200  1.0
  H  H569  1  0.535700  0.429300  0.582600  1.0
  H  H570  1  0.535700  0.917400  0.429300  1.0
  H  H571  1  0.535700  0.582600  0.070700  1.0
  H  H572  1  0.464300  0.929300  0.082600  1.0
  H  H573  1  0.464300  0.570700  0.417400  1.0
  H  H574  1  0.464300  0.082600  0.570700  1.0
  H  H575  1  0.464300  0.417400  0.929300  1.0
  H  H576  1  0.535700  0.070700  0.917400  1.0
  H  H577  1  0.470700  0.405300  0.542900  1.0
  H  H578  1  0.470700  0.957100  0.405300  1.0
  H  H579  1  0.470700  0.542900  0.094700  1.0
  H  H580  1  0.529300  0.905300  0.042900  1.0
  H  H581  1  0.529300  0.594700  0.457100  1.0
  H  H582  1  0.529300  0.042900  0.594700  1.0
  H  H583  1  0.529300  0.457100  0.905300  1.0
  H  H584  1  0.470700  0.094700  0.957100  1.0
  H  H585  1  0.340200  0.096300  0.588800  1.0
  H  H586  1  0.340200  0.911200  0.096300  1.0
  H  H587  1  0.340200  0.588800  0.403700  1.0
  H  H588  1  0.659800  0.596300  0.088800  1.0
  H  H589  1  0.659800  0.903700  0.411200  1.0
  H  H590  1  0.659800  0.088800  0.903700  1.0
  H  H591  1  0.659800  0.411200  0.596300  1.0
  H  H592  1  0.340200  0.403700  0.911200  1.0
  H  H593  1  0.378000  0.089000  0.553800  1.0
  H  H594  1  0.378000  0.946200  0.089000  1.0
  H  H595  1  0.378000  0.553800  0.411000  1.0
  H  H596  1  0.622000  0.589000  0.053800  1.0
  H  H597  1  0.622000  0.911000  0.446200  1.0
  H  H598  1  0.622000  0.053800  0.911000  1.0
  H  H599  1  0.622000  0.446200  0.589000  1.0
  H  H600  1  0.378000  0.411000  0.946200  1.0
  H  H601  1  0.327600  0.102600  0.540900  1.0
  H  H602  1  0.327600  0.959100  0.102600  1.0
  H  H603  1  0.327600  0.540900  0.397400  1.0
  H  H604  1  0.672400  0.602600  0.040900  1.0
  H  H605  1  0.672400  0.897400  0.459100  1.0
  H  H606  1  0.672400  0.040900  0.897400  1.0
  H  H607  1  0.672400  0.459100  0.602600  1.0
  H  H608  1  0.327600  0.397400  0.959100  1.0
  H  H609  1  0.396400  0.184700  0.673200  1.0
  H  H610  1  0.396400  0.826800  0.184700  1.0
  H  H611  1  0.396400  0.673200  0.315300  1.0
  H  H612  1  0.603600  0.684700  0.173200  1.0
  H  H613  1  0.603600  0.815300  0.326800  1.0
  H  H614  1  0.603600  0.173200  0.815300  1.0
  H  H615  1  0.603600  0.326800  0.684700  1.0
  H  H616  1  0.396400  0.315300  0.826800  1.0
  H  H617  1  0.422900  0.225100  0.730100  1.0
  H  H618  1  0.422900  0.769900  0.225100  1.0
  H  H619  1  0.422900  0.730100  0.274900  1.0
  H  H620  1  0.577100  0.725100  0.230100  1.0
  H  H621  1  0.577100  0.774900  0.269900  1.0
  H  H622  1  0.577100  0.230100  0.774900  1.0
  H  H623  1  0.577100  0.269900  0.725100  1.0
  H  H624  1  0.422900  0.274900  0.769900  1.0
  H  H625  1  0.433400  0.298000  0.722200  1.0
  H  H626  1  0.433400  0.777800  0.298000  1.0
  H  H627  1  0.433400  0.722200  0.202000  1.0
  H  H628  1  0.566600  0.798000  0.222200  1.0
  H  H629  1  0.566600  0.702000  0.277800  1.0
  H  H630  1  0.566600  0.222200  0.702000  1.0
  H  H631  1  0.566600  0.277800  0.798000  1.0
  H  H632  1  0.433400  0.202000  0.777800  1.0
  H  H633  1  0.416400  0.330400  0.657600  1.0
  H  H634  1  0.416400  0.842400  0.330400  1.0
  H  H635  1  0.416400  0.657600  0.169600  1.0
  H  H636  1  0.583600  0.830400  0.157600  1.0
  H  H637  1  0.583600  0.669600  0.342400  1.0
  H  H638  1  0.583600  0.157600  0.669600  1.0
  H  H639  1  0.583600  0.342400  0.830400  1.0
  H  H640  1  0.416400  0.169600  0.842400  1.0
  H  H641  1  0.386200  0.290600  0.602200  1.0
  H  H642  1  0.386200  0.897800  0.290600  1.0
  H  H643  1  0.386200  0.602200  0.209400  1.0
  H  H644  1  0.613800  0.790600  0.102200  1.0
  H  H645  1  0.613800  0.709400  0.397800  1.0
  H  H646  1  0.613800  0.102200  0.709400  1.0
  H  H647  1  0.613800  0.397800  0.790600  1.0
  H  H648  1  0.386200  0.209400  0.897800  1.0
  C  C649  1  0.525800  0.158500  0.431300  1
  C  C650  1  0.525800  0.068700  0.158500  1
  C  C651  1  0.525800  0.431300  0.341500  1
  C  C652  1  0.474200  0.658500  0.931300  1
  C  C653  1  0.474200  0.841500  0.568700  1
  C  C654  1  0.474200  0.931300  0.841500  1
  C  C655  1  0.474200  0.568700  0.658500  1
  C  C656  1  0.525800  0.341500  0.068700  1
  C  C657  1  0.133000  0.629000  0.274000  1
  C  C658  1  0.133000  0.226000  0.629000  1
  C  C659  1  0.133000  0.274000  0.871000  1
  C  C660  1  0.867000  0.129000  0.774000  1
  C  C661  1  0.867000  0.371000  0.726000  1
  C  C662  1  0.867000  0.774000  0.371000  1
  C  C663  1  0.867000  0.726000  0.129000  1
  C  C664  1  0.133000  0.871000  0.226000  1
  C  C665  1  0.370900  0.389400  0.748400  1
  C  C666  1  0.370900  0.751600  0.389400  1
  C  C667  1  0.370900  0.748400  0.110600  1
  C  C668  1  0.629100  0.889400  0.248400  1
  C  C669  1  0.629100  0.610600  0.251600  1
  C  C670  1  0.629100  0.248400  0.610600  1
  C  C671  1  0.629100  0.251600  0.889400  1
  C  C672  1  0.370900  0.110600  0.751600  1
  C  C673  1  0.027000  0.345000  0.339000  1
  C  C674  1  0.027000  0.161000  0.345000  1
  C  C675  1  0.027000  0.339000  0.155000  1
  C  C676  1  0.973000  0.845000  0.839000  1
  C  C677  1  0.973000  0.655000  0.661000  1
  C  C678  1  0.973000  0.839000  0.655000  1
  C  C679  1  0.973000  0.661000  0.845000  1
  C  C680  1  0.027000  0.155000  0.161000  1
  C  C681  1  0.995000  0.269000  0.374000  1
  C  C682  1  0.995000  0.126000  0.269000  1
  C  C683  1  0.995000  0.374000  0.231000  1
  C  C684  1  0.005000  0.769000  0.874000  1
  C  C685  1  0.005000  0.731000  0.626000  1
  C  C686  1  0.005000  0.874000  0.731000  1
  C  C687  1  0.005000  0.626000  0.769000  1
  C  C688  1  0.995000  0.231000  0.126000  1
  C  C689  1  0.610000  0.229800  0.483400  1
  C  C690  1  0.610000  0.016600  0.229800  1
  C  C691  1  0.610000  0.483400  0.270200  1
  C  C692  1  0.390000  0.729800  0.983400  1
  C  C693  1  0.390000  0.770200  0.516600  1
  C  C694  1  0.390000  0.983400  0.770200  1
  C  C695  1  0.390000  0.516600  0.729800  1
  C  C696  1  0.610000  0.270200  0.016600  1
  C  C697  1  0.204000  0.606000  0.619000  1
  C  C698  1  0.204000  0.881000  0.606000  1
  C  C699  1  0.204000  0.619000  0.894000  1
  C  C700  1  0.796000  0.106000  0.119000  1
  C  C701  1  0.796000  0.394000  0.381000  1
  C  C702  1  0.796000  0.119000  0.394000  1
  C  C703  1  0.796000  0.381000  0.106000  1
  C  C704  1  0.204000  0.894000  0.881000  1
  C  C705  1  0.091000  0.312000  0.345000  1
  C  C706  1  0.091000  0.155000  0.312000  1
  C  C707  1  0.091000  0.345000  0.188000  1
  C  C708  1  0.909000  0.812000  0.845000  1
  C  C709  1  0.909000  0.688000  0.655000  1
  C  C710  1  0.909000  0.845000  0.688000  1
  C  C711  1  0.909000  0.655000  0.812000  1
  C  C712  1  0.091000  0.188000  0.155000  1
  C  C713  1  0.350000  0.312000  0.366000  1
  C  C714  1  0.350000  0.134000  0.312000  1
  C  C715  1  0.350000  0.366000  0.188000  1
  C  C716  1  0.650000  0.812000  0.866000  1
  C  C717  1  0.650000  0.688000  0.634000  1
  C  C718  1  0.650000  0.866000  0.688000  1
  C  C719  1  0.650000  0.634000  0.812000  1
  C  C720  1  0.350000  0.188000  0.134000  1
  C  C721  1  0.303400  0.444400  0.637600  1
  C  C722  1  0.303400  0.862400  0.444400  1
  C  C723  1  0.303400  0.637600  0.055600  1
  C  C724  1  0.696600  0.944400  0.137600  1
  C  C725  1  0.696600  0.555600  0.362400  1
  C  C726  1  0.696600  0.137600  0.555600  1
  C  C727  1  0.696600  0.362400  0.944400  1
  C  C728  1  0.303400  0.055600  0.862400  1
  C  C729  1  0.153000  0.415000  0.698000  1
  C  C730  1  0.153000  0.802000  0.415000  1
  C  C731  1  0.153000  0.698000  0.085000  1
  C  C732  1  0.847000  0.915000  0.198000  1
  C  C733  1  0.847000  0.585000  0.302000  1
  C  C734  1  0.847000  0.198000  0.585000  1
  C  C735  1  0.847000  0.302000  0.915000  1
  C  C736  1  0.153000  0.085000  0.802000  1
  C  C737  1  0.075000  0.444000  0.283500  1
  C  C738  1  0.075000  0.216500  0.444000  1
  C  C739  1  0.075000  0.283500  0.056000  1
  C  C740  1  0.925000  0.944000  0.783500  1
  C  C741  1  0.925000  0.556000  0.716500  1
  C  C742  1  0.925000  0.783500  0.556000  1
  C  C743  1  0.925000  0.716500  0.944000  1
  C  C744  1  0.075000  0.056000  0.216500  1
  C  C745  1  0.086400  0.566300  0.419800  1
  C  C746  1  0.086400  0.080200  0.566300  1
  C  C747  1  0.086400  0.419800  0.933700  1
  C  C748  1  0.913600  0.066300  0.919800  1
  C  C749  1  0.913600  0.433700  0.580200  1
  C  C750  1  0.913600  0.919800  0.433700  1
  C  C751  1  0.913600  0.580200  0.066300  1
  C  C752  1  0.086400  0.933700  0.080200  1
  C  C753  1  0.102000  0.520000  0.470700  1
  C  C754  1  0.102000  0.029300  0.520000  1
  C  C755  1  0.102000  0.470700  0.980000  1
  C  C756  1  0.898000  0.020000  0.970700  1
  C  C757  1  0.898000  0.480000  0.529300  1
  C  C758  1  0.898000  0.970700  0.480000  1
  C  C759  1  0.898000  0.529300  0.020000  1
  C  C760  1  0.102000  0.980000  0.029300  1
  C  C761  1  0.185900  0.364400  0.294000  1
  C  C762  1  0.185900  0.206000  0.364400  1
  C  C763  1  0.185900  0.294000  0.135600  1
  C  C764  1  0.814100  0.864400  0.794000  1
  C  C765  1  0.814100  0.635600  0.706000  1
  C  C766  1  0.814100  0.794000  0.635600  1
  C  C767  1  0.814100  0.706000  0.864400  1
  C  C768  1  0.185900  0.135600  0.206000  1
  C  C769  1  0.555000  0.282000  0.567000  1
  C  C770  1  0.555000  0.933000  0.282000  1
  C  C771  1  0.555000  0.567000  0.218000  1
  C  C772  1  0.445000  0.782000  0.067000  1
  C  C773  1  0.445000  0.718000  0.433000  1
  C  C774  1  0.445000  0.067000  0.718000  1
  C  C775  1  0.445000  0.433000  0.782000  1
  C  C776  1  0.555000  0.218000  0.933000  1
  C  C777  1  0.587400  0.110200  0.480100  1
  C  C778  1  0.587400  0.019900  0.110200  1
  C  C779  1  0.587400  0.480100  0.389800  1
  C  C780  1  0.412600  0.610200  0.980100  1
  C  C781  1  0.412600  0.889800  0.519900  1
  C  C782  1  0.412600  0.980100  0.889800  1
  C  C783  1  0.412600  0.519900  0.610200  1
  C  C784  1  0.587400  0.389800  0.019900  1
  C  C785  1  0.096000  0.646000  0.358000  1
  C  C786  1  0.096000  0.142000  0.646000  1
  C  C787  1  0.096000  0.358000  0.854000  1
  C  C788  1  0.904000  0.146000  0.858000  1
  C  C789  1  0.904000  0.354000  0.642000  1
  C  C790  1  0.904000  0.858000  0.354000  1
  C  C791  1  0.904000  0.642000  0.146000  1
  C  C792  1  0.096000  0.854000  0.142000  1
  C  C793  1  0.180000  0.460000  0.722000  1
  C  C794  1  0.180000  0.778000  0.460000  1
  C  C795  1  0.180000  0.722000  0.040000  1
  C  C796  1  0.820000  0.960000  0.222000  1
  C  C797  1  0.820000  0.540000  0.278000  1
  C  C798  1  0.820000  0.222000  0.540000  1
  C  C799  1  0.820000  0.278000  0.960000  1
  C  C800  1  0.180000  0.040000  0.778000  1
  C  C801  1  0.342000  0.441000  0.722000  1
  C  C802  1  0.342000  0.778000  0.441000  1
  C  C803  1  0.342000  0.722000  0.059000  1
  C  C804  1  0.658000  0.941000  0.222000  1
  C  C805  1  0.658000  0.559000  0.278000  1
  C  C806  1  0.658000  0.222000  0.559000  1
  C  C807  1  0.658000  0.278000  0.941000  1
  C  C808  1  0.342000  0.059000  0.778000  1
  C  C809  1  0.059400  0.493700  0.263300  1.0
  C  C810  1  0.059400  0.236700  0.493700  1.0
  C  C811  1  0.059400  0.263300  0.006300  1.0
  C  C812  1  0.940600  0.993700  0.763300  1.0
  C  C813  1  0.940600  0.506300  0.736700  1.0
  C  C814  1  0.940600  0.763300  0.506300  1.0
  C  C815  1  0.940600  0.736700  0.993700  1.0
  C  C816  1  0.059400  0.006300  0.236700  1.0
  C  C817  1  0.007000  0.485900  0.338000  1.0
  C  C818  1  0.007000  0.162000  0.485900  1.0
  C  C819  1  0.007000  0.338000  0.014100  1.0
  C  C820  1  0.993000  0.985900  0.838000  1.0
  C  C821  1  0.993000  0.514100  0.662000  1.0
  C  C822  1  0.993000  0.838000  0.514100  1.0
  C  C823  1  0.993000  0.662000  0.985900  1.0
  C  C824  1  0.007000  0.014100  0.162000  1.0
  C  C825  1  0.046800  0.511800  0.480900  1.0
  C  C826  1  0.046800  0.019100  0.511800  1.0
  C  C827  1  0.046800  0.480900  0.988200  1.0
  C  C828  1  0.953200  0.011800  0.980900  1.0
  C  C829  1  0.953200  0.488200  0.519100  1.0
  C  C830  1  0.953200  0.980900  0.488200  1.0
  C  C831  1  0.953200  0.519100  0.011800  1.0
  C  C832  1  0.046800  0.988200  0.019100  1.0
  C  C833  1  0.025800  0.534000  0.432000  1.0
  C  C834  1  0.025800  0.068000  0.534000  1.0
  C  C835  1  0.025800  0.432000  0.966000  1.0
  C  C836  1  0.974200  0.034000  0.932000  1.0
  C  C837  1  0.974200  0.466000  0.568000  1.0
  C  C838  1  0.974200  0.932000  0.466000  1.0
  C  C839  1  0.974200  0.568000  0.034000  1.0
  C  C840  1  0.025800  0.966000  0.068000  1.0
  C  C841  1  0.244000  0.376000  0.279700  1.0
  C  C842  1  0.244000  0.220300  0.376000  1.0
  C  C843  1  0.244000  0.279700  0.124000  1.0
  C  C844  1  0.756000  0.876000  0.779700  1.0
  C  C845  1  0.756000  0.624000  0.720300  1.0
  C  C846  1  0.756000  0.779700  0.624000  1.0
  C  C847  1  0.756000  0.720300  0.876000  1.0
  C  C848  1  0.244000  0.124000  0.220300  1.0
  C  C849  1  0.245000  0.324000  0.359100  1.0
  C  C850  1  0.245000  0.140900  0.324000  1.0
  C  C851  1  0.245000  0.359100  0.176000  1.0
  C  C852  1  0.755000  0.824000  0.859100  1.0
  C  C853  1  0.755000  0.676000  0.640900  1.0
  C  C854  1  0.755000  0.859100  0.676000  1.0
  C  C855  1  0.755000  0.640900  0.824000  1.0
  C  C856  1  0.245000  0.176000  0.140900  1.0
  C  C857  1  0.523200  0.263800  0.618900  1.0
  C  C858  1  0.523200  0.881100  0.263800  1.0
  C  C859  1  0.523200  0.618900  0.236200  1.0
  C  C860  1  0.476800  0.763800  0.118900  1.0
  C  C861  1  0.476800  0.736200  0.381100  1.0
  C  C862  1  0.476800  0.118900  0.736200  1.0
  C  C863  1  0.476800  0.381100  0.763800  1.0
  C  C864  1  0.523200  0.236200  0.881100  1.0
  C  C865  1  0.557800  0.326600  0.600300  1.0
  C  C866  1  0.557800  0.899700  0.326600  1.0
  C  C867  1  0.557800  0.600300  0.173400  1.0
  C  C868  1  0.442200  0.826600  0.100300  1.0
  C  C869  1  0.442200  0.673400  0.399700  1.0
  C  C870  1  0.442200  0.100300  0.673400  1.0
  C  C871  1  0.442200  0.399700  0.826600  1.0
  C  C872  1  0.557800  0.173400  0.899700  1.0
  C  C873  1  0.419500  0.239000  0.374200  1.0
  C  C874  1  0.419500  0.125800  0.239000  1.0
  C  C875  1  0.419500  0.374200  0.261000  1.0
  C  C876  1  0.580500  0.739000  0.874200  1.0
  C  C877  1  0.580500  0.761000  0.625800  1.0
  C  C878  1  0.580500  0.874200  0.761000  1.0
  C  C879  1  0.580500  0.625800  0.739000  1.0
  C  C880  1  0.419500  0.261000  0.125800  1.0
  C  C881  1  0.396400  0.409500  0.410700  1.0
  C  C882  1  0.396400  0.089300  0.409500  1.0
  C  C883  1  0.396400  0.410700  0.090500  1.0
  C  C884  1  0.603600  0.909500  0.910700  1.0
  C  C885  1  0.603600  0.590500  0.589300  1.0
  C  C886  1  0.603600  0.910700  0.590500  1.0
  C  C887  1  0.603600  0.589300  0.909500  1.0
  C  C888  1  0.396400  0.090500  0.089300  1.0
  C  C889  1  0.350200  0.409100  0.426000  1.0
  C  C890  1  0.350200  0.074000  0.409100  1.0
  C  C891  1  0.350200  0.426000  0.090900  1.0
  C  C892  1  0.649800  0.909100  0.926000  1.0
  C  C893  1  0.649800  0.590900  0.574000  1.0
  C  C894  1  0.649800  0.926000  0.590900  1.0
  C  C895  1  0.649800  0.574000  0.909100  1.0
  C  C896  1  0.350200  0.090900  0.074000  1.0
  C  C897  1  0.318500  0.438500  0.406100  1.0
  C  C898  1  0.318500  0.093900  0.438500  1.0
  C  C899  1  0.318500  0.406100  0.061500  1.0
  C  C900  1  0.681500  0.938500  0.906100  1.0
  C  C901  1  0.681500  0.561500  0.593900  1.0
  C  C902  1  0.681500  0.906100  0.561500  1.0
  C  C903  1  0.681500  0.593900  0.938500  1.0
  C  C904  1  0.318500  0.061500  0.093900  1.0
  C  C905  1  0.330900  0.464100  0.372900  1.0
  C  C906  1  0.330900  0.127100  0.464100  1.0
  C  C907  1  0.330900  0.372900  0.035900  1.0
  C  C908  1  0.669100  0.964100  0.872900  1.0
  C  C909  1  0.669100  0.535900  0.627100  1.0
  C  C910  1  0.669100  0.872900  0.535900  1.0
  C  C911  1  0.669100  0.627100  0.964100  1.0
  C  C912  1  0.330900  0.035900  0.127100  1.0
  C  C913  1  0.378700  0.462800  0.358000  1.0
  C  C914  1  0.378700  0.142000  0.462800  1.0
  C  C915  1  0.378700  0.358000  0.037200  1.0
  C  C916  1  0.621300  0.962800  0.858000  1.0
  C  C917  1  0.621300  0.537200  0.642000  1.0
  C  C918  1  0.621300  0.858000  0.537200  1.0
  C  C919  1  0.621300  0.642000  0.962800  1.0
  C  C920  1  0.378700  0.037200  0.142000  1.0
  C  C921  1  0.409000  0.435500  0.377700  1.0
  C  C922  1  0.409000  0.122300  0.435500  1.0
  C  C923  1  0.409000  0.377700  0.064500  1.0
  C  C924  1  0.591000  0.935500  0.877700  1.0
  C  C925  1  0.591000  0.564500  0.622300  1.0
  C  C926  1  0.591000  0.877700  0.564500  1.0
  C  C927  1  0.591000  0.622300  0.935500  1.0
  C  C928  1  0.409000  0.064500  0.122300  1.0
  C  C929  1  0.428600  0.379800  0.431800  1.0
  C  C930  1  0.428600  0.068200  0.379800  1.0
  C  C931  1  0.428600  0.431800  0.120200  1.0
  C  C932  1  0.571400  0.879800  0.931800  1.0
  C  C933  1  0.571400  0.620200  0.568200  1.0
  C  C934  1  0.571400  0.931800  0.620200  1.0
  C  C935  1  0.571400  0.568200  0.879800  1.0
  C  C936  1  0.428600  0.120200  0.068200  1.0
  C  C937  1  0.269100  0.441700  0.421000  1.0
  C  C938  1  0.269100  0.079000  0.441700  1.0
  C  C939  1  0.269100  0.421000  0.058300  1.0
  C  C940  1  0.730900  0.941700  0.921000  1.0
  C  C941  1  0.730900  0.558300  0.579000  1.0
  C  C942  1  0.730900  0.921000  0.558300  1.0
  C  C943  1  0.730900  0.579000  0.941700  1.0
  C  C944  1  0.269100  0.058300  0.079000  1.0
  C  C945  1  0.394800  0.489200  0.321300  1.0
  C  C946  1  0.394800  0.178700  0.489200  1.0
  C  C947  1  0.394800  0.321300  0.010800  1.0
  C  C948  1  0.605200  0.989200  0.821300  1.0
  C  C949  1  0.605200  0.510800  0.678700  1.0
  C  C950  1  0.605200  0.821300  0.510800  1.0
  C  C951  1  0.605200  0.678700  0.989200  1.0
  C  C952  1  0.394800  0.010800  0.178700  1.0
  C  C953  1  0.206800  0.310800  0.468600  1.0
  C  C954  1  0.206800  0.031400  0.310800  1.0
  C  C955  1  0.206800  0.468600  0.189200  1.0
  C  C956  1  0.793200  0.810800  0.968600  1.0
  C  C957  1  0.793200  0.689200  0.531400  1.0
  C  C958  1  0.793200  0.968600  0.689200  1.0
  C  C959  1  0.793200  0.531400  0.810800  1.0
  C  C960  1  0.206800  0.189200  0.031400  1.0
  C  C961  1  0.253600  0.325200  0.477800  1.0
  C  C962  1  0.253600  0.022200  0.325200  1.0
  C  C963  1  0.253600  0.477800  0.174800  1.0
  C  C964  1  0.746400  0.825200  0.977800  1.0
  C  C965  1  0.746400  0.674800  0.522200  1.0
  C  C966  1  0.746400  0.977800  0.674800  1.0
  C  C967  1  0.746400  0.522200  0.825200  1.0
  C  C968  1  0.253600  0.174800  0.022200  1.0
  C  C969  1  0.285200  0.295400  0.492300  1.0
  C  C970  1  0.285200  0.007700  0.295400  1.0
  C  C971  1  0.285200  0.492300  0.204600  1.0
  C  C972  1  0.714800  0.795400  0.992300  1.0
  C  C973  1  0.714800  0.704600  0.507700  1.0
  C  C974  1  0.714800  0.992300  0.704600  1.0
  C  C975  1  0.714800  0.507700  0.795400  1.0
  C  C976  1  0.285200  0.204600  0.007700  1.0
  C  C977  1  0.273600  0.252600  0.501300  1.0
  C  C978  1  0.273600  0.998700  0.252600  1.0
  C  C979  1  0.273600  0.501300  0.247400  1.0
  C  C980  1  0.726400  0.752600  0.001300  1.0
  C  C981  1  0.726400  0.747400  0.498700  1.0
  C  C982  1  0.726400  0.001300  0.747400  1.0
  C  C983  1  0.726400  0.498700  0.752600  1.0
  C  C984  1  0.273600  0.247400  0.998700  1.0
  C  C985  1  0.225600  0.239900  0.492500  1.0
  C  C986  1  0.225600  0.007500  0.239900  1.0
  C  C987  1  0.225600  0.492500  0.260100  1.0
  C  C988  1  0.774400  0.739900  0.992500  1.0
  C  C989  1  0.774400  0.760100  0.507500  1.0
  C  C990  1  0.774400  0.992500  0.760100  1.0
  C  C991  1  0.774400  0.507500  0.739900  1.0
  C  C992  1  0.225600  0.260100  0.007500  1.0
  C  C993  1  0.195600  0.270000  0.475900  1.0
  C  C994  1  0.195600  0.024100  0.270000  1.0
  C  C995  1  0.195600  0.475900  0.230000  1.0
  C  C996  1  0.804400  0.770000  0.975900  1.0
  C  C997  1  0.804400  0.730000  0.524100  1.0
  C  C998  1  0.804400  0.975900  0.730000  1.0
  C  C999  1  0.804400  0.524100  0.770000  1.0
  C  C1000  1  0.195600  0.230000  0.024100  1.0
  C  C1001  1  0.174700  0.343100  0.449300  1.0
  C  C1002  1  0.174700  0.050700  0.343100  1.0
  C  C1003  1  0.174700  0.449300  0.156900  1.0
  C  C1004  1  0.825300  0.843100  0.949300  1.0
  C  C1005  1  0.825300  0.656900  0.550700  1.0
  C  C1006  1  0.825300  0.949300  0.656900  1.0
  C  C1007  1  0.825300  0.550700  0.843100  1.0
  C  C1008  1  0.174700  0.156900  0.050700  1.0
  C  C1009  1  0.334300  0.306700  0.499400  1.0
  C  C1010  1  0.334300  0.000600  0.306700  1.0
  C  C1011  1  0.334300  0.499400  0.193300  1.0
  C  C1012  1  0.665700  0.806700  0.999400  1.0
  C  C1013  1  0.665700  0.693300  0.500600  1.0
  C  C1014  1  0.665700  0.999400  0.693300  1.0
  C  C1015  1  0.665700  0.500600  0.806700  1.0
  C  C1016  1  0.334300  0.193300  0.000600  1.0
  C  C1017  1  0.209300  0.496100  0.305500  1.0
  C  C1018  1  0.209300  0.194500  0.496100  1.0
  C  C1019  1  0.209300  0.305500  0.003900  1.0
  C  C1020  1  0.790700  0.996100  0.805500  1.0
  C  C1021  1  0.790700  0.503900  0.694500  1.0
  C  C1022  1  0.790700  0.805500  0.503900  1.0
  C  C1023  1  0.790700  0.694500  0.996100  1.0
  C  C1024  1  0.209300  0.003900  0.194500  1.0
  C  C1025  1  0.207600  0.449900  0.478500  1.0
  C  C1026  1  0.207600  0.021500  0.449900  1.0
  C  C1027  1  0.207600  0.478500  0.050100  1.0
  C  C1028  1  0.792400  0.949900  0.978500  1.0
  C  C1029  1  0.792400  0.550100  0.521500  1.0
  C  C1030  1  0.792400  0.978500  0.550100  1.0
  C  C1031  1  0.792400  0.521500  0.949900  1.0
  C  C1032  1  0.207600  0.050100  0.021500  1.0
  C  C1033  1  0.257400  0.447000  0.462100  1.0
  C  C1034  1  0.257400  0.037900  0.447000  1.0
  C  C1035  1  0.257400  0.462100  0.053000  1.0
  C  C1036  1  0.742600  0.947000  0.962100  1.0
  C  C1037  1  0.742600  0.553000  0.537900  1.0
  C  C1038  1  0.742600  0.962100  0.553000  1.0
  C  C1039  1  0.742600  0.537900  0.947000  1.0
  C  C1040  1  0.257400  0.053000  0.037900  1.0
  C  C1041  1  0.281000  0.462500  0.499300  1.0
  C  C1042  1  0.281000  0.000700  0.462500  1.0
  C  C1043  1  0.281000  0.499300  0.037500  1.0
  C  C1044  1  0.719000  0.962500  0.999300  1.0
  C  C1045  1  0.719000  0.537500  0.500700  1.0
  C  C1046  1  0.719000  0.999300  0.537500  1.0
  C  C1047  1  0.719000  0.500700  0.962500  1.0
  C  C1048  1  0.281000  0.037500  0.000700  1.0
  C  C1049  1  0.335200  0.471400  0.504200  1.0
  C  C1050  1  0.335200  0.995800  0.471400  1.0
  C  C1051  1  0.335200  0.504200  0.028600  1.0
  C  C1052  1  0.664800  0.971400  0.004200  1.0
  C  C1053  1  0.664800  0.528600  0.495800  1.0
  C  C1054  1  0.664800  0.004200  0.528600  1.0
  C  C1055  1  0.664800  0.495800  0.971400  1.0
  C  C1056  1  0.335200  0.028600  0.995800  1.0
  C  C1057  1  0.174700  0.465900  0.549700  1.0
  C  C1058  1  0.174700  0.950300  0.465900  1.0
  C  C1059  1  0.174700  0.549700  0.034100  1.0
  C  C1060  1  0.825300  0.965900  0.049700  1.0
  C  C1061  1  0.825300  0.534100  0.450300  1.0
  C  C1062  1  0.825300  0.049700  0.534100  1.0
  C  C1063  1  0.825300  0.450300  0.965900  1.0
  C  C1064  1  0.174700  0.034100  0.950300  1.0
  C  C1065  1  0.136400  0.441200  0.545700  1.0
  C  C1066  1  0.136400  0.954300  0.441200  1.0
  C  C1067  1  0.136400  0.545700  0.058800  1.0
  C  C1068  1  0.863600  0.941200  0.045700  1.0
  C  C1069  1  0.863600  0.558800  0.454300  1.0
  C  C1070  1  0.863600  0.045700  0.558800  1.0
  C  C1071  1  0.863600  0.454300  0.941200  1.0
  C  C1072  1  0.136400  0.058800  0.954300  1.0
  C  C1073  1  0.097500  0.443600  0.575600  1.0
  C  C1074  1  0.097500  0.924400  0.443600  1.0
  C  C1075  1  0.097500  0.575600  0.056400  1.0
  C  C1076  1  0.902500  0.943600  0.075600  1.0
  C  C1077  1  0.902500  0.556400  0.424400  1.0
  C  C1078  1  0.902500  0.075600  0.556400  1.0
  C  C1079  1  0.902500  0.424400  0.943600  1.0
  C  C1080  1  0.097500  0.056400  0.924400  1.0
  C  C1081  1  0.106200  0.471900  0.606300  1.0
  C  C1082  1  0.106200  0.893700  0.471900  1.0
  C  C1083  1  0.106200  0.606300  0.028100  1.0
  C  C1084  1  0.893800  0.971900  0.106300  1.0
  C  C1085  1  0.893800  0.528100  0.393700  1.0
  C  C1086  1  0.893800  0.106300  0.528100  1.0
  C  C1087  1  0.893800  0.393700  0.971900  1.0
  C  C1088  1  0.106200  0.028100  0.893700  1.0
  C  C1089  1  0.141400  0.498400  0.613000  1.0
  C  C1090  1  0.141400  0.887000  0.498400  1.0
  C  C1091  1  0.141400  0.613000  0.001600  1.0
  C  C1092  1  0.858600  0.998400  0.113000  1.0
  C  C1093  1  0.858600  0.501600  0.387000  1.0
  C  C1094  1  0.858600  0.113000  0.501600  1.0
  C  C1095  1  0.858600  0.387000  0.998400  1.0
  C  C1096  1  0.141400  0.001600  0.887000  1.0
  C  C1097  1  0.179800  0.496700  0.581600  1.0
  C  C1098  1  0.179800  0.918400  0.496700  1.0
  C  C1099  1  0.179800  0.581600  0.003300  1.0
  C  C1100  1  0.820200  0.996700  0.081600  1.0
  C  C1101  1  0.820200  0.503300  0.418400  1.0
  C  C1102  1  0.820200  0.081600  0.503300  1.0
  C  C1103  1  0.820200  0.418400  0.996700  1.0
  C  C1104  1  0.179800  0.003300  0.918400  1.0
  C  C1105  1  0.092900  0.370200  0.443300  1.0
  C  C1106  1  0.092900  0.056700  0.370200  1.0
  C  C1107  1  0.092900  0.443300  0.129800  1.0
  C  C1108  1  0.907100  0.870200  0.943300  1.0
  C  C1109  1  0.907100  0.629800  0.556700  1.0
  C  C1110  1  0.907100  0.943300  0.629800  1.0
  C  C1111  1  0.907100  0.556700  0.870200  1.0
  C  C1112  1  0.092900  0.129800  0.056700  1.0
  C  C1113  1  0.127400  0.347600  0.470000  1.0
  C  C1114  1  0.127400  0.030000  0.347600  1.0
  C  C1115  1  0.127400  0.470000  0.152400  1.0
  C  C1116  1  0.872600  0.847600  0.970000  1.0
  C  C1117  1  0.872600  0.652400  0.530000  1.0
  C  C1118  1  0.872600  0.970000  0.652400  1.0
  C  C1119  1  0.872600  0.530000  0.847600  1.0
  C  C1120  1  0.127400  0.152400  0.030000  1.0
  C  C1121  1  0.110000  0.337200  0.511800  1.0
  C  C1122  1  0.110000  0.988200  0.337200  1.0
  C  C1123  1  0.110000  0.511800  0.162800  1.0
  C  C1124  1  0.890000  0.837200  0.011800  1.0
  C  C1125  1  0.890000  0.662800  0.488200  1.0
  C  C1126  1  0.890000  0.011800  0.662800  1.0
  C  C1127  1  0.890000  0.488200  0.837200  1.0
  C  C1128  1  0.110000  0.162800  0.988200  1.0
  C  C1129  1  0.132100  0.316800  0.548000  1.0
  C  C1130  1  0.132100  0.952000  0.316800  1.0
  C  C1131  1  0.132100  0.548000  0.183200  1.0
  C  C1132  1  0.867900  0.816800  0.048000  1.0
  C  C1133  1  0.867900  0.683200  0.452000  1.0
  C  C1134  1  0.867900  0.048000  0.683200  1.0
  C  C1135  1  0.867900  0.452000  0.816800  1.0
  C  C1136  1  0.132100  0.183200  0.952000  1.0
  C  C1137  1  0.008800  0.378800  0.464700  1.0
  C  C1138  1  0.008800  0.035300  0.378800  1.0
  C  C1139  1  0.008800  0.464700  0.121200  1.0
  C  C1140  1  0.991200  0.878800  0.964700  1.0
  C  C1141  1  0.991200  0.621200  0.535300  1.0
  C  C1142  1  0.991200  0.964700  0.621200  1.0
  C  C1143  1  0.991200  0.535300  0.878800  1.0
  C  C1144  1  0.008800  0.121200  0.035300  1.0
  C  C1145  1  0.973700  0.356400  0.483600  1.0
  C  C1146  1  0.973700  0.016400  0.356400  1.0
  C  C1147  1  0.973700  0.483600  0.143600  1.0
  C  C1148  1  0.026300  0.856400  0.983600  1.0
  C  C1149  1  0.026300  0.643600  0.516400  1.0
  C  C1150  1  0.026300  0.983600  0.643600  1.0
  C  C1151  1  0.026300  0.516400  0.856400  1.0
  C  C1152  1  0.973700  0.143600  0.016400  1.0
  C  C1153  1  0.925500  0.367500  0.475600  1.0
  C  C1154  1  0.925500  0.024400  0.367500  1.0
  C  C1155  1  0.925500  0.475600  0.132500  1.0
  C  C1156  1  0.074500  0.867500  0.975600  1.0
  C  C1157  1  0.074500  0.632500  0.524400  1.0
  C  C1158  1  0.074500  0.975600  0.632500  1.0
  C  C1159  1  0.074500  0.524400  0.867500  1.0
  C  C1160  1  0.925500  0.132500  0.024400  1.0
  C  C1161  1  0.918400  0.397900  0.451900  1.0
  C  C1162  1  0.918400  0.048100  0.397900  1.0
  C  C1163  1  0.918400  0.451900  0.102100  1.0
  C  C1164  1  0.081600  0.897900  0.951900  1.0
  C  C1165  1  0.081600  0.602100  0.548100  1.0
  C  C1166  1  0.081600  0.951900  0.602100  1.0
  C  C1167  1  0.081600  0.548100  0.897900  1.0
  C  C1168  1  0.918400  0.102100  0.048100  1.0
  C  C1169  1  0.950400  0.419900  0.426700  1.0
  C  C1170  1  0.950400  0.073300  0.419900  1.0
  C  C1171  1  0.950400  0.426700  0.080100  1.0
  C  C1172  1  0.049600  0.919900  0.926700  1.0
  C  C1173  1  0.049600  0.580100  0.573300  1.0
  C  C1174  1  0.049600  0.926700  0.580100  1.0
  C  C1175  1  0.049600  0.573300  0.919900  1.0
  C  C1176  1  0.950400  0.080100  0.073300  1.0
  C  C1177  1  0.999300  0.409800  0.437600  1.0
  C  C1178  1  0.999300  0.062400  0.409800  1.0
  C  C1179  1  0.999300  0.437600  0.090200  1.0
  C  C1180  1  0.000700  0.909800  0.937600  1.0
  C  C1181  1  0.000700  0.590200  0.562400  1.0
  C  C1182  1  0.000700  0.937600  0.590200  1.0
  C  C1183  1  0.000700  0.562400  0.909800  1.0
  C  C1184  1  0.999300  0.090200  0.062400  1.0
  C  C1185  1  0.205100  0.534200  0.371800  1.0
  C  C1186  1  0.205100  0.128200  0.534200  1.0
  C  C1187  1  0.205100  0.371800  0.965800  1.0
  C  C1188  1  0.794900  0.034200  0.871800  1.0
  C  C1189  1  0.794900  0.465800  0.628200  1.0
  C  C1190  1  0.794900  0.871800  0.465800  1.0
  C  C1191  1  0.794900  0.628200  0.034200  1.0
  C  C1192  1  0.205100  0.965800  0.128200  1.0
  C  C1193  1  0.218800  0.531100  0.327600  1.0
  C  C1194  1  0.218800  0.172400  0.531100  1.0
  C  C1195  1  0.218800  0.327600  0.968900  1.0
  C  C1196  1  0.781200  0.031100  0.827600  1.0
  C  C1197  1  0.781200  0.468900  0.672400  1.0
  C  C1198  1  0.781200  0.827600  0.468900  1.0
  C  C1199  1  0.781200  0.672400  0.031100  1.0
  C  C1200  1  0.218800  0.968900  0.172400  1.0
  C  C1201  1  0.235900  0.571700  0.320200  1.0
  C  C1202  1  0.235900  0.179800  0.571700  1.0
  C  C1203  1  0.235900  0.320200  0.928300  1.0
  C  C1204  1  0.764100  0.071700  0.820200  1.0
  C  C1205  1  0.764100  0.428300  0.679800  1.0
  C  C1206  1  0.764100  0.820200  0.428300  1.0
  C  C1207  1  0.764100  0.679800  0.071700  1.0
  C  C1208  1  0.235900  0.928300  0.179800  1.0
  C  C1209  1  0.256800  0.591600  0.282100  1.0
  C  C1210  1  0.256800  0.217900  0.591600  1.0
  C  C1211  1  0.256800  0.282100  0.908400  1.0
  C  C1212  1  0.743200  0.091600  0.782100  1.0
  C  C1213  1  0.743200  0.408400  0.717900  1.0
  C  C1214  1  0.743200  0.782100  0.408400  1.0
  C  C1215  1  0.743200  0.717900  0.091600  1.0
  C  C1216  1  0.256800  0.908400  0.217900  1.0
  C  C1217  1  0.208600  0.590600  0.429400  1.0
  C  C1218  1  0.208600  0.070600  0.590600  1.0
  C  C1219  1  0.208600  0.429400  0.909400  1.0
  C  C1220  1  0.791400  0.090600  0.929400  1.0
  C  C1221  1  0.791400  0.409400  0.570600  1.0
  C  C1222  1  0.791400  0.929400  0.409400  1.0
  C  C1223  1  0.791400  0.570600  0.090600  1.0
  C  C1224  1  0.208600  0.909400  0.070600  1.0
  C  C1225  1  0.198000  0.635300  0.430200  1.0
  C  C1226  1  0.198000  0.069800  0.635300  1.0
  C  C1227  1  0.198000  0.430200  0.864700  1.0
  C  C1228  1  0.802000  0.135300  0.930200  1.0
  C  C1229  1  0.802000  0.364700  0.569800  1.0
  C  C1230  1  0.802000  0.930200  0.364700  1.0
  C  C1231  1  0.802000  0.569800  0.135300  1.0
  C  C1232  1  0.198000  0.864700  0.069800  1.0
  C  C1233  1  0.193400  0.653100  0.468700  1.0
  C  C1234  1  0.193400  0.031300  0.653100  1.0
  C  C1235  1  0.193400  0.468700  0.846900  1.0
  C  C1236  1  0.806600  0.153100  0.968700  1.0
  C  C1237  1  0.806600  0.346900  0.531300  1.0
  C  C1238  1  0.806600  0.968700  0.346900  1.0
  C  C1239  1  0.806600  0.531300  0.153100  1.0
  C  C1240  1  0.193400  0.846900  0.031300  1.0
  C  C1241  1  0.194900  0.629600  0.503000  1.0
  C  C1242  1  0.194900  0.997000  0.629600  1.0
  C  C1243  1  0.194900  0.503000  0.870400  1.0
  C  C1244  1  0.805100  0.129600  0.003000  1.0
  C  C1245  1  0.805100  0.370400  0.497000  1.0
  C  C1246  1  0.805100  0.003000  0.370400  1.0
  C  C1247  1  0.805100  0.497000  0.129600  1.0
  C  C1248  1  0.194900  0.870400  0.997000  1.0
  C  C1249  1  0.203500  0.585500  0.503300  1.0
  C  C1250  1  0.203500  0.996700  0.585500  1.0
  C  C1251  1  0.203500  0.503300  0.914500  1.0
  C  C1252  1  0.796500  0.085500  0.003300  1.0
  C  C1253  1  0.796500  0.414500  0.496700  1.0
  C  C1254  1  0.796500  0.003300  0.414500  1.0
  C  C1255  1  0.796500  0.496700  0.085500  1.0
  C  C1256  1  0.203500  0.914500  0.996700  1.0
  C  C1257  1  0.211900  0.568400  0.464000  1.0
  C  C1258  1  0.211900  0.036000  0.568400  1.0
  C  C1259  1  0.211900  0.464000  0.931600  1.0
  C  C1260  1  0.788100  0.068400  0.964000  1.0
  C  C1261  1  0.788100  0.431600  0.536000  1.0
  C  C1262  1  0.788100  0.964000  0.431600  1.0
  C  C1263  1  0.788100  0.536000  0.068400  1.0
  C  C1264  1  0.211900  0.931600  0.036000  1.0
  C  C1265  1  0.510600  0.369100  0.459500  1.0
  C  C1266  1  0.510600  0.040500  0.369100  1.0
  C  C1267  1  0.510600  0.459500  0.130900  1.0
  C  C1268  1  0.489400  0.869100  0.959500  1.0
  C  C1269  1  0.489400  0.630900  0.540500  1.0
  C  C1270  1  0.489400  0.959500  0.630900  1.0
  C  C1271  1  0.489400  0.540500  0.869100  1.0
  C  C1272  1  0.510600  0.130900  0.040500  1.0
  C  C1273  1  0.472600  0.394200  0.445600  1.0
  C  C1274  1  0.472600  0.054400  0.394200  1.0
  C  C1275  1  0.472600  0.445600  0.105800  1.0
  C  C1276  1  0.527400  0.894200  0.945600  1.0
  C  C1277  1  0.527400  0.605800  0.554400  1.0
  C  C1278  1  0.527400  0.945600  0.605800  1.0
  C  C1279  1  0.527400  0.554400  0.894200  1.0
  C  C1280  1  0.472600  0.105800  0.054400  1.0
  C  C1281  1  0.489500  0.435500  0.454600  1.0
  C  C1282  1  0.489500  0.045400  0.435500  1.0
  C  C1283  1  0.489500  0.454600  0.064500  1.0
  C  C1284  1  0.510500  0.935500  0.954600  1.0
  C  C1285  1  0.510500  0.564500  0.545400  1.0
  C  C1286  1  0.510500  0.954600  0.564500  1.0
  C  C1287  1  0.510500  0.545400  0.935500  1.0
  C  C1288  1  0.489500  0.064500  0.045400  1.0
  C  C1289  1  0.462000  0.478600  0.453000  1.0
  C  C1290  1  0.462000  0.047000  0.478600  1.0
  C  C1291  1  0.462000  0.453000  0.021400  1.0
  C  C1292  1  0.538000  0.978600  0.953000  1.0
  C  C1293  1  0.538000  0.521400  0.547000  1.0
  C  C1294  1  0.538000  0.953000  0.521400  1.0
  C  C1295  1  0.538000  0.547000  0.978600  1.0
  C  C1296  1  0.462000  0.021400  0.047000  1.0
  C  C1297  1  0.590100  0.385500  0.485300  1.0
  C  C1298  1  0.590100  0.014700  0.385500  1.0
  C  C1299  1  0.590100  0.485300  0.114500  1.0
  C  C1300  1  0.409900  0.885500  0.985300  1.0
  C  C1301  1  0.409900  0.614500  0.514700  1.0
  C  C1302  1  0.409900  0.985300  0.614500  1.0
  C  C1303  1  0.409900  0.514700  0.885500  1.0
  C  C1304  1  0.590100  0.114500  0.014700  1.0
  C  C1305  1  0.601400  0.348300  0.501800  1.0
  C  C1306  1  0.601400  0.998200  0.348300  1.0
  C  C1307  1  0.601400  0.501800  0.151700  1.0
  C  C1308  1  0.398600  0.848300  0.001800  1.0
  C  C1309  1  0.398600  0.651700  0.498200  1.0
  C  C1310  1  0.398600  0.001800  0.651700  1.0
  C  C1311  1  0.398600  0.498200  0.848300  1.0
  C  C1312  1  0.601400  0.151700  0.998200  1.0
  C  C1313  1  0.646000  0.335500  0.515700  1.0
  C  C1314  1  0.646000  0.984300  0.335500  1.0
  C  C1315  1  0.646000  0.515700  0.164500  1.0
  C  C1316  1  0.354000  0.835500  0.015700  1.0
  C  C1317  1  0.354000  0.664500  0.484300  1.0
  C  C1318  1  0.354000  0.015700  0.664500  1.0
  C  C1319  1  0.354000  0.484300  0.835500  1.0
  C  C1320  1  0.646000  0.164500  0.984300  1.0
  C  C1321  1  0.680000  0.369900  0.511200  1.0
  C  C1322  1  0.680000  0.988800  0.369900  1.0
  C  C1323  1  0.680000  0.511200  0.130100  1.0
  C  C1324  1  0.320000  0.869900  0.011200  1.0
  C  C1325  1  0.320000  0.630100  0.488800  1.0
  C  C1326  1  0.320000  0.011200  0.630100  1.0
  C  C1327  1  0.320000  0.488800  0.869900  1.0
  C  C1328  1  0.680000  0.130100  0.988800  1.0
  C  C1329  1  0.666300  0.407800  0.501800  1.0
  C  C1330  1  0.666300  0.998200  0.407800  1.0
  C  C1331  1  0.666300  0.501800  0.092200  1.0
  C  C1332  1  0.333700  0.907800  0.001800  1.0
  C  C1333  1  0.333700  0.592200  0.498200  1.0
  C  C1334  1  0.333700  0.001800  0.592200  1.0
  C  C1335  1  0.333700  0.498200  0.907800  1.0
  C  C1336  1  0.666300  0.092200  0.998200  1.0
  C  C1337  1  0.620200  0.415700  0.490500  1.0
  C  C1338  1  0.620200  0.009500  0.415700  1.0
  C  C1339  1  0.620200  0.490500  0.084300  1.0
  C  C1340  1  0.379800  0.915700  0.990500  1.0
  C  C1341  1  0.379800  0.584300  0.509500  1.0
  C  C1342  1  0.379800  0.990500  0.584300  1.0
  C  C1343  1  0.379800  0.509500  0.915700  1.0
  C  C1344  1  0.620200  0.084300  0.009500  1.0
  C  C1345  1  0.394700  0.352800  0.540300  1.0
  C  C1346  1  0.394700  0.959700  0.352800  1.0
  C  C1347  1  0.394700  0.540300  0.147200  1.0
  C  C1348  1  0.605300  0.852800  0.040300  1.0
  C  C1349  1  0.605300  0.647200  0.459700  1.0
  C  C1350  1  0.605300  0.040300  0.647200  1.0
  C  C1351  1  0.605300  0.459700  0.852800  1.0
  C  C1352  1  0.394700  0.147200  0.959700  1.0
  C  C1353  1  0.346300  0.339500  0.530100  1.0
  C  C1354  1  0.346300  0.969900  0.339500  1.0
  C  C1355  1  0.346300  0.530100  0.160500  1.0
  C  C1356  1  0.653700  0.839500  0.030100  1.0
  C  C1357  1  0.653700  0.660500  0.469900  1.0
  C  C1358  1  0.653700  0.030100  0.660500  1.0
  C  C1359  1  0.653700  0.469900  0.839500  1.0
  C  C1360  1  0.346300  0.160500  0.969900  1.0
  C  C1361  1  0.319300  0.363000  0.557500  1.0
  C  C1362  1  0.319300  0.942500  0.363000  1.0
  C  C1363  1  0.319300  0.557500  0.137000  1.0
  C  C1364  1  0.680700  0.863000  0.057500  1.0
  C  C1365  1  0.680700  0.637000  0.442500  1.0
  C  C1366  1  0.680700  0.057500  0.637000  1.0
  C  C1367  1  0.680700  0.442500  0.863000  1.0
  C  C1368  1  0.319300  0.137000  0.942500  1.0
  C  C1369  1  0.268300  0.363100  0.566600  1.0
  C  C1370  1  0.268300  0.933400  0.363100  1.0
  C  C1371  1  0.268300  0.566600  0.136900  1.0
  C  C1372  1  0.731700  0.863100  0.066600  1.0
  C  C1373  1  0.731700  0.636900  0.433400  1.0
  C  C1374  1  0.731700  0.066600  0.636900  1.0
  C  C1375  1  0.731700  0.433400  0.863100  1.0
  C  C1376  1  0.268300  0.136900  0.933400  1.0
  C  C1377  1  0.427200  0.400600  0.592400  1.0
  C  C1378  1  0.427200  0.907600  0.400600  1.0
  C  C1379  1  0.427200  0.592400  0.099400  1.0
  C  C1380  1  0.572800  0.900600  0.092400  1.0
  C  C1381  1  0.572800  0.599400  0.407600  1.0
  C  C1382  1  0.572800  0.092400  0.599400  1.0
  C  C1383  1  0.572800  0.407600  0.900600  1.0
  C  C1384  1  0.427200  0.099400  0.907600  1.0
  C  C1385  1  0.420600  0.410300  0.633100  1.0
  C  C1386  1  0.420600  0.866900  0.410300  1.0
  C  C1387  1  0.420600  0.633100  0.089700  1.0
  C  C1388  1  0.579400  0.910300  0.133100  1.0
  C  C1389  1  0.579400  0.589700  0.366900  1.0
  C  C1390  1  0.579400  0.133100  0.589700  1.0
  C  C1391  1  0.579400  0.366900  0.910300  1.0
  C  C1392  1  0.420600  0.089700  0.866900  1.0
  C  C1393  1  0.461400  0.427400  0.654800  1.0
  C  C1394  1  0.461400  0.845200  0.427400  1.0
  C  C1395  1  0.461400  0.654800  0.072600  1.0
  C  C1396  1  0.538600  0.927400  0.154800  1.0
  C  C1397  1  0.538600  0.572600  0.345200  1.0
  C  C1398  1  0.538600  0.154800  0.572600  1.0
  C  C1399  1  0.538600  0.345200  0.927400  1.0
  C  C1400  1  0.461400  0.072600  0.845200  1.0
  C  C1401  1  0.499500  0.436900  0.636000  1.0
  C  C1402  1  0.499500  0.864000  0.436900  1.0
  C  C1403  1  0.499500  0.636000  0.063100  1.0
  C  C1404  1  0.500500  0.936900  0.136000  1.0
  C  C1405  1  0.500500  0.563100  0.364000  1.0
  C  C1406  1  0.500500  0.136000  0.563100  1.0
  C  C1407  1  0.500500  0.364000  0.936900  1.0
  C  C1408  1  0.499500  0.063100  0.864000  1.0
  C  C1409  1  0.506700  0.426100  0.595200  1.0
  C  C1410  1  0.506700  0.904800  0.426100  1.0
  C  C1411  1  0.506700  0.595200  0.073900  1.0
  C  C1412  1  0.493300  0.926100  0.095200  1.0
  C  C1413  1  0.493300  0.573900  0.404800  1.0
  C  C1414  1  0.493300  0.095200  0.573900  1.0
  C  C1415  1  0.493300  0.404800  0.926100  1.0
  C  C1416  1  0.506700  0.073900  0.904800  1.0
  C  C1417  1  0.468200  0.409800  0.571900  1.0
  C  C1418  1  0.468200  0.928100  0.409800  1.0
  C  C1419  1  0.468200  0.571900  0.090200  1.0
  C  C1420  1  0.531800  0.909800  0.071900  1.0
  C  C1421  1  0.531800  0.590200  0.428100  1.0
  C  C1422  1  0.531800  0.071900  0.590200  1.0
  C  C1423  1  0.531800  0.428100  0.909800  1.0
  C  C1424  1  0.468200  0.090200  0.928100  1.0
  C  C1425  1  0.399200  0.216900  0.554800  1.0
  C  C1426  1  0.399200  0.945200  0.216900  1.0
  C  C1427  1  0.399200  0.554800  0.283100  1.0
  C  C1428  1  0.600800  0.716900  0.054800  1.0
  C  C1429  1  0.600800  0.783100  0.445200  1.0
  C  C1430  1  0.600800  0.054800  0.783100  1.0
  C  C1431  1  0.600800  0.445200  0.716900  1.0
  C  C1432  1  0.399200  0.283100  0.945200  1.0
  C  C1433  1  0.385800  0.533300  0.320600  1.0
  C  C1434  1  0.385800  0.179400  0.533300  1.0
  C  C1435  1  0.385800  0.320600  0.966700  1.0
  C  C1436  1  0.614200  0.033300  0.820600  1.0
  C  C1437  1  0.614200  0.466700  0.679400  1.0
  C  C1438  1  0.614200  0.820600  0.466700  1.0
  C  C1439  1  0.614200  0.679400  0.033300  1.0
  C  C1440  1  0.385800  0.966700  0.179400  1.0
  C  C1441  1  0.366300  0.154000  0.565000  1.0
  C  C1442  1  0.366300  0.935000  0.154000  1.0
  C  C1443  1  0.366300  0.565000  0.346000  1.0
  C  C1444  1  0.633700  0.654000  0.065000  1.0
  C  C1445  1  0.633700  0.846000  0.435000  1.0
  C  C1446  1  0.633700  0.065000  0.846000  1.0
  C  C1447  1  0.633700  0.435000  0.654000  1.0
  C  C1448  1  0.366300  0.346000  0.935000  1.0
  C  C1449  1  0.351600  0.105700  0.561800  1.0
  C  C1450  1  0.351600  0.938200  0.105700  1.0
  C  C1451  1  0.351600  0.561800  0.394300  1.0
  C  C1452  1  0.648400  0.605700  0.061800  1.0
  C  C1453  1  0.648400  0.894300  0.438200  1.0
  C  C1454  1  0.648400  0.061800  0.894300  1.0
  C  C1455  1  0.648400  0.438200  0.605700  1.0
  C  C1456  1  0.351600  0.394300  0.938200  1.0
  C  C1457  1  0.389900  0.233300  0.631700  1.0
  C  C1458  1  0.389900  0.868300  0.233300  1.0
  C  C1459  1  0.389900  0.631700  0.266700  1.0
  C  C1460  1  0.610100  0.733300  0.131700  1.0
  C  C1461  1  0.610100  0.766700  0.368300  1.0
  C  C1462  1  0.610100  0.131700  0.766700  1.0
  C  C1463  1  0.610100  0.368300  0.733300  1.0
  C  C1464  1  0.389900  0.266700  0.868300  1.0
  C  C1465  1  0.400200  0.213800  0.670200  1.0
  C  C1466  1  0.400200  0.829800  0.213800  1.0
  C  C1467  1  0.400200  0.670200  0.286200  1.0
  C  C1468  1  0.599800  0.713800  0.170200  1.0
  C  C1469  1  0.599800  0.786200  0.329800  1.0
  C  C1470  1  0.599800  0.170200  0.786200  1.0
  C  C1471  1  0.599800  0.329800  0.713800  1.0
  C  C1472  1  0.400200  0.286200  0.829800  1.0
  C  C1473  1  0.416200  0.238100  0.704300  1.0
  C  C1474  1  0.416200  0.795700  0.238100  1.0
  C  C1475  1  0.416200  0.704300  0.261900  1.0
  C  C1476  1  0.583800  0.738100  0.204300  1.0
  C  C1477  1  0.583800  0.761900  0.295700  1.0
  C  C1478  1  0.583800  0.204300  0.761900  1.0
  C  C1479  1  0.583800  0.295700  0.738100  1.0
  C  C1480  1  0.416200  0.261900  0.795700  1.0
  C  C1481  1  0.422400  0.281900  0.699600  1.0
  C  C1482  1  0.422400  0.800400  0.281900  1.0
  C  C1483  1  0.422400  0.699600  0.218100  1.0
  C  C1484  1  0.577600  0.781900  0.199600  1.0
  C  C1485  1  0.577600  0.718100  0.300400  1.0
  C  C1486  1  0.577600  0.199600  0.718100  1.0
  C  C1487  1  0.577600  0.300400  0.781900  1.0
  C  C1488  1  0.422400  0.218100  0.800400  1.0
  C  C1489  1  0.411800  0.301500  0.660900  1.0
  C  C1490  1  0.411800  0.839100  0.301500  1.0
  C  C1491  1  0.411800  0.660900  0.198500  1.0
  C  C1492  1  0.588200  0.801500  0.160900  1.0
  C  C1493  1  0.588200  0.698500  0.339100  1.0
  C  C1494  1  0.588200  0.160900  0.698500  1.0
  C  C1495  1  0.588200  0.339100  0.801500  1.0
  C  C1496  1  0.411800  0.198500  0.839100  1.0
  C  C1497  1  0.394600  0.277400  0.627400  1.0
  C  C1498  1  0.394600  0.872600  0.277400  1.0
  C  C1499  1  0.394600  0.627400  0.222600  1.0
  C  C1500  1  0.605400  0.777400  0.127400  1.0
  C  C1501  1  0.605400  0.722600  0.372600  1.0
  C  C1502  1  0.605400  0.127400  0.722600  1.0
  C  C1503  1  0.605400  0.372600  0.777400  1.0
  C  C1504  1  0.394600  0.222600  0.872600  1.0
  S  S1505  1  0.084800  0.528000  0.418100  1
  S  S1506  1  0.084800  0.081900  0.528000  1
  S  S1507  1  0.084800  0.418100  0.972000  1
  S  S1508  1  0.915200  0.028000  0.918100  1
  S  S1509  1  0.915200  0.472000  0.581900  1
  S  S1510  1  0.915200  0.918100  0.472000  1
  S  S1511  1  0.915200  0.581900  0.028000  1
  S  S1512  1  0.084800  0.972000  0.081900  1
  S  S1513  1  0.063800  0.480100  0.315600  1.0
  S  S1514  1  0.063800  0.184400  0.480100  1.0
  S  S1515  1  0.063800  0.315600  0.019900  1.0
  S  S1516  1  0.936200  0.980100  0.815600  1.0
  S  S1517  1  0.936200  0.519900  0.684400  1.0
  S  S1518  1  0.936200  0.815600  0.519900  1.0
  S  S1519  1  0.936200  0.684400  0.980100  1.0
  S  S1520  1  0.063800  0.019900  0.184400  1.0
  S  S1521  1  0.093900  0.515400  0.444900  1.0
  S  S1522  1  0.093900  0.055100  0.515400  1.0
  S  S1523  1  0.093900  0.444900  0.984600  1.0
  S  S1524  1  0.906100  0.015400  0.944900  1.0
  S  S1525  1  0.906100  0.484600  0.555100  1.0
  S  S1526  1  0.906100  0.944900  0.484600  1.0
  S  S1527  1  0.906100  0.555100  0.015400  1.0
  S  S1528  1  0.093900  0.984600  0.055100  1.0
  S  S1529  1  0.211600  0.352300  0.321100  1.0
  S  S1530  1  0.211600  0.178900  0.352300  1.0
  S  S1531  1  0.211600  0.321100  0.147700  1.0
  S  S1532  1  0.788400  0.852300  0.821100  1.0
  S  S1533  1  0.788400  0.647700  0.678900  1.0
  S  S1534  1  0.788400  0.821100  0.647700  1.0
  S  S1535  1  0.788400  0.678900  0.852300  1.0
  S  S1536  1  0.211600  0.147700  0.178900  1.0
  S  S1537  1  0.504200  0.300800  0.587200  1.0
  S  S1538  1  0.504200  0.912800  0.300800  1.0
  S  S1539  1  0.504200  0.587200  0.199200  1.0
  S  S1540  1  0.495800  0.800800  0.087200  1.0
  S  S1541  1  0.495800  0.699200  0.412800  1.0
  S  S1542  1  0.495800  0.087200  0.699200  1.0
  S  S1543  1  0.495800  0.412800  0.800800  1.0
  S  S1544  1  0.504200  0.199200  0.912800  1.0
  N  N1545  1  0.212100  0.461300  0.517500  1.0
  N  N1546  1  0.212100  0.982500  0.461300  1.0
  N  N1547  1  0.212100  0.517500  0.038700  1.0
  N  N1548  1  0.787900  0.961300  0.017500  1.0
  N  N1549  1  0.787900  0.538700  0.482500  1.0
  N  N1550  1  0.787900  0.017500  0.538700  1.0
  N  N1551  1  0.787900  0.482500  0.961300  1.0
  N  N1552  1  0.212100  0.038700  0.982500  1.0
  N  N1553  1  0.254500  0.471400  0.532200  1.0
  N  N1554  1  0.254500  0.967800  0.471400  1.0
  N  N1555  1  0.254500  0.532200  0.028600  1.0
  N  N1556  1  0.745500  0.971400  0.032200  1.0
  N  N1557  1  0.745500  0.528600  0.467800  1.0
  N  N1558  1  0.745500  0.032200  0.528600  1.0
  N  N1559  1  0.745500  0.467800  0.971400  1.0
  N  N1560  1  0.254500  0.028600  0.967800  1.0
  N  N1561  1  0.054400  0.368000  0.474900  1.0
  N  N1562  1  0.054400  0.025100  0.368000  1.0
  N  N1563  1  0.054400  0.474900  0.132000  1.0
  N  N1564  1  0.945600  0.868000  0.974900  1.0
  N  N1565  1  0.945600  0.632000  0.525100  1.0
  N  N1566  1  0.945600  0.974900  0.632000  1.0
  N  N1567  1  0.945600  0.525100  0.868000  1.0
  N  N1568  1  0.054400  0.132000  0.025100  1.0
  N  N1569  1  0.065100  0.348200  0.511600  1.0
  N  N1570  1  0.065100  0.988400  0.348200  1.0
  N  N1571  1  0.065100  0.511600  0.151800  1.0
  N  N1572  1  0.934900  0.848200  0.011600  1.0
  N  N1573  1  0.934900  0.651800  0.488400  1.0
  N  N1574  1  0.934900  0.011600  0.651800  1.0
  N  N1575  1  0.934900  0.488400  0.848200  1.0
  N  N1576  1  0.065100  0.151800  0.988400  1.0
  N  N1577  1  0.216700  0.571200  0.385000  1.0
  N  N1578  1  0.216700  0.115000  0.571200  1.0
  N  N1579  1  0.216700  0.385000  0.928800  1.0
  N  N1580  1  0.783300  0.071200  0.885000  1.0
  N  N1581  1  0.783300  0.428800  0.615000  1.0
  N  N1582  1  0.783300  0.885000  0.428800  1.0
  N  N1583  1  0.783300  0.615000  0.071200  1.0
  N  N1584  1  0.216700  0.928800  0.115000  1.0
  N  N1585  1  0.237200  0.598800  0.353300  1.0
  N  N1586  1  0.237200  0.146700  0.598800  1.0
  N  N1587  1  0.237200  0.353300  0.901200  1.0
  N  N1588  1  0.762800  0.098800  0.853300  1.0
  N  N1589  1  0.762800  0.401200  0.646700  1.0
  N  N1590  1  0.762800  0.853300  0.401200  1.0
  N  N1591  1  0.762800  0.646700  0.098800  1.0
  N  N1592  1  0.237200  0.901200  0.146700  1.0
  N  N1593  1  0.544300  0.395100  0.472800  1.0
  N  N1594  1  0.544300  0.027200  0.395100  1.0
  N  N1595  1  0.544300  0.472800  0.104900  1.0
  N  N1596  1  0.455700  0.895100  0.972800  1.0
  N  N1597  1  0.455700  0.604900  0.527200  1.0
  N  N1598  1  0.455700  0.972800  0.604900  1.0
  N  N1599  1  0.455700  0.527200  0.895100  1.0
  N  N1600  1  0.544300  0.104900  0.027200  1.0
  N  N1601  1  0.530900  0.435600  0.472200  1.0
  N  N1602  1  0.530900  0.027800  0.435600  1.0
  N  N1603  1  0.530900  0.472200  0.064400  1.0
  N  N1604  1  0.469100  0.935600  0.972200  1.0
  N  N1605  1  0.469100  0.564400  0.527800  1.0
  N  N1606  1  0.469100  0.972200  0.564400  1.0
  N  N1607  1  0.469100  0.527800  0.935600  1.0
  N  N1608  1  0.530900  0.064400  0.027800  1.0
  N  N1609  1  0.391200  0.381900  0.570300  1.0
  N  N1610  1  0.391200  0.929700  0.381900  1.0
  N  N1611  1  0.391200  0.570300  0.118100  1.0
  N  N1612  1  0.608800  0.881900  0.070300  1.0
  N  N1613  1  0.608800  0.618100  0.429700  1.0
  N  N1614  1  0.608800  0.070300  0.618100  1.0
  N  N1615  1  0.608800  0.429700  0.881900  1.0
  N  N1616  1  0.391200  0.118100  0.929700  1.0
  N  N1617  1  0.345200  0.387500  0.582500  1.0
  N  N1618  1  0.345200  0.917500  0.387500  1.0
  N  N1619  1  0.345200  0.582500  0.112500  1.0
  N  N1620  1  0.654800  0.887500  0.082500  1.0
  N  N1621  1  0.654800  0.612500  0.417500  1.0
  N  N1622  1  0.654800  0.082500  0.612500  1.0
  N  N1623  1  0.654800  0.417500  0.887500  1.0
  N  N1624  1  0.345200  0.112500  0.917500  1.0
  N  N1625  1  0.385600  0.208500  0.594600  1.0
  N  N1626  1  0.385600  0.905400  0.208500  1.0
  N  N1627  1  0.385600  0.594600  0.291500  1.0
  N  N1628  1  0.614400  0.708500  0.094600  1.0
  N  N1629  1  0.614400  0.791500  0.405400  1.0
  N  N1630  1  0.614400  0.094600  0.791500  1.0
  N  N1631  1  0.614400  0.405400  0.708500  1.0
  N  N1632  1  0.385600  0.291500  0.905400  1.0
  N  N1633  1  0.367600  0.167200  0.602400  1.0
  N  N1634  1  0.367600  0.897600  0.167200  1.0
  N  N1635  1  0.367600  0.602400  0.332800  1.0
  N  N1636  1  0.632400  0.667200  0.102400  1.0
  N  N1637  1  0.632400  0.832800  0.397600  1.0
  N  N1638  1  0.632400  0.102400  0.832800  1.0
  N  N1639  1  0.632400  0.397600  0.667200  1.0
  N  N1640  1  0.367600  0.332800  0.897600  1.0
  O  O1641  1  0.558500  0.139800  0.453800  1
  O  O1642  1  0.558500  0.046200  0.139800  1
  O  O1643  1  0.558500  0.453800  0.360200  1
  O  O1644  1  0.441500  0.639800  0.953800  1
  O  O1645  1  0.441500  0.860200  0.546200  1
  O  O1646  1  0.441500  0.953800  0.860200  1
  O  O1647  1  0.441500  0.546200  0.639800  1
  O  O1648  1  0.558500  0.360200  0.046200  1
  O  O1649  1  0.123000  0.627000  0.326000  1
  O  O1650  1  0.123000  0.174000  0.627000  1
  O  O1651  1  0.123000  0.326000  0.873000  1
  O  O1652  1  0.877000  0.127000  0.826000  1
  O  O1653  1  0.877000  0.373000  0.674000  1
  O  O1654  1  0.877000  0.826000  0.373000  1
  O  O1655  1  0.877000  0.674000  0.127000  1
  O  O1656  1  0.123000  0.873000  0.174000  1
  O  O1657  1  0.326900  0.369100  0.749200  1
  O  O1658  1  0.326900  0.750800  0.369100  1
  O  O1659  1  0.326900  0.749200  0.130900  1
  O  O1660  1  0.673100  0.869100  0.249200  1
  O  O1661  1  0.673100  0.630900  0.250800  1
  O  O1662  1  0.673100  0.249200  0.630900  1
  O  O1663  1  0.673100  0.250800  0.869100  1
  O  O1664  1  0.326900  0.130900  0.750800  1
  O  O1665  1  0.029300  0.311400  0.373800  1
  O  O1666  1  0.029300  0.126200  0.311400  1
  O  O1667  1  0.029300  0.373800  0.188600  1
  O  O1668  1  0.970700  0.811400  0.873800  1
  O  O1669  1  0.970700  0.688600  0.626200  1
  O  O1670  1  0.970700  0.873800  0.688600  1
  O  O1671  1  0.970700  0.626200  0.811400  1
  O  O1672  1  0.029300  0.188600  0.126200  1
  O  O1673  1  0.609600  0.229000  0.518400  1
  O  O1674  1  0.609600  0.981600  0.229000  1
  O  O1675  1  0.609600  0.518400  0.271000  1
  O  O1676  1  0.390400  0.729000  0.018400  1
  O  O1677  1  0.390400  0.771000  0.481600  1
  O  O1678  1  0.390400  0.018400  0.771000  1
  O  O1679  1  0.390400  0.481600  0.729000  1
  O  O1680  1  0.609600  0.271000  0.981600  1
  O  O1681  1  0.250000  0.596000  0.620200  1
  O  O1682  1  0.250000  0.879800  0.596000  1
  O  O1683  1  0.250000  0.620200  0.904000  1
  O  O1684  1  0.750000  0.096000  0.120200  1
  O  O1685  1  0.750000  0.404000  0.379800  1
  O  O1686  1  0.750000  0.120200  0.404000  1
  O  O1687  1  0.750000  0.379800  0.096000  1
  O  O1688  1  0.250000  0.904000  0.879800  1
  O  O1689  1  0.102000  0.278000  0.374000  1
  O  O1690  1  0.102000  0.126000  0.278000  1
  O  O1691  1  0.102000  0.374000  0.222000  1
  O  O1692  1  0.898000  0.778000  0.874000  1
  O  O1693  1  0.898000  0.722000  0.626000  1
  O  O1694  1  0.898000  0.874000  0.722000  1
  O  O1695  1  0.898000  0.626000  0.778000  1
  O  O1696  1  0.102000  0.222000  0.126000  1
  O  O1697  1  0.345100  0.260900  0.357200  1
  O  O1698  1  0.345100  0.142800  0.260900  1
  O  O1699  1  0.345100  0.357200  0.239100  1
  O  O1700  1  0.654900  0.760900  0.857200  1
  O  O1701  1  0.654900  0.739100  0.642800  1
  O  O1702  1  0.654900  0.857200  0.739100  1
  O  O1703  1  0.654900  0.642800  0.760900  1
  O  O1704  1  0.345100  0.239100  0.142800  1
  O  O1705  1  0.301900  0.466100  0.610400  1
  O  O1706  1  0.301900  0.889600  0.466100  1
  O  O1707  1  0.301900  0.610400  0.033900  1
  O  O1708  1  0.698100  0.966100  0.110400  1
  O  O1709  1  0.698100  0.533900  0.389600  1
  O  O1710  1  0.698100  0.110400  0.533900  1
  O  O1711  1  0.698100  0.389600  0.966100  1
  O  O1712  1  0.301900  0.033900  0.889600  1
  O  O1713  1  0.188700  0.405000  0.655300  1
  O  O1714  1  0.188700  0.844700  0.405000  1
  O  O1715  1  0.188700  0.655300  0.095000  1
  O  O1716  1  0.811300  0.905000  0.155300  1
  O  O1717  1  0.811300  0.595000  0.344700  1
  O  O1718  1  0.811300  0.155300  0.595000  1
  O  O1719  1  0.811300  0.344700  0.905000  1
  O  O1720  1  0.188700  0.095000  0.844700  1
  O  O1721  1  0.013800  0.352900  0.588400  1
  O  O1722  1  0.013800  0.911600  0.352900  1
  O  O1723  1  0.013800  0.588400  0.147100  1
  O  O1724  1  0.986200  0.852900  0.088400  1
  O  O1725  1  0.986200  0.647100  0.411600  1
  O  O1726  1  0.986200  0.088400  0.647100  1
  O  O1727  1  0.986200  0.411600  0.852900  1
  O  O1728  1  0.013800  0.147100  0.911600  1
  O  O1729  1  0.302200  0.361700  0.838200  1
  O  O1730  1  0.302200  0.661800  0.361700  1
  O  O1731  1  0.302200  0.838200  0.138300  1
  O  O1732  1  0.697800  0.861700  0.338200  1
  O  O1733  1  0.697800  0.638300  0.161800  1
  O  O1734  1  0.697800  0.338200  0.638300  1
  O  O1735  1  0.697800  0.161800  0.861700  1
  O  O1736  1  0.302200  0.138300  0.661800  1
  O  O1737  1  0.577900  0.325600  0.369400  1
  O  O1738  1  0.577900  0.130600  0.325600  1
  O  O1739  1  0.577900  0.369400  0.174400  1
  O  O1740  1  0.422100  0.825600  0.869400  1
  O  O1741  1  0.422100  0.674400  0.630600  1
  O  O1742  1  0.422100  0.869400  0.674400  1
  O  O1743  1  0.422100  0.630600  0.825600  1
  O  O1744  1  0.577900  0.174400  0.130600  1
  O  O1745  1  0.279800  0.416000  0.769100  1
  O  O1746  1  0.279800  0.730900  0.416000  1
  O  O1747  1  0.279800  0.769100  0.084000  1
  O  O1748  1  0.720200  0.916000  0.269100  1
  O  O1749  1  0.720200  0.584000  0.230900  1
  O  O1750  1  0.720200  0.269100  0.584000  1
  O  O1751  1  0.720200  0.230900  0.916000  1
  O  O1752  1  0.279800  0.084000  0.730900  1
  O  O1753  1  0.503200  0.324700  0.358000  1
  O  O1754  1  0.503200  0.142000  0.324700  1
  O  O1755  1  0.503200  0.358000  0.175300  1
  O  O1756  1  0.496800  0.824700  0.858000  1
  O  O1757  1  0.496800  0.675300  0.642000  1
  O  O1758  1  0.496800  0.858000  0.675300  1
  O  O1759  1  0.496800  0.642000  0.824700  1
  O  O1760  1  0.503200  0.175300  0.142000  1
  O  O1761  1  0.183500  0.313700  0.649800  1
  O  O1762  1  0.183500  0.850200  0.313700  1
  O  O1763  1  0.183500  0.649800  0.186300  1
  O  O1764  1  0.816500  0.813700  0.149800  1
  O  O1765  1  0.816500  0.686300  0.350200  1
  O  O1766  1  0.816500  0.149800  0.686300  1
  O  O1767  1  0.816500  0.350200  0.813700  1
  O  O1768  1  0.183500  0.186300  0.850200  1
  O  O1769  1  0.010000  0.411000  0.654200  1
  O  O1770  1  0.010000  0.845800  0.411000  1
  O  O1771  1  0.010000  0.654200  0.089000  1
  O  O1772  1  0.990000  0.911000  0.154200  1
  O  O1773  1  0.990000  0.589000  0.345800  1
  O  O1774  1  0.990000  0.154200  0.589000  1
  O  O1775  1  0.990000  0.345800  0.911000  1
  O  O1776  1  0.010000  0.089000  0.845800  1
  O  O1777  1  0.299000  0.527000  0.597600  1
  O  O1778  1  0.299000  0.902400  0.527000  1
  O  O1779  1  0.299000  0.597600  0.973000  1
  O  O1780  1  0.701000  0.027000  0.097600  1
  O  O1781  1  0.701000  0.473000  0.402400  1
  O  O1782  1  0.701000  0.097600  0.473000  1
  O  O1783  1  0.701000  0.402400  0.027000  1
  O  O1784  1  0.299000  0.973000  0.902400  1
  O  O1785  1  0.569800  0.125800  0.424200  1
  O  O1786  1  0.569800  0.075800  0.125800  1
  O  O1787  1  0.569800  0.424200  0.374200  1
  O  O1788  1  0.430200  0.625800  0.924200  1
  O  O1789  1  0.430200  0.874200  0.575800  1
  O  O1790  1  0.430200  0.924200  0.874200  1
  O  O1791  1  0.430200  0.575800  0.625800  1
  O  O1792  1  0.569800  0.374200  0.075800  1
  O  O1793  1  0.117000  0.604000  0.298000  1
  O  O1794  1  0.117000  0.202000  0.604000  1
  O  O1795  1  0.117000  0.298000  0.896000  1
  O  O1796  1  0.883000  0.104000  0.798000  1
  O  O1797  1  0.883000  0.396000  0.702000  1
  O  O1798  1  0.883000  0.798000  0.396000  1
  O  O1799  1  0.883000  0.702000  0.104000  1
  O  O1800  1  0.117000  0.896000  0.202000  1
  O  O1801  1  0.183000  0.411000  0.736000  1
  O  O1802  1  0.183000  0.764000  0.411000  1
  O  O1803  1  0.183000  0.736000  0.089000  1
  O  O1804  1  0.817000  0.911000  0.236000  1
  O  O1805  1  0.817000  0.589000  0.264000  1
  O  O1806  1  0.817000  0.236000  0.589000  1
  O  O1807  1  0.817000  0.264000  0.911000  1
  O  O1808  1  0.183000  0.089000  0.764000  1
  O  O1809  1  0.310000  0.400000  0.721000  1
  O  O1810  1  0.310000  0.779000  0.400000  1
  O  O1811  1  0.310000  0.721000  0.100000  1
  O  O1812  1  0.690000  0.900000  0.221000  1
  O  O1813  1  0.690000  0.600000  0.279000  1
  O  O1814  1  0.690000  0.221000  0.600000  1
  O  O1815  1  0.690000  0.279000  0.900000  1
  O  O1816  1  0.310000  0.100000  0.779000  1
  O  O1817  1  0.163900  0.367100  0.653900  1
  O  O1818  1  0.163900  0.846100  0.367100  1
  O  O1819  1  0.163900  0.653900  0.132900  1
  O  O1820  1  0.836100  0.867100  0.153900  1
  O  O1821  1  0.836100  0.632900  0.346100  1
  O  O1822  1  0.836100  0.153900  0.632900  1
  O  O1823  1  0.836100  0.346100  0.867100  1
  O  O1824  1  0.163900  0.132900  0.846100  1
  O  O1825  1  0.088800  0.439400  0.327400  1.0
  O  O1826  1  0.088800  0.172600  0.439400  1.0
  O  O1827  1  0.088800  0.327400  0.060600  1.0
  O  O1828  1  0.911200  0.939400  0.827400  1.0
  O  O1829  1  0.911200  0.560600  0.672600  1.0
  O  O1830  1  0.911200  0.827400  0.560600  1.0
  O  O1831  1  0.911200  0.672600  0.939400  1.0
  O  O1832  1  0.088800  0.060600  0.172600  1.0
  O  O1833  1  0.088500  0.481700  0.409700  1.0
  O  O1834  1  0.088500  0.090300  0.481700  1.0
  O  O1835  1  0.088500  0.409700  0.018300  1.0
  O  O1836  1  0.911500  0.981700  0.909700  1.0
  O  O1837  1  0.911500  0.518300  0.590300  1.0
  O  O1838  1  0.911500  0.909700  0.518300  1.0
  O  O1839  1  0.911500  0.590300  0.981700  1.0
  O  O1840  1  0.088500  0.018300  0.090300  1.0
  O  O1841  1  0.239400  0.434400  0.390900  1.0
  O  O1842  1  0.239400  0.109100  0.434400  1.0
  O  O1843  1  0.239400  0.390900  0.065600  1.0
  O  O1844  1  0.760600  0.934400  0.890900  1.0
  O  O1845  1  0.760600  0.565600  0.609100  1.0
  O  O1846  1  0.760600  0.890900  0.565600  1.0
  O  O1847  1  0.760600  0.609100  0.934400  1.0
  O  O1848  1  0.239400  0.065600  0.109100  1.0
  O  O1849  1  0.170700  0.441700  0.459400  1.0
  O  O1850  1  0.170700  0.040600  0.441700  1.0
  O  O1851  1  0.170700  0.459400  0.058300  1.0
  O  O1852  1  0.829300  0.941700  0.959400  1.0
  O  O1853  1  0.829300  0.558300  0.540600  1.0
  O  O1854  1  0.829300  0.959400  0.558300  1.0
  O  O1855  1  0.829300  0.540600  0.941700  1.0
  O  O1856  1  0.170700  0.058300  0.040600  1.0
  O  O1857  1  0.186400  0.364400  0.418900  1.0
  O  O1858  1  0.186400  0.081100  0.364400  1.0
  O  O1859  1  0.186400  0.418900  0.135600  1.0
  O  O1860  1  0.813600  0.864400  0.918900  1.0
  O  O1861  1  0.813600  0.635600  0.581100  1.0
  O  O1862  1  0.813600  0.918900  0.635600  1.0
  O  O1863  1  0.813600  0.581100  0.864400  1.0
  O  O1864  1  0.186400  0.135600  0.081100  1.0
  O  O1865  1  0.089800  0.386100  0.411000  1.0
  O  O1866  1  0.089800  0.089000  0.386100  1.0
  O  O1867  1  0.089800  0.411000  0.113900  1.0
  O  O1868  1  0.910200  0.886100  0.911000  1.0
  O  O1869  1  0.910200  0.613900  0.589000  1.0
  O  O1870  1  0.910200  0.911000  0.613900  1.0
  O  O1871  1  0.910200  0.589000  0.886100  1.0
  O  O1872  1  0.089800  0.113900  0.089000  1.0
  O  O1873  1  0.185300  0.465700  0.315700  1.0
  O  O1874  1  0.185300  0.184300  0.465700  1.0
  O  O1875  1  0.185300  0.315700  0.034300  1.0
  O  O1876  1  0.814700  0.965700  0.815700  1.0
  O  O1877  1  0.814700  0.534300  0.684300  1.0
  O  O1878  1  0.814700  0.815700  0.534300  1.0
  O  O1879  1  0.814700  0.684300  0.965700  1.0
  O  O1880  1  0.185300  0.034300  0.184300  1.0
  O  O1881  1  0.183300  0.507800  0.394300  1.0
  O  O1882  1  0.183300  0.105700  0.507800  1.0
  O  O1883  1  0.183300  0.394300  0.992200  1.0
  O  O1884  1  0.816700  0.007800  0.894300  1.0
  O  O1885  1  0.816700  0.492200  0.605700  1.0
  O  O1886  1  0.816700  0.894300  0.492200  1.0
  O  O1887  1  0.816700  0.605700  0.007800  1.0
  O  O1888  1  0.183300  0.992200  0.105700  1.0
  O  O1889  1  0.165400  0.374000  0.333000  1.0
  O  O1890  1  0.165400  0.167000  0.374000  1.0
  O  O1891  1  0.165400  0.333000  0.126000  1.0
  O  O1892  1  0.834600  0.874000  0.833000  1.0
  O  O1893  1  0.834600  0.626000  0.667000  1.0
  O  O1894  1  0.834600  0.833000  0.626000  1.0
  O  O1895  1  0.834600  0.667000  0.874000  1.0
  O  O1896  1  0.165400  0.126000  0.167000  1.0
  O  O1897  1  0.515300  0.281000  0.541600  1.0
  O  O1898  1  0.515300  0.958400  0.281000  1.0
  O  O1899  1  0.515300  0.541600  0.219000  1.0
  O  O1900  1  0.484700  0.781000  0.041600  1.0
  O  O1901  1  0.484700  0.719000  0.458400  1.0
  O  O1902  1  0.484700  0.041600  0.719000  1.0
  O  O1903  1  0.484700  0.458400  0.781000  1.0
  O  O1904  1  0.515300  0.219000  0.958400  1.0
  O  O1905  1  0.417800  0.341700  0.432700  1.0
  O  O1906  1  0.417800  0.067300  0.341700  1.0
  O  O1907  1  0.417800  0.432700  0.158300  1.0
  O  O1908  1  0.582200  0.841700  0.932700  1.0
  O  O1909  1  0.582200  0.658300  0.567300  1.0
  O  O1910  1  0.582200  0.932700  0.658300  1.0
  O  O1911  1  0.582200  0.567300  0.841700  1.0
  O  O1912  1  0.417800  0.158300  0.067300  1.0
  O  O1913  1  0.513100  0.327000  0.456000  1.0
  O  O1914  1  0.513100  0.044000  0.327000  1.0
  O  O1915  1  0.513100  0.456000  0.173000  1.0
  O  O1916  1  0.486900  0.827000  0.956000  1.0
  O  O1917  1  0.486900  0.673000  0.544000  1.0
  O  O1918  1  0.486900  0.956000  0.673000  1.0
  O  O1919  1  0.486900  0.544000  0.827000  1.0
  O  O1920  1  0.513100  0.173000  0.044000  1.0
  O  O1921  1  0.362900  0.284700  0.481500  1.0
  O  O1922  1  0.362900  0.018500  0.284700  1.0
  O  O1923  1  0.362900  0.481500  0.215300  1.0
  O  O1924  1  0.637100  0.784700  0.981500  1.0
  O  O1925  1  0.637100  0.715300  0.518500  1.0
  O  O1926  1  0.637100  0.981500  0.715300  1.0
  O  O1927  1  0.637100  0.518500  0.784700  1.0
  O  O1928  1  0.362900  0.215300  0.018500  1.0
  O  O1929  1  0.431800  0.338100  0.522200  1.0
  O  O1930  1  0.431800  0.977800  0.338100  1.0
  O  O1931  1  0.431800  0.522200  0.161900  1.0
  O  O1932  1  0.568200  0.838100  0.022200  1.0
  O  O1933  1  0.568200  0.661900  0.477800  1.0
  O  O1934  1  0.568200  0.022200  0.661900  1.0
  O  O1935  1  0.568200  0.477800  0.838100  1.0
  O  O1936  1  0.431800  0.161900  0.977800  1.0
  O  O1937  1  0.418600  0.204500  0.470000  1.0
  O  O1938  1  0.418600  0.030000  0.204500  1.0
  O  O1939  1  0.418600  0.470000  0.295500  1.0
  O  O1940  1  0.581400  0.704500  0.970000  1.0
  O  O1941  1  0.581400  0.795500  0.530000  1.0
  O  O1942  1  0.581400  0.970000  0.795500  1.0
  O  O1943  1  0.581400  0.530000  0.704500  1.0
  O  O1944  1  0.418600  0.295500  0.030000  1.0
  O  O1945  1  0.420600  0.249100  0.547400  1.0
  O  O1946  1  0.420600  0.952600  0.249100  1.0
  O  O1947  1  0.420600  0.547400  0.250900  1.0
  O  O1948  1  0.579400  0.749100  0.047400  1.0
  O  O1949  1  0.579400  0.750900  0.452600  1.0
  O  O1950  1  0.579400  0.047400  0.750900  1.0
  O  O1951  1  0.579400  0.452600  0.749100  1.0
  O  O1952  1  0.420600  0.250900  0.952600  1.0
  O  O1953  1  0.521200  0.223000  0.470700  1.0
  O  O1954  1  0.521200  0.029300  0.223000  1.0
  O  O1955  1  0.521200  0.470700  0.277000  1.0
  O  O1956  1  0.478800  0.723000  0.970700  1.0
  O  O1957  1  0.478800  0.777000  0.529300  1.0
  O  O1958  1  0.478800  0.970700  0.777000  1.0
  O  O1959  1  0.478800  0.529300  0.723000  1.0
  O  O1960  1  0.521200  0.277000  0.029300  1.0
  O  O1961  1  0.450900  0.260900  0.400700  1.0
  O  O1962  1  0.450900  0.099300  0.260900  1.0
  O  O1963  1  0.450900  0.400700  0.239100  1.0
  O  O1964  1  0.549100  0.760900  0.900700  1.0
  O  O1965  1  0.549100  0.739100  0.599300  1.0
  O  O1966  1  0.549100  0.900700  0.739100  1.0
  O  O1967  1  0.549100  0.599300  0.760900  1.0
  O  O1968  1  0.450900  0.239100  0.099300  1.0
