
#######################################################################
#
#                 Cambridge Crystallographic Data Centre
#                                CCDC 
#
#######################################################################
#
# If this CIF has been generated from an entry in the Cambridge 
# Structural Database, then it will include bibliographic, chemical, 
# crystal, experimental, refinement or atomic coordinate data resulting 
# from the CCDC's data processing and validation procedures.
#
#######################################################################

data_WOFCOL
_chemical_formula_moiety         'C204 H144 O18 S6 Sn6'
_chemical_name_systematic        
hexakis(\m~2~-5a,10a,10b,10c-tetrahydropyrene-1-sulfonate)-octadecakis(phenyl)-hexa-tin
_symmetry_cell_setting           rhombohedral
_symmetry_space_group_name_H-M   'R -3'
_symmetry_Int_Tables_number      148
_space_group_name_Hall           '-R 3'
loop_
_symmetry_equiv_pos_site_id
_symmetry_equiv_pos_as_xyz
1 x,y,z
2 -y,x-y,z
3 -x+y,-x,z
4 2/3+x,1/3+y,1/3+z
5 2/3-y,1/3+x-y,1/3+z
6 2/3-x+y,1/3-x,1/3+z
7 1/3+x,2/3+y,2/3+z
8 1/3-y,2/3+x-y,2/3+z
9 1/3-x+y,2/3-x,2/3+z
10 -x,-y,-z
11 y,-x+y,-z
12 x-y,x,-z
13 1/3-x,2/3-y,2/3-z
14 1/3+y,2/3-x+y,2/3-z
15 1/3+x-y,2/3+x,2/3-z
16 2/3-x,1/3-y,1/3-z
17 2/3+y,1/3-x+y,1/3-z
18 2/3+x-y,1/3+x,1/3-z
_cell_length_a                   34.5428
_cell_length_b                   34.5428
_cell_length_c                   11.3701(6)
_cell_angle_alpha                90
_cell_angle_beta                 90
_cell_angle_gamma                120
_cell_volume                     11749.2
_exptl_crystal_colour            colorless
_exptl_crystal_description       block
_cell_formula_units_Z            3
loop_
_atom_site_label
_atom_site_type_symbol
_atom_site_fract_x
_atom_site_fract_y
_atom_site_fract_z
Sn1 Sn 0.181480(10) 0.013485(10) 0.54570(3)
S1 S 0.23697(4) 0.13775(4) 0.51387(9)
O1 O 0.20713(10) 0.09028(9) 0.5374(3)
O2 O 0.25373(10) 0.16397(10) 0.6189(3)
O3 O 0.21416(10) 0.15429(10) 0.4344(3)
C1 C 0.16435(14) 0.01659(14) 0.7243(4)
C2 C 0.19046(15) 0.05384(15) 0.7937(4)
H1 H 0.2154 0.0784 0.7615
C3 C 0.17948(16) 0.05465(16) 0.9107(4)
H2 H 0.1976 0.0793 0.9572
C4 C 0.14151(16) 0.01870(16) 0.9586(4)
H3 H 0.1340 0.0194 1.0368
C5 C 0.11510(16) -0.01803(15) 0.8895(4)
H4 H 0.0894 -0.0419 0.9210
C6 C 0.12657(15) -0.01968(15) 0.7734(4)
H5 H 0.1091 -0.0450 0.7283
C7 C 0.13280(14) 0.00654(14) 0.4204(4)
C8 C 0.12221(14) -0.01978(14) 0.3188(4)
H6 H 0.1376 -0.0348 0.3016
C9 C 0.08883(15) -0.02353(15) 0.2437(4)
H7 H 0.0819 -0.0411 0.1765
C10 C 0.06586(15) -0.00121(15) 0.2683(4)
H8 H 0.0435 -0.0039 0.2176
C11 C 0.07598(15) 0.02499(16) 0.3678(4)
H9 H 0.0607 0.0401 0.3842
C12 C 0.10932(15) 0.02859(14) 0.4432(4)
H10 H 0.1160 0.0461 0.5104
C13 C 0.24815(14) 0.02854(14) 0.5177(4)
C14 C 0.28074(15) 0.05925(15) 0.5934(4)
H11 H 0.2724 0.0714 0.6545
C15 C 0.32529(15) 0.07192(16) 0.5792(4)
H12 H 0.3467 0.0927 0.6299
C16 C 0.33768(15) 0.05354(16) 0.4890(4)
H13 H 0.3676 0.0619 0.4789
C17 C 0.30567(16) 0.02276(15) 0.4140(4)
H14 H 0.3141 0.0102 0.3538
C18 C 0.26120(15) 0.01042(15) 0.4275(4)
H15 H 0.2399 -0.0101 0.3760
C19 C 0.28313(14) 0.14307(14) 0.4329(4)
C20 C 0.32551(15) 0.17151(15) 0.4776(4)
H16 H 0.3288 0.1882 0.5449
C21 C 0.36278(15) 0.17522(15) 0.4227(4)
H17 H 0.3910 0.1946 0.4533
C22 C 0.35898(15) 0.15038(15) 0.3218(4)
C23 C 0.39793(16) 0.15343(16) 0.2638(4)
H18 H 0.4263 0.1723 0.2944
C24 C 0.39364(16) 0.12948(16) 0.1671(4)
H19 H 0.4191 0.1321 0.1317
C25 C 0.35068(15) 0.09984(15) 0.1169(4)
C26 C 0.34556(16) 0.07443(16) 0.0163(4)
H20 H 0.3707 0.0769 -0.0207
C27 C 0.30358(17) 0.04569(16) -0.0287(4)
H21 H 0.3010 0.0295 -0.0966
C28 C 0.26566(16) 0.04057(15) 0.0250(4)
H22 H 0.2377 0.0206 -0.0058
C29 C 0.26892(15) 0.06531(15) 0.1259(4)
C30 C 0.23067(15) 0.06169(15) 0.1842(4)
H23 H 0.2024 0.0416 0.1556
C31 C 0.23429(15) 0.08664(14) 0.2802(4)
H24 H 0.2085 0.0838 0.3140
C32 C 0.27691(14) 0.11731(14) 0.3310(4)
C33 C 0.31598(15) 0.12129(14) 0.2748(4)
C34 C 0.31184(15) 0.09564(15) 0.1724(4)
Sn1J Sn 0.013485(10) -0.167995(14) 0.45430(3)
S1J S 0.13775(4) -0.09922(6) 0.48613(9)
O1J O 0.09028(9) -0.11685(13) 0.4626(3)
O2J O 0.16397(10) -0.08976(14) 0.3811(3)
O3J O 0.15429(10) -0.05987(14) 0.5656(3)
C1J C 0.01659(14) -0.14776(20) 0.2757(4)
C2J C 0.05384(15) -0.13662(21) 0.2063(4)
H1J H 0.0784 -0.1370 0.2385
C3J C 0.05465(16) -0.12483(23) 0.0893(4)
H2J H 0.0793 -0.1183 0.0428
C4J C 0.01870(16) -0.12281(23) 0.0414(4)
H3J H 0.0194 -0.1146 -0.0368
C5J C -0.01803(15) -0.13313(22) 0.1105(4)
H4J H -0.0419 -0.1313 0.0790
C6J C -0.01968(15) -0.14625(21) 0.2266(4)
H5J H -0.0450 -0.1541 0.2717
C7J C 0.00654(14) -0.12626(20) 0.5796(4)
C8J C -0.01978(14) -0.14199(20) 0.6812(4)
H6J H -0.0348 -0.1724 0.6984
C9J C -0.02353(15) -0.11236(21) 0.7563(4)
H7J H -0.0411 -0.1230 0.8235
C10J C -0.00121(15) -0.06707(21) 0.7317(4)
H8J H -0.0039 -0.0474 0.7824
C11J C 0.02499(16) -0.05099(22) 0.6322(4)
H9J H 0.0401 -0.0206 0.6158
C12J C 0.02859(14) -0.08073(21) 0.5568(4)
H10J H 0.0461 -0.0699 0.4896
C13J C 0.02854(14) -0.21961(20) 0.4823(4)
C14J C 0.05925(15) -0.22149(21) 0.4066(4)
H11J H 0.0714 -0.2010 0.3455
C15J C 0.07192(16) -0.25337(22) 0.4208(4)
H12J H 0.0927 -0.2540 0.3701
C16J C 0.05354(16) -0.28414(22) 0.5110(4)
H13J H 0.0619 -0.3057 0.5211
C17J C 0.02276(15) -0.28291(22) 0.5860(4)
H14J H 0.0102 -0.3039 0.6462
C18J C 0.01042(15) -0.25078(21) 0.5725(4)
H15J H -0.0101 -0.2500 0.6240
C19J C 0.14307(14) -0.14006(20) 0.5671(4)
C20J C 0.17151(15) -0.15400(21) 0.5224(4)
H16J H 0.1882 -0.1406 0.4551
C21J C 0.17522(15) -0.18756(21) 0.5773(4)
H17J H 0.1946 -0.1964 0.5467
C22J C 0.15038(15) -0.20860(21) 0.6782(4)
C23J C 0.15343(16) -0.24450(23) 0.7362(4)
H18J H 0.1723 -0.2540 0.7056
C24J C 0.12948(16) -0.26416(23) 0.8329(4)
H19J H 0.1321 -0.2870 0.8683
C25J C 0.09984(15) -0.25084(21) 0.8831(4)
C26J C 0.07443(16) -0.27113(23) 0.9837(4)
H20J H 0.0769 -0.2938 1.0207
C27J C 0.04569(16) -0.25789(23) 1.0287(4)
H21J H 0.0295 -0.2715 1.0966
C28J C 0.04057(15) -0.22509(22) 0.9750(4)
H22J H 0.0206 -0.2171 1.0058
C29J C 0.06531(15) -0.20361(21) 0.8741(4)
C30J C 0.06169(15) -0.16898(21) 0.8158(4)
H23J H 0.0416 -0.1608 0.8444
C31J C 0.08664(14) -0.14765(21) 0.7198(4)
H24J H 0.0838 -0.1247 0.6860
C32J C 0.11731(14) -0.15960(20) 0.6690(4)
C33J C 0.12129(14) -0.19469(21) 0.7252(4)
C34J C 0.09564(15) -0.21620(21) 0.8276(4)
Sn1K Sn 0.167995(14) 0.181480(10) 0.45430(3)
S1K S 0.09922(6) 0.23697(4) 0.48613(9)
O1K O 0.11685(13) 0.20713(10) 0.4626(3)
O2K O 0.08976(14) 0.25373(10) 0.3811(3)
O3K O 0.05987(14) 0.21416(10) 0.5656(3)
C1K C 0.14776(20) 0.16435(14) 0.2757(4)
C2K C 0.13662(21) 0.19046(15) 0.2063(4)
H1K H 0.1370 0.2154 0.2385
C3K C 0.12483(23) 0.17948(16) 0.0893(4)
H2K H 0.1183 0.1976 0.0428
C4K C 0.12281(23) 0.14151(16) 0.0414(4)
H3K H 0.1146 0.1340 -0.0368
C5K C 0.13313(22) 0.11510(16) 0.1105(4)
H4K H 0.1313 0.0894 0.0790
C6K C 0.14625(21) 0.12657(15) 0.2266(4)
H5K H 0.1541 0.1091 0.2717
C7K C 0.12626(20) 0.13280(14) 0.5796(4)
C8K C 0.14199(20) 0.12221(14) 0.6812(4)
H6K H 0.1724 0.1376 0.6984
C9K C 0.11236(21) 0.08883(15) 0.7563(4)
H7K H 0.1230 0.0819 0.8235
C10K C 0.06707(21) 0.06586(15) 0.7317(4)
H8K H 0.0474 0.0435 0.7824
C11K C 0.05099(22) 0.07598(15) 0.6322(4)
H9K H 0.0206 0.0607 0.6158
C12K C 0.08073(21) 0.10932(15) 0.5568(4)
H10K H 0.0699 0.1160 0.4896
C13K C 0.21961(20) 0.24815(14) 0.4823(4)
C14K C 0.22149(21) 0.28074(15) 0.4066(4)
H11K H 0.2010 0.2724 0.3455
C15K C 0.25337(22) 0.32529(15) 0.4208(4)
H12K H 0.2540 0.3467 0.3701
C16K C 0.28414(22) 0.33768(15) 0.5110(4)
H13K H 0.3057 0.3676 0.5211
C17K C 0.28291(22) 0.30567(16) 0.5860(4)
H14K H 0.3039 0.3141 0.6462
C18K C 0.25078(21) 0.26120(15) 0.5725(4)
H15K H 0.2500 0.2399 0.6240
C19K C 0.14006(20) 0.28313(14) 0.5671(4)
C20K C 0.15400(21) 0.32551(15) 0.5224(4)
H16K H 0.1406 0.3288 0.4551
C21K C 0.18756(21) 0.36278(15) 0.5773(4)
H17K H 0.1964 0.3910 0.5467
C22K C 0.20860(21) 0.35898(15) 0.6782(4)
C23K C 0.24450(23) 0.39793(16) 0.7362(4)
H18K H 0.2540 0.4263 0.7056
C24K C 0.26416(23) 0.39364(16) 0.8329(4)
H19K H 0.2870 0.4191 0.8683
C25K C 0.25084(21) 0.35068(15) 0.8831(4)
C26K C 0.27113(23) 0.34556(16) 0.9837(4)
H20K H 0.2938 0.3707 1.0207
C27K C 0.25789(23) 0.30358(17) 1.0287(4)
H21K H 0.2715 0.3010 1.0966
C28K C 0.22509(22) 0.26566(16) 0.9750(4)
H22K H 0.2171 0.2377 1.0058
C29K C 0.20361(21) 0.26892(15) 0.8741(4)
C30K C 0.16898(21) 0.23067(15) 0.8158(4)
H23K H 0.1608 0.2024 0.8444
C31K C 0.14765(21) 0.23429(15) 0.7198(4)
H24K H 0.1247 0.2085 0.6860
C32K C 0.15960(20) 0.27691(14) 0.6690(4)
C33K C 0.19469(21) 0.31598(15) 0.7252(4)
C34K C 0.21620(21) 0.31184(15) 0.8276(4)
Sn1A Sn -0.013485(10) 0.167995(14) 0.54570(3)
S1A S -0.13775(4) 0.09922(6) 0.51387(9)
O1A O -0.09028(9) 0.11685(13) 0.5374(3)
O2A O -0.16397(10) 0.08976(14) 0.6189(3)
O3A O -0.15429(10) 0.05987(14) 0.4344(3)
C1A C -0.01659(14) 0.14776(20) 0.7243(4)
C2A C -0.05384(15) 0.13662(21) 0.7937(4)
H1A H -0.0784 0.1370 0.7615
C3A C -0.05465(16) 0.12483(23) 0.9107(4)
H2A H -0.0793 0.1183 0.9572
C4A C -0.01870(16) 0.12281(23) 0.9586(4)
H3A H -0.0194 0.1146 1.0368
C5A C 0.01803(15) 0.13313(22) 0.8895(4)
H4A H 0.0419 0.1313 0.9210
C6A C 0.01968(15) 0.14625(21) 0.7734(4)
H5A H 0.0450 0.1541 0.7283
C7A C -0.00654(14) 0.12626(20) 0.4204(4)
C8A C 0.01978(14) 0.14199(20) 0.3188(4)
H6A H 0.0348 0.1724 0.3016
C9A C 0.02353(15) 0.11236(21) 0.2437(4)
H7A H 0.0411 0.1230 0.1765
C10A C 0.00121(15) 0.06707(21) 0.2683(4)
H8A H 0.0039 0.0474 0.2176
C11A C -0.02499(16) 0.05099(22) 0.3678(4)
H9A H -0.0401 0.0206 0.3842
C12A C -0.02859(14) 0.08073(21) 0.4432(4)
H10A H -0.0461 0.0699 0.5104
C13A C -0.02854(14) 0.21961(20) 0.5177(4)
C14A C -0.05925(15) 0.22149(21) 0.5934(4)
H11A H -0.0714 0.2010 0.6545
C15A C -0.07192(16) 0.25337(22) 0.5792(4)
H12A H -0.0927 0.2540 0.6299
C16A C -0.05354(16) 0.28414(22) 0.4890(4)
H13A H -0.0619 0.3057 0.4789
C17A C -0.02276(15) 0.28291(22) 0.4140(4)
H14A H -0.0102 0.3039 0.3538
C18A C -0.01042(15) 0.25078(21) 0.4275(4)
H15A H 0.0101 0.2500 0.3760
C19A C -0.14307(14) 0.14006(20) 0.4329(4)
C20A C -0.17151(15) 0.15400(21) 0.4776(4)
H16A H -0.1882 0.1406 0.5449
C21A C -0.17522(15) 0.18756(21) 0.4227(4)
H17A H -0.1946 0.1964 0.4533
C22A C -0.15038(15) 0.20860(21) 0.3218(4)
C23A C -0.15343(16) 0.24450(23) 0.2638(4)
H18A H -0.1723 0.2540 0.2944
C24A C -0.12948(16) 0.26416(23) 0.1671(4)
H19A H -0.1321 0.2870 0.1317
C25A C -0.09984(15) 0.25084(21) 0.1169(4)
C26A C -0.07443(16) 0.27113(23) 0.0163(4)
H20A H -0.0769 0.2938 -0.0207
C27A C -0.04569(16) 0.25789(23) -0.0287(4)
H21A H -0.0295 0.2715 -0.0966
C28A C -0.04057(15) 0.22509(22) 0.0250(4)
H22A H -0.0206 0.2171 -0.0058
C29A C -0.06531(15) 0.20361(21) 0.1259(4)
C30A C -0.06169(15) 0.16898(21) 0.1842(4)
H23A H -0.0416 0.1608 0.1556
C31A C -0.08664(14) 0.14765(21) 0.2802(4)
H24A H -0.0838 0.1247 0.3140
C32A C -0.11731(14) 0.15960(20) 0.3310(4)
C33A C -0.12129(14) 0.19469(21) 0.2748(4)
C34A C -0.09564(15) 0.21620(21) 0.1724(4)
Sn1B Sn -0.167995(14) -0.181480(10) 0.54570(3)
S1B S -0.09922(6) -0.23697(4) 0.51387(9)
O1B O -0.11685(13) -0.20713(10) 0.5374(3)
O2B O -0.08976(14) -0.25373(10) 0.6189(3)
O3B O -0.05987(14) -0.21416(10) 0.4344(3)
C1B C -0.14776(20) -0.16435(14) 0.7243(4)
C2B C -0.13662(21) -0.19046(15) 0.7937(4)
H1B H -0.1370 -0.2154 0.7615
C3B C -0.12483(23) -0.17948(16) 0.9107(4)
H2B H -0.1183 -0.1976 0.9572
C4B C -0.12281(23) -0.14151(16) 0.9586(4)
H3B H -0.1146 -0.1340 1.0368
C5B C -0.13313(22) -0.11510(16) 0.8895(4)
H4B H -0.1313 -0.0894 0.9210
C6B C -0.14625(21) -0.12657(15) 0.7734(4)
H5B H -0.1541 -0.1091 0.7283
C7B C -0.12626(20) -0.13280(14) 0.4204(4)
C8B C -0.14199(20) -0.12221(14) 0.3188(4)
H6B H -0.1724 -0.1376 0.3016
C9B C -0.11236(21) -0.08883(15) 0.2437(4)
H7B H -0.1230 -0.0819 0.1765
C10B C -0.06707(21) -0.06586(15) 0.2683(4)
H8B H -0.0474 -0.0435 0.2176
C11B C -0.05099(22) -0.07598(15) 0.3678(4)
H9B H -0.0206 -0.0607 0.3842
C12B C -0.08073(21) -0.10932(15) 0.4432(4)
H10B H -0.0699 -0.1160 0.5104
C13B C -0.21961(20) -0.24815(14) 0.5177(4)
C14B C -0.22149(21) -0.28074(15) 0.5934(4)
H11B H -0.2010 -0.2724 0.6545
C15B C -0.25337(22) -0.32529(15) 0.5792(4)
H12B H -0.2540 -0.3467 0.6299
C16B C -0.28414(22) -0.33768(15) 0.4890(4)
H13B H -0.3057 -0.3676 0.4789
C17B C -0.28291(22) -0.30567(16) 0.4140(4)
H14B H -0.3039 -0.3141 0.3538
C18B C -0.25078(21) -0.26120(15) 0.4275(4)
H15B H -0.2500 -0.2399 0.3760
C19B C -0.14006(20) -0.28313(14) 0.4329(4)
C20B C -0.15400(21) -0.32551(15) 0.4776(4)
H16B H -0.1406 -0.3288 0.5449
C21B C -0.18756(21) -0.36278(15) 0.4227(4)
H17B H -0.1964 -0.3910 0.4533
C22B C -0.20860(21) -0.35898(15) 0.3218(4)
C23B C -0.24450(23) -0.39793(16) 0.2638(4)
H18B H -0.2540 -0.4263 0.2944
C24B C -0.26416(23) -0.39364(16) 0.1671(4)
H19B H -0.2870 -0.4191 0.1317
C25B C -0.25084(21) -0.35068(15) 0.1169(4)
C26B C -0.27113(23) -0.34556(16) 0.0163(4)
H20B H -0.2938 -0.3707 -0.0207
C27B C -0.25789(23) -0.30358(17) -0.0287(4)
H21B H -0.2715 -0.3010 -0.0966
C28B C -0.22509(22) -0.26566(16) 0.0250(4)
H22B H -0.2171 -0.2377 -0.0058
C29B C -0.20361(21) -0.26892(15) 0.1259(4)
C30B C -0.16898(21) -0.23067(15) 0.1842(4)
H23B H -0.1608 -0.2024 0.1556
C31B C -0.14765(21) -0.23429(15) 0.2802(4)
H24B H -0.1247 -0.2085 0.3140
C32B C -0.15960(20) -0.27691(14) 0.3310(4)
C33B C -0.19469(21) -0.31598(15) 0.2748(4)
C34B C -0.21620(21) -0.31184(15) 0.1724(4)
Sn1I Sn -0.181480(10) -0.013485(10) 0.45430(3)
S1I S -0.23697(4) -0.13775(4) 0.48613(9)
O1I O -0.20713(10) -0.09028(9) 0.4626(3)
O2I O -0.25373(10) -0.16397(10) 0.3811(3)
O3I O -0.21416(10) -0.15429(10) 0.5656(3)
C1I C -0.16435(14) -0.01659(14) 0.2757(4)
C2I C -0.19046(15) -0.05384(15) 0.2063(4)
H1I H -0.2154 -0.0784 0.2385
C3I C -0.17948(16) -0.05465(16) 0.0893(4)
H2I H -0.1976 -0.0793 0.0428
C4I C -0.14151(16) -0.01870(16) 0.0414(4)
H3I H -0.1340 -0.0194 -0.0368
C5I C -0.11510(16) 0.01803(15) 0.1105(4)
H4I H -0.0894 0.0419 0.0790
C6I C -0.12657(15) 0.01968(15) 0.2266(4)
H5I H -0.1091 0.0450 0.2717
C7I C -0.13280(14) -0.00654(14) 0.5796(4)
C8I C -0.12221(14) 0.01978(14) 0.6812(4)
H6I H -0.1376 0.0348 0.6984
C9I C -0.08883(15) 0.02353(15) 0.7563(4)
H7I H -0.0819 0.0411 0.8235
C10I C -0.06586(15) 0.00121(15) 0.7317(4)
H8I H -0.0435 0.0039 0.7824
C11I C -0.07598(15) -0.02499(16) 0.6322(4)
H9I H -0.0607 -0.0401 0.6158
C12I C -0.10932(15) -0.02859(14) 0.5568(4)
H10I H -0.1160 -0.0461 0.4896
C13I C -0.24815(14) -0.02854(14) 0.4823(4)
C14I C -0.28074(15) -0.05925(15) 0.4066(4)
H11I H -0.2724 -0.0714 0.3455
C15I C -0.32529(15) -0.07192(16) 0.4208(4)
H12I H -0.3467 -0.0927 0.3701
C16I C -0.33768(15) -0.05354(16) 0.5110(4)
H13I H -0.3676 -0.0619 0.5211
C17I C -0.30567(16) -0.02276(15) 0.5860(4)
H14I H -0.3141 -0.0102 0.6462
C18I C -0.26120(15) -0.01042(15) 0.5725(4)
H15I H -0.2399 0.0101 0.6240
C19I C -0.28313(14) -0.14307(14) 0.5671(4)
C20I C -0.32551(15) -0.17151(15) 0.5224(4)
H16I H -0.3288 -0.1882 0.4551
C21I C -0.36278(15) -0.17522(15) 0.5773(4)
H17I H -0.3910 -0.1946 0.5467
C22I C -0.35898(15) -0.15038(15) 0.6782(4)
C23I C -0.39793(16) -0.15343(16) 0.7362(4)
H18I H -0.4263 -0.1723 0.7056
C24I C -0.39364(16) -0.12948(16) 0.8329(4)
H19I H -0.4191 -0.1321 0.8683
C25I C -0.35068(15) -0.09984(15) 0.8831(4)
C26I C -0.34556(16) -0.07443(16) 0.9837(4)
H20I H -0.3707 -0.0769 1.0207
C27I C -0.30358(17) -0.04569(16) 1.0287(4)
H21I H -0.3010 -0.0295 1.0966
C28I C -0.26566(16) -0.04057(15) 0.9750(4)
H22I H -0.2377 -0.0206 1.0058
C29I C -0.26892(15) -0.06531(15) 0.8741(4)
C30I C -0.23067(15) -0.06169(15) 0.8158(4)
H23I H -0.2024 -0.0416 0.8444
C31I C -0.23429(15) -0.08664(14) 0.7198(4)
H24I H -0.2085 -0.0838 0.6860
C32I C -0.27691(14) -0.11731(14) 0.6690(4)
C33I C -0.31598(15) -0.12129(14) 0.7252(4)
C34I C -0.31184(15) -0.09564(15) 0.8276(4)
loop_
_geom_bond_atom_site_label_1
_geom_bond_atom_site_label_2
_geom_bond_site_symmetry_1
_geom_bond_site_symmetry_2
Sn1 O1 1_555 1_555
S1 O1 1_555 1_555
O2 S1 1_555 1_555
O3 S1 1_555 1_555
C1 Sn1 1_555 1_555
C2 C1 1_555 1_555
H1 C2 1_555 1_555
C3 C2 1_555 1_555
H2 C3 1_555 1_555
C4 C3 1_555 1_555
H3 C4 1_555 1_555
C5 C4 1_555 1_555
H4 C5 1_555 1_555
C6 C1 1_555 1_555
H5 C6 1_555 1_555
C7 Sn1 1_555 1_555
C8 C7 1_555 1_555
H6 C8 1_555 1_555
C9 C8 1_555 1_555
H7 C9 1_555 1_555
C10 C9 1_555 1_555
H8 C10 1_555 1_555
C11 C10 1_555 1_555
H9 C11 1_555 1_555
C12 C7 1_555 1_555
H10 C12 1_555 1_555
C13 Sn1 1_555 1_555
C14 C13 1_555 1_555
H11 C14 1_555 1_555
C15 C14 1_555 1_555
H12 C15 1_555 1_555
C16 C15 1_555 1_555
H13 C16 1_555 1_555
C17 C16 1_555 1_555
H14 C17 1_555 1_555
C18 C13 1_555 1_555
H15 C18 1_555 1_555
C19 S1 1_555 1_555
C20 C19 1_555 1_555
H16 C20 1_555 1_555
C21 C20 1_555 1_555
H17 C21 1_555 1_555
C22 C21 1_555 1_555
C23 C22 1_555 1_555
H18 C23 1_555 1_555
C24 C23 1_555 1_555
H19 C24 1_555 1_555
C25 C24 1_555 1_555
C26 C25 1_555 1_555
H20 C26 1_555 1_555
C27 C26 1_555 1_555
H21 C27 1_555 1_555
C28 C27 1_555 1_555
H22 C28 1_555 1_555
C29 C28 1_555 1_555
C30 C29 1_555 1_555
H23 C30 1_555 1_555
C31 C30 1_555 1_555
H24 C31 1_555 1_555
C32 C19 1_555 1_555
C33 C22 1_555 1_555
C34 C25 1_555 1_555
Sn1J O1J 1_555 1_555
S1J O1J 1_555 1_555
O2J S1J 1_555 1_555
O3J Sn1 1_555 1_555
C1J Sn1J 1_555 1_555
C2J C1J 1_555 1_555
H1J C2J 1_555 1_555
C3J C2J 1_555 1_555
H2J C3J 1_555 1_555
C4J C3J 1_555 1_555
H3J C4J 1_555 1_555
C5J C4J 1_555 1_555
H4J C5J 1_555 1_555
C6J C1J 1_555 1_555
H5J C6J 1_555 1_555
C7J Sn1J 1_555 1_555
C8J C7J 1_555 1_555
H6J C8J 1_555 1_555
C9J C8J 1_555 1_555
H7J C9J 1_555 1_555
C10J C9J 1_555 1_555
H8J C10J 1_555 1_555
C11J C10J 1_555 1_555
H9J C11J 1_555 1_555
C12J C7J 1_555 1_555
H10J C12J 1_555 1_555
C13J Sn1J 1_555 1_555
C14J C13J 1_555 1_555
H11J C14J 1_555 1_555
C15J C14J 1_555 1_555
H12J C15J 1_555 1_555
C16J C15J 1_555 1_555
H13J C16J 1_555 1_555
C17J C16J 1_555 1_555
H14J C17J 1_555 1_555
C18J C13J 1_555 1_555
H15J C18J 1_555 1_555
C19J S1J 1_555 1_555
C20J C19J 1_555 1_555
H16J C20J 1_555 1_555
C21J C20J 1_555 1_555
H17J C21J 1_555 1_555
C22J C21J 1_555 1_555
C23J C22J 1_555 1_555
H18J C23J 1_555 1_555
C24J C23J 1_555 1_555
H19J C24J 1_555 1_555
C25J C24J 1_555 1_555
C26J C25J 1_555 1_555
H20J C26J 1_555 1_555
C27J C26J 1_555 1_555
H21J C27J 1_555 1_555
C28J C27J 1_555 1_555
H22J C28J 1_555 1_555
C29J C28J 1_555 1_555
C30J C29J 1_555 1_555
H23J C30J 1_555 1_555
C31J C30J 1_555 1_555
H24J C31J 1_555 1_555
C32J C19J 1_555 1_555
C33J C22J 1_555 1_555
C34J C25J 1_555 1_555
Sn1K O3 1_555 1_555
S1K O1K 1_555 1_555
O1K Sn1K 1_555 1_555
O2K S1K 1_555 1_555
O3K S1K 1_555 1_555
C1K Sn1K 1_555 1_555
C2K C1K 1_555 1_555
H1K C2K 1_555 1_555
C3K C2K 1_555 1_555
H2K C3K 1_555 1_555
C4K C3K 1_555 1_555
H3K C4K 1_555 1_555
C5K C4K 1_555 1_555
H4K C5K 1_555 1_555
C6K C1K 1_555 1_555
H5K C6K 1_555 1_555
C7K Sn1K 1_555 1_555
C8K C7K 1_555 1_555
H6K C8K 1_555 1_555
C9K C8K 1_555 1_555
H7K C9K 1_555 1_555
C10K C9K 1_555 1_555
H8K C10K 1_555 1_555
C11K C10K 1_555 1_555
H9K C11K 1_555 1_555
C12K C7K 1_555 1_555
H10K C12K 1_555 1_555
C13K Sn1K 1_555 1_555
C14K C13K 1_555 1_555
H11K C14K 1_555 1_555
C15K C14K 1_555 1_555
H12K C15K 1_555 1_555
C16K C15K 1_555 1_555
H13K C16K 1_555 1_555
C17K C16K 1_555 1_555
H14K C17K 1_555 1_555
C18K C13K 1_555 1_555
H15K C18K 1_555 1_555
C19K S1K 1_555 1_555
C20K C19K 1_555 1_555
H16K C20K 1_555 1_555
C21K C20K 1_555 1_555
H17K C21K 1_555 1_555
C22K C21K 1_555 1_555
C23K C22K 1_555 1_555
H18K C23K 1_555 1_555
C24K C23K 1_555 1_555
H19K C24K 1_555 1_555
C25K C24K 1_555 1_555
C26K C25K 1_555 1_555
H20K C26K 1_555 1_555
C27K C26K 1_555 1_555
H21K C27K 1_555 1_555
C28K C27K 1_555 1_555
H22K C28K 1_555 1_555
C29K C28K 1_555 1_555
C30K C29K 1_555 1_555
H23K C30K 1_555 1_555
C31K C30K 1_555 1_555
H24K C31K 1_555 1_555
C32K C19K 1_555 1_555
C33K C22K 1_555 1_555
C34K C25K 1_555 1_555
Sn1A O3K 1_555 1_555
S1A O1A 1_555 1_555
O1A Sn1A 1_555 1_555
O2A S1A 1_555 1_555
O3A S1A 1_555 1_555
C1A Sn1A 1_555 1_555
C2A C1A 1_555 1_555
H1A C2A 1_555 1_555
C3A C2A 1_555 1_555
H2A C3A 1_555 1_555
C4A C3A 1_555 1_555
H3A C4A 1_555 1_555
C5A C4A 1_555 1_555
H4A C5A 1_555 1_555
C6A C1A 1_555 1_555
H5A C6A 1_555 1_555
C7A Sn1A 1_555 1_555
C8A C7A 1_555 1_555
H6A C8A 1_555 1_555
C9A C8A 1_555 1_555
H7A C9A 1_555 1_555
C10A C9A 1_555 1_555
H8A C10A 1_555 1_555
C11A C10A 1_555 1_555
H9A C11A 1_555 1_555
C12A C7A 1_555 1_555
H10A C12A 1_555 1_555
C13A Sn1A 1_555 1_555
C14A C13A 1_555 1_555
H11A C14A 1_555 1_555
C15A C14A 1_555 1_555
H12A C15A 1_555 1_555
C16A C15A 1_555 1_555
H13A C16A 1_555 1_555
C17A C16A 1_555 1_555
H14A C17A 1_555 1_555
C18A C13A 1_555 1_555
H15A C18A 1_555 1_555
C19A S1A 1_555 1_555
C20A C19A 1_555 1_555
H16A C20A 1_555 1_555
C21A C20A 1_555 1_555
H17A C21A 1_555 1_555
C22A C21A 1_555 1_555
C23A C22A 1_555 1_555
H18A C23A 1_555 1_555
C24A C23A 1_555 1_555
H19A C24A 1_555 1_555
C25A C24A 1_555 1_555
C26A C25A 1_555 1_555
H20A C26A 1_555 1_555
C27A C26A 1_555 1_555
H21A C27A 1_555 1_555
C28A C27A 1_555 1_555
H22A C28A 1_555 1_555
C29A C28A 1_555 1_555
C30A C29A 1_555 1_555
H23A C30A 1_555 1_555
C31A C30A 1_555 1_555
H24A C31A 1_555 1_555
C32A C19A 1_555 1_555
C33A C22A 1_555 1_555
C34A C25A 1_555 1_555
Sn1B O1B 1_555 1_555
S1B O1B 1_555 1_555
O2B S1B 1_555 1_555
O3B Sn1J 1_555 1_555
C1B Sn1B 1_555 1_555
C2B C1B 1_555 1_555
H1B C2B 1_555 1_555
C3B C2B 1_555 1_555
H2B C3B 1_555 1_555
C4B C3B 1_555 1_555
H3B C4B 1_555 1_555
C5B C4B 1_555 1_555
H4B C5B 1_555 1_555
C6B C1B 1_555 1_555
H5B C6B 1_555 1_555
C7B Sn1B 1_555 1_555
C8B C7B 1_555 1_555
H6B C8B 1_555 1_555
C9B C8B 1_555 1_555
H7B C9B 1_555 1_555
C10B C9B 1_555 1_555
H8B C10B 1_555 1_555
C11B C10B 1_555 1_555
H9B C11B 1_555 1_555
C12B C7B 1_555 1_555
H10B C12B 1_555 1_555
C13B Sn1B 1_555 1_555
C14B C13B 1_555 1_555
H11B C14B 1_555 1_555
C15B C14B 1_555 1_555
H12B C15B 1_555 1_555
C16B C15B 1_555 1_555
H13B C16B 1_555 1_555
C17B C16B 1_555 1_555
H14B C17B 1_555 1_555
C18B C13B 1_555 1_555
H15B C18B 1_555 1_555
C19B S1B 1_555 1_555
C20B C19B 1_555 1_555
H16B C20B 1_555 1_555
C21B C20B 1_555 1_555
H17B C21B 1_555 1_555
C22B C21B 1_555 1_555
C23B C22B 1_555 1_555
H18B C23B 1_555 1_555
C24B C23B 1_555 1_555
H19B C24B 1_555 1_555
C25B C24B 1_555 1_555
C26B C25B 1_555 1_555
H20B C26B 1_555 1_555
C27B C26B 1_555 1_555
H21B C27B 1_555 1_555
C28B C27B 1_555 1_555
H22B C28B 1_555 1_555
C29B C28B 1_555 1_555
C30B C29B 1_555 1_555
H23B C30B 1_555 1_555
C31B C30B 1_555 1_555
H24B C31B 1_555 1_555
C32B C19B 1_555 1_555
C33B C22B 1_555 1_555
C34B C25B 1_555 1_555
Sn1I O3A 1_555 1_555
S1I O1I 1_555 1_555
O1I Sn1I 1_555 1_555
O2I S1I 1_555 1_555
O3I Sn1B 1_555 1_555
C1I Sn1I 1_555 1_555
C2I C1I 1_555 1_555
H1I C2I 1_555 1_555
C3I C2I 1_555 1_555
H2I C3I 1_555 1_555
C4I C3I 1_555 1_555
H3I C4I 1_555 1_555
C5I C4I 1_555 1_555
H4I C5I 1_555 1_555
C6I C1I 1_555 1_555
H5I C6I 1_555 1_555
C7I Sn1I 1_555 1_555
C8I C7I 1_555 1_555
H6I C8I 1_555 1_555
C9I C8I 1_555 1_555
H7I C9I 1_555 1_555
C10I C9I 1_555 1_555
H8I C10I 1_555 1_555
C11I C10I 1_555 1_555
H9I C11I 1_555 1_555
C12I C7I 1_555 1_555
H10I C12I 1_555 1_555
C13I Sn1I 1_555 1_555
C14I C13I 1_555 1_555
H11I C14I 1_555 1_555
C15I C14I 1_555 1_555
H12I C15I 1_555 1_555
C16I C15I 1_555 1_555
H13I C16I 1_555 1_555
C17I C16I 1_555 1_555
H14I C17I 1_555 1_555
C18I C13I 1_555 1_555
H15I C18I 1_555 1_555
C19I S1I 1_555 1_555
C20I C19I 1_555 1_555
H16I C20I 1_555 1_555
C21I C20I 1_555 1_555
H17I C21I 1_555 1_555
C22I C21I 1_555 1_555
C23I C22I 1_555 1_555
H18I C23I 1_555 1_555
C24I C23I 1_555 1_555
H19I C24I 1_555 1_555
C25I C24I 1_555 1_555
C26I C25I 1_555 1_555
H20I C26I 1_555 1_555
C27I C26I 1_555 1_555
H21I C27I 1_555 1_555
C28I C27I 1_555 1_555
H22I C28I 1_555 1_555
C29I C28I 1_555 1_555
C30I C29I 1_555 1_555
H23I C30I 1_555 1_555
C31I C30I 1_555 1_555
H24I C31I 1_555 1_555
C32I C19I 1_555 1_555
C33I C22I 1_555 1_555
C34I C25I 1_555 1_555
C5 C6 1_555 1_555
C11 C12 1_555 1_555
C17 C18 1_555 1_555
C29 C34 1_555 1_555
C31 C32 1_555 1_555
C32 C33 1_555 1_555
C33 C34 1_555 1_555
S1J O3J 1_555 1_555
C5J C6J 1_555 1_555
C11J C12J 1_555 1_555
C17J C18J 1_555 1_555
C29J C34J 1_555 1_555
C31J C32J 1_555 1_555
C32J C33J 1_555 1_555
C33J C34J 1_555 1_555
C5K C6K 1_555 1_555
C11K C12K 1_555 1_555
C17K C18K 1_555 1_555
C29K C34K 1_555 1_555
C31K C32K 1_555 1_555
C32K C33K 1_555 1_555
C33K C34K 1_555 1_555
C5A C6A 1_555 1_555
C11A C12A 1_555 1_555
C17A C18A 1_555 1_555
C29A C34A 1_555 1_555
C31A C32A 1_555 1_555
C32A C33A 1_555 1_555
C33A C34A 1_555 1_555
S1B O3B 1_555 1_555
C5B C6B 1_555 1_555
C11B C12B 1_555 1_555
C17B C18B 1_555 1_555
C29B C34B 1_555 1_555
C31B C32B 1_555 1_555
C32B C33B 1_555 1_555
C33B C34B 1_555 1_555
S1I O3I 1_555 1_555
C5I C6I 1_555 1_555
C11I C12I 1_555 1_555
C17I C18I 1_555 1_555
C29I C34I 1_555 1_555
C31I C32I 1_555 1_555
C32I C33I 1_555 1_555
C33I C34I 1_555 1_555

#END
