
#######################################################################
#
#                 Cambridge Crystallographic Data Centre
#                                CCDC 
#
#######################################################################
#
# If this CIF has been generated from an entry in the Cambridge 
# Structural Database, then it will include bibliographic, chemical, 
# crystal, experimental, refinement or atomic coordinate data resulting 
# from the CCDC's data processing and validation procedures.
#
#######################################################################

data_WOFDIG
_chemical_formula_moiety         'C99 H93 N3 O12 Sn3,0.5(C7 H8)'
_chemical_name_systematic        
'tris(\m~2~-5-((pyren-1-ylmethylene)amino)isophthalato)-hexakis(n-butyl)-tri-tin toluene solvate hemihydrate'
_symmetry_cell_setting           triclinic
_symmetry_space_group_name_H-M   'P -1'
_symmetry_Int_Tables_number      2
_space_group_name_Hall           '-P 1'
loop_
_symmetry_equiv_pos_site_id
_symmetry_equiv_pos_as_xyz
1 x,y,z
2 -x,-y,-z
_cell_length_a                   17.1099(8)
_cell_length_b                   21.1390(9)
_cell_length_c                   25.5146(11)
_cell_angle_alpha                78.6020(10)
_cell_angle_beta                 88.9010(10)
_cell_angle_gamma                68.0480(10)
_cell_volume                     8375.2
_exptl_crystal_colour            yellow
_exptl_crystal_description       block
_cell_formula_units_Z            4
loop_
_atom_site_label
_atom_site_type_symbol
_atom_site_fract_x
_atom_site_fract_y
_atom_site_fract_z
Sn1 Sn 0.35844(14) 0.96068(13) 0.49938(9)
Sn2 Sn 0.79733(14) 0.81147(12) 0.75020(8)
Sn3 Sn 0.90073(15) 0.79887(15) 0.40267(9)
O1 O 0.4407(12) 0.9321(11) 0.5676(7)
O2 O 0.3111(13) 0.9639(12) 0.5946(8)
O3 O 0.8522(12) 0.8106(11) 0.6754(8)
O4 O 0.9617(12) 0.7729(11) 0.7342(7)
O5 O 0.7698(12) 0.8297(11) 0.4113(8)
O6 O 0.3680(13) 0.9709(11) 0.3986(8)
O7 O 0.4724(12) 0.9331(11) 0.4606(8)
O8 O 0.9037(12) 0.8001(11) 0.4841(8)
O9 O 1.0339(14) 0.7734(14) 0.4581(8)
O10 O 0.6598(12) 0.8435(11) 0.7878(8)
O11 O 0.6834(12) 0.8515(11) 0.7024(8)
N1 N 1.2117(17) 0.7596(15) 0.6181(10)
N2 N 0.5032(16) 0.9191(13) 0.2280(9)
O12 O 0.7956(14) 0.8226(13) 0.3279(8)
N3 N 0.3433(15) 0.9650(13) 0.7935(9)
C1 C 0.388(2) 0.9437(17) 0.6047(12)
C2 C 0.4233(19) 0.9317(16) 0.6617(12)
C3 C 0.3674(18) 0.9515(16) 0.7001(11)
H1 H 0.3096 0.9699 0.6913
C4 C 0.3976(19) 0.9439(16) 0.7528(11)
C5 C 0.4844(19) 0.9127(16) 0.7651(11)
H2 H 0.5057 0.9051 0.8000
C6 C 0.5391(18) 0.8929(15) 0.7252(11)
C7 C 0.6313(19) 0.8611(15) 0.7404(11)
C8 C 0.8124(19) 0.8958(16) 0.7725(13)
H3 H 0.8334 0.8818 0.8097
H4 H 0.8556 0.9060 0.7514
C9 C 0.737(2) 0.9608(19) 0.7666(15)
H5 H 0.6956 0.9521 0.7906
H6 H 0.7124 0.9725 0.7303
C10 C 0.752(3) 1.024(2) 0.7781(18)
H7 H 0.6995 1.0651 0.7703
H8 H 0.7937 1.0333 0.7551
C11 C 0.783(3) 1.010(2) 0.8393(18)
H9 H 0.7431 0.9980 0.8619
H10 H 0.7873 1.0515 0.8468
H11 H 0.8371 0.9727 0.8459
C12 C 0.9317(19) 0.7899(16) 0.6876(12)
C13 C 0.9892(18) 0.7850(16) 0.6416(11)
C14 C 1.0719(18) 0.7745(16) 0.6514(12)
H12 H 1.0919 0.7695 0.6862
C15 C 1.1263(19) 0.7713(18) 0.6106(13)
C16 C 1.2324(19) 0.790(2) 0.6531(16)
H13 H 1.1891 0.8194 0.6696
C17 C 1.317(2) 0.779(2) 0.6674(15)
C18 C 1.344(2) 0.787(2) 0.7155(16)
C19 C 1.432(2) 0.7613(18) 0.7305(15)
C20 C 1.458(2) 0.7614(18) 0.7810(16)
C21 C 1.546(2) 0.733(2) 0.7972(17)
C22 C 1.573(3) 0.736(2) 0.8476(16)
H14 H 1.6302 0.7210 0.8567
C23 C 1.515(3) 0.761(2) 0.8846(19)
H15 H 1.5321 0.7626 0.9186
C24 C 1.430(2) 0.785(2) 0.8692(18)
H16 H 1.3897 0.8008 0.8936
C25 C 1.402(2) 0.785(2) 0.8175(18)
C26 C 1.314(2) 0.8114(18) 0.8030(18)
H17 H 1.2749 0.8278 0.8279
C27 C 1.288(2) 0.8125(18) 0.7546(17)
H18 H 1.2302 0.8308 0.7457
C28 C 1.606(3) 0.704(2) 0.7597(16)
H19 H 1.6638 0.6838 0.7700
C29 C 1.581(2) 0.705(2) 0.7117(17)
H20 H 1.6201 0.6873 0.6875
C30 C 1.489(3) 0.735(2) 0.6951(15)
C31 C 1.465(3) 0.733(2) 0.6440(17)
H21 H 1.5054 0.7197 0.6190
C32 C 1.378(2) 0.7531(19) 0.6307(17)
H22 H 1.3602 0.7488 0.5978
C33 C 1.0955(19) 0.7745(17) 0.5593(12)
H23 H 1.1315 0.7708 0.5313
C34 C 1.0129(19) 0.7832(17) 0.5496(11)
C35 C 0.982(2) 0.7865(17) 0.4941(13)
C36 C 0.744(2) 0.8380(17) 0.3620(13)
C37 C 0.651(2) 0.8679(16) 0.3488(12)
C38 C 0.5934(19) 0.8908(16) 0.3869(12)
H24 H 0.6119 0.8850 0.4222
C39 C 0.5082(18) 0.9225(15) 0.3709(11)
C40 C 0.481(2) 0.9310(15) 0.3187(11)
H25 H 0.4237 0.9519 0.3090
C41 C 0.538(2) 0.9093(15) 0.2802(12)
C42 C 0.623(2) 0.8759(15) 0.2956(11)
H26 H 0.6615 0.8590 0.2707
C43 C 0.551(2) 0.9182(16) 0.1888(12)
H27 H 0.6057 0.9152 0.1949
C44 C 0.521(2) 0.9217(16) 0.1346(12)
C45 C 0.434(2) 0.9355(16) 0.1256(11)
H28 H 0.3989 0.9419 0.1537
C46 C 0.403(2) 0.9396(16) 0.0755(12)
H29 H 0.3449 0.9509 0.0701
C47 C 0.453(2) 0.9275(15) 0.0335(12)
C48 C 0.541(2) 0.9104(15) 0.0411(12)
C49 C 0.575(2) 0.9092(16) 0.0931(12)
C50 C 0.665(2) 0.8918(17) 0.0989(13)
H30 H 0.6889 0.8884 0.1321
C51 C 0.714(2) 0.8801(16) 0.0572(13)
H31 H 0.7711 0.8705 0.0623
C52 C 0.682(2) 0.8820(16) 0.0060(12)
C53 C 0.595(2) 0.8971(15) -0.0018(12)
C54 C 0.562(2) 0.8986(17) -0.0520(12)
C55 C 0.473(2) 0.9159(16) -0.0588(12)
H32 H 0.4497 0.9178 -0.0921
C56 C 0.422(2) 0.9292(16) -0.0190(12)
H33 H 0.3647 0.9401 -0.0253
C57 C 0.616(2) 0.8820(16) -0.0929(12)
H34 H 0.5945 0.8804 -0.1257
C58 C 0.703(2) 0.8674(17) -0.0848(14)
H35 H 0.7390 0.8573 -0.1124
C59 C 0.734(2) 0.8685(16) -0.0359(13)
H36 H 0.7908 0.8599 -0.0307
C60 C 0.444(2) 0.9450(15) 0.4109(12)
C61 C 0.910(3) 0.894(3) 0.3623(15)
H37 H 0.9661 0.8844 0.3497
H38 H 0.8704 0.9135 0.3310
C62 C 0.949(2) 0.692(2) 0.4013(14)
H39 H 1.0101 0.6738 0.4070
H40 H 0.9279 0.6676 0.4311
C63 C 0.9585(19) 0.7892(15) 0.5900(11)
H41 H 0.9024 0.7960 0.5834
C64 C 0.826(2) 0.7051(17) 0.7836(13)
H42 H 0.8604 0.6928 0.8168
H43 H 0.7743 0.6983 0.7923
C65 C 0.874(2) 0.655(2) 0.7464(15)
H44 H 0.9241 0.6645 0.7351
H45 H 0.8933 0.6074 0.7666
C66 C 0.822(2) 0.662(2) 0.6979(15)
H46 H 0.7922 0.7108 0.6820
H47 H 0.7802 0.6414 0.7081
C67 C 0.879(3) 0.624(3) 0.6562(18)
H48 H 0.9162 0.6479 0.6432
H49 H 0.8448 0.6246 0.6269
H50 H 0.9125 0.5769 0.6731
C68 C 0.5106(19) 0.9030(15) 0.6729(12)
H51 H 0.5478 0.8912 0.6462
C69 C 0.278(2) 1.0200(18) 0.7813(13)
H52 H 0.2683 1.0423 0.7454
C70 C 0.214(2) 1.0527(17) 0.8180(12)
C71 C 0.2034(19) 1.0177(16) 0.8695(13)
C72 C 0.142(2) 1.0576(18) 0.9000(13)
C73 C 0.094(2) 1.1301(19) 0.8810(15)
C74 C 0.038(3) 1.167(2) 0.9154(16)
H53 H 0.0076 1.2148 0.9033
C75 C 0.025(2) 1.139(2) 0.9633(17)
H54 H -0.0161 1.1651 0.9832
C76 C 0.073(2) 1.066(2) 0.9857(14)
C77 C 0.060(3) 1.032(2) 1.0374(15)
H55 H 0.0204 1.0574 1.0587
C78 C 0.105(3) 0.963(2) 1.0554(15)
H56 H 0.0984 0.9417 1.0898
C79 C 0.162(2) 0.922(2) 1.0243(13)
H57 H 0.1898 0.8743 1.0370
C80 C 0.175(2) 0.9536(18) 0.9736(14)
C81 C 0.234(2) 0.917(2) 0.9388(14)
H58 H 0.2636 0.8692 0.9509
C82 C 0.249(2) 0.9459(17) 0.8896(12)
H59 H 0.2888 0.9192 0.8693
C83 C 0.130(2) 1.024(2) 0.9526(14)
C84 C 0.109(2) 1.1604(19) 0.8315(15)
H60 H 0.0800 1.2080 0.8193
C85 C 0.165(2) 1.1238(18) 0.7988(14)
H61 H 0.1709 1.1456 0.7643
C86 C 0.301(2) 1.0679(18) 0.4863(14)
H62 H 0.2429 1.0808 0.4738
H63 H 0.2997 1.0814 0.5206
C87 C 0.337(2) 1.1094(17) 0.4489(15)
H64 H 0.3314 1.1014 0.4134
H65 H 0.3974 1.0928 0.4585
C88 C 0.299(2) 1.1876(17) 0.4467(13)
H66 H 0.2425 1.2063 0.4301
H67 H 0.2951 1.1957 0.4829
C89 C 0.349(2) 1.225(2) 0.4162(15)
H68 H 0.4040 1.2102 0.4343
H69 H 0.3206 1.2746 0.4139
H70 H 0.3561 1.2158 0.3808
C90 C 0.318(3) 0.877(2) 0.5045(16)
H71 H 0.3257 0.8530 0.5417
H72 H 0.2584 0.8962 0.4946
C91 C 0.928(3) 0.673(3) 0.3496(16)
H73 H 0.8668 0.6909 0.3444
H74 H 0.9482 0.6978 0.3202
C92 C 0.459(3) 0.778(2) 0.4924(18)
H75 H 0.4850 0.8075 0.5026
H76 H 0.4635 0.7401 0.5223
C93 C 0.492(5) 0.753(3) 0.443(2)
H77 H 0.4466 0.7529 0.4213
H78 H 0.5337 0.7063 0.4524
H79 H 0.5173 0.7830 0.4230
C94 C 0.363(4) 0.821(3) 0.470(2)
H80 H 0.3619 0.8442 0.4327
H81 H 0.3334 0.7898 0.4710
C95 C 0.935(4) 0.620(5) 0.283(3)
H82 H 0.8831 0.6145 0.2760
H83 H 0.9788 0.5914 0.2638
H84 H 0.9279 0.6678 0.2710
C96 C 0.893(4) 0.946(3) 0.394(2)
H85 H 0.9344 0.9219 0.4237
H86 H 0.8397 0.9471 0.4087
C97 C 0.960(6) 0.597(3) 0.344(3)
H87 H 0.9287 0.5708 0.3635
H88 H 1.0201 0.5724 0.3521
C98 C 0.929(5) 1.025(3) 0.340(3)
H89 H 0.9823 0.9873 0.3503
H90 H 0.9383 1.0650 0.3201
H91 H 0.8962 1.0114 0.3173
C99 C 0.882(5) 1.043(5) 0.389(3)
H92 H 0.8247 1.0776 0.3823
H93 H 0.9134 1.0506 0.4167
Sn4 Sn 0.63051(14) 0.53948(12) -0.02993(9)
Sn5 Sn 0.19365(14) 0.62081(13) 0.18249(9)
Sn6 Sn 0.08676(13) 0.71500(12) -0.17292(8)
O13 O 0.5479(12) 0.5771(11) 0.0278(8)
O14 O 0.6752(13) 0.5298(11) 0.0675(8)
O15 O 0.3214(13) 0.6133(11) 0.2285(8)
O16 O 0.2990(12) 0.6267(11) 0.1420(8)
O17 O 0.1383(13) 0.6397(12) 0.1055(8)
O18 O 0.0436(14) 0.6278(14) 0.1600(8)
O19 O 0.0783(12) 0.7002(11) -0.0891(8)
O20 O 0.1939(12) 0.6900(11) -0.2399(7)
O21 O 0.2187(12) 0.6774(11) -0.1535(8)
O22 O 0.5179(12) 0.5816(11) -0.0789(8)
O23 O 0.6221(13) 0.5399(12) -0.1304(8)
O24 O -0.0534(13) 0.7406(11) -0.1231(8)
N4 N 0.6279(15) 0.5618(13) 0.2620(9)
N5 N -0.2210(16) 0.6945(14) 0.0352(10)
C100 C 0.696(2) 0.605(2) -0.0492(14)
H94 H 0.6543 0.6514 -0.0629
H95 H 0.7202 0.6070 -0.0157
C101 C 0.765(3) 0.593(2) -0.0873(18)
H96 H 0.7881 0.6292 -0.0896
H97 H 0.7419 0.5967 -0.1226
C102 C 0.5978(19) 0.5590(16) 0.0695(12)
C103 C 0.5598(19) 0.5731(15) 0.1215(11)
C104 C 0.6129(19) 0.5617(14) 0.1658(11)
H98 H 0.6707 0.5483 0.1624
C105 C 0.579(2) 0.5703(16) 0.2158(12)
C106 C 0.6991(18) 0.5100(15) 0.2720(11)
H99 H 0.7148 0.4808 0.2475
C107 C 0.7585(18) 0.4924(16) 0.3191(11)
C108 C 0.7545(18) 0.5385(16) 0.3532(12)
C109 C 0.8115(17) 0.5134(16) 0.3987(12)
C110 C 0.8710(19) 0.4449(16) 0.4094(13)
C111 C 0.8749(19) 0.4019(16) 0.3741(12)
H100 H 0.9156 0.3569 0.3802
C112 C 0.8190(18) 0.4255(15) 0.3299(12)
H101 H 0.8220 0.3957 0.3069
C113 C 0.926(2) 0.4210(17) 0.4570(13)
H102 H 0.9657 0.3756 0.4641
C114 C 0.921(2) 0.4622(18) 0.4916(13)
H103 H 0.9563 0.4446 0.5228
C115 C 0.8638(19) 0.5325(18) 0.4811(12)
C116 C 0.860(2) 0.578(2) 0.5160(14)
H104 H 0.8947 0.5610 0.5474
C117 C 0.805(2) 0.646(2) 0.5039(14)
H105 H 0.8055 0.6762 0.5263
C118 C 0.750(2) 0.672(2) 0.4588(14)
H106 H 0.7117 0.7183 0.4521
C119 C 0.750(2) 0.6286(18) 0.4229(13)
C120 C 0.8077(19) 0.5593(17) 0.4342(13)
C121 C 0.698(2) 0.6520(17) 0.3765(13)
H107 H 0.6619 0.6985 0.3679
C122 C 0.6979(19) 0.6093(16) 0.3428(13)
H108 H 0.6605 0.6268 0.3128
C123 C 0.4926(19) 0.5901(15) 0.2193(12)
H109 H 0.4692 0.5961 0.2521
C124 C 0.4414(19) 0.6008(15) 0.1757(12)
C125 C 0.4743(18) 0.5929(15) 0.1256(12)
H110 H 0.4389 0.6009 0.0958
C126 C 0.3501(19) 0.6153(15) 0.1826(12)
C127 C 0.127(3) 0.712(2) 0.2075(17)
H111 H 0.0694 0.7309 0.1916
H112 H 0.1233 0.7016 0.2461
C128 C 0.225(2) 0.5156(17) 0.2154(12)
H113 H 0.1761 0.5041 0.2109
H114 H 0.2693 0.4886 0.1953
C129 C 0.255(2) 0.4927(19) 0.2758(14)
H115 H 0.2717 0.4426 0.2871
H116 H 0.3043 0.5038 0.2811
C130 C 0.187(2) 0.529(2) 0.3091(14)
H117 H 0.1372 0.5188 0.3029
H118 H 0.1716 0.5787 0.2985
C131 C 0.216(3) 0.504(2) 0.3708(17)
H119 H 0.2326 0.4545 0.3811
H120 H 0.1699 0.5263 0.3915
H121 H 0.2627 0.5167 0.3773
C132 C 0.064(2) 0.6403(19) 0.1135(13)
C133 C 0.0051(19) 0.6611(16) 0.0668(11)
C134 C -0.0781(18) 0.6663(16) 0.0736(13)
H122 H -0.0944 0.6540 0.1079
C135 C -0.1363(18) 0.6887(16) 0.0313(12)
C136 C -0.260(2) 0.7148(16) 0.0758(13)
H123 H -0.2291 0.7221 0.1022
C137 C -0.350(2) 0.7272(17) 0.0836(14)
C138 C -0.384(2) 0.7352(16) 0.1330(13)
C139 C -0.336(2) 0.7300(17) 0.1807(13)
H124 H -0.2788 0.7199 0.1798
C140 C -0.374(2) 0.7394(17) 0.2254(14)
H125 H -0.3415 0.7363 0.2552
C141 C -0.462(2) 0.7542(18) 0.2315(14)
C142 C -0.512(2) 0.7605(16) 0.1847(14)
C143 C -0.472(2) 0.7517(16) 0.1370(14)
C144 C -0.523(2) 0.7578(17) 0.0902(14)
C145 C -0.611(2) 0.7758(18) 0.0945(17)
H126 H -0.6451 0.7814 0.0646
C146 C -0.647(3) 0.7852(18) 0.1424(16)
H127 H -0.7046 0.7972 0.1441
C147 C -0.598(2) 0.7771(17) 0.1892(14)
C148 C -0.634(3) 0.784(2) 0.2376(16)
H128 H -0.6915 0.7939 0.2398
C149 C -0.585(3) 0.775(2) 0.2836(17)
H129 H -0.6096 0.7800 0.3162
C150 C -0.500(2) 0.7601(19) 0.2799(15)
H130 H -0.4669 0.7537 0.3104
C151 C -0.484(2) 0.7474(17) 0.0421(13)
H131 H -0.5165 0.7514 0.0119
C152 C -0.399(2) 0.7313(16) 0.0388(14)
H132 H -0.3734 0.7233 0.0068
C153 C -0.1105(18) 0.7041(16) -0.0204(12)
H133 H -0.1488 0.7181 -0.0497
C154 C -0.0284(19) 0.6985(16) -0.0279(12)
C155 C -0.002(2) 0.7140(17) -0.0842(13)
C156 C 0.2463(19) 0.6691(15) -0.2008(12)
C157 C 0.3376(18) 0.6356(14) -0.2051(11)
C158 C 0.3656(19) 0.6231(15) -0.2553(11)
H134 H 0.3265 0.6373 -0.2843
C159 C 0.4514(19) 0.5896(16) -0.2626(12)
C160 C 0.5077(18) 0.5722(15) -0.2189(11)
H135 H 0.5652 0.5503 -0.2228
C161 C 0.4811(19) 0.5864(15) -0.1700(11)
C162 C 0.3954(18) 0.6173(14) -0.1633(11)
H136 H 0.3772 0.6256 -0.1298
C163 C 0.546(2) 0.5677(16) -0.1238(12)
N6 N 0.4847(17) 0.5787(14) -0.3121(10)
C164 C 0.438(2) 0.5838(18) -0.3500(13)
H137 H 0.3824 0.5894 -0.3436
C165 C 0.465(2) 0.5815(18) -0.4060(13)
C166 C 0.409(2) 0.5978(18) -0.4496(14)
C167 C 0.320(2) 0.615(2) -0.4462(15)
H138 H 0.2979 0.6151 -0.4127
C168 C 0.268(3) 0.632(2) -0.4901(14)
H139 H 0.2106 0.6424 -0.4855
C169 C 0.296(3) 0.634(2) -0.5426(15)
C170 C 0.384(3) 0.6152(19) -0.5482(13)
C171 C 0.417(2) 0.6129(19) -0.5996(14)
C172 C 0.358(3) 0.632(2) -0.6441(14)
H140 H 0.3773 0.6318 -0.6784
C173 C 0.274(3) 0.651(3) -0.6379(18)
H141 H 0.2377 0.6619 -0.6678
C174 C 0.242(3) 0.654(3) -0.5876(16)
H142 H 0.1835 0.6694 -0.5843
C175 C 0.506(3) 0.5923(19) -0.6053(14)
H143 H 0.5278 0.5895 -0.6387
C176 C 0.556(3) 0.5769(19) -0.5608(15)
H144 H 0.6136 0.5647 -0.5652
C177 C 0.529(2) 0.5778(18) -0.5078(13)
C178 C 0.583(2) 0.5613(19) -0.4631(13)
H145 H 0.6408 0.5494 -0.4670
C179 C 0.552(2) 0.5626(19) -0.4129(14)
H146 H 0.5893 0.5508 -0.3832
C180 C 0.440(2) 0.5966(18) -0.5017(13)
C181 C 0.071(2) 0.6247(15) -0.1841(13)
H147 H 0.0177 0.6233 -0.1712
H148 H 0.0736 0.6212 -0.2215
C182 C 0.146(3) 0.567(2) -0.150(2)
H149 H 0.1965 0.5526 -0.1700
H150 H 0.1588 0.5799 -0.1176
C183 C 0.109(4) 0.519(3) -0.140(3)
H151 H 0.0492 0.5429 -0.1373
H152 H 0.1322 0.4879 -0.1060
C184 C 0.122(4) 0.470(3) -0.187(2)
H153 H 0.0995 0.5004 -0.2211
H154 H 0.0939 0.4388 -0.1776
H155 H 0.1816 0.4445 -0.1891
C185 C 0.057(2) 0.8232(16) -0.1946(11)
H156 H 0.0896 0.8342 -0.2239
H157 H -0.0028 0.8479 -0.2051
C186 C 0.077(3) 0.840(2) -0.1496(16)
H158 H 0.1361 0.8124 -0.1383
H159 H 0.0429 0.8295 -0.1209
C187 C 0.0291(19) 0.6766(15) 0.0150(12)
H160 H 0.0847 0.6720 0.0094
C188 C 0.653(3) 0.4342(18) -0.0171(17)
H161 H 0.6016 0.4287 -0.0046
H162 H 0.6612 0.4211 -0.0518
C189 C 0.060(3) 0.927(2) -0.1632(18)
H163 H 0.0006 0.9505 -0.1567
H164 H 0.0919 0.9334 -0.1353
C190 C 0.703(4) 0.303(2) 0.032(2)
H165 H 0.7072 0.2815 0.0694
H166 H 0.6499 0.3090 0.0147
C191 C 0.724(3) 0.382(2) 0.0202(17)
H167 H 0.7256 0.3967 0.0535
H168 H 0.7777 0.3742 0.0041
C192 C 0.885(3) 0.518(3) -0.019(2)
H169 H 0.9071 0.5543 -0.0258
H170 H 0.9300 0.4736 -0.0104
H171 H 0.8484 0.5245 0.0102
C193 C 0.834(3) 0.522(3) -0.069(2)
H172 H 0.8721 0.5119 -0.0976
H173 H 0.8094 0.4873 -0.0614
C194 C 0.074(7) 0.970(4) -0.214(2)
H174 H 0.1151 0.9399 -0.2336
H175 H 0.0943 1.0035 -0.2056
H176 H 0.0219 0.9935 -0.2356
C195 C 0.106(4) 0.839(3) 0.215(3)
H177 H 0.1389 0.8674 0.2142
H178 H 0.0566 0.8649 0.1903
C196 C 0.079(5) 0.823(5) 0.269(3)
H179 H 0.0876 0.7747 0.2792
H180 H 0.0197 0.8508 0.2705
H181 H 0.1107 0.8343 0.2942
C197 C 0.779(4) 0.269(4) 0.002(2)
H182 H 0.7690 0.2914 -0.0350
H183 H 0.7884 0.2208 0.0060
H184 H 0.8272 0.2739 0.0168
C198 C 0.162(3) 0.769(3) 0.194(3)
H185 H 0.1651 0.7799 0.1559
H186 H 0.2186 0.7510 0.2107
C199 C 0.182(3) 0.974(3) 0.382(2)
H187 H 0.2138 0.9841 0.3533
C200 C 0.144(4) 1.025(3) 0.412(3)
H188 H 0.1486 1.0679 0.3992
C201 C 0.125(3) 0.898(4) 0.434(3)
H189 H 0.1139 0.8583 0.4444
C202 C 0.176(4) 0.910(3) 0.391(2)
C203 C 0.221(4) 0.852(4) 0.363(3)
H190 H 0.2507 0.8688 0.3349
H191 H 0.1814 0.8373 0.3491
H192 H 0.2610 0.8143 0.3884
C204 C 0.094(4) 0.958(5) 0.457(3)
H193 H 0.0546 0.9519 0.4812
C205 C 0.101(8) 1.021(6) 0.458(4)
H194 H 0.0819 1.0513 0.4819
loop_
_geom_bond_atom_site_label_1
_geom_bond_atom_site_label_2
_geom_bond_site_symmetry_1
_geom_bond_site_symmetry_2
Sn1 O1 1_555 1_555
Sn2 O3 1_555 1_555
Sn3 O5 1_555 1_555
O1 C1 1_555 1_555
O2 Sn1 1_555 1_555
O3 C12 1_555 1_555
O4 Sn2 1_555 1_555
O5 C36 1_555 1_555
O6 Sn1 1_555 1_555
O7 Sn1 1_555 1_555
O8 Sn3 1_555 1_555
O9 Sn3 1_555 1_555
O10 Sn2 1_555 1_555
O11 Sn2 1_555 1_555
N1 C15 1_555 1_555
N2 C41 1_555 1_555
O12 Sn3 1_555 1_555
N3 C4 1_555 1_555
C1 O2 1_555 1_555
C2 C1 1_555 1_555
C3 C2 1_555 1_555
H1 C3 1_555 1_555
C4 C3 1_555 1_555
C5 C4 1_555 1_555
H2 C5 1_555 1_555
C6 C5 1_555 1_555
C7 O10 1_555 1_555
C8 Sn2 1_555 1_555
H3 C8 1_555 1_555
H4 C8 1_555 1_555
C9 C8 1_555 1_555
H5 C9 1_555 1_555
H6 C9 1_555 1_555
C10 C9 1_555 1_555
H7 C10 1_555 1_555
H8 C10 1_555 1_555
C11 C10 1_555 1_555
H9 C11 1_555 1_555
H10 C11 1_555 1_555
H11 C11 1_555 1_555
C12 O4 1_555 1_555
C13 C12 1_555 1_555
C14 C13 1_555 1_555
H12 C14 1_555 1_555
C15 C14 1_555 1_555
C16 N1 1_555 1_555
H13 C16 1_555 1_555
C17 C16 1_555 1_555
C18 C17 1_555 1_555
C19 C18 1_555 1_555
C20 C19 1_555 1_555
C21 C20 1_555 1_555
C22 C21 1_555 1_555
H14 C22 1_555 1_555
C23 C22 1_555 1_555
H15 C23 1_555 1_555
C24 C23 1_555 1_555
H16 C24 1_555 1_555
C25 C20 1_555 1_555
C26 C25 1_555 1_555
H17 C26 1_555 1_555
C27 C18 1_555 1_555
H18 C27 1_555 1_555
C28 C21 1_555 1_555
H19 C28 1_555 1_555
C29 C28 1_555 1_555
H20 C29 1_555 1_555
C30 C19 1_555 1_555
C31 C30 1_555 1_555
H21 C31 1_555 1_555
C32 C17 1_555 1_555
H22 C32 1_555 1_555
C33 C15 1_555 1_555
H23 C33 1_555 1_555
C34 C33 1_555 1_555
C35 O8 1_555 1_555
C36 O12 1_555 1_555
C37 C36 1_555 1_555
C38 C37 1_555 1_555
H24 C38 1_555 1_555
C39 C38 1_555 1_555
C40 C39 1_555 1_555
H25 C40 1_555 1_555
C41 C40 1_555 1_555
C42 C37 1_555 1_555
H26 C42 1_555 1_555
C43 N2 1_555 1_555
H27 C43 1_555 1_555
C44 C43 1_555 1_555
C45 C44 1_555 1_555
H28 C45 1_555 1_555
C46 C45 1_555 1_555
H29 C46 1_555 1_555
C47 C46 1_555 1_555
C48 C47 1_555 1_555
C49 C44 1_555 1_555
C50 C49 1_555 1_555
H30 C50 1_555 1_555
C51 C50 1_555 1_555
H31 C51 1_555 1_555
C52 C51 1_555 1_555
C53 C48 1_555 1_555
C54 C53 1_555 1_555
C55 C54 1_555 1_555
H32 C55 1_555 1_555
C56 C47 1_555 1_555
H33 C56 1_555 1_555
C57 C54 1_555 1_555
H34 C57 1_555 1_555
C58 C57 1_555 1_555
H35 C58 1_555 1_555
C59 C52 1_555 1_555
H36 C59 1_555 1_555
C60 O6 1_555 1_555
C61 Sn3 1_555 1_555
H37 C61 1_555 1_555
H38 C61 1_555 1_555
C62 Sn3 1_555 1_555
H39 C62 1_555 1_555
H40 C62 1_555 1_555
C63 C13 1_555 1_555
H41 C63 1_555 1_555
C64 Sn2 1_555 1_555
H42 C64 1_555 1_555
H43 C64 1_555 1_555
C65 C64 1_555 1_555
H44 C65 1_555 1_555
H45 C65 1_555 1_555
C66 C65 1_555 1_555
H46 C66 1_555 1_555
H47 C66 1_555 1_555
C67 C66 1_555 1_555
H48 C67 1_555 1_555
H49 C67 1_555 1_555
H50 C67 1_555 1_555
C68 C2 1_555 1_555
H51 C68 1_555 1_555
C69 N3 1_555 1_555
H52 C69 1_555 1_555
C70 C69 1_555 1_555
C71 C70 1_555 1_555
C72 C71 1_555 1_555
C73 C72 1_555 1_555
C74 C73 1_555 1_555
H53 C74 1_555 1_555
C75 C74 1_555 1_555
H54 C75 1_555 1_555
C76 C75 1_555 1_555
C77 C76 1_555 1_555
H55 C77 1_555 1_555
C78 C77 1_555 1_555
H56 C78 1_555 1_555
C79 C78 1_555 1_555
H57 C79 1_555 1_555
C80 C79 1_555 1_555
C81 C80 1_555 1_555
H58 C81 1_555 1_555
C82 C71 1_555 1_555
H59 C82 1_555 1_555
C83 C72 1_555 1_555
C84 C73 1_555 1_555
H60 C84 1_555 1_555
C85 C70 1_555 1_555
H61 C85 1_555 1_555
C86 Sn1 1_555 1_555
H62 C86 1_555 1_555
H63 C86 1_555 1_555
C87 C86 1_555 1_555
H64 C87 1_555 1_555
H65 C87 1_555 1_555
C88 C87 1_555 1_555
H66 C88 1_555 1_555
H67 C88 1_555 1_555
C89 C88 1_555 1_555
H68 C89 1_555 1_555
H69 C89 1_555 1_555
H70 C89 1_555 1_555
C90 Sn1 1_555 1_555
H71 C90 1_555 1_555
H72 C90 1_555 1_555
C91 C62 1_555 1_555
H73 C91 1_555 1_555
H74 C91 1_555 1_555
C92 H75 1_555 1_555
H76 C92 1_555 1_555
C93 C92 1_555 1_555
H77 C93 1_555 1_555
H78 C93 1_555 1_555
H79 C93 1_555 1_555
C94 C90 1_555 1_555
H80 C94 1_555 1_555
H81 C94 1_555 1_555
C95 H82 1_555 1_555
H83 C95 1_555 1_555
H84 C95 1_555 1_555
C96 C61 1_555 1_555
H85 C96 1_555 1_555
H86 C96 1_555 1_555
C97 C91 1_555 1_555
H87 C97 1_555 1_555
H88 C97 1_555 1_555
C98 H89 1_555 1_555
H90 C98 1_555 1_555
H91 C98 1_555 1_555
C99 C96 1_555 1_555
H92 C99 1_555 1_555
H93 C99 1_555 1_555
Sn4 O13 1_555 1_555
Sn5 O15 1_555 1_555
Sn6 O19 1_555 1_555
O13 C102 1_555 1_555
O14 Sn4 1_555 1_555
O15 C126 1_555 1_555
O16 Sn5 1_555 1_555
O17 Sn5 1_555 1_555
O18 Sn5 1_555 1_555
O19 C155 1_555 1_555
O20 Sn6 1_555 1_555
O21 Sn6 1_555 1_555
O22 Sn4 1_555 1_555
O23 Sn4 1_555 1_555
O24 Sn6 1_555 1_555
N4 C105 1_555 1_555
N5 C135 1_555 1_555
C100 Sn4 1_555 1_555
H94 C100 1_555 1_555
H95 C100 1_555 1_555
C101 C100 1_555 1_555
H96 C101 1_555 1_555
H97 C101 1_555 1_555
C102 O14 1_555 1_555
C103 C102 1_555 1_555
C104 C103 1_555 1_555
H98 C104 1_555 1_555
C105 C104 1_555 1_555
C106 N4 1_555 1_555
H99 C106 1_555 1_555
C107 C106 1_555 1_555
C108 C107 1_555 1_555
C109 C108 1_555 1_555
C110 C109 1_555 1_555
C111 C110 1_555 1_555
H100 C111 1_555 1_555
C112 C107 1_555 1_555
H101 C112 1_555 1_555
C113 C110 1_555 1_555
H102 C113 1_555 1_555
C114 C113 1_555 1_555
H103 C114 1_555 1_555
C115 C114 1_555 1_555
C116 C115 1_555 1_555
H104 C116 1_555 1_555
C117 C116 1_555 1_555
H105 C117 1_555 1_555
C118 C117 1_555 1_555
H106 C118 1_555 1_555
C119 C118 1_555 1_555
C120 C109 1_555 1_555
C121 C119 1_555 1_555
H107 C121 1_555 1_555
C122 C108 1_555 1_555
H108 C122 1_555 1_555
C123 C105 1_555 1_555
H109 C123 1_555 1_555
C124 C123 1_555 1_555
C125 C103 1_555 1_555
H110 C125 1_555 1_555
C126 O16 1_555 1_555
C127 Sn5 1_555 1_555
H111 C127 1_555 1_555
H112 C127 1_555 1_555
C128 Sn5 1_555 1_555
H113 C128 1_555 1_555
H114 C128 1_555 1_555
C129 C128 1_555 1_555
H115 C129 1_555 1_555
H116 C129 1_555 1_555
C130 C129 1_555 1_555
H117 C130 1_555 1_555
H118 C130 1_555 1_555
C131 C130 1_555 1_555
H119 C131 1_555 1_555
H120 C131 1_555 1_555
H121 C131 1_555 1_555
C132 O17 1_555 1_555
C133 C132 1_555 1_555
C134 C133 1_555 1_555
H122 C134 1_555 1_555
C135 C134 1_555 1_555
C136 N5 1_555 1_555
H123 C136 1_555 1_555
C137 C136 1_555 1_555
C138 C137 1_555 1_555
C139 C138 1_555 1_555
H124 C139 1_555 1_555
C140 C139 1_555 1_555
H125 C140 1_555 1_555
C141 C140 1_555 1_555
C142 C141 1_555 1_555
C143 C138 1_555 1_555
C144 C143 1_555 1_555
C145 C144 1_555 1_555
H126 C145 1_555 1_555
C146 C145 1_555 1_555
H127 C146 1_555 1_555
C147 C142 1_555 1_555
C148 C147 1_555 1_555
H128 C148 1_555 1_555
C149 C148 1_555 1_555
H129 C149 1_555 1_555
C150 C141 1_555 1_555
H130 C150 1_555 1_555
C151 C144 1_555 1_555
H131 C151 1_555 1_555
C152 C137 1_555 1_555
H132 C152 1_555 1_555
C153 C135 1_555 1_555
H133 C153 1_555 1_555
C154 C153 1_555 1_555
C155 O24 1_555 1_555
C156 O20 1_555 1_555
C157 C156 1_555 1_555
C158 C157 1_555 1_555
H134 C158 1_555 1_555
C159 C158 1_555 1_555
C160 C159 1_555 1_555
H135 C160 1_555 1_555
C161 C160 1_555 1_555
C162 C157 1_555 1_555
H136 C162 1_555 1_555
C163 O22 1_555 1_555
N6 C159 1_555 1_555
C164 N6 1_555 1_555
H137 C164 1_555 1_555
C165 C164 1_555 1_555
C166 C165 1_555 1_555
C167 C166 1_555 1_555
H138 C167 1_555 1_555
C168 C167 1_555 1_555
H139 C168 1_555 1_555
C169 C168 1_555 1_555
C170 C169 1_555 1_555
C171 C170 1_555 1_555
C172 C171 1_555 1_555
H140 C172 1_555 1_555
C173 C172 1_555 1_555
H141 C173 1_555 1_555
C174 C169 1_555 1_555
H142 C174 1_555 1_555
C175 C171 1_555 1_555
H143 C175 1_555 1_555
C176 C175 1_555 1_555
H144 C176 1_555 1_555
C177 C176 1_555 1_555
C178 C177 1_555 1_555
H145 C178 1_555 1_555
C179 C165 1_555 1_555
H146 C179 1_555 1_555
C180 C166 1_555 1_555
C181 Sn6 1_555 1_555
H147 C181 1_555 1_555
H148 C181 1_555 1_555
C182 C181 1_555 1_555
H149 C182 1_555 1_555
H150 C182 1_555 1_555
C183 C182 1_555 1_555
H151 C183 1_555 1_555
H152 C183 1_555 1_555
C184 C183 1_555 1_555
H153 C184 1_555 1_555
H154 C184 1_555 1_555
H155 C184 1_555 1_555
C185 Sn6 1_555 1_555
H156 C185 1_555 1_555
H157 C185 1_555 1_555
C186 C185 1_555 1_555
H158 C186 1_555 1_555
H159 C186 1_555 1_555
C187 C133 1_555 1_555
H160 C187 1_555 1_555
C188 Sn4 1_555 1_555
H161 C188 1_555 1_555
H162 C188 1_555 1_555
C189 C186 1_555 1_555
H163 C189 1_555 1_555
H164 C189 1_555 1_555
C190 H165 1_555 1_555
H166 C190 1_555 1_555
C191 C188 1_555 1_555
H167 C191 1_555 1_555
H168 C191 1_555 1_555
C192 H169 1_555 1_555
H170 C192 1_555 1_555
H171 C192 1_555 1_555
C193 C101 1_555 1_555
H172 C193 1_555 1_555
H173 C193 1_555 1_555
C194 C189 1_555 1_555
H174 C194 1_555 1_555
H175 C194 1_555 1_555
H176 C194 1_555 1_555
C195 H177 1_555 1_555
H178 C195 1_555 1_555
C196 C195 1_555 1_555
H179 C196 1_555 1_555
H180 C196 1_555 1_555
H181 C196 1_555 1_555
C197 C190 1_555 1_555
H182 C197 1_555 1_555
H183 C197 1_555 1_555
H184 C197 1_555 1_555
C198 C127 1_555 1_555
H185 C198 1_555 1_555
H186 C198 1_555 1_555
C199 H187 1_555 1_555
C200 C199 1_555 1_555
H188 C200 1_555 1_555
C201 H189 1_555 1_555
C202 C199 1_555 1_555
C203 C202 1_555 1_555
H190 C203 1_555 1_555
H191 C203 1_555 1_555
H192 C203 1_555 1_555
C204 C201 1_555 1_555
H193 C204 1_555 1_555
C205 C200 1_555 1_555
H194 C205 1_555 1_555
O7 C60 1_555 1_555
O9 C35 1_555 1_555
O11 C7 1_555 1_555
C6 C7 1_555 1_555
C6 C68 1_555 1_555
C24 C25 1_555 1_555
C26 C27 1_555 1_555
C29 C30 1_555 1_555
C31 C32 1_555 1_555
C34 C35 1_555 1_555
C34 C63 1_555 1_555
C39 C60 1_555 1_555
C41 C42 1_555 1_555
C48 C49 1_555 1_555
C52 C53 1_555 1_555
C55 C56 1_555 1_555
C58 C59 1_555 1_555
C76 C83 1_555 1_555
C80 C83 1_555 1_555
C81 C82 1_555 1_555
C84 C85 1_555 1_555
C92 C94 1_555 1_555
C95 C97 1_555 1_555
C98 C99 1_555 1_555
O18 C132 1_555 1_555
O21 C156 1_555 1_555
O23 C163 1_555 1_555
C111 C112 1_555 1_555
C115 C120 1_555 1_555
C119 C120 1_555 1_555
C121 C122 1_555 1_555
C124 C125 1_555 1_555
C124 C126 1_555 1_555
C142 C143 1_555 1_555
C146 C147 1_555 1_555
C149 C150 1_555 1_555
C151 C152 1_555 1_555
C154 C155 1_555 1_555
C154 C187 1_555 1_555
C161 C162 1_555 1_555
C161 C163 1_555 1_555
C170 C180 1_555 1_555
C173 C174 1_555 1_555
C177 C180 1_555 1_555
C178 C179 1_555 1_555
C190 C191 1_555 1_555
C192 C193 1_555 1_555
C195 C198 1_555 1_555
C201 C202 1_555 1_555
C204 C205 1_555 1_555

#END
