# generated using pymatgen
data_Sn6H194C205(NO4)6
_symmetry_space_group_name_H-M   'P 1'
_cell_length_a   17.10990000
_cell_length_b   21.13900000
_cell_length_c   25.51460000
_cell_angle_alpha   78.60200000
_cell_angle_beta   88.90100000
_cell_angle_gamma   68.04800000
_symmetry_Int_Tables_number   1
_chemical_formula_structural   Sn6H194C205(NO4)6
_chemical_formula_sum   'Sn12 H388 C410 N12 O48'
_cell_volume   8375.20266933
_cell_formula_units_Z   2
loop_
 _symmetry_equiv_pos_site_id
 _symmetry_equiv_pos_as_xyz
  1  'x, y, z'
loop_
 _atom_site_type_symbol
 _atom_site_label
 _atom_site_symmetry_multiplicity
 _atom_site_fract_x
 _atom_site_fract_y
 _atom_site_fract_z
 _atom_site_occupancy
  Sn  Sn1  1  0.358440  0.960680  0.499380  1
  Sn  Sn2  1  0.641560  0.039320  0.500620  1
  Sn  Sn3  1  0.797330  0.811470  0.750200  1
  Sn  Sn4  1  0.202670  0.188530  0.249800  1
  Sn  Sn5  1  0.900730  0.798870  0.402670  1
  Sn  Sn6  1  0.099270  0.201130  0.597330  1
  Sn  Sn7  1  0.630510  0.539480  0.970070  1
  Sn  Sn8  1  0.369490  0.460520  0.029930  1
  Sn  Sn9  1  0.193650  0.620810  0.182490  1
  Sn  Sn10  1  0.806350  0.379190  0.817510  1
  Sn  Sn11  1  0.086760  0.715000  0.827080  1
  Sn  Sn12  1  0.913240  0.285000  0.172920  1
  H  H13  1  0.309600  0.969900  0.691300  1
  H  H14  1  0.690400  0.030100  0.308700  1
  H  H15  1  0.505700  0.905100  0.800000  1
  H  H16  1  0.494300  0.094900  0.200000  1
  H  H17  1  0.833400  0.881800  0.809700  1
  H  H18  1  0.166600  0.118200  0.190300  1
  H  H19  1  0.855600  0.906000  0.751400  1
  H  H20  1  0.144400  0.094000  0.248600  1
  H  H21  1  0.695600  0.952100  0.790600  1
  H  H22  1  0.304400  0.047900  0.209400  1
  H  H23  1  0.712400  0.972500  0.730300  1
  H  H24  1  0.287600  0.027500  0.269700  1
  H  H25  1  0.699500  0.065100  0.770300  1
  H  H26  1  0.300500  0.934900  0.229700  1
  H  H27  1  0.793700  0.033300  0.755100  1
  H  H28  1  0.206300  0.966700  0.244900  1
  H  H29  1  0.743100  0.998000  0.861900  1
  H  H30  1  0.256900  0.002000  0.138100  1
  H  H31  1  0.787300  0.051500  0.846800  1
  H  H32  1  0.212700  0.948500  0.153200  1
  H  H33  1  0.837100  0.972700  0.845900  1
  H  H34  1  0.162900  0.027300  0.154100  1
  H  H35  1  0.091900  0.769500  0.686200  1
  H  H36  1  0.908100  0.230500  0.313800  1
  H  H37  1  0.189100  0.819400  0.669600  1
  H  H38  1  0.810900  0.180600  0.330400  1
  H  H39  1  0.630200  0.721000  0.856700  1
  H  H40  1  0.369800  0.279000  0.143300  1
  H  H41  1  0.532100  0.762600  0.918600  1
  H  H42  1  0.467900  0.237400  0.081400  1
  H  H43  1  0.389700  0.800800  0.893600  1
  H  H44  1  0.610300  0.199200  0.106400  1
  H  H45  1  0.274900  0.827800  0.827900  1
  H  H46  1  0.725100  0.172200  0.172100  1
  H  H47  1  0.230200  0.830800  0.745700  1
  H  H48  1  0.769800  0.169200  0.254300  1
  H  H49  1  0.663800  0.683800  0.770000  1
  H  H50  1  0.336200  0.316200  0.230000  1
  H  H51  1  0.620100  0.687300  0.687500  1
  H  H52  1  0.379900  0.312700  0.312500  1
  H  H53  1  0.505400  0.719700  0.619000  1
  H  H54  1  0.494600  0.280300  0.381000  1
  H  H55  1  0.360200  0.748800  0.597800  1
  H  H56  1  0.639800  0.251200  0.402200  1
  H  H57  1  0.131500  0.770800  0.531300  1
  H  H58  1  0.868500  0.229200  0.468700  1
  H  H59  1  0.611900  0.885000  0.422200  1
  H  H60  1  0.388100  0.115000  0.577800  1
  H  H61  1  0.423700  0.951900  0.309000  1
  H  H62  1  0.576300  0.048100  0.691000  1
  H  H63  1  0.661500  0.859000  0.270700  1
  H  H64  1  0.338500  0.141000  0.729300  1
  H  H65  1  0.605700  0.915200  0.194900  1
  H  H66  1  0.394300  0.084800  0.805100  1
  H  H67  1  0.398900  0.941900  0.153700  1
  H  H68  1  0.601100  0.058100  0.846300  1
  H  H69  1  0.344900  0.950900  0.070100  1
  H  H70  1  0.655100  0.049100  0.929900  1
  H  H71  1  0.688900  0.888400  0.132100  1
  H  H72  1  0.311100  0.111600  0.867900  1
  H  H73  1  0.771100  0.870500  0.062300  1
  H  H74  1  0.228900  0.129500  0.937700  1
  H  H75  1  0.449700  0.917800  0.907900  1
  H  H76  1  0.550300  0.082200  0.092100  1
  H  H77  1  0.364700  0.940100  0.974700  1
  H  H78  1  0.635300  0.059900  0.025300  1
  H  H79  1  0.594500  0.880400  0.874300  1
  H  H80  1  0.405500  0.119600  0.125700  1
  H  H81  1  0.739000  0.857300  0.887600  1
  H  H82  1  0.261000  0.142700  0.112400  1
  H  H83  1  0.790800  0.859900  0.969300  1
  H  H84  1  0.209200  0.140100  0.030700  1
  H  H85  1  0.966100  0.884400  0.349700  1
  H  H86  1  0.033900  0.115600  0.650300  1
  H  H87  1  0.870400  0.913500  0.331000  1
  H  H88  1  0.129600  0.086500  0.669000  1
  H  H89  1  0.010100  0.673800  0.407000  1
  H  H90  1  0.989900  0.326200  0.593000  1
  H  H91  1  0.927900  0.667600  0.431100  1
  H  H92  1  0.072100  0.332400  0.568900  1
  H  H93  1  0.902400  0.796000  0.583400  1
  H  H94  1  0.097600  0.204000  0.416600  1
  H  H95  1  0.860400  0.692800  0.816800  1
  H  H96  1  0.139600  0.307200  0.183200  1
  H  H97  1  0.774300  0.698300  0.792300  1
  H  H98  1  0.225700  0.301700  0.207700  1
  H  H99  1  0.924100  0.664500  0.735100  1
  H  H100  1  0.075900  0.335500  0.264900  1
  H  H101  1  0.893300  0.607400  0.766600  1
  H  H102  1  0.106700  0.392600  0.233400  1
  H  H103  1  0.792200  0.710800  0.682000  1
  H  H104  1  0.207800  0.289200  0.318000  1
  H  H105  1  0.780200  0.641400  0.708100  1
  H  H106  1  0.219800  0.358600  0.291900  1
  H  H107  1  0.916200  0.647900  0.643200  1
  H  H108  1  0.083800  0.352100  0.356800  1
  H  H109  1  0.844800  0.624600  0.626900  1
  H  H110  1  0.155200  0.375400  0.373100  1
  H  H111  1  0.912500  0.576900  0.673100  1
  H  H112  1  0.087500  0.423100  0.326900  1
  H  H113  1  0.547800  0.891200  0.646200  1
  H  H114  1  0.452200  0.108800  0.353800  1
  H  H115  1  0.268300  0.042300  0.745400  1
  H  H116  1  0.731700  0.957700  0.254600  1
  H  H117  1  0.007600  0.214800  0.903300  1
  H  H118  1  0.992400  0.785200  0.096700  1
  H  H119  1  0.983900  0.165100  0.983200  1
  H  H120  1  0.016100  0.834900  0.016800  1
  H  H121  1  0.020400  0.057400  0.058700  1
  H  H122  1  0.979600  0.942600  0.941300  1
  H  H123  1  0.098400  0.941700  0.089800  1
  H  H124  1  0.901600  0.058300  0.910200  1
  H  H125  1  0.189800  0.874300  0.037000  1
  H  H126  1  0.810200  0.125700  0.963000  1
  H  H127  1  0.263600  0.869200  0.950900  1
  H  H128  1  0.736400  0.130800  0.049100  1
  H  H129  1  0.288800  0.919200  0.869300  1
  H  H130  1  0.711200  0.080800  0.130700  1
  H  H131  1  0.080000  0.208000  0.819300  1
  H  H132  1  0.920000  0.792000  0.180700  1
  H  H133  1  0.170900  0.145600  0.764300  1
  H  H134  1  0.829100  0.854400  0.235700  1
  H  H135  1  0.242900  0.080800  0.473800  1
  H  H136  1  0.757100  0.919200  0.526200  1
  H  H137  1  0.299700  0.081400  0.520600  1
  H  H138  1  0.700300  0.918600  0.479400  1
  H  H139  1  0.331400  0.101400  0.413400  1
  H  H140  1  0.668600  0.898600  0.586600  1
  H  H141  1  0.397400  0.092800  0.458500  1
  H  H142  1  0.602600  0.907200  0.541500  1
  H  H143  1  0.242500  0.206300  0.430100  1
  H  H144  1  0.757500  0.793700  0.569900  1
  H  H145  1  0.295100  0.195700  0.482900  1
  H  H146  1  0.704900  0.804300  0.517100  1
  H  H147  1  0.404000  0.210200  0.434300  1
  H  H148  1  0.596000  0.789800  0.565700  1
  H  H149  1  0.320600  0.274600  0.413900  1
  H  H150  1  0.679400  0.725400  0.586100  1
  H  H151  1  0.356100  0.215800  0.380800  1
  H  H152  1  0.643900  0.784200  0.619200  1
  H  H153  1  0.325700  0.853000  0.541700  1
  H  H154  1  0.674300  0.147000  0.458300  1
  H  H155  1  0.258400  0.896200  0.494600  1
  H  H156  1  0.741600  0.103800  0.505400  1
  H  H157  1  0.866800  0.690900  0.344400  1
  H  H158  1  0.133200  0.309100  0.655600  1
  H  H159  1  0.948200  0.697800  0.320200  1
  H  H160  1  0.051800  0.302200  0.679800  1
  H  H161  1  0.485000  0.807500  0.502600  1
  H  H162  1  0.515000  0.192500  0.497400  1
  H  H163  1  0.463500  0.740100  0.522300  1
  H  H164  1  0.536500  0.259900  0.477700  1
  H  H165  1  0.446600  0.752900  0.421300  1
  H  H166  1  0.553400  0.247100  0.578700  1
  H  H167  1  0.533700  0.706300  0.452400  1
  H  H168  1  0.466300  0.293700  0.547600  1
  H  H169  1  0.517300  0.783000  0.423000  1
  H  H170  1  0.482700  0.217000  0.577000  1
  H  H171  1  0.361900  0.844200  0.432700  1
  H  H172  1  0.638100  0.155800  0.567300  1
  H  H173  1  0.333400  0.789800  0.471000  1
  H  H174  1  0.666600  0.210200  0.529000  1
  H  H175  1  0.883100  0.614500  0.276000  1
  H  H176  1  0.116900  0.385500  0.724000  1
  H  H177  1  0.978800  0.591400  0.263800  1
  H  H178  1  0.021200  0.408600  0.736200  1
  H  H179  1  0.927900  0.667800  0.271000  1
  H  H180  1  0.072100  0.332200  0.729000  1
  H  H181  1  0.934400  0.921900  0.423700  1
  H  H182  1  0.065600  0.078100  0.576300  1
  H  H183  1  0.839700  0.947100  0.408700  1
  H  H184  1  0.160300  0.052900  0.591300  1
  H  H185  1  0.928700  0.570800  0.363500  1
  H  H186  1  0.071300  0.429200  0.636500  1
  H  H187  1  0.020100  0.572400  0.352100  1
  H  H188  1  0.979900  0.427600  0.647900  1
  H  H189  1  0.982300  0.987300  0.350300  1
  H  H190  1  0.017700  0.012700  0.649700  1
  H  H191  1  0.938300  0.065000  0.320100  1
  H  H192  1  0.061700  0.935000  0.679900  1
  H  H193  1  0.896200  0.011400  0.317300  1
  H  H194  1  0.103800  0.988600  0.682700  1
  H  H195  1  0.824700  0.077600  0.382300  1
  H  H196  1  0.175300  0.922400  0.617700  1
  H  H197  1  0.913400  0.050600  0.416700  1
  H  H198  1  0.086600  0.949400  0.583300  1
  H  H199  1  0.654300  0.651400  0.937100  1
  H  H200  1  0.345700  0.348600  0.062900  1
  H  H201  1  0.720200  0.607000  0.984300  1
  H  H202  1  0.279800  0.393000  0.015700  1
  H  H203  1  0.788100  0.629200  0.910400  1
  H  H204  1  0.211900  0.370800  0.089600  1
  H  H205  1  0.741900  0.596700  0.877400  1
  H  H206  1  0.258100  0.403300  0.122600  1
  H  H207  1  0.670700  0.548300  0.162400  1
  H  H208  1  0.329300  0.451700  0.837600  1
  H  H209  1  0.714800  0.480800  0.247500  1
  H  H210  1  0.285200  0.519200  0.752500  1
  H  H211  1  0.915600  0.356900  0.380200  1
  H  H212  1  0.084400  0.643100  0.619800  1
  H  H213  1  0.822000  0.395700  0.306900  1
  H  H214  1  0.178000  0.604300  0.693100  1
  H  H215  1  0.965700  0.375600  0.464100  1
  H  H216  1  0.034300  0.624400  0.535900  1
  H  H217  1  0.956300  0.444600  0.522800  1
  H  H218  1  0.043700  0.555400  0.477200  1
  H  H219  1  0.894700  0.561000  0.547400  1
  H  H220  1  0.105300  0.439000  0.452600  1
  H  H221  1  0.805500  0.676200  0.526300  1
  H  H222  1  0.194500  0.323800  0.473700  1
  H  H223  1  0.711700  0.718300  0.452100  1
  H  H224  1  0.288300  0.281700  0.547900  1
  H  H225  1  0.661900  0.698500  0.367900  1
  H  H226  1  0.338100  0.301500  0.632100  1
  H  H227  1  0.660500  0.626800  0.312800  1
  H  H228  1  0.339500  0.373200  0.687200  1
  H  H229  1  0.469200  0.596100  0.252100  1
  H  H230  1  0.530800  0.403900  0.747900  1
  H  H231  1  0.438900  0.600900  0.095800  1
  H  H232  1  0.561100  0.399100  0.904200  1
  H  H233  1  0.069400  0.730900  0.191600  1
  H  H234  1  0.930600  0.269100  0.808400  1
  H  H235  1  0.123300  0.701600  0.246100  1
  H  H236  1  0.876700  0.298400  0.753900  1
  H  H237  1  0.176100  0.504100  0.210900  1
  H  H238  1  0.823900  0.495900  0.789100  1
  H  H239  1  0.269300  0.488600  0.195300  1
  H  H240  1  0.730700  0.511400  0.804700  1
  H  H241  1  0.271700  0.442600  0.287100  1
  H  H242  1  0.728300  0.557400  0.712900  1
  H  H243  1  0.304300  0.503800  0.281100  1
  H  H244  1  0.695700  0.496200  0.718900  1
  H  H245  1  0.137200  0.518800  0.302900  1
  H  H246  1  0.862800  0.481200  0.697100  1
  H  H247  1  0.171600  0.578700  0.298500  1
  H  H248  1  0.828400  0.421300  0.701500  1
  H  H249  1  0.232600  0.454500  0.381100  1
  H  H250  1  0.767400  0.545500  0.618900  1
  H  H251  1  0.169900  0.526300  0.391500  1
  H  H252  1  0.830100  0.473700  0.608500  1
  H  H253  1  0.262700  0.516700  0.377300  1
  H  H254  1  0.737300  0.483300  0.622700  1
  H  H255  1  0.905600  0.654000  0.107900  1
  H  H256  1  0.094400  0.346000  0.892100  1
  H  H257  1  0.770900  0.722100  0.102200  1
  H  H258  1  0.229100  0.277900  0.897800  1
  H  H259  1  0.721200  0.719900  0.179800  1
  H  H260  1  0.278800  0.280100  0.820200  1
  H  H261  1  0.658500  0.736300  0.255200  1
  H  H262  1  0.341500  0.263700  0.744800  1
  H  H263  1  0.354900  0.781400  0.064600  1
  H  H264  1  0.645100  0.218600  0.935400  1
  H  H265  1  0.295400  0.797200  0.144100  1
  H  H266  1  0.704600  0.202800  0.855900  1
  H  H267  1  0.308500  0.793900  0.239800  1
  H  H268  1  0.691500  0.206100  0.760200  1
  H  H269  1  0.390400  0.780000  0.316200  1
  H  H270  1  0.609600  0.220000  0.683800  1
  H  H271  1  0.533100  0.753700  0.310400  1
  H  H272  1  0.466900  0.246300  0.689600  1
  H  H273  1  0.483500  0.751400  0.011900  1
  H  H274  1  0.516500  0.248600  0.988100  1
  H  H275  1  0.626600  0.723300  0.006800  1
  H  H276  1  0.373400  0.276700  0.993200  1
  H  H277  1  0.851200  0.718100  0.950300  1
  H  H278  1  0.148800  0.281900  0.049700  1
  H  H279  1  0.326500  0.637300  0.715700  1
  H  H280  1  0.673500  0.362700  0.284300  1
  H  H281  1  0.565200  0.550300  0.777200  1
  H  H282  1  0.434800  0.449700  0.222800  1
  H  H283  1  0.377200  0.625600  0.870200  1
  H  H284  1  0.622800  0.374400  0.129800  1
  H  H285  1  0.382400  0.589400  0.656400  1
  H  H286  1  0.617600  0.410600  0.343600  1
  H  H287  1  0.297900  0.615100  0.587300  1
  H  H288  1  0.702100  0.384900  0.412700  1
  H  H289  1  0.210600  0.642400  0.514500  1
  H  H290  1  0.789400  0.357600  0.485500  1
  H  H291  1  0.377300  0.631800  0.321600  1
  H  H292  1  0.622700  0.368200  0.678400  1
  H  H293  1  0.237700  0.661900  0.332200  1
  H  H294  1  0.762300  0.338100  0.667800  1
  H  H295  1  0.183500  0.669400  0.415700  1
  H  H296  1  0.816500  0.330600  0.584300  1
  H  H297  1  0.527800  0.589500  0.361300  1
  H  H298  1  0.472200  0.410500  0.638700  1
  H  H299  1  0.613600  0.564700  0.434800  1
  H  H300  1  0.386400  0.435300  0.565200  1
  H  H301  1  0.640800  0.549400  0.533000  1
  H  H302  1  0.359200  0.450600  0.467000  1
  H  H303  1  0.589300  0.550800  0.616800  1
  H  H304  1  0.410700  0.449200  0.383200  1
  H  H305  1  0.017700  0.623300  0.828800  1
  H  H306  1  0.982300  0.376700  0.171200  1
  H  H307  1  0.073600  0.621200  0.778500  1
  H  H308  1  0.926400  0.378800  0.221500  1
  H  H309  1  0.196500  0.552600  0.830000  1
  H  H310  1  0.803500  0.447400  0.170000  1
  H  H311  1  0.158800  0.579900  0.882400  1
  H  H312  1  0.841200  0.420100  0.117600  1
  H  H313  1  0.049200  0.542900  0.862700  1
  H  H314  1  0.950800  0.457100  0.137300  1
  H  H315  1  0.132200  0.487900  0.894000  1
  H  H316  1  0.867800  0.512100  0.106000  1
  H  H317  1  0.099500  0.500400  0.778900  1
  H  H318  1  0.900500  0.499600  0.221100  1
  H  H319  1  0.093900  0.438800  0.822400  1
  H  H320  1  0.906100  0.561200  0.177600  1
  H  H321  1  0.181600  0.444500  0.810900  1
  H  H322  1  0.818400  0.555500  0.189100  1
  H  H323  1  0.089600  0.834200  0.776100  1
  H  H324  1  0.910400  0.165800  0.223900  1
  H  H325  1  0.997200  0.847900  0.794900  1
  H  H326  1  0.002800  0.152100  0.205100  1
  H  H327  1  0.136100  0.812400  0.861700  1
  H  H328  1  0.863900  0.187600  0.138300  1
  H  H329  1  0.042900  0.829500  0.879100  1
  H  H330  1  0.957100  0.170500  0.120900  1
  H  H331  1  0.084700  0.672000  0.009400  1
  H  H332  1  0.915300  0.328000  0.990600  1
  H  H333  1  0.601600  0.428700  0.995400  1
  H  H334  1  0.398400  0.571300  0.004600  1
  H  H335  1  0.661200  0.421100  0.948200  1
  H  H336  1  0.338800  0.578900  0.051800  1
  H  H337  1  0.000600  0.950500  0.843300  1
  H  H338  1  0.999400  0.049500  0.156700  1
  H  H339  1  0.091900  0.933400  0.864700  1
  H  H340  1  0.908100  0.066600  0.135300  1
  H  H341  1  0.707200  0.281500  0.069400  1
  H  H342  1  0.292800  0.718500  0.930600  1
  H  H343  1  0.649900  0.309000  0.014700  1
  H  H344  1  0.350100  0.691000  0.985300  1
  H  H345  1  0.725600  0.396700  0.053500  1
  H  H346  1  0.274400  0.603300  0.946500  1
  H  H347  1  0.777700  0.374200  0.004100  1
  H  H348  1  0.222300  0.625800  0.995900  1
  H  H349  1  0.907100  0.554300  0.974200  1
  H  H350  1  0.092900  0.445700  0.025800  1
  H  H351  1  0.930000  0.473600  0.989600  1
  H  H352  1  0.070000  0.526400  0.010400  1
  H  H353  1  0.848400  0.524500  0.010200  1
  H  H354  1  0.151600  0.475500  0.989800  1
  H  H355  1  0.872100  0.511900  0.902400  1
  H  H356  1  0.127900  0.488100  0.097600  1
  H  H357  1  0.809400  0.487300  0.938600  1
  H  H358  1  0.190600  0.512700  0.061400  1
  H  H359  1  0.115100  0.939900  0.766400  1
  H  H360  1  0.884900  0.060100  0.233600  1
  H  H361  1  0.094300  0.003500  0.794400  1
  H  H362  1  0.905700  0.996500  0.205600  1
  H  H363  1  0.021900  0.993500  0.764400  1
  H  H364  1  0.978100  0.006500  0.235600  1
  H  H365  1  0.138900  0.867400  0.214200  1
  H  H366  1  0.861100  0.132600  0.785800  1
  H  H367  1  0.056600  0.864900  0.190300  1
  H  H368  1  0.943400  0.135100  0.809700  1
  H  H369  1  0.087600  0.774700  0.279200  1
  H  H370  1  0.912400  0.225300  0.720800  1
  H  H371  1  0.019700  0.850800  0.270500  1
  H  H372  1  0.980300  0.149200  0.729500  1
  H  H373  1  0.110700  0.834300  0.294200  1
  H  H374  1  0.889300  0.165700  0.705800  1
  H  H375  1  0.769000  0.291400  0.965000  1
  H  H376  1  0.231000  0.708600  0.035000  1
  H  H377  1  0.788400  0.220800  0.006000  1
  H  H378  1  0.211600  0.779200  0.994000  1
  H  H379  1  0.827200  0.273900  0.016800  1
  H  H380  1  0.172800  0.726100  0.983200  1
  H  H381  1  0.165100  0.779900  0.155900  1
  H  H382  1  0.834900  0.220100  0.844100  1
  H  H383  1  0.218600  0.751000  0.210700  1
  H  H384  1  0.781400  0.249000  0.789300  1
  H  H385  1  0.213800  0.984100  0.353300  1
  H  H386  1  0.786200  0.015900  0.646700  1
  H  H387  1  0.148600  0.067900  0.399200  1
  H  H388  1  0.851400  0.932100  0.600800  1
  H  H389  1  0.113900  0.858300  0.444400  1
  H  H390  1  0.886100  0.141700  0.555600  1
  H  H391  1  0.250700  0.868800  0.334900  1
  H  H392  1  0.749300  0.131200  0.665100  1
  H  H393  1  0.181400  0.837300  0.349100  1
  H  H394  1  0.818600  0.162700  0.650900  1
  H  H395  1  0.261000  0.814300  0.388400  1
  H  H396  1  0.739000  0.185700  0.611600  1
  H  H397  1  0.054600  0.951900  0.481200  1
  H  H398  1  0.945400  0.048100  0.518800  1
  H  H399  1  0.081900  0.051300  0.481900  1
  H  H400  1  0.918100  0.948700  0.518100  1
  C  C401  1  0.388000  0.943700  0.604700  1
  C  C402  1  0.612000  0.056300  0.395300  1
  C  C403  1  0.423300  0.931700  0.661700  1
  C  C404  1  0.576700  0.068300  0.338300  1
  C  C405  1  0.367400  0.951500  0.700100  1
  C  C406  1  0.632600  0.048500  0.299900  1
  C  C407  1  0.397600  0.943900  0.752800  1
  C  C408  1  0.602400  0.056100  0.247200  1
  C  C409  1  0.484400  0.912700  0.765100  1
  C  C410  1  0.515600  0.087300  0.234900  1
  C  C411  1  0.539100  0.892900  0.725200  1
  C  C412  1  0.460900  0.107100  0.274800  1
  C  C413  1  0.631300  0.861100  0.740400  1
  C  C414  1  0.368700  0.138900  0.259600  1
  C  C415  1  0.812400  0.895800  0.772500  1
  C  C416  1  0.187600  0.104200  0.227500  1
  C  C417  1  0.737000  0.960800  0.766600  1
  C  C418  1  0.263000  0.039200  0.233400  1
  C  C419  1  0.752000  0.024000  0.778100  1
  C  C420  1  0.248000  0.976000  0.221900  1
  C  C421  1  0.783000  0.010000  0.839300  1
  C  C422  1  0.217000  0.990000  0.160700  1
  C  C423  1  0.931700  0.789900  0.687600  1
  C  C424  1  0.068300  0.210100  0.312400  1
  C  C425  1  0.989200  0.785000  0.641600  1
  C  C426  1  0.010800  0.215000  0.358400  1
  C  C427  1  0.071900  0.774500  0.651400  1
  C  C428  1  0.928100  0.225500  0.348600  1
  C  C429  1  0.126300  0.771300  0.610600  1
  C  C430  1  0.873700  0.228700  0.389400  1
  C  C431  1  0.232400  0.790000  0.653100  1
  C  C432  1  0.767600  0.210000  0.346900  1
  C  C433  1  0.317000  0.779000  0.667400  1
  C  C434  1  0.683000  0.221000  0.332600  1
  C  C435  1  0.344000  0.787000  0.715500  1
  C  C436  1  0.656000  0.213000  0.284500  1
  C  C437  1  0.432000  0.761300  0.730500  1
  C  C438  1  0.568000  0.238700  0.269500  1
  C  C439  1  0.458000  0.761400  0.781000  1
  C  C440  1  0.542000  0.238600  0.219000  1
  C  C441  1  0.546000  0.733000  0.797200  1
  C  C442  1  0.454000  0.267000  0.202800  1
  C  C443  1  0.573000  0.736000  0.847600  1
  C  C444  1  0.427000  0.264000  0.152400  1
  C  C445  1  0.515000  0.761000  0.884600  1
  C  C446  1  0.485000  0.239000  0.115400  1
  C  C447  1  0.430000  0.785000  0.869200  1
  C  C448  1  0.570000  0.215000  0.130800  1
  C  C449  1  0.402000  0.785000  0.817500  1
  C  C450  1  0.598000  0.215000  0.182500  1
  C  C451  1  0.314000  0.811400  0.803000  1
  C  C452  1  0.686000  0.188600  0.197000  1
  C  C453  1  0.288000  0.812500  0.754600  1
  C  C454  1  0.712000  0.187500  0.245400  1
  C  C455  1  0.606000  0.704000  0.759700  1
  C  C456  1  0.394000  0.296000  0.240300  1
  C  C457  1  0.581000  0.705000  0.711700  1
  C  C458  1  0.419000  0.295000  0.288300  1
  C  C459  1  0.489000  0.735000  0.695100  1
  C  C460  1  0.511000  0.265000  0.304900  1
  C  C461  1  0.465000  0.733000  0.644000  1
  C  C462  1  0.535000  0.267000  0.356000  1
  C  C463  1  0.378000  0.753100  0.630700  1
  C  C464  1  0.622000  0.246900  0.369300  1
  C  C465  1  0.095500  0.774500  0.559300  1
  C  C466  1  0.904500  0.225500  0.440700  1
  C  C467  1  0.012900  0.783200  0.549600  1
  C  C468  1  0.987100  0.216800  0.450400  1
  C  C469  1  0.982000  0.786500  0.494100  1
  C  C470  1  0.018000  0.213500  0.505900  1
  C  C471  1  0.744000  0.838000  0.362000  1
  C  C472  1  0.256000  0.162000  0.638000  1
  C  C473  1  0.651000  0.867900  0.348800  1
  C  C474  1  0.349000  0.132100  0.651200  1
  C  C475  1  0.593400  0.890800  0.386900  1
  C  C476  1  0.406600  0.109200  0.613100  1
  C  C477  1  0.508200  0.922500  0.370900  1
  C  C478  1  0.491800  0.077500  0.629100  1
  C  C479  1  0.481000  0.931000  0.318700  1
  C  C480  1  0.519000  0.069000  0.681300  1
  C  C481  1  0.538000  0.909300  0.280200  1
  C  C482  1  0.462000  0.090700  0.719800  1
  C  C483  1  0.623000  0.875900  0.295600  1
  C  C484  1  0.377000  0.124100  0.704400  1
  C  C485  1  0.551000  0.918200  0.188800  1
  C  C486  1  0.449000  0.081800  0.811200  1
  C  C487  1  0.521000  0.921700  0.134600  1
  C  C488  1  0.479000  0.078300  0.865400  1
  C  C489  1  0.434000  0.935500  0.125600  1
  C  C490  1  0.566000  0.064500  0.874400  1
  C  C491  1  0.403000  0.939600  0.075500  1
  C  C492  1  0.597000  0.060400  0.924500  1
  C  C493  1  0.453000  0.927500  0.033500  1
  C  C494  1  0.547000  0.072500  0.966500  1
  C  C495  1  0.541000  0.910400  0.041100  1
  C  C496  1  0.459000  0.089600  0.958900  1
  C  C497  1  0.575000  0.909200  0.093100  1
  C  C498  1  0.425000  0.090800  0.906900  1
  C  C499  1  0.665000  0.891800  0.098900  1
  C  C500  1  0.335000  0.108200  0.901100  1
  C  C501  1  0.714000  0.880100  0.057200  1
  C  C502  1  0.286000  0.119900  0.942800  1
  C  C503  1  0.682000  0.882000  0.006000  1
  C  C504  1  0.318000  0.118000  0.994000  1
  C  C505  1  0.595000  0.897100  0.998200  1
  C  C506  1  0.405000  0.102900  0.001800  1
  C  C507  1  0.562000  0.898600  0.948000  1
  C  C508  1  0.438000  0.101400  0.052000  1
  C  C509  1  0.473000  0.915900  0.941200  1
  C  C510  1  0.527000  0.084100  0.058800  1
  C  C511  1  0.422000  0.929200  0.981000  1
  C  C512  1  0.578000  0.070800  0.019000  1
  C  C513  1  0.616000  0.882000  0.907100  1
  C  C514  1  0.384000  0.118000  0.092900  1
  C  C515  1  0.703000  0.867400  0.915200  1
  C  C516  1  0.297000  0.132600  0.084800  1
  C  C517  1  0.734000  0.868500  0.964100  1
  C  C518  1  0.266000  0.131500  0.035900  1
  C  C519  1  0.444000  0.945000  0.410900  1
  C  C520  1  0.556000  0.055000  0.589100  1
  C  C521  1  0.910000  0.894000  0.362300  1
  C  C522  1  0.090000  0.106000  0.637700  1
  C  C523  1  0.949000  0.692000  0.401300  1
  C  C524  1  0.051000  0.308000  0.598700  1
  C  C525  1  0.958500  0.789200  0.590000  1
  C  C526  1  0.041500  0.210800  0.410000  1
  C  C527  1  0.826000  0.705100  0.783600  1
  C  C528  1  0.174000  0.294900  0.216400  1
  C  C529  1  0.874000  0.655000  0.746400  1
  C  C530  1  0.126000  0.345000  0.253600  1
  C  C531  1  0.822000  0.662000  0.697900  1
  C  C532  1  0.178000  0.338000  0.302100  1
  C  C533  1  0.879000  0.624000  0.656200  1
  C  C534  1  0.121000  0.376000  0.343800  1
  C  C535  1  0.510600  0.903000  0.672900  1
  C  C536  1  0.489400  0.097000  0.327100  1
  C  C537  1  0.278000  0.020000  0.781300  1
  C  C538  1  0.722000  0.980000  0.218700  1
  C  C539  1  0.214000  0.052700  0.818000  1
  C  C540  1  0.786000  0.947300  0.182000  1
  C  C541  1  0.203400  0.017700  0.869500  1
  C  C542  1  0.796600  0.982300  0.130500  1
  C  C543  1  0.142000  0.057600  0.900000  1
  C  C544  1  0.858000  0.942400  0.100000  1
  C  C545  1  0.094000  0.130100  0.881000  1
  C  C546  1  0.906000  0.869900  0.119000  1
  C  C547  1  0.038000  0.167000  0.915400  1
  C  C548  1  0.962000  0.833000  0.084600  1
  C  C549  1  0.025000  0.139000  0.963300  1
  C  C550  1  0.975000  0.861000  0.036700  1
  C  C551  1  0.073000  0.066000  0.985700  1
  C  C552  1  0.927000  0.934000  0.014300  1
  C  C553  1  0.060000  0.032000  0.037400  1
  C  C554  1  0.940000  0.968000  0.962600  1
  C  C555  1  0.105000  0.963000  0.055400  1
  C  C556  1  0.895000  0.037000  0.944600  1
  C  C557  1  0.162000  0.922000  0.024300  1
  C  C558  1  0.838000  0.078000  0.975700  1
  C  C559  1  0.175000  0.953600  0.973600  1
  C  C560  1  0.825000  0.046400  0.026400  1
  C  C561  1  0.234000  0.917000  0.938800  1
  C  C562  1  0.766000  0.083000  0.061200  1
  C  C563  1  0.249000  0.945900  0.889600  1
  C  C564  1  0.751000  0.054100  0.110400  1
  C  C565  1  0.130000  0.024000  0.952600  1
  C  C566  1  0.870000  0.976000  0.047400  1
  C  C567  1  0.109000  0.160400  0.831500  1
  C  C568  1  0.891000  0.839600  0.168500  1
  C  C569  1  0.165000  0.123800  0.798800  1
  C  C570  1  0.835000  0.876200  0.201200  1
  C  C571  1  0.301000  0.067900  0.486300  1
  C  C572  1  0.699000  0.932100  0.513700  1
  C  C573  1  0.337000  0.109400  0.448900  1
  C  C574  1  0.663000  0.890600  0.551100  1
  C  C575  1  0.299000  0.187600  0.446700  1
  C  C576  1  0.701000  0.812400  0.553300  1
  C  C577  1  0.349000  0.225000  0.416200  1
  C  C578  1  0.651000  0.775000  0.583800  1
  C  C579  1  0.318000  0.877000  0.504500  1
  C  C580  1  0.682000  0.123000  0.495500  1
  C  C581  1  0.928000  0.673000  0.349600  1
  C  C582  1  0.072000  0.327000  0.650400  1
  C  C583  1  0.459000  0.778000  0.492400  1
  C  C584  1  0.541000  0.222000  0.507600  1
  C  C585  1  0.492000  0.753000  0.443000  1
  C  C586  1  0.508000  0.247000  0.557000  1
  C  C587  1  0.363000  0.821000  0.470000  1
  C  C588  1  0.637000  0.179000  0.530000  1
  C  C589  1  0.935000  0.620000  0.283000  1
  C  C590  1  0.065000  0.380000  0.717000  1
  C  C591  1  0.893000  0.946000  0.394000  1
  C  C592  1  0.107000  0.054000  0.606000  1
  C  C593  1  0.960000  0.597000  0.344000  1
  C  C594  1  0.040000  0.403000  0.656000  1
  C  C595  1  0.929000  0.025000  0.340000  1
  C  C596  1  0.071000  0.975000  0.660000  1
  C  C597  1  0.882000  0.043000  0.389000  1
  C  C598  1  0.118000  0.957000  0.611000  1
  C  C599  1  0.696000  0.605000  0.950800  1
  C  C600  1  0.304000  0.395000  0.049200  1
  C  C601  1  0.765000  0.593000  0.912700  1
  C  C602  1  0.235000  0.407000  0.087300  1
  C  C603  1  0.597800  0.559000  0.069500  1
  C  C604  1  0.402200  0.441000  0.930500  1
  C  C605  1  0.559800  0.573100  0.121500  1
  C  C606  1  0.440200  0.426900  0.878500  1
  C  C607  1  0.612900  0.561700  0.165800  1
  C  C608  1  0.387100  0.438300  0.834200  1
  C  C609  1  0.579000  0.570300  0.215800  1
  C  C610  1  0.421000  0.429700  0.784200  1
  C  C611  1  0.699100  0.510000  0.272000  1
  C  C612  1  0.300900  0.490000  0.728000  1
  C  C613  1  0.758500  0.492400  0.319100  1
  C  C614  1  0.241500  0.507600  0.680900  1
  C  C615  1  0.754500  0.538500  0.353200  1
  C  C616  1  0.245500  0.461500  0.646800  1
  C  C617  1  0.811500  0.513400  0.398700  1
  C  C618  1  0.188500  0.486600  0.601300  1
  C  C619  1  0.871000  0.444900  0.409400  1
  C  C620  1  0.129000  0.555100  0.590600  1
  C  C621  1  0.874900  0.401900  0.374100  1
  C  C622  1  0.125100  0.598100  0.625900  1
  C  C623  1  0.819000  0.425500  0.329900  1
  C  C624  1  0.181000  0.574500  0.670100  1
  C  C625  1  0.926000  0.421000  0.457000  1
  C  C626  1  0.074000  0.579000  0.543000  1
  C  C627  1  0.921000  0.462200  0.491600  1
  C  C628  1  0.079000  0.537800  0.508400  1
  C  C629  1  0.863800  0.532500  0.481100  1
  C  C630  1  0.136200  0.467500  0.518900  1
  C  C631  1  0.860000  0.578000  0.516000  1
  C  C632  1  0.140000  0.422000  0.484000  1
  C  C633  1  0.805000  0.646000  0.503900  1
  C  C634  1  0.195000  0.354000  0.496100  1
  C  C635  1  0.750000  0.672000  0.458800  1
  C  C636  1  0.250000  0.328000  0.541200  1
  C  C637  1  0.750000  0.628600  0.422900  1
  C  C638  1  0.250000  0.371400  0.577100  1
  C  C639  1  0.807700  0.559300  0.434200  1
  C  C640  1  0.192300  0.440700  0.565800  1
  C  C641  1  0.698000  0.652000  0.376500  1
  C  C642  1  0.302000  0.348000  0.623500  1
  C  C643  1  0.697900  0.609300  0.342800  1
  C  C644  1  0.302100  0.390700  0.657200  1
  C  C645  1  0.492600  0.590100  0.219300  1
  C  C646  1  0.507400  0.409900  0.780700  1
  C  C647  1  0.441400  0.600800  0.175700  1
  C  C648  1  0.558600  0.399200  0.824300  1
  C  C649  1  0.474300  0.592900  0.125600  1
  C  C650  1  0.525700  0.407100  0.874400  1
  C  C651  1  0.350100  0.615300  0.182600  1
  C  C652  1  0.649900  0.384700  0.817400  1
  C  C653  1  0.127000  0.712000  0.207500  1
  C  C654  1  0.873000  0.288000  0.792500  1
  C  C655  1  0.225000  0.515600  0.215400  1
  C  C656  1  0.775000  0.484400  0.784600  1
  C  C657  1  0.255000  0.492700  0.275800  1
  C  C658  1  0.745000  0.507300  0.724200  1
  C  C659  1  0.187000  0.529000  0.309100  1
  C  C660  1  0.813000  0.471000  0.690900  1
  C  C661  1  0.216000  0.504000  0.370800  1
  C  C662  1  0.784000  0.496000  0.629200  1
  C  C663  1  0.064000  0.640300  0.113500  1
  C  C664  1  0.936000  0.359700  0.886500  1
  C  C665  1  0.005100  0.661100  0.066800  1
  C  C666  1  0.994900  0.338900  0.933200  1
  C  C667  1  0.921900  0.666300  0.073600  1
  C  C668  1  0.078100  0.333700  0.926400  1
  C  C669  1  0.863700  0.688700  0.031300  1
  C  C670  1  0.136300  0.311300  0.968700  1
  C  C671  1  0.740000  0.714800  0.075800  1
  C  C672  1  0.260000  0.285200  0.924200  1
  C  C673  1  0.650000  0.727200  0.083600  1
  C  C674  1  0.350000  0.272800  0.916400  1
  C  C675  1  0.616000  0.735200  0.133000  1
  C  C676  1  0.384000  0.264800  0.867000  1
  C  C677  1  0.664000  0.730000  0.180700  1
  C  C678  1  0.336000  0.270000  0.819300  1
  C  C679  1  0.626000  0.739400  0.225400  1
  C  C680  1  0.374000  0.260600  0.774600  1
  C  C681  1  0.538000  0.754200  0.231500  1
  C  C682  1  0.462000  0.245800  0.768500  1
  C  C683  1  0.488000  0.760500  0.184700  1
  C  C684  1  0.512000  0.239500  0.815300  1
  C  C685  1  0.528000  0.751700  0.137000  1
  C  C686  1  0.472000  0.248300  0.863000  1
  C  C687  1  0.477000  0.757800  0.090200  1
  C  C688  1  0.523000  0.242200  0.909800  1
  C  C689  1  0.389000  0.775800  0.094500  1
  C  C690  1  0.611000  0.224200  0.905500  1
  C  C691  1  0.353000  0.785200  0.142400  1
  C  C692  1  0.647000  0.214800  0.857600  1
  C  C693  1  0.402000  0.777100  0.189200  1
  C  C694  1  0.598000  0.222900  0.810800  1
  C  C695  1  0.366000  0.784000  0.237600  1
  C  C696  1  0.634000  0.216000  0.762400  1
  C  C697  1  0.415000  0.775000  0.283600  1
  C  C698  1  0.585000  0.225000  0.716400  1
  C  C699  1  0.500000  0.760100  0.279900  1
  C  C700  1  0.500000  0.239900  0.720100  1
  C  C701  1  0.516000  0.747400  0.042100  1
  C  C702  1  0.484000  0.252600  0.957900  1
  C  C703  1  0.601000  0.731300  0.038800  1
  C  C704  1  0.399000  0.268700  0.961200  1
  C  C705  1  0.889500  0.704100  0.979600  1
  C  C706  1  0.110500  0.295900  0.020400  1
  C  C707  1  0.971600  0.698500  0.972100  1
  C  C708  1  0.028400  0.301500  0.027900  1
  C  C709  1  0.998000  0.714000  0.915800  1
  C  C710  1  0.002000  0.286000  0.084200  1
  C  C711  1  0.246300  0.669100  0.799200  1
  C  C712  1  0.753700  0.330900  0.200800  1
  C  C713  1  0.337600  0.635600  0.794900  1
  C  C714  1  0.662400  0.364400  0.205100  1
  C  C715  1  0.365600  0.623100  0.744700  1
  C  C716  1  0.634400  0.376900  0.255300  1
  C  C717  1  0.451400  0.589600  0.737400  1
  C  C718  1  0.548600  0.410400  0.262600  1
  C  C719  1  0.507700  0.572200  0.781100  1
  C  C720  1  0.492300  0.427800  0.218900  1
  C  C721  1  0.481100  0.586400  0.830000  1
  C  C722  1  0.518900  0.413600  0.170000  1
  C  C723  1  0.395400  0.617300  0.836700  1
  C  C724  1  0.604600  0.382700  0.163300  1
  C  C725  1  0.546000  0.567700  0.876200  1
  C  C726  1  0.454000  0.432300  0.123800  1
  C  C727  1  0.438000  0.583800  0.650000  1
  C  C728  1  0.562000  0.416200  0.350000  1
  C  C729  1  0.465000  0.581500  0.594000  1
  C  C730  1  0.535000  0.418500  0.406000  1
  C  C731  1  0.409000  0.597800  0.550400  1
  C  C732  1  0.591000  0.402200  0.449600  1
  C  C733  1  0.320000  0.615000  0.553800  1
  C  C734  1  0.680000  0.385000  0.446200  1
  C  C735  1  0.268000  0.632000  0.509900  1
  C  C736  1  0.732000  0.368000  0.490100  1
  C  C737  1  0.296000  0.634000  0.457400  1
  C  C738  1  0.704000  0.366000  0.542600  1
  C  C739  1  0.384000  0.615200  0.451800  1
  C  C740  1  0.616000  0.384800  0.548200  1
  C  C741  1  0.417000  0.612900  0.400400  1
  C  C742  1  0.583000  0.387100  0.599600  1
  C  C743  1  0.358000  0.632000  0.355900  1
  C  C744  1  0.642000  0.368000  0.644100  1
  C  C745  1  0.274000  0.651000  0.362100  1
  C  C746  1  0.726000  0.349000  0.637900  1
  C  C747  1  0.242000  0.654000  0.412400  1
  C  C748  1  0.758000  0.346000  0.587600  1
  C  C749  1  0.506000  0.592300  0.394700  1
  C  C750  1  0.494000  0.407700  0.605300  1
  C  C751  1  0.556000  0.576900  0.439200  1
  C  C752  1  0.444000  0.423100  0.560800  1
  C  C753  1  0.529000  0.577800  0.492200  1
  C  C754  1  0.471000  0.422200  0.507800  1
  C  C755  1  0.583000  0.561300  0.536900  1
  C  C756  1  0.417000  0.438700  0.463100  1
  C  C757  1  0.552000  0.562600  0.587100  1
  C  C758  1  0.448000  0.437400  0.412900  1
  C  C759  1  0.440000  0.596600  0.498300  1
  C  C760  1  0.560000  0.403400  0.501700  1
  C  C761  1  0.071000  0.624700  0.815900  1
  C  C762  1  0.929000  0.375300  0.184100  1
  C  C763  1  0.146000  0.567000  0.850000  1
  C  C764  1  0.854000  0.433000  0.150000  1
  C  C765  1  0.109000  0.519000  0.860000  1
  C  C766  1  0.891000  0.481000  0.140000  1
  C  C767  1  0.122000  0.470000  0.813000  1
  C  C768  1  0.878000  0.530000  0.187000  1
  C  C769  1  0.057000  0.823200  0.805400  1
  C  C770  1  0.943000  0.176800  0.194600  1
  C  C771  1  0.077000  0.840000  0.850400  1
  C  C772  1  0.923000  0.160000  0.149600  1
  C  C773  1  0.029100  0.676600  0.015000  1
  C  C774  1  0.970900  0.323400  0.985000  1
  C  C775  1  0.653000  0.434200  0.982900  1
  C  C776  1  0.347000  0.565800  0.017100  1
  C  C777  1  0.060000  0.927000  0.836800  1
  C  C778  1  0.940000  0.073000  0.163200  1
  C  C779  1  0.703000  0.303000  0.032000  1
  C  C780  1  0.297000  0.697000  0.968000  1
  C  C781  1  0.724000  0.382000  0.020200  1
  C  C782  1  0.276000  0.618000  0.979800  1
  C  C783  1  0.885000  0.518000  0.981000  1
  C  C784  1  0.115000  0.482000  0.019000  1
  C  C785  1  0.834000  0.522000  0.931000  1
  C  C786  1  0.166000  0.478000  0.069000  1
  C  C787  1  0.074000  0.970000  0.786000  1
  C  C788  1  0.926000  0.030000  0.214000  1
  C  C789  1  0.106000  0.839000  0.215000  1
  C  C790  1  0.894000  0.161000  0.785000  1
  C  C791  1  0.079000  0.823000  0.269000  1
  C  C792  1  0.921000  0.177000  0.731000  1
  C  C793  1  0.779000  0.269000  0.002000  1
  C  C794  1  0.221000  0.731000  0.998000  1
  C  C795  1  0.162000  0.769000  0.194000  1
  C  C796  1  0.838000  0.231000  0.806000  1
  C  C797  1  0.182000  0.974000  0.382000  1
  C  C798  1  0.818000  0.026000  0.618000  1
  C  C799  1  0.144000  0.025000  0.412000  1
  C  C800  1  0.856000  0.975000  0.588000  1
  C  C801  1  0.125000  0.898000  0.434000  1
  C  C802  1  0.875000  0.102000  0.566000  1
  C  C803  1  0.176000  0.910000  0.391000  1
  C  C804  1  0.824000  0.090000  0.609000  1
  C  C805  1  0.221000  0.852000  0.363000  1
  C  C806  1  0.779000  0.148000  0.637000  1
  C  C807  1  0.094000  0.958000  0.457000  1
  C  C808  1  0.906000  0.042000  0.543000  1
  C  C809  1  0.101000  0.021000  0.458000  1
  C  C810  1  0.899000  0.979000  0.542000  1
  N  N811  1  0.211700  0.759600  0.618100  1
  N  N812  1  0.788300  0.240400  0.381900  1
  N  N813  1  0.503200  0.919100  0.228000  1
  N  N814  1  0.496800  0.080900  0.772000  1
  N  N815  1  0.343300  0.965000  0.793500  1
  N  N816  1  0.656700  0.035000  0.206500  1
  N  N817  1  0.627900  0.561800  0.262000  1
  N  N818  1  0.372100  0.438200  0.738000  1
  N  N819  1  0.779000  0.694500  0.035200  1
  N  N820  1  0.221000  0.305500  0.964800  1
  N  N821  1  0.484700  0.578700  0.687900  1
  N  N822  1  0.515300  0.421300  0.312100  1
  O  O823  1  0.440700  0.932100  0.567600  1
  O  O824  1  0.559300  0.067900  0.432400  1
  O  O825  1  0.311100  0.963900  0.594600  1
  O  O826  1  0.688900  0.036100  0.405400  1
  O  O827  1  0.852200  0.810600  0.675400  1
  O  O828  1  0.147800  0.189400  0.324600  1
  O  O829  1  0.961700  0.772900  0.734200  1
  O  O830  1  0.038300  0.227100  0.265800  1
  O  O831  1  0.769800  0.829700  0.411300  1
  O  O832  1  0.230200  0.170300  0.588700  1
  O  O833  1  0.368000  0.970900  0.398600  1
  O  O834  1  0.632000  0.029100  0.601400  1
  O  O835  1  0.472400  0.933100  0.460600  1
  O  O836  1  0.527600  0.066900  0.539400  1
  O  O837  1  0.903700  0.800100  0.484100  1
  O  O838  1  0.096300  0.199900  0.515900  1
  O  O839  1  0.033900  0.773400  0.458100  1
  O  O840  1  0.966100  0.226600  0.541900  1
  O  O841  1  0.659800  0.843500  0.787800  1
  O  O842  1  0.340200  0.156500  0.212200  1
  O  O843  1  0.683400  0.851500  0.702400  1
  O  O844  1  0.316600  0.148500  0.297600  1
  O  O845  1  0.795600  0.822600  0.327900  1
  O  O846  1  0.204400  0.177400  0.672100  1
  O  O847  1  0.547900  0.577100  0.027800  1
  O  O848  1  0.452100  0.422900  0.972200  1
  O  O849  1  0.675200  0.529800  0.067500  1
  O  O850  1  0.324800  0.470200  0.932500  1
  O  O851  1  0.321400  0.613300  0.228500  1
  O  O852  1  0.678600  0.386700  0.771500  1
  O  O853  1  0.299000  0.626700  0.142000  1
  O  O854  1  0.701000  0.373300  0.858000  1
  O  O855  1  0.138300  0.639700  0.105500  1
  O  O856  1  0.861700  0.360300  0.894500  1
  O  O857  1  0.043600  0.627800  0.160000  1
  O  O858  1  0.956400  0.372200  0.840000  1
  O  O859  1  0.078300  0.700200  0.910900  1
  O  O860  1  0.921700  0.299800  0.089100  1
  O  O861  1  0.193900  0.690000  0.760100  1
  O  O862  1  0.806100  0.310000  0.239900  1
  O  O863  1  0.218700  0.677400  0.846500  1
  O  O864  1  0.781300  0.322600  0.153500  1
  O  O865  1  0.517900  0.581600  0.921100  1
  O  O866  1  0.482100  0.418400  0.078900  1
  O  O867  1  0.622100  0.539900  0.869600  1
  O  O868  1  0.377900  0.460100  0.130400  1
  O  O869  1  0.946600  0.740600  0.876900  1
  O  O870  1  0.053400  0.259400  0.123100  1
