
#######################################################################
#
#                 Cambridge Crystallographic Data Centre
#                                CCDC 
#
#######################################################################
#
# If this CIF has been generated from an entry in the Cambridge 
# Structural Database, then it will include bibliographic, chemical, 
# crystal, experimental, refinement or atomic coordinate data resulting 
# from the CCDC's data processing and validation procedures.
#
#######################################################################

data_WOQSIG
_chemical_formula_moiety         'C288 H240 Ag6 N72 Ru4 14+,14(F6 P1 1-)'
_chemical_name_systematic        
"dodecakis(\m-2,2'-(1,4-phenylenebis(methylene-1H-pyrazole-1,3-diyl))dipyridine)-tetra-ruthenium(ii)-hexa-silver tetradecakis(hexafluorophosphate) unknown solvate"
_symmetry_cell_setting           monoclinic
_symmetry_space_group_name_H-M   'P 2/n'
_symmetry_Int_Tables_number      13
_space_group_name_Hall           '-P 2yac'
loop_
_symmetry_equiv_pos_site_id
_symmetry_equiv_pos_as_xyz
1 x,y,z
2 1/2-x,y,1/2-z
3 -x,-y,-z
4 1/2+x,-y,1/2+z
_cell_length_a                   24.688(3)
_cell_length_b                   30.324(4)
_cell_length_c                   25.247(3)
_cell_angle_alpha                90
_cell_angle_beta                 102.819(2)
_cell_angle_gamma                90
_cell_volume                     18429.8
_exptl_crystal_colour            yellow
_exptl_crystal_description       Block
_cell_formula_units_Z            2
loop_
_atom_site_label
_atom_site_type_symbol
_atom_site_fract_x
_atom_site_fract_y
_atom_site_fract_z
Ru1 Ru 0.01158(4) 0.39023(3) 0.23682(4)
Ru2 Ru 0.25670(4) 0.10785(4) 0.49407(5)
Ag1 Ag -0.04020(6) 0.25644(6) 0.53558(6)
Ag2 Ag 0.2500 -0.11542(5) 0.2500
Ag3 Ag 0.2500 0.61465(5) 0.2500
Ag4 Ag 0.60023(6) 0.24823(3) 0.59156(6)
N1 N 0.0123(3) 0.4565(3) 0.2168(4)
C1 C 0.0276(4) 0.4651(3) 0.1681(3)
C2 C 0.0293(4) 0.5083(4) 0.1501(3)
H1 H 0.0398 0.5142 0.1168
C3 C 0.0157(4) 0.5429(3) 0.1809(4)
H2 H 0.0169 0.5724 0.1686
C4 C 0.0004(4) 0.5343(3) 0.2296(4)
H3 H -0.0088 0.5579 0.2507
C5 C -0.0013(3) 0.4911(3) 0.2476(3)
H4 H -0.0117 0.4852 0.2809
N2 N 0.0676(4) 0.3579(3) 0.1360(4)
N3 N 0.0465(4) 0.3890(3) 0.1684(3)
C6 C 0.0414(4) 0.4302(3) 0.1410(4)
C7 C 0.0594(4) 0.4246(3) 0.0917(4)
H5 H 0.0604 0.4468 0.0655
C8 C 0.0755(4) 0.3799(4) 0.0887(3)
H6 H 0.0893 0.3669 0.0600
C9 C 0.0717(6) 0.3147(5) 0.1519(6)
H7 H 0.0710 0.3130 0.1909
H8 H 0.1079 0.3030 0.1477
C10 C 0.0280(4) 0.2871(3) 0.1216(4)
C11 C -0.0201(4) 0.3030(3) 0.0874(4)
H9 H -0.0242 0.3338 0.0802
C12 C -0.0621(3) 0.2740(3) 0.0637(4)
H10 H -0.0950 0.2849 0.0404
C13 C -0.0561(4) 0.2291(3) 0.0743(4)
C14 C -0.0080(4) 0.2132(3) 0.1085(4)
H11 H -0.0039 0.1825 0.1157
C15 C 0.0340(3) 0.2422(3) 0.1321(4)
H12 H 0.0669 0.2313 0.1555
N4 N -0.0795(4) 0.1947(2) -0.1490(4)
C16 C -0.0568(4) 0.1561(3) -0.1238(3)
C17 C -0.0331(4) 0.1253(2) -0.1526(4)
H13 H -0.0175 0.0989 -0.1353
C18 C -0.0321(4) 0.1331(3) -0.2066(4)
H14 H -0.0159 0.1121 -0.2263
C19 C -0.0548(4) 0.1717(3) -0.2318(3)
H15 H -0.0541 0.1771 -0.2687
C20 C -0.0785(4) 0.2025(2) -0.2030(4)
H16 H -0.0941 0.2289 -0.2203
N5 N -0.0864(4) 0.1691(3) 0.0110(3)
N6 N -0.0838(4) 0.1843(2) -0.0416(4)
C21 C -0.0621(4) 0.1497(3) -0.0686(3)
C22 C -0.0513(4) 0.1131(2) -0.0328(4)
H17 H -0.0366 0.0854 -0.0404
C23 C -0.0663(4) 0.1251(3) 0.0164(4)
H18 H -0.0634 0.1068 0.0475
C24 C -0.1018(6) 0.1946(5) 0.0469(7)
H19 H -0.1114 0.1759 0.0756
H20 H -0.1358 0.2108 0.0289
N7 N -0.0227(3) 0.4004(3) 0.3046(3)
C25 C 0.0139(2) 0.4162(3) 0.3507(3)
C26 C -0.0055(3) 0.4272(3) 0.3966(3)
H21 H 0.0195 0.4381 0.4281
C27 C -0.0616(3) 0.4223(3) 0.3965(3)
H22 H -0.0748 0.4298 0.4279
C28 C -0.0981(2) 0.4065(3) 0.3505(3)
H23 H -0.1364 0.4031 0.3504
C29 C -0.0787(3) 0.3955(3) 0.3045(3)
H24 H -0.1037 0.3847 0.2731
N8 N 0.0794(3) 0.4030(3) 0.2984(3)
N9 N 0.1380(3) 0.4041(3) 0.3047(3)
C30 C 0.1616(2) 0.4200(3) 0.3577(3)
H25 H 0.2001 0.4241 0.3728
C31 C 0.1176(3) 0.4288(3) 0.3841(3)
H26 H 0.1215 0.4398 0.4200
C32 C 0.0668(2) 0.4183(3) 0.3474(3)
C33 C 0.1659(5) 0.3941(4) 0.2627(5)
H27 H 0.1454 0.3704 0.2396
H28 H 0.2035 0.3829 0.2791
C34 C 0.1707(3) 0.4342(2) 0.2273(3)
C35 C 0.1643(3) 0.4771(3) 0.2441(3)
H29 H 0.1551 0.4824 0.2782
C36 C 0.1714(3) 0.5124(2) 0.2111(3)
H30 H 0.1670 0.5418 0.2226
C37 C 0.1848(3) 0.5047(2) 0.1613(3)
C38 C 0.1912(3) 0.4618(3) 0.1445(3)
H31 H 0.2004 0.4565 0.1104
C39 C 0.1842(3) 0.4265(2) 0.1775(3)
H32 H 0.1886 0.3971 0.1659
N10 N 0.3421(3) 0.6301(3) 0.2507(4)
C40 C 0.3645(3) 0.6122(3) 0.2097(3)
C41 C 0.4187(3) 0.6223(3) 0.2068(3)
H33 H 0.4341 0.6100 0.1788
C42 C 0.4505(3) 0.6503(3) 0.2450(4)
H34 H 0.4875 0.6572 0.2431
C43 C 0.4280(3) 0.6683(3) 0.2861(3)
H35 H 0.4497 0.6874 0.3122
C44 C 0.3738(3) 0.6582(3) 0.2889(3)
H36 H 0.3585 0.6704 0.3170
N11 N 0.2478(2) 0.5535(3) 0.1321(3)
N12 N 0.2735(3) 0.5827(3) 0.1742(3)
C45 C 0.3304(3) 0.5865(3) 0.1727(3)
C46 C 0.3400(3) 0.5596(3) 0.1296(4)
H37 H 0.3745 0.5559 0.1194
C47 C 0.2890(3) 0.5393(3) 0.1045(3)
H38 H 0.2834 0.5196 0.0745
C48 C 0.1915(5) 0.5432(5) 0.1236(5)
H39 H 0.1769 0.5347 0.0852
H40 H 0.1704 0.5691 0.1317
N13 N -0.0655(3) 0.3787(3) 0.1848(3)
C49 C -0.0866(3) 0.3362(3) 0.1856(3)
C50 C -0.1374(3) 0.3254(2) 0.1519(4)
H41 H -0.1518 0.2964 0.1524
C51 C -0.1671(3) 0.3571(3) 0.1175(3)
H42 H -0.2019 0.3497 0.0945
C52 C -0.1460(3) 0.3995(3) 0.1167(3)
H43 H -0.1664 0.4211 0.0932
C53 C -0.0952(3) 0.4103(2) 0.1504(3)
H44 H -0.0808 0.4393 0.1499
N14 N 0.0302(3) 0.2873(3) 0.2735(3)
N15 N 0.0004(3) 0.3236(2) 0.2458(3)
C54 C -0.0528(3) 0.3084(3) 0.2183(4)
C55 C -0.0559(3) 0.2626(3) 0.2290(4)
H45 H -0.0868 0.2439 0.2157
C56 C -0.0046(4) 0.2495(2) 0.2631(4)
H46 H 0.0048 0.2206 0.2766
C57 C 0.0804(5) 0.2932(5) 0.3113(5)
H47 H 0.1019 0.3164 0.2974
H48 H 0.1020 0.2655 0.3134
C58 C 0.0759(3) 0.3056(3) 0.3675(3)
C59 C 0.0272(3) 0.3028(3) 0.3863(3)
H49 H -0.0060 0.2924 0.3630
C60 C 0.0270(3) 0.3152(4) 0.4393(3)
H50 H -0.0063 0.3132 0.4522
C61 C 0.0755(4) 0.3304(4) 0.4734(3)
C62 C 0.1242(3) 0.3332(3) 0.4546(3)
H51 H 0.1574 0.3435 0.4779
C63 C 0.1244(3) 0.3208(3) 0.4016(3)
H52 H 0.1577 0.3227 0.3888
N16 N -0.0018(4) 0.2030(3) 0.5991(3)
C64 C 0.0534(4) 0.2086(3) 0.6258(4)
C65 C 0.0782(3) 0.1789(4) 0.6658(4)
H53 H 0.1159 0.1827 0.6841
C66 C 0.0478(4) 0.1436(3) 0.6791(3)
H54 H 0.0647 0.1233 0.7065
C67 C -0.0074(4) 0.1381(3) 0.6524(4)
H55 H -0.0282 0.1140 0.6615
C68 C -0.0322(3) 0.1678(3) 0.6124(4)
H56 H -0.0699 0.1640 0.5941
N17 N 0.0904(4) 0.3085(3) 0.5679(3)
N18 N 0.0512(3) 0.2760(3) 0.5749(4)
C69 C 0.0801(4) 0.2426(3) 0.6094(4)
C70 C 0.1371(4) 0.2545(3) 0.6237(4)
H57 H 0.1659 0.2381 0.6464
C71 C 0.1435(3) 0.2952(3) 0.5981(4)
H58 H 0.1773 0.3109 0.6006
C72 C 0.0737(6) 0.3445(5) 0.5329(5)
H59 H 0.0988 0.3698 0.5443
H60 H 0.0355 0.3535 0.5344
N19 N 0.3126(3) 0.1215(3) 0.5676(3)
C73 C 0.3143(3) 0.1649(3) 0.5855(3)
C74 C 0.3496(3) 0.1768(2) 0.6343(4)
H61 H 0.3507 0.2065 0.6465
C75 C 0.3834(3) 0.1452(3) 0.6652(3)
H62 H 0.4076 0.1533 0.6985
C76 C 0.3818(3) 0.1018(3) 0.6473(3)
H63 H 0.4048 0.0802 0.6684
C77 C 0.3464(3) 0.0899(2) 0.5985(4)
H64 H 0.3453 0.0602 0.5863
N20 N 0.2215(3) 0.2103(3) 0.4709(3)
N21 N 0.2507(3) 0.1749(2) 0.5014(3)
C78 C 0.2797(3) 0.1919(3) 0.5522(3)
C79 C 0.2683(4) 0.2378(3) 0.5532(3)
H65 H 0.2824 0.2574 0.5823
C80 C 0.2324(4) 0.2492(2) 0.5030(4)
H66 H 0.2181 0.2777 0.4926
C81 C 0.1846(5) 0.2044(5) 0.4206(6)
H67 H 0.1986 0.1803 0.4008
H68 H 0.1838 0.2317 0.3989
C82 C 0.1251(2) 0.1934(3) 0.4254(4)
C83 C 0.0881(3) 0.1796(3) 0.3785(3)
H69 H 0.1003 0.1763 0.3456
C84 C 0.0331(3) 0.1706(3) 0.3797(3)
H70 H 0.0078 0.1612 0.3476
C85 C 0.0152(2) 0.1754(3) 0.4278(4)
C86 C 0.0522(3) 0.1892(3) 0.4748(3)
H71 H 0.0400 0.1924 0.5076
C87 C 0.1071(3) 0.1981(3) 0.4736(3)
H72 H 0.1324 0.2075 0.5056
N22 N -0.1000(3) 0.3145(3) 0.4985(4)
C88 C -0.1285(4) 0.3092(3) 0.4448(4)
C89 C -0.1659(3) 0.3412(3) 0.4200(3)
H73 H -0.1854 0.3376 0.3834
C90 C -0.1747(3) 0.3786(3) 0.4488(4)
H74 H -0.2002 0.4006 0.4319
C91 C -0.1461(4) 0.3840(3) 0.5025(4)
H75 H -0.1521 0.4095 0.5221
C92 C -0.1088(3) 0.3519(3) 0.5273(3)
H76 H -0.0893 0.3555 0.5639
N23 N -0.0782(3) 0.2047(3) 0.4109(4)
N24 N -0.0836(3) 0.2383(3) 0.4485(3)
C93 C -0.1152(4) 0.2732(3) 0.4193(4)
C94 C -0.1293(4) 0.2611(3) 0.3636(4)
H77 H -0.1504 0.2783 0.3348
C95 C -0.1065(4) 0.2187(3) 0.3584(3)
H78 H -0.1096 0.2026 0.3256
C96 C -0.0471(5) 0.1691(5) 0.4297(6)
H79 H -0.0621 0.1430 0.4077
H80 H -0.0497 0.1633 0.4677
N25 N 0.2741(3) 0.0393(2) 0.4967(4)
C97 C 0.3218(3) 0.0262(3) 0.4803(4)
C98 C 0.3363(3) -0.0181(3) 0.4816(4)
H81 H 0.3689 -0.0270 0.4704
C99 C 0.3032(4) -0.0494(2) 0.4994(4)
H82 H 0.3132 -0.0796 0.5004
C100 C 0.2556(3) -0.0363(3) 0.5159(4)
H83 H 0.2329 -0.0576 0.5281
C101 C 0.2410(3) 0.0081(3) 0.5145(4)
H84 H 0.2084 0.0170 0.5258
N26 N 0.3562(3) 0.1317(2) 0.4338(4)
N27 N 0.3231(3) 0.1030(3) 0.4579(4)
C102 C 0.3489(4) 0.0609(3) 0.4638(4)
C103 C 0.3980(3) 0.0636(3) 0.4434(5)
H85 H 0.4234 0.0402 0.4424
C104 C 0.4025(3) 0.1073(3) 0.4248(4)
H86 H 0.4314 0.1184 0.4092
C105 C 0.3444(6) 0.1739(5) 0.4252(6)
H87 H 0.3040 0.1776 0.4221
H88 H 0.3521 0.1819 0.3895
C106 C 0.3755(4) 0.2081(3) 0.4685(3)
C107 C 0.3638(3) 0.2529(3) 0.4640(3)
H89 H 0.3387 0.2640 0.4327
C108 C 0.3887(4) 0.2816(2) 0.5052(4)
H90 H 0.3807 0.3122 0.5021
C109 C 0.4254(4) 0.2654(3) 0.5509(3)
C110 C 0.4372(3) 0.2206(3) 0.5555(3)
H91 H 0.4622 0.2095 0.5868
C111 C 0.4122(4) 0.1919(2) 0.5143(4)
H92 H 0.4203 0.1612 0.5174
N28 N 0.6536(3) 0.3052(2) 0.5719(3)
C112 C 0.6255(2) 0.3436(3) 0.5520(4)
C113 C 0.6528(3) 0.3766(2) 0.5300(4)
H93 H 0.6336 0.4028 0.5164
C114 C 0.7082(3) 0.3712(2) 0.5279(4)
H94 H 0.7269 0.3938 0.5128
C115 C 0.7363(2) 0.3329(3) 0.5477(4)
H95 H 0.7742 0.3292 0.5463
C116 C 0.7090(3) 0.2999(2) 0.5697(4)
H96 H 0.7282 0.2736 0.5833
N29 N 0.4923(3) 0.3256(2) 0.5809(4)
N30 N 0.5460(3) 0.3115(2) 0.5768(4)
C117 C 0.5726(3) 0.3472(3) 0.5566(4)
C118 C 0.5352(4) 0.3835(2) 0.5482(4)
H97 H 0.5422 0.4117 0.5349
C119 C 0.4856(3) 0.3701(3) 0.5632(4)
H98 H 0.4535 0.3878 0.5617
C120 C 0.4543(5) 0.2958(5) 0.5947(6)
H99 H 0.4256 0.3130 0.6077
H100 H 0.4742 0.2777 0.6256
N31 N 0.1898(3) 0.1010(3) 0.5310(4)
C121 C 0.1404(3) 0.0873(3) 0.4969(3)
C122 C 0.0935(3) 0.0804(3) 0.5178(4)
H101 H 0.0597 0.0711 0.4946
C123 C 0.0960(3) 0.0872(3) 0.5728(4)
H102 H 0.0640 0.0824 0.5871
C124 C 0.1454(4) 0.1008(3) 0.6068(3)
H103 H 0.1472 0.1054 0.6444
C125 C 0.1923(3) 0.1077(3) 0.5859(3)
H104 H 0.2261 0.1170 0.6092
N32 N 0.1839(3) 0.0903(3) 0.3723(3)
N33 N 0.1922(3) 0.0946(3) 0.4296(3)
C126 C 0.1428(4) 0.0809(3) 0.4448(3)
C127 C 0.1039(3) 0.0682(3) 0.3969(4)
H105 H 0.0673 0.0577 0.3952
C128 C 0.1293(3) 0.0740(3) 0.3521(3)
H106 H 0.1126 0.0680 0.3152
C129 C 0.2239(5) 0.1009(5) 0.3445(7)
H107 H 0.2479 0.1244 0.3644
H108 H 0.2058 0.1127 0.3083
C130 C 0.2604(3) 0.0610(3) 0.3371(4)
C131 C 0.3059(4) 0.0699(2) 0.3147(4)
H109 H 0.3127 0.0991 0.3043
C132 C 0.3415(3) 0.0360(3) 0.3077(4)
H110 H 0.3726 0.0420 0.2924
C133 C 0.3317(3) -0.0068(3) 0.3230(4)
C134 C 0.2862(4) -0.0157(2) 0.3453(4)
H111 H 0.2795 -0.0449 0.3558
C135 C 0.2506(3) 0.0182(3) 0.3524(4)
H112 H 0.2195 0.0122 0.3676
N34 N 0.2573(4) -0.1318(3) 0.1618(3)
C136 C 0.3021(3) -0.1127(3) 0.1454(4)
C137 C 0.3095(3) -0.1198(3) 0.0931(4)
H113 H 0.3401 -0.1067 0.0819
C138 C 0.2721(4) -0.1459(3) 0.0571(3)
H114 H 0.2771 -0.1507 0.0213
C139 C 0.2273(3) -0.1650(3) 0.0735(3)
H115 H 0.2018 -0.1828 0.0489
C140 C 0.2199(3) -0.1580(3) 0.1258(4)
H116 H 0.1893 -0.1710 0.1370
N35 N 0.3698(3) -0.0541(3) 0.2635(3)
N36 N 0.3285(3) -0.0829(3) 0.2341(4)
C141 C 0.3353(4) -0.0851(3) 0.1798(3)
C142 C 0.3807(4) -0.0576(3) 0.1756(3)
H117 H 0.3944 -0.0529 0.1437
C143 C 0.4020(3) -0.0384(3) 0.2273(4)
H118 H 0.4325 -0.0186 0.2362
C144 C 0.3723(6) -0.0451(5) 0.3175(6)
H119 H 0.4106 -0.0366 0.3355
H120 H 0.3622 -0.0718 0.3357
Ru1A Ru 0.48842(4) 0.39023(3) 0.26318(4)
Ru2A Ru 0.24330(4) 0.10785(4) 0.00593(5)
Ag1A Ag 0.54020(6) 0.25644(6) -0.03558(6)
Ag4A Ag -0.10023(6) 0.24823(3) -0.09156(6)
N1A N 0.4877(3) 0.4565(3) 0.2832(4)
C1A C 0.4724(4) 0.4651(3) 0.3319(3)
C2A C 0.4707(4) 0.5083(4) 0.3499(3)
H1A H 0.4602 0.5142 0.3832
C3A C 0.4843(4) 0.5429(3) 0.3191(4)
H2A H 0.4831 0.5724 0.3314
C4A C 0.4996(4) 0.5343(3) 0.2704(4)
H3A H 0.5088 0.5579 0.2493
C5A C 0.5013(3) 0.4911(3) 0.2524(3)
H4A H 0.5117 0.4852 0.2191
N2A N 0.4324(4) 0.3579(3) 0.3640(4)
N3A N 0.4535(4) 0.3890(3) 0.3316(3)
C6A C 0.4586(4) 0.4302(3) 0.3590(4)
C7A C 0.4406(4) 0.4246(3) 0.4083(4)
H5A H 0.4396 0.4468 0.4345
C8A C 0.4245(4) 0.3799(4) 0.4113(3)
H6A H 0.4107 0.3669 0.4400
C9A C 0.4283(6) 0.3147(5) 0.3481(6)
H7A H 0.4290 0.3130 0.3091
H8A H 0.3921 0.3030 0.3523
C10A C 0.4720(4) 0.2871(3) 0.3784(4)
C11A C 0.5201(4) 0.3030(3) 0.4126(4)
H9A H 0.5242 0.3338 0.4198
C12A C 0.5621(3) 0.2740(3) 0.4363(4)
H10A H 0.5950 0.2849 0.4596
C13A C 0.5561(4) 0.2291(3) 0.4257(4)
C14A C 0.5080(4) 0.2132(3) 0.3915(4)
H11A H 0.5039 0.1825 0.3843
C15A C 0.4660(3) 0.2422(3) 0.3679(4)
H12A H 0.4331 0.2313 0.3445
N4A N 0.5795(4) 0.1947(2) 0.6490(4)
C16A C 0.5568(4) 0.1561(3) 0.6238(3)
C17A C 0.5331(4) 0.1253(2) 0.6526(4)
H13A H 0.5175 0.0989 0.6353
C18A C 0.5321(4) 0.1331(3) 0.7066(4)
H14A H 0.5159 0.1121 0.7263
C19A C 0.5548(4) 0.1717(3) 0.7318(3)
H15A H 0.5541 0.1771 0.7687
C20A C 0.5785(4) 0.2025(2) 0.7030(4)
H16A H 0.5941 0.2289 0.7203
N5A N 0.5864(4) 0.1691(3) 0.4890(3)
N6A N 0.5838(4) 0.1843(2) 0.5416(4)
C21A C 0.5621(4) 0.1497(3) 0.5686(3)
C22A C 0.5513(4) 0.1131(2) 0.5328(4)
H17A H 0.5366 0.0854 0.5404
C23A C 0.5663(4) 0.1251(3) 0.4836(4)
H18A H 0.5634 0.1068 0.4525
C24A C 0.6018(6) 0.1946(5) 0.4531(7)
H19A H 0.6114 0.1759 0.4244
H20A H 0.6358 0.2108 0.4711
N7A N 0.5227(3) 0.4004(3) 0.1954(3)
C25A C 0.4861(2) 0.4162(3) 0.1493(3)
C26A C 0.5055(3) 0.4272(3) 0.1034(3)
H21A H 0.4805 0.4381 0.0719
C27A C 0.5616(3) 0.4223(3) 0.1035(3)
H22A H 0.5748 0.4298 0.0721
C28A C 0.5981(2) 0.4065(3) 0.1495(3)
H23A H 0.6364 0.4031 0.1496
C29A C 0.5787(3) 0.3955(3) 0.1955(3)
H24A H 0.6037 0.3847 0.2269
N8A N 0.4206(3) 0.4030(3) 0.2016(3)
N9A N 0.3620(3) 0.4041(3) 0.1953(3)
C30A C 0.3384(2) 0.4200(3) 0.1423(3)
H25A H 0.2999 0.4241 0.1272
C31A C 0.3824(3) 0.4288(3) 0.1159(3)
H26A H 0.3785 0.4398 0.0800
C32A C 0.4332(2) 0.4183(3) 0.1526(3)
C33A C 0.3341(5) 0.3941(4) 0.2373(5)
H27A H 0.3546 0.3704 0.2604
H28A H 0.2965 0.3829 0.2209
C34A C 0.3293(3) 0.4342(2) 0.2727(3)
C35A C 0.3357(3) 0.4771(3) 0.2559(3)
H29A H 0.3449 0.4824 0.2218
C36A C 0.3286(3) 0.5124(2) 0.2889(3)
H30A H 0.3330 0.5418 0.2774
C37A C 0.3152(3) 0.5047(2) 0.3387(3)
C38A C 0.3088(3) 0.4618(3) 0.3555(3)
H31A H 0.2996 0.4565 0.3896
C39A C 0.3158(3) 0.4265(2) 0.3225(3)
H32A H 0.3114 0.3971 0.3341
N10A N 0.1579(3) 0.6301(3) 0.2493(4)
C40A C 0.1355(3) 0.6122(3) 0.2903(3)
C41A C 0.0813(3) 0.6223(3) 0.2932(3)
H33A H 0.0659 0.6100 0.3212
C42A C 0.0495(3) 0.6503(3) 0.2550(4)
H34A H 0.0125 0.6572 0.2569
C43A C 0.0720(3) 0.6683(3) 0.2139(3)
H35A H 0.0503 0.6874 0.1878
C44A C 0.1262(3) 0.6582(3) 0.2111(3)
H36A H 0.1415 0.6704 0.1830
N11A N 0.2522(2) 0.5535(3) 0.3679(3)
N12A N 0.2265(3) 0.5827(3) 0.3258(3)
C45A C 0.1696(3) 0.5865(3) 0.3273(3)
C46A C 0.1600(3) 0.5596(3) 0.3704(4)
H37A H 0.1255 0.5559 0.3806
C47A C 0.2110(3) 0.5393(3) 0.3955(3)
H38A H 0.2166 0.5196 0.4255
C48A C 0.3085(5) 0.5432(5) 0.3764(5)
H39A H 0.3231 0.5347 0.4148
H40A H 0.3296 0.5691 0.3683
N13A N 0.5655(3) 0.3787(3) 0.3152(3)
C49A C 0.5866(3) 0.3362(3) 0.3144(3)
C50A C 0.6374(3) 0.3254(2) 0.3481(4)
H41A H 0.6518 0.2964 0.3476
C51A C 0.6671(3) 0.3571(3) 0.3825(3)
H42A H 0.7019 0.3497 0.4055
C52A C 0.6460(3) 0.3995(3) 0.3833(3)
H43A H 0.6664 0.4211 0.4068
C53A C 0.5952(3) 0.4103(2) 0.3496(3)
H44A H 0.5808 0.4393 0.3501
N14A N 0.4698(3) 0.2873(3) 0.2265(3)
N15A N 0.4996(3) 0.3236(2) 0.2542(3)
C54A C 0.5528(3) 0.3084(3) 0.2817(4)
C55A C 0.5559(3) 0.2626(3) 0.2710(4)
H45A H 0.5868 0.2439 0.2843
C56A C 0.5046(4) 0.2495(2) 0.2369(4)
H46A H 0.4952 0.2206 0.2234
C57A C 0.4196(5) 0.2932(5) 0.1887(5)
H47A H 0.3981 0.3164 0.2026
H48A H 0.3980 0.2655 0.1866
C58A C 0.4241(3) 0.3056(3) 0.1325(3)
C59A C 0.4728(3) 0.3028(3) 0.1137(3)
H49A H 0.5060 0.2924 0.1370
C60A C 0.4730(3) 0.3152(4) 0.0607(3)
H50A H 0.5063 0.3132 0.0478
C61A C 0.4245(4) 0.3304(4) 0.0266(3)
C62A C 0.3758(3) 0.3332(3) 0.0454(3)
H51A H 0.3426 0.3435 0.0221
C63A C 0.3756(3) 0.3208(3) 0.0984(3)
H52A H 0.3423 0.3227 0.1112
N16A N 0.5018(4) 0.2030(3) -0.0991(3)
C64A C 0.4466(4) 0.2086(3) -0.1258(4)
C65A C 0.4218(3) 0.1789(4) -0.1658(4)
H53A H 0.3841 0.1827 -0.1841
C66A C 0.4522(4) 0.1436(3) -0.1791(3)
H54A H 0.4353 0.1233 -0.2065
C67A C 0.5074(4) 0.1381(3) -0.1524(4)
H55A H 0.5282 0.1140 -0.1615
C68A C 0.5322(3) 0.1678(3) -0.1124(4)
H56A H 0.5699 0.1640 -0.0941
N17A N 0.4096(4) 0.3085(3) -0.0679(3)
N18A N 0.4488(3) 0.2760(3) -0.0749(4)
C69A C 0.4199(4) 0.2426(3) -0.1094(4)
C70A C 0.3629(4) 0.2545(3) -0.1237(4)
H57A H 0.3341 0.2381 -0.1464
C71A C 0.3565(3) 0.2952(3) -0.0981(4)
H58A H 0.3227 0.3109 -0.1006
C72A C 0.4263(6) 0.3445(5) -0.0329(5)
H59A H 0.4012 0.3698 -0.0443
H60A H 0.4645 0.3535 -0.0344
N19A N 0.1874(3) 0.1215(3) -0.0676(3)
C73A C 0.1857(3) 0.1649(3) -0.0855(3)
C74A C 0.1504(3) 0.1768(2) -0.1343(4)
H61A H 0.1493 0.2065 -0.1465
C75A C 0.1166(3) 0.1452(3) -0.1652(3)
H62A H 0.0924 0.1533 -0.1985
C76A C 0.1182(3) 0.1018(3) -0.1473(3)
H63A H 0.0952 0.0802 -0.1684
C77A C 0.1536(3) 0.0899(2) -0.0985(4)
H64A H 0.1547 0.0602 -0.0863
N20A N 0.2785(3) 0.2103(3) 0.0291(3)
N21A N 0.2493(3) 0.1749(2) -0.0014(3)
C78A C 0.2203(3) 0.1919(3) -0.0522(3)
C79A C 0.2317(4) 0.2378(3) -0.0532(3)
H65A H 0.2176 0.2574 -0.0823
C80A C 0.2676(4) 0.2492(2) -0.0030(4)
H66A H 0.2819 0.2777 0.0074
C81A C 0.3154(5) 0.2044(5) 0.0794(6)
H67A H 0.3014 0.1803 0.0992
H68A H 0.3162 0.2317 0.1011
C82A C 0.3749(2) 0.1934(3) 0.0746(4)
C83A C 0.4119(3) 0.1796(3) 0.1215(3)
H69A H 0.3997 0.1763 0.1544
C84A C 0.4669(3) 0.1706(3) 0.1203(3)
H70A H 0.4922 0.1612 0.1524
C85A C 0.4848(2) 0.1754(3) 0.0722(4)
C86A C 0.4478(3) 0.1892(3) 0.0252(3)
H71A H 0.4600 0.1924 -0.0076
C87A C 0.3929(3) 0.1981(3) 0.0264(3)
H72A H 0.3676 0.2075 -0.0056
N22A N 0.6000(3) 0.3145(3) 0.0015(4)
C88A C 0.6285(4) 0.3092(3) 0.0552(4)
C89A C 0.6659(3) 0.3412(3) 0.0800(3)
H73A H 0.6854 0.3376 0.1166
C90A C 0.6747(3) 0.3786(3) 0.0512(4)
H74A H 0.7002 0.4006 0.0681
C91A C 0.6461(4) 0.3840(3) -0.0025(4)
H75A H 0.6521 0.4095 -0.0221
C92A C 0.6088(3) 0.3519(3) -0.0273(3)
H76A H 0.5893 0.3555 -0.0639
N23A N 0.5782(3) 0.2047(3) 0.0891(4)
N24A N 0.5836(3) 0.2383(3) 0.0515(3)
C93A C 0.6152(4) 0.2732(3) 0.0807(4)
C94A C 0.6293(4) 0.2611(3) 0.1364(4)
H77A H 0.6504 0.2783 0.1652
C95A C 0.6065(4) 0.2187(3) 0.1416(3)
H78A H 0.6096 0.2026 0.1744
C96A C 0.5471(5) 0.1691(5) 0.0703(6)
H79A H 0.5621 0.1430 0.0923
H80A H 0.5497 0.1633 0.0323
N25A N 0.2259(3) 0.0393(2) 0.0033(4)
C97A C 0.1782(3) 0.0262(3) 0.0197(4)
C98A C 0.1637(3) -0.0181(3) 0.0184(4)
H81A H 0.1311 -0.0270 0.0296
C99A C 0.1968(4) -0.0494(2) 0.0006(4)
H82A H 0.1868 -0.0796 -0.0004
C100A C 0.2444(3) -0.0363(3) -0.0159(4)
H83A H 0.2671 -0.0576 -0.0281
C101A C 0.2590(3) 0.0081(3) -0.0145(4)
H84A H 0.2916 0.0170 -0.0258
N26A N 0.1438(3) 0.1317(2) 0.0662(4)
N27A N 0.1769(3) 0.1030(3) 0.0421(4)
C102A C 0.1511(4) 0.0609(3) 0.0362(4)
C103A C 0.1020(3) 0.0636(3) 0.0566(5)
H85A H 0.0766 0.0402 0.0576
C104A C 0.0975(3) 0.1073(3) 0.0752(4)
H86A H 0.0686 0.1184 0.0908
C105A C 0.1556(6) 0.1739(5) 0.0748(6)
H87A H 0.1960 0.1776 0.0779
H88A H 0.1479 0.1819 0.1105
C106A C 0.1245(4) 0.2081(3) 0.0315(3)
C107A C 0.1362(3) 0.2529(3) 0.0360(3)
H89A H 0.1613 0.2640 0.0673
C108A C 0.1113(4) 0.2816(2) -0.0052(4)
H90A H 0.1193 0.3122 -0.0021
C109A C 0.0746(4) 0.2654(3) -0.0509(3)
C110A C 0.0628(3) 0.2206(3) -0.0555(3)
H91A H 0.0378 0.2095 -0.0868
C111A C 0.0878(4) 0.1919(2) -0.0143(4)
H92A H 0.0797 0.1612 -0.0174
N28A N -0.1536(3) 0.3052(2) -0.0719(3)
C112A C -0.1255(2) 0.3436(3) -0.0520(4)
C113A C -0.1528(3) 0.3766(2) -0.0300(4)
H93A H -0.1336 0.4028 -0.0164
C114A C -0.2082(3) 0.3712(2) -0.0279(4)
H94A H -0.2269 0.3938 -0.0128
C115A C -0.2363(2) 0.3329(3) -0.0477(4)
H95A H -0.2742 0.3292 -0.0463
C116A C -0.2090(3) 0.2999(2) -0.0697(4)
H96A H -0.2282 0.2736 -0.0833
N29A N 0.0077(3) 0.3256(2) -0.0809(4)
N30A N -0.0460(3) 0.3115(2) -0.0768(4)
C117A C -0.0726(3) 0.3472(3) -0.0566(4)
C118A C -0.0352(4) 0.3835(2) -0.0482(4)
H97A H -0.0422 0.4117 -0.0349
C119A C 0.0144(3) 0.3701(3) -0.0632(4)
H98A H 0.0465 0.3878 -0.0617
C120A C 0.0457(5) 0.2958(5) -0.0947(6)
H99A H 0.0744 0.3130 -0.1077
H100A H 0.0258 0.2777 -0.1256
N31A N 0.3102(3) 0.1010(3) -0.0310(4)
C121A C 0.3596(3) 0.0873(3) 0.0031(3)
C122A C 0.4065(3) 0.0804(3) -0.0178(4)
H101A H 0.4403 0.0711 0.0054
C123A C 0.4040(3) 0.0872(3) -0.0728(4)
H102A H 0.4360 0.0824 -0.0871
C124A C 0.3546(4) 0.1008(3) -0.1068(3)
H103A H 0.3528 0.1054 -0.1444
C125A C 0.3077(3) 0.1077(3) -0.0859(3)
H104A H 0.2739 0.1170 -0.1092
N32A N 0.3161(3) 0.0903(3) 0.1277(3)
N33A N 0.3078(3) 0.0946(3) 0.0704(3)
C126A C 0.3572(4) 0.0809(3) 0.0552(3)
C127A C 0.3961(3) 0.0682(3) 0.1031(4)
H105A H 0.4327 0.0577 0.1048
C128A C 0.3707(3) 0.0740(3) 0.1479(3)
H106A H 0.3874 0.0680 0.1848
C129A C 0.2761(5) 0.1009(5) 0.1555(7)
H107A H 0.2521 0.1244 0.1356
H108A H 0.2942 0.1127 0.1917
C130A C 0.2396(3) 0.0610(3) 0.1629(4)
C131A C 0.1941(4) 0.0699(2) 0.1853(4)
H109A H 0.1873 0.0991 0.1957
C132A C 0.1585(3) 0.0360(3) 0.1923(4)
H110A H 0.1274 0.0420 0.2076
C133A C 0.1683(3) -0.0068(3) 0.1770(4)
C134A C 0.2138(4) -0.0157(2) 0.1547(4)
H111A H 0.2205 -0.0449 0.1442
C135A C 0.2494(3) 0.0182(3) 0.1476(4)
H112A H 0.2805 0.0122 0.1324
N34A N 0.2427(4) -0.1318(3) 0.3382(3)
C136A C 0.1979(3) -0.1127(3) 0.3546(4)
C137A C 0.1905(3) -0.1198(3) 0.4069(4)
H113A H 0.1599 -0.1067 0.4181
C138A C 0.2279(4) -0.1459(3) 0.4429(3)
H114A H 0.2229 -0.1507 0.4787
C139A C 0.2727(3) -0.1650(3) 0.4265(3)
H115A H 0.2982 -0.1828 0.4511
C140A C 0.2801(3) -0.1580(3) 0.3742(4)
H116A H 0.3107 -0.1710 0.3630
N35A N 0.1302(3) -0.0541(3) 0.2365(3)
N36A N 0.1715(3) -0.0829(3) 0.2659(4)
C141A C 0.1647(4) -0.0851(3) 0.3202(3)
C142A C 0.1193(4) -0.0576(3) 0.3244(3)
H117A H 0.1056 -0.0529 0.3563
C143A C 0.0980(3) -0.0384(3) 0.2727(4)
H118A H 0.0675 -0.0186 0.2638
C144A C 0.1277(6) -0.0451(5) 0.1825(6)
H119A H 0.0894 -0.0366 0.1645
H120A H 0.1378 -0.0718 0.1643
P1 P 0.2675(4) 0.3095(3) 0.3613(4)
F1 F 0.2864(6) 0.3213(5) 0.3078(5)
F2 F 0.2107(5) 0.2919(4) 0.3272(5)
F3 F 0.2921(6) 0.2584(4) 0.3545(6)
F4 F 0.3278(5) 0.3205(4) 0.3956(5)
F5 F 0.2463(6) 0.3539(4) 0.3687(6)
F6 F 0.2522(6) 0.2912(5) 0.4154(5)
P2 P 0.40046(15) 0.49572(12) 0.52633(15)
F7 F 0.3738(5) 0.4505(4) 0.4996(5)
F8 F 0.4069(3) 0.5112(3) 0.4698(3)
F9 F 0.4592(4) 0.4732(3) 0.5358(4)
F10 F 0.4288(3) 0.5393(3) 0.5509(3)
F11 F 0.3947(4) 0.4827(3) 0.5838(4)
F12 F 0.3407(4) 0.5190(3) 0.5156(4)
P3 P 0.97148(17) 0.00580(15) 0.0986(3)
F13 F 0.9121(6) 0.0169(4) 0.1078(5)
F14 F 1.0003(7) 0.0490(6) 0.1239(7)
F15 F 0.9846(5) -0.0218(4) 0.1558(4)
F16 F 0.9616(5) 0.0257(4) 0.0397(5)
F17 F 0.9485(6) -0.0399(5) 0.0758(5)
F18 F 1.0284(4) -0.0134(3) 0.0915(4)
P4 P 0.5846(3) 0.0569(2) 0.9975(4)
F19 F 0.6262(6) 0.0968(4) 1.0156(6)
F20 F 0.6255(6) 0.0273(5) 1.0446(5)
F21 F 0.5452(5) 0.0153(4) 0.9847(6)
F22 F 0.6188(5) 0.0411(4) 0.9569(5)
F23 F 0.5459(6) 0.0848(5) 0.9558(6)
F24 F 0.5530(6) 0.0708(5) 1.0436(6)
P5 P 0.1741(4) 0.4836(3) 0.5316(4)
F25 F 0.1500(6) 0.5097(5) 0.5752(5)
F26 F 0.1381(6) 0.4464(4) 0.5300(6)
F27 F 0.2220(6) 0.4643(5) 0.5797(6)
F28 F 0.2069(6) 0.4629(5) 0.4892(6)
F29 F 0.2181(5) 0.5273(4) 0.5340(6)
F30 F 0.1353(5) 0.5092(4) 0.4842(5)
P6 P 0.3651(5) 0.1809(3) 0.2646(4)
F31 F 0.3332(7) 0.1888(5) 0.2054(5)
F32 F 0.4221(6) 0.1901(7) 0.2490(8)
F33 F 0.3591(8) 0.2291(4) 0.2804(7)
F34 F 0.3717(8) 0.1290(4) 0.2498(7)
F35 F 0.3977(7) 0.1691(6) 0.3251(6)
F36 F 0.3088(6) 0.1683(6) 0.2812(7)
P7 P 0.7500 0.3400(3) 0.2500
F37 F 0.7460(6) 0.3058(5) 0.2952(6)
F38 F 0.8153(6) 0.3413(5) 0.2657(6)
F39 F 0.7547(9) 0.3782(7) 0.2983(9)
F37A F 0.7540(6) 0.3058(5) 0.2048(6)
F38A F 0.6847(6) 0.3413(5) 0.2343(6)
F39A F 0.7453(9) 0.3782(7) 0.2017(9)
P8 P 0.2500 0.1751(2) 0.7500
F40 F 0.2331(6) 0.1749(5) 0.6858(5)
F41 F 0.2996(5) 0.2048(4) 0.7491(5)
F42 F 0.1957(6) 0.1430(5) 0.7483(8)
F40A F 0.2669(6) 0.1749(5) 0.8142(5)
F41A F 0.2004(5) 0.2048(4) 0.7509(5)
F42A F 0.3043(6) 0.1430(5) 0.7517(8)
loop_
_geom_bond_atom_site_label_1
_geom_bond_atom_site_label_2
_geom_bond_site_symmetry_1
_geom_bond_site_symmetry_2
Ru1 N1 1_555 1_555
Ru2 N19 1_555 1_555
Ag1 N16 1_555 1_555
Ag2 N34 1_555 1_555
Ag3 N10 1_555 1_555
Ag4 N28 1_555 1_555
N1 C1 1_555 1_555
C1 C2 1_555 1_555
C2 H1 1_555 1_555
C3 C2 1_555 1_555
H2 C3 1_555 1_555
C4 C3 1_555 1_555
H3 C4 1_555 1_555
C5 N1 1_555 1_555
H4 C5 1_555 1_555
N2 N3 1_555 1_555
N3 Ru1 1_555 1_555
C6 C1 1_555 1_555
C7 C6 1_555 1_555
H5 C7 1_555 1_555
C8 N2 1_555 1_555
H6 C8 1_555 1_555
C9 N2 1_555 1_555
H7 C9 1_555 1_555
H8 C9 1_555 1_555
C10 C9 1_555 1_555
C11 C10 1_555 1_555
H9 C11 1_555 1_555
C12 C11 1_555 1_555
H10 C12 1_555 1_555
C13 C12 1_555 1_555
C14 C13 1_555 1_555
H11 C14 1_555 1_555
C15 C10 1_555 1_555
H12 C15 1_555 1_555
N4 C16 1_555 1_555
C16 C17 1_555 1_555
C17 H13 1_555 1_555
C18 C17 1_555 1_555
H14 C18 1_555 1_555
C19 C18 1_555 1_555
H15 C19 1_555 1_555
C20 N4 1_555 1_555
H16 C20 1_555 1_555
N5 N6 1_555 1_555
N6 C21 1_555 1_555
C21 C16 1_555 1_555
C22 C21 1_555 1_555
H17 C22 1_555 1_555
C23 N5 1_555 1_555
H18 C23 1_555 1_555
C24 C13 1_555 1_555
H19 C24 1_555 1_555
H20 C24 1_555 1_555
N7 Ru1 1_555 1_555
C25 N7 1_555 1_555
C26 C25 1_555 1_555
H21 C26 1_555 1_555
C27 C26 1_555 1_555
H22 C27 1_555 1_555
C28 C27 1_555 1_555
H23 C28 1_555 1_555
C29 N7 1_555 1_555
H24 C29 1_555 1_555
N8 Ru1 1_555 1_555
N9 N8 1_555 1_555
C30 N9 1_555 1_555
H25 C30 1_555 1_555
C31 C30 1_555 1_555
H26 C31 1_555 1_555
C32 C25 1_555 1_555
C33 N9 1_555 1_555
H27 C33 1_555 1_555
H28 C33 1_555 1_555
C34 C33 1_555 1_555
C35 C34 1_555 1_555
H29 C35 1_555 1_555
C36 C35 1_555 1_555
H30 C36 1_555 1_555
C37 C36 1_555 1_555
C38 C37 1_555 1_555
H31 C38 1_555 1_555
C39 C34 1_555 1_555
H32 C39 1_555 1_555
N10 C40 1_555 1_555
C40 C41 1_555 1_555
C41 H33 1_555 1_555
C42 C41 1_555 1_555
H34 C42 1_555 1_555
C43 C42 1_555 1_555
H35 C43 1_555 1_555
C44 N10 1_555 1_555
H36 C44 1_555 1_555
N11 N12 1_555 1_555
N12 Ag3 1_555 1_555
C45 C40 1_555 1_555
C46 C45 1_555 1_555
H37 C46 1_555 1_555
C47 N11 1_555 1_555
H38 C47 1_555 1_555
C48 C37 1_555 1_555
H39 C48 1_555 1_555
H40 C48 1_555 1_555
N13 Ru1 1_555 1_555
C49 N13 1_555 1_555
C50 C49 1_555 1_555
H41 C50 1_555 1_555
C51 C50 1_555 1_555
H42 C51 1_555 1_555
C52 C51 1_555 1_555
H43 C52 1_555 1_555
C53 N13 1_555 1_555
H44 C53 1_555 1_555
N14 N15 1_555 1_555
N15 Ru1 1_555 1_555
C54 C49 1_555 1_555
C55 C54 1_555 1_555
H45 C55 1_555 1_555
C56 N14 1_555 1_555
H46 C56 1_555 1_555
C57 N14 1_555 1_555
H47 C57 1_555 1_555
H48 C57 1_555 1_555
C58 C57 1_555 1_555
C59 C58 1_555 1_555
H49 C59 1_555 1_555
C60 C59 1_555 1_555
H50 C60 1_555 1_555
C61 C60 1_555 1_555
C62 C61 1_555 1_555
H51 C62 1_555 1_555
C63 C58 1_555 1_555
H52 C63 1_555 1_555
N16 C64 1_555 1_555
C64 C65 1_555 1_555
C65 H53 1_555 1_555
C66 C65 1_555 1_555
H54 C66 1_555 1_555
C67 C66 1_555 1_555
H55 C67 1_555 1_555
C68 N16 1_555 1_555
H56 C68 1_555 1_555
N17 N18 1_555 1_555
N18 Ag1 1_555 1_555
C69 C64 1_555 1_555
C70 C69 1_555 1_555
H57 C70 1_555 1_555
C71 N17 1_555 1_555
H58 C71 1_555 1_555
C72 C61 1_555 1_555
H59 C72 1_555 1_555
H60 C72 1_555 1_555
N19 C73 1_555 1_555
C73 C74 1_555 1_555
C74 H61 1_555 1_555
C75 C74 1_555 1_555
H62 C75 1_555 1_555
C76 C75 1_555 1_555
H63 C76 1_555 1_555
C77 N19 1_555 1_555
H64 C77 1_555 1_555
N20 N21 1_555 1_555
N21 Ru2 1_555 1_555
C78 C73 1_555 1_555
C79 C78 1_555 1_555
H65 C79 1_555 1_555
C80 N20 1_555 1_555
H66 C80 1_555 1_555
C81 N20 1_555 1_555
H67 C81 1_555 1_555
H68 C81 1_555 1_555
C82 C81 1_555 1_555
C83 C82 1_555 1_555
H69 C83 1_555 1_555
C84 C83 1_555 1_555
H70 C84 1_555 1_555
C85 C84 1_555 1_555
C86 C85 1_555 1_555
H71 C86 1_555 1_555
C87 C82 1_555 1_555
H72 C87 1_555 1_555
N22 Ag1 1_555 1_555
C88 N22 1_555 1_555
C89 C88 1_555 1_555
H73 C89 1_555 1_555
C90 C89 1_555 1_555
H74 C90 1_555 1_555
C91 C90 1_555 1_555
H75 C91 1_555 1_555
C92 N22 1_555 1_555
H76 C92 1_555 1_555
N23 N24 1_555 1_555
N24 Ag1 1_555 1_555
C93 C88 1_555 1_555
C94 C93 1_555 1_555
H77 C94 1_555 1_555
C95 N23 1_555 1_555
H78 C95 1_555 1_555
C96 C85 1_555 1_555
H79 C96 1_555 1_555
H80 C96 1_555 1_555
N25 Ru2 1_555 1_555
C97 N25 1_555 1_555
C98 C97 1_555 1_555
H81 C98 1_555 1_555
C99 C98 1_555 1_555
H82 C99 1_555 1_555
C100 C99 1_555 1_555
H83 C100 1_555 1_555
C101 N25 1_555 1_555
H84 C101 1_555 1_555
N26 N27 1_555 1_555
N27 Ru2 1_555 1_555
C102 C97 1_555 1_555
C103 C102 1_555 1_555
H85 C103 1_555 1_555
C104 N26 1_555 1_555
H86 C104 1_555 1_555
C105 N26 1_555 1_555
H87 C105 1_555 1_555
H88 C105 1_555 1_555
C106 C105 1_555 1_555
C107 C106 1_555 1_555
H89 C107 1_555 1_555
C108 C107 1_555 1_555
H90 C108 1_555 1_555
C109 C108 1_555 1_555
C110 C109 1_555 1_555
H91 C110 1_555 1_555
C111 C106 1_555 1_555
H92 C111 1_555 1_555
N28 C112 1_555 1_555
C112 C113 1_555 1_555
C113 H93 1_555 1_555
C114 C113 1_555 1_555
H94 C114 1_555 1_555
C115 C114 1_555 1_555
H95 C115 1_555 1_555
C116 N28 1_555 1_555
H96 C116 1_555 1_555
N29 N30 1_555 1_555
N30 Ag4 1_555 1_555
C117 C112 1_555 1_555
C118 C117 1_555 1_555
H97 C118 1_555 1_555
C119 N29 1_555 1_555
H98 C119 1_555 1_555
C120 C109 1_555 1_555
H99 C120 1_555 1_555
H100 C120 1_555 1_555
N31 Ru2 1_555 1_555
C121 N31 1_555 1_555
C122 C121 1_555 1_555
H101 C122 1_555 1_555
C123 C122 1_555 1_555
H102 C123 1_555 1_555
C124 C123 1_555 1_555
H103 C124 1_555 1_555
C125 N31 1_555 1_555
H104 C125 1_555 1_555
N32 N33 1_555 1_555
N33 Ru2 1_555 1_555
C126 C121 1_555 1_555
C127 C126 1_555 1_555
H105 C127 1_555 1_555
C128 N32 1_555 1_555
H106 C128 1_555 1_555
C129 N32 1_555 1_555
H107 C129 1_555 1_555
H108 C129 1_555 1_555
C130 C129 1_555 1_555
C131 C130 1_555 1_555
H109 C131 1_555 1_555
C132 C131 1_555 1_555
H110 C132 1_555 1_555
C133 C132 1_555 1_555
C134 C133 1_555 1_555
H111 C134 1_555 1_555
C135 C130 1_555 1_555
H112 C135 1_555 1_555
N34 C136 1_555 1_555
C136 C137 1_555 1_555
C137 H113 1_555 1_555
C138 C137 1_555 1_555
H114 C138 1_555 1_555
C139 C138 1_555 1_555
H115 C139 1_555 1_555
C140 N34 1_555 1_555
H116 C140 1_555 1_555
N35 N36 1_555 1_555
N36 Ag2 1_555 1_555
C141 C136 1_555 1_555
C142 C141 1_555 1_555
H117 C142 1_555 1_555
C143 N35 1_555 1_555
H118 C143 1_555 1_555
C144 C133 1_555 1_555
H119 C144 1_555 1_555
H120 C144 1_555 1_555
P1 F1 1_555 1_555
F2 P1 1_555 1_555
F3 P1 1_555 1_555
F4 P1 1_555 1_555
F5 P1 1_555 1_555
F6 P1 1_555 1_555
P2 F7 1_555 1_555
F8 P2 1_555 1_555
F9 P2 1_555 1_555
F10 P2 1_555 1_555
F11 P2 1_555 1_555
F12 P2 1_555 1_555
P3 F13 1_555 1_555
F14 P3 1_555 1_555
F15 P3 1_555 1_555
F16 P3 1_555 1_555
F17 P3 1_555 1_555
F18 P3 1_555 1_555
P4 F19 1_555 1_555
F20 P4 1_555 1_555
F21 P4 1_555 1_555
F22 P4 1_555 1_555
F23 P4 1_555 1_555
F24 P4 1_555 1_555
P5 F25 1_555 1_555
F26 P5 1_555 1_555
F27 P5 1_555 1_555
F28 P5 1_555 1_555
F29 P5 1_555 1_555
F30 P5 1_555 1_555
P6 F31 1_555 1_555
F32 P6 1_555 1_555
F33 P6 1_555 1_555
F34 P6 1_555 1_555
F35 P6 1_555 1_555
F36 P6 1_555 1_555
P7 F37 1_555 1_555
F38 P7 1_555 1_555
F39 P7 1_555 1_555
P8 F40 1_555 1_555
F41 P8 1_555 1_555
F42 P8 1_555 1_555
Ru1A N1A 1_555 1_555
Ru2A N19A 1_555 1_555
Ag1A N16A 1_555 1_555
Ag4A N4 1_555 1_555
N1A C1A 1_555 1_555
C1A C2A 1_555 1_555
C2A H1A 1_555 1_555
C3A C2A 1_555 1_555
H2A C3A 1_555 1_555
C4A C3A 1_555 1_555
H3A C4A 1_555 1_555
C5A N1A 1_555 1_555
H4A C5A 1_555 1_555
N2A N3A 1_555 1_555
N3A Ru1A 1_555 1_555
C6A C1A 1_555 1_555
C7A C6A 1_555 1_555
H5A C7A 1_555 1_555
C8A N2A 1_555 1_555
H6A C8A 1_555 1_555
C9A N2A 1_555 1_555
H7A C9A 1_555 1_555
H8A C9A 1_555 1_555
C10A C9A 1_555 1_555
C11A C10A 1_555 1_555
H9A C11A 1_555 1_555
C12A C11A 1_555 1_555
H10A C12A 1_555 1_555
C13A C12A 1_555 1_555
C14A C13A 1_555 1_555
H11A C14A 1_555 1_555
C15A C10A 1_555 1_555
H12A C15A 1_555 1_555
N4A Ag4 1_555 1_555
C16A N4A 1_555 1_555
C17A C16A 1_555 1_555
H13A C17A 1_555 1_555
C18A C17A 1_555 1_555
H14A C18A 1_555 1_555
C19A C18A 1_555 1_555
H15A C19A 1_555 1_555
C20A N4A 1_555 1_555
H16A C20A 1_555 1_555
N5A N6A 1_555 1_555
N6A Ag4 1_555 1_555
C21A C16A 1_555 1_555
C22A C21A 1_555 1_555
H17A C22A 1_555 1_555
C23A N5A 1_555 1_555
H18A C23A 1_555 1_555
C24A C13A 1_555 1_555
H19A C24A 1_555 1_555
H20A C24A 1_555 1_555
N7A Ru1A 1_555 1_555
C25A N7A 1_555 1_555
C26A C25A 1_555 1_555
H21A C26A 1_555 1_555
C27A C26A 1_555 1_555
H22A C27A 1_555 1_555
C28A C27A 1_555 1_555
H23A C28A 1_555 1_555
C29A N7A 1_555 1_555
H24A C29A 1_555 1_555
N8A Ru1A 1_555 1_555
N9A N8A 1_555 1_555
C30A N9A 1_555 1_555
H25A C30A 1_555 1_555
C31A C30A 1_555 1_555
H26A C31A 1_555 1_555
C32A C25A 1_555 1_555
C33A N9A 1_555 1_555
H27A C33A 1_555 1_555
H28A C33A 1_555 1_555
C34A C33A 1_555 1_555
C35A C34A 1_555 1_555
H29A C35A 1_555 1_555
C36A C35A 1_555 1_555
H30A C36A 1_555 1_555
C37A C36A 1_555 1_555
C38A C37A 1_555 1_555
H31A C38A 1_555 1_555
C39A C34A 1_555 1_555
H32A C39A 1_555 1_555
N10A Ag3 1_555 1_555
C40A N10A 1_555 1_555
C41A C40A 1_555 1_555
H33A C41A 1_555 1_555
C42A C41A 1_555 1_555
H34A C42A 1_555 1_555
C43A C42A 1_555 1_555
H35A C43A 1_555 1_555
C44A N10A 1_555 1_555
H36A C44A 1_555 1_555
N11A N12A 1_555 1_555
N12A Ag3 1_555 1_555
C45A C40A 1_555 1_555
C46A C45A 1_555 1_555
H37A C46A 1_555 1_555
C47A N11A 1_555 1_555
H38A C47A 1_555 1_555
C48A C37A 1_555 1_555
H39A C48A 1_555 1_555
H40A C48A 1_555 1_555
N13A Ru1A 1_555 1_555
C49A N13A 1_555 1_555
C50A C49A 1_555 1_555
H41A C50A 1_555 1_555
C51A C50A 1_555 1_555
H42A C51A 1_555 1_555
C52A C51A 1_555 1_555
H43A C52A 1_555 1_555
C53A N13A 1_555 1_555
H44A C53A 1_555 1_555
N14A N15A 1_555 1_555
N15A Ru1A 1_555 1_555
C54A C49A 1_555 1_555
C55A C54A 1_555 1_555
H45A C55A 1_555 1_555
C56A N14A 1_555 1_555
H46A C56A 1_555 1_555
C57A N14A 1_555 1_555
H47A C57A 1_555 1_555
H48A C57A 1_555 1_555
C58A C57A 1_555 1_555
C59A C58A 1_555 1_555
H49A C59A 1_555 1_555
C60A C59A 1_555 1_555
H50A C60A 1_555 1_555
C61A C60A 1_555 1_555
C62A C61A 1_555 1_555
H51A C62A 1_555 1_555
C63A C58A 1_555 1_555
H52A C63A 1_555 1_555
N16A C64A 1_555 1_555
C64A C65A 1_555 1_555
C65A H53A 1_555 1_555
C66A C65A 1_555 1_555
H54A C66A 1_555 1_555
C67A C66A 1_555 1_555
H55A C67A 1_555 1_555
C68A N16A 1_555 1_555
H56A C68A 1_555 1_555
N17A N18A 1_555 1_555
N18A Ag1A 1_555 1_555
C69A C64A 1_555 1_555
C70A C69A 1_555 1_555
H57A C70A 1_555 1_555
C71A N17A 1_555 1_555
H58A C71A 1_555 1_555
C72A C61A 1_555 1_555
H59A C72A 1_555 1_555
H60A C72A 1_555 1_555
N19A C73A 1_555 1_555
C73A C74A 1_555 1_555
C74A H61A 1_555 1_555
C75A C74A 1_555 1_555
H62A C75A 1_555 1_555
C76A C75A 1_555 1_555
H63A C76A 1_555 1_555
C77A N19A 1_555 1_555
H64A C77A 1_555 1_555
N20A N21A 1_555 1_555
N21A Ru2A 1_555 1_555
C78A C73A 1_555 1_555
C79A C78A 1_555 1_555
H65A C79A 1_555 1_555
C80A N20A 1_555 1_555
H66A C80A 1_555 1_555
C81A N20A 1_555 1_555
H67A C81A 1_555 1_555
H68A C81A 1_555 1_555
C82A C81A 1_555 1_555
C83A C82A 1_555 1_555
H69A C83A 1_555 1_555
C84A C83A 1_555 1_555
H70A C84A 1_555 1_555
C85A C84A 1_555 1_555
C86A C85A 1_555 1_555
H71A C86A 1_555 1_555
C87A C82A 1_555 1_555
H72A C87A 1_555 1_555
N22A Ag1A 1_555 1_555
C88A N22A 1_555 1_555
C89A C88A 1_555 1_555
H73A C89A 1_555 1_555
C90A C89A 1_555 1_555
H74A C90A 1_555 1_555
C91A C90A 1_555 1_555
H75A C91A 1_555 1_555
C92A N22A 1_555 1_555
H76A C92A 1_555 1_555
N23A N24A 1_555 1_555
N24A Ag1A 1_555 1_555
C93A C88A 1_555 1_555
C94A C93A 1_555 1_555
H77A C94A 1_555 1_555
C95A N23A 1_555 1_555
H78A C95A 1_555 1_555
C96A C85A 1_555 1_555
H79A C96A 1_555 1_555
H80A C96A 1_555 1_555
N25A Ru2A 1_555 1_555
C97A N25A 1_555 1_555
C98A C97A 1_555 1_555
H81A C98A 1_555 1_555
C99A C98A 1_555 1_555
H82A C99A 1_555 1_555
C100A C99A 1_555 1_555
H83A C100A 1_555 1_555
C101A N25A 1_555 1_555
H84A C101A 1_555 1_555
N26A N27A 1_555 1_555
N27A Ru2A 1_555 1_555
C102A C97A 1_555 1_555
C103A C102A 1_555 1_555
H85A C103A 1_555 1_555
C104A N26A 1_555 1_555
H86A C104A 1_555 1_555
C105A N26A 1_555 1_555
H87A C105A 1_555 1_555
H88A C105A 1_555 1_555
C106A C105A 1_555 1_555
C107A C106A 1_555 1_555
H89A C107A 1_555 1_555
C108A C107A 1_555 1_555
H90A C108A 1_555 1_555
C109A C108A 1_555 1_555
C110A C109A 1_555 1_555
H91A C110A 1_555 1_555
C111A C106A 1_555 1_555
H92A C111A 1_555 1_555
N28A Ag4A 1_555 1_555
C112A N28A 1_555 1_555
C113A C112A 1_555 1_555
H93A C113A 1_555 1_555
C114A C113A 1_555 1_555
H94A C114A 1_555 1_555
C115A C114A 1_555 1_555
H95A C115A 1_555 1_555
C116A N28A 1_555 1_555
H96A C116A 1_555 1_555
N29A N30A 1_555 1_555
N30A Ag4A 1_555 1_555
C117A C112A 1_555 1_555
C118A C117A 1_555 1_555
H97A C118A 1_555 1_555
C119A N29A 1_555 1_555
H98A C119A 1_555 1_555
C120A C109A 1_555 1_555
H99A C120A 1_555 1_555
H100A C120A 1_555 1_555
N31A Ru2A 1_555 1_555
C121A N31A 1_555 1_555
C122A C121A 1_555 1_555
H101A C122A 1_555 1_555
C123A C122A 1_555 1_555
H102A C123A 1_555 1_555
C124A C123A 1_555 1_555
H103A C124A 1_555 1_555
C125A N31A 1_555 1_555
H104A C125A 1_555 1_555
N32A N33A 1_555 1_555
N33A Ru2A 1_555 1_555
C126A C121A 1_555 1_555
C127A C126A 1_555 1_555
H105A C127A 1_555 1_555
C128A N32A 1_555 1_555
H106A C128A 1_555 1_555
C129A N32A 1_555 1_555
H107A C129A 1_555 1_555
H108A C129A 1_555 1_555
C130A C129A 1_555 1_555
C131A C130A 1_555 1_555
H109A C131A 1_555 1_555
C132A C131A 1_555 1_555
H110A C132A 1_555 1_555
C133A C132A 1_555 1_555
C134A C133A 1_555 1_555
H111A C134A 1_555 1_555
C135A C130A 1_555 1_555
H112A C135A 1_555 1_555
N34A Ag2 1_555 1_555
C136A N34A 1_555 1_555
C137A C136A 1_555 1_555
H113A C137A 1_555 1_555
C138A C137A 1_555 1_555
H114A C138A 1_555 1_555
C139A C138A 1_555 1_555
H115A C139A 1_555 1_555
C140A N34A 1_555 1_555
H116A C140A 1_555 1_555
N35A N36A 1_555 1_555
N36A Ag2 1_555 1_555
C141A C136A 1_555 1_555
C142A C141A 1_555 1_555
H117A C142A 1_555 1_555
C143A N35A 1_555 1_555
H118A C143A 1_555 1_555
C144A C133A 1_555 1_555
H119A C144A 1_555 1_555
H120A C144A 1_555 1_555
F37A P7 1_555 1_555
F38A P7 1_555 1_555
F39A P7 1_555 1_555
F40A P8 1_555 1_555
F41A P8 1_555 1_555
F42A P8 1_555 1_555
C4 C5 1_555 1_555
N3 C6 1_555 1_555
C7 C8 1_555 1_555
C14 C15 1_555 1_555
C19 C20 1_555 1_555
N5 C24 1_555 1_555
N6 Ag4A 1_555 1_555
C22 C23 1_555 1_555
C28 C29 1_555 1_555
N8 C32 1_555 1_555
C31 C32 1_555 1_555
C38 C39 1_555 1_555
C43 C44 1_555 1_555
N11 C48 1_555 1_555
N12 C45 1_555 1_555
C46 C47 1_555 1_555
C52 C53 1_555 1_555
N15 C54 1_555 1_555
C55 C56 1_555 1_555
C62 C63 1_555 1_555
C67 C68 1_555 1_555
N17 C72 1_555 1_555
N18 C69 1_555 1_555
C70 C71 1_555 1_555
C76 C77 1_555 1_555
N21 C78 1_555 1_555
C79 C80 1_555 1_555
C86 C87 1_555 1_555
C91 C92 1_555 1_555
N23 C96 1_555 1_555
N24 C93 1_555 1_555
C94 C95 1_555 1_555
C100 C101 1_555 1_555
N27 C102 1_555 1_555
C103 C104 1_555 1_555
C110 C111 1_555 1_555
C115 C116 1_555 1_555
N29 C120 1_555 1_555
N30 C117 1_555 1_555
C118 C119 1_555 1_555
C124 C125 1_555 1_555
N33 C126 1_555 1_555
C127 C128 1_555 1_555
C134 C135 1_555 1_555
C139 C140 1_555 1_555
N35 C144 1_555 1_555
N36 C141 1_555 1_555
C142 C143 1_555 1_555
C4A C5A 1_555 1_555
N3A C6A 1_555 1_555
C7A C8A 1_555 1_555
C14A C15A 1_555 1_555
C19A C20A 1_555 1_555
N5A C24A 1_555 1_555
N6A C21A 1_555 1_555
C22A C23A 1_555 1_555
C28A C29A 1_555 1_555
N8A C32A 1_555 1_555
C31A C32A 1_555 1_555
C38A C39A 1_555 1_555
C43A C44A 1_555 1_555
N11A C48A 1_555 1_555
N12A C45A 1_555 1_555
C46A C47A 1_555 1_555
C52A C53A 1_555 1_555
N15A C54A 1_555 1_555
C55A C56A 1_555 1_555
C62A C63A 1_555 1_555
C67A C68A 1_555 1_555
N17A C72A 1_555 1_555
N18A C69A 1_555 1_555
C70A C71A 1_555 1_555
C76A C77A 1_555 1_555
N21A C78A 1_555 1_555
C79A C80A 1_555 1_555
C86A C87A 1_555 1_555
C91A C92A 1_555 1_555
N23A C96A 1_555 1_555
N24A C93A 1_555 1_555
C94A C95A 1_555 1_555
C100A C101A 1_555 1_555
N27A C102A 1_555 1_555
C103A C104A 1_555 1_555
C110A C111A 1_555 1_555
C115A C116A 1_555 1_555
N29A C120A 1_555 1_555
N30A C117A 1_555 1_555
C118A C119A 1_555 1_555
C124A C125A 1_555 1_555
N33A C126A 1_555 1_555
C127A C128A 1_555 1_555
C134A C135A 1_555 1_555
C139A C140A 1_555 1_555
N35A C144A 1_555 1_555
N36A C141A 1_555 1_555
C142A C143A 1_555 1_555

#END
