# generated using pymatgen
data_Ag3P7H120Ru2C144(N6F7)6
_symmetry_space_group_name_H-M   'P 1'
_cell_length_a   24.68800000
_cell_length_b   25.24700000
_cell_length_c   30.32400000
_cell_angle_alpha   90.00000000
_cell_angle_beta   90.00000000
_cell_angle_gamma   102.81900000
_symmetry_Int_Tables_number   1
_chemical_formula_structural   Ag3P7H120Ru2C144(N6F7)6
_chemical_formula_sum   'Ag12 P28 H480 Ru8 C576 N144 F168'
_cell_volume   18429.79774606
_cell_formula_units_Z   4
loop_
 _symmetry_equiv_pos_site_id
 _symmetry_equiv_pos_as_xyz
  1  'x, y, z'
loop_
 _atom_site_type_symbol
 _atom_site_label
 _atom_site_symmetry_multiplicity
 _atom_site_fract_x
 _atom_site_fract_y
 _atom_site_fract_z
 _atom_site_occupancy
  Ag  Ag1  1  0.750000  0.750000  0.115420  1
  Ag  Ag2  1  0.250000  0.250000  0.884580  1
  Ag  Ag3  1  0.750000  0.750000  0.385350  1
  Ag  Ag4  1  0.250000  0.250000  0.614650  1
  Ag  Ag5  1  0.040200  0.464420  0.743560  1.0
  Ag  Ag6  1  0.459800  0.035580  0.743560  1.0
  Ag  Ag7  1  0.959800  0.535580  0.256440  1.0
  Ag  Ag8  1  0.540200  0.964420  0.256440  1.0
  Ag  Ag9  1  0.399770  0.408440  0.751770  1.0
  Ag  Ag10  1  0.100230  0.091560  0.751770  1.0
  Ag  Ag11  1  0.600230  0.591560  0.248230  1.0
  Ag  Ag12  1  0.899770  0.908440  0.248230  1.0
  P  P13  1  0.732500  0.638700  0.690500  1
  P  P14  1  0.767500  0.861300  0.690500  1
  P  P15  1  0.267500  0.361300  0.309500  1
  P  P16  1  0.232500  0.138700  0.309500  1
  P  P17  1  0.599540  0.473670  0.504280  1
  P  P18  1  0.900460  0.026330  0.504280  1
  P  P19  1  0.400460  0.526330  0.495720  1
  P  P20  1  0.099540  0.973670  0.495720  1
  P  P21  1  0.028520  0.901400  0.994200  1
  P  P22  1  0.471480  0.598600  0.994200  1
  P  P23  1  0.971480  0.098600  0.005800  1
  P  P24  1  0.528520  0.401400  0.005800  1
  P  P25  1  0.415400  0.002500  0.943100  1
  P  P26  1  0.084600  0.497500  0.943100  1
  P  P27  1  0.584600  0.997500  0.056900  1
  P  P28  1  0.915400  0.502500  0.056900  1
  P  P29  1  0.825900  0.468400  0.516400  1
  P  P30  1  0.674100  0.031600  0.516400  1
  P  P31  1  0.174100  0.531600  0.483600  1
  P  P32  1  0.325900  0.968400  0.483600  1
  P  P33  1  0.634900  0.735400  0.819100  1
  P  P34  1  0.865100  0.764600  0.819100  1
  P  P35  1  0.365100  0.264600  0.180900  1
  P  P36  1  0.134900  0.235400  0.180900  1
  P  P37  1  0.250000  0.750000  0.660000  1
  P  P38  1  0.750000  0.250000  0.340000  1
  P  P39  1  0.750000  0.250000  0.824900  1
  P  P40  1  0.250000  0.750000  0.175100  1
  H  H41  1  0.960200  0.883200  0.485800  1.0
  H  H42  1  0.539800  0.616800  0.485800  1.0
  H  H43  1  0.039800  0.116800  0.514200  1.0
  H  H44  1  0.460200  0.383200  0.514200  1.0
  H  H45  1  0.983100  0.831400  0.427600  1.0
  H  H46  1  0.516900  0.668600  0.427600  1.0
  H  H47  1  0.016900  0.168600  0.572400  1.0
  H  H48  1  0.483100  0.331400  0.572400  1.0
  H  H49  1  0.008800  0.749300  0.442100  1.0
  H  H50  1  0.491200  0.750700  0.442100  1.0
  H  H51  1  0.991200  0.250700  0.557900  1.0
  H  H52  1  0.508800  0.249300  0.557900  1.0
  H  H53  1  0.011700  0.719100  0.514800  1.0
  H  H54  1  0.488300  0.780900  0.514800  1.0
  H  H55  1  0.988300  0.280900  0.485200  1.0
  H  H56  1  0.511700  0.219100  0.485200  1.0
  H  H57  1  0.939600  0.934500  0.553200  1.0
  H  H58  1  0.560400  0.565500  0.553200  1.0
  H  H59  1  0.060400  0.065500  0.446800  1.0
  H  H60  1  0.439600  0.434500  0.446800  1.0
  H  H61  1  0.910700  0.940000  0.633100  1.0
  H  H62  1  0.589300  0.560000  0.633100  1.0
  H  H63  1  0.089300  0.060000  0.366900  1.0
  H  H64  1  0.410700  0.440000  0.366900  1.0
  H  H65  1  0.929000  0.809100  0.687000  1.0
  H  H66  1  0.571000  0.690900  0.687000  1.0
  H  H67  1  0.071000  0.190900  0.313000  1.0
  H  H68  1  0.429000  0.309100  0.313000  1.0
  H  H69  1  0.892100  0.852300  0.697000  1.0
  H  H70  1  0.607900  0.647700  0.697000  1.0
  H  H71  1  0.107900  0.147700  0.303000  1.0
  H  H72  1  0.392100  0.352300  0.303000  1.0
  H  H73  1  0.024200  0.919800  0.666200  1.0
  H  H74  1  0.475800  0.580200  0.666200  1.0
  H  H75  1  0.975800  0.080200  0.333800  1.0
  H  H76  1  0.524200  0.419800  0.333800  1.0
  H  H77  1  0.095000  0.959600  0.715100  1.0
  H  H78  1  0.405000  0.540400  0.715100  1.0
  H  H79  1  0.905000  0.040400  0.284900  1.0
  H  H80  1  0.595000  0.459600  0.284900  1.0
  H  H81  1  0.003900  0.884300  0.817500  1.0
  H  H82  1  0.496100  0.615700  0.817500  1.0
  H  H83  1  0.996100  0.115700  0.182500  1.0
  H  H84  1  0.503900  0.384300  0.182500  1.0
  H  H85  1  0.933100  0.844500  0.768700  1.0
  H  H86  1  0.566900  0.655500  0.768700  1.0
  H  H87  1  0.066900  0.155500  0.231300  1.0
  H  H88  1  0.433100  0.344500  0.231300  1.0
  H  H89  1  0.017500  0.135300  0.901100  1.0
  H  H90  1  0.482500  0.364700  0.901100  1.0
  H  H91  1  0.982500  0.864700  0.098900  1.0
  H  H92  1  0.517500  0.635300  0.098900  1.0
  H  H93  1  0.015900  0.226300  0.887900  1.0
  H  H94  1  0.484100  0.273700  0.887900  1.0
  H  H95  1  0.984100  0.773700  0.112100  1.0
  H  H96  1  0.515900  0.726300  0.112100  1.0
  H  H97  1  0.054100  0.268700  0.822900  1.0
  H  H98  1  0.445900  0.231300  0.822900  1.0
  H  H99  1  0.945900  0.731300  0.177100  1.0
  H  H100  1  0.554100  0.768700  0.177100  1.0
  H  H101  1  0.094100  0.220300  0.771100  1.0
  H  H102  1  0.405900  0.279700  0.771100  1.0
  H  H103  1  0.905900  0.779700  0.228900  1.0
  H  H104  1  0.594100  0.720300  0.228900  1.0
  H  H105  1  0.036600  0.040400  0.914600  1.0
  H  H106  1  0.463400  0.459600  0.914600  1.0
  H  H107  1  0.963400  0.959600  0.085400  1.0
  H  H108  1  0.536600  0.540400  0.085400  1.0
  H  H109  1  0.063400  0.952500  0.893200  1.0
  H  H110  1  0.436600  0.547500  0.893200  1.0
  H  H111  1  0.936600  0.047500  0.106800  1.0
  H  H112  1  0.563400  0.452500  0.106800  1.0
  H  H113  1  0.111400  0.924400  0.824100  1.0
  H  H114  1  0.388600  0.575600  0.824100  1.0
  H  H115  1  0.888600  0.075600  0.175900  1.0
  H  H116  1  0.611400  0.424400  0.175900  1.0
  H  H117  1  0.135800  0.971100  0.789200  1.0
  H  H118  1  0.364200  0.528900  0.789200  1.0
  H  H119  1  0.864200  0.028900  0.210800  1.0
  H  H120  1  0.635800  0.471100  0.210800  1.0
  H  H121  1  0.980500  0.571900  0.561900  1.0
  H  H122  1  0.519500  0.928100  0.561900  1.0
  H  H123  1  0.019500  0.428100  0.438100  1.0
  H  H124  1  0.480500  0.071900  0.438100  1.0
  H  H125  1  0.074800  0.572100  0.570200  1.0
  H  H126  1  0.425200  0.927900  0.570200  1.0
  H  H127  1  0.925200  0.427900  0.429800  1.0
  H  H128  1  0.574800  0.072100  0.429800  1.0
  H  H129  1  0.136400  0.649600  0.596900  1.0
  H  H130  1  0.363600  0.850400  0.596900  1.0
  H  H131  1  0.863600  0.350400  0.403100  1.0
  H  H132  1  0.636400  0.149600  0.403100  1.0
  H  H133  1  0.103700  0.726900  0.615300  1.0
  H  H134  1  0.396300  0.773100  0.615300  1.0
  H  H135  1  0.896300  0.273100  0.384700  1.0
  H  H136  1  0.603700  0.226900  0.384700  1.0
  H  H137  1  0.799900  0.627200  0.575900  1.0
  H  H138  1  0.700100  0.872800  0.575900  1.0
  H  H139  1  0.200100  0.372800  0.424100  1.0
  H  H140  1  0.299900  0.127200  0.424100  1.0
  H  H141  1  0.878500  0.580000  0.560200  1.0
  H  H142  1  0.621500  0.920000  0.560200  1.0
  H  H143  1  0.121500  0.420000  0.439800  1.0
  H  H144  1  0.378500  0.080000  0.439800  1.0
  H  H145  1  0.854600  0.760400  0.629600  1.0
  H  H146  1  0.645400  0.739600  0.629600  1.0
  H  H147  1  0.145400  0.239600  0.370400  1.0
  H  H148  1  0.354600  0.260400  0.370400  1.0
  H  H149  1  0.796500  0.720900  0.617100  1.0
  H  H150  1  0.703500  0.779100  0.617100  1.0
  H  H151  1  0.203500  0.279100  0.382900  1.0
  H  H152  1  0.296500  0.220900  0.382900  1.0
  H  H153  1  0.844900  0.721800  0.517600  1.0
  H  H154  1  0.655100  0.778200  0.517600  1.0
  H  H155  1  0.155100  0.278200  0.482400  1.0
  H  H156  1  0.344900  0.221800  0.482400  1.0
  H  H157  1  0.833000  0.777400  0.458200  1.0
  H  H158  1  0.667000  0.722600  0.458200  1.0
  H  H159  1  0.167000  0.222600  0.541800  1.0
  H  H160  1  0.333000  0.277400  0.541800  1.0
  H  H161  1  0.799600  0.889600  0.543500  1.0
  H  H162  1  0.700400  0.610400  0.543500  1.0
  H  H163  1  0.200400  0.110400  0.456500  1.0
  H  H164  1  0.299600  0.389600  0.456500  1.0
  H  H165  1  0.811400  0.834100  0.602900  1.0
  H  H166  1  0.688600  0.665900  0.602900  1.0
  H  H167  1  0.188600  0.165900  0.397100  1.0
  H  H168  1  0.311400  0.334100  0.397100  1.0
  H  H169  1  0.565900  0.821200  0.390000  1.0
  H  H170  1  0.934100  0.678800  0.390000  1.0
  H  H171  1  0.434100  0.178800  0.610000  1.0
  H  H172  1  0.065900  0.321200  0.610000  1.0
  H  H173  1  0.512500  0.756900  0.342800  1.0
  H  H174  1  0.987500  0.743100  0.342800  1.0
  H  H175  1  0.487500  0.243100  0.657200  1.0
  H  H176  1  0.012500  0.256900  0.657200  1.0
  H  H177  1  0.550300  0.687800  0.312600  1.0
  H  H178  1  0.949700  0.812200  0.312600  1.0
  H  H179  1  0.449700  0.312200  0.687400  1.0
  H  H180  1  0.050300  0.187800  0.687400  1.0
  H  H181  1  0.641500  0.683000  0.329600  1.0
  H  H182  1  0.858500  0.817000  0.329600  1.0
  H  H183  1  0.358500  0.317000  0.670400  1.0
  H  H184  1  0.141500  0.183000  0.670400  1.0
  H  H185  1  0.625500  0.880600  0.444100  1.0
  H  H186  1  0.874500  0.619400  0.444100  1.0
  H  H187  1  0.374500  0.119400  0.555900  1.0
  H  H188  1  0.125500  0.380600  0.555900  1.0
  H  H189  1  0.716600  0.925500  0.480400  1.0
  H  H190  1  0.783400  0.574500  0.480400  1.0
  H  H191  1  0.283400  0.074500  0.519600  1.0
  H  H192  1  0.216600  0.425500  0.519600  1.0
  H  H193  1  0.823100  0.914800  0.465300  1.0
  H  H194  1  0.676900  0.585200  0.465300  1.0
  H  H195  1  0.176900  0.085200  0.534700  1.0
  H  H196  1  0.323100  0.414800  0.534700  1.0
  H  H197  1  0.829600  0.868300  0.430900  1.0
  H  H198  1  0.670400  0.631700  0.430900  1.0
  H  H199  1  0.170400  0.131700  0.569100  1.0
  H  H200  1  0.329600  0.368300  0.569100  1.0
  H  H201  1  0.151800  0.847600  0.703600  1.0
  H  H202  1  0.348200  0.652400  0.703600  1.0
  H  H203  1  0.848200  0.152400  0.296400  1.0
  H  H204  1  0.651800  0.347600  0.296400  1.0
  H  H205  1  0.201900  0.905500  0.650300  1.0
  H  H206  1  0.298100  0.594500  0.650300  1.0
  H  H207  1  0.798100  0.094500  0.349700  1.0
  H  H208  1  0.701900  0.405500  0.349700  1.0
  H  H209  1  0.166400  0.906800  0.578900  1.0
  H  H210  1  0.333600  0.593200  0.578900  1.0
  H  H211  1  0.833600  0.093200  0.421100  1.0
  H  H212  1  0.666400  0.406800  0.421100  1.0
  H  H213  1  0.080800  0.850100  0.560700  1.0
  H  H214  1  0.419200  0.649900  0.560700  1.0
  H  H215  1  0.919200  0.149900  0.439300  1.0
  H  H216  1  0.580800  0.350100  0.439300  1.0
  H  H217  1  0.086800  0.784300  0.756100  1.0
  H  H218  1  0.413200  0.715700  0.756100  1.0
  H  H219  1  0.913200  0.215700  0.243900  1.0
  H  H220  1  0.586800  0.284300  0.243900  1.0
  H  H221  1  0.995200  0.723400  0.779400  1.0
  H  H222  1  0.504800  0.776600  0.779400  1.0
  H  H223  1  0.004800  0.276600  0.220600  1.0
  H  H224  1  0.495200  0.223400  0.220600  1.0
  H  H225  1  0.898100  0.702600  0.683600  1.0
  H  H226  1  0.601900  0.797400  0.683600  1.0
  H  H227  1  0.101900  0.297400  0.316400  1.0
  H  H228  1  0.398100  0.202600  0.316400  1.0
  H  H229  1  0.898000  0.686600  0.734500  1.0
  H  H230  1  0.602000  0.813400  0.734500  1.0
  H  H231  1  0.102000  0.313400  0.265500  1.0
  H  H232  1  0.398000  0.186600  0.265500  1.0
  H  H233  1  0.006000  0.637000  0.707600  1.0
  H  H234  1  0.494000  0.863000  0.707600  1.0
  H  H235  1  0.994000  0.363000  0.292400  1.0
  H  H236  1  0.506000  0.137000  0.292400  1.0
  H  H237  1  0.006300  0.547800  0.686800  1.0
  H  H238  1  0.493700  0.952200  0.686800  1.0
  H  H239  1  0.993700  0.452200  0.313200  1.0
  H  H240  1  0.506300  0.047800  0.313200  1.0
  H  H241  1  0.842600  0.522100  0.656500  1.0
  H  H242  1  0.657400  0.977900  0.656500  1.0
  H  H243  1  0.157400  0.477900  0.343500  1.0
  H  H244  1  0.342600  0.022100  0.343500  1.0
  H  H245  1  0.842300  0.611200  0.677300  1.0
  H  H246  1  0.657700  0.888800  0.677300  1.0
  H  H247  1  0.157700  0.388800  0.322700  1.0
  H  H248  1  0.342300  0.111200  0.322700  1.0
  H  H249  1  0.884100  0.315900  0.817300  1.0
  H  H250  1  0.615900  0.184100  0.817300  1.0
  H  H251  1  0.115900  0.684100  0.182700  1.0
  H  H252  1  0.384100  0.815900  0.182700  1.0
  H  H253  1  0.935300  0.293500  0.876700  1.0
  H  H254  1  0.564700  0.206500  0.876700  1.0
  H  H255  1  0.064700  0.706500  0.123300  1.0
  H  H256  1  0.435300  0.793500  0.123300  1.0
  H  H257  1  0.028200  0.338500  0.886000  1.0
  H  H258  1  0.471800  0.161500  0.886000  1.0
  H  H259  1  0.971800  0.661500  0.114000  1.0
  H  H260  1  0.528200  0.838500  0.114000  1.0
  H  H261  1  0.069900  0.405900  0.836000  1.0
  H  H262  1  0.430100  0.094100  0.836000  1.0
  H  H263  1  0.930100  0.594100  0.164000  1.0
  H  H264  1  0.569900  0.905900  0.164000  1.0
  H  H265  1  0.834100  0.353600  0.761900  1.0
  H  H266  1  0.665900  0.146400  0.761900  1.0
  H  H267  1  0.165900  0.646400  0.238100  1.0
  H  H268  1  0.334100  0.853600  0.238100  1.0
  H  H269  1  0.822700  0.399400  0.689100  1.0
  H  H270  1  0.677300  0.100600  0.689100  1.0
  H  H271  1  0.177300  0.600600  0.310900  1.0
  H  H272  1  0.322700  0.899400  0.310900  1.0
  H  H273  1  0.901200  0.455700  0.630200  1.0
  H  H274  1  0.598800  0.044300  0.630200  1.0
  H  H275  1  0.098800  0.544300  0.369800  1.0
  H  H276  1  0.401200  0.955700  0.369800  1.0
  H  H277  1  0.964500  0.465600  0.646500  1.0
  H  H278  1  0.535500  0.034400  0.646500  1.0
  H  H279  1  0.035500  0.534400  0.353500  1.0
  H  H280  1  0.464500  0.965600  0.353500  1.0
  H  H281  1  0.649300  0.353500  0.793500  1.0
  H  H282  1  0.850700  0.146500  0.793500  1.0
  H  H283  1  0.350700  0.646500  0.206500  1.0
  H  H284  1  0.149300  0.853500  0.206500  1.0
  H  H285  1  0.592400  0.301500  0.846700  1.0
  H  H286  1  0.907600  0.198500  0.846700  1.0
  H  H287  1  0.407600  0.698500  0.153300  1.0
  H  H288  1  0.092400  0.801500  0.153300  1.0
  H  H289  1  0.595200  0.331600  0.919800  1.0
  H  H290  1  0.904800  0.168400  0.919800  1.0
  H  H291  1  0.404800  0.668400  0.080200  1.0
  H  H292  1  0.095200  0.831600  0.080200  1.0
  H  H293  1  0.654700  0.413700  0.939800  1.0
  H  H294  1  0.845300  0.086300  0.939800  1.0
  H  H295  1  0.345300  0.586300  0.060200  1.0
  H  H296  1  0.154700  0.913700  0.060200  1.0
  H  H297  1  0.717600  0.417700  0.742600  1.0
  H  H298  1  0.782400  0.082300  0.742600  1.0
  H  H299  1  0.282400  0.582300  0.257400  1.0
  H  H300  1  0.217600  0.917700  0.257400  1.0
  H  H301  1  0.781900  0.507400  0.722300  1.0
  H  H302  1  0.718100  0.992600  0.722300  1.0
  H  H303  1  0.218100  0.492600  0.277700  1.0
  H  H304  1  0.281900  0.007400  0.277700  1.0
  H  H305  1  0.801400  0.599200  0.819700  1.0
  H  H306  1  0.698600  0.900800  0.819700  1.0
  H  H307  1  0.198600  0.400800  0.180300  1.0
  H  H308  1  0.301400  0.099200  0.180300  1.0
  H  H309  1  0.816200  0.601100  0.768300  1.0
  H  H310  1  0.683800  0.898900  0.768300  1.0
  H  H311  1  0.183800  0.398900  0.231700  1.0
  H  H312  1  0.316200  0.101100  0.231700  1.0
  H  H313  1  0.899700  0.654400  0.823700  1.0
  H  H314  1  0.600300  0.845600  0.823700  1.0
  H  H315  1  0.100300  0.345600  0.176300  1.0
  H  H316  1  0.399700  0.154400  0.176300  1.0
  H  H317  1  0.992200  0.652400  0.838800  1.0
  H  H318  1  0.507800  0.847600  0.838800  1.0
  H  H319  1  0.007800  0.347600  0.161200  1.0
  H  H320  1  0.492200  0.152400  0.161200  1.0
  H  H321  1  0.960000  0.492400  0.807600  1.0
  H  H322  1  0.540000  0.007600  0.807600  1.0
  H  H323  1  0.040000  0.507600  0.192400  1.0
  H  H324  1  0.460000  0.992400  0.192400  1.0
  H  H325  1  0.867600  0.494400  0.792500  1.0
  H  H326  1  0.632400  0.005600  0.792500  1.0
  H  H327  1  0.132400  0.505600  0.207500  1.0
  H  H328  1  0.367600  0.994400  0.207500  1.0
  H  H329  1  0.185400  0.616600  0.662400  1.0
  H  H330  1  0.314600  0.883400  0.662400  1.0
  H  H331  1  0.814600  0.383400  0.337600  1.0
  H  H332  1  0.685400  0.116600  0.337600  1.0
  H  H333  1  0.200200  0.568100  0.599400  1.0
  H  H334  1  0.299800  0.931900  0.599400  1.0
  H  H335  1  0.799800  0.431900  0.400600  1.0
  H  H336  1  0.700200  0.068100  0.400600  1.0
  H  H337  1  0.152100  0.477900  0.590500  1.0
  H  H338  1  0.347900  0.022100  0.590500  1.0
  H  H339  1  0.847900  0.522100  0.409500  1.0
  H  H340  1  0.652100  0.977900  0.409500  1.0
  H  H341  1  0.089300  0.436100  0.644500  1.0
  H  H342  1  0.410700  0.063900  0.644500  1.0
  H  H343  1  0.910700  0.563900  0.355500  1.0
  H  H344  1  0.589300  0.936100  0.355500  1.0
  H  H345  1  0.150400  0.665200  0.721700  1.0
  H  H346  1  0.349600  0.834800  0.721700  1.0
  H  H347  1  0.849600  0.334800  0.278300  1.0
  H  H348  1  0.650400  0.165200  0.278300  1.0
  H  H349  1  0.109600  0.674400  0.797400  1.0
  H  H350  1  0.390400  0.825600  0.797400  1.0
  H  H351  1  0.890400  0.325600  0.202600  1.0
  H  H352  1  0.609600  0.174400  0.202600  1.0
  H  H353  1  0.062100  0.592300  0.857000  1.0
  H  H354  1  0.437900  0.907700  0.857000  1.0
  H  H355  1  0.937900  0.407700  0.143000  1.0
  H  H356  1  0.562100  0.092300  0.143000  1.0
  H  H357  1  0.049700  0.532300  0.836700  1.0
  H  H358  1  0.450300  0.967700  0.836700  1.0
  H  H359  1  0.950300  0.467700  0.163300  1.0
  H  H360  1  0.549700  0.032300  0.163300  1.0
  H  H361  1  0.631100  0.529600  0.027000  1.0
  H  H362  1  0.868900  0.970400  0.027000  1.0
  H  H363  1  0.368900  0.470400  0.973000  1.0
  H  H364  1  0.131100  0.029600  0.973000  1.0
  H  H365  1  0.686800  0.499600  0.079600  1.0
  H  H366  1  0.813200  0.000400  0.079600  1.0
  H  H367  1  0.313200  0.500400  0.920400  1.0
  H  H368  1  0.186800  0.999600  0.920400  1.0
  H  H369  1  0.767100  0.471900  0.057600  1.0
  H  H370  1  0.732900  0.028100  0.057600  1.0
  H  H371  1  0.232900  0.528100  0.942400  1.0
  H  H372  1  0.267100  0.971900  0.942400  1.0
  H  H373  1  0.791600  0.474200  0.983000  1.0
  H  H374  1  0.708400  0.025800  0.983000  1.0
  H  H375  1  0.208400  0.525800  0.017000  1.0
  H  H376  1  0.291600  0.974200  0.017000  1.0
  H  H377  1  0.576600  0.557600  0.959800  1.0
  H  H378  1  0.923400  0.942400  0.959800  1.0
  H  H379  1  0.423400  0.442400  0.040200  1.0
  H  H380  1  0.076600  0.057600  0.040200  1.0
  H  H381  1  0.568600  0.590800  0.881600  1.0
  H  H382  1  0.931400  0.909200  0.881600  1.0
  H  H383  1  0.431400  0.409200  0.118400  1.0
  H  H384  1  0.068600  0.090800  0.118400  1.0
  H  H385  1  0.696000  0.577900  0.822400  1.0
  H  H386  1  0.804000  0.922100  0.822400  1.0
  H  H387  1  0.304000  0.422100  0.177600  1.0
  H  H388  1  0.196000  0.077900  0.177600  1.0
  H  H389  1  0.647900  0.610500  0.818100  1.0
  H  H390  1  0.852100  0.889500  0.818100  1.0
  H  H391  1  0.352100  0.389500  0.181900  1.0
  H  H392  1  0.147900  0.110500  0.181900  1.0
  H  H393  1  0.661300  0.567300  0.736000  1.0
  H  H394  1  0.838700  0.932700  0.736000  1.0
  H  H395  1  0.338700  0.432700  0.264000  1.0
  H  H396  1  0.161300  0.067300  0.264000  1.0
  H  H397  1  0.619300  0.497900  0.687800  1.0
  H  H398  1  0.880700  0.002100  0.687800  1.0
  H  H399  1  0.380700  0.502100  0.312200  1.0
  H  H400  1  0.119300  0.997900  0.312200  1.0
  H  H401  1  0.537800  0.413200  0.790500  1.0
  H  H402  1  0.962200  0.086800  0.790500  1.0
  H  H403  1  0.462200  0.586800  0.209500  1.0
  H  H404  1  0.037800  0.913200  0.209500  1.0
  H  H405  1  0.579700  0.482600  0.838800  1.0
  H  H406  1  0.920300  0.017400  0.838800  1.0
  H  H407  1  0.420300  0.517400  0.161200  1.0
  H  H408  1  0.079700  0.982600  0.161200  1.0
  H  H409  1  0.366400  0.483600  0.597200  1.0
  H  H410  1  0.133600  0.016400  0.597200  1.0
  H  H411  1  0.633600  0.516400  0.402800  1.0
  H  H412  1  0.866400  0.983600  0.402800  1.0
  H  H413  1  0.273100  0.487200  0.606200  1.0
  H  H414  1  0.226900  0.012800  0.606200  1.0
  H  H415  1  0.726900  0.512800  0.393800  1.0
  H  H416  1  0.773100  0.987200  0.393800  1.0
  H  H417  1  0.225800  0.453700  0.670800  1.0
  H  H418  1  0.274200  0.046300  0.670800  1.0
  H  H419  1  0.774200  0.546300  0.329200  1.0
  H  H420  1  0.725800  0.953700  0.329200  1.0
  H  H421  1  0.271800  0.416700  0.726400  1.0
  H  H422  1  0.228200  0.083300  0.726400  1.0
  H  H423  1  0.728200  0.583300  0.273600  1.0
  H  H424  1  0.771800  0.916700  0.273600  1.0
  H  H425  1  0.457800  0.465100  0.588300  1.0
  H  H426  1  0.042200  0.034900  0.588300  1.0
  H  H427  1  0.542200  0.534900  0.411700  1.0
  H  H428  1  0.957800  0.965100  0.411700  1.0
  H  H429  1  0.546500  0.438300  0.612200  1.0
  H  H430  1  0.953500  0.061700  0.612200  1.0
  H  H431  1  0.453500  0.561700  0.387800  1.0
  H  H432  1  0.046500  0.938300  0.387800  1.0
  H  H433  1  0.574400  0.392300  0.687000  1.0
  H  H434  1  0.925600  0.107700  0.687000  1.0
  H  H435  1  0.425600  0.607700  0.313000  1.0
  H  H436  1  0.074400  0.892300  0.313000  1.0
  H  H437  1  0.525800  0.374400  0.722300  1.0
  H  H438  1  0.974200  0.125600  0.722300  1.0
  H  H439  1  0.474200  0.625600  0.277700  1.0
  H  H440  1  0.025800  0.874400  0.277700  1.0
  H  H441  1  0.940300  0.505400  0.928900  1.0
  H  H442  1  0.559700  0.994600  0.928900  1.0
  H  H443  1  0.059700  0.494600  0.071100  1.0
  H  H444  1  0.440300  0.005400  0.071100  1.0
  H  H445  1  0.936000  0.412900  0.917600  1.0
  H  H446  1  0.564000  0.087100  0.917600  1.0
  H  H447  1  0.064000  0.587100  0.082400  1.0
  H  H448  1  0.436000  0.912900  0.082400  1.0
  H  H449  1  0.852800  0.355600  0.894600  1.0
  H  H450  1  0.647200  0.144400  0.894600  1.0
  H  H451  1  0.147200  0.644400  0.105400  1.0
  H  H452  1  0.352800  0.855600  0.105400  1.0
  H  H453  1  0.773900  0.390800  0.883000  1.0
  H  H454  1  0.726100  0.109200  0.883000  1.0
  H  H455  1  0.226100  0.609200  0.117000  1.0
  H  H456  1  0.273900  0.890800  0.117000  1.0
  H  H457  1  0.932700  0.604800  0.942300  1.0
  H  H458  1  0.567300  0.895200  0.942300  1.0
  H  H459  1  0.067300  0.395200  0.057700  1.0
  H  H460  1  0.432700  0.104800  0.057700  1.0
  H  H461  1  0.887400  0.684800  0.932000  1.0
  H  H462  1  0.612600  0.815200  0.932000  1.0
  H  H463  1  0.112600  0.315200  0.068000  1.0
  H  H464  1  0.387400  0.184800  0.068000  1.0
  H  H465  1  0.752100  0.635600  0.875600  1.0
  H  H466  1  0.747900  0.864400  0.875600  1.0
  H  H467  1  0.247900  0.364400  0.124400  1.0
  H  H468  1  0.252100  0.135600  0.124400  1.0
  H  H469  1  0.794200  0.691700  0.887300  1.0
  H  H470  1  0.705800  0.808300  0.887300  1.0
  H  H471  1  0.205800  0.308300  0.112700  1.0
  H  H472  1  0.294200  0.191700  0.112700  1.0
  H  H473  1  0.687300  0.695700  0.900900  1.0
  H  H474  1  0.812700  0.804300  0.900900  1.0
  H  H475  1  0.312700  0.304300  0.099100  1.0
  H  H476  1  0.187300  0.195700  0.099100  1.0
  H  H477  1  0.627400  0.707600  0.958000  1.0
  H  H478  1  0.872600  0.792400  0.958000  1.0
  H  H479  1  0.372600  0.292400  0.042000  1.0
  H  H480  1  0.127400  0.207600  0.042000  1.0
  H  H481  1  0.720500  0.644200  0.044900  1.0
  H  H482  1  0.779500  0.855800  0.044900  1.0
  H  H483  1  0.279500  0.355800  0.955100  1.0
  H  H484  1  0.220500  0.144200  0.955100  1.0
  H  H485  1  0.780500  0.632400  0.987800  1.0
  H  H486  1  0.719500  0.867600  0.987800  1.0
  H  H487  1  0.219500  0.367600  0.012200  1.0
  H  H488  1  0.280500  0.132400  0.012200  1.0
  H  H489  1  0.659900  0.918100  0.106700  1.0
  H  H490  1  0.840100  0.581900  0.106700  1.0
  H  H491  1  0.340100  0.081900  0.893300  1.0
  H  H492  1  0.159900  0.418100  0.893300  1.0
  H  H493  1  0.722900  0.978700  0.150700  1.0
  H  H494  1  0.777100  0.521300  0.150700  1.0
  H  H495  1  0.277100  0.021300  0.849300  1.0
  H  H496  1  0.222900  0.478700  0.849300  1.0
  H  H497  1  0.798200  0.951100  0.182800  1.0
  H  H498  1  0.701800  0.548900  0.182800  1.0
  H  H499  1  0.201800  0.048900  0.817200  1.0
  H  H500  1  0.298200  0.451100  0.817200  1.0
  H  H501  1  0.810700  0.863000  0.171000  1.0
  H  H502  1  0.689300  0.637000  0.171000  1.0
  H  H503  1  0.189300  0.137000  0.829000  1.0
  H  H504  1  0.310700  0.363000  0.829000  1.0
  H  H505  1  0.605600  0.856300  0.052900  1.0
  H  H506  1  0.894400  0.643700  0.052900  1.0
  H  H507  1  0.394400  0.143700  0.947100  1.0
  H  H508  1  0.105600  0.356300  0.947100  1.0
  H  H509  1  0.567500  0.763800  0.018600  1.0
  H  H510  1  0.932500  0.736200  0.018600  1.0
  H  H511  1  0.432500  0.236200  0.981400  1.0
  H  H512  1  0.067500  0.263800  0.981400  1.0
  H  H513  1  0.589400  0.664500  0.036600  1.0
  H  H514  1  0.910600  0.835500  0.036600  1.0
  H  H515  1  0.410600  0.335500  0.963400  1.0
  H  H516  1  0.089400  0.164500  0.963400  1.0
  H  H517  1  0.637800  0.664300  0.071800  1.0
  H  H518  1  0.862200  0.835700  0.071800  1.0
  H  H519  1  0.362200  0.335700  0.928200  1.0
  H  H520  1  0.137800  0.164300  0.928200  1.0
  Ru  Ru521  1  0.988420  0.763180  0.609770  1.0
  Ru  Ru522  1  0.511580  0.736820  0.609770  1.0
  Ru  Ru523  1  0.011580  0.236820  0.390230  1.0
  Ru  Ru524  1  0.488420  0.263180  0.390230  1.0
  Ru  Ru525  1  0.743300  0.505930  0.892150  1.0
  Ru  Ru526  1  0.756700  0.994070  0.892150  1.0
  Ru  Ru527  1  0.256700  0.494070  0.107850  1.0
  Ru  Ru528  1  0.243300  0.005930  0.107850  1.0
  C  C529  1  0.972400  0.831900  0.534900  1.0
  C  C530  1  0.527600  0.668100  0.534900  1.0
  C  C531  1  0.027600  0.168100  0.465100  1.0
  C  C532  1  0.472400  0.331900  0.465100  1.0
  C  C533  1  0.970700  0.849900  0.491700  1.0
  C  C534  1  0.529300  0.650100  0.491700  1.0
  C  C535  1  0.029300  0.150100  0.508300  1.0
  C  C536  1  0.470700  0.349900  0.508300  1.0
  C  C537  1  0.984300  0.819100  0.457100  1.0
  C  C538  1  0.515700  0.680900  0.457100  1.0
  C  C539  1  0.015700  0.180900  0.542900  1.0
  C  C540  1  0.484300  0.319100  0.542900  1.0
  C  C541  1  0.999600  0.770400  0.465700  1.0
  C  C542  1  0.500400  0.729600  0.465700  1.0
  C  C543  1  0.000400  0.229600  0.534300  1.0
  C  C544  1  0.499600  0.270400  0.534300  1.0
  C  C545  1  0.001300  0.752400  0.508900  1.0
  C  C546  1  0.498700  0.747600  0.508900  1.0
  C  C547  1  0.998700  0.247600  0.491100  1.0
  C  C548  1  0.501300  0.252400  0.491100  1.0
  C  C549  1  0.958600  0.859000  0.569800  1.0
  C  C550  1  0.541400  0.641000  0.569800  1.0
  C  C551  1  0.041400  0.141000  0.430200  1.0
  C  C552  1  0.458600  0.359000  0.430200  1.0
  C  C553  1  0.940600  0.908300  0.575400  1.0
  C  C554  1  0.559400  0.591700  0.575400  1.0
  C  C555  1  0.059400  0.091700  0.424600  1.0
  C  C556  1  0.440600  0.408300  0.424600  1.0
  C  C557  1  0.924500  0.911300  0.620100  1.0
  C  C558  1  0.575500  0.588700  0.620100  1.0
  C  C559  1  0.075500  0.088700  0.379900  1.0
  C  C560  1  0.424500  0.411300  0.379900  1.0
  C  C561  1  0.928300  0.848100  0.685300  1.0
  C  C562  1  0.571700  0.651900  0.685300  1.0
  C  C563  1  0.071700  0.151900  0.314700  1.0
  C  C564  1  0.428300  0.348100  0.314700  1.0
  C  C565  1  0.972000  0.878400  0.712900  1.0
  C  C566  1  0.528000  0.621600  0.712900  1.0
  C  C567  1  0.028000  0.121600  0.287100  1.0
  C  C568  1  0.472000  0.378400  0.287100  1.0
  C  C569  1  0.020100  0.912600  0.697000  1.0
  C  C570  1  0.479900  0.587400  0.697000  1.0
  C  C571  1  0.979900  0.087400  0.303000  1.0
  C  C572  1  0.520100  0.412600  0.303000  1.0
  C  C573  1  0.062100  0.936300  0.726000  1.0
  C  C574  1  0.437900  0.563700  0.726000  1.0
  C  C575  1  0.937900  0.063700  0.274000  1.0
  C  C576  1  0.562100  0.436300  0.274000  1.0
  C  C577  1  0.056100  0.925700  0.770900  1.0
  C  C578  1  0.443900  0.574300  0.770900  1.0
  C  C579  1  0.943900  0.074300  0.229100  1.0
  C  C580  1  0.556100  0.425700  0.229100  1.0
  C  C581  1  0.008000  0.891500  0.786800  1.0
  C  C582  1  0.492000  0.608500  0.786800  1.0
  C  C583  1  0.992000  0.108500  0.213200  1.0
  C  C584  1  0.508000  0.391500  0.213200  1.0
  C  C585  1  0.966000  0.867900  0.757800  1.0
  C  C586  1  0.534000  0.632100  0.757800  1.0
  C  C587  1  0.034000  0.132100  0.242200  1.0
  C  C588  1  0.466000  0.367900  0.242200  1.0
  C  C589  1  0.056800  0.123800  0.843900  1.0
  C  C590  1  0.443200  0.376200  0.843900  1.0
  C  C591  1  0.943200  0.876200  0.156100  1.0
  C  C592  1  0.556800  0.623800  0.156100  1.0
  C  C593  1  0.033100  0.152600  0.874700  1.0
  C  C594  1  0.466900  0.347400  0.874700  1.0
  C  C595  1  0.966900  0.847400  0.125300  1.0
  C  C596  1  0.533100  0.652600  0.125300  1.0
  C  C597  1  0.032100  0.206600  0.866900  1.0
  C  C598  1  0.467900  0.293400  0.866900  1.0
  C  C599  1  0.967900  0.793400  0.133100  1.0
  C  C600  1  0.532100  0.706600  0.133100  1.0
  C  C601  1  0.054800  0.231800  0.828300  1.0
  C  C602  1  0.445200  0.268200  0.828300  1.0
  C  C603  1  0.945200  0.768200  0.171700  1.0
  C  C604  1  0.554800  0.731800  0.171700  1.0
  C  C605  1  0.078500  0.203000  0.797500  1.0
  C  C606  1  0.421500  0.297000  0.797500  1.0
  C  C607  1  0.921500  0.797000  0.202500  1.0
  C  C608  1  0.578500  0.703000  0.202500  1.0
  C  C609  1  0.062100  0.068600  0.850300  1.0
  C  C610  1  0.437900  0.431400  0.850300  1.0
  C  C611  1  0.937900  0.931400  0.149700  1.0
  C  C612  1  0.562100  0.568600  0.149700  1.0
  C  C613  1  0.051300  0.032800  0.886900  1.0
  C  C614  1  0.448700  0.467200  0.886900  1.0
  C  C615  1  0.948700  0.967200  0.113100  1.0
  C  C616  1  0.551300  0.532800  0.113100  1.0
  C  C617  1  0.066300  0.983600  0.874900  1.0
  C  C618  1  0.433700  0.516400  0.874900  1.0
  C  C619  1  0.933700  0.016400  0.125100  1.0
  C  C620  1  0.566300  0.483600  0.125100  1.0
  C  C621  1  0.101800  0.953100  0.805400  1.0
  C  C622  1  0.398200  0.546900  0.805400  1.0
  C  C623  1  0.898200  0.046900  0.194600  1.0
  C  C624  1  0.601800  0.453100  0.194600  1.0
  C  C625  1  0.986100  0.649300  0.583800  1.0
  C  C626  1  0.513900  0.850700  0.583800  1.0
  C  C627  1  0.013900  0.350700  0.416200  1.0
  C  C628  1  0.486100  0.149300  0.416200  1.0
  C  C629  1  0.005500  0.603400  0.572800  1.0
  C  C630  1  0.494500  0.896600  0.572800  1.0
  C  C631  1  0.994500  0.396600  0.427200  1.0
  C  C632  1  0.505500  0.103400  0.427200  1.0
  C  C633  1  0.061600  0.603500  0.577700  1.0
  C  C634  1  0.438400  0.896500  0.577700  1.0
  C  C635  1  0.938400  0.396500  0.422300  1.0
  C  C636  1  0.561600  0.103500  0.422300  1.0
  C  C637  1  0.098100  0.649500  0.593500  1.0
  C  C638  1  0.401900  0.850500  0.593500  1.0
  C  C639  1  0.901900  0.350500  0.406500  1.0
  C  C640  1  0.598100  0.149500  0.406500  1.0
  C  C641  1  0.078700  0.695500  0.604500  1.0
  C  C642  1  0.421300  0.804500  0.604500  1.0
  C  C643  1  0.921300  0.304500  0.395500  1.0
  C  C644  1  0.578700  0.195500  0.395500  1.0
  C  C645  1  0.838400  0.642300  0.580000  1.0
  C  C646  1  0.661600  0.857700  0.580000  1.0
  C  C647  1  0.161600  0.357700  0.420000  1.0
  C  C648  1  0.338400  0.142300  0.420000  1.0
  C  C649  1  0.882400  0.615900  0.571200  1.0
  C  C650  1  0.617600  0.884100  0.571200  1.0
  C  C651  1  0.117600  0.384100  0.428800  1.0
  C  C652  1  0.382400  0.115900  0.428800  1.0
  C  C653  1  0.933200  0.652600  0.581700  1.0
  C  C654  1  0.566800  0.847400  0.581700  1.0
  C  C655  1  0.066800  0.347400  0.418300  1.0
  C  C656  1  0.433200  0.152600  0.418300  1.0
  C  C657  1  0.834100  0.737300  0.605900  1.0
  C  C658  1  0.665900  0.762700  0.605900  1.0
  C  C659  1  0.165900  0.262700  0.394100  1.0
  C  C660  1  0.334100  0.237300  0.394100  1.0
  C  C661  1  0.829300  0.772700  0.565800  1.0
  C  C662  1  0.670700  0.727300  0.565800  1.0
  C  C663  1  0.170700  0.227300  0.434200  1.0
  C  C664  1  0.329300  0.272700  0.434200  1.0
  C  C665  1  0.835700  0.755900  0.522900  1.0
  C  C666  1  0.664300  0.744100  0.522900  1.0
  C  C667  1  0.164300  0.244100  0.477100  1.0
  C  C668  1  0.335700  0.255900  0.477100  1.0
  C  C669  1  0.828600  0.788900  0.487600  1.0
  C  C670  1  0.671400  0.711100  0.487600  1.0
  C  C671  1  0.171400  0.211100  0.512400  1.0
  C  C672  1  0.328600  0.288900  0.512400  1.0
  C  C673  1  0.815200  0.838700  0.495300  1.0
  C  C674  1  0.684800  0.661300  0.495300  1.0
  C  C675  1  0.184800  0.161300  0.504700  1.0
  C  C676  1  0.315200  0.338700  0.504700  1.0
  C  C677  1  0.808800  0.855500  0.538200  1.0
  C  C678  1  0.691200  0.644500  0.538200  1.0
  C  C679  1  0.191200  0.144500  0.461800  1.0
  C  C680  1  0.308800  0.355500  0.461800  1.0
  C  C681  1  0.815800  0.822500  0.573500  1.0
  C  C682  1  0.684200  0.677500  0.573500  1.0
  C  C683  1  0.184200  0.177500  0.426500  1.0
  C  C684  1  0.315800  0.322500  0.426500  1.0
  C  C685  1  0.635500  0.790300  0.387800  1.0
  C  C686  1  0.864500  0.709700  0.387800  1.0
  C  C687  1  0.364500  0.209700  0.612200  1.0
  C  C688  1  0.135500  0.290300  0.612200  1.0
  C  C689  1  0.581300  0.793200  0.377700  1.0
  C  C690  1  0.918700  0.706800  0.377700  1.0
  C  C691  1  0.418700  0.206800  0.622300  1.0
  C  C692  1  0.081300  0.293200  0.622300  1.0
  C  C693  1  0.549500  0.755000  0.349700  1.0
  C  C694  1  0.950500  0.745000  0.349700  1.0
  C  C695  1  0.450500  0.245000  0.650300  1.0
  C  C696  1  0.049500  0.255000  0.650300  1.0
  C  C697  1  0.572000  0.713900  0.331700  1.0
  C  C698  1  0.928000  0.786100  0.331700  1.0
  C  C699  1  0.428000  0.286100  0.668300  1.0
  C  C700  1  0.072000  0.213900  0.668300  1.0
  C  C701  1  0.626200  0.711100  0.341800  1.0
  C  C702  1  0.873800  0.788900  0.341800  1.0
  C  C703  1  0.373800  0.288900  0.658200  1.0
  C  C704  1  0.126200  0.211100  0.658200  1.0
  C  C705  1  0.669600  0.827300  0.413500  1.0
  C  C706  1  0.830400  0.672700  0.413500  1.0
  C  C707  1  0.330400  0.172700  0.586500  1.0
  C  C708  1  0.169600  0.327300  0.586500  1.0
  C  C709  1  0.660000  0.870400  0.440400  1.0
  C  C710  1  0.840000  0.629600  0.440400  1.0
  C  C711  1  0.340000  0.129600  0.559600  1.0
  C  C712  1  0.160000  0.370400  0.559600  1.0
  C  C713  1  0.711000  0.895500  0.460700  1.0
  C  C714  1  0.789000  0.604500  0.460700  1.0
  C  C715  1  0.289000  0.104500  0.539300  1.0
  C  C716  1  0.211000  0.395500  0.539300  1.0
  C  C717  1  0.808500  0.876400  0.456800  1.0
  C  C718  1  0.691500  0.623600  0.456800  1.0
  C  C719  1  0.191500  0.123600  0.543200  1.0
  C  C720  1  0.308500  0.376400  0.543200  1.0
  C  C721  1  0.086600  0.814400  0.663800  1.0
  C  C722  1  0.413400  0.685600  0.663800  1.0
  C  C723  1  0.913400  0.185600  0.336200  1.0
  C  C724  1  0.586600  0.314400  0.336200  1.0
  C  C725  1  0.137400  0.848100  0.674600  1.0
  C  C726  1  0.362600  0.651900  0.674600  1.0
  C  C727  1  0.862600  0.151900  0.325400  1.0
  C  C728  1  0.637400  0.348100  0.325400  1.0
  C  C729  1  0.167100  0.882500  0.642900  1.0
  C  C730  1  0.332900  0.617500  0.642900  1.0
  C  C731  1  0.832900  0.117500  0.357100  1.0
  C  C732  1  0.667100  0.382500  0.357100  1.0
  C  C733  1  0.146000  0.883300  0.600500  1.0
  C  C734  1  0.354000  0.616700  0.600500  1.0
  C  C735  1  0.854000  0.116700  0.399500  1.0
  C  C736  1  0.646000  0.383300  0.399500  1.0
  C  C737  1  0.095200  0.849600  0.589700  1.0
  C  C738  1  0.404800  0.650400  0.589700  1.0
  C  C739  1  0.904800  0.150400  0.410300  1.0
  C  C740  1  0.595200  0.349600  0.410300  1.0
  C  C741  1  0.052800  0.781700  0.691600  1.0
  C  C742  1  0.447200  0.718300  0.691600  1.0
  C  C743  1  0.947200  0.218300  0.308400  1.0
  C  C744  1  0.552800  0.281700  0.308400  1.0
  C  C745  1  0.055900  0.771000  0.737400  1.0
  C  C746  1  0.444100  0.729000  0.737400  1.0
  C  C747  1  0.944100  0.229000  0.262600  1.0
  C  C748  1  0.555900  0.271000  0.262600  1.0
  C  C749  1  0.004600  0.736900  0.750500  1.0
  C  C750  1  0.495400  0.763100  0.750500  1.0
  C  C751  1  0.995400  0.263100  0.249500  1.0
  C  C752  1  0.504600  0.236900  0.249500  1.0
  C  C753  1  0.919600  0.688700  0.706800  1.0
  C  C754  1  0.580400  0.811300  0.706800  1.0
  C  C755  1  0.080400  0.311300  0.293200  1.0
  C  C756  1  0.419600  0.188700  0.293200  1.0
  C  C757  1  0.924100  0.632500  0.694400  1.0
  C  C758  1  0.575900  0.867500  0.694400  1.0
  C  C759  1  0.075900  0.367500  0.305600  1.0
  C  C760  1  0.424100  0.132500  0.305600  1.0
  C  C761  1  0.972800  0.613700  0.697200  1.0
  C  C762  1  0.527200  0.886300  0.697200  1.0
  C  C763  1  0.027200  0.386300  0.302800  1.0
  C  C764  1  0.472800  0.113700  0.302800  1.0
  C  C765  1  0.973000  0.560700  0.684800  1.0
  C  C766  1  0.527000  0.939300  0.684800  1.0
  C  C767  1  0.027000  0.439300  0.315200  1.0
  C  C768  1  0.473000  0.060700  0.315200  1.0
  C  C769  1  0.924500  0.526600  0.669600  1.0
  C  C770  1  0.575500  0.973400  0.669600  1.0
  C  C771  1  0.075500  0.473400  0.330400  1.0
  C  C772  1  0.424500  0.026600  0.330400  1.0
  C  C773  1  0.875800  0.545400  0.666800  1.0
  C  C774  1  0.624200  0.954600  0.666800  1.0
  C  C775  1  0.124200  0.454600  0.333200  1.0
  C  C776  1  0.375800  0.045400  0.333200  1.0
  C  C777  1  0.875600  0.598400  0.679200  1.0
  C  C778  1  0.624400  0.901600  0.679200  1.0
  C  C779  1  0.124400  0.401600  0.320800  1.0
  C  C780  1  0.375600  0.098400  0.320800  1.0
  C  C781  1  0.946600  0.374200  0.791400  1.0
  C  C782  1  0.553400  0.125800  0.791400  1.0
  C  C783  1  0.053400  0.625800  0.208600  1.0
  C  C784  1  0.446600  0.874200  0.208600  1.0
  C  C785  1  0.921800  0.334200  0.821100  1.0
  C  C786  1  0.578200  0.165800  0.821100  1.0
  C  C787  1  0.078200  0.665800  0.178900  1.0
  C  C788  1  0.421800  0.834200  0.178900  1.0
  C  C789  1  0.952200  0.320900  0.856400  1.0
  C  C790  1  0.547800  0.179100  0.856400  1.0
  C  C791  1  0.047800  0.679100  0.143600  1.0
  C  C792  1  0.452200  0.820900  0.143600  1.0
  C  C793  1  0.007400  0.347600  0.861900  1.0
  C  C794  1  0.492600  0.152400  0.861900  1.0
  C  C795  1  0.992600  0.652400  0.138100  1.0
  C  C796  1  0.507400  0.847600  0.138100  1.0
  C  C797  1  0.032200  0.387600  0.832200  1.0
  C  C798  1  0.467800  0.112400  0.832200  1.0
  C  C799  1  0.967800  0.612400  0.167800  1.0
  C  C800  1  0.532200  0.887600  0.167800  1.0
  C  C801  1  0.919900  0.390600  0.757400  1.0
  C  C802  1  0.580100  0.109400  0.757400  1.0
  C  C803  1  0.080100  0.609400  0.242600  1.0
  C  C804  1  0.419900  0.890600  0.242600  1.0
  C  C805  1  0.862900  0.376300  0.745500  1.0
  C  C806  1  0.637100  0.123700  0.745500  1.0
  C  C807  1  0.137100  0.623700  0.254500  1.0
  C  C808  1  0.362900  0.876300  0.254500  1.0
  C  C809  1  0.856500  0.401900  0.704800  1.0
  C  C810  1  0.643500  0.098100  0.704800  1.0
  C  C811  1  0.143500  0.598100  0.295200  1.0
  C  C812  1  0.356500  0.901900  0.295200  1.0
  C  C813  1  0.926300  0.467100  0.655500  1.0
  C  C814  1  0.573700  0.032900  0.655500  1.0
  C  C815  1  0.073700  0.532900  0.344500  1.0
  C  C816  1  0.426300  0.967100  0.344500  1.0
  C  C817  1  0.685700  0.414500  0.835100  1.0
  C  C818  1  0.814300  0.085500  0.835100  1.0
  C  C819  1  0.314300  0.585500  0.164900  1.0
  C  C820  1  0.185700  0.914500  0.164900  1.0
  C  C821  1  0.650400  0.365700  0.823200  1.0
  C  C822  1  0.849600  0.134300  0.823200  1.0
  C  C823  1  0.349600  0.634300  0.176800  1.0
  C  C824  1  0.150400  0.865700  0.176800  1.0
  C  C825  1  0.616600  0.334800  0.854800  1.0
  C  C826  1  0.883400  0.165200  0.854800  1.0
  C  C827  1  0.383400  0.665200  0.145200  1.0
  C  C828  1  0.116600  0.834800  0.145200  1.0
  C  C829  1  0.618200  0.352700  0.898200  1.0
  C  C830  1  0.881800  0.147300  0.898200  1.0
  C  C831  1  0.381800  0.647300  0.101800  1.0
  C  C832  1  0.118200  0.852700  0.101800  1.0
  C  C833  1  0.653600  0.401500  0.910100  1.0
  C  C834  1  0.846400  0.098500  0.910100  1.0
  C  C835  1  0.346400  0.598500  0.089900  1.0
  C  C836  1  0.153600  0.901500  0.089900  1.0
  C  C837  1  0.720300  0.447800  0.808100  1.0
  C  C838  1  0.779700  0.052200  0.808100  1.0
  C  C839  1  0.279700  0.552200  0.191900  1.0
  C  C840  1  0.220300  0.947800  0.191900  1.0
  C  C841  1  0.731700  0.446800  0.762200  1.0
  C  C842  1  0.768300  0.053200  0.762200  1.0
  C  C843  1  0.268300  0.553200  0.237800  1.0
  C  C844  1  0.231700  0.946800  0.237800  1.0
  C  C845  1  0.767600  0.497000  0.750800  1.0
  C  C846  1  0.732400  0.003000  0.750800  1.0
  C  C847  1  0.232400  0.503000  0.249200  1.0
  C  C848  1  0.267600  0.997000  0.249200  1.0
  C  C849  1  0.815400  0.579400  0.795600  1.0
  C  C850  1  0.684600  0.920600  0.795600  1.0
  C  C851  1  0.184600  0.420600  0.204400  1.0
  C  C852  1  0.315400  0.079400  0.204400  1.0
  C  C853  1  0.874900  0.574600  0.806600  1.0
  C  C854  1  0.625100  0.925400  0.806600  1.0
  C  C855  1  0.125100  0.425400  0.193400  1.0
  C  C856  1  0.374900  0.074600  0.193400  1.0
  C  C857  1  0.911900  0.621500  0.820400  1.0
  C  C858  1  0.588100  0.878500  0.820400  1.0
  C  C859  1  0.088100  0.378500  0.179600  1.0
  C  C860  1  0.411900  0.121500  0.179600  1.0
  C  C861  1  0.966900  0.620300  0.829400  1.0
  C  C862  1  0.533100  0.879700  0.829400  1.0
  C  C863  1  0.033100  0.379700  0.170600  1.0
  C  C864  1  0.466900  0.120300  0.170600  1.0
  C  C865  1  0.984800  0.572200  0.824600  1.0
  C  C866  1  0.515200  0.927800  0.824600  1.0
  C  C867  1  0.015200  0.427800  0.175400  1.0
  C  C868  1  0.484800  0.072200  0.175400  1.0
  C  C869  1  0.947800  0.525200  0.810800  1.0
  C  C870  1  0.552200  0.974800  0.810800  1.0
  C  C871  1  0.052200  0.474800  0.189200  1.0
  C  C872  1  0.447800  0.025200  0.189200  1.0
  C  C873  1  0.892900  0.526400  0.801900  1.0
  C  C874  1  0.607100  0.973600  0.801900  1.0
  C  C875  1  0.107100  0.473600  0.198100  1.0
  C  C876  1  0.392900  0.026400  0.198100  1.0
  C  C877  1  0.128500  0.555200  0.690800  1.0
  C  C878  1  0.371500  0.944800  0.690800  1.0
  C  C879  1  0.871500  0.444800  0.309200  1.0
  C  C880  1  0.628500  0.055200  0.309200  1.0
  C  C881  1  0.165900  0.580000  0.658800  1.0
  C  C882  1  0.334100  0.920000  0.658800  1.0
  C  C883  1  0.834100  0.420000  0.341200  1.0
  C  C884  1  0.665900  0.080000  0.341200  1.0
  C  C885  1  0.174700  0.551200  0.621400  1.0
  C  C886  1  0.325300  0.948800  0.621400  1.0
  C  C887  1  0.825300  0.448800  0.378600  1.0
  C  C888  1  0.674700  0.051200  0.378600  1.0
  C  C889  1  0.146100  0.497500  0.616000  1.0
  C  C890  1  0.353900  0.002500  0.616000  1.0
  C  C891  1  0.853900  0.502500  0.384000  1.0
  C  C892  1  0.646100  0.997500  0.384000  1.0
  C  C893  1  0.108800  0.472700  0.648100  1.0
  C  C894  1  0.391200  0.027300  0.648100  1.0
  C  C895  1  0.891200  0.527300  0.351900  1.0
  C  C896  1  0.608800  0.972700  0.351900  1.0
  C  C897  1  0.115200  0.580700  0.726800  1.0
  C  C898  1  0.384800  0.919300  0.726800  1.0
  C  C899  1  0.884800  0.419300  0.273200  1.0
  C  C900  1  0.615200  0.080700  0.273200  1.0
  C  C901  1  0.129300  0.636400  0.738900  1.0
  C  C902  1  0.370700  0.863600  0.738900  1.0
  C  C903  1  0.870700  0.363600  0.261100  1.0
  C  C904  1  0.629300  0.136400  0.261100  1.0
  C  C905  1  0.106500  0.641600  0.781300  1.0
  C  C906  1  0.393500  0.858400  0.781300  1.0
  C  C907  1  0.893500  0.358400  0.218700  1.0
  C  C908  1  0.606500  0.141600  0.218700  1.0
  C  C909  1  0.047100  0.570300  0.830900  1.0
  C  C910  1  0.452900  0.929700  0.830900  1.0
  C  C911  1  0.952900  0.429700  0.169100  1.0
  C  C912  1  0.547100  0.070300  0.169100  1.0
  C  C913  1  0.678200  0.519700  0.973800  1.0
  C  C914  1  0.821800  0.980300  0.973800  1.0
  C  C915  1  0.321800  0.480300  0.026200  1.0
  C  C916  1  0.178200  0.019700  0.026200  1.0
  C  C917  1  0.663700  0.518400  0.018100  1.0
  C  C918  1  0.836300  0.981600  0.018100  1.0
  C  C919  1  0.336300  0.481600  0.981900  1.0
  C  C920  1  0.163700  0.018400  0.981900  1.0
  C  C921  1  0.696800  0.500600  0.049400  1.0
  C  C922  1  0.803200  0.999400  0.049400  1.0
  C  C923  1  0.303200  0.499400  0.950600  1.0
  C  C924  1  0.196800  0.000600  0.950600  1.0
  C  C925  1  0.744400  0.484100  0.036300  1.0
  C  C926  1  0.755600  0.015900  0.036300  1.0
  C  C927  1  0.255600  0.515900  0.963700  1.0
  C  C928  1  0.244400  0.984100  0.963700  1.0
  C  C929  1  0.759000  0.485500  0.991900  1.0
  C  C930  1  0.741000  0.014500  0.991900  1.0
  C  C931  1  0.241000  0.514500  0.008100  1.0
  C  C932  1  0.259000  0.985500  0.008100  1.0
  C  C933  1  0.651100  0.536200  0.939100  1.0
  C  C934  1  0.848900  0.963800  0.939100  1.0
  C  C935  1  0.348900  0.463800  0.060900  1.0
  C  C936  1  0.151100  0.036200  0.060900  1.0
  C  C937  1  0.602000  0.556600  0.936400  1.0
  C  C938  1  0.898000  0.943400  0.936400  1.0
  C  C939  1  0.398000  0.443400  0.063600  1.0
  C  C940  1  0.102000  0.056600  0.063600  1.0
  C  C941  1  0.597500  0.575200  0.892700  1.0
  C  C942  1  0.902500  0.924800  0.892700  1.0
  C  C943  1  0.402500  0.424800  0.107300  1.0
  C  C944  1  0.097500  0.075200  0.107300  1.0
  C  C945  1  0.655600  0.574800  0.826100  1.0
  C  C946  1  0.844400  0.925200  0.826100  1.0
  C  C947  1  0.344400  0.425200  0.173900  1.0
  C  C948  1  0.155600  0.074800  0.173900  1.0
  C  C949  1  0.624500  0.531500  0.791900  1.0
  C  C950  1  0.875500  0.968500  0.791900  1.0
  C  C951  1  0.375500  0.468500  0.208100  1.0
  C  C952  1  0.124500  0.031500  0.208100  1.0
  C  C953  1  0.636200  0.536000  0.747100  1.0
  C  C954  1  0.863800  0.964000  0.747100  1.0
  C  C955  1  0.363800  0.464000  0.252900  1.0
  C  C956  1  0.136200  0.036000  0.252900  1.0
  C  C957  1  0.611300  0.494800  0.718400  1.0
  C  C958  1  0.888700  0.005200  0.718400  1.0
  C  C959  1  0.388700  0.505200  0.281600  1.0
  C  C960  1  0.111300  0.994800  0.281600  1.0
  C  C961  1  0.574600  0.449100  0.734600  1.0
  C  C962  1  0.925400  0.050900  0.734600  1.0
  C  C963  1  0.425400  0.550900  0.265400  1.0
  C  C964  1  0.074600  0.949100  0.265400  1.0
  C  C965  1  0.562800  0.444500  0.779400  1.0
  C  C966  1  0.937200  0.055500  0.779400  1.0
  C  C967  1  0.437200  0.555500  0.220600  1.0
  C  C968  1  0.062800  0.944500  0.220600  1.0
  C  C969  1  0.587800  0.485700  0.808100  1.0
  C  C970  1  0.912200  0.014300  0.808100  1.0
  C  C971  1  0.412200  0.514300  0.191900  1.0
  C  C972  1  0.087800  0.985700  0.191900  1.0
  C  C973  1  0.374500  0.448000  0.656400  1.0
  C  C974  1  0.125500  0.052000  0.656400  1.0
  C  C975  1  0.625500  0.552000  0.343600  1.0
  C  C976  1  0.874500  0.948000  0.343600  1.0
  C  C977  1  0.347200  0.470000  0.623400  1.0
  C  C978  1  0.152800  0.030000  0.623400  1.0
  C  C979  1  0.652800  0.530000  0.376600  1.0
  C  C980  1  0.847200  0.970000  0.376600  1.0
  C  C981  1  0.291800  0.472100  0.628800  1.0
  C  C982  1  0.208200  0.027900  0.628800  1.0
  C  C983  1  0.708200  0.527900  0.371200  1.0
  C  C984  1  0.791800  0.972100  0.371200  1.0
  C  C985  1  0.263700  0.452300  0.667100  1.0
  C  C986  1  0.236300  0.047700  0.667100  1.0
  C  C987  1  0.736300  0.547700  0.332900  1.0
  C  C988  1  0.763700  0.952300  0.332900  1.0
  C  C989  1  0.291000  0.430300  0.700100  1.0
  C  C990  1  0.209000  0.069700  0.700100  1.0
  C  C991  1  0.709000  0.569700  0.299900  1.0
  C  C992  1  0.791000  0.930300  0.299900  1.0
  C  C993  1  0.427400  0.443400  0.652800  1.0
  C  C994  1  0.072600  0.056600  0.652800  1.0
  C  C995  1  0.572600  0.556600  0.347200  1.0
  C  C996  1  0.927400  0.943400  0.347200  1.0
  C  C997  1  0.464800  0.451800  0.616500  1.0
  C  C998  1  0.035200  0.048200  0.616500  1.0
  C  C999  1  0.535200  0.548200  0.383500  1.0
  C  C1000  1  0.964800  0.951800  0.383500  1.0
  C  C1001  1  0.514400  0.436800  0.629900  1.0
  C  C1002  1  0.985600  0.063200  0.629900  1.0
  C  C1003  1  0.485600  0.563200  0.370100  1.0
  C  C1004  1  0.014400  0.936800  0.370100  1.0
  C  C1005  1  0.545700  0.405300  0.704200  1.0
  C  C1006  1  0.954300  0.094700  0.704200  1.0
  C  C1007  1  0.454300  0.594700  0.295800  1.0
  C  C1008  1  0.045700  0.905300  0.295800  1.0
  C  C1009  1  0.859600  0.503100  0.912700  1.0
  C  C1010  1  0.640400  0.996900  0.912700  1.0
  C  C1011  1  0.140400  0.496900  0.087300  1.0
  C  C1012  1  0.359600  0.003100  0.087300  1.0
  C  C1013  1  0.906500  0.482200  0.919600  1.0
  C  C1014  1  0.593500  0.017800  0.919600  1.0
  C  C1015  1  0.093500  0.517800  0.080400  1.0
  C  C1016  1  0.406500  0.982200  0.080400  1.0
  C  C1017  1  0.904000  0.427200  0.912800  1.0
  C  C1018  1  0.596000  0.072800  0.912800  1.0
  C  C1019  1  0.096000  0.572800  0.087200  1.0
  C  C1020  1  0.404000  0.927200  0.087200  1.0
  C  C1021  1  0.854600  0.393200  0.899200  1.0
  C  C1022  1  0.645400  0.106800  0.899200  1.0
  C  C1023  1  0.145400  0.606800  0.100800  1.0
  C  C1024  1  0.354600  0.893200  0.100800  1.0
  C  C1025  1  0.807700  0.414100  0.892300  1.0
  C  C1026  1  0.692300  0.085900  0.892300  1.0
  C  C1027  1  0.192300  0.585900  0.107700  1.0
  C  C1028  1  0.307700  0.914100  0.107700  1.0
  C  C1029  1  0.857200  0.555200  0.919100  1.0
  C  C1030  1  0.642800  0.944800  0.919100  1.0
  C  C1031  1  0.142800  0.444800  0.080900  1.0
  C  C1032  1  0.357200  0.055200  0.080900  1.0
  C  C1033  1  0.896100  0.603100  0.931800  1.0
  C  C1034  1  0.603900  0.896900  0.931800  1.0
  C  C1035  1  0.103900  0.396900  0.068200  1.0
  C  C1036  1  0.396100  0.103100  0.068200  1.0
  C  C1037  1  0.870700  0.647900  0.926000  1.0
  C  C1038  1  0.629300  0.852100  0.926000  1.0
  C  C1039  1  0.129300  0.352100  0.074000  1.0
  C  C1040  1  0.370700  0.147900  0.074000  1.0
  C  C1041  1  0.776100  0.655500  0.899100  1.0
  C  C1042  1  0.723900  0.844500  0.899100  1.0
  C  C1043  1  0.223900  0.344500  0.100900  1.0
  C  C1044  1  0.276100  0.155500  0.100900  1.0
  C  C1045  1  0.739600  0.662900  0.939000  1.0
  C  C1046  1  0.760400  0.837100  0.939000  1.0
  C  C1047  1  0.260400  0.337100  0.061000  1.0
  C  C1048  1  0.239600  0.162900  0.061000  1.0
  C  C1049  1  0.694100  0.685300  0.930100  1.0
  C  C1050  1  0.805900  0.814700  0.930100  1.0
  C  C1051  1  0.305900  0.314700  0.069900  1.0
  C  C1052  1  0.194100  0.185300  0.069900  1.0
  C  C1053  1  0.658500  0.692300  0.964000  1.0
  C  C1054  1  0.841500  0.807700  0.964000  1.0
  C  C1055  1  0.341500  0.307700  0.036000  1.0
  C  C1056  1  0.158500  0.192300  0.036000  1.0
  C  C1057  1  0.668300  0.677000  0.006800  1.0
  C  C1058  1  0.831700  0.823000  0.006800  1.0
  C  C1059  1  0.331700  0.323000  0.993200  1.0
  C  C1060  1  0.168300  0.177000  0.993200  1.0
  C  C1061  1  0.713800  0.654700  0.015700  1.0
  C  C1062  1  0.786200  0.845300  0.015700  1.0
  C  C1063  1  0.286200  0.345300  0.984300  1.0
  C  C1064  1  0.213800  0.154700  0.984300  1.0
  C  C1065  1  0.749400  0.647600  0.981800  1.0
  C  C1066  1  0.750600  0.852400  0.981800  1.0
  C  C1067  1  0.250600  0.352400  0.018200  1.0
  C  C1068  1  0.249400  0.147600  0.018200  1.0
  C  C1069  1  0.697900  0.854600  0.112700  1.0
  C  C1070  1  0.802100  0.645400  0.112700  1.0
  C  C1071  1  0.302100  0.145400  0.887300  1.0
  C  C1072  1  0.197900  0.354600  0.887300  1.0
  C  C1073  1  0.690500  0.906900  0.119800  1.0
  C  C1074  1  0.809500  0.593100  0.119800  1.0
  C  C1075  1  0.309500  0.093100  0.880200  1.0
  C  C1076  1  0.190500  0.406900  0.880200  1.0
  C  C1077  1  0.727900  0.942900  0.145900  1.0
  C  C1078  1  0.772100  0.557100  0.145900  1.0
  C  C1079  1  0.272100  0.057100  0.854100  1.0
  C  C1080  1  0.227900  0.442900  0.854100  1.0
  C  C1081  1  0.772700  0.926500  0.165000  1.0
  C  C1082  1  0.727300  0.573500  0.165000  1.0
  C  C1083  1  0.227300  0.073500  0.835000  1.0
  C  C1084  1  0.272700  0.426500  0.835000  1.0
  C  C1085  1  0.780100  0.874200  0.158000  1.0
  C  C1086  1  0.719900  0.625800  0.158000  1.0
  C  C1087  1  0.219900  0.125800  0.842000  1.0
  C  C1088  1  0.280100  0.374200  0.842000  1.0
  C  C1089  1  0.664700  0.820200  0.085100  1.0
  C  C1090  1  0.835300  0.679800  0.085100  1.0
  C  C1091  1  0.335300  0.179800  0.914900  1.0
  C  C1092  1  0.164700  0.320200  0.914900  1.0
  C  C1093  1  0.619300  0.824400  0.057600  1.0
  C  C1094  1  0.880700  0.675600  0.057600  1.0
  C  C1095  1  0.380700  0.175600  0.942400  1.0
  C  C1096  1  0.119300  0.324400  0.942400  1.0
  C  C1097  1  0.598000  0.772700  0.038400  1.0
  C  C1098  1  0.902000  0.727300  0.038400  1.0
  C  C1099  1  0.402000  0.227300  0.961600  1.0
  C  C1100  1  0.098000  0.272700  0.961600  1.0
  C  C1101  1  0.627700  0.682500  0.045100  1.0
  C  C1102  1  0.872300  0.817500  0.045100  1.0
  C  C1103  1  0.372300  0.317500  0.954900  1.0
  C  C1104  1  0.127700  0.182500  0.954900  1.0
  N  N1105  1  0.987700  0.783200  0.543500  1.0
  N  N1106  1  0.512300  0.716800  0.543500  1.0
  N  N1107  1  0.012300  0.216800  0.456500  1.0
  N  N1108  1  0.487700  0.283200  0.456500  1.0
  N  N1109  1  0.932400  0.864000  0.642100  1.0
  N  N1110  1  0.567600  0.636000  0.642100  1.0
  N  N1111  1  0.067600  0.136000  0.357900  1.0
  N  N1112  1  0.432400  0.364000  0.357900  1.0
  N  N1113  1  0.953500  0.831600  0.611000  1.0
  N  N1114  1  0.546500  0.668400  0.611000  1.0
  N  N1115  1  0.046500  0.168400  0.389000  1.0
  N  N1116  1  0.453500  0.331600  0.389000  1.0
  N  N1117  1  0.079500  0.149000  0.805300  1.0
  N  N1118  1  0.420500  0.351000  0.805300  1.0
  N  N1119  1  0.920500  0.851000  0.194700  1.0
  N  N1120  1  0.579500  0.649000  0.194700  1.0
  N  N1121  1  0.086400  0.989000  0.830900  1.0
  N  N1122  1  0.413600  0.511000  0.830900  1.0
  N  N1123  1  0.913600  0.011000  0.169100  1.0
  N  N1124  1  0.586400  0.489000  0.169100  1.0
  N  N1125  1  0.083800  0.041600  0.815700  1.0
  N  N1126  1  0.416200  0.458400  0.815700  1.0
  N  N1127  1  0.916200  0.958400  0.184300  1.0
  N  N1128  1  0.583800  0.541600  0.184300  1.0
  N  N1129  1  0.022700  0.695400  0.599600  1.0
  N  N1130  1  0.477300  0.804600  0.599600  1.0
  N  N1131  1  0.977300  0.304600  0.400400  1.0
  N  N1132  1  0.522700  0.195400  0.400400  1.0
  N  N1133  1  0.920600  0.701600  0.597000  1.0
  N  N1134  1  0.579400  0.798400  0.597000  1.0
  N  N1135  1  0.079400  0.298400  0.403000  1.0
  N  N1136  1  0.420600  0.201600  0.403000  1.0
  N  N1137  1  0.862000  0.695300  0.595900  1.0
  N  N1138  1  0.638000  0.804700  0.595900  1.0
  N  N1139  1  0.138000  0.304700  0.404100  1.0
  N  N1140  1  0.362000  0.195300  0.404100  1.0
  N  N1141  1  0.657900  0.749300  0.369900  1.0
  N  N1142  1  0.842100  0.750700  0.369900  1.0
  N  N1143  1  0.342100  0.250700  0.630100  1.0
  N  N1144  1  0.157900  0.249300  0.630100  1.0
  N  N1145  1  0.752200  0.867900  0.446500  1.0
  N  N1146  1  0.747800  0.632100  0.446500  1.0
  N  N1147  1  0.247800  0.132100  0.553500  1.0
  N  N1148  1  0.252200  0.367900  0.553500  1.0
  N  N1149  1  0.726500  0.825800  0.417300  1.0
  N  N1150  1  0.773500  0.674200  0.417300  1.0
  N  N1151  1  0.273500  0.174200  0.582700  1.0
  N  N1152  1  0.226500  0.325800  0.582700  1.0
  N  N1153  1  0.065500  0.815200  0.621300  1.0
  N  N1154  1  0.434500  0.684800  0.621300  1.0
  N  N1155  1  0.934500  0.184800  0.378700  1.0
  N  N1156  1  0.565500  0.315200  0.378700  1.0
  N  N1157  1  0.969800  0.726500  0.712700  1.0
  N  N1158  1  0.530200  0.773500  0.712700  1.0
  N  N1159  1  0.030200  0.273500  0.287300  1.0
  N  N1160  1  0.469800  0.226500  0.287300  1.0
  N  N1161  1  0.999600  0.754200  0.676400  1.0
  N  N1162  1  0.500400  0.745800  0.676400  1.0
  N  N1163  1  0.000400  0.245800  0.323600  1.0
  N  N1164  1  0.499600  0.254200  0.323600  1.0
  N  N1165  1  0.001800  0.400900  0.797000  1.0
  N  N1166  1  0.498200  0.099100  0.797000  1.0
  N  N1167  1  0.998200  0.599100  0.203000  1.0
  N  N1168  1  0.501800  0.900900  0.203000  1.0
  N  N1169  1  0.909600  0.432100  0.691500  1.0
  N  N1170  1  0.590400  0.067900  0.691500  1.0
  N  N1171  1  0.090400  0.567900  0.308500  1.0
  N  N1172  1  0.409600  0.932100  0.308500  1.0
  N  N1173  1  0.948800  0.425100  0.724000  1.0
  N  N1174  1  0.551200  0.074900  0.724000  1.0
  N  N1175  1  0.051200  0.574900  0.276000  1.0
  N  N1176  1  0.448800  0.925100  0.276000  1.0
  N  N1177  1  0.687400  0.432400  0.878500  1.0
  N  N1178  1  0.812600  0.067600  0.878500  1.0
  N  N1179  1  0.312600  0.567600  0.121500  1.0
  N  N1180  1  0.187400  0.932400  0.121500  1.0
  N  N1181  1  0.778500  0.529100  0.789700  1.0
  N  N1182  1  0.721500  0.970900  0.789700  1.0
  N  N1183  1  0.221500  0.470900  0.210300  1.0
  N  N1184  1  0.278500  0.029100  0.210300  1.0
  N  N1185  1  0.749300  0.498600  0.825100  1.0
  N  N1186  1  0.750700  0.001400  0.825100  1.0
  N  N1187  1  0.250700  0.501400  0.174900  1.0
  N  N1188  1  0.249300  0.998600  0.174900  1.0
  N  N1189  1  0.100000  0.501500  0.685500  1.0
  N  N1190  1  0.400000  0.998500  0.685500  1.0
  N  N1191  1  0.900000  0.498500  0.314500  1.0
  N  N1192  1  0.600000  0.001500  0.314500  1.0
  N  N1193  1  0.078200  0.589100  0.795300  1.0
  N  N1194  1  0.421800  0.910900  0.795300  1.0
  N  N1195  1  0.921800  0.410900  0.204700  1.0
  N  N1196  1  0.578200  0.089100  0.204700  1.0
  N  N1197  1  0.083600  0.551500  0.761700  1.0
  N  N1198  1  0.416400  0.948500  0.761700  1.0
  N  N1199  1  0.916400  0.448500  0.238300  1.0
  N  N1200  1  0.583600  0.051500  0.238300  1.0
  N  N1201  1  0.725900  0.503300  0.960700  1.0
  N  N1202  1  0.774100  0.996700  0.960700  1.0
  N  N1203  1  0.274100  0.496700  0.039300  1.0
  N  N1204  1  0.225900  0.003300  0.039300  1.0
  N  N1205  1  0.643800  0.566200  0.868300  1.0
  N  N1206  1  0.856200  0.933800  0.868300  1.0
  N  N1207  1  0.356200  0.433800  0.131700  1.0
  N  N1208  1  0.143800  0.066200  0.131700  1.0
  N  N1209  1  0.676900  0.542100  0.897000  1.0
  N  N1210  1  0.823100  0.957900  0.897000  1.0
  N  N1211  1  0.323100  0.457900  0.103000  1.0
  N  N1212  1  0.176900  0.042100  0.103000  1.0
  N  N1213  1  0.346400  0.428100  0.694800  1.0
  N  N1214  1  0.153600  0.071900  0.694800  1.0
  N  N1215  1  0.653600  0.571900  0.305200  1.0
  N  N1216  1  0.846400  0.928100  0.305200  1.0
  N  N1217  1  0.507700  0.419100  0.674400  1.0
  N  N1218  1  0.992300  0.080900  0.674400  1.0
  N  N1219  1  0.492300  0.580900  0.325600  1.0
  N  N1220  1  0.007700  0.919100  0.325600  1.0
  N  N1221  1  0.454000  0.423200  0.688500  1.0
  N  N1222  1  0.046000  0.076800  0.688500  1.0
  N  N1223  1  0.546000  0.576800  0.311500  1.0
  N  N1224  1  0.954000  0.923200  0.311500  1.0
  N  N1225  1  0.810200  0.469000  0.899000  1.0
  N  N1226  1  0.689800  0.031000  0.899000  1.0
  N  N1227  1  0.189800  0.531000  0.101000  1.0
  N  N1228  1  0.310200  0.969000  0.101000  1.0
  N  N1229  1  0.816100  0.627700  0.909700  1.0
  N  N1230  1  0.683900  0.872300  0.909700  1.0
  N  N1231  1  0.183900  0.372300  0.090300  1.0
  N  N1232  1  0.316100  0.127700  0.090300  1.0
  N  N1233  1  0.807800  0.570400  0.905400  1.0
  N  N1234  1  0.692200  0.929600  0.905400  1.0
  N  N1235  1  0.192200  0.429600  0.094600  1.0
  N  N1236  1  0.307800  0.070400  0.094600  1.0
  N  N1237  1  0.742700  0.838200  0.131800  1.0
  N  N1238  1  0.757300  0.661800  0.131800  1.0
  N  N1239  1  0.257300  0.161800  0.868200  1.0
  N  N1240  1  0.242700  0.338200  0.868200  1.0
  N  N1241  1  0.630200  0.736500  0.054100  1.0
  N  N1242  1  0.869800  0.763500  0.054100  1.0
  N  N1243  1  0.369800  0.263500  0.945900  1.0
  N  N1244  1  0.130200  0.236500  0.945900  1.0
  N  N1245  1  0.671500  0.765900  0.082900  1.0
  N  N1246  1  0.828500  0.734100  0.082900  1.0
  N  N1247  1  0.328500  0.234100  0.917100  1.0
  N  N1248  1  0.171500  0.265900  0.917100  1.0
  F  F1249  1  0.713600  0.692200  0.678700  1
  F  F1250  1  0.786400  0.807800  0.678700  1
  F  F1251  1  0.286400  0.307800  0.321300  1
  F  F1252  1  0.213600  0.192200  0.321300  1
  F  F1253  1  0.789300  0.672800  0.708100  1
  F  F1254  1  0.710700  0.827200  0.708100  1
  F  F1255  1  0.210700  0.327200  0.291900  1
  F  F1256  1  0.289300  0.172800  0.291900  1
  F  F1257  1  0.707900  0.645500  0.741600  1
  F  F1258  1  0.792100  0.854500  0.741600  1
  F  F1259  1  0.292100  0.354500  0.258400  1
  F  F1260  1  0.207900  0.145500  0.258400  1
  F  F1261  1  0.672200  0.604400  0.679500  1
  F  F1262  1  0.827800  0.895600  0.679500  1
  F  F1263  1  0.327800  0.395600  0.320500  1
  F  F1264  1  0.172200  0.104400  0.320500  1
  F  F1265  1  0.753700  0.631300  0.646100  1
  F  F1266  1  0.746300  0.868700  0.646100  1
  F  F1267  1  0.246300  0.368700  0.353900  1
  F  F1268  1  0.253700  0.131300  0.353900  1
  F  F1269  1  0.747800  0.584600  0.708800  1
  F  F1270  1  0.752200  0.915400  0.708800  1
  F  F1271  1  0.252200  0.415400  0.291200  1
  F  F1272  1  0.247800  0.084600  0.291200  1
  F  F1273  1  0.626200  0.500400  0.549500  1
  F  F1274  1  0.873800  0.999600  0.549500  1
  F  F1275  1  0.373800  0.499600  0.450500  1
  F  F1276  1  0.126200  0.000400  0.450500  1
  F  F1277  1  0.593100  0.530200  0.488800  1
  F  F1278  1  0.906900  0.969800  0.488800  1
  F  F1279  1  0.406900  0.469800  0.511200  1
  F  F1280  1  0.093100  0.030200  0.511200  1
  F  F1281  1  0.540800  0.464200  0.526800  1
  F  F1282  1  0.959200  0.035800  0.526800  1
  F  F1283  1  0.459200  0.535800  0.473200  1
  F  F1284  1  0.040800  0.964200  0.473200  1
  F  F1285  1  0.571200  0.449100  0.460700  1
  F  F1286  1  0.928800  0.050900  0.460700  1
  F  F1287  1  0.428800  0.550900  0.539300  1
  F  F1288  1  0.071200  0.949100  0.539300  1
  F  F1289  1  0.605300  0.416200  0.517300  1
  F  F1290  1  0.894700  0.083800  0.517300  1
  F  F1291  1  0.394700  0.583800  0.482700  1
  F  F1292  1  0.105300  0.916200  0.482700  1
  F  F1293  1  0.659300  0.484400  0.481000  1
  F  F1294  1  0.840700  0.015600  0.481000  1
  F  F1295  1  0.340700  0.515600  0.519000  1
  F  F1296  1  0.159300  0.984400  0.519000  1
  F  F1297  1  0.087900  0.892200  0.983100  1
  F  F1298  1  0.412100  0.607800  0.983100  1
  F  F1299  1  0.912100  0.107800  0.016900  1
  F  F1300  1  0.587900  0.392200  0.016900  1
  F  F1301  1  0.999700  0.876100  0.951000  1
  F  F1302  1  0.500300  0.623900  0.951000  1
  F  F1303  1  0.000300  0.123900  0.049000  1
  F  F1304  1  0.499700  0.376100  0.049000  1
  F  F1305  1  0.015400  0.844200  0.021800  1
  F  F1306  1  0.484600  0.655800  0.021800  1
  F  F1307  1  0.984600  0.155800  0.978200  1
  F  F1308  1  0.515400  0.344200  0.978200  1
  F  F1309  1  0.038400  0.960300  0.974300  1
  F  F1310  1  0.461600  0.539700  0.974300  1
  F  F1311  1  0.961600  0.039700  0.025700  1
  F  F1312  1  0.538400  0.460300  0.025700  1
  F  F1313  1  0.051500  0.924200  0.039900  1
  F  F1314  1  0.448500  0.575800  0.039900  1
  F  F1315  1  0.948500  0.075800  0.960100  1
  F  F1316  1  0.551500  0.424200  0.960100  1
  F  F1317  1  0.971600  0.908500  0.013400  1
  F  F1318  1  0.528400  0.591500  0.013400  1
  F  F1319  1  0.028400  0.091500  0.986600  1
  F  F1320  1  0.471600  0.408500  0.986600  1
  F  F1321  1  0.373800  0.984400  0.903200  1
  F  F1322  1  0.126200  0.515600  0.903200  1
  F  F1323  1  0.626200  0.015600  0.096800  1
  F  F1324  1  0.873800  0.484400  0.096800  1
  F  F1325  1  0.374500  0.955400  0.972700  1
  F  F1326  1  0.125500  0.544600  0.972700  1
  F  F1327  1  0.625500  0.044600  0.027300  1
  F  F1328  1  0.874500  0.455400  0.027300  1
  F  F1329  1  0.454800  0.015300  0.984700  1
  F  F1330  1  0.045200  0.484700  0.984700  1
  F  F1331  1  0.545200  0.984700  0.015300  1
  F  F1332  1  0.954800  0.515300  0.015300  1
  F  F1333  1  0.381200  0.043100  0.958900  1
  F  F1334  1  0.118800  0.456900  0.958900  1
  F  F1335  1  0.618800  0.956900  0.041100  1
  F  F1336  1  0.881200  0.543100  0.041100  1
  F  F1337  1  0.454100  0.044200  0.915200  1
  F  F1338  1  0.045900  0.455800  0.915200  1
  F  F1339  1  0.545900  0.955800  0.084800  1
  F  F1340  1  0.954100  0.544200  0.084800  1
  F  F1341  1  0.447000  0.956400  0.929200  1
  F  F1342  1  0.053000  0.543600  0.929200  1
  F  F1343  1  0.553000  0.043600  0.070800  1
  F  F1344  1  0.947000  0.456400  0.070800  1
  F  F1345  1  0.850000  0.424800  0.490300  1
  F  F1346  1  0.650000  0.075200  0.490300  1
  F  F1347  1  0.150000  0.575200  0.509700  1
  F  F1348  1  0.350000  0.924800  0.509700  1
  F  F1349  1  0.861900  0.470000  0.553600  1
  F  F1350  1  0.638100  0.030000  0.553600  1
  F  F1351  1  0.138100  0.530000  0.446400  1
  F  F1352  1  0.361900  0.970000  0.446400  1
  F  F1353  1  0.778000  0.420300  0.535700  1
  F  F1354  1  0.722000  0.079700  0.535700  1
  F  F1355  1  0.222000  0.579700  0.464300  1
  F  F1356  1  0.278000  0.920300  0.464300  1
  F  F1357  1  0.793100  0.510800  0.537100  1
  F  F1358  1  0.706900  0.989200  0.537100  1
  F  F1359  1  0.206900  0.489200  0.462900  1
  F  F1360  1  0.293100  0.010800  0.462900  1
  F  F1361  1  0.781900  0.466000  0.472700  1
  F  F1362  1  0.718100  0.034000  0.472700  1
  F  F1363  1  0.218100  0.534000  0.527300  1
  F  F1364  1  0.281900  0.966000  0.527300  1
  F  F1365  1  0.864700  0.515800  0.490800  1
  F  F1366  1  0.635300  0.984200  0.490800  1
  F  F1367  1  0.135300  0.484200  0.509200  1
  F  F1368  1  0.364700  0.015800  0.509200  1
  F  F1369  1  0.666800  0.794600  0.811200  1
  F  F1370  1  0.833200  0.705400  0.811200  1
  F  F1371  1  0.333200  0.205400  0.188800  1
  F  F1372  1  0.166800  0.294600  0.188800  1
  F  F1373  1  0.577900  0.751000  0.809900  1
  F  F1374  1  0.922100  0.749000  0.809900  1
  F  F1375  1  0.422100  0.249000  0.190100  1
  F  F1376  1  0.077900  0.251000  0.190100  1
  F  F1377  1  0.640900  0.719600  0.770900  1
  F  F1378  1  0.859100  0.780400  0.770900  1
  F  F1379  1  0.359100  0.280400  0.229100  1
  F  F1380  1  0.140900  0.219600  0.229100  1
  F  F1381  1  0.628300  0.750200  0.871000  1
  F  F1382  1  0.871700  0.749800  0.871000  1
  F  F1383  1  0.371700  0.249800  0.129000  1
  F  F1384  1  0.128300  0.250200  0.129000  1
  F  F1385  1  0.602300  0.674900  0.830900  1
  F  F1386  1  0.897700  0.825100  0.830900  1
  F  F1387  1  0.397700  0.325100  0.169100  1
  F  F1388  1  0.102300  0.174900  0.169100  1
  F  F1389  1  0.691200  0.718800  0.831700  1
  F  F1390  1  0.808800  0.781200  0.831700  1
  F  F1391  1  0.308800  0.281200  0.168300  1
  F  F1392  1  0.191200  0.218800  0.168300  1
  F  F1393  1  0.254000  0.704800  0.694200  1.0
  F  F1394  1  0.246000  0.795200  0.694200  1.0
  F  F1395  1  0.746000  0.295200  0.305800  1.0
  F  F1396  1  0.754000  0.204800  0.305800  1.0
  F  F1397  1  0.184700  0.734300  0.658700  1.0
  F  F1398  1  0.315300  0.765700  0.658700  1.0
  F  F1399  1  0.815300  0.265700  0.341300  1.0
  F  F1400  1  0.684700  0.234300  0.341300  1.0
  F  F1401  1  0.245300  0.701700  0.621800  1.0
  F  F1402  1  0.254700  0.798300  0.621800  1.0
  F  F1403  1  0.754700  0.298300  0.378200  1.0
  F  F1404  1  0.745300  0.201700  0.378200  1.0
  F  F1405  1  0.766900  0.314200  0.825100  1.0
  F  F1406  1  0.733100  0.185800  0.825100  1.0
  F  F1407  1  0.233100  0.685800  0.174900  1.0
  F  F1408  1  0.266900  0.814200  0.174900  1.0
  F  F1409  1  0.700400  0.250900  0.795200  1.0
  F  F1410  1  0.799600  0.249100  0.795200  1.0
  F  F1411  1  0.299600  0.749100  0.204800  1.0
  F  F1412  1  0.200400  0.750900  0.204800  1.0
  F  F1413  1  0.804300  0.251700  0.857000  1.0
  F  F1414  1  0.695700  0.248300  0.857000  1.0
  F  F1415  1  0.195700  0.748300  0.143000  1.0
  F  F1416  1  0.304300  0.751700  0.143000  1.0
