
#######################################################################
#
#                 Cambridge Crystallographic Data Centre
#                                CCDC 
#
#######################################################################
#
# If this CIF has been generated from an entry in the Cambridge 
# Structural Database, then it will include bibliographic, chemical, 
# crystal, experimental, refinement or atomic coordinate data resulting 
# from the CCDC's data processing and validation procedures.
#
#######################################################################

data_WUFMIT
_chemical_formula_moiety         'C48 H56 Ag4 N8 Si4 4+,4(B1 F4 1-),4(H2 O1)'
_chemical_name_systematic        
"Cyclo-tetrakis((\m~2~-bis(3-pyridyl)dimethylsilane-N,N')-silver(i)) tetrakis(tetrafluoroborate) tetrahydrate"
_symmetry_cell_setting           triclinic
_symmetry_space_group_name_H-M   'P -1'
_symmetry_Int_Tables_number      2
_space_group_name_Hall           '-P 1'
loop_
_symmetry_equiv_pos_site_id
_symmetry_equiv_pos_as_xyz
1 x,y,z
2 -x,-y,-z
_cell_length_a                   8.5296(3)
_cell_length_b                   13.4064(4)
_cell_length_c                   14.8556(4)
_cell_angle_alpha                80.821(2)
_cell_angle_beta                 83.5804(19)
_cell_angle_gamma                76.8349(16)
_cell_volume                     1627.89
_exptl_crystal_colour            colorless
_cell_formula_units_Z            1
loop_
_atom_site_label
_atom_site_type_symbol
_atom_site_fract_x
_atom_site_fract_y
_atom_site_fract_z
Ag1 Ag 0.30491(6) 0.01354(4) 0.04844(3)
Ag2 Ag 0.49187(6) 0.66461(4) 0.40885(3)
Si1 Si 0.3700(3) 0.39237(13) 0.16997(12)
Si2 Si -0.02838(18) 0.13160(14) -0.28365(11)
N1 N 0.1904(5) -0.0324(3) -0.0537(3)
N2 N 0.3907(5) 0.0867(3) 0.1444(3)
N3 N 0.3731(6) 0.5472(3) 0.3894(3)
N4 N 0.6211(6) 0.7803(4) 0.4204(3)
C1 C 0.1242(6) 0.0413(4) -0.1194(3)
H1 H 0.1320 0.1090 -0.1174
C2 C 0.0453(6) 0.0234(4) -0.1899(3)
C3 C 0.0362(7) -0.0803(5) -0.1900(4)
H2 H -0.0151 -0.0973 -0.2356
C4 C 0.1023(8) -0.1561(5) -0.1232(4)
H3 H 0.0955 -0.2243 -0.1232
C5 C 0.1790(7) -0.1304(4) -0.0561(4)
H4 H 0.2243 -0.1822 -0.0112
C6 C 0.3533(7) 0.1910(4) 0.1359(4)
H5 H 0.2877 0.2267 0.0901
C7 C 0.4067(7) 0.2474(4) 0.1911(3)
C8 C 0.5078(7) 0.1920(4) 0.2571(3)
H6 H 0.5494 0.2270 0.2949
C9 C 0.5472(6) 0.0856(4) 0.2673(3)
H7 H 0.6128 0.0480 0.3125
C10 C 0.4872(6) 0.0366(4) 0.2093(3)
H8 H 0.5151 -0.0352 0.2154
C11 C 0.4004(7) 0.5101(4) 0.3084(4)
H9 H 0.4738 0.5354 0.2647
C12 C 0.3255(7) 0.4366(4) 0.2865(4)
C13 C 0.2179(8) 0.3997(5) 0.3544(5)
H10 H 0.1641 0.3503 0.3435
C14 C 0.1915(8) 0.4361(5) 0.4369(5)
H11 H 0.1209 0.4107 0.4824
C15 C 0.2687(7) 0.5100(4) 0.4528(4)
H12 H 0.2481 0.5349 0.5089
C16 C 0.5891(7) 0.8344(5) 0.4909(4)
H13 H 0.4995 0.8281 0.5315
C17 C 0.6848(8) 0.8989(5) 0.5048(4)
H14 H 0.6612 0.9348 0.5549
C18 C 0.8159(7) 0.9103(4) 0.4445(4)
H15 H 0.8814 0.9539 0.4540
C19 C 0.1491(6) 0.1431(4) -0.3691(3)
C20 C 0.7481(7) 0.7927(4) 0.3610(4)
H16 H 0.7684 0.7559 0.3114
C21 C 0.1919(15) 0.4462(7) 0.1020(7)
H17 H 0.1746 0.5202 0.0914
H18 H 0.0980 0.4261 0.1350
H19 H 0.2111 0.4199 0.0444
C22 C 0.5625(13) 0.4272(6) 0.1155(6)
H20 H 0.6481 0.3966 0.1546
H21 H 0.5497 0.5011 0.1065
H22 H 0.5884 0.4019 0.0576
C23 C -0.0964(10) 0.2552(6) -0.2330(6)
H23 H -0.0085 0.2683 -0.2048
H24 H -0.1848 0.2494 -0.1879
H25 H -0.1306 0.3112 -0.2803
C24 C -0.1866(8) 0.0966(8) -0.3409(5)
H26 H -0.2777 0.0905 -0.2978
H27 H -0.1442 0.0319 -0.3635
H28 H -0.2198 0.1495 -0.3909
C18A C 0.1841(7) 0.0897(4) -0.4445(4)
C17A C 0.3152(8) 0.1011(5) -0.5048(4)
C16A C 0.4109(7) 0.1656(5) -0.4909(4)
N4A N 0.3789(6) 0.2197(4) -0.4204(3)
Ag2A Ag 0.50813(6) 0.33539(4) -0.40885(3)
N3A N 0.6269(6) 0.4528(3) -0.3894(3)
C11A C 0.5996(7) 0.4899(4) -0.3084(4)
H9A H 0.5262 0.4646 -0.2647
C12A C 0.6745(7) 0.5634(4) -0.2865(4)
Si1A Si 0.6300(3) 0.60763(13) -0.16997(12)
C7A C 0.5933(7) 0.7526(4) -0.1911(3)
C6A C 0.6467(7) 0.8090(4) -0.1359(4)
N2A N 0.6093(5) 0.9133(3) -0.1444(3)
Ag1A Ag 0.69509(6) 0.98646(4) -0.04844(3)
N1A N 0.8096(5) 1.0324(3) 0.0537(3)
C1A C 0.8758(6) 0.9587(4) 0.1194(3)
H1A H 0.8680 0.8910 0.1174
C2A C 0.9547(6) 0.9766(4) 0.1899(3)
Si2A Si 1.02838(18) 0.86840(14) 0.28365(11)
C19A C 0.8509(6) 0.8569(4) 0.3691(3)
C23A C 1.0964(10) 0.7448(6) 0.2330(6)
H23A H 1.0085 0.7317 0.2048
H24A H 1.1848 0.7506 0.1879
H25A H 1.1306 0.6888 0.2803
C24A C 1.1866(8) 0.9034(8) 0.3409(5)
H26A H 1.2777 0.9095 0.2978
H27A H 1.1442 0.9681 0.3635
H28A H 1.2198 0.8505 0.3909
C3A C 0.9638(7) 1.0803(5) 0.1900(4)
H2A H 1.0151 1.0973 0.2356
C4A C 0.8977(8) 1.1561(5) 0.1232(4)
H3A H 0.9045 1.2243 0.1232
C5A C 0.8210(7) 1.1304(4) 0.0561(4)
H4A H 0.7757 1.1822 0.0112
C10A C 0.5128(6) 0.9634(4) -0.2093(3)
C9A C 0.4528(6) 0.9144(4) -0.2673(3)
C8A C 0.4922(7) 0.8080(4) -0.2571(3)
H6A H 0.4506 0.7730 -0.2949
H7A H 0.3872 0.9520 -0.3125
H8A H 0.4849 1.0352 -0.2154
H5A H 0.7123 0.7733 -0.0901
C21A C 0.8081(15) 0.5538(7) -0.1020(7)
H17A H 0.8254 0.4798 -0.0914
H18A H 0.9020 0.5739 -0.1350
H19A H 0.7889 0.5801 -0.0444
C22A C 0.4375(13) 0.5728(6) -0.1155(6)
H20A H 0.3519 0.6034 -0.1546
H21A H 0.4503 0.4989 -0.1065
H22A H 0.4116 0.5981 -0.0576
C13A C 0.7821(8) 0.6003(5) -0.3544(5)
H10A H 0.8359 0.6497 -0.3435
C14A C 0.8085(8) 0.5639(5) -0.4369(5)
H11A H 0.8791 0.5893 -0.4824
C15A C 0.7313(7) 0.4900(4) -0.4528(4)
H12A H 0.7519 0.4651 -0.5089
C20A C 0.2519(7) 0.2073(4) -0.3610(4)
H16A H 0.2316 0.2441 -0.3114
H13A H 0.5005 0.1719 -0.5315
H14A H 0.3388 0.0652 -0.5549
H15A H 0.1186 0.0461 -0.4540
B1 B 0.8403(10) 0.2545(6) 0.3921(5)
F1 F 0.9138(8) 0.2800(4) 0.4581(4)
F2 F 0.8713(15) 0.2969(7) 0.3051(5)
F3 F 0.8170(11) 0.1574(5) 0.4028(5)
F4 F 0.6835(9) 0.3075(7) 0.4047(7)
B2 B 0.5753(10) 0.7467(5) 0.1220(5)
F5 F 0.5603(15) 0.7228(11) 0.2083(4)
F6 F 0.507(2) 0.8380(7) 0.1104(12)
F7 F 0.5016(10) 0.7033(6) 0.0714(5)
F8 F 0.7099(15) 0.7690(13) 0.0856(6)
O1 O 0.8040(16) 0.5360(11) 0.3018(11)
O2? O -0.005(2) 0.205(2) 0.3582(19)
loop_
_geom_bond_atom_site_label_1
_geom_bond_atom_site_label_2
_geom_bond_site_symmetry_1
_geom_bond_site_symmetry_2
Ag1 N1 1_555 1_555
Ag2 N3 1_555 1_555
Si1 C7 1_555 1_555
Si2 C2 1_555 1_555
N1 C1 1_555 1_555
N2 Ag1 1_555 1_555
N3 C11 1_555 1_555
N4 Ag2 1_555 1_555
C1 H1 1_555 1_555
C2 C1 1_555 1_555
C3 C2 1_555 1_555
H2 C3 1_555 1_555
C4 C3 1_555 1_555
H3 C4 1_555 1_555
C5 N1 1_555 1_555
H4 C5 1_555 1_555
C6 N2 1_555 1_555
H5 C6 1_555 1_555
C7 C6 1_555 1_555
C8 C7 1_555 1_555
H6 C8 1_555 1_555
C9 C8 1_555 1_555
H7 C9 1_555 1_555
C10 N2 1_555 1_555
H8 C10 1_555 1_555
C11 H9 1_555 1_555
C12 Si1 1_555 1_555
C13 C12 1_555 1_555
H10 C13 1_555 1_555
C14 C13 1_555 1_555
H11 C14 1_555 1_555
C15 N3 1_555 1_555
H12 C15 1_555 1_555
C16 N4 1_555 1_555
H13 C16 1_555 1_555
C17 C16 1_555 1_555
H14 C17 1_555 1_555
C18 C17 1_555 1_555
H15 C18 1_555 1_555
C19 Si2 1_555 1_555
C20 N4 1_555 1_555
H16 C20 1_555 1_555
C21 Si1 1_555 1_555
H17 C21 1_555 1_555
H18 C21 1_555 1_555
H19 C21 1_555 1_555
C22 Si1 1_555 1_555
H20 C22 1_555 1_555
H21 C22 1_555 1_555
H22 C22 1_555 1_555
C23 Si2 1_555 1_555
H23 C23 1_555 1_555
H24 C23 1_555 1_555
H25 C23 1_555 1_555
C24 Si2 1_555 1_555
H26 C24 1_555 1_555
H27 C24 1_555 1_555
H28 C24 1_555 1_555
B1 F1 1_555 1_555
B2 F5 1_555 1_555
F2 B1 1_555 1_555
F3 B1 1_555 1_555
F4 B1 1_555 1_555
F6 B2 1_555 1_555
F7 B2 1_555 1_555
F8 B2 1_555 1_555
C18A C19 1_555 1_555
C17A C18A 1_555 1_555
C16A C17A 1_555 1_555
N4A C16A 1_555 1_555
Ag2A N4A 1_555 1_555
N3A Ag2A 1_555 1_555
C11A N3A 1_555 1_555
H9A C11A 1_555 1_555
C12A C11A 1_555 1_555
Si1A C12A 1_555 1_555
C7A Si1A 1_555 1_555
C6A C7A 1_555 1_555
N2A C6A 1_555 1_555
Ag1A N2A 1_555 1_555
N1A Ag1A 1_555 1_555
C1A N1A 1_555 1_555
H1A C1A 1_555 1_555
C2A C1A 1_555 1_555
Si2A C2A 1_555 1_555
C19A C18 1_555 1_555
C23A Si2A 1_555 1_555
H23A C23A 1_555 1_555
H24A C23A 1_555 1_555
H25A C23A 1_555 1_555
C24A Si2A 1_555 1_555
H26A C24A 1_555 1_555
H27A C24A 1_555 1_555
H28A C24A 1_555 1_555
C3A C2A 1_555 1_555
H2A C3A 1_555 1_555
C4A C3A 1_555 1_555
H3A C4A 1_555 1_555
C5A N1A 1_555 1_555
H4A C5A 1_555 1_555
C10A N2A 1_555 1_555
C9A C10A 1_555 1_555
C8A C7A 1_555 1_555
H6A C8A 1_555 1_555
H7A C9A 1_555 1_555
H8A C10A 1_555 1_555
H5A C6A 1_555 1_555
C21A Si1A 1_555 1_555
H17A C21A 1_555 1_555
H18A C21A 1_555 1_555
H19A C21A 1_555 1_555
C22A Si1A 1_555 1_555
H20A C22A 1_555 1_555
H21A C22A 1_555 1_555
H22A C22A 1_555 1_555
C13A C12A 1_555 1_555
H10A C13A 1_555 1_555
C14A C13A 1_555 1_555
H11A C14A 1_555 1_555
C15A N3A 1_555 1_555
H12A C15A 1_555 1_555
C20A C19 1_555 1_555
H16A C20A 1_555 1_555
H13A C16A 1_555 1_555
H14A C17A 1_555 1_555
H15A C18A 1_555 1_555
C4 C5 1_555 1_555
C9 C10 1_555 1_555
C11 C12 1_555 1_555
C14 C15 1_555 1_555
C20 C19A 1_555 1_555
N4A C20A 1_555 1_555
Si2A C19A 1_555 1_555
C4A C5A 1_555 1_555
C9A C8A 1_555 1_555
C14A C15A 1_555 1_555

#END
