
#######################################################################
#
#                 Cambridge Crystallographic Data Centre
#                                CCDC 
#
#######################################################################
#
# If this CIF has been generated from an entry in the Cambridge 
# Structural Database, then it will include bibliographic, chemical, 
# crystal, experimental, refinement or atomic coordinate data resulting 
# from the CCDC's data processing and validation procedures.
#
#######################################################################

data_WUFYAZ
_chemical_formula_moiety         'C108 H108 Ag6 F18 N24 O24 Ru6 S6,C1 H4 O1'
_chemical_name_systematic        
'hexakis(\m-5-(2-oxidophenyl)-tetrazolato)-hexakis(1-isopropyl-4-methylbenzene)-hexakis(trifluoromethanesulfonato)-hexa-ruthenium-hexa-silver methanol solvate'
_symmetry_cell_setting           triclinic
_symmetry_space_group_name_H-M   'P -1'
_symmetry_Int_Tables_number      2
_space_group_name_Hall           '-P 1'
loop_
_symmetry_equiv_pos_site_id
_symmetry_equiv_pos_as_xyz
1 x,y,z
2 -x,-y,-z
_cell_length_a                   16.1775(3)
_cell_length_b                   16.6309(3)
_cell_length_c                   17.1767(3)
_cell_angle_alpha                99.2850(10)
_cell_angle_beta                 114.2580(10)
_cell_angle_gamma                104.7440(10)
_cell_volume                     3884.84
_exptl_crystal_description       block
_cell_formula_units_Z            1
loop_
_atom_site_label
_atom_site_type_symbol
_atom_site_fract_x
_atom_site_fract_y
_atom_site_fract_z
Ru1 Ru 0.72405(9) 0.30081(8) 0.14422(8)
Ru2 Ru 0.35063(10) 0.63676(8) 0.21071(9)
Ru3 Ru 0.34945(9) 0.26995(8) 0.15295(9)
Ag1 Ag 0.20657(10) 0.39680(8) 0.03146(9)
Ag2 Ag 0.63078(10) 0.41894(9) 0.27580(9)
Ag3 Ag 0.47524(10) 0.78149(8) 0.11500(9)
N1 N 0.3485(9) 0.4515(8) 0.1750(8)
N2 N 0.5004(9) 0.4624(8) 0.2404(8)
N3 N 0.4091(9) 0.4066(8) 0.1928(8)
N4 N 0.4040(10) 0.5365(7) 0.2133(8)
C1 C 0.6498(13) 0.7773(10) 0.3194(12)
H1 H 0.6459 0.8285 0.3028
C2 C 0.5781(13) 0.6246(10) 0.3030(11)
C3 C 0.4968(13) 0.5442(9) 0.2544(10)
C4 C 0.5710(11) 0.7015(10) 0.2822(10)
O1 O 0.4842(8) 0.7014(6) 0.2182(7)
C5 C 0.6668(14) 0.6308(12) 0.3678(12)
H2 H 0.6722 0.5798 0.3843
C6 C 0.7365(14) 0.7747(13) 0.3835(13)
H3 H 0.7926 0.8263 0.4110
C7 C 0.7450(15) 0.7020(14) 0.4088(14)
H4 H 0.8045 0.7028 0.4538
N5 N 0.4455(10) 0.2658(8) 0.1034(8)
N6 N 0.5413(10) 0.2909(8) 0.1495(8)
N7 N 0.5738(9) 0.2751(8) 0.0923(9)
C8 C 0.3239(12) 0.2009(9) -0.0570(10)
C9 C 0.2483(14) 0.2298(11) -0.0492(12)
C10 C 0.4232(12) 0.2364(10) 0.0188(12)
C11 C 0.1560(13) 0.2029(12) -0.1200(13)
H5 H 0.1072 0.2215 -0.1146
O2 O 0.2714(7) 0.2867(6) 0.0296(7)
C12 C 0.3121(19) 0.1327(10) 0.1511(15)
C13 C 0.2311(14) 0.2292(12) 0.1846(13)
H6 H 0.1743 0.2438 0.1660
C14 C 0.3948(13) 0.2532(11) 0.2859(11)
H7 H 0.4587 0.2948 0.3359
C15 C 0.3115(14) 0.2783(11) 0.2652(12)
C16 C 0.2319(14) 0.1577(13) 0.1295(13)
H8 H 0.1747 0.1247 0.0747
C17 C 0.2375(13) 0.6931(12) 0.1922(12)
H9 H 0.2036 0.7051 0.1343
C18 C 0.3303(14) 0.7551(12) 0.2598(13)
H10 H 0.3596 0.8104 0.2496
C19 C 0.2050(13) 0.6072(12) 0.1982(12)
C20 C 0.3869(13) 0.7313(11) 0.3369(11)
C21 C 0.3538(16) 0.6469(12) 0.3411(13)
H11 H 0.3993 0.6262 0.3857
C22 C 0.2628(14) 0.5862(11) 0.2729(12)
H12 H 0.2469 0.5235 0.2708
C23 C 0.7660(14) 0.1973(12) 0.0919(12)
H13 H 0.7575 0.1751 0.0335
C24 C 0.7934(14) 0.2667(12) 0.2658(11)
H14 H 0.7987 0.2887 0.3229
C25 C 0.8703(13) 0.3087(11) 0.2460(13)
C26 C 0.7116(12) 0.1943(12) 0.2017(12)
H15 H 0.6639 0.1674 0.2173
C27 C 0.6985(14) 0.1609(12) 0.1162(14)
C28 C 0.8468(15) 0.2670(14) 0.1546(14)
H16 H 0.8930 0.2909 0.1361
C29 C 0.2464(16) 0.3172(14) 0.3647(14)
H17 H 0.2737 0.2798 0.3983
H18 H 0.1797 0.2831 0.3179
H19 H 0.2463 0.3658 0.4055
C30 C 0.3949(14) 0.1848(12) 0.2293(14)
H20 H 0.4579 0.1773 0.2410
C31 C 0.3107(16) 0.0577(12) 0.0827(14)
H21 H 0.2493 0.0372 0.0270
H22 H 0.3171 0.0094 0.1079
H23 H 0.3649 0.0793 0.0703
C32 C 0.4050(16) 0.4191(13) 0.3921(13)
H24 H 0.4497 0.3889 0.4175
H25 H 0.3966 0.4516 0.4395
H26 H 0.4316 0.4596 0.3656
C33 C 0.3085(17) 0.3534(13) 0.3211(14)
H27 H 0.2742 0.3843 0.2806
O3 O 0.7355(7) 0.4214(6) 0.2136(7)
C34 C 0.8513(13) 0.5577(12) 0.3097(13)
H28 H 0.8363 0.5461 0.3557
C35 C 0.8243(11) 0.5146(10) 0.1601(11)
C36 C 0.9183(15) 0.6354(12) 0.3280(13)
H29 H 0.9490 0.6775 0.3852
C37 C 0.8035(11) 0.4942(11) 0.2280(10)
C38 C 0.7706(11) 0.4513(11) 0.0705(11)
C39 C 0.6127(14) 0.0850(12) 0.0493(13)
H30 H 0.6052 0.0832 -0.0106
H31 H 0.5547 0.0899 0.0519
H32 H 0.6210 0.0314 0.0620
C40 C 0.9545(14) 0.3837(14) 0.3136(14)
H33 H 0.9315 0.4257 0.3399
C41 C 0.4568(16) 0.8739(14) 0.4563(14)
H34 H 0.4150 0.8463 0.4800
H35 H 0.4214 0.8986 0.4109
H36 H 0.5150 0.9204 0.5052
C42 C 0.5496(16) 0.7610(16) 0.4747(13)
C43 C 0.4883(16) 0.8012(14) 0.4111(14)
H37 H 0.5243 0.8283 0.3810
C44 C 0.1097(14) 0.5436(13) 0.1269(14)
H38 H 0.1115 0.4845 0.1203
H39 H 0.0955 0.5568 0.0702
H40 H 0.0590 0.5475 0.1431
S1 S 0.7120(5) 0.3971(5) 0.4718(5)
C45 C 0.2980(14) 0.1416(12) -0.1368(12)
H41 H 0.3441 0.1185 -0.1423
C46 C 0.1378(15) 0.1477(15) -0.1992(14)
H42 H 0.0759 0.1306 -0.2500
C47 C 0.2078(17) 0.1155(13) -0.2074(14)
H43 H 0.1917 0.0758 -0.2623
N8 N 0.7241(9) 0.3660(7) 0.0518(8)
O4 O 0.7516(13) 0.4382(14) 0.4285(11)
O5 O 0.7287(18) 0.4552(14) 0.5488(16)
O6 O 0.6246(17) 0.3374(18) 0.434(2)
F1 F 0.762(2) 0.2946(17) 0.5630(16)
F2 F 0.798(3) 0.291(2) 0.4699(19)
F3 F 0.876(2) 0.3931(18) 0.556(2)
C48 C 1.0192(17) 0.4301(15) 0.2838(18)
H44 H 1.0409 0.3893 0.2564
H45 H 1.0756 0.4760 0.3353
H46 H 0.9848 0.4565 0.2397
C49 C 1.0141(16) 0.3507(16) 0.3869(15)
H47 H 1.0461 0.3173 0.3648
H48 H 0.9714 0.3132 0.4041
H49 H 1.0633 0.4004 0.4392
N9 N 0.5018(9) 0.2400(7) 0.0080(8)
N10 N 0.6797(8) 0.3308(7) -0.0362(8)
N11 N 0.7564(8) 0.4724(8) -0.0061(8)
N12 N 0.7006(9) 0.3948(8) -0.0702(8)
C50 C 0.8966(12) 0.5914(10) 0.1751(10)
H50 H 0.9135 0.6005 0.1295
C51 C 0.9430(14) 0.6537(11) 0.2579(14)
H51 H 0.9902 0.7078 0.2693
C52 C 0.780(2) 0.335(2) 0.512(2)
C53 C 0.615(2) 1.0279(18) 0.3404(14)
S2 S 0.5264(6) 0.9862(4) 0.2321(5)
O7 O 0.454(3) 0.951(3) 0.241(3)
O8 O 0.5166(12) 1.0529(11) 0.1922(12)
F4 F 0.687(2) 1.054(2) 0.338(2)
F5 F 0.615(2) 0.9863(17) 0.3881(14)
F6 F 0.610(2) 1.0912(18) 0.3738(19)
O9 O 0.550(3) 0.9272(18) 0.2094(16)
S3 S -0.0110(5) 0.2888(4) 0.0096(5)
O10 O 0.0180(17) 0.3074(13) -0.0531(19)
O11 O 0.0671(15) 0.3083(13) 0.0929(17)
F7 F 0.0002(12) 0.1361(9) -0.0335(12)
F8 F -0.0776(17) 0.1479(12) 0.0327(18)
F9 F -0.1345(16) 0.1470(14) -0.1047(18)
O12 O -0.0861(9) 0.3153(9) 0.0101(9)
C54 C -0.062(3) 0.175(2) -0.030(3)
Ru1A Ru 0.27595(9) 0.69919(8) -0.14422(8)
Ru2A Ru 0.64937(10) 0.36324(8) -0.21071(9)
Ru3A Ru 0.65055(9) 0.73005(8) -0.15295(9)
Ag1A Ag 0.79343(10) 0.60320(8) -0.03146(9)
Ag2A Ag 0.36922(10) 0.58106(9) -0.27580(9)
Ag3A Ag 0.52476(10) 0.21851(8) -0.11500(9)
N1A N 0.6515(9) 0.5485(8) -0.1750(8)
N2A N 0.4996(9) 0.5376(8) -0.2404(8)
N3A N 0.5909(9) 0.5934(8) -0.1928(8)
N4A N 0.5960(10) 0.4635(7) -0.2133(8)
C1A C 0.3502(13) 0.2227(10) -0.3194(12)
H1A H 0.3541 0.1715 -0.3028
C2A C 0.4219(13) 0.3754(10) -0.3030(11)
C3A C 0.5032(13) 0.4558(9) -0.2544(10)
C4A C 0.4290(11) 0.2985(10) -0.2822(10)
O1A O 0.5158(8) 0.2986(6) -0.2182(7)
C5A C 0.3332(14) 0.3692(12) -0.3678(12)
H2A H 0.3278 0.4202 -0.3843
C6A C 0.2635(14) 0.2253(13) -0.3835(13)
H3A H 0.2074 0.1737 -0.4110
C7A C 0.2550(15) 0.2980(14) -0.4088(14)
H4A H 0.1955 0.2972 -0.4538
N5A N 0.5545(10) 0.7342(8) -0.1034(8)
N6A N 0.4587(10) 0.7091(8) -0.1495(8)
N7A N 0.4262(9) 0.7249(8) -0.0923(9)
C8A C 0.6761(12) 0.7991(9) 0.0570(10)
C9A C 0.7517(14) 0.7702(11) 0.0492(12)
C10A C 0.5768(12) 0.7636(10) -0.0188(12)
C11A C 0.8440(13) 0.7971(12) 0.1200(13)
H5A H 0.8928 0.7785 0.1146
O2A O 0.7286(7) 0.7133(6) -0.0296(7)
C12A C 0.6879(19) 0.8673(10) -0.1511(15)
C13A C 0.7689(14) 0.7708(12) -0.1846(13)
H6A H 0.8257 0.7562 -0.1660
C14A C 0.6052(13) 0.7468(11) -0.2859(11)
H7A H 0.5413 0.7052 -0.3359
C15A C 0.6885(14) 0.7217(11) -0.2652(12)
C16A C 0.7681(14) 0.8423(13) -0.1295(13)
H8A H 0.8253 0.8753 -0.0747
C17A C 0.7625(13) 0.3069(12) -0.1922(12)
H9A H 0.7964 0.2949 -0.1343
C18A C 0.6697(14) 0.2449(12) -0.2598(13)
H10A H 0.6404 0.1896 -0.2496
C19A C 0.7950(13) 0.3928(12) -0.1982(12)
C20A C 0.6131(13) 0.2687(11) -0.3369(11)
C21A C 0.6462(16) 0.3531(12) -0.3411(13)
H11A H 0.6007 0.3738 -0.3857
C22A C 0.7372(14) 0.4138(11) -0.2729(12)
H12A H 0.7531 0.4765 -0.2708
C23A C 0.2340(14) 0.8027(12) -0.0919(12)
H13A H 0.2425 0.8249 -0.0335
C24A C 0.2066(14) 0.7333(12) -0.2658(11)
H14A H 0.2013 0.7113 -0.3229
C25A C 0.1297(13) 0.6913(11) -0.2460(13)
C26A C 0.2884(12) 0.8057(12) -0.2017(12)
H15A H 0.3361 0.8326 -0.2173
C27A C 0.3015(14) 0.8391(12) -0.1162(14)
C28A C 0.1532(15) 0.7330(14) -0.1546(14)
H16A H 0.1070 0.7091 -0.1361
C29A C 0.7536(16) 0.6828(14) -0.3647(14)
H17A H 0.7263 0.7202 -0.3983
H18A H 0.8203 0.7169 -0.3179
H19A H 0.7537 0.6342 -0.4055
C30A C 0.6051(14) 0.8152(12) -0.2293(14)
H20A H 0.5421 0.8227 -0.2410
C31A C 0.6893(16) 0.9423(12) -0.0827(14)
H21A H 0.7507 0.9628 -0.0270
H22A H 0.6829 0.9906 -0.1079
H23A H 0.6351 0.9207 -0.0703
C32A C 0.5950(16) 0.5809(13) -0.3921(13)
H24A H 0.5503 0.6111 -0.4175
H25A H 0.6034 0.5484 -0.4395
H26A H 0.5684 0.5404 -0.3656
C33A C 0.6915(17) 0.6466(13) -0.3211(14)
H27A H 0.7258 0.6157 -0.2806
O3A O 0.2645(7) 0.5786(6) -0.2136(7)
C34A C 0.1487(13) 0.4423(12) -0.3097(13)
H28A H 0.1637 0.4539 -0.3557
C35A C 0.1757(11) 0.4854(10) -0.1601(11)
C36A C 0.0817(15) 0.3646(12) -0.3280(13)
H29A H 0.0510 0.3225 -0.3852
C37A C 0.1965(11) 0.5058(11) -0.2280(10)
C38A C 0.2294(11) 0.5487(11) -0.0705(11)
C39A C 0.3873(14) 0.9150(12) -0.0493(13)
H30A H 0.3948 0.9168 0.0106
H31A H 0.4453 0.9101 -0.0519
H32A H 0.3790 0.9686 -0.0620
C40A C 0.0455(14) 0.6163(14) -0.3136(14)
H33A H 0.0685 0.5743 -0.3399
C41A C 0.5432(16) 0.1261(14) -0.4563(14)
H34A H 0.5850 0.1537 -0.4800
H35A H 0.5786 0.1014 -0.4109
H36A H 0.4850 0.0796 -0.5052
C42A C 0.4504(16) 0.2390(16) -0.4747(13)
C43A C 0.5117(16) 0.1988(14) -0.4111(14)
H37A H 0.4757 0.1717 -0.3810
C44A C 0.8903(14) 0.4564(13) -0.1269(14)
H38A H 0.8885 0.5155 -0.1203
H39A H 0.9045 0.4432 -0.0702
H40A H 0.9410 0.4525 -0.1431
S1A S 0.2880(5) 0.6029(5) -0.4718(5)
C45A C 0.7020(14) 0.8584(12) 0.1368(12)
H41A H 0.6559 0.8815 0.1423
C46A C 0.8622(15) 0.8523(15) 0.1992(14)
H42A H 0.9241 0.8694 0.2500
C47A C 0.7922(17) 0.8845(13) 0.2074(14)
H43A H 0.8083 0.9242 0.2623
N8A N 0.2759(9) 0.6340(7) -0.0518(8)
O4A O 0.2484(13) 0.5618(14) -0.4285(11)
O5A O 0.2713(18) 0.5448(14) -0.5488(16)
O6A O 0.3754(17) 0.6626(18) -0.434(2)
F1A F 0.238(2) 0.7054(17) -0.5630(16)
F2A F 0.202(3) 0.709(2) -0.4699(19)
F3A F 0.124(2) 0.6069(18) -0.556(2)
C48A C -0.0192(17) 0.5699(15) -0.2838(18)
H44A H -0.0409 0.6107 -0.2564
H45A H -0.0756 0.5240 -0.3353
H46A H 0.0152 0.5435 -0.2397
C49A C -0.0141(16) 0.6493(16) -0.3869(15)
H47A H -0.0461 0.6827 -0.3648
H48A H 0.0286 0.6868 -0.4041
H49A H -0.0633 0.5996 -0.4392
N9A N 0.4982(9) 0.7600(7) -0.0080(8)
N10A N 0.3203(8) 0.6692(7) 0.0362(8)
N11A N 0.2436(8) 0.5276(8) 0.0061(8)
N12A N 0.2994(9) 0.6052(8) 0.0702(8)
C50A C 0.1034(12) 0.4086(10) -0.1751(10)
H50A H 0.0865 0.3995 -0.1295
C51A C 0.0570(14) 0.3463(11) -0.2579(14)
H51A H 0.0098 0.2922 -0.2693
C52A C 0.220(2) 0.665(2) -0.512(2)
C53A C 0.385(2) -0.0279(18) -0.3404(14)
S2A S 0.4736(6) 0.0138(4) -0.2321(5)
O7A O 0.546(3) 0.049(3) -0.241(3)
O8A O 0.4834(12) -0.0529(11) -0.1922(12)
F4A F 0.313(2) -0.054(2) -0.338(2)
F5A F 0.385(2) 0.0137(17) -0.3881(14)
F6A F 0.390(2) -0.0912(18) -0.3738(19)
O9A O 0.450(3) 0.0728(18) -0.2094(16)
S3A S 1.0110(5) 0.7112(4) -0.0096(5)
O10A O 0.9820(17) 0.6926(13) 0.0531(19)
O11A O 0.9329(15) 0.6917(13) -0.0929(17)
F7A F 0.9998(12) 0.8639(9) 0.0335(12)
F8A F 1.0776(17) 0.8521(12) -0.0327(18)
F9A F 1.1345(16) 0.8530(14) 0.1047(18)
O12A O 1.0861(9) 0.6847(9) -0.0101(9)
C54A C 1.062(3) 0.825(2) 0.030(3)
O13? O 0.623(3) 0.592(3) 0.105(3)
C55? C 0.534(5) 0.533(5) 0.051(4)
loop_
_geom_bond_atom_site_label_1
_geom_bond_atom_site_label_2
_geom_bond_site_symmetry_1
_geom_bond_site_symmetry_2
Ru1 N7 1_555 1_555
Ru2 N4 1_555 1_555
Ru3 N3 1_555 1_555
Ag1 N1 1_555 1_555
Ag2 N2 1_555 1_555
Ag3 O1 1_555 1_555
N1 N3 1_555 1_555
N2 N3 1_555 1_555
N4 N1 1_555 1_555
C1 H1 1_555 1_555
C2 C3 1_555 1_555
C3 N2 1_555 1_555
C4 C1 1_555 1_555
O1 Ru2 1_555 1_555
C5 C2 1_555 1_555
H2 C5 1_555 1_555
C6 C1 1_555 1_555
H3 C6 1_555 1_555
C7 C5 1_555 1_555
H4 C7 1_555 1_555
N5 Ru3 1_555 1_555
N6 Ag2 1_555 1_555
N7 N6 1_555 1_555
C8 C9 1_555 1_555
C9 C11 1_555 1_555
C10 N5 1_555 1_555
C11 H5 1_555 1_555
O2 Ru3 1_555 1_555
C12 Ru3 1_555 1_555
C13 Ru3 1_555 1_555
H6 C13 1_555 1_555
C14 Ru3 1_555 1_555
H7 C14 1_555 1_555
C15 Ru3 1_555 1_555
C16 Ru3 1_555 1_555
H8 C16 1_555 1_555
C17 Ru2 1_555 1_555
H9 C17 1_555 1_555
C18 Ru2 1_555 1_555
H10 C18 1_555 1_555
C19 Ru2 1_555 1_555
C20 Ru2 1_555 1_555
C21 Ru2 1_555 1_555
H11 C21 1_555 1_555
C22 Ru2 1_555 1_555
H12 C22 1_555 1_555
C23 Ru1 1_555 1_555
H13 C23 1_555 1_555
C24 Ru1 1_555 1_555
H14 C24 1_555 1_555
C25 Ru1 1_555 1_555
C26 Ru1 1_555 1_555
H15 C26 1_555 1_555
C27 Ru1 1_555 1_555
C28 Ru1 1_555 1_555
H16 C28 1_555 1_555
C29 H17 1_555 1_555
H18 C29 1_555 1_555
H19 C29 1_555 1_555
C30 Ru3 1_555 1_555
H20 C30 1_555 1_555
C31 C12 1_555 1_555
H21 C31 1_555 1_555
H22 C31 1_555 1_555
H23 C31 1_555 1_555
C32 H24 1_555 1_555
H25 C32 1_555 1_555
H26 C32 1_555 1_555
C33 C15 1_555 1_555
H27 C33 1_555 1_555
O3 Ru1 1_555 1_555
C34 H28 1_555 1_555
C35 C37 1_555 1_555
C36 C34 1_555 1_555
H29 C36 1_555 1_555
C37 O3 1_555 1_555
C38 C35 1_555 1_555
C39 C27 1_555 1_555
H30 C39 1_555 1_555
H31 C39 1_555 1_555
H32 C39 1_555 1_555
C40 C25 1_555 1_555
H33 C40 1_555 1_555
C41 H34 1_555 1_555
H35 C41 1_555 1_555
H36 C41 1_555 1_555
C42 C43 1_555 1_555
C43 C20 1_555 1_555
H37 C43 1_555 1_555
C44 C19 1_555 1_555
H38 C44 1_555 1_555
H39 C44 1_555 1_555
H40 C44 1_555 1_555
S1 O4 1_555 1_555
C45 C8 1_555 1_555
H41 C45 1_555 1_555
C46 C11 1_555 1_555
H42 C46 1_555 1_555
C47 C45 1_555 1_555
H43 C47 1_555 1_555
N8 Ru1 1_555 1_555
O4 Ag2 1_555 1_555
O5 S1 1_555 1_555
O6 S1 1_555 1_555
F1 C52 1_555 1_555
F2 C52 1_555 1_555
F3 C52 1_555 1_555
C48 C40 1_555 1_555
H44 C48 1_555 1_555
H45 C48 1_555 1_555
H46 C48 1_555 1_555
C49 C40 1_555 1_555
H47 C49 1_555 1_555
H48 C49 1_555 1_555
H49 C49 1_555 1_555
N9 N7 1_555 1_555
N10 N8 1_555 1_555
N11 C38 1_555 1_555
N12 N10 1_555 1_555
C50 C35 1_555 1_555
H50 C50 1_555 1_555
C51 C36 1_555 1_555
H51 C51 1_555 1_555
C52 S1 1_555 1_555
C53 S2 1_555 1_555
S2 O7 1_555 1_555
O8 S2 1_555 1_555
F4 C53 1_555 1_555
F5 C53 1_555 1_555
F6 C53 1_555 1_555
O9 Ag3 1_555 1_555
S3 O10 1_555 1_555
O10 Ag1 1_555 1_555
O11 S3 1_555 1_555
F7 C54 1_555 1_555
F8 C54 1_555 1_555
F9 C54 1_555 1_555
O12 S3 1_555 1_555
C54 S3 1_555 1_555
Ru1A N7A 1_555 1_555
Ru2A N12 1_555 1_555
Ru3A N3A 1_555 1_555
Ag1A N11 1_555 1_555
Ag2A N2A 1_555 1_555
Ag3A N9 1_555 1_555
N1A Ag1A 1_555 1_555
N2A N3A 1_555 1_555
N3A N1A 1_555 1_555
N4A Ru2A 1_555 1_555
C1A H1A 1_555 1_555
C2A C3A 1_555 1_555
C3A N2A 1_555 1_555
C4A C1A 1_555 1_555
O1A Ru2A 1_555 1_555
C5A C2A 1_555 1_555
H2A C5A 1_555 1_555
C6A C1A 1_555 1_555
H3A C6A 1_555 1_555
C7A C5A 1_555 1_555
H4A C7A 1_555 1_555
N5A Ru3A 1_555 1_555
N6A Ag2A 1_555 1_555
N7A N6A 1_555 1_555
C8A C9A 1_555 1_555
C9A C11A 1_555 1_555
C10A N5A 1_555 1_555
C11A H5A 1_555 1_555
O2A Ru3A 1_555 1_555
C12A Ru3A 1_555 1_555
C13A Ru3A 1_555 1_555
H6A C13A 1_555 1_555
C14A Ru3A 1_555 1_555
H7A C14A 1_555 1_555
C15A Ru3A 1_555 1_555
C16A Ru3A 1_555 1_555
H8A C16A 1_555 1_555
C17A Ru2A 1_555 1_555
H9A C17A 1_555 1_555
C18A Ru2A 1_555 1_555
H10A C18A 1_555 1_555
C19A Ru2A 1_555 1_555
C20A Ru2A 1_555 1_555
C21A Ru2A 1_555 1_555
H11A C21A 1_555 1_555
C22A Ru2A 1_555 1_555
H12A C22A 1_555 1_555
C23A Ru1A 1_555 1_555
H13A C23A 1_555 1_555
C24A Ru1A 1_555 1_555
H14A C24A 1_555 1_555
C25A Ru1A 1_555 1_555
C26A Ru1A 1_555 1_555
H15A C26A 1_555 1_555
C27A Ru1A 1_555 1_555
C28A Ru1A 1_555 1_555
H16A C28A 1_555 1_555
C29A H17A 1_555 1_555
H18A C29A 1_555 1_555
H19A C29A 1_555 1_555
C30A Ru3A 1_555 1_555
H20A C30A 1_555 1_555
C31A C12A 1_555 1_555
H21A C31A 1_555 1_555
H22A C31A 1_555 1_555
H23A C31A 1_555 1_555
C32A H24A 1_555 1_555
H25A C32A 1_555 1_555
H26A C32A 1_555 1_555
C33A C15A 1_555 1_555
H27A C33A 1_555 1_555
O3A Ru1A 1_555 1_555
C34A H28A 1_555 1_555
C35A C37A 1_555 1_555
C36A C34A 1_555 1_555
H29A C36A 1_555 1_555
C37A O3A 1_555 1_555
C38A C35A 1_555 1_555
C39A C27A 1_555 1_555
H30A C39A 1_555 1_555
H31A C39A 1_555 1_555
H32A C39A 1_555 1_555
C40A C25A 1_555 1_555
H33A C40A 1_555 1_555
C41A H34A 1_555 1_555
H35A C41A 1_555 1_555
H36A C41A 1_555 1_555
C42A C43A 1_555 1_555
C43A C20A 1_555 1_555
H37A C43A 1_555 1_555
C44A C19A 1_555 1_555
H38A C44A 1_555 1_555
H39A C44A 1_555 1_555
H40A C44A 1_555 1_555
S1A O4A 1_555 1_555
C45A C8A 1_555 1_555
H41A C45A 1_555 1_555
C46A C11A 1_555 1_555
H42A C46A 1_555 1_555
C47A C45A 1_555 1_555
H43A C47A 1_555 1_555
N8A Ru1A 1_555 1_555
O4A Ag2A 1_555 1_555
O5A S1A 1_555 1_555
O6A S1A 1_555 1_555
F1A C52A 1_555 1_555
F2A C52A 1_555 1_555
F3A C52A 1_555 1_555
C48A C40A 1_555 1_555
H44A C48A 1_555 1_555
H45A C48A 1_555 1_555
H46A C48A 1_555 1_555
C49A C40A 1_555 1_555
H47A C49A 1_555 1_555
H48A C49A 1_555 1_555
H49A C49A 1_555 1_555
N9A Ag3 1_555 1_555
N10A Ag3 1_555 1_555
N11A Ag1 1_555 1_555
N12A Ru2 1_555 1_555
C50A C35A 1_555 1_555
H50A C50A 1_555 1_555
C51A C36A 1_555 1_555
H51A C51A 1_555 1_555
C52A S1A 1_555 1_555
C53A S2A 1_555 1_555
S2A O7A 1_555 1_555
O8A S2A 1_555 1_555
F4A C53A 1_555 1_555
F5A C53A 1_555 1_555
F6A C53A 1_555 1_555
O9A Ag3A 1_555 1_555
S3A O10A 1_555 1_555
O10A Ag1A 1_555 1_555
O11A S3A 1_555 1_555
F7A C54A 1_555 1_555
F8A C54A 1_555 1_555
F9A C54A 1_555 1_555
O12A S3A 1_555 1_555
C54A S3A 1_555 1_555
Ag1 O2 1_555 1_555
Ag2 O3 1_555 1_555
N4 C3 1_555 1_555
C2 C4 1_555 1_555
C4 O1 1_555 1_555
C6 C7 1_555 1_555
N5 N6 1_555 1_555
C8 C10 1_555 1_555
C9 O2 1_555 1_555
C10 N9 1_555 1_555
C12 C16 1_555 1_555
C12 C30 1_555 1_555
C13 C15 1_555 1_555
C13 C16 1_555 1_555
C14 C15 1_555 1_555
C14 C30 1_555 1_555
C17 C18 1_555 1_555
C17 C19 1_555 1_555
C18 C20 1_555 1_555
C19 C22 1_555 1_555
C20 C21 1_555 1_555
C21 C22 1_555 1_555
C23 C27 1_555 1_555
C23 C28 1_555 1_555
C24 C25 1_555 1_555
C24 C26 1_555 1_555
C25 C28 1_555 1_555
C26 C27 1_555 1_555
C29 C33 1_555 1_555
C32 C33 1_555 1_555
C34 C37 1_555 1_555
C38 N8 1_555 1_555
C41 C43 1_555 1_555
C46 C47 1_555 1_555
N10 Ag3A 1_555 1_555
N11 N12 1_555 1_555
C50 C51 1_555 1_555
S2 O9 1_555 1_555
Ag1A O2A 1_555 1_555
Ag2A O3A 1_555 1_555
Ag3A O1A 1_555 1_555
N1A N4A 1_555 1_555
N4A C3A 1_555 1_555
C2A C4A 1_555 1_555
C4A O1A 1_555 1_555
C6A C7A 1_555 1_555
N5A N6A 1_555 1_555
N7A N9A 1_555 1_555
C8A C10A 1_555 1_555
C9A O2A 1_555 1_555
C10A N9A 1_555 1_555
C12A C16A 1_555 1_555
C12A C30A 1_555 1_555
C13A C15A 1_555 1_555
C13A C16A 1_555 1_555
C14A C15A 1_555 1_555
C14A C30A 1_555 1_555
C17A C18A 1_555 1_555
C17A C19A 1_555 1_555
C18A C20A 1_555 1_555
C19A C22A 1_555 1_555
C20A C21A 1_555 1_555
C21A C22A 1_555 1_555
C23A C27A 1_555 1_555
C23A C28A 1_555 1_555
C24A C25A 1_555 1_555
C24A C26A 1_555 1_555
C25A C28A 1_555 1_555
C26A C27A 1_555 1_555
C29A C33A 1_555 1_555
C32A C33A 1_555 1_555
C34A C37A 1_555 1_555
C38A N8A 1_555 1_555
C38A N11A 1_555 1_555
C41A C43A 1_555 1_555
C46A C47A 1_555 1_555
N8A N10A 1_555 1_555
N10A N12A 1_555 1_555
N11A N12A 1_555 1_555
C50A C51A 1_555 1_555
S2A O9A 1_555 1_555

#END
