
#######################################################################
#
#                 Cambridge Crystallographic Data Centre
#                                CCDC 
#
#######################################################################
#
# If this CIF has been generated from an entry in the Cambridge 
# Structural Database, then it will include bibliographic, chemical, 
# crystal, experimental, refinement or atomic coordinate data resulting 
# from the CCDC's data processing and validation procedures.
#
#######################################################################

data_WUHXIH
_chemical_formula_moiety         
'C336 H338 N28 Zn4,4(C6 H6),8(C1 H1 Cl3),2(C7 H8),2(H2 O1)'
_chemical_name_systematic        
'(\m~4~-5,10,15,20-tetrakis(pyridin-4-yl)porphyrin)-bis(\m~2~-2,9-bis(4-(10,15,20-tris(3,5-di-t-butylphenyl)porphyrin-5-yl)phenyl)phenenthroline)-tetra-zinc(ii) toluene benzene chloroform solvate dihydrate'
_symmetry_cell_setting           monoclinic
_symmetry_space_group_name_H-M   'C 2/m'
_symmetry_Int_Tables_number      12
_space_group_name_Hall           '-C 2y'
loop_
_symmetry_equiv_pos_site_id
_symmetry_equiv_pos_as_xyz
1 x,y,z
2 -x,y,-z
3 1/2+x,1/2+y,z
4 1/2-x,1/2+y,-z
5 -x,-y,-z
6 x,-y,z
7 1/2-x,1/2-y,-z
8 1/2+x,1/2-y,z
_cell_length_a                   43.4560(8)
_cell_length_b                   32.7340(6)
_cell_length_c                   16.2330(5)
_cell_angle_alpha                90
_cell_angle_beta                 93.049(4)
_cell_angle_gamma                90
_cell_volume                     23058.6
_exptl_crystal_colour            red
_exptl_crystal_description       prism
_cell_formula_units_Z            2
_exptl_crystal_recrystallization_method toluene/chloroform
loop_
_atom_site_label
_atom_site_type_symbol
_atom_site_fract_x
_atom_site_fract_y
_atom_site_fract_z
Cl1 Cl 0.68189(8) 0.30778(16) 0.1346(2)
Cl2 Cl 0.69635(10) 0.32413(16) 0.3046(3)
Cl3 Cl 0.72655(7) 0.25972(8) 0.22576(16)
C109 C 0.6932(2) 0.2883(3) 0.2309(6)
H117 H 0.6766 0.269 0.2467
Cl7 Cl 0.79733(6) 0.04381(6) 0.35880(14)
Cl8 Cl 0.74767(7) 0.00000 0.4270(2)
C111 C 0.7879(2) 0.00000 0.4135(7)
H119 H 0.7993 0.000 0.4686
Cl7E Cl 0.79733(6) -0.04381(6) 0.35880(14)
C92 C 0.6674(4) 0.1123(6) 0.6417(9)
H99 H 0.6723 0.1406 0.6571
H100 H 0.6685 0.109 0.5819
H101 H 0.6823 0.0939 0.6701
C93 C 0.6234(3) 0.1349(4) 0.7020(7)
H102 H 0.6335 0.1604 0.71
C94 C 0.6383(2) 0.1029(5) 0.6644(6)
C95 C 0.6236(3) 0.0655(4) 0.6527(7)
H103 H 0.6338 0.0437 0.6269
C96 C 0.5939(3) 0.0601(3) 0.6786(8)
H104 H 0.5838 0.0346 0.6706
C97 C 0.5789(2) 0.0921(4) 0.7162(6)
H105 H 0.5586 0.0884 0.7339
C98 C 0.5937(3) 0.1295(3) 0.7279(7)
H106 H 0.5835 0.1513 0.7536
C99 C 0.50000 0.2359(13) 1.00000
H107 H 0.500 0.2069 1.00000
C100 C 0.5120(3) 0.2611(6) 1.0640(11)
H108 H 0.5208 0.2473 1.1109
C101 C 0.5126(3) 0.3000(6) 1.0678(10)
H109 H 0.5215 0.3126 1.1161
C102 C 0.50000 0.3262(7) 1.00000
H110 H 0.500 0.3552 1.00000
C100A C 0.4880(3) 0.2611(6) 0.9360(11)
H108A H 0.4792 0.2473 0.8891
C101A C 0.4874(3) 0.3000(6) 0.9322(10)
H109A H 0.4785 0.3126 0.8839
C103 C 0.4525(4) 0.1535(6) 0.8372(12)
H111 H 0.4343 0.1604 0.864
C104 C 0.4647(4) 0.1806(5) 0.7816(13)
H112 H 0.4548 0.206 0.7704
C105 C 0.4914(5) 0.1704(5) 0.7425(11)
H113 H 0.4997 0.189 0.7045
C106 C 0.5058(4) 0.1332(6) 0.7589(12)
H114 H 0.524 0.1263 0.7322
C107 C 0.4937(4) 0.1061(5) 0.8145(12)
H115 H 0.5035 0.0807 0.8258
C108 C 0.4670(4) 0.1163(5) 0.8537(11)
H116 H 0.4587 0.0977 0.8917
Zn1 Zn 0.651816(15) 0.217302(16) 0.39790(4)
N1 N 0.68426(11) 0.18263(13) 0.3400(3)
N2 N 0.68008(11) 0.21531(13) 0.5068(3)
N3 N 0.62743(11) 0.26537(13) 0.4481(3)
N4 N 0.63270(11) 0.23314(12) 0.2816(3)
N5 N 0.83111(12) 0.04271(14) 0.5640(3)
N6 N 0.62032(10) 0.16859(11) 0.4203(3)
N7 N 0.50000 0.06248(16) 0.50000
N8 N 0.54572(14) 0.00000 0.4707(4)
H1 H 0.5263 0.000 0.4833
C1 C 0.68163(13) 0.16925(17) 0.2620(3)
C2 C 0.70633(16) 0.14059(19) 0.2473(4)
H2 H 0.7099 0.1267 0.1973
C3 C 0.72295(16) 0.1379(2) 0.3187(4)
H3 H 0.7408 0.1215 0.3287
C4 C 0.70918(14) 0.16400(17) 0.3778(4)
C5 C 0.71989(15) 0.16928(18) 0.4606(3)
C6 C 0.70619(14) 0.19320(17) 0.5191(4)
C7 C 0.71720(17) 0.1982(2) 0.6027(4)
H4 H 0.7353 0.1862 0.6274
C8 C 0.69758(17) 0.2228(2) 0.6406(4)
H5 H 0.6992 0.2312 0.6966
C9 C 0.67375(15) 0.23382(16) 0.5805(3)
C10 C 0.64966(13) 0.26039(16) 0.5918(3)
C11 C 0.62938(14) 0.27528(15) 0.5304(4)
C12 C 0.60790(17) 0.30989(19) 0.5395(4)
H6 H 0.6044 0.3239 0.5894
C13 C 0.59477(17) 0.31773(18) 0.4682(4)
H7 H 0.5795 0.3381 0.4578
C14 C 0.60674(15) 0.29074(16) 0.4059(4)
C15 C 0.60008(15) 0.29087(15) 0.3217(4)
C16 C 0.61093(14) 0.26231(16) 0.2651(4)
C17 C 0.60087(16) 0.25923(18) 0.1805(4)
H8 H 0.5857 0.2758 0.1525
C18 C 0.61706(15) 0.22781(18) 0.1466(4)
H9 H 0.6152 0.2183 0.0913
C19 C 0.63734(13) 0.21249(15) 0.2123(3)
C20 C 0.65990(14) 0.18159(16) 0.2005(3)
C21 C 0.74910(15) 0.14622(19) 0.4880(4)
C22 C 0.77748(15) 0.16342(19) 0.4717(4)
H10 H 0.7785 0.1887 0.4432
C23 C 0.80453(15) 0.14268(18) 0.4981(4)
H11 H 0.8239 0.1548 0.4889
C24 C 0.80377(15) 0.10481(18) 0.5376(4)
C25 C 0.77485(16) 0.08858(19) 0.5518(4)
H12 H 0.7735 0.063 0.579
C26 C 0.74795(16) 0.1091(2) 0.5269(4)
H13 H 0.7285 0.0972 0.537
C27 C 0.83175(16) 0.08332(18) 0.5655(5)
C28 C 0.85749(18) 0.02195(19) 0.5913(6)
C29 C 0.8846(2) 0.0426(2) 0.6216(7)
C30 C 0.88402(19) 0.0861(2) 0.6215(6)
H14 H 0.9017 0.1011 0.6401
C31 C 0.85778(19) 0.1059(2) 0.5947(5)
H15 H 0.857 0.1349 0.5956
C32 C 0.9117(2) 0.0208(2) 0.6466(7)
H16 H 0.9299 0.0352 0.6635
C33 C 0.64571(14) 0.27606(15) 0.6766(3)
C34 C 0.62149(15) 0.26282(19) 0.7232(4)
H17 H 0.6069 0.2442 0.699
C35 C 0.61800(15) 0.2760(2) 0.8038(4)
C36 C 0.63989(16) 0.30330(19) 0.8365(4)
H18 H 0.6379 0.3126 0.8914
C37 C 0.66437(19) 0.3177(2) 0.7939(4)
C38 C 0.66715(15) 0.30350(18) 0.7123(4)
H19 H 0.6838 0.3127 0.6814
C39 C 0.59170(15) 0.2602(2) 0.8551(4)
C40 C 0.5645(2) 0.2459(4) 0.8001(6)
H20 H 0.5708 0.223 0.7662
H21 H 0.5573 0.2685 0.7643
H22 H 0.5478 0.2372 0.8344
C41 C 0.6044(3) 0.2226(5) 0.8980(8)
H23 H 0.6222 0.2301 0.9344
H24 H 0.6108 0.2029 0.8568
H25 H 0.5885 0.2103 0.9306
C42 C 0.5816(4) 0.2922(6) 0.9123(11)
H26 H 0.5992 0.301 0.9483
H27 H 0.5655 0.2812 0.946
H28 H 0.5735 0.3156 0.8805
C43 C 0.6886(2) 0.3484(2) 0.8311(4)
C44 C 0.6820(3) 0.3599(3) 0.9185(5)
H29 H 0.6812 0.3351 0.9523
H30 H 0.6622 0.3742 0.9189
H31 H 0.6984 0.3778 0.9413
C45 C 0.6905(3) 0.3838(2) 0.7774(5)
H32 H 0.6948 0.3747 0.7216
H33 H 0.7071 0.4018 0.7985
H34 H 0.6709 0.3987 0.7758
C46 C 0.7201(2) 0.3254(3) 0.8325(5)
H35 H 0.7193 0.3016 0.869
H36 H 0.7366 0.3438 0.8528
H37 H 0.7241 0.3163 0.7766
C47 C 0.58001(15) 0.32361(17) 0.2851(4)
C48 C 0.55076(18) 0.3317(2) 0.3100(4)
H38 H 0.5423 0.3137 0.3487
C49 C 0.5331(2) 0.3642(3) 0.2823(6)
C50 C 0.5456(2) 0.3886(3) 0.2221(7)
H39 H 0.5334 0.4105 0.1996
C51 C 0.5755(3) 0.3826(3) 0.1925(7)
C52 C 0.59188(18) 0.34882(19) 0.2251(5)
H40 H 0.6117 0.343 0.2059
C53 C 0.5010(2) 0.3738(3) 0.3139(6)
C54 C 0.4897(4) 0.3424(6) 0.3731(11)
H41 H 0.4881 0.3158 0.3456
H42 H 0.4694 0.3505 0.3911
H43 H 0.5043 0.3405 0.4212
C55 C 0.4776(3) 0.3780(6) 0.2390(10)
H44 H 0.4767 0.3522 0.2081
H45 H 0.4842 0.4 0.203
H46 H 0.4572 0.3842 0.2583
C56 C 0.5003(4) 0.4121(5) 0.3588(13)
H47 H 0.5081 0.4341 0.3245
H48 H 0.5134 0.4098 0.4097
H49 H 0.4791 0.4182 0.3724
C57 C 0.5894(3) 0.4079(3) 0.1233(7)
C58 C 0.5717(5) 0.4451(3) 0.1036(9)
H50 H 0.5668 0.4589 0.1549
H51 H 0.5526 0.438 0.0723
H52 H 0.584 0.4634 0.0706
C59 C 0.6157(4) 0.4303(4) 0.1610(9)
H53 H 0.6317 0.4109 0.1805
H54 H 0.609 0.4464 0.2077
H55 H 0.6242 0.4486 0.12
C60 C 0.5990(5) 0.3811(3) 0.0553(8)
H56 H 0.6107 0.3579 0.0786
H57 H 0.612 0.3967 0.019
H58 H 0.5807 0.3712 0.0236
C61 C 0.66054(15) 0.16414(18) 0.1151(3)
C62 C 0.68212(16) 0.1785(2) 0.0619(4)
H59 H 0.6961 0.1995 0.0793
C63 C 0.68330(19) 0.1619(3) -0.0173(4)
C64 C 0.6624(2) 0.1318(2) -0.0424(4)
H60 H 0.6629 0.1208 -0.0964
C65 C 0.6410(2) 0.1178(2) 0.0102(4)
C66 C 0.63957(17) 0.13413(17) 0.0874(4)
H61 H 0.6242 0.125 0.1225
C67 C 0.6149(3) 0.0858(2) -0.0186(4)
C68 C 0.5855(3) 0.1099(4) -0.0569(9)
H62 H 0.5918 0.1279 -0.1012
H63 H 0.5765 0.1262 -0.0138
H64 H 0.5702 0.0902 -0.0792
C69 C 0.6268(4) 0.0576(3) -0.0898(7)
H65 H 0.631 0.0744 -0.1379
H66 H 0.6111 0.0372 -0.1055
H67 H 0.6458 0.0437 -0.0701
C70 C 0.6093(5) 0.0556(5) 0.0506(6)
H68 H 0.5932 0.0362 0.0321
H69 H 0.6027 0.0705 0.099
H70 H 0.6284 0.0407 0.065
C71 C 0.70747(19) 0.1788(3) -0.0744(4)
C72 C 0.6970(5) 0.2208(7) -0.1069(12)
H71 H 0.6756 0.2191 -0.1289
H72 H 0.7103 0.2294 -0.1507
H73 H 0.6985 0.2407 -0.0617
C73 C 0.7072(5) 0.1514(9) -0.1586(12)
H74 H 0.6866 0.1524 -0.1863
H75 H 0.7125 0.1231 -0.1446
H76 H 0.7223 0.1625 -0.1955
C74 C 0.7375(4) 0.1747(10) -0.0395(10)
H77 H 0.7522 0.1855 -0.0779
H78 H 0.7419 0.1458 -0.0288
H79 H 0.7394 0.19 0.0124
C78 C 0.6118(2) 0.1413(2) 0.3648(5)
H89 H 0.6206 0.1426 0.3126
C79 C 0.5906(2) 0.1104(2) 0.3775(6)
H90 H 0.5854 0.0916 0.3344
C80 C 0.58635(18) 0.1361(2) 0.5119(4)
H91 H 0.5778 0.1354 0.5646
C81 C 0.60811(17) 0.1658(2) 0.4935(4)
H92 H 0.6144 0.1849 0.5352
C86 C 0.57730(13) 0.10690(14) 0.4503(4)
C87 C 0.55393(13) 0.07427(14) 0.4663(4)
C88 C 0.52415(12) 0.08707(14) 0.4839(3)
C89 C 0.51501(13) 0.12927(13) 0.4898(4)
H97 H 0.5275 0.1525 0.4811
C90 C 0.56363(13) 0.03363(15) 0.4592(4)
C91 C 0.59416(14) 0.02056(16) 0.4448(5)
H98 H 0.6114 0.0377 0.4367
Zn1A Zn 0.348184(15) 0.217302(16) 0.60210(4)
Zn1D Zn 0.348184(15) -0.217302(16) 0.60210(4)
Zn1E Zn 0.651816(15) -0.217302(16) 0.39790(4)
N1A N 0.31574(11) 0.18263(13) 0.6600(3)
N1D N 0.31574(11) -0.18263(13) 0.6600(3)
N1E N 0.68426(11) -0.18263(13) 0.3400(3)
N2A N 0.31992(11) 0.21531(13) 0.4932(3)
N2D N 0.31992(11) -0.21531(13) 0.4932(3)
N2E N 0.68008(11) -0.21531(13) 0.5068(3)
N3A N 0.37257(11) 0.26537(13) 0.5519(3)
N3D N 0.37257(11) -0.26537(13) 0.5519(3)
N3E N 0.62743(11) -0.26537(13) 0.4481(3)
N4A N 0.36730(11) 0.23314(12) 0.7184(3)
N4D N 0.36730(11) -0.23314(12) 0.7184(3)
N4E N 0.63270(11) -0.23314(12) 0.2816(3)
N5A N 0.16889(12) 0.04271(14) 0.4360(3)
N5D N 0.16889(12) -0.04271(14) 0.4360(3)
N5E N 0.83111(12) -0.04271(14) 0.5640(3)
N6A N 0.37968(10) 0.16859(11) 0.5797(3)
N6D N 0.37968(10) -0.16859(11) 0.5797(3)
N6E N 0.62032(10) -0.16859(11) 0.4203(3)
N7D N 0.50000 -0.06248(16) 0.50000
N8A N 0.45428(14) 0.00000 0.5293(4)
H1A H 0.4737 0.000 0.5167
C1A C 0.31837(13) 0.16925(17) 0.7380(3)
C1D C 0.31837(13) -0.16925(17) 0.7380(3)
C1E C 0.68163(13) -0.16925(17) 0.2620(3)
C2A C 0.29367(16) 0.14059(19) 0.7527(4)
C2D C 0.29367(16) -0.14059(19) 0.7527(4)
C2E C 0.70633(16) -0.14059(19) 0.2473(4)
H2A H 0.2901 0.1267 0.8027
H2D H 0.2901 -0.1267 0.8027
H2E H 0.7099 -0.1267 0.1973
C3A C 0.27705(16) 0.1379(2) 0.6813(4)
C3D C 0.27705(16) -0.1379(2) 0.6813(4)
C3E C 0.72295(16) -0.1379(2) 0.3187(4)
H3A H 0.2592 0.1215 0.6713
H3D H 0.2592 -0.1215 0.6713
H3E H 0.7408 -0.1215 0.3287
C4A C 0.29082(14) 0.16400(17) 0.6222(4)
C4D C 0.29082(14) -0.16400(17) 0.6222(4)
C4E C 0.70918(14) -0.16400(17) 0.3778(4)
C5A C 0.28011(15) 0.16928(18) 0.5394(3)
C5D C 0.28011(15) -0.16928(18) 0.5394(3)
C5E C 0.71989(15) -0.16928(18) 0.4606(3)
C6A C 0.29381(14) 0.19320(17) 0.4809(4)
C6D C 0.29381(14) -0.19320(17) 0.4809(4)
C6E C 0.70619(14) -0.19320(17) 0.5191(4)
C7A C 0.28280(17) 0.1982(2) 0.3973(4)
C7D C 0.28280(17) -0.1982(2) 0.3973(4)
C7E C 0.71720(17) -0.1982(2) 0.6027(4)
H4A H 0.2647 0.1862 0.3726
H4D H 0.2647 -0.1862 0.3726
H4E H 0.7353 -0.1862 0.6274
C8A C 0.30242(17) 0.2228(2) 0.3594(4)
C8D C 0.30242(17) -0.2228(2) 0.3594(4)
C8E C 0.69758(17) -0.2228(2) 0.6406(4)
H5A H 0.3008 0.2312 0.3034
H5D H 0.3008 -0.2312 0.3034
H5E H 0.6992 -0.2312 0.6966
C9A C 0.32625(15) 0.23382(16) 0.4195(3)
C9D C 0.32625(15) -0.23382(16) 0.4195(3)
C9E C 0.67375(15) -0.23382(16) 0.5805(3)
C10A C 0.35034(13) 0.26039(16) 0.4082(3)
C10D C 0.35034(13) -0.26039(16) 0.4082(3)
C10E C 0.64966(13) -0.26039(16) 0.5918(3)
C11A C 0.37062(14) 0.27528(15) 0.4696(4)
C11D C 0.37062(14) -0.27528(15) 0.4696(4)
C11E C 0.62938(14) -0.27528(15) 0.5304(4)
C12A C 0.39210(17) 0.30989(19) 0.4605(4)
C12D C 0.39210(17) -0.30989(19) 0.4605(4)
C12E C 0.60790(17) -0.30989(19) 0.5395(4)
H6A H 0.3956 0.3239 0.4106
H6D H 0.3956 -0.3239 0.4106
H6E H 0.6044 -0.3239 0.5894
C13A C 0.40523(17) 0.31773(18) 0.5318(4)
C13D C 0.40523(17) -0.31773(18) 0.5318(4)
C13E C 0.59477(17) -0.31773(18) 0.4682(4)
H7A H 0.4205 0.3381 0.5422
H7D H 0.4205 -0.3381 0.5422
H7E H 0.5795 -0.3381 0.4578
C14A C 0.39326(15) 0.29074(16) 0.5941(4)
C14D C 0.39326(15) -0.29074(16) 0.5941(4)
C14E C 0.60674(15) -0.29074(16) 0.4059(4)
C15A C 0.39992(15) 0.29087(15) 0.6783(4)
C15D C 0.39992(15) -0.29087(15) 0.6783(4)
C15E C 0.60008(15) -0.29087(15) 0.3217(4)
C16A C 0.38907(14) 0.26231(16) 0.7349(4)
C16D C 0.38907(14) -0.26231(16) 0.7349(4)
C16E C 0.61093(14) -0.26231(16) 0.2651(4)
C17A C 0.39913(16) 0.25923(18) 0.8195(4)
C17D C 0.39913(16) -0.25923(18) 0.8195(4)
C17E C 0.60087(16) -0.25923(18) 0.1805(4)
H8A H 0.4143 0.2758 0.8475
H8D H 0.4143 -0.2758 0.8475
H8E H 0.5857 -0.2758 0.1525
C18A C 0.38294(15) 0.22781(18) 0.8534(4)
C18D C 0.38294(15) -0.22781(18) 0.8534(4)
C18E C 0.61706(15) -0.22781(18) 0.1466(4)
H9A H 0.3848 0.2183 0.9087
H9D H 0.3848 -0.2183 0.9087
H9E H 0.6152 -0.2183 0.0913
C19A C 0.36266(13) 0.21249(15) 0.7877(3)
C19D C 0.36266(13) -0.21249(15) 0.7877(3)
C19E C 0.63734(13) -0.21249(15) 0.2123(3)
C20A C 0.34010(14) 0.18159(16) 0.7995(3)
C20D C 0.34010(14) -0.18159(16) 0.7995(3)
C20E C 0.65990(14) -0.18159(16) 0.2005(3)
C21A C 0.25090(15) 0.14622(19) 0.5120(4)
C21D C 0.25090(15) -0.14622(19) 0.5120(4)
C21E C 0.74910(15) -0.14622(19) 0.4880(4)
C22A C 0.22252(15) 0.16342(19) 0.5283(4)
C22D C 0.22252(15) -0.16342(19) 0.5283(4)
C22E C 0.77748(15) -0.16342(19) 0.4717(4)
H10A H 0.2215 0.1887 0.5568
H10E H 0.7785 -0.1887 0.4432
H10D H 0.2215 -0.1887 0.5568
C23A C 0.19547(15) 0.14268(18) 0.5019(4)
C23D C 0.19547(15) -0.14268(18) 0.5019(4)
C23E C 0.80453(15) -0.14268(18) 0.4981(4)
H11A H 0.1761 0.1548 0.5111
H11E H 0.8239 -0.1548 0.4889
H11D H 0.1761 -0.1548 0.5111
C24A C 0.19623(15) 0.10481(18) 0.4624(4)
C24D C 0.19623(15) -0.10481(18) 0.4624(4)
C24E C 0.80377(15) -0.10481(18) 0.5376(4)
C25A C 0.22515(16) 0.08858(19) 0.4482(4)
C25E C 0.77485(16) -0.08858(19) 0.5518(4)
C25D C 0.22515(16) -0.08858(19) 0.4482(4)
H12A H 0.2265 0.063 0.421
H12E H 0.7735 -0.063 0.579
H12D H 0.2265 -0.063 0.421
C26A C 0.25205(16) 0.1091(2) 0.4731(4)
C26E C 0.74795(16) -0.1091(2) 0.5269(4)
C26D C 0.25205(16) -0.1091(2) 0.4731(4)
H13A H 0.2715 0.0972 0.463
H13E H 0.7285 -0.0972 0.537
H13D H 0.2715 -0.0972 0.463
C27A C 0.16825(16) 0.08332(18) 0.4345(5)
C27D C 0.16825(16) -0.08332(18) 0.4345(5)
C27E C 0.83175(16) -0.08332(18) 0.5655(5)
C28A C 0.14251(18) 0.02195(19) 0.4087(6)
C28D C 0.14251(18) -0.02195(19) 0.4087(6)
C28E C 0.85749(18) -0.02195(19) 0.5913(6)
C29E C 0.8846(2) -0.0426(2) 0.6216(7)
C29D C 0.1154(2) -0.0426(2) 0.3784(7)
C29A C 0.1154(2) 0.0426(2) 0.3784(7)
C30E C 0.88402(19) -0.0861(2) 0.6215(6)
C30D C 0.11598(19) -0.0861(2) 0.3785(6)
C30A C 0.11598(19) 0.0861(2) 0.3785(6)
H14E H 0.9017 -0.1011 0.6401
H14A H 0.0983 0.1011 0.3599
H14D H 0.0983 -0.1011 0.3599
C31E C 0.85778(19) -0.1059(2) 0.5947(5)
C31D C 0.14222(19) -0.1059(2) 0.4053(5)
C31A C 0.14222(19) 0.1059(2) 0.4053(5)
H15E H 0.857 -0.1349 0.5956
H15A H 0.143 0.1349 0.4044
H15D H 0.143 -0.1349 0.4044
C32E C 0.9117(2) -0.0208(2) 0.6466(7)
C32D C 0.0883(2) -0.0208(2) 0.3534(7)
C32A C 0.0883(2) 0.0208(2) 0.3534(7)
H16E H 0.9299 -0.0352 0.6635
H16A H 0.0701 0.0352 0.3365
H16D H 0.0701 -0.0352 0.3365
C33A C 0.35429(14) 0.27606(15) 0.3234(3)
C33E C 0.64571(14) -0.27606(15) 0.6766(3)
C33D C 0.35429(14) -0.27606(15) 0.3234(3)
C34A C 0.37851(15) 0.26282(19) 0.2768(4)
C34E C 0.62149(15) -0.26282(19) 0.7232(4)
C34D C 0.37851(15) -0.26282(19) 0.2768(4)
H17A H 0.3931 0.2442 0.301
H17E H 0.6069 -0.2442 0.699
H17D H 0.3931 -0.2442 0.301
C35A C 0.38200(15) 0.2760(2) 0.1962(4)
C35E C 0.61800(15) -0.2760(2) 0.8038(4)
C35D C 0.38200(15) -0.2760(2) 0.1962(4)
C36A C 0.36011(16) 0.30330(19) 0.1635(4)
C36E C 0.63989(16) -0.30330(19) 0.8365(4)
C36D C 0.36011(16) -0.30330(19) 0.1635(4)
H18A H 0.3621 0.3126 0.1086
H18E H 0.6379 -0.3126 0.8914
H18D H 0.3621 -0.3126 0.1086
C37A C 0.33563(19) 0.3177(2) 0.2061(4)
C37E C 0.66437(19) -0.3177(2) 0.7939(4)
C37D C 0.33563(19) -0.3177(2) 0.2061(4)
C38A C 0.33285(15) 0.30350(18) 0.2877(4)
C38E C 0.66715(15) -0.30350(18) 0.7123(4)
C38D C 0.33285(15) -0.30350(18) 0.2877(4)
H19A H 0.3162 0.3127 0.3186
H19E H 0.6838 -0.3127 0.6814
H19D H 0.3162 -0.3127 0.3186
C39A C 0.40830(15) 0.2602(2) 0.1449(4)
C39E C 0.59170(15) -0.2602(2) 0.8551(4)
C39D C 0.40830(15) -0.2602(2) 0.1449(4)
C40A C 0.4355(2) 0.2459(4) 0.1999(6)
C40E C 0.5645(2) -0.2459(4) 0.8001(6)
C40D C 0.4355(2) -0.2459(4) 0.1999(6)
H20A H 0.4292 0.223 0.2338
H20E H 0.5708 -0.223 0.7662
H20D H 0.4292 -0.223 0.2338
H21A H 0.4427 0.2685 0.2357
H21E H 0.5573 -0.2685 0.7643
H21D H 0.4427 -0.2685 0.2357
H22A H 0.4522 0.2372 0.1656
H22E H 0.5478 -0.2372 0.8344
H22D H 0.4522 -0.2372 0.1656
C41A C 0.3956(3) 0.2226(5) 0.1020(8)
C41E C 0.6044(3) -0.2226(5) 0.8980(8)
C41D C 0.3956(3) -0.2226(5) 0.1020(8)
H23A H 0.3778 0.2301 0.0656
H23E H 0.6222 -0.2301 0.9344
H23D H 0.3778 -0.2301 0.0656
H24A H 0.3892 0.2029 0.1432
H24E H 0.6108 -0.2029 0.8568
H24D H 0.3892 -0.2029 0.1432
H25A H 0.4115 0.2103 0.0694
H25E H 0.5885 -0.2103 0.9306
H25D H 0.4115 -0.2103 0.0694
C42A C 0.4184(4) 0.2922(6) 0.0877(11)
C42E C 0.5816(4) -0.2922(6) 0.9123(11)
C42D C 0.4184(4) -0.2922(6) 0.0877(11)
H26A H 0.4008 0.301 0.0517
H26E H 0.5992 -0.301 0.9483
H26D H 0.4008 -0.301 0.0517
H27A H 0.4345 0.2812 0.054
H27E H 0.5655 -0.2812 0.946
H27D H 0.4345 -0.2812 0.054
H28A H 0.4265 0.3156 0.1195
H28E H 0.5735 -0.3156 0.8805
H28D H 0.4265 -0.3156 0.1195
C43A C 0.3114(2) 0.3484(2) 0.1689(4)
C43E C 0.6886(2) -0.3484(2) 0.8311(4)
C43D C 0.3114(2) -0.3484(2) 0.1689(4)
C44A C 0.3180(3) 0.3599(3) 0.0815(5)
C44E C 0.6820(3) -0.3599(3) 0.9185(5)
C44D C 0.3180(3) -0.3599(3) 0.0815(5)
H29A H 0.3188 0.3351 0.0477
H29E H 0.6812 -0.3351 0.9523
H29D H 0.3188 -0.3351 0.0477
H30A H 0.3378 0.3742 0.0811
H30E H 0.6622 -0.3742 0.9189
H30D H 0.3378 -0.3742 0.0811
H31A H 0.3016 0.3778 0.0587
H31E H 0.6984 -0.3778 0.9413
H31D H 0.3016 -0.3778 0.0587
C45A C 0.3095(3) 0.3838(2) 0.2226(5)
C45E C 0.6905(3) -0.3838(2) 0.7774(5)
C45D C 0.3095(3) -0.3838(2) 0.2226(5)
H32A H 0.3052 0.3747 0.2784
H32E H 0.6948 -0.3747 0.7216
H32D H 0.3052 -0.3747 0.2784
H33A H 0.2929 0.4018 0.2015
H33E H 0.7071 -0.4018 0.7985
H33D H 0.2929 -0.4018 0.2015
H34A H 0.3291 0.3987 0.2242
H34E H 0.6709 -0.3987 0.7758
H34D H 0.3291 -0.3987 0.2242
C46A C 0.2799(2) 0.3254(3) 0.1675(5)
C46E C 0.7201(2) -0.3254(3) 0.8325(5)
C46D C 0.2799(2) -0.3254(3) 0.1675(5)
H35A H 0.2807 0.3016 0.131
H35E H 0.7193 -0.3016 0.869
H35D H 0.2807 -0.3016 0.131
H36A H 0.2634 0.3438 0.1472
H36E H 0.7366 -0.3438 0.8528
H36D H 0.2634 -0.3438 0.1472
H37A H 0.2759 0.3163 0.2234
H37E H 0.7241 -0.3163 0.7766
H37D H 0.2759 -0.3163 0.2234
C47A C 0.41999(15) 0.32361(17) 0.7149(4)
C47D C 0.41999(15) -0.32361(17) 0.7149(4)
C47E C 0.58001(15) -0.32361(17) 0.2851(4)
C48A C 0.44924(18) 0.3317(2) 0.6900(4)
C48D C 0.44924(18) -0.3317(2) 0.6900(4)
C48E C 0.55076(18) -0.3317(2) 0.3100(4)
H38A H 0.4577 0.3137 0.6513
H38D H 0.4577 -0.3137 0.6513
H38E H 0.5423 -0.3137 0.3487
C49A C 0.4669(2) 0.3642(3) 0.7177(6)
C49D C 0.4669(2) -0.3642(3) 0.7177(6)
C49E C 0.5331(2) -0.3642(3) 0.2823(6)
C50A C 0.4544(2) 0.3886(3) 0.7779(7)
C50D C 0.4544(2) -0.3886(3) 0.7779(7)
C50E C 0.5456(2) -0.3886(3) 0.2221(7)
H39A H 0.4666 0.4105 0.8004
H39D H 0.4666 -0.4105 0.8004
H39E H 0.5334 -0.4105 0.1996
C51A C 0.4245(3) 0.3826(3) 0.8075(7)
C51D C 0.4245(3) -0.3826(3) 0.8075(7)
C51E C 0.5755(3) -0.3826(3) 0.1925(7)
C52A C 0.40812(18) 0.34882(19) 0.7749(5)
C52D C 0.40812(18) -0.34882(19) 0.7749(5)
C52E C 0.59188(18) -0.34882(19) 0.2251(5)
H40A H 0.3883 0.343 0.7941
H40D H 0.3883 -0.343 0.7941
H40E H 0.6117 -0.343 0.2059
C53A C 0.4990(2) 0.3738(3) 0.6861(6)
C53D C 0.4990(2) -0.3738(3) 0.6861(6)
C53E C 0.5010(2) -0.3738(3) 0.3139(6)
C54A C 0.5103(4) 0.3424(6) 0.6269(11)
C54D C 0.5103(4) -0.3424(6) 0.6269(11)
C54E C 0.4897(4) -0.3424(6) 0.3731(11)
H41A H 0.5119 0.3158 0.6544
H41D H 0.5119 -0.3158 0.6544
H41E H 0.4881 -0.3158 0.3456
H42A H 0.5306 0.3505 0.6089
H42D H 0.5306 -0.3505 0.6089
H42E H 0.4694 -0.3505 0.3911
H43A H 0.4957 0.3405 0.5788
H43D H 0.4957 -0.3405 0.5788
H43E H 0.5043 -0.3405 0.4212
C55A C 0.5224(3) 0.3780(6) 0.7610(10)
C55D C 0.5224(3) -0.3780(6) 0.7610(10)
C55E C 0.4776(3) -0.3780(6) 0.2390(10)
H44A H 0.5233 0.3522 0.7919
H44D H 0.5233 -0.3522 0.7919
H44E H 0.4767 -0.3522 0.2081
H45A H 0.5158 0.4 0.797
H45D H 0.5158 -0.4 0.797
H45E H 0.4842 -0.4 0.203
H46A H 0.5428 0.3842 0.7417
H46D H 0.5428 -0.3842 0.7417
H46E H 0.4572 -0.3842 0.2583
C56A C 0.4997(4) 0.4121(5) 0.6412(13)
C56D C 0.4997(4) -0.4121(5) 0.6412(13)
C56E C 0.5003(4) -0.4121(5) 0.3588(13)
H47A H 0.4919 0.4341 0.6755
H47D H 0.4919 -0.4341 0.6755
H47E H 0.5081 -0.4341 0.3245
H48A H 0.4866 0.4098 0.5903
H48D H 0.4866 -0.4098 0.5903
H48E H 0.5134 -0.4098 0.4097
H49A H 0.5209 0.4182 0.6276
H49D H 0.5209 -0.4182 0.6276
H49E H 0.4791 -0.4182 0.3724
C57A C 0.4106(3) 0.4079(3) 0.8767(7)
C57D C 0.4106(3) -0.4079(3) 0.8767(7)
C57E C 0.5894(3) -0.4079(3) 0.1233(7)
C58A C 0.4283(5) 0.4451(3) 0.8964(9)
C58D C 0.4283(5) -0.4451(3) 0.8964(9)
C58E C 0.5717(5) -0.4451(3) 0.1036(9)
H50A H 0.4332 0.4589 0.8451
H50D H 0.4332 -0.4589 0.8451
H50E H 0.5668 -0.4589 0.1549
H51A H 0.4474 0.438 0.9277
H51D H 0.4474 -0.438 0.9277
H51E H 0.5526 -0.438 0.0723
H52A H 0.416 0.4634 0.9294
H52D H 0.416 -0.4634 0.9294
H52E H 0.584 -0.4634 0.0706
C59A C 0.3843(4) 0.4303(4) 0.8390(9)
C59D C 0.3843(4) -0.4303(4) 0.8390(9)
C59E C 0.6157(4) -0.4303(4) 0.1610(9)
H53A H 0.3683 0.4109 0.8195
H53D H 0.3683 -0.4109 0.8195
H53E H 0.6317 -0.4109 0.1805
H54A H 0.391 0.4464 0.7923
H54D H 0.391 -0.4464 0.7923
H54E H 0.609 -0.4464 0.2077
H55A H 0.3758 0.4486 0.88
H55D H 0.3758 -0.4486 0.88
H55E H 0.6242 -0.4486 0.12
C60A C 0.4010(5) 0.3811(3) 0.9447(8)
C60D C 0.4010(5) -0.3811(3) 0.9447(8)
C60E C 0.5990(5) -0.3811(3) 0.0553(8)
H56A H 0.3893 0.3579 0.9214
H56D H 0.3893 -0.3579 0.9214
H56E H 0.6107 -0.3579 0.0786
H57A H 0.388 0.3967 0.981
H57D H 0.388 -0.3967 0.981
H57E H 0.612 -0.3967 0.019
H58A H 0.4193 0.3712 0.9764
H58D H 0.4193 -0.3712 0.9764
H58E H 0.5807 -0.3712 0.0236
C61A C 0.33946(15) 0.16414(18) 0.8849(3)
C61D C 0.33946(15) -0.16414(18) 0.8849(3)
C61E C 0.66054(15) -0.16414(18) 0.1151(3)
C62A C 0.31788(16) 0.1785(2) 0.9381(4)
C62D C 0.31788(16) -0.1785(2) 0.9381(4)
C62E C 0.68212(16) -0.1785(2) 0.0619(4)
H59A H 0.3039 0.1995 0.9207
H59D H 0.3039 -0.1995 0.9207
H59E H 0.6961 -0.1995 0.0793
C63A C 0.31670(19) 0.1619(3) 1.0173(4)
C63D C 0.31670(19) -0.1619(3) 1.0173(4)
C63E C 0.68330(19) -0.1619(3) -0.0173(4)
C64A C 0.3376(2) 0.1318(2) 1.0424(4)
C64D C 0.3376(2) -0.1318(2) 1.0424(4)
C64E C 0.6624(2) -0.1318(2) -0.0424(4)
H60A H 0.3371 0.1208 1.0964
H60D H 0.3371 -0.1208 1.0964
H60E H 0.6629 -0.1208 -0.0964
C65A C 0.3590(2) 0.1178(2) 0.9898(4)
C65D C 0.3590(2) -0.1178(2) 0.9898(4)
C65E C 0.6410(2) -0.1178(2) 0.0102(4)
C66A C 0.36043(17) 0.13413(17) 0.9126(4)
C66D C 0.36043(17) -0.13413(17) 0.9126(4)
C66E C 0.63957(17) -0.13413(17) 0.0874(4)
H61A H 0.3758 0.125 0.8775
H61D H 0.3758 -0.125 0.8775
H61E H 0.6242 -0.125 0.1225
C67A C 0.3851(3) 0.0858(2) 1.0186(4)
C67D C 0.3851(3) -0.0858(2) 1.0186(4)
C67E C 0.6149(3) -0.0858(2) -0.0186(4)
C68A C 0.4145(3) 0.1099(4) 1.0569(9)
C68D C 0.4145(3) -0.1099(4) 1.0569(9)
C68E C 0.5855(3) -0.1099(4) -0.0569(9)
H62A H 0.4082 0.1279 1.1012
H62D H 0.4082 -0.1279 1.1012
H62E H 0.5918 -0.1279 -0.1012
H63A H 0.4235 0.1262 1.0138
H63D H 0.4235 -0.1262 1.0138
H63E H 0.5765 -0.1262 -0.0138
H64A H 0.4298 0.0902 1.0792
H64D H 0.4298 -0.0902 1.0792
H64E H 0.5702 -0.0902 -0.0792
C69A C 0.3732(4) 0.0576(3) 1.0898(7)
C69D C 0.3732(4) -0.0576(3) 1.0898(7)
C69E C 0.6268(4) -0.0576(3) -0.0898(7)
H65A H 0.369 0.0744 1.1379
H65D H 0.369 -0.0744 1.1379
H65E H 0.631 -0.0744 -0.1379
H66A H 0.3889 0.0372 1.1055
H66D H 0.3889 -0.0372 1.1055
H66E H 0.6111 -0.0372 -0.1055
H67A H 0.3542 0.0437 1.0701
H67D H 0.3542 -0.0437 1.0701
H67E H 0.6458 -0.0437 -0.0701
C70A C 0.3907(5) 0.0556(5) 0.9494(6)
C70D C 0.3907(5) -0.0556(5) 0.9494(6)
C70E C 0.6093(5) -0.0556(5) 0.0506(6)
H68A H 0.4068 0.0362 0.9679
H68D H 0.4068 -0.0362 0.9679
H68E H 0.5932 -0.0362 0.0321
H69A H 0.3973 0.0705 0.901
H69D H 0.3973 -0.0705 0.901
H69E H 0.6027 -0.0705 0.099
H70A H 0.3716 0.0407 0.935
H70D H 0.3716 -0.0407 0.935
H70E H 0.6284 -0.0407 0.065
C71A C 0.29253(19) 0.1788(3) 1.0744(4)
C71D C 0.29253(19) -0.1788(3) 1.0744(4)
C71E C 0.70747(19) -0.1788(3) -0.0744(4)
C72A C 0.3030(5) 0.2208(7) 1.1069(12)
C72D C 0.3030(5) -0.2208(7) 1.1069(12)
C72E C 0.6970(5) -0.2208(7) -0.1069(12)
H71A H 0.3244 0.2191 1.1289
H71D H 0.3244 -0.2191 1.1289
H71E H 0.6756 -0.2191 -0.1289
H72A H 0.2897 0.2294 1.1507
H72D H 0.2897 -0.2294 1.1507
H72E H 0.7103 -0.2294 -0.1507
H73A H 0.3015 0.2407 1.0617
H73D H 0.3015 -0.2407 1.0617
H73E H 0.6985 -0.2407 -0.0617
C73A C 0.2928(5) 0.1514(9) 1.1586(12)
C73D C 0.2928(5) -0.1514(9) 1.1586(12)
C73E C 0.7072(5) -0.1514(9) -0.1586(12)
H74A H 0.3134 0.1524 1.1863
H74D H 0.3134 -0.1524 1.1863
H74E H 0.6866 -0.1524 -0.1863
H75A H 0.2875 0.1231 1.1446
H75D H 0.2875 -0.1231 1.1446
H75E H 0.7125 -0.1231 -0.1446
H76A H 0.2777 0.1625 1.1955
H76D H 0.2777 -0.1625 1.1955
H76E H 0.7223 -0.1625 -0.1955
C74A C 0.2625(4) 0.1747(10) 1.0395(10)
C74D C 0.2625(4) -0.1747(10) 1.0395(10)
C74E C 0.7375(4) -0.1747(10) -0.0395(10)
H77A H 0.2478 0.1855 1.0779
H77D H 0.2478 -0.1855 1.0779
H77E H 0.7522 -0.1855 -0.0779
H78A H 0.2581 0.1458 1.0288
H78D H 0.2581 -0.1458 1.0288
H78E H 0.7419 -0.1458 -0.0288
H79A H 0.2606 0.19 0.9876
H79D H 0.2606 -0.19 0.9876
H79E H 0.7394 -0.19 0.0124
C78A C 0.3882(2) 0.1413(2) 0.6352(5)
C78D C 0.3882(2) -0.1413(2) 0.6352(5)
C78E C 0.6118(2) -0.1413(2) 0.3648(5)
H89D H 0.3794 -0.1426 0.6874
H89E H 0.6206 -0.1426 0.3126
H89A H 0.3794 0.1426 0.6874
C79A C 0.4094(2) 0.1104(2) 0.6225(6)
C79D C 0.4094(2) -0.1104(2) 0.6225(6)
C79E C 0.5906(2) -0.1104(2) 0.3775(6)
H90D H 0.4146 -0.0916 0.6656
H90E H 0.5854 -0.0916 0.3344
H90A H 0.4146 0.0916 0.6656
C80D C 0.41365(18) -0.1361(2) 0.4881(4)
C80E C 0.58635(18) -0.1361(2) 0.5119(4)
C80A C 0.41365(18) 0.1361(2) 0.4881(4)
H91D H 0.4222 -0.1354 0.4354
H91E H 0.5778 -0.1354 0.5646
H91A H 0.4222 0.1354 0.4354
C81D C 0.39189(17) -0.1658(2) 0.5065(4)
C81E C 0.60811(17) -0.1658(2) 0.4935(4)
C81A C 0.39189(17) 0.1658(2) 0.5065(4)
H92D H 0.3856 -0.1849 0.4648
H92E H 0.6144 -0.1849 0.5352
H92A H 0.3856 0.1849 0.4648
C86A C 0.42270(13) 0.10690(14) 0.5497(4)
C86D C 0.42270(13) -0.10690(14) 0.5497(4)
C86E C 0.57730(13) -0.10690(14) 0.4503(4)
C87A C 0.44607(13) 0.07427(14) 0.5337(4)
C87D C 0.44607(13) -0.07427(14) 0.5337(4)
C87E C 0.55393(13) -0.07427(14) 0.4663(4)
C88A C 0.47585(12) 0.08707(14) 0.5161(3)
C88D C 0.47585(12) -0.08707(14) 0.5161(3)
C88E C 0.52415(12) -0.08707(14) 0.4839(3)
C89E C 0.51501(13) -0.12927(13) 0.4898(4)
C89D C 0.48499(13) -0.12927(13) 0.5102(4)
C89A C 0.48499(13) 0.12927(13) 0.5102(4)
H97D H 0.4725 -0.1525 0.5189
H97E H 0.5275 -0.1525 0.4811
H97A H 0.4725 0.1525 0.5189
C90E C 0.56363(13) -0.03363(15) 0.4592(4)
C90D C 0.43637(13) -0.03363(15) 0.5408(4)
C90A C 0.43637(13) 0.03363(15) 0.5408(4)
C91E C 0.59416(14) -0.02056(16) 0.4448(5)
C91A C 0.40584(14) 0.02056(16) 0.5552(5)
C91D C 0.40584(14) -0.02056(16) 0.5552(5)
H98E H 0.6114 -0.0377 0.4367
H98A H 0.3886 0.0377 0.5633
H98D H 0.3886 -0.0377 0.5633
loop_
_geom_bond_atom_site_label_1
_geom_bond_atom_site_label_2
_geom_bond_site_symmetry_1
_geom_bond_site_symmetry_2
Zn1 N1 1_555 1_555
Cl1 C109 1_555 1_555
Cl2 C109 1_555 1_555
Cl3 C109 1_555 1_555
Cl7 C111 1_555 1_555
Cl8 C111 1_555 1_555
N1 C1 1_555 1_555
N2 Zn1 1_555 1_555
N3 Zn1 1_555 1_555
N4 Zn1 1_555 1_555
N5 C27 1_555 1_555
N6 Zn1 1_555 1_555
N7 C88 1_555 1_555
N8 H1 1_555 1_555
C1 C2 1_555 1_555
C2 H2 1_555 1_555
C3 C2 1_555 1_555
H3 C3 1_555 1_555
C4 N1 1_555 1_555
C5 C4 1_555 1_555
C6 N2 1_555 1_555
C7 C6 1_555 1_555
H4 C7 1_555 1_555
C8 C7 1_555 1_555
H5 C8 1_555 1_555
C9 N2 1_555 1_555
C10 C9 1_555 1_555
C11 N3 1_555 1_555
C12 C11 1_555 1_555
H6 C12 1_555 1_555
C13 C12 1_555 1_555
H7 C13 1_555 1_555
C14 N3 1_555 1_555
C15 C14 1_555 1_555
C16 N4 1_555 1_555
C17 C16 1_555 1_555
H8 C17 1_555 1_555
C18 C17 1_555 1_555
H9 C18 1_555 1_555
C19 N4 1_555 1_555
C20 C1 1_555 1_555
C21 C5 1_555 1_555
C22 C21 1_555 1_555
H10 C22 1_555 1_555
C23 C22 1_555 1_555
H11 C23 1_555 1_555
C24 C23 1_555 1_555
C25 C24 1_555 1_555
H12 C25 1_555 1_555
C26 C21 1_555 1_555
H13 C26 1_555 1_555
C27 C24 1_555 1_555
C28 N5 1_555 1_555
C29 C28 1_555 1_555
C30 C29 1_555 1_555
H14 C30 1_555 1_555
C31 C27 1_555 1_555
H15 C31 1_555 1_555
C32 C29 1_555 1_555
H16 C32 1_555 1_555
C33 C10 1_555 1_555
C34 C33 1_555 1_555
H17 C34 1_555 1_555
C35 C34 1_555 1_555
C36 C35 1_555 1_555
H18 C36 1_555 1_555
C37 C36 1_555 1_555
C38 C33 1_555 1_555
H19 C38 1_555 1_555
C39 C35 1_555 1_555
C40 C39 1_555 1_555
H20 C40 1_555 1_555
H21 C40 1_555 1_555
H22 C40 1_555 1_555
C41 C39 1_555 1_555
H23 C41 1_555 1_555
H24 C41 1_555 1_555
H25 C41 1_555 1_555
C42 C39 1_555 1_555
H26 C42 1_555 1_555
H27 C42 1_555 1_555
H28 C42 1_555 1_555
C43 C37 1_555 1_555
C44 C43 1_555 1_555
H29 C44 1_555 1_555
H30 C44 1_555 1_555
H31 C44 1_555 1_555
C45 C43 1_555 1_555
H32 C45 1_555 1_555
H33 C45 1_555 1_555
H34 C45 1_555 1_555
C46 C43 1_555 1_555
H35 C46 1_555 1_555
H36 C46 1_555 1_555
H37 C46 1_555 1_555
C47 C15 1_555 1_555
C48 C47 1_555 1_555
H38 C48 1_555 1_555
C49 C48 1_555 1_555
C50 C49 1_555 1_555
H39 C50 1_555 1_555
C51 C50 1_555 1_555
C52 C47 1_555 1_555
H40 C52 1_555 1_555
C53 C49 1_555 1_555
C54 C53 1_555 1_555
H41 C54 1_555 1_555
H42 C54 1_555 1_555
H43 C54 1_555 1_555
C55 C53 1_555 1_555
H44 C55 1_555 1_555
H45 C55 1_555 1_555
H46 C55 1_555 1_555
C56 C53 1_555 1_555
H47 C56 1_555 1_555
H48 C56 1_555 1_555
H49 C56 1_555 1_555
C57 C51 1_555 1_555
C58 C57 1_555 1_555
H50 C58 1_555 1_555
H51 C58 1_555 1_555
H52 C58 1_555 1_555
C59 C57 1_555 1_555
H53 C59 1_555 1_555
H54 C59 1_555 1_555
H55 C59 1_555 1_555
C60 C57 1_555 1_555
H56 C60 1_555 1_555
H57 C60 1_555 1_555
H58 C60 1_555 1_555
C61 C20 1_555 1_555
C62 C61 1_555 1_555
H59 C62 1_555 1_555
C63 C62 1_555 1_555
C64 C63 1_555 1_555
H60 C64 1_555 1_555
C65 C64 1_555 1_555
C66 C61 1_555 1_555
H61 C66 1_555 1_555
C67 C65 1_555 1_555
C68 C67 1_555 1_555
H62 C68 1_555 1_555
H63 C68 1_555 1_555
H64 C68 1_555 1_555
C69 C67 1_555 1_555
H65 C69 1_555 1_555
H66 C69 1_555 1_555
H67 C69 1_555 1_555
C70 C67 1_555 1_555
H68 C70 1_555 1_555
H69 C70 1_555 1_555
H70 C70 1_555 1_555
C71 C63 1_555 1_555
C72 C71 1_555 1_555
H71 C72 1_555 1_555
H72 C72 1_555 1_555
H73 C72 1_555 1_555
C73 C71 1_555 1_555
H74 C73 1_555 1_555
H75 C73 1_555 1_555
H76 C73 1_555 1_555
C74 C71 1_555 1_555
H77 C74 1_555 1_555
H78 C74 1_555 1_555
H79 C74 1_555 1_555
C78 N6 1_555 1_555
H89 C78 1_555 1_555
C79 C78 1_555 1_555
H90 C79 1_555 1_555
C80 H91 1_555 1_555
C81 N6 1_555 1_555
H92 C81 1_555 1_555
C86 C79 1_555 1_555
C87 C86 1_555 1_555
C88 C87 1_555 1_555
C89 C88 1_555 1_555
H97 C89 1_555 1_555
C90 N8 1_555 1_555
C91 C90 1_555 1_555
H98 C91 1_555 1_555
C92 H99 1_555 1_555
H100 C92 1_555 1_555
H101 C92 1_555 1_555
C93 H102 1_555 1_555
C94 C92 1_555 1_555
C95 C94 1_555 1_555
H103 C95 1_555 1_555
C96 C95 1_555 1_555
H104 C96 1_555 1_555
C97 C96 1_555 1_555
H105 C97 1_555 1_555
C98 C93 1_555 1_555
H106 C98 1_555 1_555
C99 H107 1_555 1_555
C100 C99 1_555 1_555
H108 C100 1_555 1_555
C101 C100 1_555 1_555
H109 C101 1_555 1_555
C102 C101 1_555 1_555
H110 C102 1_555 1_555
C103 H111 1_555 1_555
C104 C103 1_555 1_555
H112 C104 1_555 1_555
C105 C104 1_555 1_555
H113 C105 1_555 1_555
C106 C105 1_555 1_555
H114 C106 1_555 1_555
C107 C106 1_555 1_555
H115 C107 1_555 1_555
C108 C103 1_555 1_555
H116 C108 1_555 1_555
C109 H117 1_555 1_555
C111 H119 1_555 1_555
Zn1A N1A 1_555 1_555
Zn1D N1D 1_555 1_555
Zn1E N1E 1_555 1_555
Cl7E C111 1_555 1_555
N1A C1A 1_555 1_555
N1D C1D 1_555 1_555
N1E C1E 1_555 1_555
N2A Zn1A 1_555 1_555
N2D Zn1D 1_555 1_555
N2E Zn1E 1_555 1_555
N3A Zn1A 1_555 1_555
N3D Zn1D 1_555 1_555
N3E Zn1E 1_555 1_555
N4A Zn1A 1_555 1_555
N4D Zn1D 1_555 1_555
N4E Zn1E 1_555 1_555
N5A C27A 1_555 1_555
N5D C27D 1_555 1_555
N5E C27E 1_555 1_555
N6A Zn1A 1_555 1_555
N6D Zn1D 1_555 1_555
N6E Zn1E 1_555 1_555
N7D C88D 1_555 1_555
N8A H1A 1_555 1_555
C1A C2A 1_555 1_555
C1D C2D 1_555 1_555
C1E C2E 1_555 1_555
C2A H2A 1_555 1_555
C2D H2D 1_555 1_555
C2E H2E 1_555 1_555
C3A C2A 1_555 1_555
C3D C2D 1_555 1_555
C3E C2E 1_555 1_555
H3A C3A 1_555 1_555
H3D C3D 1_555 1_555
H3E C3E 1_555 1_555
C4A N1A 1_555 1_555
C4D N1D 1_555 1_555
C4E N1E 1_555 1_555
C5A C4A 1_555 1_555
C5D C4D 1_555 1_555
C5E C4E 1_555 1_555
C6A N2A 1_555 1_555
C6D N2D 1_555 1_555
C6E N2E 1_555 1_555
C7A C6A 1_555 1_555
C7D C6D 1_555 1_555
C7E C6E 1_555 1_555
H4A C7A 1_555 1_555
H4D C7D 1_555 1_555
H4E C7E 1_555 1_555
C8A C7A 1_555 1_555
C8D C7D 1_555 1_555
C8E C7E 1_555 1_555
H5A C8A 1_555 1_555
H5D C8D 1_555 1_555
H5E C8E 1_555 1_555
C9A N2A 1_555 1_555
C9D N2D 1_555 1_555
C9E N2E 1_555 1_555
C10A C9A 1_555 1_555
C10D C9D 1_555 1_555
C10E C9E 1_555 1_555
C11A N3A 1_555 1_555
C11D N3D 1_555 1_555
C11E N3E 1_555 1_555
C12A C11A 1_555 1_555
C12D C11D 1_555 1_555
C12E C11E 1_555 1_555
H6A C12A 1_555 1_555
H6D C12D 1_555 1_555
H6E C12E 1_555 1_555
C13A C12A 1_555 1_555
C13D C12D 1_555 1_555
C13E C12E 1_555 1_555
H7A C13A 1_555 1_555
H7D C13D 1_555 1_555
H7E C13E 1_555 1_555
C14A N3A 1_555 1_555
C14D N3D 1_555 1_555
C14E N3E 1_555 1_555
C15A C14A 1_555 1_555
C15D C14D 1_555 1_555
C15E C14E 1_555 1_555
C16A N4A 1_555 1_555
C16D N4D 1_555 1_555
C16E N4E 1_555 1_555
C17A C16A 1_555 1_555
C17D C16D 1_555 1_555
C17E C16E 1_555 1_555
H8A C17A 1_555 1_555
H8D C17D 1_555 1_555
H8E C17E 1_555 1_555
C18A C17A 1_555 1_555
C18D C17D 1_555 1_555
C18E C17E 1_555 1_555
H9A C18A 1_555 1_555
H9D C18D 1_555 1_555
H9E C18E 1_555 1_555
C19A N4A 1_555 1_555
C19D N4D 1_555 1_555
C19E N4E 1_555 1_555
C20A C1A 1_555 1_555
C20D C1D 1_555 1_555
C20E C1E 1_555 1_555
C21A C5A 1_555 1_555
C21D C5D 1_555 1_555
C21E C5E 1_555 1_555
C22A C21A 1_555 1_555
C22D C21D 1_555 1_555
C22E C21E 1_555 1_555
H10A C22A 1_555 1_555
H10E C22E 1_555 1_555
H10D C22D 1_555 1_555
C23A C22A 1_555 1_555
C23D C22D 1_555 1_555
C23E C22E 1_555 1_555
H11A C23A 1_555 1_555
H11E C23E 1_555 1_555
H11D C23D 1_555 1_555
C24A C23A 1_555 1_555
C24D C23D 1_555 1_555
C24E C23E 1_555 1_555
C25A C24A 1_555 1_555
C25E C24E 1_555 1_555
C25D C24D 1_555 1_555
H12A C25A 1_555 1_555
H12E C25E 1_555 1_555
H12D C25D 1_555 1_555
C26A C21A 1_555 1_555
C26E C21E 1_555 1_555
C26D C21D 1_555 1_555
H13A C26A 1_555 1_555
H13E C26E 1_555 1_555
H13D C26D 1_555 1_555
C27A C24A 1_555 1_555
C27D C24D 1_555 1_555
C27E C24E 1_555 1_555
C28A N5A 1_555 1_555
C28D N5D 1_555 1_555
C28E C28 1_555 1_555
C29E C28E 1_555 1_555
C29D C28D 1_555 1_555
C29A C28A 1_555 1_555
C30E C29E 1_555 1_555
C30D C29D 1_555 1_555
C30A C29A 1_555 1_555
H14E C30E 1_555 1_555
H14A C30A 1_555 1_555
H14D C30D 1_555 1_555
C31E C27E 1_555 1_555
C31D C27D 1_555 1_555
C31A C27A 1_555 1_555
H15E C31E 1_555 1_555
H15A C31A 1_555 1_555
H15D C31D 1_555 1_555
C32E C32 1_555 1_555
C32D C29D 1_555 1_555
C32A C29A 1_555 1_555
H16E C32E 1_555 1_555
H16A C32A 1_555 1_555
H16D C32D 1_555 1_555
C33A C10A 1_555 1_555
C33E C10E 1_555 1_555
C33D C10D 1_555 1_555
C34A C33A 1_555 1_555
C34E C33E 1_555 1_555
C34D C33D 1_555 1_555
H17A C34A 1_555 1_555
H17E C34E 1_555 1_555
H17D C34D 1_555 1_555
C35A C34A 1_555 1_555
C35E C34E 1_555 1_555
C35D C34D 1_555 1_555
C36A C35A 1_555 1_555
C36E C35E 1_555 1_555
C36D C35D 1_555 1_555
H18A C36A 1_555 1_555
H18E C36E 1_555 1_555
H18D C36D 1_555 1_555
C37A C36A 1_555 1_555
C37E C36E 1_555 1_555
C37D C36D 1_555 1_555
C38A C33A 1_555 1_555
C38E C33E 1_555 1_555
C38D C33D 1_555 1_555
H19A C38A 1_555 1_555
H19E C38E 1_555 1_555
H19D C38D 1_555 1_555
C39A C35A 1_555 1_555
C39E C35E 1_555 1_555
C39D C35D 1_555 1_555
C40A C39A 1_555 1_555
C40E C39E 1_555 1_555
C40D C39D 1_555 1_555
H20A C40A 1_555 1_555
H20E C40E 1_555 1_555
H20D C40D 1_555 1_555
H21A C40A 1_555 1_555
H21E C40E 1_555 1_555
H21D C40D 1_555 1_555
H22A C40A 1_555 1_555
H22E C40E 1_555 1_555
H22D C40D 1_555 1_555
C41A C39A 1_555 1_555
C41E C39E 1_555 1_555
C41D C39D 1_555 1_555
H23A C41A 1_555 1_555
H23E C41E 1_555 1_555
H23D C41D 1_555 1_555
H24A C41A 1_555 1_555
H24E C41E 1_555 1_555
H24D C41D 1_555 1_555
H25A C41A 1_555 1_555
H25E C41E 1_555 1_555
H25D C41D 1_555 1_555
C42A C39A 1_555 1_555
C42E C39E 1_555 1_555
C42D C39D 1_555 1_555
H26A C42A 1_555 1_555
H26E C42E 1_555 1_555
H26D C42D 1_555 1_555
H27A C42A 1_555 1_555
H27E C42E 1_555 1_555
H27D C42D 1_555 1_555
H28A C42A 1_555 1_555
H28E C42E 1_555 1_555
H28D C42D 1_555 1_555
C43A C37A 1_555 1_555
C43E C37E 1_555 1_555
C43D C37D 1_555 1_555
C44A C43A 1_555 1_555
C44E C43E 1_555 1_555
C44D C43D 1_555 1_555
H29A C44A 1_555 1_555
H29E C44E 1_555 1_555
H29D C44D 1_555 1_555
H30A C44A 1_555 1_555
H30E C44E 1_555 1_555
H30D C44D 1_555 1_555
H31A C44A 1_555 1_555
H31E C44E 1_555 1_555
H31D C44D 1_555 1_555
C45A C43A 1_555 1_555
C45E C43E 1_555 1_555
C45D C43D 1_555 1_555
H32A C45A 1_555 1_555
H32E C45E 1_555 1_555
H32D C45D 1_555 1_555
H33A C45A 1_555 1_555
H33E C45E 1_555 1_555
H33D C45D 1_555 1_555
H34A C45A 1_555 1_555
H34E C45E 1_555 1_555
H34D C45D 1_555 1_555
C46A C43A 1_555 1_555
C46E C43E 1_555 1_555
C46D C43D 1_555 1_555
H35A C46A 1_555 1_555
H35E C46E 1_555 1_555
H35D C46D 1_555 1_555
H36A C46A 1_555 1_555
H36E C46E 1_555 1_555
H36D C46D 1_555 1_555
H37A C46A 1_555 1_555
H37E C46E 1_555 1_555
H37D C46D 1_555 1_555
C47A C15A 1_555 1_555
C47D C15D 1_555 1_555
C47E C15E 1_555 1_555
C48A C47A 1_555 1_555
C48D C47D 1_555 1_555
C48E C47E 1_555 1_555
H38A C48A 1_555 1_555
H38D C48D 1_555 1_555
H38E C48E 1_555 1_555
C49A C48A 1_555 1_555
C49D C48D 1_555 1_555
C49E C48E 1_555 1_555
C50A C49A 1_555 1_555
C50D C49D 1_555 1_555
C50E C49E 1_555 1_555
H39A C50A 1_555 1_555
H39D C50D 1_555 1_555
H39E C50E 1_555 1_555
C51A C50A 1_555 1_555
C51D C50D 1_555 1_555
C51E C50E 1_555 1_555
C52A C47A 1_555 1_555
C52D C47D 1_555 1_555
C52E C47E 1_555 1_555
H40A C52A 1_555 1_555
H40D C52D 1_555 1_555
H40E C52E 1_555 1_555
C53A C49A 1_555 1_555
C53D C49D 1_555 1_555
C53E C49E 1_555 1_555
C54A C53A 1_555 1_555
C54D C53D 1_555 1_555
C54E C53E 1_555 1_555
H41A C54A 1_555 1_555
H41D C54D 1_555 1_555
H41E C54E 1_555 1_555
H42A C54A 1_555 1_555
H42D C54D 1_555 1_555
H42E C54E 1_555 1_555
H43A C54A 1_555 1_555
H43D C54D 1_555 1_555
H43E C54E 1_555 1_555
C55A C53A 1_555 1_555
C55D C53D 1_555 1_555
C55E C53E 1_555 1_555
H44A C55A 1_555 1_555
H44D C55D 1_555 1_555
H44E C55E 1_555 1_555
H45A C55A 1_555 1_555
H45D C55D 1_555 1_555
H45E C55E 1_555 1_555
H46A C55A 1_555 1_555
H46D C55D 1_555 1_555
H46E C55E 1_555 1_555
C56A C53A 1_555 1_555
C56D C53D 1_555 1_555
C56E C53E 1_555 1_555
H47A C56A 1_555 1_555
H47D C56D 1_555 1_555
H47E C56E 1_555 1_555
H48A C56A 1_555 1_555
H48D C56D 1_555 1_555
H48E C56E 1_555 1_555
H49A C56A 1_555 1_555
H49D C56D 1_555 1_555
H49E C56E 1_555 1_555
C57A C51A 1_555 1_555
C57D C51D 1_555 1_555
C57E C51E 1_555 1_555
C58A C57A 1_555 1_555
C58D C57D 1_555 1_555
C58E C57E 1_555 1_555
H50A C58A 1_555 1_555
H50D C58D 1_555 1_555
H50E C58E 1_555 1_555
H51A C58A 1_555 1_555
H51D C58D 1_555 1_555
H51E C58E 1_555 1_555
H52A C58A 1_555 1_555
H52D C58D 1_555 1_555
H52E C58E 1_555 1_555
C59A C57A 1_555 1_555
C59D C57D 1_555 1_555
C59E C57E 1_555 1_555
H53A C59A 1_555 1_555
H53D C59D 1_555 1_555
H53E C59E 1_555 1_555
H54A C59A 1_555 1_555
H54D C59D 1_555 1_555
H54E C59E 1_555 1_555
H55A C59A 1_555 1_555
H55D C59D 1_555 1_555
H55E C59E 1_555 1_555
C60A C57A 1_555 1_555
C60D C57D 1_555 1_555
C60E C57E 1_555 1_555
H56A C60A 1_555 1_555
H56D C60D 1_555 1_555
H56E C60E 1_555 1_555
H57A C60A 1_555 1_555
H57D C60D 1_555 1_555
H57E C60E 1_555 1_555
H58A C60A 1_555 1_555
H58D C60D 1_555 1_555
H58E C60E 1_555 1_555
C61A C20A 1_555 1_555
C61D C20D 1_555 1_555
C61E C20E 1_555 1_555
C62A C61A 1_555 1_555
C62D C61D 1_555 1_555
C62E C61E 1_555 1_555
H59A C62A 1_555 1_555
H59D C62D 1_555 1_555
H59E C62E 1_555 1_555
C63A C62A 1_555 1_555
C63D C62D 1_555 1_555
C63E C62E 1_555 1_555
C64A C63A 1_555 1_555
C64D C63D 1_555 1_555
C64E C63E 1_555 1_555
H60A C64A 1_555 1_555
H60D C64D 1_555 1_555
H60E C64E 1_555 1_555
C65A C64A 1_555 1_555
C65D C64D 1_555 1_555
C65E C64E 1_555 1_555
C66A C61A 1_555 1_555
C66D C61D 1_555 1_555
C66E C61E 1_555 1_555
H61A C66A 1_555 1_555
H61D C66D 1_555 1_555
H61E C66E 1_555 1_555
C67A C65A 1_555 1_555
C67D C65D 1_555 1_555
C67E C65E 1_555 1_555
C68A C67A 1_555 1_555
C68D C67D 1_555 1_555
C68E C67E 1_555 1_555
H62A C68A 1_555 1_555
H62D C68D 1_555 1_555
H62E C68E 1_555 1_555
H63A C68A 1_555 1_555
H63D C68D 1_555 1_555
H63E C68E 1_555 1_555
H64A C68A 1_555 1_555
H64D C68D 1_555 1_555
H64E C68E 1_555 1_555
C69A C67A 1_555 1_555
C69D C67D 1_555 1_555
C69E C67E 1_555 1_555
H65A C69A 1_555 1_555
H65D C69D 1_555 1_555
H65E C69E 1_555 1_555
H66A C69A 1_555 1_555
H66D C69D 1_555 1_555
H66E C69E 1_555 1_555
H67A C69A 1_555 1_555
H67D C69D 1_555 1_555
H67E C69E 1_555 1_555
C70A C67A 1_555 1_555
C70D C67D 1_555 1_555
C70E C67E 1_555 1_555
H68A C70A 1_555 1_555
H68D C70D 1_555 1_555
H68E C70E 1_555 1_555
H69A C70A 1_555 1_555
H69D C70D 1_555 1_555
H69E C70E 1_555 1_555
H70A C70A 1_555 1_555
H70D C70D 1_555 1_555
H70E C70E 1_555 1_555
C71A C63A 1_555 1_555
C71D C63D 1_555 1_555
C71E C63E 1_555 1_555
C72A C71A 1_555 1_555
C72D C71D 1_555 1_555
C72E C71E 1_555 1_555
H71A C72A 1_555 1_555
H71D C72D 1_555 1_555
H71E C72E 1_555 1_555
H72A C72A 1_555 1_555
H72D C72D 1_555 1_555
H72E C72E 1_555 1_555
H73A C72A 1_555 1_555
H73D C72D 1_555 1_555
H73E C72E 1_555 1_555
C73A C71A 1_555 1_555
C73D C71D 1_555 1_555
C73E C71E 1_555 1_555
H74A C73A 1_555 1_555
H74D C73D 1_555 1_555
H74E C73E 1_555 1_555
H75A C73A 1_555 1_555
H75D C73D 1_555 1_555
H75E C73E 1_555 1_555
H76A C73A 1_555 1_555
H76D C73D 1_555 1_555
H76E C73E 1_555 1_555
C74A C71A 1_555 1_555
C74D C71D 1_555 1_555
C74E C71E 1_555 1_555
H77A C74A 1_555 1_555
H77D C74D 1_555 1_555
H77E C74E 1_555 1_555
H78A C74A 1_555 1_555
H78D C74D 1_555 1_555
H78E C74E 1_555 1_555
H79A C74A 1_555 1_555
H79D C74D 1_555 1_555
H79E C74E 1_555 1_555
C78A N6A 1_555 1_555
C78D N6D 1_555 1_555
C78E N6E 1_555 1_555
H89D C78D 1_555 1_555
H89E C78E 1_555 1_555
H89A C78A 1_555 1_555
C79A C78A 1_555 1_555
C79D C78D 1_555 1_555
C79E C78E 1_555 1_555
H90D C79D 1_555 1_555
H90E C79E 1_555 1_555
H90A C79A 1_555 1_555
C80D H91D 1_555 1_555
C80E H91E 1_555 1_555
C80A H91A 1_555 1_555
C81D N6D 1_555 1_555
C81E N6E 1_555 1_555
C81A N6A 1_555 1_555
H92D C81D 1_555 1_555
H92E C81E 1_555 1_555
H92A C81A 1_555 1_555
C86A C79A 1_555 1_555
C86D C79D 1_555 1_555
C86E C79E 1_555 1_555
C87A C86A 1_555 1_555
C87D C86D 1_555 1_555
C87E C86E 1_555 1_555
C88A N7 1_555 1_555
C88D C87D 1_555 1_555
C88E N7D 1_555 1_555
C89E C88E 1_555 1_555
C89D C88D 1_555 1_555
C89A C89 1_555 1_555
H97D C89D 1_555 1_555
H97E C89E 1_555 1_555
H97A C89A 1_555 1_555
C90E N8 1_555 1_555
C90D N8A 1_555 1_555
C90A N8A 1_555 1_555
C91E C91 1_555 1_555
C91A C90A 1_555 1_555
C91D C90D 1_555 1_555
H98E C91E 1_555 1_555
H98A C91A 1_555 1_555
H98D C91D 1_555 1_555
C100A C99 1_555 1_555
H108A C100A 1_555 1_555
C101A C102 1_555 1_555
H109A C101A 1_555 1_555
C3 C4 1_555 1_555
C5 C6 1_555 1_555
C8 C9 1_555 1_555
C10 C11 1_555 1_555
C13 C14 1_555 1_555
C15 C16 1_555 1_555
C18 C19 1_555 1_555
C19 C20 1_555 1_555
C25 C26 1_555 1_555
C30 C31 1_555 1_555
C37 C38 1_555 1_555
C51 C52 1_555 1_555
C65 C66 1_555 1_555
C80 C81 1_555 1_555
C80 C86 1_555 1_555
C87 C90 1_555 1_555
C93 C94 1_555 1_555
C97 C98 1_555 1_555
C107 C108 1_555 1_555
N5E C28E 1_555 1_555
C3A C4A 1_555 1_555
C3D C4D 1_555 1_555
C3E C4E 1_555 1_555
C5A C6A 1_555 1_555
C5D C6D 1_555 1_555
C5E C6E 1_555 1_555
C8A C9A 1_555 1_555
C8D C9D 1_555 1_555
C8E C9E 1_555 1_555
C10A C11A 1_555 1_555
C10D C11D 1_555 1_555
C10E C11E 1_555 1_555
C13A C14A 1_555 1_555
C13D C14D 1_555 1_555
C13E C14E 1_555 1_555
C15A C16A 1_555 1_555
C15D C16D 1_555 1_555
C15E C16E 1_555 1_555
C18A C19A 1_555 1_555
C18D C19D 1_555 1_555
C18E C19E 1_555 1_555
C19A C20A 1_555 1_555
C19D C20D 1_555 1_555
C19E C20E 1_555 1_555
C25A C26A 1_555 1_555
C25E C26E 1_555 1_555
C25D C26D 1_555 1_555
C28A C28D 1_555 1_555
C29E C32E 1_555 1_555
C30E C31E 1_555 1_555
C30D C31D 1_555 1_555
C30A C31A 1_555 1_555
C32D C32A 1_555 1_555
C37A C38A 1_555 1_555
C37E C38E 1_555 1_555
C37D C38D 1_555 1_555
C51A C52A 1_555 1_555
C51D C52D 1_555 1_555
C51E C52E 1_555 1_555
C65A C66A 1_555 1_555
C65D C66D 1_555 1_555
C65E C66E 1_555 1_555
C80D C81D 1_555 1_555
C80D C86D 1_555 1_555
C80E C81E 1_555 1_555
C80E C86E 1_555 1_555
C80A C81A 1_555 1_555
C80A C86A 1_555 1_555
C87A C88A 1_555 1_555
C87A C90A 1_555 1_555
C87D C90D 1_555 1_555
C87E C88E 1_555 1_555
C87E C90E 1_555 1_555
C88A C89A 1_555 1_555
C89E C89D 1_555 1_555
C90E C91E 1_555 1_555
C91A C91D 1_555 1_555
C100A C101A 1_555 1_555

#END
