# generated using pymatgen
data_Zn2H233C218N14(Cl7O2)2
_symmetry_space_group_name_H-M   'P 1'
_cell_length_a   16.23300000
_cell_length_b   27.20265930
_cell_length_c   27.20265930
_cell_angle_alpha   73.97906621
_cell_angle_beta   87.56504154
_cell_angle_gamma   87.56504154
_symmetry_Int_Tables_number   1
_chemical_formula_structural   Zn2H233C218N14(Cl7O2)2
_chemical_formula_sum   'Zn4 H466 C436 N28 Cl28 O8'
_cell_volume   11529.28570286
_cell_formula_units_Z   2
loop_
 _symmetry_equiv_pos_site_id
 _symmetry_equiv_pos_as_xyz
  1  'x, y, z'
loop_
 _atom_site_type_symbol
 _atom_site_label
 _atom_site_symmetry_multiplicity
 _atom_site_fract_x
 _atom_site_fract_y
 _atom_site_fract_z
 _atom_site_occupancy
  C  C1  1  0.230900  0.595100  0.018500  1
  C  C2  1  0.769100  0.981500  0.404900  1
  C  C3  1  0.769100  0.404900  0.981500  1
  C  C4  1  0.230900  0.018500  0.595100  1
  C  C5  1  0.413500  0.212100  0.212100  1
  C  C6  1  0.586500  0.787900  0.787900  1
  C  C7  1  0.641700  0.444900  0.220300  1
  C  C8  1  0.358300  0.779700  0.555100  1
  C  C9  1  0.358300  0.555100  0.779700  1
  C  C10  1  0.641700  0.220300  0.444900  1
  C  C11  1  0.702000  0.511500  0.241700  1
  C  C12  1  0.298000  0.758300  0.488500  1
  C  C13  1  0.298000  0.488500  0.758300  1
  C  C14  1  0.702000  0.241700  0.511500  1
  C  C15  1  0.664400  0.464600  0.258800  1
  C  C16  1  0.335600  0.741200  0.535400  1
  C  C17  1  0.335600  0.535400  0.741200  1
  C  C18  1  0.664400  0.258800  0.464600  1
  C  C19  1  0.652700  0.441900  0.310900  1
  C  C20  1  0.347300  0.689100  0.558100  1
  C  C21  1  0.347300  0.558100  0.689100  1
  C  C22  1  0.652700  0.310900  0.441900  1
  C  C23  1  0.678600  0.466200  0.346000  1
  C  C24  1  0.321400  0.654000  0.533800  1
  C  C25  1  0.321400  0.533800  0.654000  1
  C  C26  1  0.678600  0.346000  0.466200  1
  C  C27  1  0.716200  0.513200  0.329000  1
  C  C28  1  0.283800  0.671000  0.486800  1
  C  C29  1  0.283800  0.486800  0.671000  1
  C  C30  1  0.716200  0.329000  0.513200  1
  C  C31  1  0.727900  0.535800  0.276800  1
  C  C32  1  0.272100  0.723200  0.464200  1
  C  C33  1  0.272100  0.464200  0.723200  1
  C  C34  1  0.727900  0.276800  0.535800  1
  C  C35  1  0.000000  0.735900  0.264100  1
  C  C36  1  0.000000  0.264100  0.735900  1
  C  C37  1  0.000000  0.826200  0.173800  1
  C  C38  1  0.000000  0.173800  0.826200  1
  C  C39  1  0.837200  0.701000  0.394000  1
  C  C40  1  0.162800  0.606000  0.299000  1
  C  C41  1  0.162800  0.299000  0.606000  1
  C  C42  1  0.837200  0.394000  0.701000  1
  C  C43  1  0.781600  0.715900  0.354700  1
  C  C44  1  0.218400  0.645300  0.284100  1
  C  C45  1  0.218400  0.284100  0.645300  1
  C  C46  1  0.781600  0.354700  0.715900  1
  C  C47  1  0.742500  0.679000  0.338200  1
  C  C48  1  0.257500  0.661800  0.321000  1
  C  C49  1  0.257500  0.321000  0.661800  1
  C  C50  1  0.742500  0.338200  0.679000  1
  C  C51  1  0.758900  0.627400  0.361000  1
  C  C52  1  0.241100  0.639000  0.372600  1
  C  C53  1  0.241100  0.372600  0.639000  1
  C  C54  1  0.758900  0.361000  0.627400  1
  C  C55  1  0.814500  0.612400  0.400200  1
  C  C56  1  0.185500  0.599800  0.387600  1
  C  C57  1  0.185500  0.387600  0.599800  1
  C  C58  1  0.814500  0.400200  0.612400  1
  C  C59  1  0.853700  0.649300  0.416700  1
  C  C60  1  0.146300  0.583300  0.350700  1
  C  C61  1  0.146300  0.350700  0.583300  1
  C  C62  1  0.853700  0.416700  0.649300  1
  C  C63  1  0.849300  0.497500  0.108700  1
  C  C64  1  0.150700  0.891300  0.502500  1
  C  C65  1  0.150700  0.502500  0.891300  1
  C  C66  1  0.849300  0.108700  0.497500  1
  C  C67  1  0.913100  0.411500  0.120100  1
  C  C68  1  0.086900  0.879900  0.588500  1
  C  C69  1  0.086900  0.588500  0.879900  1
  C  C70  1  0.913100  0.120100  0.411500  1
  C  C71  1  0.968700  0.484000  0.056800  1
  C  C72  1  0.031300  0.943200  0.516000  1
  C  C73  1  0.031300  0.516000  0.943200  1
  C  C74  1  0.968700  0.056800  0.484000  1
  C  C75  1  0.360000  0.569300  0.243500  1
  C  C76  1  0.640000  0.756500  0.430700  1
  C  C77  1  0.640000  0.430700  0.756500  1
  C  C78  1  0.360000  0.243500  0.569300  1
  C  C79  1  0.371000  0.554700  0.300100  1
  C  C80  1  0.629000  0.699900  0.445300  1
  C  C81  1  0.629000  0.445300  0.699900  1
  C  C82  1  0.371000  0.300100  0.554700  1
  C  C83  1  0.490000  0.506200  0.289400  1
  C  C84  1  0.510000  0.710600  0.493800  1
  C  C85  1  0.510000  0.493800  0.710600  1
  C  C86  1  0.490000  0.289400  0.506200  1
  C  C87  1  0.477000  0.517900  0.234100  1
  C  C88  1  0.523000  0.765900  0.482100  1
  C  C89  1  0.523000  0.482100  0.765900  1
  C  C90  1  0.477000  0.234100  0.517900  1
  C  C91  1  0.744800  0.277600  0.277600  1
  C  C92  1  0.255200  0.722400  0.722400  1
  C  C93  1  0.064000  0.749100  0.226900  1.0
  C  C94  1  0.936000  0.773100  0.250900  1.0
  C  C95  1  0.936000  0.250900  0.773100  1.0
  C  C96  1  0.064000  0.226900  0.749100  1.0
  C  C97  1  0.067800  0.787400  0.187400  1.0
  C  C98  1  0.932200  0.812600  0.212600  1.0
  C  C99  1  0.932200  0.212600  0.812600  1.0
  C  C100  1  0.067800  0.187400  0.787400  1.0
  C  C101  1  0.262000  0.487620  0.149120  1.0
  C  C102  1  0.738000  0.850880  0.512380  1.0
  C  C103  1  0.738000  0.512380  0.850880  1.0
  C  C104  1  0.262000  0.149120  0.487620  1.0
  C  C105  1  0.247300  0.434260  0.153080  1.0
  C  C106  1  0.752700  0.846920  0.565740  1.0
  C  C107  1  0.752700  0.565740  0.846920  1.0
  C  C108  1  0.247300  0.153080  0.434260  1.0
  C  C109  1  0.318700  0.414950  0.139150  1.0
  C  C110  1  0.681300  0.860850  0.585050  1.0
  C  C111  1  0.681300  0.585050  0.860850  1.0
  C  C112  1  0.318700  0.139150  0.414950  1.0
  C  C113  1  0.377800  0.454820  0.126820  1.0
  C  C114  1  0.622200  0.873180  0.545180  1.0
  C  C115  1  0.622200  0.545180  0.873180  1.0
  C  C116  1  0.377800  0.126820  0.454820  1.0
  C  C117  1  0.460600  0.449390  0.110830  1.0
  C  C118  1  0.539400  0.889170  0.550610  1.0
  C  C119  1  0.539400  0.550610  0.889170  1.0
  C  C120  1  0.460600  0.110830  0.449390  1.0
  C  C121  1  0.519100  0.487010  0.100610  1.0
  C  C122  1  0.480900  0.899390  0.512990  1.0
  C  C123  1  0.480900  0.512990  0.899390  1.0
  C  C124  1  0.519100  0.100610  0.487010  1.0
  C  C125  1  0.602700  0.481000  0.084600  1.0
  C  C126  1  0.397300  0.915400  0.519000  1.0
  C  C127  1  0.397300  0.519000  0.915400  1.0
  C  C128  1  0.602700  0.084600  0.481000  1.0
  C  C129  1  0.640600  0.525220  0.079620  1.0
  C  C130  1  0.359400  0.920380  0.474780  1.0
  C  C131  1  0.359400  0.474780  0.920380  1.0
  C  C132  1  0.640600  0.079620  0.525220  1.0
  C  C133  1  0.580500  0.560070  0.092430  1.0
  C  C134  1  0.419500  0.907570  0.439930  1.0
  C  C135  1  0.419500  0.439930  0.907570  1.0
  C  C136  1  0.580500  0.092430  0.560070  1.0
  C  C137  1  0.591800  0.610730  0.089950  1.0
  C  C138  1  0.408200  0.910050  0.389270  1.0
  C  C139  1  0.408200  0.389270  0.910050  1.0
  C  C140  1  0.591800  0.089950  0.610730  1.0
  C  C141  1  0.530400  0.645900  0.095340  1.0
  C  C142  1  0.469600  0.904660  0.354100  1.0
  C  C143  1  0.469600  0.354100  0.904660  1.0
  C  C144  1  0.530400  0.095340  0.645900  1.0
  C  C145  1  0.539500  0.701990  0.082210  1.0
  C  C146  1  0.460500  0.917790  0.298010  1.0
  C  C147  1  0.460500  0.298010  0.917790  1.0
  C  C148  1  0.539500  0.082210  0.701990  1.0
  C  C149  1  0.468200  0.722960  0.087500  1.0
  C  C150  1  0.531800  0.912500  0.277040  1.0
  C  C151  1  0.531800  0.277040  0.912500  1.0
  C  C152  1  0.468200  0.087500  0.722960  1.0
  C  C153  1  0.405900  0.684000  0.102520  1.0
  C  C154  1  0.594100  0.897480  0.316000  1.0
  C  C155  1  0.594100  0.316000  0.897480  1.0
  C  C156  1  0.405900  0.102520  0.684000  1.0
  C  C157  1  0.321700  0.690790  0.109050  1.0
  C  C158  1  0.678300  0.890950  0.309210  1.0
  C  C159  1  0.678300  0.309210  0.890950  1.0
  C  C160  1  0.321700  0.109050  0.690790  1.0
  C  C161  1  0.265100  0.651380  0.126760  1.0
  C  C162  1  0.734900  0.873240  0.348620  1.0
  C  C163  1  0.734900  0.348620  0.873240  1.0
  C  C164  1  0.265100  0.126760  0.651380  1.0
  C  C165  1  0.180500  0.658360  0.139900  1.0
  C  C166  1  0.819500  0.860100  0.341640  1.0
  C  C167  1  0.819500  0.341640  0.860100  1.0
  C  C168  1  0.180500  0.139900  0.658360  1.0
  C  C169  1  0.146600  0.610750  0.155130  1.0
  C  C170  1  0.853400  0.844870  0.389250  1.0
  C  C171  1  0.853400  0.389250  0.844870  1.0
  C  C172  1  0.146600  0.155130  0.610750  1.0
  C  C173  1  0.212300  0.575150  0.150170  1.0
  C  C174  1  0.787700  0.849830  0.424850  1.0
  C  C175  1  0.787700  0.424850  0.849830  1.0
  C  C176  1  0.212300  0.150170  0.575150  1.0
  C  C177  1  0.200500  0.521690  0.158510  1.0
  C  C178  1  0.799500  0.841490  0.478310  1.0
  C  C179  1  0.799500  0.478310  0.841490  1.0
  C  C180  1  0.200500  0.158510  0.521690  1.0
  C  C181  1  0.488000  0.397120  0.104680  1.0
  C  C182  1  0.512000  0.895320  0.602880  1.0
  C  C183  1  0.512000  0.602880  0.895320  1.0
  C  C184  1  0.488000  0.104680  0.397120  1.0
  C  C185  1  0.471700  0.385940  0.059100  1.0
  C  C186  1  0.528300  0.940900  0.614060  1.0
  C  C187  1  0.528300  0.614060  0.940900  1.0
  C  C188  1  0.471700  0.059100  0.385940  1.0
  C  C189  1  0.498100  0.338150  0.052790  1.0
  C  C190  1  0.501900  0.947210  0.661850  1.0
  C  C191  1  0.501900  0.661850  0.947210  1.0
  C  C192  1  0.498100  0.052790  0.338150  1.0
  C  C193  1  0.537600  0.301040  0.091420  1.0
  C  C194  1  0.462400  0.908580  0.698960  1.0
  C  C195  1  0.462400  0.698960  0.908580  1.0
  C  C196  1  0.537600  0.091420  0.301040  1.0
  C  C197  1  0.551800  0.313730  0.136570  1.0
  C  C198  1  0.448200  0.863430  0.686270  1.0
  C  C199  1  0.448200  0.686270  0.863430  1.0
  C  C200  1  0.551800  0.136570  0.313730  1.0
  C  C201  1  0.526900  0.361150  0.142950  1.0
  C  C202  1  0.473100  0.857050  0.638850  1.0
  C  C203  1  0.473100  0.638850  0.857050  1.0
  C  C204  1  0.526900  0.142950  0.361150  1.0
  C  C205  1  0.565500  0.251570  0.084930  1.0
  C  C206  1  0.434500  0.915070  0.748430  1.0
  C  C207  1  0.434500  0.748430  0.915070  1.0
  C  C208  1  0.565500  0.084930  0.251570  1.0
  C  C209  1  0.591300  0.164460  0.120560  1.0
  C  C210  1  0.408700  0.879440  0.835540  1.0
  C  C211  1  0.408700  0.835540  0.879440  1.0
  C  C212  1  0.591300  0.120560  0.164460  1.0
  C  C213  1  0.621600  0.158000  0.072800  1.0
  C  C214  1  0.378400  0.927200  0.842000  1.0
  C  C215  1  0.378400  0.842000  0.927200  1.0
  C  C216  1  0.621600  0.072800  0.158000  1.0
  C  C217  1  0.621500  0.202080  0.029880  1.0
  C  C218  1  0.378500  0.970120  0.797920  1.0
  C  C219  1  0.378500  0.797920  0.970120  1.0
  C  C220  1  0.621500  0.029880  0.202080  1.0
  C  C221  1  0.594700  0.248120  0.036320  1.0
  C  C222  1  0.405300  0.963680  0.751880  1.0
  C  C223  1  0.405300  0.751880  0.963680  1.0
  C  C224  1  0.594700  0.036320  0.248120  1.0
  C  C225  1  0.646600  0.109100  0.067500  1.0
  C  C226  1  0.353400  0.932500  0.890900  1.0
  C  C227  1  0.353400  0.890900  0.932500  1.0
  C  C228  1  0.646600  0.067500  0.109100  1.0
  C  C229  1  0.676600  0.630350  0.078230  1.0
  C  C230  1  0.323400  0.921770  0.369650  1.0
  C  C231  1  0.323400  0.369650  0.921770  1.0
  C  C232  1  0.676600  0.078230  0.630350  1.0
  C  C233  1  0.723200  0.641330  0.115690  1.0
  C  C234  1  0.276800  0.884310  0.358670  1.0
  C  C235  1  0.276800  0.358670  0.884310  1.0
  C  C236  1  0.723200  0.115690  0.641330  1.0
  C  C237  1  0.803800  0.658000  0.106000  1.0
  C  C238  1  0.196200  0.894000  0.342000  1.0
  C  C239  1  0.196200  0.342000  0.894000  1.0
  C  C240  1  0.803800  0.106000  0.658000  1.0
  C  C241  1  0.836500  0.663410  0.056810  1.0
  C  C242  1  0.163500  0.943190  0.336590  1.0
  C  C243  1  0.163500  0.336590  0.943190  1.0
  C  C244  1  0.836500  0.056810  0.663410  1.0
  C  C245  1  0.793900  0.653330  0.017930  1.0
  C  C246  1  0.206100  0.982070  0.346670  1.0
  C  C247  1  0.206100  0.346670  0.982070  1.0
  C  C248  1  0.793900  0.017930  0.653330  1.0
  C  C249  1  0.712300  0.636350  0.029350  1.0
  C  C250  1  0.287700  0.970650  0.363650  1.0
  C  C251  1  0.287700  0.363650  0.970650  1.0
  C  C252  1  0.712300  0.029350  0.636350  1.0
  C  C253  1  0.855100  0.668500  0.148100  1.0
  C  C254  1  0.144900  0.851900  0.331500  1.0
  C  C255  1  0.144900  0.331500  0.851900  1.0
  C  C256  1  0.855100  0.148100  0.668500  1.0
  C  C257  1  0.800100  0.681400  0.189600  1.0
  C  C258  1  0.199900  0.810400  0.318600  1.0
  C  C259  1  0.199900  0.318600  0.810400  1.0
  C  C260  1  0.800100  0.189600  0.681400  1.0
  C  C261  1  0.898000  0.618200  0.173000  1.0
  C  C262  1  0.102000  0.827000  0.381800  1.0
  C  C263  1  0.102000  0.381800  0.827000  1.0
  C  C264  1  0.898000  0.173000  0.618200  1.0
  C  C265  1  0.912300  0.710600  0.126200  1.0
  C  C266  1  0.087700  0.873800  0.289400  1.0
  C  C267  1  0.087700  0.289400  0.873800  1.0
  C  C268  1  0.912300  0.126200  0.710600  1.0
  C  C269  1  0.831100  0.659800  0.963000  1.0
  C  C270  1  0.168900  0.037000  0.340200  1.0
  C  C271  1  0.168900  0.340200  0.037000  1.0
  C  C272  1  0.831100  0.963000  0.659800  1.0
  C  C273  1  0.918500  0.677900  0.958100  1.0
  C  C274  1  0.081500  0.041900  0.322100  1.0
  C  C275  1  0.081500  0.322100  0.041900  1.0
  C  C276  1  0.918500  0.958100  0.677900  1.0
  C  C277  1  0.777400  0.693300  0.925700  1.0
  C  C278  1  0.222600  0.074300  0.306700  1.0
  C  C279  1  0.222600  0.306700  0.074300  1.0
  C  C280  1  0.777400  0.925700  0.693300  1.0
  C  C281  1  0.832500  0.605300  0.954500  1.0
  C  C282  1  0.167500  0.045500  0.394700  1.0
  C  C283  1  0.167500  0.394700  0.045500  1.0
  C  C284  1  0.832500  0.954500  0.605300  1.0
  C  C285  1  0.285100  0.743600  0.096380  1.0
  C  C286  1  0.714900  0.903620  0.256400  1.0
  C  C287  1  0.714900  0.256400  0.903620  1.0
  C  C288  1  0.285100  0.096380  0.743600  1.0
  C  C289  1  0.310000  0.780940  0.117540  1.0
  C  C290  1  0.690000  0.882460  0.219060  1.0
  C  C291  1  0.690000  0.219060  0.882460  1.0
  C  C292  1  0.310000  0.117540  0.780940  1.0
  C  C293  1  0.282300  0.831100  0.102700  1.0
  C  C294  1  0.717700  0.897300  0.168900  1.0
  C  C295  1  0.717700  0.168900  0.897300  1.0
  C  C296  1  0.282300  0.102700  0.831100  1.0
  C  C297  1  0.222100  0.843000  0.065800  1.0
  C  C298  1  0.777900  0.934200  0.157000  1.0
  C  C299  1  0.777900  0.157000  0.934200  1.0
  C  C300  1  0.222100  0.065800  0.843000  1.0
  C  C301  1  0.192500  0.807100  0.041900  1.0
  C  C302  1  0.807500  0.958100  0.192900  1.0
  C  C303  1  0.807500  0.192900  0.958100  1.0
  C  C304  1  0.192500  0.041900  0.807100  1.0
  C  C305  1  0.225100  0.756940  0.059300  1.0
  C  C306  1  0.774900  0.940700  0.243060  1.0
  C  C307  1  0.774900  0.243060  0.940700  1.0
  C  C308  1  0.225100  0.059300  0.756940  1.0
  C  C309  1  0.313900  0.872800  0.125200  1.0
  C  C310  1  0.686100  0.874800  0.127200  1.0
  C  C311  1  0.686100  0.127200  0.874800  1.0
  C  C312  1  0.313900  0.125200  0.872800  1.0
  C  C313  1  0.373100  0.852700  0.167900  1.0
  C  C314  1  0.626900  0.832100  0.147300  1.0
  C  C315  1  0.626900  0.147300  0.832100  1.0
  C  C316  1  0.373100  0.167900  0.852700  1.0
  C  C317  1  0.239000  0.900400  0.144400  1.0
  C  C318  1  0.761000  0.855600  0.099600  1.0
  C  C319  1  0.761000  0.099600  0.855600  1.0
  C  C320  1  0.239000  0.144400  0.900400  1.0
  C  C321  1  0.358800  0.911800  0.087600  1.0
  C  C322  1  0.641200  0.912400  0.088200  1.0
  C  C323  1  0.641200  0.088200  0.912400  1.0
  C  C324  1  0.358800  0.087600  0.911800  1.0
  C  C325  1  0.123300  0.818500  0.002700  1.0
  C  C326  1  0.876700  0.997300  0.181500  1.0
  C  C327  1  0.876700  0.181500  0.997300  1.0
  C  C328  1  0.123300  0.002700  0.818500  1.0
  C  C329  1  0.103600  0.873400  0.983200  1.0
  C  C330  1  0.896400  0.016800  0.126600  1.0
  C  C331  1  0.896400  0.126600  0.016800  1.0
  C  C332  1  0.103600  0.983200  0.873400  1.0
  C  C333  1  0.161000  0.814600  0.954000  1.0
  C  C334  1  0.839000  0.046000  0.185400  1.0
  C  C335  1  0.839000  0.185400  0.046000  1.0
  C  C336  1  0.161000  0.954000  0.814600  1.0
  C  C337  1  0.055300  0.782100  0.019900  1.0
  C  C338  1  0.944700  0.980100  0.217900  1.0
  C  C339  1  0.944700  0.217900  0.980100  1.0
  C  C340  1  0.055300  0.019900  0.782100  1.0
  C  C341  1  0.115100  0.503600  0.175320  1.0
  C  C342  1  0.884900  0.824680  0.496400  1.0
  C  C343  1  0.884900  0.496400  0.824680  1.0
  C  C344  1  0.115100  0.175320  0.503600  1.0
  C  C345  1  0.061900  0.496380  0.139380  1.0
  C  C346  1  0.938100  0.860620  0.503620  1.0
  C  C347  1  0.938100  0.503620  0.860620  1.0
  C  C348  1  0.061900  0.139380  0.496380  1.0
  C  C349  1  0.982700  0.478600  0.154800  1.0
  C  C350  1  0.017300  0.845200  0.521400  1.0
  C  C351  1  0.017300  0.521400  0.845200  1.0
  C  C352  1  0.982700  0.154800  0.478600  1.0
  C  C353  1  0.957600  0.469400  0.205800  1.0
  C  C354  1  0.042400  0.794200  0.530600  1.0
  C  C355  1  0.042400  0.530600  0.794200  1.0
  C  C356  1  0.957600  0.205800  0.469400  1.0
  C  C357  1  0.010200  0.476800  0.241200  1.0
  C  C358  1  0.989800  0.758800  0.523200  1.0
  C  C359  1  0.989800  0.523200  0.758800  1.0
  C  C360  1  0.010200  0.241200  0.476800  1.0
  C  C361  1  0.087400  0.494560  0.226300  1.0
  C  C362  1  0.912600  0.773700  0.505440  1.0
  C  C363  1  0.912600  0.505440  0.773700  1.0
  C  C364  1  0.087400  0.226300  0.494560  1.0
  C  C365  1  0.981400  0.470900  0.299300  1.0
  C  C366  1  0.018600  0.700700  0.529100  1.0
  C  C367  1  0.018600  0.529100  0.700700  1.0
  C  C368  1  0.981400  0.299300  0.470900  1.0
  C  C369  1  0.943100  0.524400  0.304600  1.0
  C  C370  1  0.056900  0.695400  0.475600  1.0
  C  C371  1  0.056900  0.475600  0.695400  1.0
  C  C372  1  0.943100  0.304600  0.524400  1.0
  C  C373  1  0.910200  0.430800  0.315600  1.0
  C  C374  1  0.089800  0.684400  0.569200  1.0
  C  C375  1  0.089800  0.569200  0.684400  1.0
  C  C376  1  0.910200  0.315600  0.430800  1.0
  C  C377  1  0.050600  0.446300  0.335100  1.0
  C  C378  1  0.949400  0.664900  0.553700  1.0
  C  C379  1  0.949400  0.553700  0.664900  1.0
  C  C380  1  0.050600  0.335100  0.446300  1.0
  C  C381  1  0.925600  0.471330  0.113730  1.0
  C  C382  1  0.074400  0.886270  0.528670  1.0
  C  C383  1  0.074400  0.528670  0.886270  1.0
  C  C384  1  0.925600  0.113730  0.471330  1.0
  C  C385  1  0.893100  0.523800  0.082200  1.0
  C  C386  1  0.106900  0.917800  0.476200  1.0
  C  C387  1  0.106900  0.476200  0.917800  1.0
  C  C388  1  0.893100  0.082200  0.523800  1.0
  C  C389  1  0.841400  0.444200  0.141400  1.0
  C  C390  1  0.158600  0.858600  0.555800  1.0
  C  C391  1  0.158600  0.555800  0.858600  1.0
  C  C392  1  0.841400  0.141400  0.444200  1.0
  C  C393  1  0.960500  0.437200  0.087800  1.0
  C  C394  1  0.039500  0.912200  0.562800  1.0
  C  C395  1  0.039500  0.562800  0.912200  1.0
  C  C396  1  0.960500  0.087800  0.437200  1.0
  C  C397  1  0.364800  0.529500  0.246900  1.0
  C  C398  1  0.635200  0.753100  0.470500  1.0
  C  C399  1  0.635200  0.470500  0.753100  1.0
  C  C400  1  0.364800  0.246900  0.529500  1.0
  C  C401  1  0.377500  0.519800  0.299000  1.0
  C  C402  1  0.622500  0.701000  0.480200  1.0
  C  C403  1  0.622500  0.480200  0.701000  1.0
  C  C404  1  0.377500  0.299000  0.519800  1.0
  C  C405  1  0.511900  0.549750  0.277550  1.0
  C  C406  1  0.488100  0.722450  0.450250  1.0
  C  C407  1  0.488100  0.450250  0.722450  1.0
  C  C408  1  0.511900  0.277550  0.549750  1.0
  C  C409  1  0.493500  0.557690  0.226090  1.0
  C  C410  1  0.506500  0.773910  0.442310  1.0
  C  C411  1  0.506500  0.442310  0.773910  1.0
  C  C412  1  0.493500  0.226090  0.557690  1.0
  C  C413  1  0.450300  0.529600  0.315800  1.0
  C  C414  1  0.549700  0.684200  0.470400  1.0
  C  C415  1  0.549700  0.470400  0.684200  1.0
  C  C416  1  0.450300  0.315800  0.529600  1.0
  C  C417  1  0.466300  0.520340  0.371800  1.0
  C  C418  1  0.533700  0.628200  0.479660  1.0
  C  C419  1  0.533700  0.479660  0.628200  1.0
  C  C420  1  0.466300  0.371800  0.520340  1.0
  C  C421  1  0.483900  0.562920  0.388780  1.0
  C  C422  1  0.516100  0.611220  0.437080  1.0
  C  C423  1  0.516100  0.437080  0.611220  1.0
  C  C424  1  0.483900  0.388780  0.562920  1.0
  C  C425  1  0.489800  0.614260  0.355720  1.0
  C  C426  1  0.510200  0.644280  0.385740  1.0
  C  C427  1  0.510200  0.385740  0.644280  1.0
  C  C428  1  0.489800  0.355720  0.614260  1.0
  C  C429  1  0.459200  0.470000  0.402740  1.0
  C  C430  1  0.540800  0.597260  0.530000  1.0
  C  C431  1  0.540800  0.530000  0.597260  1.0
  C  C432  1  0.459200  0.402740  0.470000  1.0
  C  C433  1  0.444800  0.426400  0.385280  1.0
  C  C434  1  0.555200  0.614720  0.573600  1.0
  C  C435  1  0.555200  0.573600  0.614720  1.0
  C  C436  1  0.444800  0.385280  0.426400  1.0
  Cl  Cl437  1  0.134600  0.625890  0.010330  1
  Cl  Cl438  1  0.865400  0.989670  0.374110  1
  Cl  Cl439  1  0.865400  0.374110  0.989670  1
  Cl  Cl440  1  0.134600  0.010330  0.625890  1
  Cl  Cl441  1  0.304600  0.627780  0.979520  1
  Cl  Cl442  1  0.695400  0.020480  0.372220  1
  Cl  Cl443  1  0.695400  0.372220  0.020480  1
  Cl  Cl444  1  0.304600  0.979520  0.627780  1
  Cl  Cl445  1  0.225760  0.533170  0.013730  1
  Cl  Cl446  1  0.774240  0.986270  0.466830  1
  Cl  Cl447  1  0.774240  0.466830  0.986270  1
  Cl  Cl448  1  0.225760  0.013730  0.533170  1
  Cl  Cl449  1  0.427000  0.252330  0.252330  1
  Cl  Cl450  1  0.573000  0.747670  0.747670  1
  Cl  Cl451  1  0.635800  0.275860  0.275860  1
  Cl  Cl452  1  0.364200  0.724140  0.724140  1
  Cl  Cl453  1  0.775600  0.331300  0.293900  1
  Cl  Cl454  1  0.224400  0.706100  0.668700  1
  Cl  Cl455  1  0.224400  0.668700  0.706100  1
  Cl  Cl456  1  0.775600  0.293900  0.331300  1
  Cl  Cl457  1  0.761200  0.223150  0.334350  1
  Cl  Cl458  1  0.238800  0.665650  0.776850  1
  Cl  Cl459  1  0.238800  0.776850  0.665650  1
  Cl  Cl460  1  0.761200  0.334350  0.223150  1
  Cl  Cl461  1  0.358800  0.246480  0.158860  1.0
  Cl  Cl462  1  0.641200  0.841140  0.753520  1.0
  Cl  Cl463  1  0.641200  0.753520  0.841140  1.0
  Cl  Cl464  1  0.358800  0.158860  0.246480  1.0
  H  H465  1  0.246700  0.592400  0.054400  1
  H  H466  1  0.753300  0.945600  0.407600  1
  H  H467  1  0.753300  0.407600  0.945600  1
  H  H468  1  0.246700  0.054400  0.592400  1
  H  H469  1  0.468600  0.200700  0.200700  1
  H  H470  1  0.531400  0.799300  0.799300  1
  H  H471  1  0.657100  0.468300  0.187100  1
  H  H472  1  0.342900  0.812900  0.531700  1
  H  H473  1  0.342900  0.531700  0.812900  1
  H  H474  1  0.657100  0.187100  0.468300  1
  H  H475  1  0.581900  0.440500  0.222500  1
  H  H476  1  0.418100  0.777500  0.559500  1
  H  H477  1  0.418100  0.559500  0.777500  1
  H  H478  1  0.581900  0.222500  0.440500  1
  H  H479  1  0.670100  0.411600  0.223800  1
  H  H480  1  0.329900  0.776200  0.588400  1
  H  H481  1  0.329900  0.588400  0.776200  1
  H  H482  1  0.670100  0.223800  0.411600  1
  H  H483  1  0.710000  0.526900  0.206100  1
  H  H484  1  0.290000  0.793900  0.473100  1
  H  H485  1  0.290000  0.473100  0.793900  1
  H  H486  1  0.710000  0.206100  0.526900  1
  H  H487  1  0.626900  0.409900  0.322500  1
  H  H488  1  0.373100  0.677500  0.590100  1
  H  H489  1  0.373100  0.590100  0.677500  1
  H  H490  1  0.626900  0.322500  0.409900  1
  H  H491  1  0.670600  0.450800  0.381600  1
  H  H492  1  0.329400  0.618400  0.549200  1
  H  H493  1  0.329400  0.549200  0.618400  1
  H  H494  1  0.670600  0.381600  0.450800  1
  H  H495  1  0.733900  0.529800  0.353000  1
  H  H496  1  0.266100  0.647000  0.470200  1
  H  H497  1  0.266100  0.470200  0.647000  1
  H  H498  1  0.733900  0.353000  0.529800  1
  H  H499  1  0.753600  0.567800  0.265200  1
  H  H500  1  0.246400  0.734800  0.432200  1
  H  H501  1  0.246400  0.432200  0.734800  1
  H  H502  1  0.753600  0.265200  0.567800  1
  H  H503  1  0.000000  0.706900  0.293100  1
  H  H504  1  0.000000  0.293100  0.706900  1
  H  H505  1  0.000000  0.855200  0.144800  1
  H  H506  1  0.000000  0.144800  0.855200  1
  H  H507  1  0.864000  0.726100  0.405300  1
  H  H508  1  0.136000  0.594700  0.273900  1
  H  H509  1  0.136000  0.273900  0.594700  1
  H  H510  1  0.864000  0.405300  0.726100  1
  H  H511  1  0.770400  0.751200  0.339200  1
  H  H512  1  0.229600  0.660800  0.248800  1
  H  H513  1  0.229600  0.248800  0.660800  1
  H  H514  1  0.770400  0.339200  0.751200  1
  H  H515  1  0.704500  0.689300  0.311300  1
  H  H516  1  0.295500  0.688700  0.310700  1
  H  H517  1  0.295500  0.310700  0.688700  1
  H  H518  1  0.704500  0.311300  0.689300  1
  H  H519  1  0.732200  0.602300  0.349700  1
  H  H520  1  0.267800  0.650300  0.397700  1
  H  H521  1  0.267800  0.397700  0.650300  1
  H  H522  1  0.732200  0.349700  0.602300  1
  H  H523  1  0.825800  0.577200  0.415800  1
  H  H524  1  0.174200  0.584200  0.422800  1
  H  H525  1  0.174200  0.422800  0.584200  1
  H  H526  1  0.825800  0.415800  0.577200  1
  H  H527  1  0.891700  0.639000  0.443600  1
  H  H528  1  0.108300  0.556400  0.361000  1
  H  H529  1  0.108300  0.361000  0.556400  1
  H  H530  1  0.891700  0.443600  0.639000  1
  H  H531  1  0.818800  0.489400  0.081800  1
  H  H532  1  0.181200  0.918200  0.510600  1
  H  H533  1  0.181200  0.510600  0.918200  1
  H  H534  1  0.818800  0.081800  0.489400  1
  H  H535  1  0.857800  0.534500  0.099700  1
  H  H536  1  0.142200  0.900300  0.465500  1
  H  H537  1  0.142200  0.465500  0.900300  1
  H  H538  1  0.857800  0.099700  0.534500  1
  H  H539  1  0.817700  0.487200  0.141200  1
  H  H540  1  0.182300  0.858800  0.512800  1
  H  H541  1  0.182300  0.512800  0.858800  1
  H  H542  1  0.817700  0.141200  0.487200  1
  H  H543  1  0.966900  0.393400  0.123000  1
  H  H544  1  0.033100  0.877000  0.606600  1
  H  H545  1  0.033100  0.606600  0.877000  1
  H  H546  1  0.966900  0.123000  0.393400  1
  H  H547  1  0.885400  0.407400  0.090200  1
  H  H548  1  0.114600  0.909800  0.592600  1
  H  H549  1  0.114600  0.592600  0.909800  1
  H  H550  1  0.885400  0.090200  0.407400  1
  H  H551  1  0.879200  0.397200  0.151000  1
  H  H552  1  0.120800  0.849000  0.602800  1
  H  H553  1  0.120800  0.602800  0.849000  1
  H  H554  1  0.879200  0.151000  0.397200  1
  H  H555  1  0.021700  0.465100  0.058100  1
  H  H556  1  0.978300  0.941900  0.534900  1
  H  H557  1  0.978300  0.534900  0.941900  1
  H  H558  1  0.021700  0.058100  0.465100  1
  H  H559  1  0.977700  0.520700  0.044100  1
  H  H560  1  0.022300  0.955900  0.479300  1
  H  H561  1  0.022300  0.479300  0.955900  1
  H  H562  1  0.977700  0.044100  0.520700  1
  H  H563  1  0.932500  0.473600  0.033600  1
  H  H564  1  0.067500  0.966400  0.526400  1
  H  H565  1  0.067500  0.526400  0.966400  1
  H  H566  1  0.932500  0.033600  0.473600  1
  H  H567  1  0.315000  0.591300  0.228700  1
  H  H568  1  0.685000  0.771300  0.408700  1
  H  H569  1  0.685000  0.408700  0.771300  1
  H  H570  1  0.315000  0.228700  0.591300  1
  H  H571  1  0.330700  0.561500  0.323700  1
  H  H572  1  0.669300  0.676300  0.438500  1
  H  H573  1  0.669300  0.438500  0.676300  1
  H  H574  1  0.330700  0.323700  0.561500  1
  H  H575  1  0.529300  0.480400  0.304800  1
  H  H576  1  0.470700  0.695200  0.519600  1
  H  H577  1  0.470700  0.519600  0.695200  1
  H  H578  1  0.529300  0.304800  0.480400  1
  H  H579  1  0.512700  0.501700  0.214500  1
  H  H580  1  0.487300  0.785500  0.498300  1
  H  H581  1  0.487300  0.498300  0.785500  1
  H  H582  1  0.512700  0.214500  0.501700  1
  H  H583  1  0.782400  0.258600  0.258600  1
  H  H584  1  0.217600  0.741400  0.741400  1
  H  H585  1  0.110900  0.726500  0.231900  1.0
  H  H586  1  0.889100  0.768100  0.273500  1.0
  H  H587  1  0.889100  0.273500  0.768100  1.0
  H  H588  1  0.110900  0.231900  0.726500  1.0
  H  H589  1  0.116100  0.791100  0.165900  1.0
  H  H590  1  0.883900  0.834100  0.208900  1.0
  H  H591  1  0.883900  0.208900  0.834100  1.0
  H  H592  1  0.116100  0.165900  0.791100  1.0
  H  H593  1  0.483300  0.473700  0.473700  1.0
  H  H594  1  0.516700  0.526300  0.526300  1.0
  H  H595  1  0.197300  0.416800  0.163400  1.0
  H  H596  1  0.802700  0.836600  0.583200  1.0
  H  H597  1  0.802700  0.583200  0.836600  1.0
  H  H598  1  0.197300  0.163400  0.416800  1.0
  H  H599  1  0.328700  0.380700  0.137700  1.0
  H  H600  1  0.671300  0.862300  0.619300  1.0
  H  H601  1  0.671300  0.619300  0.862300  1.0
  H  H602  1  0.328700  0.137700  0.380700  1.0
  H  H603  1  0.627400  0.450900  0.078500  1.0
  H  H604  1  0.372600  0.921500  0.549100  1.0
  H  H605  1  0.372600  0.549100  0.921500  1.0
  H  H606  1  0.627400  0.078500  0.450900  1.0
  H  H607  1  0.696600  0.532000  0.069600  1.0
  H  H608  1  0.303400  0.930400  0.468000  1.0
  H  H609  1  0.303400  0.468000  0.930400  1.0
  H  H610  1  0.696600  0.069600  0.532000  1.0
  H  H611  1  0.589400  0.719500  0.071700  1.0
  H  H612  1  0.410600  0.928300  0.280500  1.0
  H  H613  1  0.410600  0.280500  0.928300  1.0
  H  H614  1  0.589400  0.071700  0.719500  1.0
  H  H615  1  0.457800  0.758600  0.082400  1.0
  H  H616  1  0.542200  0.917600  0.241400  1.0
  H  H617  1  0.542200  0.241400  0.917600  1.0
  H  H618  1  0.457800  0.082400  0.758600  1.0
  H  H619  1  0.152500  0.690100  0.138500  1.0
  H  H620  1  0.847500  0.861500  0.309900  1.0
  H  H621  1  0.847500  0.309900  0.861500  1.0
  H  H622  1  0.152500  0.138500  0.690100  1.0
  H  H623  1  0.091300  0.603100  0.166500  1.0
  H  H624  1  0.908700  0.833500  0.396900  1.0
  H  H625  1  0.908700  0.396900  0.833500  1.0
  H  H626  1  0.091300  0.166500  0.603100  1.0
  H  H627  1  0.443200  0.410200  0.032800  1.0
  H  H628  1  0.556800  0.967200  0.589800  1.0
  H  H629  1  0.556800  0.589800  0.967200  1.0
  H  H630  1  0.443200  0.032800  0.410200  1.0
  H  H631  1  0.488900  0.330900  0.021300  1.0
  H  H632  1  0.511100  0.978700  0.669100  1.0
  H  H633  1  0.511100  0.669100  0.978700  1.0
  H  H634  1  0.488900  0.021300  0.330900  1.0
  H  H635  1  0.579000  0.289500  0.163500  1.0
  H  H636  1  0.421000  0.836500  0.710500  1.0
  H  H637  1  0.421000  0.710500  0.836500  1.0
  H  H638  1  0.579000  0.163500  0.289500  1.0
  H  H639  1  0.537000  0.368700  0.174300  1.0
  H  H640  1  0.463000  0.825700  0.631300  1.0
  H  H641  1  0.463000  0.631300  0.825700  1.0
  H  H642  1  0.537000  0.174300  0.368700  1.0
  H  H643  1  0.640100  0.199400  0.997200  1.0
  H  H644  1  0.359900  0.002800  0.800600  1.0
  H  H645  1  0.359900  0.800600  0.002800  1.0
  H  H646  1  0.640100  0.997200  0.199400  1.0
  H  H647  1  0.595600  0.277900  0.008100  1.0
  H  H648  1  0.404400  0.991900  0.722100  1.0
  H  H649  1  0.404400  0.722100  0.991900  1.0
  H  H650  1  0.595600  0.008100  0.277900  1.0
  H  H651  1  0.663500  0.105300  0.034900  1.0
  H  H652  1  0.336500  0.965100  0.894700  1.0
  H  H653  1  0.336500  0.894700  0.965100  1.0
  H  H654  1  0.663500  0.034900  0.105300  1.0
  H  H655  1  0.699000  0.637300  0.148900  1.0
  H  H656  1  0.301000  0.851100  0.362700  1.0
  H  H657  1  0.301000  0.362700  0.851100  1.0
  H  H658  1  0.699000  0.148900  0.637300  1.0
  H  H659  1  0.891400  0.674700  0.049500  1.0
  H  H660  1  0.108600  0.950500  0.325300  1.0
  H  H661  1  0.108600  0.325300  0.950500  1.0
  H  H662  1  0.891400  0.049500  0.674700  1.0
  H  H663  1  0.681400  0.628900  0.003500  1.0
  H  H664  1  0.318600  0.996500  0.371100  1.0
  H  H665  1  0.318600  0.371100  0.996500  1.0
  H  H666  1  0.681400  0.003500  0.628900  1.0
  H  H667  1  0.766200  0.652200  0.206200  1.0
  H  H668  1  0.233800  0.793800  0.347800  1.0
  H  H669  1  0.233800  0.347800  0.793800  1.0
  H  H670  1  0.766200  0.206200  0.652200  1.0
  H  H671  1  0.764300  0.711200  0.174200  1.0
  H  H672  1  0.235700  0.825800  0.288800  1.0
  H  H673  1  0.235700  0.288800  0.825800  1.0
  H  H674  1  0.764300  0.174200  0.711200  1.0
  H  H675  1  0.834400  0.689400  0.215000  1.0
  H  H676  1  0.165600  0.785000  0.310600  1.0
  H  H677  1  0.165600  0.310600  0.785000  1.0
  H  H678  1  0.834400  0.215000  0.689400  1.0
  H  H679  1  0.934400  0.607900  0.147700  1.0
  H  H680  1  0.065600  0.852300  0.392100  1.0
  H  H681  1  0.065600  0.392100  0.852300  1.0
  H  H682  1  0.934400  0.147700  0.607900  1.0
  H  H683  1  0.856800  0.592100  0.186300  1.0
  H  H684  1  0.143200  0.813700  0.407900  1.0
  H  H685  1  0.143200  0.407900  0.813700  1.0
  H  H686  1  0.856800  0.186300  0.592100  1.0
  H  H687  1  0.930600  0.621800  0.201200  1.0
  H  H688  1  0.069400  0.798800  0.378200  1.0
  H  H689  1  0.069400  0.378200  0.798800  1.0
  H  H690  1  0.930600  0.201200  0.621800  1.0
  H  H691  1  0.948300  0.701800  0.099800  1.0
  H  H692  1  0.051700  0.900200  0.298200  1.0
  H  H693  1  0.051700  0.298200  0.900200  1.0
  H  H694  1  0.948300  0.099800  0.701800  1.0
  H  H695  1  0.946000  0.715700  0.153300  1.0
  H  H696  1  0.054000  0.846700  0.284300  1.0
  H  H697  1  0.054000  0.284300  0.846700  1.0
  H  H698  1  0.946000  0.153300  0.715700  1.0
  H  H699  1  0.880500  0.742100  0.110900  1.0
  H  H700  1  0.119500  0.889100  0.257900  1.0
  H  H701  1  0.119500  0.257900  0.889100  1.0
  H  H702  1  0.880500  0.110900  0.742100  1.0
  H  H703  1  0.952300  0.653900  0.983700  1.0
  H  H704  1  0.047700  0.016300  0.346100  1.0
  H  H705  1  0.047700  0.346100  0.016300  1.0
  H  H706  1  0.952300  0.983700  0.653900  1.0
  H  H707  1  0.918900  0.712000  0.963600  1.0
  H  H708  1  0.081100  0.036400  0.288000  1.0
  H  H709  1  0.081100  0.288000  0.036400  1.0
  H  H710  1  0.918900  0.963600  0.712000  1.0
  H  H711  1  0.941300  0.679400  0.923800  1.0
  H  H712  1  0.058700  0.076200  0.320600  1.0
  H  H713  1  0.058700  0.320600  0.076200  1.0
  H  H714  1  0.941300  0.923800  0.679400  1.0
  H  H715  1  0.721600  0.679900  0.930500  1.0
  H  H716  1  0.278400  0.069500  0.320100  1.0
  H  H717  1  0.278400  0.320100  0.069500  1.0
  H  H718  1  0.721600  0.930500  0.679900  1.0
  H  H719  1  0.798500  0.694700  0.891100  1.0
  H  H720  1  0.201500  0.108900  0.305300  1.0
  H  H721  1  0.201500  0.305300  0.108900  1.0
  H  H722  1  0.798500  0.891100  0.694700  1.0
  H  H723  1  0.775800  0.727800  0.930400  1.0
  H  H724  1  0.224200  0.069600  0.272200  1.0
  H  H725  1  0.224200  0.272200  0.069600  1.0
  H  H726  1  0.775800  0.930400  0.727800  1.0
  H  H727  1  0.869000  0.582300  0.979100  1.0
  H  H728  1  0.131000  0.020900  0.417700  1.0
  H  H729  1  0.131000  0.417700  0.020900  1.0
  H  H730  1  0.869000  0.979100  0.582300  1.0
  H  H731  1  0.852800  0.607200  0.919600  1.0
  H  H732  1  0.147200  0.080400  0.392800  1.0
  H  H733  1  0.147200  0.392800  0.080400  1.0
  H  H734  1  0.852800  0.919600  0.607200  1.0
  H  H735  1  0.776600  0.592200  0.959600  1.0
  H  H736  1  0.223400  0.040400  0.407800  1.0
  H  H737  1  0.223400  0.407800  0.040400  1.0
  H  H738  1  0.776600  0.959600  0.592200  1.0
  H  H739  1  0.348700  0.771400  0.144000  1.0
  H  H740  1  0.651300  0.856000  0.228600  1.0
  H  H741  1  0.651300  0.228600  0.856000  1.0
  H  H742  1  0.348700  0.144000  0.771400  1.0
  H  H743  1  0.199600  0.877100  0.056100  1.0
  H  H744  1  0.800400  0.943900  0.122900  1.0
  H  H745  1  0.800400  0.122900  0.943900  1.0
  H  H746  1  0.199600  0.056100  0.877100  1.0
  H  H747  1  0.205900  0.731300  0.045300  1.0
  H  H748  1  0.794100  0.954700  0.268700  1.0
  H  H749  1  0.794100  0.268700  0.954700  1.0
  H  H750  1  0.205900  0.045300  0.731300  1.0
  H  H751  1  0.345600  0.827700  0.196100  1.0
  H  H752  1  0.654400  0.803900  0.172300  1.0
  H  H753  1  0.654400  0.172300  0.803900  1.0
  H  H754  1  0.345600  0.196100  0.827700  1.0
  H  H755  1  0.391100  0.881100  0.180100  1.0
  H  H756  1  0.608900  0.819900  0.118900  1.0
  H  H757  1  0.608900  0.118900  0.819900  1.0
  H  H758  1  0.391100  0.180100  0.881100  1.0
  H  H759  1  0.421200  0.836200  0.155200  1.0
  H  H760  1  0.578800  0.844800  0.163800  1.0
  H  H761  1  0.578800  0.163800  0.844800  1.0
  H  H762  1  0.421200  0.155200  0.836200  1.0
  H  H763  1  0.208100  0.875500  0.171100  1.0
  H  H764  1  0.791900  0.828900  0.124500  1.0
  H  H765  1  0.791900  0.124500  0.828900  1.0
  H  H766  1  0.208100  0.171100  0.875500  1.0
  H  H767  1  0.203000  0.915800  0.115800  1.0
  H  H768  1  0.797000  0.884200  0.084200  1.0
  H  H769  1  0.797000  0.084200  0.884200  1.0
  H  H770  1  0.203000  0.115800  0.915800  1.0
  H  H771  1  0.258300  0.927000  0.158600  1.0
  H  H772  1  0.741700  0.841400  0.073000  1.0
  H  H773  1  0.741700  0.073000  0.841400  1.0
  H  H774  1  0.258300  0.158600  0.927000  1.0
  H  H775  1  0.324500  0.926000  0.057800  1.0
  H  H776  1  0.675500  0.942200  0.074000  1.0
  H  H777  1  0.675500  0.074000  0.942200  1.0
  H  H778  1  0.324500  0.057800  0.926000  1.0
  H  H779  1  0.409700  0.896400  0.076800  1.0
  H  H780  1  0.590300  0.923200  0.103600  1.0
  H  H781  1  0.590300  0.103600  0.923200  1.0
  H  H782  1  0.409700  0.076800  0.896400  1.0
  H  H783  1  0.372400  0.939100  0.102700  1.0
  H  H784  1  0.627600  0.897300  0.060900  1.0
  H  H785  1  0.627600  0.060900  0.897300  1.0
  H  H786  1  0.372400  0.102700  0.939100  1.0
  H  H787  1  0.154900  0.892100  0.974300  1.0
  H  H788  1  0.845100  0.025700  0.107900  1.0
  H  H789  1  0.845100  0.107900  0.025700  1.0
  H  H790  1  0.154900  0.974300  0.892100  1.0
  H  H791  1  0.072300  0.885400  0.009400  1.0
  H  H792  1  0.927700  0.990600  0.114600  1.0
  H  H793  1  0.927700  0.114600  0.990600  1.0
  H  H794  1  0.072300  0.009400  0.885400  1.0
  H  H795  1  0.070600  0.879400  0.952600  1.0
  H  H796  1  0.929400  0.047400  0.120600  1.0
  H  H797  1  0.929400  0.120600  0.047400  1.0
  H  H798  1  0.070600  0.952600  0.879400  1.0
  H  H799  1  0.180500  0.779200  0.957400  1.0
  H  H800  1  0.819500  0.042600  0.220800  1.0
  H  H801  1  0.819500  0.220800  0.042600  1.0
  H  H802  1  0.180500  0.957400  0.779200  1.0
  H  H803  1  0.207700  0.837400  0.944600  1.0
  H  H804  1  0.792300  0.055400  0.162600  1.0
  H  H805  1  0.792300  0.162600  0.055400  1.0
  H  H806  1  0.207700  0.944600  0.837400  1.0
  H  H807  1  0.120000  0.824400  0.927200  1.0
  H  H808  1  0.880000  0.072800  0.175600  1.0
  H  H809  1  0.880000  0.175600  0.072800  1.0
  H  H810  1  0.120000  0.927200  0.824400  1.0
  H  H811  1  0.078600  0.747200  0.031400  1.0
  H  H812  1  0.921400  0.968600  0.252800  1.0
  H  H813  1  0.921400  0.252800  0.968600  1.0
  H  H814  1  0.078600  0.031400  0.747200  1.0
  H  H815  1  0.019000  0.784700  0.991300  1.0
  H  H816  1  0.981000  0.008700  0.215300  1.0
  H  H817  1  0.981000  0.215300  0.008700  1.0
  H  H818  1  0.019000  0.991300  0.784700  1.0
  H  H819  1  0.023600  0.790500  0.048100  1.0
  H  H820  1  0.976400  0.951900  0.209500  1.0
  H  H821  1  0.976400  0.209500  0.951900  1.0
  H  H822  1  0.023600  0.048100  0.790500  1.0
  H  H823  1  0.079300  0.503400  0.104400  1.0
  H  H824  1  0.920700  0.895600  0.496600  1.0
  H  H825  1  0.920700  0.496600  0.895600  1.0
  H  H826  1  0.079300  0.104400  0.503400  1.0
  H  H827  1  0.903600  0.457900  0.216300  1.0
  H  H828  1  0.096400  0.783700  0.542100  1.0
  H  H829  1  0.096400  0.542100  0.783700  1.0
  H  H830  1  0.903600  0.216300  0.457900  1.0
  H  H831  1  0.122500  0.500800  0.250800  1.0
  H  H832  1  0.877500  0.749200  0.499200  1.0
  H  H833  1  0.877500  0.499200  0.749200  1.0
  H  H834  1  0.122500  0.250800  0.500800  1.0
  H  H835  1  0.898800  0.536100  0.280300  1.0
  H  H836  1  0.101200  0.719700  0.463900  1.0
  H  H837  1  0.101200  0.463900  0.719700  1.0
  H  H838  1  0.898800  0.280300  0.536100  1.0
  H  H839  1  0.986200  0.549700  0.297300  1.0
  H  H840  1  0.013800  0.702700  0.450300  1.0
  H  H841  1  0.013800  0.450300  0.702700  1.0
  H  H842  1  0.986200  0.297300  0.549700  1.0
  H  H843  1  0.920800  0.520000  0.339600  1.0
  H  H844  1  0.079200  0.660400  0.480000  1.0
  H  H845  1  0.079200  0.480000  0.660400  1.0
  H  H846  1  0.920800  0.339600  0.520000  1.0
  H  H847  1  0.862100  0.443400  0.294600  1.0
  H  H848  1  0.137900  0.705400  0.556600  1.0
  H  H849  1  0.137900  0.556600  0.705400  1.0
  H  H850  1  0.862100  0.294600  0.443400  1.0
  H  H851  1  0.894500  0.426100  0.351700  1.0
  H  H852  1  0.105500  0.648300  0.573900  1.0
  H  H853  1  0.105500  0.573900  0.648300  1.0
  H  H854  1  0.894500  0.351700  0.426100  1.0
  H  H855  1  0.929900  0.397900  0.310500  1.0
  H  H856  1  0.070100  0.689500  0.602100  1.0
  H  H857  1  0.070100  0.602100  0.689500  1.0
  H  H858  1  0.929900  0.310500  0.397900  1.0
  H  H859  1  0.032100  0.443000  0.370600  1.0
  H  H860  1  0.967900  0.629400  0.557000  1.0
  H  H861  1  0.967900  0.557000  0.629400  1.0
  H  H862  1  0.032100  0.370600  0.443000  1.0
  H  H863  1  0.099000  0.467800  0.326800  1.0
  H  H864  1  0.901000  0.673200  0.532200  1.0
  H  H865  1  0.901000  0.532200  0.673200  1.0
  H  H866  1  0.099000  0.326800  0.467800  1.0
  H  H867  1  0.065000  0.412300  0.330900  1.0
  H  H868  1  0.935000  0.669100  0.587700  1.0
  H  H869  1  0.935000  0.587700  0.669100  1.0
  H  H870  1  0.065000  0.330900  0.412300  1.0
  H  H871  1  0.871100  0.543500  0.105300  1.0
  H  H872  1  0.128900  0.894700  0.456500  1.0
  H  H873  1  0.128900  0.456500  0.894700  1.0
  H  H874  1  0.871100  0.105300  0.543500  1.0
  H  H875  1  0.849300  0.519100  0.060300  1.0
  H  H876  1  0.150700  0.939700  0.480900  1.0
  H  H877  1  0.150700  0.480900  0.939700  1.0
  H  H878  1  0.849300  0.060300  0.519100  1.0
  H  H879  1  0.938300  0.542200  0.060800  1.0
  H  H880  1  0.061700  0.939200  0.457800  1.0
  H  H881  1  0.061700  0.457800  0.939200  1.0
  H  H882  1  0.938300  0.060800  0.542200  1.0
  H  H883  1  0.813700  0.465800  0.161000  1.0
  H  H884  1  0.186300  0.839000  0.534200  1.0
  H  H885  1  0.186300  0.534200  0.839000  1.0
  H  H886  1  0.813700  0.161000  0.465800  1.0
  H  H887  1  0.855400  0.410600  0.164400  1.0
  H  H888  1  0.144600  0.835600  0.589400  1.0
  H  H889  1  0.144600  0.589400  0.835600  1.0
  H  H890  1  0.855400  0.164400  0.410600  1.0
  H  H891  1  0.804500  0.440200  0.115200  1.0
  H  H892  1  0.195500  0.884800  0.559800  1.0
  H  H893  1  0.195500  0.559800  0.884800  1.0
  H  H894  1  0.804500  0.115200  0.440200  1.0
  H  H895  1  0.922100  0.433300  0.062300  1.0
  H  H896  1  0.077900  0.937700  0.566700  1.0
  H  H897  1  0.077900  0.566700  0.937700  1.0
  H  H898  1  0.922100  0.062300  0.433300  1.0
  H  H899  1  0.971200  0.403900  0.112300  1.0
  H  H900  1  0.028800  0.887700  0.596100  1.0
  H  H901  1  0.028800  0.596100  0.887700  1.0
  H  H902  1  0.971200  0.112300  0.403900  1.0
  H  H903  1  0.012400  0.450600  0.070600  1.0
  H  H904  1  0.987600  0.929400  0.549400  1.0
  H  H905  1  0.987600  0.549400  0.929400  1.0
  H  H906  1  0.012400  0.070600  0.450600  1.0
  H  H907  1  0.312600  0.522000  0.236800  1.0
  H  H908  1  0.687400  0.763200  0.478000  1.0
  H  H909  1  0.687400  0.478000  0.763200  1.0
  H  H910  1  0.312600  0.236800  0.522000  1.0
  H  H911  1  0.334400  0.506200  0.323000  1.0
  H  H912  1  0.665600  0.677000  0.493800  1.0
  H  H913  1  0.665600  0.493800  0.677000  1.0
  H  H914  1  0.334400  0.323000  0.506200  1.0
  H  H915  1  0.564600  0.557600  0.286800  1.0
  H  H916  1  0.435400  0.713200  0.442400  1.0
  H  H917  1  0.435400  0.442400  0.713200  1.0
  H  H918  1  0.564600  0.286800  0.557600  1.0
  H  H919  1  0.535200  0.570500  0.200700  1.0
  H  H920  1  0.464800  0.799300  0.429500  1.0
  H  H921  1  0.464800  0.429500  0.799300  1.0
  H  H922  1  0.535200  0.200700  0.570500  1.0
  H  H923  1  0.481100  0.625000  0.320000  1.0
  H  H924  1  0.518900  0.680000  0.375000  1.0
  H  H925  1  0.518900  0.375000  0.680000  1.0
  H  H926  1  0.481100  0.320000  0.625000  1.0
  H  H927  1  0.436700  0.426300  0.350900  1.0
  H  H928  1  0.563300  0.649100  0.573700  1.0
  H  H929  1  0.563300  0.573700  0.649100  1.0
  H  H930  1  0.436700  0.350900  0.426300  1.0
  N  N931  1  0.500000  0.562480  0.437520  1.0
  N  N932  1  0.500000  0.437520  0.562480  1.0
  N  N933  1  0.470700  0.454280  0.454280  1.0
  N  N934  1  0.529300  0.545720  0.545720  1.0
  N  N935  1  0.340000  0.498370  0.133110  1.0
  N  N936  1  0.660000  0.866890  0.501630  1.0
  N  N937  1  0.660000  0.501630  0.866890  1.0
  N  N938  1  0.340000  0.133110  0.498370  1.0
  N  N939  1  0.506800  0.535230  0.104610  1.0
  N  N940  1  0.493200  0.895390  0.464770  1.0
  N  N941  1  0.493200  0.464770  0.895390  1.0
  N  N942  1  0.506800  0.104610  0.535230  1.0
  N  N943  1  0.448100  0.637940  0.107200  1.0
  N  N944  1  0.551900  0.892800  0.362060  1.0
  N  N945  1  0.551900  0.362060  0.892800  1.0
  N  N946  1  0.448100  0.107200  0.637940  1.0
  N  N947  1  0.281600  0.600440  0.134160  1.0
  N  N948  1  0.718400  0.865840  0.399560  1.0
  N  N949  1  0.718400  0.399560  0.865840  1.0
  N  N950  1  0.281600  0.134160  0.600440  1.0
  N  N951  1  0.564000  0.211600  0.126180  1.0
  N  N952  1  0.436000  0.873820  0.788400  1.0
  N  N953  1  0.436000  0.788400  0.873820  1.0
  N  N954  1  0.564000  0.126180  0.211600  1.0
  N  N955  1  0.420300  0.548270  0.211090  1.0
  N  N956  1  0.579700  0.788910  0.451730  1.0
  N  N957  1  0.579700  0.451730  0.788910  1.0
  N  N958  1  0.420300  0.211090  0.548270  1.0
  O  O959  1  0.694800  0.503400  0.223400  1
  O  O960  1  0.305200  0.776600  0.496600  1
  O  O961  1  0.305200  0.496600  0.776600  1
  O  O962  1  0.694800  0.223400  0.503400  1
  O  O963  1  0.685000  0.463600  0.319400  1
  O  O964  1  0.315000  0.680600  0.536400  1
  O  O965  1  0.315000  0.536400  0.680600  1
  O  O966  1  0.685000  0.319400  0.463600  1
  Zn  Zn967  1  0.397900  0.565486  0.130882  1.0
  Zn  Zn968  1  0.602100  0.869118  0.434514  1.0
  Zn  Zn969  1  0.602100  0.434514  0.869118  1.0
  Zn  Zn970  1  0.397900  0.130882  0.565486  1.0
