
#######################################################################
#
#                 Cambridge Crystallographic Data Centre
#                                CCDC 
#
#######################################################################
#
# If this CIF has been generated from an entry in the Cambridge 
# Structural Database, then it will include bibliographic, chemical, 
# crystal, experimental, refinement or atomic coordinate data resulting 
# from the CCDC's data processing and validation procedures.
#
#######################################################################

data_WULQUQ
_chemical_name_common            MOP-101
_chemical_formula_moiety         'C128 H160 B8 N64 Pd6 4+,4(N1 O3 1-),14(H2 O1)'
_chemical_name_systematic        
"octakis(\m~3~-tetrakis(4-Methylimidazolyl)borate-N,N',N'')-hexa-palladium(ii) tetranitrate tetradecahydrate"
_symmetry_cell_setting           tetragonal
_symmetry_space_group_name_H-M   'P 4/m n c'
_symmetry_Int_Tables_number      128
_space_group_name_Hall           '-P 4 2n'
loop_
_symmetry_equiv_pos_site_id
_symmetry_equiv_pos_as_xyz
1 x,y,z
2 -x,-y,z
3 -y,x,z
4 y,-x,z
5 1/2-x,1/2+y,1/2-z
6 1/2+x,1/2-y,1/2-z
7 1/2+y,1/2+x,1/2-z
8 1/2-y,1/2-x,1/2-z
9 -x,-y,-z
10 x,y,-z
11 y,-x,-z
12 -y,x,-z
13 1/2+x,1/2-y,1/2+z
14 1/2-x,1/2+y,1/2+z
15 1/2-y,1/2-x,1/2+z
16 1/2+y,1/2+x,1/2+z
_cell_length_a                   16.9134(3)
_cell_length_b                   16.9134(3)
_cell_length_c                   34.3440(10)
_cell_angle_alpha                90
_cell_angle_beta                 90
_cell_angle_gamma                90
_cell_volume                     9824.55
_exptl_crystal_colour            colorless
_exptl_crystal_description       'square plate'
_cell_formula_units_Z            2
loop_
_atom_site_label
_atom_site_type_symbol
_atom_site_fract_x
_atom_site_fract_y
_atom_site_fract_z
N15 N 0.9460(18) 0.084(2) 0.5344(9)
O1 O 0.9197(12) 0.1273(11) 0.5000
O2 O 1.0208(9) 0.1051(9) 0.5502(4)
N15I N 0.9460(18) 0.084(2) 0.4656(9)
N15J N 1.084(2) 0.0540(18) 0.4656(9)
N15C N 1.084(2) 0.0540(18) 0.5344(9)
N15A N 1.0540(18) -0.084(2) 0.5344(9)
N15H N 1.0540(18) -0.084(2) 0.4656(9)
N15K N 0.916(2) -0.0540(18) 0.4656(9)
N15B N 0.916(2) -0.0540(18) 0.5344(9)
O1C O 1.1273(11) 0.0803(12) 0.5000
O1A O 1.0803(12) -0.1273(11) 0.5000
O1B O 0.8727(11) -0.0803(12) 0.5000
O2I O 1.0208(9) 0.1051(9) 0.4498(4)
O2C O 1.1051(9) -0.0208(9) 0.5502(4)
O2H O 0.9792(9) -0.1051(9) 0.4498(4)
O2B O 0.8949(9) 0.0208(9) 0.5502(4)
O2A O 0.9792(9) -0.1051(9) 0.5502(4)
O2K O 0.8949(9) 0.0208(9) 0.4498(4)
O2J O 1.1051(9) -0.0208(9) 0.4498(4)
O3 O 0.4668(16) 0.330(3) 0.4497(19)
H36 H 0.4967 0.2939 0.4317
O4 O 0.5000 0.5000 0.386(3)
O5 O 0.570(2) 0.317(2) 0.3229(12)
H37 H 0.5103 0.3026 0.3209
H38 H 0.5886 0.2784 0.3086
O6 O 0.639(3) 0.184(3) 0.2922(18)
H39 H 0.6169 0.1188 0.2948
H40 H 0.6503 0.1626 0.2634
Pd1 Pd 0.06388(9) 0.31066(8) 0.5000
Pd2 Pd 0.0000 0.0000 0.34708(5)
B1 B 0.2598(10) 0.1708(10) 0.3921(5)
N1 N 0.3211(9) 0.2065(8) 0.3641(4)
C1 C 0.305(2) 0.2222(15) 0.3246(10)
H1 H 0.2544 0.2212 0.3126
C2 C 0.374(2) 0.2388(15) 0.3069(10)
C3 C 0.379(2) 0.271(2) 0.2642(12)
H2 H 0.3671 0.2285 0.2459
H3 H 0.4324 0.2913 0.2593
H4 H 0.3406 0.3141 0.2609
N2 N 0.434(2) 0.2391(19) 0.3301(11)
C4 C 0.399(3) 0.207(2) 0.3700(14)
H5 H 0.4273 0.1926 0.3928
N3 N 0.1875(14) 0.1521(16) 0.3696(6)
C5 C 0.1504(18) 0.1958(19) 0.3389(9)
H6 H 0.1681 0.2443 0.3280
C6 C 0.0853(17) 0.1547(17) 0.3283(9)
C7 C 0.036(3) 0.151(4) 0.2919(16)
H7 H 0.0645 0.1764 0.2705
H8 H -0.0144 0.1777 0.2962
H9 H 0.0261 0.0952 0.2852
N4 N 0.0800(13) 0.0885(15) 0.3501(6)
C8 C 0.1404(8) 0.0907(8) 0.3732(4)
H10 H 0.1502 0.0502 0.3918
C13 C 0.1677(16) 0.2345(16) 0.4418(8)
H16 H 0.1226 0.2060 0.4332
N11 N 0.2352(13) 0.2278(12) 0.4270(7)
C22 C 0.2845(18) 0.2747(16) 0.4498(8)
H27 H 0.3399 0.2817 0.4469
C23 C 0.2381(17) 0.3079(16) 0.4766(9)
C24 C 0.263(2) 0.372(2) 0.5000
N12 N 0.1666(15) 0.2862(13) 0.4711(8)
N13 N 0.0014(14) 0.3173(12) 0.4513(6)
C25 C 0.0182(16) 0.3603(17) 0.4171(8)
C26 C 0.098(2) 0.4147(19) 0.4117(9)
H31 H 0.1045 0.4488 0.4346
H32 H 0.0926 0.4475 0.3883
H33 H 0.1442 0.3803 0.4091
C27 C -0.0435(16) 0.3475(16) 0.3932(9)
H34 H -0.0502 0.3708 0.3683
N14 N 0.2970(17) 0.0941(13) 0.4100(8)
C28 C -0.0606(17) 0.2835(18) 0.4418(8)
H35 H -0.0309 0.2383 0.4343
Pd1A Pd -0.06388(9) -0.31066(8) 0.5000
Pd1C Pd 0.31066(8) -0.06388(9) 0.5000
Pd1B Pd -0.31066(8) 0.06388(9) 0.5000
Pd2H Pd 0.0000 0.0000 0.65292(5)
B1A B -0.2598(10) -0.1708(10) 0.3921(5)
B1H B -0.2598(10) -0.1708(10) 0.6079(5)
B1I B 0.2598(10) 0.1708(10) 0.6079(5)
B1B B -0.1708(10) 0.2598(10) 0.3921(5)
B1C B 0.1708(10) -0.2598(10) 0.3921(5)
B1J B 0.1708(10) -0.2598(10) 0.6079(5)
B1K B -0.1708(10) 0.2598(10) 0.6079(5)
N1A N -0.3211(9) -0.2065(8) 0.3641(4)
N1H N -0.3211(9) -0.2065(8) 0.6359(4)
N1I N 0.3211(9) 0.2065(8) 0.6359(4)
N1B N -0.2065(8) 0.3211(9) 0.3641(4)
N1C N 0.2065(8) -0.3211(9) 0.3641(4)
N1J N 0.2065(8) -0.3211(9) 0.6359(4)
N1K N -0.2065(8) 0.3211(9) 0.6359(4)
C1A C -0.305(2) -0.2222(15) 0.3246(10)
C1H C -0.305(2) -0.2222(15) 0.6754(10)
C1I C 0.305(2) 0.2222(15) 0.6754(10)
C1B C -0.2222(15) 0.305(2) 0.3246(10)
C1C C 0.2222(15) -0.305(2) 0.3246(10)
C1J C 0.2222(15) -0.305(2) 0.6754(10)
C1K C -0.2222(15) 0.305(2) 0.6754(10)
H1A H -0.2544 -0.2212 0.3126
H1H H -0.2544 -0.2212 0.6874
H1I H 0.2544 0.2212 0.6874
H1B H -0.2212 0.2544 0.3126
H1C H 0.2212 -0.2544 0.3126
H1J H 0.2212 -0.2544 0.6874
H1K H -0.2212 0.2544 0.6874
C2A C -0.374(2) -0.2388(15) 0.3069(10)
C2H C -0.374(2) -0.2388(15) 0.6931(10)
C2I C 0.374(2) 0.2388(15) 0.6931(10)
C2B C -0.2388(15) 0.374(2) 0.3069(10)
C2C C 0.2388(15) -0.374(2) 0.3069(10)
C2J C 0.2388(15) -0.374(2) 0.6931(10)
C2K C -0.2388(15) 0.374(2) 0.6931(10)
C3A C -0.379(2) -0.271(2) 0.2642(12)
C3H C -0.379(2) -0.271(2) 0.7358(12)
C3I C 0.379(2) 0.271(2) 0.7358(12)
C3B C -0.271(2) 0.379(2) 0.2642(12)
C3C C 0.271(2) -0.379(2) 0.2642(12)
C3J C 0.271(2) -0.379(2) 0.7358(12)
C3K C -0.271(2) 0.379(2) 0.7358(12)
H2A H -0.3671 -0.2285 0.2459
H2H H -0.3671 -0.2285 0.7541
H2I H 0.3671 0.2285 0.7541
H2B H -0.2285 0.3671 0.2459
H2C H 0.2285 -0.3671 0.2459
H2J H 0.2285 -0.3671 0.7541
H2K H -0.2285 0.3671 0.7541
H3A H -0.4324 -0.2913 0.2593
H3H H -0.4324 -0.2913 0.7407
H3I H 0.4324 0.2913 0.7407
H3B H -0.2913 0.4324 0.2593
H3C H 0.2913 -0.4324 0.2593
H3J H 0.2913 -0.4324 0.7407
H3K H -0.2913 0.4324 0.7407
H4A H -0.3406 -0.3141 0.2609
H4H H -0.3406 -0.3141 0.7391
H4I H 0.3406 0.3141 0.7391
H4B H -0.3141 0.3406 0.2609
H4C H 0.3141 -0.3406 0.2609
H4J H 0.3141 -0.3406 0.7391
H4K H -0.3141 0.3406 0.7391
N2A N -0.434(2) -0.2391(19) 0.3301(11)
N2H N -0.434(2) -0.2391(19) 0.6699(11)
N2I N 0.434(2) 0.2391(19) 0.6699(11)
N2B N -0.2391(19) 0.434(2) 0.3301(11)
N2C N 0.2391(19) -0.434(2) 0.3301(11)
N2J N 0.2391(19) -0.434(2) 0.6699(11)
N2K N -0.2391(19) 0.434(2) 0.6699(11)
C4A C -0.399(3) -0.207(2) 0.3700(14)
C4H C -0.399(3) -0.207(2) 0.6300(14)
C4I C 0.399(3) 0.207(2) 0.6300(14)
C4B C -0.207(2) 0.399(3) 0.3700(14)
C4C C 0.207(2) -0.399(3) 0.3700(14)
C4J C 0.207(2) -0.399(3) 0.6300(14)
C4K C -0.207(2) 0.399(3) 0.6300(14)
H5A H -0.4273 -0.1926 0.3928
H5H H -0.4273 -0.1926 0.6072
H5I H 0.4273 0.1926 0.6072
H5B H -0.1926 0.4273 0.3928
H5C H 0.1926 -0.4273 0.3928
H5J H 0.1926 -0.4273 0.6072
H5K H -0.1926 0.4273 0.6072
N3A N -0.1875(14) -0.1521(16) 0.3696(6)
N3H N -0.1875(14) -0.1521(16) 0.6304(6)
N3I N 0.1875(14) 0.1521(16) 0.6304(6)
N3B N -0.1521(16) 0.1875(14) 0.3696(6)
N3C N 0.1521(16) -0.1875(14) 0.3696(6)
N3J N 0.1521(16) -0.1875(14) 0.6304(6)
N3K N -0.1521(16) 0.1875(14) 0.6304(6)
C5A C -0.1504(18) -0.1958(19) 0.3389(9)
C5H C -0.1504(18) -0.1958(19) 0.6611(9)
C5I C 0.1504(18) 0.1958(19) 0.6611(9)
C5B C -0.1958(19) 0.1504(18) 0.3389(9)
C5C C 0.1958(19) -0.1504(18) 0.3389(9)
C5J C 0.1958(19) -0.1504(18) 0.6611(9)
C5K C -0.1958(19) 0.1504(18) 0.6611(9)
H6H H -0.1681 -0.2443 0.6720
H6B H -0.2443 0.1681 0.3280
H6J H 0.2443 -0.1681 0.6720
H6K H -0.2443 0.1681 0.6720
H6C H 0.2443 -0.1681 0.3280
H6I H 0.1681 0.2443 0.6720
H6A H -0.1681 -0.2443 0.3280
C6A C -0.0853(17) -0.1547(17) 0.3283(9)
C6H C -0.0853(17) -0.1547(17) 0.6717(9)
C6I C 0.0853(17) 0.1547(17) 0.6717(9)
C6B C -0.1547(17) 0.0853(17) 0.3283(9)
C6C C 0.1547(17) -0.0853(17) 0.3283(9)
C6J C 0.1547(17) -0.0853(17) 0.6717(9)
C6K C -0.1547(17) 0.0853(17) 0.6717(9)
C7H C -0.036(3) -0.151(4) 0.7081(16)
C7B C -0.151(4) 0.036(3) 0.2919(16)
C7J C 0.151(4) -0.036(3) 0.7081(16)
C7K C -0.151(4) 0.036(3) 0.7081(16)
C7C C 0.151(4) -0.036(3) 0.2919(16)
C7I C 0.036(3) 0.151(4) 0.7081(16)
C7A C -0.036(3) -0.151(4) 0.2919(16)
H7H H -0.0645 -0.1764 0.7295
H7B H -0.1764 0.0645 0.2705
H7J H 0.1764 -0.0645 0.7295
H7K H -0.1764 0.0645 0.7295
H7C H 0.1764 -0.0645 0.2705
H7I H 0.0645 0.1764 0.7295
H7A H -0.0645 -0.1764 0.2705
H8H H 0.0144 -0.1777 0.7038
H8B H -0.1777 -0.0144 0.2962
H8J H 0.1777 0.0144 0.7038
H8K H -0.1777 -0.0144 0.7038
H8C H 0.1777 0.0144 0.2962
H8I H -0.0144 0.1777 0.7038
H8A H 0.0144 -0.1777 0.2962
H9H H -0.0261 -0.0952 0.7148
H9B H -0.0952 0.0261 0.2852
H9J H 0.0952 -0.0261 0.7148
H9K H -0.0952 0.0261 0.7148
H9C H 0.0952 -0.0261 0.2852
H9I H 0.0261 0.0952 0.7148
H9A H -0.0261 -0.0952 0.2852
N4A N -0.0800(13) -0.0885(15) 0.3501(6)
N4H N -0.0800(13) -0.0885(15) 0.6499(6)
N4I N 0.0800(13) 0.0885(15) 0.6499(6)
N4B N -0.0885(15) 0.0800(13) 0.3501(6)
N4C N 0.0885(15) -0.0800(13) 0.3501(6)
N4J N 0.0885(15) -0.0800(13) 0.6499(6)
N4K N -0.0885(15) 0.0800(13) 0.6499(6)
C8K C -0.0907(8) 0.1404(8) 0.6268(4)
C8J C 0.0907(8) -0.1404(8) 0.6268(4)
C8C C 0.0907(8) -0.1404(8) 0.3732(4)
C8B C -0.0907(8) 0.1404(8) 0.3732(4)
C8I C 0.1404(8) 0.0907(8) 0.6268(4)
C8H C -0.1404(8) -0.0907(8) 0.6268(4)
C8A C -0.1404(8) -0.0907(8) 0.3732(4)
H10K H -0.0502 0.1502 0.6082
H10J H 0.0502 -0.1502 0.6082
H10C H 0.0502 -0.1502 0.3918
H10B H -0.0502 0.1502 0.3918
H10I H 0.1502 0.0502 0.6082
H10H H -0.1502 -0.0502 0.6082
H10A H -0.1502 -0.0502 0.3918
C13A C -0.1677(16) -0.2345(16) 0.4418(8)
C13H C -0.1677(16) -0.2345(16) 0.5582(8)
C13I C 0.1677(16) 0.2345(16) 0.5582(8)
C13C C 0.2345(16) -0.1677(16) 0.4418(8)
C13J C 0.2345(16) -0.1677(16) 0.5582(8)
C13K C -0.2345(16) 0.1677(16) 0.5582(8)
C13B C -0.2345(16) 0.1677(16) 0.4418(8)
H16A H -0.1226 -0.2060 0.4332
H16H H -0.1226 -0.2060 0.5668
H16I H 0.1226 0.2060 0.5668
H16C H 0.2060 -0.1226 0.4332
H16J H 0.2060 -0.1226 0.5668
H16K H -0.2060 0.1226 0.5668
H16B H -0.2060 0.1226 0.4332
N11A N -0.2352(13) -0.2278(12) 0.4270(7)
N11H N -0.2352(13) -0.2278(12) 0.5730(7)
N11I N 0.2352(13) 0.2278(12) 0.5730(7)
N11C N 0.2278(12) -0.2352(13) 0.4270(7)
N11J N 0.2278(12) -0.2352(13) 0.5730(7)
N11K N -0.2278(12) 0.2352(13) 0.5730(7)
N11B N -0.2278(12) 0.2352(13) 0.4270(7)
C22B C -0.2747(16) 0.2845(18) 0.4498(8)
C22K C -0.2747(16) 0.2845(18) 0.5502(8)
C22J C 0.2747(16) -0.2845(18) 0.5502(8)
C22C C 0.2747(16) -0.2845(18) 0.4498(8)
C22I C 0.2845(18) 0.2747(16) 0.5502(8)
C22H C -0.2845(18) -0.2747(16) 0.5502(8)
C22A C -0.2845(18) -0.2747(16) 0.4498(8)
H27B H -0.2817 0.3399 0.4469
H27K H -0.2817 0.3399 0.5531
H27J H 0.2817 -0.3399 0.5531
H27C H 0.2817 -0.3399 0.4469
H27I H 0.3399 0.2817 0.5531
H27H H -0.3399 -0.2817 0.5531
H27A H -0.3399 -0.2817 0.4469
C23B C -0.3079(16) 0.2381(17) 0.4766(9)
C23K C -0.3079(16) 0.2381(17) 0.5234(9)
C23J C 0.3079(16) -0.2381(17) 0.5234(9)
C23C C 0.3079(16) -0.2381(17) 0.4766(9)
C23I C 0.2381(17) 0.3079(16) 0.5234(9)
C23H C -0.2381(17) -0.3079(16) 0.5234(9)
C23A C -0.2381(17) -0.3079(16) 0.4766(9)
C24B C -0.372(2) 0.263(2) 0.5000
C24C C 0.372(2) -0.263(2) 0.5000
C24A C -0.263(2) -0.372(2) 0.5000
N12A N -0.1666(15) -0.2862(13) 0.4711(8)
N12H N -0.1666(15) -0.2862(13) 0.5289(8)
N12I N 0.1666(15) 0.2862(13) 0.5289(8)
N12C N 0.2862(13) -0.1666(15) 0.4711(8)
N12J N 0.2862(13) -0.1666(15) 0.5289(8)
N12K N -0.2862(13) 0.1666(15) 0.5289(8)
N12B N -0.2862(13) 0.1666(15) 0.4711(8)
N13K N -0.3173(12) 0.0014(14) 0.5487(6)
N13B N -0.3173(12) 0.0014(14) 0.4513(6)
N13I N 0.0014(14) 0.3173(12) 0.5487(6)
N13H N -0.0014(14) -0.3173(12) 0.5487(6)
N13A N -0.0014(14) -0.3173(12) 0.4513(6)
N13C N 0.3173(12) -0.0014(14) 0.4513(6)
N13J N 0.3173(12) -0.0014(14) 0.5487(6)
C25K C -0.3603(17) 0.0182(16) 0.5829(8)
C25B C -0.3603(17) 0.0182(16) 0.4171(8)
C25I C 0.0182(16) 0.3603(17) 0.5829(8)
C25H C -0.0182(16) -0.3603(17) 0.5829(8)
C25A C -0.0182(16) -0.3603(17) 0.4171(8)
C25C C 0.3603(17) -0.0182(16) 0.4171(8)
C25J C 0.3603(17) -0.0182(16) 0.5829(8)
C26K C -0.4147(19) 0.098(2) 0.5883(9)
C26B C -0.4147(19) 0.098(2) 0.4117(9)
C26I C 0.098(2) 0.4147(19) 0.5883(9)
C26A C -0.098(2) -0.4147(19) 0.4117(9)
C26H C -0.098(2) -0.4147(19) 0.5883(9)
C26C C 0.4147(19) -0.098(2) 0.4117(9)
C26J C 0.4147(19) -0.098(2) 0.5883(9)
H31K H -0.4488 0.1045 0.5654
H31B H -0.4488 0.1045 0.4346
H31I H 0.1045 0.4488 0.5654
H31A H -0.1045 -0.4488 0.4346
H31H H -0.1045 -0.4488 0.5654
H31C H 0.4488 -0.1045 0.4346
H31J H 0.4488 -0.1045 0.5654
H32K H -0.4475 0.0926 0.6117
H32B H -0.4475 0.0926 0.3883
H32I H 0.0926 0.4475 0.6117
H32A H -0.0926 -0.4475 0.3883
H32H H -0.0926 -0.4475 0.6117
H32C H 0.4475 -0.0926 0.3883
H32J H 0.4475 -0.0926 0.6117
H33K H -0.3803 0.1442 0.5909
H33B H -0.3803 0.1442 0.4091
H33I H 0.1442 0.3803 0.5909
H33A H -0.1442 -0.3803 0.4091
H33H H -0.1442 -0.3803 0.5909
H33C H 0.3803 -0.1442 0.4091
H33J H 0.3803 -0.1442 0.5909
C27K C -0.3475(16) -0.0435(16) 0.6068(9)
C27B C -0.3475(16) -0.0435(16) 0.3932(9)
C27I C -0.0435(16) 0.3475(16) 0.6068(9)
C27H C 0.0435(16) -0.3475(16) 0.6068(9)
C27A C 0.0435(16) -0.3475(16) 0.3932(9)
C27C C 0.3475(16) 0.0435(16) 0.3932(9)
C27J C 0.3475(16) 0.0435(16) 0.6068(9)
H34K H -0.3708 -0.0502 0.6317
H34B H -0.3708 -0.0502 0.3683
H34I H -0.0502 0.3708 0.6317
H34A H 0.0502 -0.3708 0.3683
H34H H 0.0502 -0.3708 0.6317
H34C H 0.3708 0.0502 0.3683
H34J H 0.3708 0.0502 0.6317
N14B N -0.0941(13) 0.2970(17) 0.4100(8)
N14H N -0.2970(17) -0.0941(13) 0.5900(8)
N14A N -0.2970(17) -0.0941(13) 0.4100(8)
N14K N -0.0941(13) 0.2970(17) 0.5900(8)
N14J N 0.0941(13) -0.2970(17) 0.5900(8)
N14C N 0.0941(13) -0.2970(17) 0.4100(8)
N14I N 0.2970(17) 0.0941(13) 0.5900(8)
C28K C -0.2835(18) -0.0606(17) 0.5582(8)
C28B C -0.2835(18) -0.0606(17) 0.4418(8)
C28I C -0.0606(17) 0.2835(18) 0.5582(8)
C28A C 0.0606(17) -0.2835(18) 0.4418(8)
C28H C 0.0606(17) -0.2835(18) 0.5582(8)
C28C C 0.2835(18) 0.0606(17) 0.4418(8)
C28J C 0.2835(18) 0.0606(17) 0.5582(8)
H35K H -0.2383 -0.0309 0.5657
H35B H -0.2383 -0.0309 0.4343
H35I H -0.0309 0.2383 0.5657
H35A H 0.0309 -0.2383 0.4343
H35H H 0.0309 -0.2383 0.5657
H35C H 0.2383 0.0309 0.4343
H35J H 0.2383 0.0309 0.5657
loop_
_geom_bond_atom_site_label_1
_geom_bond_atom_site_label_2
_geom_bond_site_symmetry_1
_geom_bond_site_symmetry_2
Pd1 N12 1_555 1_555
Pd2 N4 1_555 1_555
B1 N1 1_555 1_555
N1 C1 1_555 1_555
C1 H1 1_555 1_555
C2 C1 1_555 1_555
C3 C2 1_555 1_555
H2 C3 1_555 1_555
H3 C3 1_555 1_555
H4 C3 1_555 1_555
N2 C2 1_555 1_555
C4 N1 1_555 1_555
H5 C4 1_555 1_555
N3 B1 1_555 1_555
C5 N3 1_555 1_555
H6 C5 1_555 1_555
C6 C5 1_555 1_555
C7 C6 1_555 1_555
H7 C7 1_555 1_555
H8 C7 1_555 1_555
H9 C7 1_555 1_555
N4 C6 1_555 1_555
C8 N3 1_555 1_555
H10 C8 1_555 1_555
C13 H16 1_555 1_555
N11 B1 1_555 1_555
C22 N11 1_555 1_555
H27 C22 1_555 1_555
C23 C22 1_555 1_555
C24 C23 1_555 1_555
N12 C13 1_555 1_555
N13 Pd1 1_555 1_555
C25 N13 1_555 1_555
C26 C25 1_555 1_555
H31 C26 1_555 1_555
H32 C26 1_555 1_555
H33 C26 1_555 1_555
C27 C25 1_555 1_555
H34 C27 1_555 1_555
N14 B1 1_555 1_555
C28 N13 1_555 1_555
H35 C28 1_555 1_555
N15 O1 1_555 1_555
O1 N15I 1_555 1_555
O2 N15 1_555 1_555
O3 H36 1_555 1_555
O5 H37 1_555 1_555
H38 O5 1_555 1_555
O6 H39 1_555 1_555
H40 O6 1_555 1_555
Pd1A N12A 1_555 1_555
Pd1C N12C 1_555 1_555
Pd1B N12K 1_555 1_555
Pd2H N4H 1_555 1_555
B1A N1A 1_555 1_555
B1H N1H 1_555 1_555
B1I N1I 1_555 1_555
B1B N1B 1_555 1_555
B1C N1C 1_555 1_555
B1J N1J 1_555 1_555
B1K N1K 1_555 1_555
N1A C1A 1_555 1_555
N1H C1H 1_555 1_555
N1I C1I 1_555 1_555
N1B C1B 1_555 1_555
N1C C1C 1_555 1_555
N1J C1J 1_555 1_555
N1K C1K 1_555 1_555
C1A H1A 1_555 1_555
C1H H1H 1_555 1_555
C1I H1I 1_555 1_555
C1B H1B 1_555 1_555
C1C H1C 1_555 1_555
C1J H1J 1_555 1_555
C1K H1K 1_555 1_555
C2A C1A 1_555 1_555
C2H C1H 1_555 1_555
C2I C1I 1_555 1_555
C2B C1B 1_555 1_555
C2C C1C 1_555 1_555
C2J C1J 1_555 1_555
C2K C1K 1_555 1_555
C3A C2A 1_555 1_555
C3H C2H 1_555 1_555
C3I C2I 1_555 1_555
C3B C2B 1_555 1_555
C3C C2C 1_555 1_555
C3J C2J 1_555 1_555
C3K C2K 1_555 1_555
H2A C3A 1_555 1_555
H2H C3H 1_555 1_555
H2I C3I 1_555 1_555
H2B C3B 1_555 1_555
H2C C3C 1_555 1_555
H2J C3J 1_555 1_555
H2K C3K 1_555 1_555
H3A C3A 1_555 1_555
H3H C3H 1_555 1_555
H3I C3I 1_555 1_555
H3B C3B 1_555 1_555
H3C C3C 1_555 1_555
H3J C3J 1_555 1_555
H3K C3K 1_555 1_555
H4A C3A 1_555 1_555
H4H C3H 1_555 1_555
H4I C3I 1_555 1_555
H4B C3B 1_555 1_555
H4C C3C 1_555 1_555
H4J C3J 1_555 1_555
H4K C3K 1_555 1_555
N2A C2A 1_555 1_555
N2H C2H 1_555 1_555
N2I C2I 1_555 1_555
N2B C2B 1_555 1_555
N2C C2C 1_555 1_555
N2J C2J 1_555 1_555
N2K C2K 1_555 1_555
C4A N1A 1_555 1_555
C4H N1H 1_555 1_555
C4I N1I 1_555 1_555
C4B N1B 1_555 1_555
C4C N1C 1_555 1_555
C4J N1J 1_555 1_555
C4K N1K 1_555 1_555
H5A C4A 1_555 1_555
H5H C4H 1_555 1_555
H5I C4I 1_555 1_555
H5B C4B 1_555 1_555
H5C C4C 1_555 1_555
H5J C4J 1_555 1_555
H5K C4K 1_555 1_555
N3A B1A 1_555 1_555
N3H B1H 1_555 1_555
N3I B1I 1_555 1_555
N3B B1B 1_555 1_555
N3C B1C 1_555 1_555
N3J B1J 1_555 1_555
N3K B1K 1_555 1_555
C5A N3A 1_555 1_555
C5H N3H 1_555 1_555
C5I N3I 1_555 1_555
C5B N3B 1_555 1_555
C5C N3C 1_555 1_555
C5J N3J 1_555 1_555
C5K N3K 1_555 1_555
H6H C5H 1_555 1_555
H6B C5B 1_555 1_555
H6J C5J 1_555 1_555
H6K C5K 1_555 1_555
H6C C5C 1_555 1_555
H6I C5I 1_555 1_555
H6A C5A 1_555 1_555
C6A C5A 1_555 1_555
C6H C5H 1_555 1_555
C6I C5I 1_555 1_555
C6B C5B 1_555 1_555
C6C C5C 1_555 1_555
C6J C5J 1_555 1_555
C6K C5K 1_555 1_555
C7H C6H 1_555 1_555
C7B C6B 1_555 1_555
C7J C6J 1_555 1_555
C7K C6K 1_555 1_555
C7C C6C 1_555 1_555
C7I C6I 1_555 1_555
C7A C6A 1_555 1_555
H7H C7H 1_555 1_555
H7B C7B 1_555 1_555
H7J C7J 1_555 1_555
H7K C7K 1_555 1_555
H7C C7C 1_555 1_555
H7I C7I 1_555 1_555
H7A C7A 1_555 1_555
H8H C7H 1_555 1_555
H8B C7B 1_555 1_555
H8J C7J 1_555 1_555
H8K C7K 1_555 1_555
H8C C7C 1_555 1_555
H8I C7I 1_555 1_555
H8A C7A 1_555 1_555
H9H C7H 1_555 1_555
H9B C7B 1_555 1_555
H9J C7J 1_555 1_555
H9K C7K 1_555 1_555
H9C C7C 1_555 1_555
H9I C7I 1_555 1_555
H9A C7A 1_555 1_555
N4A Pd2 1_555 1_555
N4H C6H 1_555 1_555
N4I Pd2H 1_555 1_555
N4B Pd2 1_555 1_555
N4C Pd2 1_555 1_555
N4J Pd2H 1_555 1_555
N4K Pd2H 1_555 1_555
C8K N3K 1_555 1_555
C8J N3J 1_555 1_555
C8C N3C 1_555 1_555
C8B N3B 1_555 1_555
C8I N3I 1_555 1_555
C8H N3H 1_555 1_555
C8A N3A 1_555 1_555
H10K C8K 1_555 1_555
H10J C8J 1_555 1_555
H10C C8C 1_555 1_555
H10B C8B 1_555 1_555
H10I C8I 1_555 1_555
H10H C8H 1_555 1_555
H10A C8A 1_555 1_555
C13A H16A 1_555 1_555
C13H H16H 1_555 1_555
C13I H16I 1_555 1_555
C13C H16C 1_555 1_555
C13J H16J 1_555 1_555
C13K H16K 1_555 1_555
C13B H16B 1_555 1_555
N11A B1A 1_555 1_555
N11H B1H 1_555 1_555
N11I B1I 1_555 1_555
N11C B1C 1_555 1_555
N11J B1J 1_555 1_555
N11K B1K 1_555 1_555
N11B B1B 1_555 1_555
C22B N11B 1_555 1_555
C22K N11K 1_555 1_555
C22J N11J 1_555 1_555
C22C N11C 1_555 1_555
C22I N11I 1_555 1_555
C22H N11H 1_555 1_555
C22A N11A 1_555 1_555
H27B C22B 1_555 1_555
H27K C22K 1_555 1_555
H27J C22J 1_555 1_555
H27C C22C 1_555 1_555
H27I C22I 1_555 1_555
H27H C22H 1_555 1_555
H27A C22A 1_555 1_555
C23B C22B 1_555 1_555
C23K C22K 1_555 1_555
C23J C22J 1_555 1_555
C23C C22C 1_555 1_555
C23I C23 1_555 1_555
C23H C22H 1_555 1_555
C23A C22A 1_555 1_555
C24B C23B 1_555 1_555
C24C C23J 1_555 1_555
C24A C23H 1_555 1_555
N12A C13A 1_555 1_555
N12H Pd1A 1_555 1_555
N12I Pd1 1_555 1_555
N12C C13C 1_555 1_555
N12J Pd1C 1_555 1_555
N12K C13K 1_555 1_555
N12B Pd1B 1_555 1_555
N13K Pd1B 1_555 1_555
N13B Pd1B 1_555 1_555
N13I Pd1 1_555 1_555
N13H Pd1A 1_555 1_555
N13A Pd1A 1_555 1_555
N13C Pd1C 1_555 1_555
N13J Pd1C 1_555 1_555
C25K N13K 1_555 1_555
C25B N13B 1_555 1_555
C25I N13I 1_555 1_555
C25H N13H 1_555 1_555
C25A N13A 1_555 1_555
C25C N13C 1_555 1_555
C25J N13J 1_555 1_555
C26K C25K 1_555 1_555
C26B C25B 1_555 1_555
C26I C25I 1_555 1_555
C26A C25A 1_555 1_555
C26H C25H 1_555 1_555
C26C C25C 1_555 1_555
C26J C25J 1_555 1_555
H31K C26K 1_555 1_555
H31B C26B 1_555 1_555
H31I C26I 1_555 1_555
H31A C26A 1_555 1_555
H31H C26H 1_555 1_555
H31C C26C 1_555 1_555
H31J C26J 1_555 1_555
H32K C26K 1_555 1_555
H32B C26B 1_555 1_555
H32I C26I 1_555 1_555
H32A C26A 1_555 1_555
H32H C26H 1_555 1_555
H32C C26C 1_555 1_555
H32J C26J 1_555 1_555
H33K C26K 1_555 1_555
H33B C26B 1_555 1_555
H33I C26I 1_555 1_555
H33A C26A 1_555 1_555
H33H C26H 1_555 1_555
H33C C26C 1_555 1_555
H33J C26J 1_555 1_555
C27K C25K 1_555 1_555
C27B C25B 1_555 1_555
C27I C25I 1_555 1_555
C27H C25H 1_555 1_555
C27A C25A 1_555 1_555
C27C N14 1_555 1_555
C27J C25J 1_555 1_555
H34K C27K 1_555 1_555
H34B C27B 1_555 1_555
H34I C27I 1_555 1_555
H34A C27A 1_555 1_555
H34H C27H 1_555 1_555
H34C C27C 1_555 1_555
H34J C27J 1_555 1_555
N14B C27 1_555 1_555
N14H B1H 1_555 1_555
N14A B1A 1_555 1_555
N14K B1K 1_555 1_555
N14J B1J 1_555 1_555
N14C B1C 1_555 1_555
N14I B1I 1_555 1_555
C28K N13K 1_555 1_555
C28B N13B 1_555 1_555
C28I N13I 1_555 1_555
C28A N13A 1_555 1_555
C28H N13H 1_555 1_555
C28C N14 1_555 1_555
C28J N13J 1_555 1_555
H35K C28K 1_555 1_555
H35B C28B 1_555 1_555
H35I C28I 1_555 1_555
H35A C28A 1_555 1_555
H35H C28H 1_555 1_555
H35C C28C 1_555 1_555
H35J C28J 1_555 1_555
N15I O2I 1_555 1_555
N15J O1C 1_555 1_555
N15C O2 1_555 1_555
N15A O1A 1_555 1_555
N15H O1A 1_555 1_555
N15K O1B 1_555 1_555
N15B O1B 1_555 1_555
O1C N15C 1_555 1_555
O2I N15J 1_555 1_555
O2C N15C 1_555 1_555
O2H N15H 1_555 1_555
O2B N15 1_555 1_555
O2A N15A 1_555 1_555
O2K N15I 1_555 1_555
O2J N15J 1_555 1_555
N2 C4 1_555 1_555
N4 C8 1_555 1_555
C13 N11 1_555 1_555
C23 N12 1_555 1_555
C24 C23I 1_555 1_555
C28 N14B 1_555 1_555
B1B N14B 1_555 1_555
N2A C4A 1_555 1_555
N2H C4H 1_555 1_555
N2I C4I 1_555 1_555
N2B C4B 1_555 1_555
N2C C4C 1_555 1_555
N2J C4J 1_555 1_555
N2K C4K 1_555 1_555
C6A N4A 1_555 1_555
C6I N4I 1_555 1_555
C6B N4B 1_555 1_555
C6C N4C 1_555 1_555
C6J N4J 1_555 1_555
C6K N4K 1_555 1_555
N4A C8A 1_555 1_555
N4H C8H 1_555 1_555
N4I C8I 1_555 1_555
N4B C8B 1_555 1_555
N4C C8C 1_555 1_555
N4J C8J 1_555 1_555
N4K C8K 1_555 1_555
C13A N11A 1_555 1_555
C13H N11H 1_555 1_555
C13H N12H 1_555 1_555
C13I N11I 1_555 1_555
C13I N12I 1_555 1_555
C13C N11C 1_555 1_555
C13J N11J 1_555 1_555
C13J N12J 1_555 1_555
C13K N11K 1_555 1_555
C13B N11B 1_555 1_555
C13B N12B 1_555 1_555
C22I C23I 1_555 1_555
C23B C23K 1_555 1_555
C23B N12B 1_555 1_555
C23K C24B 1_555 1_555
C23K N12K 1_555 1_555
C23J C23C 1_555 1_555
C23J N12J 1_555 1_555
C23C C24C 1_555 1_555
C23C N12C 1_555 1_555
C23I N12I 1_555 1_555
C23H C23A 1_555 1_555
C23H N12H 1_555 1_555
C23A C24A 1_555 1_555
C23A N12A 1_555 1_555
N13C C28C 1_555 1_555
C25C C27C 1_555 1_555
C27K N14H 1_555 1_555
C27B N14A 1_555 1_555
C27I N14K 1_555 1_555
C27H N14J 1_555 1_555
C27A N14C 1_555 1_555
C27J N14I 1_555 1_555
N14H C28K 1_555 1_555
N14A C28B 1_555 1_555
N14K C28I 1_555 1_555
N14J C28H 1_555 1_555
N14C C28A 1_555 1_555
N14I C28J 1_555 1_555
N15A O2C 1_555 1_555
N15H O2J 1_555 1_555
N15K O2H 1_555 1_555
N15K O2K 1_555 1_555
N15B O2B 1_555 1_555
N15B O2A 1_555 1_555

#END
