
#######################################################################
#
#                 Cambridge Crystallographic Data Centre
#                                CCDC 
#
#######################################################################
#
# If this CIF has been generated from an entry in the Cambridge 
# Structural Database, then it will include bibliographic, chemical, 
# crystal, experimental, refinement or atomic coordinate data resulting 
# from the CCDC's data processing and validation procedures.
#
#######################################################################

data_WULQUQ01
_chemical_name_common            MOP-101
_chemical_formula_moiety         'C128 H160 B8 N64 Pd6 4+,4(N1 O3 1-),14(H2 O1)'
_chemical_name_systematic        
"octakis(\m~3~-tetrakis(4-Methylimidazolyl)borate-N,N',N'')-hexa-palladium(ii) tetranitrate tetradecahydrate"
_symmetry_cell_setting           tetragonal
_symmetry_space_group_name_H-M   'P 4/m n c'
_symmetry_Int_Tables_number      128
_space_group_name_Hall           '-P 4 2n'
loop_
_symmetry_equiv_pos_site_id
_symmetry_equiv_pos_as_xyz
1 x,y,z
2 -x,-y,z
3 -y,x,z
4 y,-x,z
5 1/2-x,1/2+y,1/2-z
6 1/2+x,1/2-y,1/2-z
7 1/2+y,1/2+x,1/2-z
8 1/2-y,1/2-x,1/2-z
9 -x,-y,-z
10 x,y,-z
11 y,-x,-z
12 -y,x,-z
13 1/2+x,1/2-y,1/2+z
14 1/2-x,1/2+y,1/2+z
15 1/2-y,1/2-x,1/2+z
16 1/2+y,1/2+x,1/2+z
_cell_length_a                   16.9134(3)
_cell_length_b                   16.9134(3)
_cell_length_c                   34.3440(10)
_cell_angle_alpha                90
_cell_angle_beta                 90
_cell_angle_gamma                90
_cell_volume                     9824.55
_exptl_crystal_colour            colorless
_exptl_crystal_description       'square plate'
_cell_formula_units_Z            2
loop_
_atom_site_label
_atom_site_type_symbol
_atom_site_fract_x
_atom_site_fract_y
_atom_site_fract_z
Pd1 Pd 0.06384(6) 0.31063(5) 0.5000
Pd2 Pd 0.0000 0.0000 0.34701(3)
B1 B 0.2597(7) 0.1710(7) 0.3921(3)
N1 N 0.3218(6) 0.2067(5) 0.3646(3)
C1 C 0.3089(15) 0.2232(11) 0.3247(7)
H1 H 0.2585 0.2223 0.3125
C2 C 0.3739(14) 0.2394(11) 0.3072(7)
C3 C 0.3831(16) 0.2694(15) 0.2641(8)
H2 H 0.3914 0.2241 0.2467
H3 H 0.4285 0.3051 0.2623
H4 H 0.3350 0.2976 0.2562
N2 N 0.4349(16) 0.2365(14) 0.3311(8)
C4 C 0.399(2) 0.2066(16) 0.3666(10)
H5 H 0.4275 0.1890 0.3886
N3 N 0.1883(9) 0.1521(11) 0.3691(4)
C5 C 0.1512(13) 0.1953(13) 0.3400(6)
H6 H 0.1684 0.2450 0.3302
C6 C 0.0861(12) 0.1548(12) 0.3277(6)
C7 C 0.035(2) 0.150(3) 0.2929(10)
H7 H 0.0635 0.1692 0.2701
H8 H -0.0125 0.1829 0.2970
H9 H 0.0185 0.0951 0.2887
N4 N 0.0815(9) 0.0867(10) 0.3495(4)
C8 C 0.1409(6) 0.0904(6) 0.3729(3)
H10 H 0.1503 0.0507 0.3919
C13 C 0.1681(11) 0.2349(11) 0.4419(5)
H16 H 0.1230 0.2070 0.4329
N11 N 0.2366(9) 0.2272(8) 0.4268(5)
C22 C 0.2825(13) 0.2778(12) 0.4492(6)
H27 H 0.3373 0.2875 0.4457
C23 C 0.2386(12) 0.3094(11) 0.4756(6)
C24 C 0.2659(12) 0.3732(12) 0.5000
H28 H 0.2615 0.3577 0.4726
H29 H 0.2334 0.4203 0.4953
H30 H 0.3212 0.3850 0.4939
N12 N 0.1656(9) 0.2854(9) 0.4714(5)
N13 N 0.0023(10) 0.3166(8) 0.4508(4)
C25 C 0.0183(11) 0.3596(11) 0.4168(6)
C26 C 0.1018(17) 0.4142(13) 0.4117(6)
H31 H 0.1081 0.4488 0.4344
H32 H 0.0980 0.4463 0.3881
H33 H 0.1476 0.3788 0.4098
C27 C -0.0438(10) 0.3479(11) 0.3928(6)
H34 H -0.0507 0.3707 0.3678
N14 N 0.2979(11) 0.0943(8) 0.4108(5)
C28 C -0.0606(11) 0.2836(12) 0.4422(6)
H35 H -0.0319 0.2375 0.4351
Pd1A Pd -0.06384(6) -0.31063(5) 0.5000
Pd1C Pd 0.31063(5) -0.06384(6) 0.5000
Pd1B Pd -0.31063(5) 0.06384(6) 0.5000
Pd2H Pd 0.0000 0.0000 0.65299(3)
B1A B -0.2597(7) -0.1710(7) 0.3921(3)
B1H B -0.2597(7) -0.1710(7) 0.6079(3)
B1I B 0.2597(7) 0.1710(7) 0.6079(3)
B1B B -0.1710(7) 0.2597(7) 0.3921(3)
B1C B 0.1710(7) -0.2597(7) 0.3921(3)
B1J B 0.1710(7) -0.2597(7) 0.6079(3)
B1K B -0.1710(7) 0.2597(7) 0.6079(3)
N1A N -0.3218(6) -0.2067(5) 0.3646(3)
N1H N -0.3218(6) -0.2067(5) 0.6354(3)
N1I N 0.3218(6) 0.2067(5) 0.6354(3)
N1B N -0.2067(5) 0.3218(6) 0.3646(3)
N1C N 0.2067(5) -0.3218(6) 0.3646(3)
N1J N 0.2067(5) -0.3218(6) 0.6354(3)
N1K N -0.2067(5) 0.3218(6) 0.6354(3)
C1A C -0.3089(15) -0.2232(11) 0.3247(7)
C1H C -0.3089(15) -0.2232(11) 0.6753(7)
C1I C 0.3089(15) 0.2232(11) 0.6753(7)
C1B C -0.2232(11) 0.3089(15) 0.3247(7)
C1C C 0.2232(11) -0.3089(15) 0.3247(7)
C1J C 0.2232(11) -0.3089(15) 0.6753(7)
C1K C -0.2232(11) 0.3089(15) 0.6753(7)
H1A H -0.2585 -0.2223 0.3125
H1H H -0.2585 -0.2223 0.6875
H1I H 0.2585 0.2223 0.6875
H1B H -0.2223 0.2585 0.3125
H1C H 0.2223 -0.2585 0.3125
H1J H 0.2223 -0.2585 0.6875
H1K H -0.2223 0.2585 0.6875
C2A C -0.3739(14) -0.2394(11) 0.3072(7)
C2H C -0.3739(14) -0.2394(11) 0.6928(7)
C2I C 0.3739(14) 0.2394(11) 0.6928(7)
C2B C -0.2394(11) 0.3739(14) 0.3072(7)
C2C C 0.2394(11) -0.3739(14) 0.3072(7)
C2J C 0.2394(11) -0.3739(14) 0.6928(7)
C2K C -0.2394(11) 0.3739(14) 0.6928(7)
C3A C -0.3831(16) -0.2694(15) 0.2641(8)
C3H C -0.3831(16) -0.2694(15) 0.7359(8)
C3I C 0.3831(16) 0.2694(15) 0.7359(8)
C3B C -0.2694(15) 0.3831(16) 0.2641(8)
C3C C 0.2694(15) -0.3831(16) 0.2641(8)
C3J C 0.2694(15) -0.3831(16) 0.7359(8)
C3K C -0.2694(15) 0.3831(16) 0.7359(8)
H2A H -0.3914 -0.2241 0.2467
H2H H -0.3914 -0.2241 0.7533
H2I H 0.3914 0.2241 0.7533
H2B H -0.2241 0.3914 0.2467
H2C H 0.2241 -0.3914 0.2467
H2J H 0.2241 -0.3914 0.7533
H2K H -0.2241 0.3914 0.7533
H3A H -0.4285 -0.3051 0.2623
H3H H -0.4285 -0.3051 0.7377
H3I H 0.4285 0.3051 0.7377
H3B H -0.3051 0.4285 0.2623
H3C H 0.3051 -0.4285 0.2623
H3J H 0.3051 -0.4285 0.7377
H3K H -0.3051 0.4285 0.7377
H4A H -0.3350 -0.2976 0.2562
H4H H -0.3350 -0.2976 0.7438
H4I H 0.3350 0.2976 0.7438
H4B H -0.2976 0.3350 0.2562
H4C H 0.2976 -0.3350 0.2562
H4J H 0.2976 -0.3350 0.7438
H4K H -0.2976 0.3350 0.7438
N2A N -0.4349(16) -0.2365(14) 0.3311(8)
N2H N -0.4349(16) -0.2365(14) 0.6689(8)
N2I N 0.4349(16) 0.2365(14) 0.6689(8)
N2B N -0.2365(14) 0.4349(16) 0.3311(8)
N2C N 0.2365(14) -0.4349(16) 0.3311(8)
N2J N 0.2365(14) -0.4349(16) 0.6689(8)
N2K N -0.2365(14) 0.4349(16) 0.6689(8)
C4A C -0.399(2) -0.2066(16) 0.3666(10)
C4H C -0.399(2) -0.2066(16) 0.6334(10)
C4I C 0.399(2) 0.2066(16) 0.6334(10)
C4B C -0.2066(16) 0.399(2) 0.3666(10)
C4C C 0.2066(16) -0.399(2) 0.3666(10)
C4J C 0.2066(16) -0.399(2) 0.6334(10)
C4K C -0.2066(16) 0.399(2) 0.6334(10)
H5A H -0.4275 -0.1890 0.3886
H5H H -0.4275 -0.1890 0.6114
H5I H 0.4275 0.1890 0.6114
H5B H -0.1890 0.4275 0.3886
H5C H 0.1890 -0.4275 0.3886
H5J H 0.1890 -0.4275 0.6114
H5K H -0.1890 0.4275 0.6114
N3A N -0.1883(9) -0.1521(11) 0.3691(4)
N3H N -0.1883(9) -0.1521(11) 0.6309(4)
N3I N 0.1883(9) 0.1521(11) 0.6309(4)
N3B N -0.1521(11) 0.1883(9) 0.3691(4)
N3C N 0.1521(11) -0.1883(9) 0.3691(4)
N3J N 0.1521(11) -0.1883(9) 0.6309(4)
N3K N -0.1521(11) 0.1883(9) 0.6309(4)
C5A C -0.1512(13) -0.1953(13) 0.3400(6)
C5H C -0.1512(13) -0.1953(13) 0.6600(6)
C5I C 0.1512(13) 0.1953(13) 0.6600(6)
C5B C -0.1953(13) 0.1512(13) 0.3400(6)
C5C C 0.1953(13) -0.1512(13) 0.3400(6)
C5J C 0.1953(13) -0.1512(13) 0.6600(6)
C5K C -0.1953(13) 0.1512(13) 0.6600(6)
H6H H -0.1684 -0.2450 0.6698
H6B H -0.2450 0.1684 0.3302
H6J H 0.2450 -0.1684 0.6698
H6K H -0.2450 0.1684 0.6698
H6C H 0.2450 -0.1684 0.3302
H6I H 0.1684 0.2450 0.6698
H6A H -0.1684 -0.2450 0.3302
C6A C -0.0861(12) -0.1548(12) 0.3277(6)
C6H C -0.0861(12) -0.1548(12) 0.6723(6)
C6I C 0.0861(12) 0.1548(12) 0.6723(6)
C6B C -0.1548(12) 0.0861(12) 0.3277(6)
C6C C 0.1548(12) -0.0861(12) 0.3277(6)
C6J C 0.1548(12) -0.0861(12) 0.6723(6)
C6K C -0.1548(12) 0.0861(12) 0.6723(6)
C7H C -0.035(2) -0.150(3) 0.7071(10)
C7B C -0.150(3) 0.035(2) 0.2929(10)
C7J C 0.150(3) -0.035(2) 0.7071(10)
C7K C -0.150(3) 0.035(2) 0.7071(10)
C7C C 0.150(3) -0.035(2) 0.2929(10)
C7I C 0.035(2) 0.150(3) 0.7071(10)
C7A C -0.035(2) -0.150(3) 0.2929(10)
H7H H -0.0635 -0.1692 0.7299
H7B H -0.1692 0.0635 0.2701
H7J H 0.1692 -0.0635 0.7299
H7K H -0.1692 0.0635 0.7299
H7C H 0.1692 -0.0635 0.2701
H7I H 0.0635 0.1692 0.7299
H7A H -0.0635 -0.1692 0.2701
H8H H 0.0125 -0.1829 0.7030
H8B H -0.1829 -0.0125 0.2970
H8J H 0.1829 0.0125 0.7030
H8K H -0.1829 -0.0125 0.7030
H8C H 0.1829 0.0125 0.2970
H8I H -0.0125 0.1829 0.7030
H8A H 0.0125 -0.1829 0.2970
H9H H -0.0185 -0.0951 0.7113
H9B H -0.0951 0.0185 0.2887
H9J H 0.0951 -0.0185 0.7113
H9K H -0.0951 0.0185 0.7113
H9C H 0.0951 -0.0185 0.2887
H9I H 0.0185 0.0951 0.7113
H9A H -0.0185 -0.0951 0.2887
N4A N -0.0815(9) -0.0867(10) 0.3495(4)
N4H N -0.0815(9) -0.0867(10) 0.6505(4)
N4I N 0.0815(9) 0.0867(10) 0.6505(4)
N4B N -0.0867(10) 0.0815(9) 0.3495(4)
N4C N 0.0867(10) -0.0815(9) 0.3495(4)
N4J N 0.0867(10) -0.0815(9) 0.6505(4)
N4K N -0.0867(10) 0.0815(9) 0.6505(4)
C8K C -0.0904(6) 0.1409(6) 0.6271(3)
C8J C 0.0904(6) -0.1409(6) 0.6271(3)
C8C C 0.0904(6) -0.1409(6) 0.3729(3)
C8B C -0.0904(6) 0.1409(6) 0.3729(3)
C8I C 0.1409(6) 0.0904(6) 0.6271(3)
C8H C -0.1409(6) -0.0904(6) 0.6271(3)
C8A C -0.1409(6) -0.0904(6) 0.3729(3)
H10K H -0.0507 0.1503 0.6081
H10J H 0.0507 -0.1503 0.6081
H10C H 0.0507 -0.1503 0.3919
H10B H -0.0507 0.1503 0.3919
H10I H 0.1503 0.0507 0.6081
H10H H -0.1503 -0.0507 0.6081
H10A H -0.1503 -0.0507 0.3919
C13A C -0.1681(11) -0.2349(11) 0.4419(5)
C13H C -0.1681(11) -0.2349(11) 0.5581(5)
C13I C 0.1681(11) 0.2349(11) 0.5581(5)
C13C C 0.2349(11) -0.1681(11) 0.4419(5)
C13J C 0.2349(11) -0.1681(11) 0.5581(5)
C13K C -0.2349(11) 0.1681(11) 0.5581(5)
C13B C -0.2349(11) 0.1681(11) 0.4419(5)
H16A H -0.1230 -0.2070 0.4329
H16H H -0.1230 -0.2070 0.5671
H16I H 0.1230 0.2070 0.5671
H16C H 0.2070 -0.1230 0.4329
H16J H 0.2070 -0.1230 0.5671
H16K H -0.2070 0.1230 0.5671
H16B H -0.2070 0.1230 0.4329
N11A N -0.2366(9) -0.2272(8) 0.4268(5)
N11H N -0.2366(9) -0.2272(8) 0.5732(5)
N11I N 0.2366(9) 0.2272(8) 0.5732(5)
N11C N 0.2272(8) -0.2366(9) 0.4268(5)
N11J N 0.2272(8) -0.2366(9) 0.5732(5)
N11K N -0.2272(8) 0.2366(9) 0.5732(5)
N11B N -0.2272(8) 0.2366(9) 0.4268(5)
C22B C -0.2778(12) 0.2825(13) 0.4492(6)
C22K C -0.2778(12) 0.2825(13) 0.5508(6)
C22J C 0.2778(12) -0.2825(13) 0.5508(6)
C22C C 0.2778(12) -0.2825(13) 0.4492(6)
C22I C 0.2825(13) 0.2778(12) 0.5508(6)
C22H C -0.2825(13) -0.2778(12) 0.5508(6)
C22A C -0.2825(13) -0.2778(12) 0.4492(6)
H27B H -0.2875 0.3373 0.4457
H27K H -0.2875 0.3373 0.5543
H27J H 0.2875 -0.3373 0.5543
H27C H 0.2875 -0.3373 0.4457
H27I H 0.3373 0.2875 0.5543
H27H H -0.3373 -0.2875 0.5543
H27A H -0.3373 -0.2875 0.4457
C23B C -0.3094(11) 0.2386(12) 0.4756(6)
C23K C -0.3094(11) 0.2386(12) 0.5244(6)
C23J C 0.3094(11) -0.2386(12) 0.5244(6)
C23C C 0.3094(11) -0.2386(12) 0.4756(6)
C23I C 0.2386(12) 0.3094(11) 0.5244(6)
C23H C -0.2386(12) -0.3094(11) 0.5244(6)
C23A C -0.2386(12) -0.3094(11) 0.4756(6)
C24B C -0.3732(12) 0.2659(12) 0.5000
C24C C 0.3732(12) -0.2659(12) 0.5000
C24A C -0.2659(12) -0.3732(12) 0.5000
H28B H -0.3577 0.2615 0.4726
H28K H -0.3577 0.2615 0.5274
H28J H 0.3577 -0.2615 0.5274
H28C H 0.3577 -0.2615 0.4726
H28I H 0.2615 0.3577 0.5274
H28A H -0.2615 -0.3577 0.4726
H28H H -0.2615 -0.3577 0.5274
H29K H -0.4203 0.2334 0.5047
H29B H -0.4203 0.2334 0.4953
H29C H 0.4203 -0.2334 0.4953
H29J H 0.4203 -0.2334 0.5047
H29I H 0.2334 0.4203 0.5047
H29H H -0.2334 -0.4203 0.5047
H29A H -0.2334 -0.4203 0.4953
H30K H -0.3850 0.3212 0.5061
H30B H -0.3850 0.3212 0.4939
H30C H 0.3850 -0.3212 0.4939
H30J H 0.3850 -0.3212 0.5061
H30I H 0.3212 0.3850 0.5061
H30H H -0.3212 -0.3850 0.5061
H30A H -0.3212 -0.3850 0.4939
N12A N -0.1656(9) -0.2854(9) 0.4714(5)
N12H N -0.1656(9) -0.2854(9) 0.5286(5)
N12I N 0.1656(9) 0.2854(9) 0.5286(5)
N12C N 0.2854(9) -0.1656(9) 0.4714(5)
N12J N 0.2854(9) -0.1656(9) 0.5286(5)
N12K N -0.2854(9) 0.1656(9) 0.5286(5)
N12B N -0.2854(9) 0.1656(9) 0.4714(5)
N13K N -0.3166(8) 0.0023(10) 0.5492(4)
N13B N -0.3166(8) 0.0023(10) 0.4508(4)
N13I N 0.0023(10) 0.3166(8) 0.5492(4)
N13H N -0.0023(10) -0.3166(8) 0.5492(4)
N13A N -0.0023(10) -0.3166(8) 0.4508(4)
N13C N 0.3166(8) -0.0023(10) 0.4508(4)
N13J N 0.3166(8) -0.0023(10) 0.5492(4)
C25K C -0.3596(11) 0.0183(11) 0.5832(6)
C25B C -0.3596(11) 0.0183(11) 0.4168(6)
C25I C 0.0183(11) 0.3596(11) 0.5832(6)
C25H C -0.0183(11) -0.3596(11) 0.5832(6)
C25A C -0.0183(11) -0.3596(11) 0.4168(6)
C25C C 0.3596(11) -0.0183(11) 0.4168(6)
C25J C 0.3596(11) -0.0183(11) 0.5832(6)
C26K C -0.4142(13) 0.1018(17) 0.5883(6)
C26B C -0.4142(13) 0.1018(17) 0.4117(6)
C26I C 0.1018(17) 0.4142(13) 0.5883(6)
C26A C -0.1018(17) -0.4142(13) 0.4117(6)
C26H C -0.1018(17) -0.4142(13) 0.5883(6)
C26C C 0.4142(13) -0.1018(17) 0.4117(6)
C26J C 0.4142(13) -0.1018(17) 0.5883(6)
H31K H -0.4488 0.1081 0.5656
H31B H -0.4488 0.1081 0.4344
H31I H 0.1081 0.4488 0.5656
H31A H -0.1081 -0.4488 0.4344
H31H H -0.1081 -0.4488 0.5656
H31C H 0.4488 -0.1081 0.4344
H31J H 0.4488 -0.1081 0.5656
H32K H -0.4463 0.0980 0.6119
H32B H -0.4463 0.0980 0.3881
H32I H 0.0980 0.4463 0.6119
H32A H -0.0980 -0.4463 0.3881
H32H H -0.0980 -0.4463 0.6119
H32C H 0.4463 -0.0980 0.3881
H32J H 0.4463 -0.0980 0.6119
H33K H -0.3788 0.1476 0.5902
H33B H -0.3788 0.1476 0.4098
H33I H 0.1476 0.3788 0.5902
H33A H -0.1476 -0.3788 0.4098
H33H H -0.1476 -0.3788 0.5902
H33C H 0.3788 -0.1476 0.4098
H33J H 0.3788 -0.1476 0.5902
C27K C -0.3479(11) -0.0438(10) 0.6072(6)
C27B C -0.3479(11) -0.0438(10) 0.3928(6)
C27I C -0.0438(10) 0.3479(11) 0.6072(6)
C27H C 0.0438(10) -0.3479(11) 0.6072(6)
C27A C 0.0438(10) -0.3479(11) 0.3928(6)
C27C C 0.3479(11) 0.0438(10) 0.3928(6)
C27J C 0.3479(11) 0.0438(10) 0.6072(6)
H34K H -0.3707 -0.0507 0.6322
H34B H -0.3707 -0.0507 0.3678
H34I H -0.0507 0.3707 0.6322
H34A H 0.0507 -0.3707 0.3678
H34H H 0.0507 -0.3707 0.6322
H34C H 0.3707 0.0507 0.3678
H34J H 0.3707 0.0507 0.6322
N14B N -0.0943(8) 0.2979(11) 0.4108(5)
N14H N -0.2979(11) -0.0943(8) 0.5892(5)
N14A N -0.2979(11) -0.0943(8) 0.4108(5)
N14K N -0.0943(8) 0.2979(11) 0.5892(5)
N14J N 0.0943(8) -0.2979(11) 0.5892(5)
N14C N 0.0943(8) -0.2979(11) 0.4108(5)
N14I N 0.2979(11) 0.0943(8) 0.5892(5)
C28K C -0.2836(12) -0.0606(11) 0.5578(6)
C28B C -0.2836(12) -0.0606(11) 0.4422(6)
C28I C -0.0606(11) 0.2836(12) 0.5578(6)
C28A C 0.0606(11) -0.2836(12) 0.4422(6)
C28H C 0.0606(11) -0.2836(12) 0.5578(6)
C28C C 0.2836(12) 0.0606(11) 0.4422(6)
C28J C 0.2836(12) 0.0606(11) 0.5578(6)
H35K H -0.2375 -0.0319 0.5649
H35B H -0.2375 -0.0319 0.4351
H35I H -0.0319 0.2375 0.5649
H35A H 0.0319 -0.2375 0.4351
H35H H 0.0319 -0.2375 0.5649
H35C H 0.2375 0.0319 0.4351
H35J H 0.2375 0.0319 0.5649
loop_
_geom_bond_atom_site_label_1
_geom_bond_atom_site_label_2
_geom_bond_site_symmetry_1
_geom_bond_site_symmetry_2
Pd1 N12 1_555 1_555
Pd2 N4 1_555 1_555
B1 N1 1_555 1_555
N1 C1 1_555 1_555
C1 H1 1_555 1_555
C2 C1 1_555 1_555
C3 C2 1_555 1_555
H2 C3 1_555 1_555
H3 C3 1_555 1_555
H4 C3 1_555 1_555
N2 C2 1_555 1_555
C4 N1 1_555 1_555
H5 C4 1_555 1_555
N3 B1 1_555 1_555
C5 N3 1_555 1_555
H6 C5 1_555 1_555
C6 C5 1_555 1_555
C7 C6 1_555 1_555
H7 C7 1_555 1_555
H8 C7 1_555 1_555
H9 C7 1_555 1_555
N4 C6 1_555 1_555
C8 N3 1_555 1_555
H10 C8 1_555 1_555
C13 H16 1_555 1_555
N11 B1 1_555 1_555
C22 N11 1_555 1_555
H27 C22 1_555 1_555
C23 C22 1_555 1_555
C24 C23 1_555 1_555
H28 C23 1_555 1_555
H29 C24 1_555 1_555
H30 C24 1_555 1_555
N12 C13 1_555 1_555
N13 Pd1 1_555 1_555
C25 N13 1_555 1_555
C26 C25 1_555 1_555
H31 C26 1_555 1_555
H32 C26 1_555 1_555
H33 C26 1_555 1_555
C27 C25 1_555 1_555
H34 C27 1_555 1_555
N14 B1 1_555 1_555
C28 N13 1_555 1_555
H35 C28 1_555 1_555
Pd1A N12A 1_555 1_555
Pd1C N12C 1_555 1_555
Pd1B N12K 1_555 1_555
Pd2H N4H 1_555 1_555
B1A N1A 1_555 1_555
B1H N1H 1_555 1_555
B1I N1I 1_555 1_555
B1B N1B 1_555 1_555
B1C N1C 1_555 1_555
B1J N1J 1_555 1_555
B1K N1K 1_555 1_555
N1A C1A 1_555 1_555
N1H C1H 1_555 1_555
N1I C1I 1_555 1_555
N1B C1B 1_555 1_555
N1C C1C 1_555 1_555
N1J C1J 1_555 1_555
N1K C1K 1_555 1_555
C1A H1A 1_555 1_555
C1H H1H 1_555 1_555
C1I H1I 1_555 1_555
C1B H1B 1_555 1_555
C1C H1C 1_555 1_555
C1J H1J 1_555 1_555
C1K H1K 1_555 1_555
C2A C1A 1_555 1_555
C2H C1H 1_555 1_555
C2I C1I 1_555 1_555
C2B C1B 1_555 1_555
C2C C1C 1_555 1_555
C2J C1J 1_555 1_555
C2K C1K 1_555 1_555
C3A C2A 1_555 1_555
C3H C2H 1_555 1_555
C3I C2I 1_555 1_555
C3B C2B 1_555 1_555
C3C C2C 1_555 1_555
C3J C2J 1_555 1_555
C3K C2K 1_555 1_555
H2A C3A 1_555 1_555
H2H C3H 1_555 1_555
H2I C3I 1_555 1_555
H2B C3B 1_555 1_555
H2C C3C 1_555 1_555
H2J C3J 1_555 1_555
H2K C3K 1_555 1_555
H3A C3A 1_555 1_555
H3H C3H 1_555 1_555
H3I C3I 1_555 1_555
H3B C3B 1_555 1_555
H3C C3C 1_555 1_555
H3J C3J 1_555 1_555
H3K C3K 1_555 1_555
H4A C3A 1_555 1_555
H4H C3H 1_555 1_555
H4I C3I 1_555 1_555
H4B C3B 1_555 1_555
H4C C3C 1_555 1_555
H4J C3J 1_555 1_555
H4K C3K 1_555 1_555
N2A C2A 1_555 1_555
N2H C2H 1_555 1_555
N2I C2I 1_555 1_555
N2B C2B 1_555 1_555
N2C C2C 1_555 1_555
N2J C2J 1_555 1_555
N2K C2K 1_555 1_555
C4A N1A 1_555 1_555
C4H N1H 1_555 1_555
C4I N1I 1_555 1_555
C4B N1B 1_555 1_555
C4C N1C 1_555 1_555
C4J N1J 1_555 1_555
C4K N1K 1_555 1_555
H5A C4A 1_555 1_555
H5H C4H 1_555 1_555
H5I C4I 1_555 1_555
H5B C4B 1_555 1_555
H5C C4C 1_555 1_555
H5J C4J 1_555 1_555
H5K C4K 1_555 1_555
N3A B1A 1_555 1_555
N3H B1H 1_555 1_555
N3I B1I 1_555 1_555
N3B B1B 1_555 1_555
N3C B1C 1_555 1_555
N3J B1J 1_555 1_555
N3K B1K 1_555 1_555
C5A N3A 1_555 1_555
C5H N3H 1_555 1_555
C5I N3I 1_555 1_555
C5B N3B 1_555 1_555
C5C N3C 1_555 1_555
C5J N3J 1_555 1_555
C5K N3K 1_555 1_555
H6H C5H 1_555 1_555
H6B C5B 1_555 1_555
H6J C5J 1_555 1_555
H6K C5K 1_555 1_555
H6C C5C 1_555 1_555
H6I C5I 1_555 1_555
H6A C5A 1_555 1_555
C6A C5A 1_555 1_555
C6H C5H 1_555 1_555
C6I C5I 1_555 1_555
C6B C5B 1_555 1_555
C6C C5C 1_555 1_555
C6J C5J 1_555 1_555
C6K C5K 1_555 1_555
C7H C6H 1_555 1_555
C7B C6B 1_555 1_555
C7J C6J 1_555 1_555
C7K C6K 1_555 1_555
C7C C6C 1_555 1_555
C7I C6I 1_555 1_555
C7A C6A 1_555 1_555
H7H C7H 1_555 1_555
H7B C7B 1_555 1_555
H7J C7J 1_555 1_555
H7K C7K 1_555 1_555
H7C C7C 1_555 1_555
H7I C7I 1_555 1_555
H7A C7A 1_555 1_555
H8H C7H 1_555 1_555
H8B C7B 1_555 1_555
H8J C7J 1_555 1_555
H8K C7K 1_555 1_555
H8C C7C 1_555 1_555
H8I C7I 1_555 1_555
H8A C7A 1_555 1_555
H9H C7H 1_555 1_555
H9B C7B 1_555 1_555
H9J C7J 1_555 1_555
H9K C7K 1_555 1_555
H9C C7C 1_555 1_555
H9I C7I 1_555 1_555
H9A C7A 1_555 1_555
N4A Pd2 1_555 1_555
N4H C6H 1_555 1_555
N4I Pd2H 1_555 1_555
N4B Pd2 1_555 1_555
N4C Pd2 1_555 1_555
N4J Pd2H 1_555 1_555
N4K Pd2H 1_555 1_555
C8K N3K 1_555 1_555
C8J N3J 1_555 1_555
C8C N3C 1_555 1_555
C8B N3B 1_555 1_555
C8I N3I 1_555 1_555
C8H N3H 1_555 1_555
C8A N3A 1_555 1_555
H10K C8K 1_555 1_555
H10J C8J 1_555 1_555
H10C C8C 1_555 1_555
H10B C8B 1_555 1_555
H10I C8I 1_555 1_555
H10H C8H 1_555 1_555
H10A C8A 1_555 1_555
C13A H16A 1_555 1_555
C13H H16H 1_555 1_555
C13I H16I 1_555 1_555
C13C H16C 1_555 1_555
C13J H16J 1_555 1_555
C13K H16K 1_555 1_555
C13B H16B 1_555 1_555
N11A B1A 1_555 1_555
N11H B1H 1_555 1_555
N11I B1I 1_555 1_555
N11C B1C 1_555 1_555
N11J B1J 1_555 1_555
N11K B1K 1_555 1_555
N11B B1B 1_555 1_555
C22B N11B 1_555 1_555
C22K N11K 1_555 1_555
C22J N11J 1_555 1_555
C22C N11C 1_555 1_555
C22I N11I 1_555 1_555
C22H N11H 1_555 1_555
C22A N11A 1_555 1_555
H27B C22B 1_555 1_555
H27K C22K 1_555 1_555
H27J C22J 1_555 1_555
H27C C22C 1_555 1_555
H27I C22I 1_555 1_555
H27H C22H 1_555 1_555
H27A C22A 1_555 1_555
C23B C22B 1_555 1_555
C23K C22K 1_555 1_555
C23J C22J 1_555 1_555
C23C C22C 1_555 1_555
C23I C23 1_555 1_555
C23H C22H 1_555 1_555
C23A C22A 1_555 1_555
C24B C23B 1_555 1_555
C24C C23J 1_555 1_555
C24A C23H 1_555 1_555
H28B C23B 1_555 1_555
H28K C23K 1_555 1_555
H28J C23J 1_555 1_555
H28C C23C 1_555 1_555
H28I C24 1_555 1_555
H28A C23A 1_555 1_555
H28H C23H 1_555 1_555
H29K C24B 1_555 1_555
H29B C24B 1_555 1_555
H29C C24C 1_555 1_555
H29J C24C 1_555 1_555
H29I C24 1_555 1_555
H29H C24A 1_555 1_555
H29A C24A 1_555 1_555
H30K C24B 1_555 1_555
H30B C24B 1_555 1_555
H30C C24C 1_555 1_555
H30J C24C 1_555 1_555
H30I C24 1_555 1_555
H30H C24A 1_555 1_555
H30A C24A 1_555 1_555
N12A C13A 1_555 1_555
N12H Pd1A 1_555 1_555
N12I Pd1 1_555 1_555
N12C C13C 1_555 1_555
N12J Pd1C 1_555 1_555
N12K C13K 1_555 1_555
N12B Pd1B 1_555 1_555
N13K Pd1B 1_555 1_555
N13B Pd1B 1_555 1_555
N13I Pd1 1_555 1_555
N13H Pd1A 1_555 1_555
N13A Pd1A 1_555 1_555
N13C Pd1C 1_555 1_555
N13J Pd1C 1_555 1_555
C25K N13K 1_555 1_555
C25B N13B 1_555 1_555
C25I N13I 1_555 1_555
C25H N13H 1_555 1_555
C25A N13A 1_555 1_555
C25C N13C 1_555 1_555
C25J N13J 1_555 1_555
C26K C25K 1_555 1_555
C26B C25B 1_555 1_555
C26I C25I 1_555 1_555
C26A C25A 1_555 1_555
C26H C25H 1_555 1_555
C26C C25C 1_555 1_555
C26J C25J 1_555 1_555
H31K C26K 1_555 1_555
H31B C26B 1_555 1_555
H31I C26I 1_555 1_555
H31A C26A 1_555 1_555
H31H C26H 1_555 1_555
H31C C26C 1_555 1_555
H31J C26J 1_555 1_555
H32K C26K 1_555 1_555
H32B C26B 1_555 1_555
H32I C26I 1_555 1_555
H32A C26A 1_555 1_555
H32H C26H 1_555 1_555
H32C C26C 1_555 1_555
H32J C26J 1_555 1_555
H33K C26K 1_555 1_555
H33B C26B 1_555 1_555
H33I C26I 1_555 1_555
H33A C26A 1_555 1_555
H33H C26H 1_555 1_555
H33C C26C 1_555 1_555
H33J C26J 1_555 1_555
C27K C25K 1_555 1_555
C27B C25B 1_555 1_555
C27I C25I 1_555 1_555
C27H C25H 1_555 1_555
C27A C25A 1_555 1_555
C27C N14 1_555 1_555
C27J C25J 1_555 1_555
H34K C27K 1_555 1_555
H34B C27B 1_555 1_555
H34I C27I 1_555 1_555
H34A C27A 1_555 1_555
H34H C27H 1_555 1_555
H34C C27C 1_555 1_555
H34J C27J 1_555 1_555
N14B C27 1_555 1_555
N14H B1H 1_555 1_555
N14A B1A 1_555 1_555
N14K B1K 1_555 1_555
N14J B1J 1_555 1_555
N14C B1C 1_555 1_555
N14I B1I 1_555 1_555
C28K N13K 1_555 1_555
C28B N13B 1_555 1_555
C28I N13I 1_555 1_555
C28A N13A 1_555 1_555
C28H N13H 1_555 1_555
C28C N14 1_555 1_555
C28J N13J 1_555 1_555
H35K C28K 1_555 1_555
H35B C28B 1_555 1_555
H35I C28I 1_555 1_555
H35A C28A 1_555 1_555
H35H C28H 1_555 1_555
H35C C28C 1_555 1_555
H35J C28J 1_555 1_555
N2 C4 1_555 1_555
N4 C8 1_555 1_555
C13 N11 1_555 1_555
C23 N12 1_555 1_555
C24 H28 1_555 1_555
C24 C23I 1_555 1_555
H29 H29I 1_555 1_555
H30 H30I 1_555 1_555
C28 N14B 1_555 1_555
B1B N14B 1_555 1_555
N2A C4A 1_555 1_555
N2H C4H 1_555 1_555
N2I C4I 1_555 1_555
N2B C4B 1_555 1_555
N2C C4C 1_555 1_555
N2J C4J 1_555 1_555
N2K C4K 1_555 1_555
C6A N4A 1_555 1_555
C6I N4I 1_555 1_555
C6B N4B 1_555 1_555
C6C N4C 1_555 1_555
C6J N4J 1_555 1_555
C6K N4K 1_555 1_555
N4A C8A 1_555 1_555
N4H C8H 1_555 1_555
N4I C8I 1_555 1_555
N4B C8B 1_555 1_555
N4C C8C 1_555 1_555
N4J C8J 1_555 1_555
N4K C8K 1_555 1_555
C13A N11A 1_555 1_555
C13H N11H 1_555 1_555
C13H N12H 1_555 1_555
C13I N11I 1_555 1_555
C13I N12I 1_555 1_555
C13C N11C 1_555 1_555
C13J N11J 1_555 1_555
C13J N12J 1_555 1_555
C13K N11K 1_555 1_555
C13B N11B 1_555 1_555
C13B N12B 1_555 1_555
C22I C23I 1_555 1_555
C23B C23K 1_555 1_555
C23B N12B 1_555 1_555
C23K C24B 1_555 1_555
C23K N12K 1_555 1_555
C23J C23C 1_555 1_555
C23J N12J 1_555 1_555
C23C C24C 1_555 1_555
C23C N12C 1_555 1_555
C23I H28I 1_555 1_555
C23I N12I 1_555 1_555
C23H C23A 1_555 1_555
C23H N12H 1_555 1_555
C23A C24A 1_555 1_555
C23A N12A 1_555 1_555
C24B H28B 1_555 1_555
C24B H28K 1_555 1_555
C24C H28J 1_555 1_555
C24C H28C 1_555 1_555
C24A H28A 1_555 1_555
C24A H28H 1_555 1_555
H29K H29B 1_555 1_555
H29C H29J 1_555 1_555
H29H H29A 1_555 1_555
H30K H30B 1_555 1_555
H30C H30J 1_555 1_555
H30H H30A 1_555 1_555
N13C C28C 1_555 1_555
C25C C27C 1_555 1_555
C27K N14H 1_555 1_555
C27B N14A 1_555 1_555
C27I N14K 1_555 1_555
C27H N14J 1_555 1_555
C27A N14C 1_555 1_555
C27J N14I 1_555 1_555
N14H C28K 1_555 1_555
N14A C28B 1_555 1_555
N14K C28I 1_555 1_555
N14J C28H 1_555 1_555
N14C C28A 1_555 1_555
N14I C28J 1_555 1_555

#END
