# generated using pymatgen
data_B4H134Pd3(C12N7)8
_symmetry_space_group_name_H-M   'P 1'
_cell_length_a   16.91340000
_cell_length_b   16.91340000
_cell_length_c   34.34400000
_cell_angle_alpha   90.00000000
_cell_angle_beta   90.00000000
_cell_angle_gamma   90.00000000
_symmetry_Int_Tables_number   1
_chemical_formula_structural   B4H134Pd3(C12N7)8
_chemical_formula_sum   'B16 H536 Pd12 C384 N224'
_cell_volume   9824.55109129
_cell_formula_units_Z   4
loop_
 _symmetry_equiv_pos_site_id
 _symmetry_equiv_pos_as_xyz
  1  'x, y, z'
loop_
 _atom_site_type_symbol
 _atom_site_label
 _atom_site_symmetry_multiplicity
 _atom_site_fract_x
 _atom_site_fract_y
 _atom_site_fract_z
 _atom_site_occupancy
  B  B1  1  0.259700  0.171000  0.392100  1.0
  B  B2  1  0.740300  0.829000  0.392100  1.0
  B  B3  1  0.829000  0.259700  0.392100  1.0
  B  B4  1  0.171000  0.740300  0.392100  1.0
  B  B5  1  0.240300  0.671000  0.107900  1.0
  B  B6  1  0.759700  0.329000  0.107900  1.0
  B  B7  1  0.671000  0.759700  0.107900  1.0
  B  B8  1  0.329000  0.240300  0.107900  1.0
  B  B9  1  0.740300  0.829000  0.607900  1.0
  B  B10  1  0.259700  0.171000  0.607900  1.0
  B  B11  1  0.171000  0.740300  0.607900  1.0
  B  B12  1  0.829000  0.259700  0.607900  1.0
  B  B13  1  0.759700  0.329000  0.892100  1.0
  B  B14  1  0.240300  0.671000  0.892100  1.0
  B  B15  1  0.329000  0.240300  0.892100  1.0
  B  B16  1  0.671000  0.759700  0.892100  1.0
  H  H17  1  0.296400  0.052200  0.332400  1
  H  H18  1  0.703600  0.947800  0.332400  1
  H  H19  1  0.947800  0.296400  0.332400  1
  H  H20  1  0.052200  0.703600  0.332400  1
  H  H21  1  0.203600  0.552200  0.167600  1
  H  H22  1  0.796400  0.447800  0.167600  1
  H  H23  1  0.552200  0.796400  0.167600  1
  H  H24  1  0.447800  0.203600  0.167600  1
  H  H25  1  0.703600  0.947800  0.667600  1
  H  H26  1  0.296400  0.052200  0.667600  1
  H  H27  1  0.052200  0.703600  0.667600  1
  H  H28  1  0.947800  0.296400  0.667600  1
  H  H29  1  0.796400  0.447800  0.832400  1
  H  H30  1  0.203600  0.552200  0.832400  1
  H  H31  1  0.447800  0.203600  0.832400  1
  H  H32  1  0.552200  0.796400  0.832400  1
  H  H33  1  0.150900  0.914500  0.303400  1
  H  H34  1  0.849100  0.085500  0.303400  1
  H  H35  1  0.085500  0.150900  0.303400  1
  H  H36  1  0.914500  0.849100  0.303400  1
  H  H37  1  0.349100  0.414500  0.196600  1
  H  H38  1  0.650900  0.585500  0.196600  1
  H  H39  1  0.414500  0.650900  0.196600  1
  H  H40  1  0.585500  0.349100  0.196600  1
  H  H41  1  0.849100  0.085500  0.696600  1
  H  H42  1  0.150900  0.914500  0.696600  1
  H  H43  1  0.914500  0.849100  0.696600  1
  H  H44  1  0.085500  0.150900  0.696600  1
  H  H45  1  0.650900  0.585500  0.803400  1
  H  H46  1  0.349100  0.414500  0.803400  1
  H  H47  1  0.585500  0.349100  0.803400  1
  H  H48  1  0.414500  0.650900  0.803400  1
  H  H49  1  0.240000  0.940200  0.294100  1
  H  H50  1  0.760000  0.059800  0.294100  1
  H  H51  1  0.059800  0.240000  0.294100  1
  H  H52  1  0.940200  0.760000  0.294100  1
  H  H53  1  0.260000  0.440200  0.205900  1
  H  H54  1  0.740000  0.559800  0.205900  1
  H  H55  1  0.440200  0.740000  0.205900  1
  H  H56  1  0.559800  0.260000  0.205900  1
  H  H57  1  0.760000  0.059800  0.705900  1
  H  H58  1  0.240000  0.940200  0.705900  1
  H  H59  1  0.940200  0.760000  0.705900  1
  H  H60  1  0.059800  0.240000  0.705900  1
  H  H61  1  0.740000  0.559800  0.794100  1
  H  H62  1  0.260000  0.440200  0.794100  1
  H  H63  1  0.559800  0.260000  0.794100  1
  H  H64  1  0.440200  0.740000  0.794100  1
  H  H65  1  0.167900  0.983500  0.272700  1
  H  H66  1  0.832100  0.016500  0.272700  1
  H  H67  1  0.016500  0.167900  0.272700  1
  H  H68  1  0.983500  0.832100  0.272700  1
  H  H69  1  0.332100  0.483500  0.227300  1
  H  H70  1  0.667900  0.516500  0.227300  1
  H  H71  1  0.483500  0.667900  0.227300  1
  H  H72  1  0.516500  0.332100  0.227300  1
  H  H73  1  0.832100  0.016500  0.727300  1
  H  H74  1  0.167900  0.983500  0.727300  1
  H  H75  1  0.983500  0.832100  0.727300  1
  H  H76  1  0.016500  0.167900  0.727300  1
  H  H77  1  0.667900  0.516500  0.772700  1
  H  H78  1  0.332100  0.483500  0.772700  1
  H  H79  1  0.516500  0.332100  0.772700  1
  H  H80  1  0.483500  0.667900  0.772700  1
  H  H81  1  0.109700  0.112200  0.393200  1
  H  H82  1  0.890300  0.887800  0.393200  1
  H  H83  1  0.887800  0.109700  0.393200  1
  H  H84  1  0.112200  0.890300  0.393200  1
  H  H85  1  0.390300  0.612200  0.106800  1
  H  H86  1  0.609700  0.387800  0.106800  1
  H  H87  1  0.612200  0.609700  0.106800  1
  H  H88  1  0.387800  0.390300  0.106800  1
  H  H89  1  0.890300  0.887800  0.606800  1
  H  H90  1  0.109700  0.112200  0.606800  1
  H  H91  1  0.112200  0.890300  0.606800  1
  H  H92  1  0.887800  0.109700  0.606800  1
  H  H93  1  0.609700  0.387800  0.893200  1
  H  H94  1  0.390300  0.612200  0.893200  1
  H  H95  1  0.387800  0.390300  0.893200  1
  H  H96  1  0.612200  0.609700  0.893200  1
  H  H97  1  0.192400  0.323600  0.365800  1
  H  H98  1  0.807600  0.676400  0.365800  1
  H  H99  1  0.676400  0.192400  0.365800  1
  H  H100  1  0.323600  0.807600  0.365800  1
  H  H101  1  0.307600  0.823600  0.134200  1
  H  H102  1  0.692400  0.176400  0.134200  1
  H  H103  1  0.823600  0.692400  0.134200  1
  H  H104  1  0.176400  0.307600  0.134200  1
  H  H105  1  0.807600  0.676400  0.634200  1
  H  H106  1  0.192400  0.323600  0.634200  1
  H  H107  1  0.323600  0.807600  0.634200  1
  H  H108  1  0.676400  0.192400  0.634200  1
  H  H109  1  0.692400  0.176400  0.865800  1
  H  H110  1  0.307600  0.823600  0.865800  1
  H  H111  1  0.176400  0.307600  0.865800  1
  H  H112  1  0.823600  0.692400  0.865800  1
  H  H113  1  0.015900  0.397300  0.408200  1
  H  H114  1  0.984100  0.602700  0.408200  1
  H  H115  1  0.602700  0.015900  0.408200  1
  H  H116  1  0.397300  0.984100  0.408200  1
  H  H117  1  0.484100  0.897300  0.091800  1
  H  H118  1  0.515900  0.102700  0.091800  1
  H  H119  1  0.897300  0.515900  0.091800  1
  H  H120  1  0.102700  0.484100  0.091800  1
  H  H121  1  0.984100  0.602700  0.591800  1
  H  H122  1  0.015900  0.397300  0.591800  1
  H  H123  1  0.397300  0.984100  0.591800  1
  H  H124  1  0.602700  0.015900  0.591800  1
  H  H125  1  0.515900  0.102700  0.908200  1
  H  H126  1  0.484100  0.897300  0.908200  1
  H  H127  1  0.102700  0.484100  0.908200  1
  H  H128  1  0.897300  0.515900  0.908200  1
  H  H129  1  0.084900  0.444700  0.386400  1
  H  H130  1  0.915100  0.555300  0.386400  1
  H  H131  1  0.555300  0.084900  0.386400  1
  H  H132  1  0.444700  0.915100  0.386400  1
  H  H133  1  0.415100  0.944700  0.113600  1
  H  H134  1  0.584900  0.055300  0.113600  1
  H  H135  1  0.944700  0.584900  0.113600  1
  H  H136  1  0.055300  0.415100  0.113600  1
  H  H137  1  0.915100  0.555300  0.613600  1
  H  H138  1  0.084900  0.444700  0.613600  1
  H  H139  1  0.444700  0.915100  0.613600  1
  H  H140  1  0.555300  0.084900  0.613600  1
  H  H141  1  0.584900  0.055300  0.886400  1
  H  H142  1  0.415100  0.944700  0.886400  1
  H  H143  1  0.055300  0.415100  0.886400  1
  H  H144  1  0.944700  0.584900  0.886400  1
  H  H145  1  0.076200  0.450600  0.432700  1
  H  H146  1  0.923800  0.549400  0.432700  1
  H  H147  1  0.549400  0.076200  0.432700  1
  H  H148  1  0.450600  0.923800  0.432700  1
  H  H149  1  0.423800  0.950600  0.067300  1
  H  H150  1  0.576200  0.049400  0.067300  1
  H  H151  1  0.950600  0.576200  0.067300  1
  H  H152  1  0.049400  0.423800  0.067300  1
  H  H153  1  0.923800  0.549400  0.567300  1
  H  H154  1  0.076200  0.450600  0.567300  1
  H  H155  1  0.450600  0.923800  0.567300  1
  H  H156  1  0.549400  0.076200  0.567300  1
  H  H157  1  0.576200  0.049400  0.932700  1
  H  H158  1  0.423800  0.950600  0.932700  1
  H  H159  1  0.049400  0.423800  0.932700  1
  H  H160  1  0.950600  0.576200  0.932700  1
  H  H161  1  0.174200  0.193200  0.460200  1
  H  H162  1  0.825800  0.806800  0.460200  1
  H  H163  1  0.806800  0.174200  0.460200  1
  H  H164  1  0.193200  0.825800  0.460200  1
  H  H165  1  0.325800  0.693200  0.039800  1
  H  H166  1  0.674200  0.306800  0.039800  1
  H  H167  1  0.693200  0.674200  0.039800  1
  H  H168  1  0.306800  0.325800  0.039800  1
  H  H169  1  0.825800  0.806800  0.539800  1
  H  H170  1  0.174200  0.193200  0.539800  1
  H  H171  1  0.193200  0.825800  0.539800  1
  H  H172  1  0.806800  0.174200  0.539800  1
  H  H173  1  0.674200  0.306800  0.960200  1
  H  H174  1  0.325800  0.693200  0.960200  1
  H  H175  1  0.306800  0.325800  0.960200  1
  H  H176  1  0.693200  0.674200  0.960200  1
  H  H177  1  0.908800  0.426600  0.526600  1
  H  H178  1  0.091200  0.573400  0.526600  1
  H  H179  1  0.573400  0.908800  0.526600  1
  H  H180  1  0.426600  0.091200  0.526600  1
  H  H181  1  0.591200  0.926600  0.973400  1
  H  H182  1  0.408800  0.073400  0.973400  1
  H  H183  1  0.926600  0.408800  0.973400  1
  H  H184  1  0.073400  0.591200  0.973400  1
  H  H185  1  0.091200  0.573400  0.473400  1
  H  H186  1  0.908800  0.426600  0.473400  1
  H  H187  1  0.426600  0.091200  0.473400  1
  H  H188  1  0.573400  0.908800  0.473400  1
  H  H189  1  0.408800  0.073400  0.026600  1
  H  H190  1  0.591200  0.926600  0.026600  1
  H  H191  1  0.073400  0.591200  0.026600  1
  H  H192  1  0.926600  0.408800  0.026600  1
  H  H193  1  0.840300  0.463200  0.500000  1
  H  H194  1  0.159700  0.536800  0.500000  1
  H  H195  1  0.536800  0.840300  0.500000  1
  H  H196  1  0.463200  0.159700  0.500000  1
  H  H197  1  0.659700  0.963200  0.000000  1
  H  H198  1  0.340300  0.036800  0.000000  1
  H  H199  1  0.963200  0.340300  0.000000  1
  H  H200  1  0.036800  0.659700  0.000000  1
  H  H201  1  0.931000  0.481900  0.490400  1
  H  H202  1  0.069000  0.518100  0.490400  1
  H  H203  1  0.518100  0.931000  0.490400  1
  H  H204  1  0.481900  0.069000  0.490400  1
  H  H205  1  0.569000  0.981900  0.009600  1
  H  H206  1  0.431000  0.018100  0.009600  1
  H  H207  1  0.981900  0.431000  0.009600  1
  H  H208  1  0.018100  0.569000  0.009600  1
  H  H209  1  0.069000  0.518100  0.509600  1
  H  H210  1  0.931000  0.481900  0.509600  1
  H  H211  1  0.481900  0.069000  0.509600  1
  H  H212  1  0.518100  0.931000  0.509600  1
  H  H213  1  0.431000  0.018100  0.990400  1
  H  H214  1  0.569000  0.981900  0.990400  1
  H  H215  1  0.018100  0.569000  0.990400  1
  H  H216  1  0.981900  0.431000  0.990400  1
  H  H217  1  0.787700  0.379900  0.448500  1
  H  H218  1  0.212300  0.620100  0.448500  1
  H  H219  1  0.620100  0.787700  0.448500  1
  H  H220  1  0.379900  0.212300  0.448500  1
  H  H221  1  0.712300  0.879900  0.051500  1
  H  H222  1  0.287700  0.120100  0.051500  1
  H  H223  1  0.879900  0.287700  0.051500  1
  H  H224  1  0.120100  0.712300  0.051500  1
  H  H225  1  0.212300  0.620100  0.551500  1
  H  H226  1  0.787700  0.379900  0.551500  1
  H  H227  1  0.379900  0.212300  0.551500  1
  H  H228  1  0.620100  0.787700  0.551500  1
  H  H229  1  0.287700  0.120100  0.948500  1
  H  H230  1  0.712300  0.879900  0.948500  1
  H  H231  1  0.120100  0.712300  0.948500  1
  H  H232  1  0.879900  0.287700  0.948500  1
  H  H233  1  0.258500  0.222300  0.312500  1.0
  H  H234  1  0.741500  0.777700  0.312500  1.0
  H  H235  1  0.777700  0.258500  0.312500  1.0
  H  H236  1  0.222300  0.741500  0.312500  1.0
  H  H237  1  0.241500  0.722300  0.187500  1.0
  H  H238  1  0.758500  0.277700  0.187500  1.0
  H  H239  1  0.722300  0.758500  0.187500  1.0
  H  H240  1  0.277700  0.241500  0.187500  1.0
  H  H241  1  0.741500  0.777700  0.687500  1.0
  H  H242  1  0.258500  0.222300  0.687500  1.0
  H  H243  1  0.222300  0.741500  0.687500  1.0
  H  H244  1  0.777700  0.258500  0.687500  1.0
  H  H245  1  0.758500  0.277700  0.812500  1.0
  H  H246  1  0.241500  0.722300  0.812500  1.0
  H  H247  1  0.277700  0.241500  0.812500  1.0
  H  H248  1  0.722300  0.758500  0.812500  1.0
  H  H249  1  0.391400  0.224100  0.246700  1.0
  H  H250  1  0.608600  0.775900  0.246700  1.0
  H  H251  1  0.775900  0.391400  0.246700  1.0
  H  H252  1  0.224100  0.608600  0.246700  1.0
  H  H253  1  0.108600  0.724100  0.253300  1.0
  H  H254  1  0.891400  0.275900  0.253300  1.0
  H  H255  1  0.724100  0.891400  0.253300  1.0
  H  H256  1  0.275900  0.108600  0.253300  1.0
  H  H257  1  0.608600  0.775900  0.753300  1.0
  H  H258  1  0.391400  0.224100  0.753300  1.0
  H  H259  1  0.224100  0.608600  0.753300  1.0
  H  H260  1  0.775900  0.391400  0.753300  1.0
  H  H261  1  0.891400  0.275900  0.746700  1.0
  H  H262  1  0.108600  0.724100  0.746700  1.0
  H  H263  1  0.275900  0.108600  0.746700  1.0
  H  H264  1  0.724100  0.891400  0.746700  1.0
  H  H265  1  0.428500  0.305100  0.262300  1.0
  H  H266  1  0.571500  0.694900  0.262300  1.0
  H  H267  1  0.694900  0.428500  0.262300  1.0
  H  H268  1  0.305100  0.571500  0.262300  1.0
  H  H269  1  0.071500  0.805100  0.237700  1.0
  H  H270  1  0.928500  0.194900  0.237700  1.0
  H  H271  1  0.805100  0.928500  0.237700  1.0
  H  H272  1  0.194900  0.071500  0.237700  1.0
  H  H273  1  0.571500  0.694900  0.737700  1.0
  H  H274  1  0.428500  0.305100  0.737700  1.0
  H  H275  1  0.305100  0.571500  0.737700  1.0
  H  H276  1  0.694900  0.428500  0.737700  1.0
  H  H277  1  0.928500  0.194900  0.762300  1.0
  H  H278  1  0.071500  0.805100  0.762300  1.0
  H  H279  1  0.194900  0.071500  0.762300  1.0
  H  H280  1  0.805100  0.928500  0.762300  1.0
  H  H281  1  0.335000  0.297600  0.256200  1.0
  H  H282  1  0.665000  0.702400  0.256200  1.0
  H  H283  1  0.702400  0.335000  0.256200  1.0
  H  H284  1  0.297600  0.665000  0.256200  1.0
  H  H285  1  0.165000  0.797600  0.243800  1.0
  H  H286  1  0.835000  0.202400  0.243800  1.0
  H  H287  1  0.797600  0.835000  0.243800  1.0
  H  H288  1  0.202400  0.165000  0.243800  1.0
  H  H289  1  0.665000  0.702400  0.743800  1.0
  H  H290  1  0.335000  0.297600  0.743800  1.0
  H  H291  1  0.297600  0.665000  0.743800  1.0
  H  H292  1  0.702400  0.335000  0.743800  1.0
  H  H293  1  0.835000  0.202400  0.756200  1.0
  H  H294  1  0.165000  0.797600  0.756200  1.0
  H  H295  1  0.202400  0.165000  0.756200  1.0
  H  H296  1  0.797600  0.835000  0.756200  1.0
  H  H297  1  0.427500  0.189000  0.388600  1.0
  H  H298  1  0.572500  0.811000  0.388600  1.0
  H  H299  1  0.811000  0.427500  0.388600  1.0
  H  H300  1  0.189000  0.572500  0.388600  1.0
  H  H301  1  0.072500  0.689000  0.111400  1.0
  H  H302  1  0.927500  0.311000  0.111400  1.0
  H  H303  1  0.689000  0.927500  0.111400  1.0
  H  H304  1  0.311000  0.072500  0.111400  1.0
  H  H305  1  0.572500  0.811000  0.611400  1.0
  H  H306  1  0.427500  0.189000  0.611400  1.0
  H  H307  1  0.189000  0.572500  0.611400  1.0
  H  H308  1  0.811000  0.427500  0.611400  1.0
  H  H309  1  0.927500  0.311000  0.888600  1.0
  H  H310  1  0.072500  0.689000  0.888600  1.0
  H  H311  1  0.311000  0.072500  0.888600  1.0
  H  H312  1  0.689000  0.927500  0.888600  1.0
  H  H313  1  0.168400  0.245000  0.330200  1.0
  H  H314  1  0.831600  0.755000  0.330200  1.0
  H  H315  1  0.755000  0.168400  0.330200  1.0
  H  H316  1  0.245000  0.831600  0.330200  1.0
  H  H317  1  0.331600  0.745000  0.169800  1.0
  H  H318  1  0.668400  0.255000  0.169800  1.0
  H  H319  1  0.745000  0.668400  0.169800  1.0
  H  H320  1  0.255000  0.331600  0.169800  1.0
  H  H321  1  0.831600  0.755000  0.669800  1.0
  H  H322  1  0.168400  0.245000  0.669800  1.0
  H  H323  1  0.245000  0.831600  0.669800  1.0
  H  H324  1  0.755000  0.168400  0.669800  1.0
  H  H325  1  0.668400  0.255000  0.830200  1.0
  H  H326  1  0.331600  0.745000  0.830200  1.0
  H  H327  1  0.255000  0.331600  0.830200  1.0
  H  H328  1  0.745000  0.668400  0.830200  1.0
  H  H329  1  0.063500  0.169200  0.270100  1.0
  H  H330  1  0.936500  0.830800  0.270100  1.0
  H  H331  1  0.830800  0.063500  0.270100  1.0
  H  H332  1  0.169200  0.936500  0.270100  1.0
  H  H333  1  0.436500  0.669200  0.229900  1.0
  H  H334  1  0.563500  0.330800  0.229900  1.0
  H  H335  1  0.669200  0.563500  0.229900  1.0
  H  H336  1  0.330800  0.436500  0.229900  1.0
  H  H337  1  0.936500  0.830800  0.729900  1.0
  H  H338  1  0.063500  0.169200  0.729900  1.0
  H  H339  1  0.169200  0.936500  0.729900  1.0
  H  H340  1  0.830800  0.063500  0.729900  1.0
  H  H341  1  0.563500  0.330800  0.770100  1.0
  H  H342  1  0.436500  0.669200  0.770100  1.0
  H  H343  1  0.330800  0.436500  0.770100  1.0
  H  H344  1  0.669200  0.563500  0.770100  1.0
  H  H345  1  0.987500  0.182900  0.297000  1.0
  H  H346  1  0.012500  0.817100  0.297000  1.0
  H  H347  1  0.817100  0.987500  0.297000  1.0
  H  H348  1  0.182900  0.012500  0.297000  1.0
  H  H349  1  0.512500  0.682900  0.203000  1.0
  H  H350  1  0.487500  0.317100  0.203000  1.0
  H  H351  1  0.682900  0.487500  0.203000  1.0
  H  H352  1  0.317100  0.512500  0.203000  1.0
  H  H353  1  0.012500  0.817100  0.703000  1.0
  H  H354  1  0.987500  0.182900  0.703000  1.0
  H  H355  1  0.182900  0.012500  0.703000  1.0
  H  H356  1  0.817100  0.987500  0.703000  1.0
  H  H357  1  0.487500  0.317100  0.797000  1.0
  H  H358  1  0.512500  0.682900  0.797000  1.0
  H  H359  1  0.317100  0.512500  0.797000  1.0
  H  H360  1  0.682900  0.487500  0.797000  1.0
  H  H361  1  0.018500  0.095100  0.288700  1.0
  H  H362  1  0.981500  0.904900  0.288700  1.0
  H  H363  1  0.904900  0.018500  0.288700  1.0
  H  H364  1  0.095100  0.981500  0.288700  1.0
  H  H365  1  0.481500  0.595100  0.211300  1.0
  H  H366  1  0.518500  0.404900  0.211300  1.0
  H  H367  1  0.595100  0.518500  0.211300  1.0
  H  H368  1  0.404900  0.481500  0.211300  1.0
  H  H369  1  0.981500  0.904900  0.711300  1.0
  H  H370  1  0.018500  0.095100  0.711300  1.0
  H  H371  1  0.095100  0.981500  0.711300  1.0
  H  H372  1  0.904900  0.018500  0.711300  1.0
  H  H373  1  0.518500  0.404900  0.788700  1.0
  H  H374  1  0.481500  0.595100  0.788700  1.0
  H  H375  1  0.404900  0.481500  0.788700  1.0
  H  H376  1  0.595100  0.518500  0.788700  1.0
  H  H377  1  0.150300  0.050700  0.391900  1.0
  H  H378  1  0.849700  0.949300  0.391900  1.0
  H  H379  1  0.949300  0.150300  0.391900  1.0
  H  H380  1  0.050700  0.849700  0.391900  1.0
  H  H381  1  0.349700  0.550700  0.108100  1.0
  H  H382  1  0.650300  0.449300  0.108100  1.0
  H  H383  1  0.550700  0.650300  0.108100  1.0
  H  H384  1  0.449300  0.349700  0.108100  1.0
  H  H385  1  0.849700  0.949300  0.608100  1.0
  H  H386  1  0.150300  0.050700  0.608100  1.0
  H  H387  1  0.050700  0.849700  0.608100  1.0
  H  H388  1  0.949300  0.150300  0.608100  1.0
  H  H389  1  0.650300  0.449300  0.891900  1.0
  H  H390  1  0.349700  0.550700  0.891900  1.0
  H  H391  1  0.449300  0.349700  0.891900  1.0
  H  H392  1  0.550700  0.650300  0.891900  1.0
  H  H393  1  0.123000  0.207000  0.432900  1.0
  H  H394  1  0.877000  0.793000  0.432900  1.0
  H  H395  1  0.793000  0.123000  0.432900  1.0
  H  H396  1  0.207000  0.877000  0.432900  1.0
  H  H397  1  0.377000  0.707000  0.067100  1.0
  H  H398  1  0.623000  0.293000  0.067100  1.0
  H  H399  1  0.707000  0.623000  0.067100  1.0
  H  H400  1  0.293000  0.377000  0.067100  1.0
  H  H401  1  0.877000  0.793000  0.567100  1.0
  H  H402  1  0.123000  0.207000  0.567100  1.0
  H  H403  1  0.207000  0.877000  0.567100  1.0
  H  H404  1  0.793000  0.123000  0.567100  1.0
  H  H405  1  0.623000  0.293000  0.932900  1.0
  H  H406  1  0.377000  0.707000  0.932900  1.0
  H  H407  1  0.293000  0.377000  0.932900  1.0
  H  H408  1  0.707000  0.623000  0.932900  1.0
  H  H409  1  0.337300  0.287500  0.445700  1.0
  H  H410  1  0.662700  0.712500  0.445700  1.0
  H  H411  1  0.712500  0.337300  0.445700  1.0
  H  H412  1  0.287500  0.662700  0.445700  1.0
  H  H413  1  0.162700  0.787500  0.054300  1.0
  H  H414  1  0.837300  0.212500  0.054300  1.0
  H  H415  1  0.787500  0.837300  0.054300  1.0
  H  H416  1  0.212500  0.162700  0.054300  1.0
  H  H417  1  0.662700  0.712500  0.554300  1.0
  H  H418  1  0.337300  0.287500  0.554300  1.0
  H  H419  1  0.287500  0.662700  0.554300  1.0
  H  H420  1  0.712500  0.337300  0.554300  1.0
  H  H421  1  0.837300  0.212500  0.945700  1.0
  H  H422  1  0.162700  0.787500  0.945700  1.0
  H  H423  1  0.212500  0.162700  0.945700  1.0
  H  H424  1  0.787500  0.837300  0.945700  1.0
  H  H425  1  0.261500  0.357700  0.472600  1.0
  H  H426  1  0.738500  0.642300  0.472600  1.0
  H  H427  1  0.642300  0.261500  0.472600  1.0
  H  H428  1  0.357700  0.738500  0.472600  1.0
  H  H429  1  0.238500  0.857700  0.027400  1.0
  H  H430  1  0.761500  0.142300  0.027400  1.0
  H  H431  1  0.857700  0.761500  0.027400  1.0
  H  H432  1  0.142300  0.238500  0.027400  1.0
  H  H433  1  0.738500  0.642300  0.527400  1.0
  H  H434  1  0.261500  0.357700  0.527400  1.0
  H  H435  1  0.357700  0.738500  0.527400  1.0
  H  H436  1  0.642300  0.261500  0.527400  1.0
  H  H437  1  0.761500  0.142300  0.972600  1.0
  H  H438  1  0.238500  0.857700  0.972600  1.0
  H  H439  1  0.142300  0.238500  0.972600  1.0
  H  H440  1  0.857700  0.761500  0.972600  1.0
  H  H441  1  0.233400  0.420300  0.495300  1.0
  H  H442  1  0.766600  0.579700  0.495300  1.0
  H  H443  1  0.579700  0.233400  0.495300  1.0
  H  H444  1  0.420300  0.766600  0.495300  1.0
  H  H445  1  0.266600  0.920300  0.004700  1.0
  H  H446  1  0.733400  0.079700  0.004700  1.0
  H  H447  1  0.920300  0.733400  0.004700  1.0
  H  H448  1  0.079700  0.266600  0.004700  1.0
  H  H449  1  0.766600  0.579700  0.504700  1.0
  H  H450  1  0.233400  0.420300  0.504700  1.0
  H  H451  1  0.420300  0.766600  0.504700  1.0
  H  H452  1  0.579700  0.233400  0.504700  1.0
  H  H453  1  0.733400  0.079700  0.995300  1.0
  H  H454  1  0.266600  0.920300  0.995300  1.0
  H  H455  1  0.079700  0.266600  0.995300  1.0
  H  H456  1  0.920300  0.733400  0.995300  1.0
  H  H457  1  0.321200  0.385000  0.493900  1.0
  H  H458  1  0.678800  0.615000  0.493900  1.0
  H  H459  1  0.615000  0.321200  0.493900  1.0
  H  H460  1  0.385000  0.678800  0.493900  1.0
  H  H461  1  0.178800  0.885000  0.006100  1.0
  H  H462  1  0.821200  0.115000  0.006100  1.0
  H  H463  1  0.885000  0.821200  0.006100  1.0
  H  H464  1  0.115000  0.178800  0.006100  1.0
  H  H465  1  0.678800  0.615000  0.506100  1.0
  H  H466  1  0.321200  0.385000  0.506100  1.0
  H  H467  1  0.385000  0.678800  0.506100  1.0
  H  H468  1  0.615000  0.321200  0.506100  1.0
  H  H469  1  0.821200  0.115000  0.993900  1.0
  H  H470  1  0.178800  0.885000  0.993900  1.0
  H  H471  1  0.115000  0.178800  0.993900  1.0
  H  H472  1  0.885000  0.821200  0.993900  1.0
  H  H473  1  0.108100  0.448800  0.434400  1.0
  H  H474  1  0.891900  0.551200  0.434400  1.0
  H  H475  1  0.551200  0.108100  0.434400  1.0
  H  H476  1  0.448800  0.891900  0.434400  1.0
  H  H477  1  0.391900  0.948800  0.065600  1.0
  H  H478  1  0.608100  0.051200  0.065600  1.0
  H  H479  1  0.948800  0.608100  0.065600  1.0
  H  H480  1  0.051200  0.391900  0.065600  1.0
  H  H481  1  0.891900  0.551200  0.565600  1.0
  H  H482  1  0.108100  0.448800  0.565600  1.0
  H  H483  1  0.448800  0.891900  0.565600  1.0
  H  H484  1  0.551200  0.108100  0.565600  1.0
  H  H485  1  0.608100  0.051200  0.934400  1.0
  H  H486  1  0.391900  0.948800  0.934400  1.0
  H  H487  1  0.051200  0.391900  0.934400  1.0
  H  H488  1  0.948800  0.608100  0.934400  1.0
  H  H489  1  0.098000  0.446300  0.388100  1.0
  H  H490  1  0.902000  0.553700  0.388100  1.0
  H  H491  1  0.553700  0.098000  0.388100  1.0
  H  H492  1  0.446300  0.902000  0.388100  1.0
  H  H493  1  0.402000  0.946300  0.111900  1.0
  H  H494  1  0.598000  0.053700  0.111900  1.0
  H  H495  1  0.946300  0.598000  0.111900  1.0
  H  H496  1  0.053700  0.402000  0.111900  1.0
  H  H497  1  0.902000  0.553700  0.611900  1.0
  H  H498  1  0.098000  0.446300  0.611900  1.0
  H  H499  1  0.446300  0.902000  0.611900  1.0
  H  H500  1  0.553700  0.098000  0.611900  1.0
  H  H501  1  0.598000  0.053700  0.888100  1.0
  H  H502  1  0.402000  0.946300  0.888100  1.0
  H  H503  1  0.053700  0.402000  0.888100  1.0
  H  H504  1  0.946300  0.598000  0.888100  1.0
  H  H505  1  0.147600  0.378800  0.409800  1.0
  H  H506  1  0.852400  0.621200  0.409800  1.0
  H  H507  1  0.621200  0.147600  0.409800  1.0
  H  H508  1  0.378800  0.852400  0.409800  1.0
  H  H509  1  0.352400  0.878800  0.090200  1.0
  H  H510  1  0.647600  0.121200  0.090200  1.0
  H  H511  1  0.878800  0.647600  0.090200  1.0
  H  H512  1  0.121200  0.352400  0.090200  1.0
  H  H513  1  0.852400  0.621200  0.590200  1.0
  H  H514  1  0.147600  0.378800  0.590200  1.0
  H  H515  1  0.378800  0.852400  0.590200  1.0
  H  H516  1  0.621200  0.147600  0.590200  1.0
  H  H517  1  0.647600  0.121200  0.909800  1.0
  H  H518  1  0.352400  0.878800  0.909800  1.0
  H  H519  1  0.121200  0.352400  0.909800  1.0
  H  H520  1  0.878800  0.647600  0.909800  1.0
  H  H521  1  0.949300  0.370700  0.367800  1.0
  H  H522  1  0.050700  0.629300  0.367800  1.0
  H  H523  1  0.629300  0.949300  0.367800  1.0
  H  H524  1  0.370700  0.050700  0.367800  1.0
  H  H525  1  0.550700  0.870700  0.132200  1.0
  H  H526  1  0.449300  0.129300  0.132200  1.0
  H  H527  1  0.870700  0.449300  0.132200  1.0
  H  H528  1  0.129300  0.550700  0.132200  1.0
  H  H529  1  0.050700  0.629300  0.632200  1.0
  H  H530  1  0.949300  0.370700  0.632200  1.0
  H  H531  1  0.370700  0.050700  0.632200  1.0
  H  H532  1  0.629300  0.949300  0.632200  1.0
  H  H533  1  0.449300  0.129300  0.867800  1.0
  H  H534  1  0.550700  0.870700  0.867800  1.0
  H  H535  1  0.129300  0.550700  0.867800  1.0
  H  H536  1  0.870700  0.449300  0.867800  1.0
  H  H537  1  0.968100  0.237500  0.435100  1.0
  H  H538  1  0.031900  0.762500  0.435100  1.0
  H  H539  1  0.762500  0.968100  0.435100  1.0
  H  H540  1  0.237500  0.031900  0.435100  1.0
  H  H541  1  0.531900  0.737500  0.064900  1.0
  H  H542  1  0.468100  0.262500  0.064900  1.0
  H  H543  1  0.737500  0.468100  0.064900  1.0
  H  H544  1  0.262500  0.531900  0.064900  1.0
  H  H545  1  0.031900  0.762500  0.564900  1.0
  H  H546  1  0.968100  0.237500  0.564900  1.0
  H  H547  1  0.237500  0.031900  0.564900  1.0
  H  H548  1  0.762500  0.968100  0.564900  1.0
  H  H549  1  0.468100  0.262500  0.935100  1.0
  H  H550  1  0.531900  0.737500  0.935100  1.0
  H  H551  1  0.262500  0.531900  0.935100  1.0
  H  H552  1  0.737500  0.468100  0.935100  1.0
  Pd  Pd553  1  0.000000  0.000000  0.347010  1.0
  Pd  Pd554  1  0.500000  0.500000  0.152990  1.0
  Pd  Pd555  1  0.000000  0.000000  0.652990  1.0
  Pd  Pd556  1  0.500000  0.500000  0.847010  1.0
  Pd  Pd557  1  0.063840  0.310630  0.500000  1.0
  Pd  Pd558  1  0.936160  0.689370  0.500000  1.0
  Pd  Pd559  1  0.689370  0.063840  0.500000  1.0
  Pd  Pd560  1  0.310630  0.936160  0.500000  1.0
  Pd  Pd561  1  0.436160  0.810630  0.000000  1.0
  Pd  Pd562  1  0.563840  0.189370  0.000000  1.0
  Pd  Pd563  1  0.810630  0.563840  0.000000  1.0
  Pd  Pd564  1  0.189370  0.436160  0.000000  1.0
  C  C565  1  0.242700  0.057000  0.340200  1
  C  C566  1  0.757300  0.943000  0.340200  1
  C  C567  1  0.943000  0.242700  0.340200  1
  C  C568  1  0.057000  0.757300  0.340200  1
  C  C569  1  0.257300  0.557000  0.159800  1
  C  C570  1  0.742700  0.443000  0.159800  1
  C  C571  1  0.557000  0.742700  0.159800  1
  C  C572  1  0.443000  0.257300  0.159800  1
  C  C573  1  0.757300  0.943000  0.659800  1
  C  C574  1  0.242700  0.057000  0.659800  1
  C  C575  1  0.057000  0.757300  0.659800  1
  C  C576  1  0.943000  0.242700  0.659800  1
  C  C577  1  0.742700  0.443000  0.840200  1
  C  C578  1  0.257300  0.557000  0.840200  1
  C  C579  1  0.443000  0.257300  0.840200  1
  C  C580  1  0.557000  0.742700  0.840200  1
  C  C581  1  0.182400  0.014400  0.326800  1
  C  C582  1  0.817600  0.985600  0.326800  1
  C  C583  1  0.985600  0.182400  0.326800  1
  C  C584  1  0.014400  0.817600  0.326800  1
  C  C585  1  0.317600  0.514400  0.173200  1
  C  C586  1  0.682400  0.485600  0.173200  1
  C  C587  1  0.514400  0.682400  0.173200  1
  C  C588  1  0.485600  0.317600  0.173200  1
  C  C589  1  0.817600  0.985600  0.673200  1
  C  C590  1  0.182400  0.014400  0.673200  1
  C  C591  1  0.014400  0.817600  0.673200  1
  C  C592  1  0.985600  0.182400  0.673200  1
  C  C593  1  0.682400  0.485600  0.826800  1
  C  C594  1  0.317600  0.514400  0.826800  1
  C  C595  1  0.485600  0.317600  0.826800  1
  C  C596  1  0.514400  0.682400  0.826800  1
  C  C597  1  0.185500  0.959100  0.297000  1
  C  C598  1  0.814500  0.040900  0.297000  1
  C  C599  1  0.040900  0.185500  0.297000  1
  C  C600  1  0.959100  0.814500  0.297000  1
  C  C601  1  0.314500  0.459100  0.203000  1
  C  C602  1  0.685500  0.540900  0.203000  1
  C  C603  1  0.459100  0.685500  0.203000  1
  C  C604  1  0.540900  0.314500  0.203000  1
  C  C605  1  0.814500  0.040900  0.703000  1
  C  C606  1  0.185500  0.959100  0.703000  1
  C  C607  1  0.959100  0.814500  0.703000  1
  C  C608  1  0.040900  0.185500  0.703000  1
  C  C609  1  0.685500  0.540900  0.797000  1
  C  C610  1  0.314500  0.459100  0.797000  1
  C  C611  1  0.540900  0.314500  0.797000  1
  C  C612  1  0.459100  0.685500  0.797000  1
  C  C613  1  0.178100  0.304600  0.390800  1
  C  C614  1  0.821900  0.695400  0.390800  1
  C  C615  1  0.695400  0.178100  0.390800  1
  C  C616  1  0.304600  0.821900  0.390800  1
  C  C617  1  0.321900  0.804600  0.109200  1
  C  C618  1  0.678100  0.195400  0.109200  1
  C  C619  1  0.804600  0.678100  0.109200  1
  C  C620  1  0.195400  0.321900  0.109200  1
  C  C621  1  0.821900  0.695400  0.609200  1
  C  C622  1  0.178100  0.304600  0.609200  1
  C  C623  1  0.304600  0.821900  0.609200  1
  C  C624  1  0.695400  0.178100  0.609200  1
  C  C625  1  0.678100  0.195400  0.890800  1
  C  C626  1  0.321900  0.804600  0.890800  1
  C  C627  1  0.195400  0.321900  0.890800  1
  C  C628  1  0.804600  0.678100  0.890800  1
  C  C629  1  0.129400  0.339700  0.415200  1
  C  C630  1  0.870600  0.660300  0.415200  1
  C  C631  1  0.660300  0.129400  0.415200  1
  C  C632  1  0.339700  0.870600  0.415200  1
  C  C633  1  0.370600  0.839700  0.084800  1
  C  C634  1  0.629400  0.160300  0.084800  1
  C  C635  1  0.839700  0.629400  0.084800  1
  C  C636  1  0.160300  0.370600  0.084800  1
  C  C637  1  0.870600  0.660300  0.584800  1
  C  C638  1  0.129400  0.339700  0.584800  1
  C  C639  1  0.339700  0.870600  0.584800  1
  C  C640  1  0.660300  0.129400  0.584800  1
  C  C641  1  0.629400  0.160300  0.915200  1
  C  C642  1  0.370600  0.839700  0.915200  1
  C  C643  1  0.160300  0.370600  0.915200  1
  C  C644  1  0.839700  0.629400  0.915200  1
  C  C645  1  0.070700  0.415700  0.410100  1
  C  C646  1  0.929300  0.584300  0.410100  1
  C  C647  1  0.584300  0.070700  0.410100  1
  C  C648  1  0.415700  0.929300  0.410100  1
  C  C649  1  0.429300  0.915700  0.089900  1
  C  C650  1  0.570700  0.084300  0.089900  1
  C  C651  1  0.915700  0.570700  0.089900  1
  C  C652  1  0.084300  0.429300  0.089900  1
  C  C653  1  0.929300  0.584300  0.589900  1
  C  C654  1  0.070700  0.415700  0.589900  1
  C  C655  1  0.415700  0.929300  0.589900  1
  C  C656  1  0.584300  0.070700  0.589900  1
  C  C657  1  0.570700  0.084300  0.910100  1
  C  C658  1  0.429300  0.915700  0.910100  1
  C  C659  1  0.084300  0.429300  0.910100  1
  C  C660  1  0.915700  0.570700  0.910100  1
  C  C661  1  0.897200  0.376900  0.476500  1
  C  C662  1  0.102800  0.623100  0.476500  1
  C  C663  1  0.623100  0.897200  0.476500  1
  C  C664  1  0.376900  0.102800  0.476500  1
  C  C665  1  0.602800  0.876900  0.023500  1
  C  C666  1  0.397200  0.123100  0.023500  1
  C  C667  1  0.876900  0.397200  0.023500  1
  C  C668  1  0.123100  0.602800  0.023500  1
  C  C669  1  0.102800  0.623100  0.523500  1
  C  C670  1  0.897200  0.376900  0.523500  1
  C  C671  1  0.376900  0.102800  0.523500  1
  C  C672  1  0.623100  0.897200  0.523500  1
  C  C673  1  0.397200  0.123100  0.976500  1
  C  C674  1  0.602800  0.876900  0.976500  1
  C  C675  1  0.123100  0.602800  0.976500  1
  C  C676  1  0.876900  0.397200  0.976500  1
  C  C677  1  0.894100  0.441700  0.500000  1
  C  C678  1  0.105900  0.558300  0.500000  1
  C  C679  1  0.558300  0.894100  0.500000  1
  C  C680  1  0.441700  0.105900  0.500000  1
  C  C681  1  0.605900  0.941700  0.000000  1
  C  C682  1  0.394100  0.058300  0.000000  1
  C  C683  1  0.941700  0.394100  0.000000  1
  C  C684  1  0.058300  0.605900  0.000000  1
  C  C685  1  0.839700  0.358700  0.449500  1
  C  C686  1  0.160300  0.641300  0.449500  1
  C  C687  1  0.641300  0.839700  0.449500  1
  C  C688  1  0.358700  0.160300  0.449500  1
  C  C689  1  0.660300  0.858700  0.050500  1
  C  C690  1  0.339700  0.141300  0.050500  1
  C  C691  1  0.858700  0.339700  0.050500  1
  C  C692  1  0.141300  0.660300  0.050500  1
  C  C693  1  0.160300  0.641300  0.550500  1
  C  C694  1  0.839700  0.358700  0.550500  1
  C  C695  1  0.358700  0.160300  0.550500  1
  C  C696  1  0.641300  0.839700  0.550500  1
  C  C697  1  0.339700  0.141300  0.949500  1
  C  C698  1  0.660300  0.858700  0.949500  1
  C  C699  1  0.141300  0.660300  0.949500  1
  C  C700  1  0.858700  0.339700  0.949500  1
  C  C701  1  0.265900  0.373200  0.500000  1.0
  C  C702  1  0.734100  0.626800  0.500000  1.0
  C  C703  1  0.626800  0.265900  0.500000  1.0
  C  C704  1  0.373200  0.734100  0.500000  1.0
  C  C705  1  0.234100  0.873200  0.000000  1.0
  C  C706  1  0.765900  0.126800  0.000000  1.0
  C  C707  1  0.873200  0.765900  0.000000  1.0
  C  C708  1  0.126800  0.234100  0.000000  1.0
  C  C709  1  0.308900  0.223200  0.324700  1.0
  C  C710  1  0.691100  0.776800  0.324700  1.0
  C  C711  1  0.776800  0.308900  0.324700  1.0
  C  C712  1  0.223200  0.691100  0.324700  1.0
  C  C713  1  0.191100  0.723200  0.175300  1.0
  C  C714  1  0.808900  0.276800  0.175300  1.0
  C  C715  1  0.723200  0.808900  0.175300  1.0
  C  C716  1  0.276800  0.191100  0.175300  1.0
  C  C717  1  0.691100  0.776800  0.675300  1.0
  C  C718  1  0.308900  0.223200  0.675300  1.0
  C  C719  1  0.223200  0.691100  0.675300  1.0
  C  C720  1  0.776800  0.308900  0.675300  1.0
  C  C721  1  0.808900  0.276800  0.824700  1.0
  C  C722  1  0.191100  0.723200  0.824700  1.0
  C  C723  1  0.276800  0.191100  0.824700  1.0
  C  C724  1  0.723200  0.808900  0.824700  1.0
  C  C725  1  0.373900  0.239400  0.307200  1.0
  C  C726  1  0.626100  0.760600  0.307200  1.0
  C  C727  1  0.760600  0.373900  0.307200  1.0
  C  C728  1  0.239400  0.626100  0.307200  1.0
  C  C729  1  0.126100  0.739400  0.192800  1.0
  C  C730  1  0.873900  0.260600  0.192800  1.0
  C  C731  1  0.739400  0.873900  0.192800  1.0
  C  C732  1  0.260600  0.126100  0.192800  1.0
  C  C733  1  0.626100  0.760600  0.692800  1.0
  C  C734  1  0.373900  0.239400  0.692800  1.0
  C  C735  1  0.239400  0.626100  0.692800  1.0
  C  C736  1  0.760600  0.373900  0.692800  1.0
  C  C737  1  0.873900  0.260600  0.807200  1.0
  C  C738  1  0.126100  0.739400  0.807200  1.0
  C  C739  1  0.260600  0.126100  0.807200  1.0
  C  C740  1  0.739400  0.873900  0.807200  1.0
  C  C741  1  0.383100  0.269400  0.264100  1.0
  C  C742  1  0.616900  0.730600  0.264100  1.0
  C  C743  1  0.730600  0.383100  0.264100  1.0
  C  C744  1  0.269400  0.616900  0.264100  1.0
  C  C745  1  0.116900  0.769400  0.235900  1.0
  C  C746  1  0.883100  0.230600  0.235900  1.0
  C  C747  1  0.769400  0.883100  0.235900  1.0
  C  C748  1  0.230600  0.116900  0.235900  1.0
  C  C749  1  0.616900  0.730600  0.735900  1.0
  C  C750  1  0.383100  0.269400  0.735900  1.0
  C  C751  1  0.269400  0.616900  0.735900  1.0
  C  C752  1  0.730600  0.383100  0.735900  1.0
  C  C753  1  0.883100  0.230600  0.764100  1.0
  C  C754  1  0.116900  0.769400  0.764100  1.0
  C  C755  1  0.230600  0.116900  0.764100  1.0
  C  C756  1  0.769400  0.883100  0.764100  1.0
  C  C757  1  0.399000  0.206600  0.366600  1.0
  C  C758  1  0.601000  0.793400  0.366600  1.0
  C  C759  1  0.793400  0.399000  0.366600  1.0
  C  C760  1  0.206600  0.601000  0.366600  1.0
  C  C761  1  0.101000  0.706600  0.133400  1.0
  C  C762  1  0.899000  0.293400  0.133400  1.0
  C  C763  1  0.706600  0.899000  0.133400  1.0
  C  C764  1  0.293400  0.101000  0.133400  1.0
  C  C765  1  0.601000  0.793400  0.633400  1.0
  C  C766  1  0.399000  0.206600  0.633400  1.0
  C  C767  1  0.206600  0.601000  0.633400  1.0
  C  C768  1  0.793400  0.399000  0.633400  1.0
  C  C769  1  0.899000  0.293400  0.866600  1.0
  C  C770  1  0.101000  0.706600  0.866600  1.0
  C  C771  1  0.293400  0.101000  0.866600  1.0
  C  C772  1  0.706600  0.899000  0.866600  1.0
  C  C773  1  0.151200  0.195300  0.340000  1.0
  C  C774  1  0.848800  0.804700  0.340000  1.0
  C  C775  1  0.804700  0.151200  0.340000  1.0
  C  C776  1  0.195300  0.848800  0.340000  1.0
  C  C777  1  0.348800  0.695300  0.160000  1.0
  C  C778  1  0.651200  0.304700  0.160000  1.0
  C  C779  1  0.695300  0.651200  0.160000  1.0
  C  C780  1  0.304700  0.348800  0.160000  1.0
  C  C781  1  0.848800  0.804700  0.660000  1.0
  C  C782  1  0.151200  0.195300  0.660000  1.0
  C  C783  1  0.195300  0.848800  0.660000  1.0
  C  C784  1  0.804700  0.151200  0.660000  1.0
  C  C785  1  0.651200  0.304700  0.840000  1.0
  C  C786  1  0.348800  0.695300  0.840000  1.0
  C  C787  1  0.304700  0.348800  0.840000  1.0
  C  C788  1  0.695300  0.651200  0.840000  1.0
  C  C789  1  0.086100  0.154800  0.327700  1.0
  C  C790  1  0.913900  0.845200  0.327700  1.0
  C  C791  1  0.845200  0.086100  0.327700  1.0
  C  C792  1  0.154800  0.913900  0.327700  1.0
  C  C793  1  0.413900  0.654800  0.172300  1.0
  C  C794  1  0.586100  0.345200  0.172300  1.0
  C  C795  1  0.654800  0.586100  0.172300  1.0
  C  C796  1  0.345200  0.413900  0.172300  1.0
  C  C797  1  0.913900  0.845200  0.672300  1.0
  C  C798  1  0.086100  0.154800  0.672300  1.0
  C  C799  1  0.154800  0.913900  0.672300  1.0
  C  C800  1  0.845200  0.086100  0.672300  1.0
  C  C801  1  0.586100  0.345200  0.827700  1.0
  C  C802  1  0.413900  0.654800  0.827700  1.0
  C  C803  1  0.345200  0.413900  0.827700  1.0
  C  C804  1  0.654800  0.586100  0.827700  1.0
  C  C805  1  0.035000  0.150000  0.292900  1.0
  C  C806  1  0.965000  0.850000  0.292900  1.0
  C  C807  1  0.850000  0.035000  0.292900  1.0
  C  C808  1  0.150000  0.965000  0.292900  1.0
  C  C809  1  0.465000  0.650000  0.207100  1.0
  C  C810  1  0.535000  0.350000  0.207100  1.0
  C  C811  1  0.650000  0.535000  0.207100  1.0
  C  C812  1  0.350000  0.465000  0.207100  1.0
  C  C813  1  0.965000  0.850000  0.707100  1.0
  C  C814  1  0.035000  0.150000  0.707100  1.0
  C  C815  1  0.150000  0.965000  0.707100  1.0
  C  C816  1  0.850000  0.035000  0.707100  1.0
  C  C817  1  0.535000  0.350000  0.792900  1.0
  C  C818  1  0.465000  0.650000  0.792900  1.0
  C  C819  1  0.350000  0.465000  0.792900  1.0
  C  C820  1  0.650000  0.535000  0.792900  1.0
  C  C821  1  0.282500  0.277800  0.449200  1.0
  C  C822  1  0.717500  0.722200  0.449200  1.0
  C  C823  1  0.722200  0.282500  0.449200  1.0
  C  C824  1  0.277800  0.717500  0.449200  1.0
  C  C825  1  0.217500  0.777800  0.050800  1.0
  C  C826  1  0.782500  0.222200  0.050800  1.0
  C  C827  1  0.777800  0.782500  0.050800  1.0
  C  C828  1  0.222200  0.217500  0.050800  1.0
  C  C829  1  0.717500  0.722200  0.550800  1.0
  C  C830  1  0.282500  0.277800  0.550800  1.0
  C  C831  1  0.277800  0.717500  0.550800  1.0
  C  C832  1  0.722200  0.282500  0.550800  1.0
  C  C833  1  0.782500  0.222200  0.949200  1.0
  C  C834  1  0.217500  0.777800  0.949200  1.0
  C  C835  1  0.222200  0.217500  0.949200  1.0
  C  C836  1  0.777800  0.782500  0.949200  1.0
  C  C837  1  0.238600  0.309400  0.475600  1.0
  C  C838  1  0.761400  0.690600  0.475600  1.0
  C  C839  1  0.690600  0.238600  0.475600  1.0
  C  C840  1  0.309400  0.761400  0.475600  1.0
  C  C841  1  0.261400  0.809400  0.024400  1.0
  C  C842  1  0.738600  0.190600  0.024400  1.0
  C  C843  1  0.809400  0.738600  0.024400  1.0
  C  C844  1  0.190600  0.261400  0.024400  1.0
  C  C845  1  0.761400  0.690600  0.524400  1.0
  C  C846  1  0.238600  0.309400  0.524400  1.0
  C  C847  1  0.309400  0.761400  0.524400  1.0
  C  C848  1  0.690600  0.238600  0.524400  1.0
  C  C849  1  0.738600  0.190600  0.975600  1.0
  C  C850  1  0.261400  0.809400  0.975600  1.0
  C  C851  1  0.190600  0.261400  0.975600  1.0
  C  C852  1  0.809400  0.738600  0.975600  1.0
  C  C853  1  0.018300  0.359600  0.416800  1.0
  C  C854  1  0.981700  0.640400  0.416800  1.0
  C  C855  1  0.640400  0.018300  0.416800  1.0
  C  C856  1  0.359600  0.981700  0.416800  1.0
  C  C857  1  0.481700  0.859600  0.083200  1.0
  C  C858  1  0.518300  0.140400  0.083200  1.0
  C  C859  1  0.859600  0.518300  0.083200  1.0
  C  C860  1  0.140400  0.481700  0.083200  1.0
  C  C861  1  0.981700  0.640400  0.583200  1.0
  C  C862  1  0.018300  0.359600  0.583200  1.0
  C  C863  1  0.359600  0.981700  0.583200  1.0
  C  C864  1  0.640400  0.018300  0.583200  1.0
  C  C865  1  0.518300  0.140400  0.916800  1.0
  C  C866  1  0.481700  0.859600  0.916800  1.0
  C  C867  1  0.140400  0.481700  0.916800  1.0
  C  C868  1  0.859600  0.518300  0.916800  1.0
  C  C869  1  0.101800  0.414200  0.411700  1.0
  C  C870  1  0.898200  0.585800  0.411700  1.0
  C  C871  1  0.585800  0.101800  0.411700  1.0
  C  C872  1  0.414200  0.898200  0.411700  1.0
  C  C873  1  0.398200  0.914200  0.088300  1.0
  C  C874  1  0.601800  0.085800  0.088300  1.0
  C  C875  1  0.914200  0.601800  0.088300  1.0
  C  C876  1  0.085800  0.398200  0.088300  1.0
  C  C877  1  0.898200  0.585800  0.588300  1.0
  C  C878  1  0.101800  0.414200  0.588300  1.0
  C  C879  1  0.414200  0.898200  0.588300  1.0
  C  C880  1  0.585800  0.101800  0.588300  1.0
  C  C881  1  0.601800  0.085800  0.911700  1.0
  C  C882  1  0.398200  0.914200  0.911700  1.0
  C  C883  1  0.085800  0.398200  0.911700  1.0
  C  C884  1  0.914200  0.601800  0.911700  1.0
  C  C885  1  0.956200  0.347900  0.392800  1.0
  C  C886  1  0.043800  0.652100  0.392800  1.0
  C  C887  1  0.652100  0.956200  0.392800  1.0
  C  C888  1  0.347900  0.043800  0.392800  1.0
  C  C889  1  0.543800  0.847900  0.107200  1.0
  C  C890  1  0.456200  0.152100  0.107200  1.0
  C  C891  1  0.847900  0.456200  0.107200  1.0
  C  C892  1  0.152100  0.543800  0.107200  1.0
  C  C893  1  0.043800  0.652100  0.607200  1.0
  C  C894  1  0.956200  0.347900  0.607200  1.0
  C  C895  1  0.347900  0.043800  0.607200  1.0
  C  C896  1  0.652100  0.956200  0.607200  1.0
  C  C897  1  0.456200  0.152100  0.892800  1.0
  C  C898  1  0.543800  0.847900  0.892800  1.0
  C  C899  1  0.152100  0.543800  0.892800  1.0
  C  C900  1  0.847900  0.456200  0.892800  1.0
  C  C901  1  0.140900  0.090400  0.372900  1.0
  C  C902  1  0.859100  0.909600  0.372900  1.0
  C  C903  1  0.909600  0.140900  0.372900  1.0
  C  C904  1  0.090400  0.859100  0.372900  1.0
  C  C905  1  0.359100  0.590400  0.127100  1.0
  C  C906  1  0.640900  0.409600  0.127100  1.0
  C  C907  1  0.590400  0.640900  0.127100  1.0
  C  C908  1  0.409600  0.359100  0.127100  1.0
  C  C909  1  0.859100  0.909600  0.627100  1.0
  C  C910  1  0.140900  0.090400  0.627100  1.0
  C  C911  1  0.090400  0.859100  0.627100  1.0
  C  C912  1  0.909600  0.140900  0.627100  1.0
  C  C913  1  0.640900  0.409600  0.872900  1.0
  C  C914  1  0.359100  0.590400  0.872900  1.0
  C  C915  1  0.409600  0.359100  0.872900  1.0
  C  C916  1  0.590400  0.640900  0.872900  1.0
  C  C917  1  0.168100  0.234900  0.441900  1.0
  C  C918  1  0.831900  0.765100  0.441900  1.0
  C  C919  1  0.765100  0.168100  0.441900  1.0
  C  C920  1  0.234900  0.831900  0.441900  1.0
  C  C921  1  0.331900  0.734900  0.058100  1.0
  C  C922  1  0.668100  0.265100  0.058100  1.0
  C  C923  1  0.734900  0.668100  0.058100  1.0
  C  C924  1  0.265100  0.331900  0.058100  1.0
  C  C925  1  0.831900  0.765100  0.558100  1.0
  C  C926  1  0.168100  0.234900  0.558100  1.0
  C  C927  1  0.234900  0.831900  0.558100  1.0
  C  C928  1  0.765100  0.168100  0.558100  1.0
  C  C929  1  0.668100  0.265100  0.941900  1.0
  C  C930  1  0.331900  0.734900  0.941900  1.0
  C  C931  1  0.265100  0.331900  0.941900  1.0
  C  C932  1  0.734900  0.668100  0.941900  1.0
  C  C933  1  0.939400  0.283600  0.442200  1.0
  C  C934  1  0.060600  0.716400  0.442200  1.0
  C  C935  1  0.716400  0.939400  0.442200  1.0
  C  C936  1  0.283600  0.060600  0.442200  1.0
  C  C937  1  0.560600  0.783600  0.057800  1.0
  C  C938  1  0.439400  0.216400  0.057800  1.0
  C  C939  1  0.783600  0.439400  0.057800  1.0
  C  C940  1  0.216400  0.560600  0.057800  1.0
  C  C941  1  0.060600  0.716400  0.557800  1.0
  C  C942  1  0.939400  0.283600  0.557800  1.0
  C  C943  1  0.283600  0.060600  0.557800  1.0
  C  C944  1  0.716400  0.939400  0.557800  1.0
  C  C945  1  0.439400  0.216400  0.942200  1.0
  C  C946  1  0.560600  0.783600  0.942200  1.0
  C  C947  1  0.216400  0.560600  0.942200  1.0
  C  C948  1  0.783600  0.439400  0.942200  1.0
  N  N949  1  0.212300  0.111300  0.368500  1
  N  N950  1  0.787700  0.888700  0.368500  1
  N  N951  1  0.888700  0.212300  0.368500  1
  N  N952  1  0.111300  0.787700  0.368500  1
  N  N953  1  0.287700  0.611300  0.131500  1
  N  N954  1  0.712300  0.388700  0.131500  1
  N  N955  1  0.611300  0.712300  0.131500  1
  N  N956  1  0.388700  0.287700  0.131500  1
  N  N957  1  0.787700  0.888700  0.631500  1
  N  N958  1  0.212300  0.111300  0.631500  1
  N  N959  1  0.111300  0.787700  0.631500  1
  N  N960  1  0.888700  0.212300  0.631500  1
  N  N961  1  0.712300  0.388700  0.868500  1
  N  N962  1  0.287700  0.611300  0.868500  1
  N  N963  1  0.388700  0.287700  0.868500  1
  N  N964  1  0.611300  0.712300  0.868500  1
  N  N965  1  0.111400  0.039100  0.349400  1
  N  N966  1  0.888600  0.960900  0.349400  1
  N  N967  1  0.960900  0.111400  0.349400  1
  N  N968  1  0.039100  0.888600  0.349400  1
  N  N969  1  0.388600  0.539100  0.150600  1
  N  N970  1  0.611400  0.460900  0.150600  1
  N  N971  1  0.539100  0.611400  0.150600  1
  N  N972  1  0.460900  0.388600  0.150600  1
  N  N973  1  0.888600  0.960900  0.650600  1
  N  N974  1  0.111400  0.039100  0.650600  1
  N  N975  1  0.039100  0.888600  0.650600  1
  N  N976  1  0.960900  0.111400  0.650600  1
  N  N977  1  0.611400  0.460900  0.849400  1
  N  N978  1  0.388600  0.539100  0.849400  1
  N  N979  1  0.460900  0.388600  0.849400  1
  N  N980  1  0.539100  0.611400  0.849400  1
  N  N981  1  0.205300  0.234800  0.407800  1
  N  N982  1  0.794700  0.765200  0.407800  1
  N  N983  1  0.765200  0.205300  0.407800  1
  N  N984  1  0.234800  0.794700  0.407800  1
  N  N985  1  0.294700  0.734800  0.092200  1
  N  N986  1  0.705300  0.265200  0.092200  1
  N  N987  1  0.734800  0.705300  0.092200  1
  N  N988  1  0.265200  0.294700  0.092200  1
  N  N989  1  0.794700  0.765200  0.592200  1
  N  N990  1  0.205300  0.234800  0.592200  1
  N  N991  1  0.234800  0.794700  0.592200  1
  N  N992  1  0.765200  0.205300  0.592200  1
  N  N993  1  0.705300  0.265200  0.907800  1
  N  N994  1  0.294700  0.734800  0.907800  1
  N  N995  1  0.265200  0.294700  0.907800  1
  N  N996  1  0.734800  0.705300  0.907800  1
  N  N997  1  0.124500  0.293700  0.448500  1
  N  N998  1  0.875500  0.706300  0.448500  1
  N  N999  1  0.706300  0.124500  0.448500  1
  N  N1000  1  0.293700  0.875500  0.448500  1
  N  N1001  1  0.375500  0.793700  0.051500  1
  N  N1002  1  0.624500  0.206300  0.051500  1
  N  N1003  1  0.793700  0.624500  0.051500  1
  N  N1004  1  0.206300  0.375500  0.051500  1
  N  N1005  1  0.875500  0.706300  0.551500  1
  N  N1006  1  0.124500  0.293700  0.551500  1
  N  N1007  1  0.293700  0.875500  0.551500  1
  N  N1008  1  0.706300  0.124500  0.551500  1
  N  N1009  1  0.624500  0.206300  0.948500  1
  N  N1010  1  0.375500  0.793700  0.948500  1
  N  N1011  1  0.206300  0.375500  0.948500  1
  N  N1012  1  0.793700  0.624500  0.948500  1
  N  N1013  1  0.961800  0.330200  0.468600  1
  N  N1014  1  0.038200  0.669800  0.468600  1
  N  N1015  1  0.669800  0.961800  0.468600  1
  N  N1016  1  0.330200  0.038200  0.468600  1
  N  N1017  1  0.538200  0.830200  0.031400  1
  N  N1018  1  0.461800  0.169800  0.031400  1
  N  N1019  1  0.830200  0.461800  0.031400  1
  N  N1020  1  0.169800  0.538200  0.031400  1
  N  N1021  1  0.038200  0.669800  0.531400  1
  N  N1022  1  0.961800  0.330200  0.531400  1
  N  N1023  1  0.330200  0.038200  0.531400  1
  N  N1024  1  0.669800  0.961800  0.531400  1
  N  N1025  1  0.461800  0.169800  0.968600  1
  N  N1026  1  0.538200  0.830200  0.968600  1
  N  N1027  1  0.169800  0.538200  0.968600  1
  N  N1028  1  0.830200  0.461800  0.968600  1
  N  N1029  1  0.871000  0.304900  0.424900  1
  N  N1030  1  0.129000  0.695100  0.424900  1
  N  N1031  1  0.695100  0.871000  0.424900  1
  N  N1032  1  0.304900  0.129000  0.424900  1
  N  N1033  1  0.629000  0.804900  0.075100  1
  N  N1034  1  0.371000  0.195100  0.075100  1
  N  N1035  1  0.804900  0.371000  0.075100  1
  N  N1036  1  0.195100  0.629000  0.075100  1
  N  N1037  1  0.129000  0.695100  0.575100  1
  N  N1038  1  0.871000  0.304900  0.575100  1
  N  N1039  1  0.304900  0.129000  0.575100  1
  N  N1040  1  0.695100  0.871000  0.575100  1
  N  N1041  1  0.371000  0.195100  0.924900  1
  N  N1042  1  0.629000  0.804900  0.924900  1
  N  N1043  1  0.195100  0.629000  0.924900  1
  N  N1044  1  0.804900  0.371000  0.924900  1
  N  N1045  1  0.321800  0.206700  0.364600  1.0
  N  N1046  1  0.678200  0.793300  0.364600  1.0
  N  N1047  1  0.793300  0.321800  0.364600  1.0
  N  N1048  1  0.206700  0.678200  0.364600  1.0
  N  N1049  1  0.178200  0.706700  0.135400  1.0
  N  N1050  1  0.821800  0.293300  0.135400  1.0
  N  N1051  1  0.706700  0.821800  0.135400  1.0
  N  N1052  1  0.293300  0.178200  0.135400  1.0
  N  N1053  1  0.678200  0.793300  0.635400  1.0
  N  N1054  1  0.321800  0.206700  0.635400  1.0
  N  N1055  1  0.206700  0.678200  0.635400  1.0
  N  N1056  1  0.793300  0.321800  0.635400  1.0
  N  N1057  1  0.821800  0.293300  0.864600  1.0
  N  N1058  1  0.178200  0.706700  0.864600  1.0
  N  N1059  1  0.293300  0.178200  0.864600  1.0
  N  N1060  1  0.706700  0.821800  0.864600  1.0
  N  N1061  1  0.434900  0.236500  0.331100  1.0
  N  N1062  1  0.565100  0.763500  0.331100  1.0
  N  N1063  1  0.763500  0.434900  0.331100  1.0
  N  N1064  1  0.236500  0.565100  0.331100  1.0
  N  N1065  1  0.065100  0.736500  0.168900  1.0
  N  N1066  1  0.934900  0.263500  0.168900  1.0
  N  N1067  1  0.736500  0.934900  0.168900  1.0
  N  N1068  1  0.263500  0.065100  0.168900  1.0
  N  N1069  1  0.565100  0.763500  0.668900  1.0
  N  N1070  1  0.434900  0.236500  0.668900  1.0
  N  N1071  1  0.236500  0.565100  0.668900  1.0
  N  N1072  1  0.763500  0.434900  0.668900  1.0
  N  N1073  1  0.934900  0.263500  0.831100  1.0
  N  N1074  1  0.065100  0.736500  0.831100  1.0
  N  N1075  1  0.263500  0.065100  0.831100  1.0
  N  N1076  1  0.736500  0.934900  0.831100  1.0
  N  N1077  1  0.188300  0.152100  0.369100  1.0
  N  N1078  1  0.811700  0.847900  0.369100  1.0
  N  N1079  1  0.847900  0.188300  0.369100  1.0
  N  N1080  1  0.152100  0.811700  0.369100  1.0
  N  N1081  1  0.311700  0.652100  0.130900  1.0
  N  N1082  1  0.688300  0.347900  0.130900  1.0
  N  N1083  1  0.652100  0.688300  0.130900  1.0
  N  N1084  1  0.347900  0.311700  0.130900  1.0
  N  N1085  1  0.811700  0.847900  0.630900  1.0
  N  N1086  1  0.188300  0.152100  0.630900  1.0
  N  N1087  1  0.152100  0.811700  0.630900  1.0
  N  N1088  1  0.847900  0.188300  0.630900  1.0
  N  N1089  1  0.688300  0.347900  0.869100  1.0
  N  N1090  1  0.311700  0.652100  0.869100  1.0
  N  N1091  1  0.347900  0.311700  0.869100  1.0
  N  N1092  1  0.652100  0.688300  0.869100  1.0
  N  N1093  1  0.081500  0.086700  0.349500  1.0
  N  N1094  1  0.918500  0.913300  0.349500  1.0
  N  N1095  1  0.913300  0.081500  0.349500  1.0
  N  N1096  1  0.086700  0.918500  0.349500  1.0
  N  N1097  1  0.418500  0.586700  0.150500  1.0
  N  N1098  1  0.581500  0.413300  0.150500  1.0
  N  N1099  1  0.586700  0.581500  0.150500  1.0
  N  N1100  1  0.413300  0.418500  0.150500  1.0
  N  N1101  1  0.918500  0.913300  0.650500  1.0
  N  N1102  1  0.081500  0.086700  0.650500  1.0
  N  N1103  1  0.086700  0.918500  0.650500  1.0
  N  N1104  1  0.913300  0.081500  0.650500  1.0
  N  N1105  1  0.581500  0.413300  0.849500  1.0
  N  N1106  1  0.418500  0.586700  0.849500  1.0
  N  N1107  1  0.413300  0.418500  0.849500  1.0
  N  N1108  1  0.586700  0.581500  0.849500  1.0
  N  N1109  1  0.236600  0.227200  0.426800  1.0
  N  N1110  1  0.763400  0.772800  0.426800  1.0
  N  N1111  1  0.772800  0.236600  0.426800  1.0
  N  N1112  1  0.227200  0.763400  0.426800  1.0
  N  N1113  1  0.263400  0.727200  0.073200  1.0
  N  N1114  1  0.736600  0.272800  0.073200  1.0
  N  N1115  1  0.727200  0.736600  0.073200  1.0
  N  N1116  1  0.272800  0.263400  0.073200  1.0
  N  N1117  1  0.763400  0.772800  0.573200  1.0
  N  N1118  1  0.236600  0.227200  0.573200  1.0
  N  N1119  1  0.227200  0.763400  0.573200  1.0
  N  N1120  1  0.772800  0.236600  0.573200  1.0
  N  N1121  1  0.736600  0.272800  0.926800  1.0
  N  N1122  1  0.263400  0.727200  0.926800  1.0
  N  N1123  1  0.272800  0.263400  0.926800  1.0
  N  N1124  1  0.727200  0.736600  0.926800  1.0
  N  N1125  1  0.165600  0.285400  0.471400  1.0
  N  N1126  1  0.834400  0.714600  0.471400  1.0
  N  N1127  1  0.714600  0.165600  0.471400  1.0
  N  N1128  1  0.285400  0.834400  0.471400  1.0
  N  N1129  1  0.334400  0.785400  0.028600  1.0
  N  N1130  1  0.665600  0.214600  0.028600  1.0
  N  N1131  1  0.785400  0.665600  0.028600  1.0
  N  N1132  1  0.214600  0.334400  0.028600  1.0
  N  N1133  1  0.834400  0.714600  0.528600  1.0
  N  N1134  1  0.165600  0.285400  0.528600  1.0
  N  N1135  1  0.285400  0.834400  0.528600  1.0
  N  N1136  1  0.714600  0.165600  0.528600  1.0
  N  N1137  1  0.665600  0.214600  0.971400  1.0
  N  N1138  1  0.334400  0.785400  0.971400  1.0
  N  N1139  1  0.214600  0.334400  0.971400  1.0
  N  N1140  1  0.785400  0.665600  0.971400  1.0
  N  N1141  1  0.002300  0.316600  0.450800  1.0
  N  N1142  1  0.997700  0.683400  0.450800  1.0
  N  N1143  1  0.683400  0.002300  0.450800  1.0
  N  N1144  1  0.316600  0.997700  0.450800  1.0
  N  N1145  1  0.497700  0.816600  0.049200  1.0
  N  N1146  1  0.502300  0.183400  0.049200  1.0
  N  N1147  1  0.816600  0.502300  0.049200  1.0
  N  N1148  1  0.183400  0.497700  0.049200  1.0
  N  N1149  1  0.997700  0.683400  0.549200  1.0
  N  N1150  1  0.002300  0.316600  0.549200  1.0
  N  N1151  1  0.316600  0.997700  0.549200  1.0
  N  N1152  1  0.683400  0.002300  0.549200  1.0
  N  N1153  1  0.502300  0.183400  0.950800  1.0
  N  N1154  1  0.497700  0.816600  0.950800  1.0
  N  N1155  1  0.183400  0.497700  0.950800  1.0
  N  N1156  1  0.816600  0.502300  0.950800  1.0
  N  N1157  1  0.297900  0.094300  0.410800  1.0
  N  N1158  1  0.702100  0.905700  0.410800  1.0
  N  N1159  1  0.905700  0.297900  0.410800  1.0
  N  N1160  1  0.094300  0.702100  0.410800  1.0
  N  N1161  1  0.202100  0.594300  0.089200  1.0
  N  N1162  1  0.797900  0.405700  0.089200  1.0
  N  N1163  1  0.594300  0.797900  0.089200  1.0
  N  N1164  1  0.405700  0.202100  0.089200  1.0
  N  N1165  1  0.702100  0.905700  0.589200  1.0
  N  N1166  1  0.297900  0.094300  0.589200  1.0
  N  N1167  1  0.094300  0.702100  0.589200  1.0
  N  N1168  1  0.905700  0.297900  0.589200  1.0
  N  N1169  1  0.797900  0.405700  0.910800  1.0
  N  N1170  1  0.202100  0.594300  0.910800  1.0
  N  N1171  1  0.405700  0.202100  0.910800  1.0
  N  N1172  1  0.594300  0.797900  0.910800  1.0
