
#######################################################################
#
#                 Cambridge Crystallographic Data Centre
#                                CCDC 
#
#######################################################################
#
# If this CIF has been generated from an entry in the Cambridge 
# Structural Database, then it will include bibliographic, chemical, 
# crystal, experimental, refinement or atomic coordinate data resulting 
# from the CCDC's data processing and validation procedures.
#
#######################################################################

data_WULQIE
_chemical_name_common            MOP-100
_chemical_formula_moiety         'C96 H96 B8 N64 Pd6 4+,4(N1 O3 1-),25(H2 O1)'
_chemical_name_systematic        
"octakis(\m~3~-tetrakis(Imidazolyl)borate-N,N',N'')-hexa-palladium(ii) tetranitrate pentacosahydrate"
_symmetry_cell_setting           triclinic
_symmetry_space_group_name_H-M   'P -1'
_symmetry_Int_Tables_number      2
_space_group_name_Hall           '-P 1'
loop_
_symmetry_equiv_pos_site_id
_symmetry_equiv_pos_as_xyz
1 x,y,z
2 -x,-y,-z
_cell_length_a                   19.4691(5)
_cell_length_b                   19.7241(5)
_cell_length_c                   23.4120(9)
_cell_angle_alpha                110.754(2)
_cell_angle_beta                 93.660(2)
_cell_angle_gamma                116.5570(10)
_cell_volume                     7249.69
_exptl_crystal_colour            colorless
_exptl_crystal_description       rod
_cell_formula_units_Z            2
loop_
_atom_site_label
_atom_site_type_symbol
_atom_site_fract_x
_atom_site_fract_y
_atom_site_fract_z
C1 C -0.1290(3) -0.0670(3) 0.2040(2)
H1 H -0.1745 -0.0978 0.2159
C2 C -0.1162(2) -0.0912(3) 0.1456(2)
H2 H -0.1523 -0.1411 0.1090
C3 C -0.0127(3) 0.0289(3) 0.2072(2)
H3 H 0.0380 0.0784 0.2220
C4 C 0.0421(3) 0.2166(3) 0.3301(2)
H4 H 0.0020 0.2241 0.3128
C5 C 0.1190(3) 0.2718(3) 0.3517(2)
H5 H 0.1432 0.3260 0.3522
C6 C 0.1039(3) 0.1645(3) 0.3635(2)
H6 H 0.1144 0.1269 0.3737
C7 C -0.0535(3) 0.0093(3) 0.4057(2)
H7 H -0.0742 0.0400 0.4323
C8 C -0.0330(3) -0.0423(3) 0.4169(2)
H8 H -0.0371 -0.0545 0.4527
C9 C -0.0095(3) -0.0416(3) 0.3287(2)
H9 H 0.0065 -0.0530 0.2905
C10 C -0.1904(3) 0.0462(3) 0.2922(2)
H10 H -0.2128 0.0042 0.2497
C11 C -0.2269(2) 0.0838(3) 0.3278(2)
H11 H -0.2801 0.0709 0.3145
C12 C -0.1111(3) 0.1382(3) 0.3853(2)
H12 H -0.0656 0.1719 0.4206
C13 C -0.1915(4) -0.4853(3) -0.0008(3)
H13 H -0.1606 -0.4791 -0.0303
C14 C -0.2605(4) -0.5519(4) -0.0128(3)
H14 H -0.2862 -0.6017 -0.0513
C15 C -0.2288(5) -0.4622(5) 0.0820(4)
H15 H -0.2288 -0.4372 0.1249
C16 C -0.1455(3) -0.2781(3) 0.1853(2)
H16 H -0.1940 -0.2912 0.1604
C17 C -0.1179(3) -0.2359(3) 0.2476(2)
H17 H -0.1441 -0.2139 0.2750
C18 C -0.0310(3) -0.2670(2) 0.2137(2)
H18 H 0.0159 -0.2707 0.2120
C19 C -0.1028(5) -0.2976(4) 0.0001(3)
H19 H -0.1338 -0.3515 -0.0344
C20 C -0.0746(4) -0.2246(4) -0.0037(3)
H20 H -0.0820 -0.2179 -0.0414
C21 C -0.0392(2) -0.2002(2) 0.0918(2)
H21 H -0.0158 -0.1707 0.1362
C22 C -0.0207(3) -0.4255(3) 0.0990(2)
H22 H -0.0635 -0.4698 0.1039
C23 C 0.0541(3) -0.4153(3) 0.0985(2)
H23 H 0.0722 -0.4513 0.1025
C24 C 0.0510(2) -0.3118(2) 0.0878(2)
H24 H 0.0675 -0.2612 0.0833
C25 C 0.2064(3) 0.2004(3) 0.5424(2)
H25 H 0.1750 0.1897 0.5709
C26 C 0.2036(3) 0.2405(3) 0.5076(2)
H26 H 0.1701 0.2637 0.5076
C27 C 0.2905(3) 0.2033(3) 0.4865(2)
H27 H 0.3298 0.1949 0.4681
C28 C 0.2743(6) 0.1137(5) 0.6613(3)
H28 H 0.2535 0.0551 0.6466
C29 C 0.2921(6) 0.1664(4) 0.7214(3)
H29 H 0.2876 0.1519 0.7562
C30 C 0.3147(5) 0.2310(4) 0.6667(3)
H30 H 0.3305 0.2762 0.6550
C31 C 0.2055(3) -0.0411(3) 0.5226(2)
H31 H 0.2375 -0.0409 0.5552
C32 C 0.1438(3) -0.1095(3) 0.47631(19)
H32 H 0.1241 -0.1657 0.4706
C33 C 0.1581(3) -0.0007(3) 0.4631(2)
H33 H 0.1501 0.0329 0.4459
C34 C 0.4367(3) 0.1885(3) 0.5736(2)
H34 H 0.4521 0.2340 0.6137
C35 C 0.4868(3) 0.1719(3) 0.5406(2)
H35 H 0.5433 0.2045 0.5537
C36 C 0.3663(3) 0.0764(3) 0.48740(19)
H36 H 0.3217 0.0276 0.4553
C37 C 0.1644(2) -0.0125(2) -0.0429(2)
H37 H 0.1955 0.0150 -0.0658
C38 C 0.1171(2) 0.0088(2) -0.01000(19)
H38 H 0.1084 0.0535 -0.0070
C39 C 0.1098(2) -0.0983(2) 0.00067(19)
H39 H 0.0955 -0.1428 0.0130
C40 C 0.1211(3) -0.2724(3) -0.0667(2)
H40 H 0.0832 -0.2933 -0.1051
C41 C 0.1196(3) -0.3147(3) -0.0314(2)
H41 H 0.0799 -0.3705 -0.0410
C42 C 0.2241(2) -0.1915(2) 0.01511(19)
H42 H 0.2721 -0.1444 0.0447
C43 C 0.1594(2) -0.1476(2) -0.1750(2)
H43 H 0.1391 -0.1105 -0.1681
C44 C 0.1582(3) -0.2019(3) -0.2319(2)
H44 H 0.1349 -0.2088 -0.2719
C45 C 0.2162(2) -0.2181(3) -0.1630(2)
H45 H 0.2428 -0.2378 -0.1435
C46 C 0.3676(2) -0.0405(2) -0.0386(2)
H46 H 0.3718 -0.0746 -0.0771
C47 C 0.4287(2) 0.0294(3) 0.0096(2)
H47 H 0.4833 0.0526 0.0101
C48 C 0.3210(2) 0.0105(2) 0.03783(19)
H48 H 0.2851 0.0172 0.0618
C49 C 0.0802(3) -0.3537(3) 0.3095(3)
H49 H 0.0657 -0.4110 0.2945
C50 C 0.0292(3) -0.3243(3) 0.3143(3)
H50 H -0.0271 -0.3572 0.3045
C51 C 0.1467(2) -0.2196(2) 0.34453(19)
H51 H 0.1897 -0.1636 0.3597
C52 C 0.3099(3) -0.3132(3) 0.2436(2)
H52 H 0.3479 -0.3182 0.2667
C53 C 0.3039(2) -0.3158(3) 0.1851(2)
H53 H 0.3367 -0.3261 0.1589
C54 C 0.2119(2) -0.2943(2) 0.21792(18)
H54 H 0.1681 -0.2851 0.2204
C55 C 0.3180(3) -0.1650(3) 0.4429(2)
H55 H 0.2904 -0.1919 0.4674
C56 C 0.3766(2) -0.0857(3) 0.4654(2)
H56 H 0.3979 -0.0467 0.5088
C57 C 0.3558(2) -0.1412(2) 0.3645(2)
H57 H 0.3597 -0.1490 0.3227
C58 C 0.2085(3) -0.4372(3) 0.3020(3)
H58 H 0.2001 -0.4519 0.2579
C59 C 0.2117(7) -0.4495(4) 0.3832(4)
H59 H 0.2097 -0.4717 0.4134
C60 C 0.2288(7) -0.3700(4) 0.3972(4)
H60 H 0.2377 -0.3287 0.4379
C61 C 0.6842(6) 0.4958(5) 0.4425(5)
H61 H 0.6511 0.5088 0.4221
C62 C 0.7604(5) 0.5557(4) 0.4769(4)
H62 H 0.7883 0.6124 0.4827
C63 C 0.7241(7) 0.4476(6) 0.4719(5)
H63 H 0.7294 0.4055 0.4790
C64 C 0.5141(4) 0.3795(3) 0.4946(2)
H64 H 0.5572 0.4006 0.5295
C65 C 0.4418(3) 0.3695(3) 0.4976(2)
H65 H 0.4255 0.3840 0.5354
C66 C 0.4402(3) 0.3261(3) 0.3987(2)
H66 H 0.4226 0.3035 0.3539
C67 C 0.6444(3) 0.2516(4) 0.3982(3)
H67 H 0.6930 0.2843 0.3905
C68 C 0.6224(3) 0.1785(4) 0.4020(3)
H68 H 0.6524 0.1509 0.3979
C69 C 0.5294(3) 0.2086(3) 0.4163(2)
H69 H 0.4810 0.2053 0.4242
C70 C 0.5756(8) 0.3836(4) 0.3071(3)
H70 H 0.5993 0.4427 0.3300
C71 C 0.5484(7) 0.3390(4) 0.2423(3)
H71 H 0.5551 0.3620 0.2123
C72 C 0.5234(3) 0.2533(3) 0.2831(2)
H72 H 0.5063 0.2022 0.2869
C73 C 0.3485(4) 0.4061(3) 0.2864(2)
H73 H 0.3807 0.4509 0.2762
C74 C 0.3549(4) 0.4077(3) 0.3453(3)
H74 H 0.3924 0.4537 0.3833
C75 C 0.2603(3) 0.2871(3) 0.2795(2)
H75 H 0.2176 0.2308 0.2622
C76 C 0.1031(3) 0.2210(3) 0.1575(2)
H76 H 0.0988 0.2699 0.1756
C77 C 0.0420(3) 0.1412(3) 0.1349(2)
H77 H -0.0124 0.1239 0.1334
C78 C 0.1517(3) 0.1395(2) 0.1252(2)
H78 H 0.1887 0.1207 0.1164
C79 C 0.2217(5) 0.4033(3) 0.1678(4)
H79 H 0.1765 0.3831 0.1836
C80 C 0.3066(5) 0.4739(3) 0.1328(3)
H80 H 0.3364 0.5142 0.1178
C81 C 0.3200(4) 0.4115(3) 0.1340(4)
H81 H 0.3616 0.4025 0.1209
C82 C 0.3108(3) 0.2355(3) 0.0769(2)
H82 H 0.2828 0.2412 0.0458
C83 C 0.3575(3) 0.2006(3) 0.0667(2)
H83 H 0.3676 0.1776 0.0273
C84 C 0.3572(3) 0.2406(3) 0.1661(2)
H84 H 0.3671 0.2504 0.2093
C85 C 0.5510(3) -0.0953(3) 0.2779(2)
H85 H 0.5679 -0.1348 0.2607
C86 C 0.5358(3) -0.0728(3) 0.3359(2)
H86 H 0.5420 -0.0924 0.3665
C87 C 0.5139(2) -0.0052(3) 0.2894(2)
H87 H 0.5009 0.0323 0.2815
C88 C 0.6160(3) 0.1023(3) 0.2118(2)
H88 H 0.6643 0.1165 0.2378
C89 C 0.6000(3) 0.1564(3) 0.2013(2)
H89 H 0.6350 0.2152 0.2175
C90 C 0.4975(3) 0.0323(3) 0.1508(2)
H90 H 0.4461 -0.0126 0.1251
C91 C 0.4431(3) -0.1746(3) 0.0701(2)
H91 H 0.4811 -0.1660 0.0460
C92 C 0.3643(3) -0.2302(3) 0.0475(2)
H92 H 0.3374 -0.2686 0.0044
C93 C 0.3879(2) -0.1630(2) 0.1473(2)
H93 H 0.3807 -0.1438 0.1885
C94 C 0.6028(3) -0.1547(3) 0.1419(2)
H94 H 0.5647 -0.2031 0.1455
C95 C 0.6671(2) -0.1452(3) 0.1198(2)
H95 H 0.6817 -0.1872 0.1059
C96 C 0.6693(3) -0.0301(3) 0.1436(2)
H96 H 0.6851 0.0256 0.1498
B1 B -0.0476(3) 0.0619(3) 0.3147(2)
B2 B -0.0927(3) -0.3438(3) 0.0928(2)
B3 B 0.2840(3) 0.1241(3) 0.5530(2)
B4 B 0.2096(3) -0.1238(3) -0.0572(2)
B5 B 0.2352(3) -0.2885(3) 0.3298(2)
B6 B 0.5837(4) 0.3458(4) 0.4035(3)
B7 B 0.2583(4) 0.2950(3) 0.1722(3)
B8 B 0.5396(3) -0.0600(3) 0.1803(2)
N1 N -0.0639(2) 0.0106(2) 0.24301(17)
N2 N -0.0432(2) -0.0320(2) 0.14841(16)
N3 N 0.0303(2) 0.1455(2) 0.33713(17)
N4 N 0.1594(2) 0.2394(2) 0.37353(18)
N5 N -0.0392(2) 0.0103(2) 0.34856(17)
N6 N -0.0050(2) -0.07466(19) 0.36763(15)
N7 N -0.1157(2) 0.0799(2) 0.32886(18)
N8 N -0.1760(2) 0.1420(2) 0.3847(2)
N9 N -0.1702(2) -0.4265(2) 0.05948(17)
N10 N -0.2893(4) -0.5372(4) 0.0398(3)
N11 N -0.0904(2) -0.2997(2) 0.16309(17)
N12 N -0.0456(2) -0.2286(2) 0.26675(17)
N13 N -0.0795(2) -0.2823(2) 0.06224(17)
N14 N -0.03384(19) -0.1617(2) 0.05477(16)
N15 N -0.0222(2) -0.3602(2) 0.09128(17)
N16 N 0.0969(2) -0.3436(2) 0.09134(17)
N17 N 0.2628(2) 0.1771(2) 0.52947(17)
N18 N 0.2566(2) 0.2429(2) 0.47209(18)
N19 N 0.2893(2) 0.1532(2) 0.62508(16)
N20 N 0.3165(3) 0.2410(4) 0.7250(2)
N21 N 0.2155(2) 0.0299(2) 0.51557(16)
N22 N 0.1140(2) -0.0841(2) 0.43848(16)
N23 N 0.3603(2) 0.1276(2) 0.53863(16)
N24 N 0.4420(2) 0.1001(2) 0.48532(17)
N25 N 0.15907(18) -0.08198(18) -0.03673(15)
N26 N 0.0835(2) -0.04350(19) 0.01834(15)
N27 N 0.18771(18) -0.19394(18) -0.03671(15)
N28 N 0.1838(2) -0.26427(19) 0.01974(16)
N29 N 0.19780(19) -0.15929(19) -0.12906(16)
N30 N 0.1945(2) -0.2451(2) -0.22430(17)
N31 N 0.2982(2) -0.05246(19) -0.02098(16)
N32 N 0.3991(2) 0.06124(19) 0.05784(16)
N33 N 0.1563(2) -0.2872(2) 0.32977(17)
N34 N 0.0723(2) -0.2398(2) 0.33555(16)
N35 N 0.2496(2) -0.3018(2) 0.26236(17)
N36 N 0.2449(2) -0.30170(19) 0.16846(17)
N37 N 0.3040(2) -0.2015(2) 0.37774(18)
N38 N 0.4017(2) -0.0690(2) 0.41492(18)
N39 N 0.2310(2) -0.3595(2) 0.34355(17)
N40 N 0.1985(3) -0.4907(3) 0.3233(3)
N41 N 0.6603(2) 0.4277(3) 0.43855(18)
N42 N 0.7831(4) 0.5227(5) 0.4972(3)
N43 N 0.5148(3) 0.3532(3) 0.43085(19)
N44 N 0.3952(3) 0.3348(2) 0.43707(19)
N45 N 0.5860(3) 0.2710(3) 0.40716(18)
N46 N 0.5498(2) 0.1518(2) 0.41272(18)
N47 N 0.5626(3) 0.3284(2) 0.33207(19)
N48 N 0.5108(3) 0.2573(2) 0.22901(18)
N49 N 0.2886(3) 0.3295(2) 0.24497(18)
N50 N 0.2981(3) 0.3320(2) 0.34001(19)
N51 N 0.1719(2) 0.2205(2) 0.15040(17)
N52 N 0.0746(2) 0.0887(2) 0.11408(17)
N53 N 0.2666(3) 0.3669(2) 0.1559(2)
N54 N 0.2451(4) 0.4680(3) 0.1560(3)
N55 N 0.3107(3) 0.2616(2) 0.14013(18)
N56 N 0.3883(2) 0.2041(2) 0.12393(17)
N57 N 0.5377(2) -0.0519(2) 0.24918(17)
N58 N 0.5103(2) -0.0170(2) 0.34207(16)
N59 N 0.5516(2) 0.0226(2) 0.17885(17)
N60 N 0.5237(2) 0.1121(2) 0.16298(16)
N61 N 0.4583(2) -0.1328(2) 0.13462(17)
N62 N 0.3292(2) -0.22257(19) 0.09633(16)
N63 N 0.60344(19) -0.0785(2) 0.15856(16)
N64 N 0.7086(2) -0.0686(3) 0.1198(2)
Pd1 Pd 0.019532(17) -0.037104(17) 0.082673(14)
Pd2 Pd 0.032653(18) -0.157708(18) 0.353243(14)
Pd3 Pd 0.213747(18) -0.285093(17) 0.093156(14)
Pd4 Pd 0.45718(2) 0.159812(18) 0.142454(14)
Pd5 Pd 0.27788(2) 0.28927(2) 0.406956(16)
Pd6 Pd 0.476829(19) 0.04112(2) 0.414963(15)
O1 O -0.1806(2) 0.2631(3) 0.4887(2)
H97 H -0.1780 0.2300 0.4600
H98 H -0.1290 0.2940 0.5090
O2 O -0.0207(5) 0.3626(5) 0.5486(4)
H99 H 0.0094 0.3930 0.5270
H100 H 0.0045 0.4110 0.5870
O3 O 0.0443(4) 0.2466(6) 0.5340(4)
H101 H 0.0250 0.2860 0.5400
H102 H 0.0770 0.2640 0.5690
O4 O 0.1420(5) 0.2968(5) 0.6332(4)
H103 H 0.1570 0.3470 0.6730
O5 O 0.1929(8) 0.4414(6) 0.7585(6)
H104 H 0.1740 0.4770 0.7810
H105 H 0.2439 0.4520 0.7766
O6 O 0.1787(8) 0.5017(6) 0.6722(7)
H106 H 0.1813 0.4801 0.7004
O7 O 0.2215(4) 0.6498(4) 0.6776(3)
H107 H 0.2110 0.6700 0.7100
H108 H 0.2059 0.5990 0.6754
O8 O 0.1369(4) 0.5510(4) 0.8255(4)
H109 H 0.1916 0.5850 0.8450
H110 H 0.0900 0.5600 0.8200
O9 O 0.0014(8) 0.5804(9) 0.7991(6)
H111 H -0.0146 0.6017 0.7779
O10 O -0.0973(4) 0.5373(3) 0.8703(3)
H112 H -0.1500 0.5360 0.8630
H113 H -0.0650 0.5500 0.8470
N65 N 0.3663(3) 0.7455(3) 0.9051(2)
O11 O 0.3641(5) 0.8167(3) 0.9149(8)
O12 O 0.2974(4) 0.6679(3) 0.8763(4)
O13 O 0.4379(3) 0.7494(3) 0.9240(3)
O14 O 0.4454(6) 0.6078(5) 0.9267(7)
H114 H 0.4000 0.5840 0.9440
H115 H 0.4436 0.6540 0.9292
O15 O 0.3451(6) 0.4720(10) 0.8116(5)
H116 H 0.3800 0.5240 0.8520
H117 H 0.3850 0.4790 0.7870
N66 N 0.4428(3) 0.4260(4) 0.6714(3)
O16 O 0.3681(3) 0.4041(4) 0.6403(3)
O17 O 0.4665(4) 0.4717(5) 0.7358(2)
O18 O 0.4934(3) 0.4056(6) 0.6422(4)
O19 O 0.3546(6) 0.3727(5) 0.8511(5)
H118 H 0.3390 0.3300 0.8100
H119 H 0.3490 0.4080 0.8320
O20 O 0.2839(4) 0.3015(4) 0.9419(5)
H120 H 0.3080 0.3290 0.9110
H121 H 0.3400 0.3350 0.9710
O21 O 0.4432(6) 0.4105(6) 1.0295(5)
H122 H 0.4840 0.4020 1.0450
O22 O 0.4996(8) 0.4147(8) 0.9060(9)
H123 H 0.4495 0.4001 0.8901
O23 O 0.5268(4) 0.3280(5) 0.8255(6)
O24 O 0.5447(7) 0.3533(8) 0.7205(6)
H124 H 0.5230 0.3794 0.6937
O25 O 0.6172(7) 0.3804(6) 0.6080(6)
H125 H 0.5781 0.3889 0.6209
O26 O -0.1428(4) 0.3775(4) 0.4302(3)
H126 H -0.1530 0.3400 0.4500
O27 O -0.0127(6) 0.3815(5) 0.3678(4)
H127 H -0.0272 0.4195 0.3580
H128 H -0.0582 0.3806 0.3890
O28 O -0.0637(5) 0.5471(5) 0.5177(4)
H129 H -0.0366 0.5708 0.5566
H130 H -0.1143 0.5394 0.5119
O29 O 0.0506(4) 0.3505(3) 0.2605(4)
H131 H 0.1010 0.4100 0.2840
H132 H 0.0293 0.3609 0.2975
O30 O -0.0473(6) 0.4929(6) 0.3369(5)
H133 H -0.1074 0.4461 0.3318
H134 H -0.0922 0.4960 0.3341
O31 O 0.2519(4) -0.0363(3) 0.3436(2)
N67 N 0.2550(11) 0.0477(8) 0.3513(4)
O32 O 0.3363(4) 0.1174(4) 0.3627(3)
O33 O 0.1845(3) 0.0460(3) 0.3430(4)
O34 O 0.2333(3) 0.0355(3) 0.1522(2)
N68 N 0.2357(17) 0.0948(6) 0.2264(7)
O35 O 0.1740(4) 0.0874(4) 0.2441(3)
O36 O 0.3244(4) 0.1543(3) 0.2634(3)
O37 O 0.4008(3) 0.0675(3) 0.2647(4)
O38 O 0.0903(4) -0.0689(4) 0.2276(3)
O39? O 0.4538(14) 0.4170(12) 0.6540(6)
N69? N 0.2577(12) -0.0921(6) 0.2711(6)
N70? N 0.2254(18) -0.0463(8) 0.1459(5)
O40? O 0.3133(3) -0.0880(4) 0.2568(3)
O41? O 0.1635(4) -0.1517(3) 0.2315(3)
O42? O 0.1585(4) -0.1084(3) 0.1306(3)
O43? O 0.3097(4) -0.0425(4) 0.1581(3)
loop_
_geom_bond_atom_site_label_1
_geom_bond_atom_site_label_2
_geom_bond_site_symmetry_1
_geom_bond_site_symmetry_2
C1 H1 1_555 1_555
C2 C1 1_555 1_555
H2 C2 1_555 1_555
C3 H3 1_555 1_555
C4 H4 1_555 1_555
C5 C4 1_555 1_555
H5 C5 1_555 1_555
C6 H6 1_555 1_555
C7 H7 1_555 1_555
C8 C7 1_555 1_555
H8 C8 1_555 1_555
C9 H9 1_555 1_555
C10 H10 1_555 1_555
C11 C10 1_555 1_555
H11 C11 1_555 1_555
C12 H12 1_555 1_555
C13 H13 1_555 1_555
C14 C13 1_555 1_555
H14 C14 1_555 1_555
C15 H15 1_555 1_555
C16 H16 1_555 1_555
C17 C16 1_555 1_555
H17 C17 1_555 1_555
C18 H18 1_555 1_555
C19 H19 1_555 1_555
C20 C19 1_555 1_555
H20 C20 1_555 1_555
C21 H21 1_555 1_555
C22 H22 1_555 1_555
C23 C22 1_555 1_555
H23 C23 1_555 1_555
C24 H24 1_555 1_555
C25 H25 1_555 1_555
C26 C25 1_555 1_555
H26 C26 1_555 1_555
C27 H27 1_555 1_555
C28 H28 1_555 1_555
C29 C28 1_555 1_555
H29 C29 1_555 1_555
C30 H30 1_555 1_555
C31 H31 1_555 1_555
C32 C31 1_555 1_555
H32 C32 1_555 1_555
C33 H33 1_555 1_555
C34 H34 1_555 1_555
C35 C34 1_555 1_555
H35 C35 1_555 1_555
C36 H36 1_555 1_555
C37 H37 1_555 1_555
C38 C37 1_555 1_555
H38 C38 1_555 1_555
C39 H39 1_555 1_555
C40 H40 1_555 1_555
C41 C40 1_555 1_555
H41 C41 1_555 1_555
C42 H42 1_555 1_555
C43 H43 1_555 1_555
C44 C43 1_555 1_555
H44 C44 1_555 1_555
C45 H45 1_555 1_555
C46 H46 1_555 1_555
C47 C46 1_555 1_555
H47 C47 1_555 1_555
C48 H48 1_555 1_555
C49 H49 1_555 1_555
C50 C49 1_555 1_555
H50 C50 1_555 1_555
C51 H51 1_555 1_555
C52 H52 1_555 1_555
C53 C52 1_555 1_555
H53 C53 1_555 1_555
C54 H54 1_555 1_555
C55 H55 1_555 1_555
C56 C55 1_555 1_555
H56 C56 1_555 1_555
C57 H57 1_555 1_555
C58 H58 1_555 1_555
C59 H59 1_555 1_555
C60 C59 1_555 1_555
H60 C60 1_555 1_555
C61 H61 1_555 1_555
C62 C61 1_555 1_555
H62 C62 1_555 1_555
C63 H63 1_555 1_555
C64 H64 1_555 1_555
C65 C64 1_555 1_555
H65 C65 1_555 1_555
C66 H66 1_555 1_555
C67 H67 1_555 1_555
C68 C67 1_555 1_555
H68 C68 1_555 1_555
C69 H69 1_555 1_555
C70 H70 1_555 1_555
C71 C70 1_555 1_555
H71 C71 1_555 1_555
C72 H72 1_555 1_555
C73 H73 1_555 1_555
C74 C73 1_555 1_555
H74 C74 1_555 1_555
C75 H75 1_555 1_555
C76 H76 1_555 1_555
C77 C76 1_555 1_555
H77 C77 1_555 1_555
C78 H78 1_555 1_555
C79 H79 1_555 1_555
C80 H80 1_555 1_555
C81 C80 1_555 1_555
H81 C81 1_555 1_555
C82 H82 1_555 1_555
C83 C82 1_555 1_555
H83 C83 1_555 1_555
C84 H84 1_555 1_555
C85 H85 1_555 1_555
C86 C85 1_555 1_555
H86 C86 1_555 1_555
C87 H87 1_555 1_555
C88 H88 1_555 1_555
C89 C88 1_555 1_555
H89 C89 1_555 1_555
C90 H90 1_555 1_555
C91 H91 1_555 1_555
C92 C91 1_555 1_555
H92 C92 1_555 1_555
C93 H93 1_555 1_555
C94 H94 1_555 1_555
C95 C94 1_555 1_555
H95 C95 1_555 1_555
C96 H96 1_555 1_555
B1 N1 1_555 1_555
B2 N9 1_555 1_555
B3 N17 1_555 1_555
B4 N25 1_555 1_555
B5 N33 1_555 1_555
B6 N41 1_555 1_555
B7 N49 1_555 1_555
B8 N57 1_555 1_555
N1 C1 1_555 1_555
N2 C2 1_555 1_555
N3 C4 1_555 1_555
N4 C5 1_555 1_555
N5 C7 1_555 1_555
N6 C8 1_555 1_555
N7 C10 1_555 1_555
N8 C11 1_555 1_555
N9 C13 1_555 1_555
N10 C14 1_555 1_555
N11 C16 1_555 1_555
N12 C17 1_555 1_555
N13 C19 1_555 1_555
N14 C20 1_555 1_555
N15 C22 1_555 1_555
N16 C23 1_555 1_555
N17 C25 1_555 1_555
N18 C26 1_555 1_555
N19 C28 1_555 1_555
N20 C29 1_555 1_555
N21 C31 1_555 1_555
N22 C32 1_555 1_555
N23 C34 1_555 1_555
N24 C35 1_555 1_555
N25 C37 1_555 1_555
N26 C38 1_555 1_555
N27 C40 1_555 1_555
N28 C41 1_555 1_555
N29 C43 1_555 1_555
N30 C44 1_555 1_555
N31 C46 1_555 1_555
N32 C47 1_555 1_555
N33 C49 1_555 1_555
N34 C50 1_555 1_555
N35 C52 1_555 1_555
N36 C53 1_555 1_555
N37 C55 1_555 1_555
N38 C56 1_555 1_555
N39 C58 1_555 1_555
N40 C58 1_555 1_555
N41 C61 1_555 1_555
N42 C62 1_555 1_555
N43 C64 1_555 1_555
N44 C65 1_555 1_555
N45 C67 1_555 1_555
N46 C68 1_555 1_555
N47 C70 1_555 1_555
N48 C71 1_555 1_555
N49 C73 1_555 1_555
N50 C74 1_555 1_555
N51 C76 1_555 1_555
N52 C77 1_555 1_555
N53 C79 1_555 1_555
N54 C79 1_555 1_555
N55 C82 1_555 1_555
N56 C83 1_555 1_555
N57 C85 1_555 1_555
N58 C86 1_555 1_555
N59 C88 1_555 1_555
N60 C89 1_555 1_555
N61 C91 1_555 1_555
N62 C92 1_555 1_555
N63 C94 1_555 1_555
N64 C95 1_555 1_555
Pd1 N2 1_555 1_555
Pd2 N6 1_555 1_555
Pd3 N16 1_555 1_555
Pd4 N32 1_555 1_555
Pd5 N4 1_555 1_555
Pd6 N24 1_555 1_555
O1 H97 1_555 1_555
H98 O1 1_555 1_555
O2 H99 1_555 1_555
H100 O2 1_555 1_555
O3 H101 1_555 1_555
H102 O3 1_555 1_555
O4 H103 1_555 1_555
O5 H104 1_555 1_555
H105 O5 1_555 1_555
O6 H106 1_555 1_555
O7 H107 1_555 1_555
H108 O7 1_555 1_555
O8 H109 1_555 1_555
H110 O8 1_555 1_555
O9 H111 1_555 1_555
O10 H112 1_555 1_555
H113 O10 1_555 1_555
N65 O11 1_555 1_555
O12 N65 1_555 1_555
O13 N65 1_555 1_555
O14 H114 1_555 1_555
H115 O14 1_555 1_555
O15 H116 1_555 1_555
H117 O15 1_555 1_555
N66 O16 1_555 1_555
O17 N66 1_555 1_555
O18 N66 1_555 1_555
O19 H118 1_555 1_555
H119 O19 1_555 1_555
O20 H120 1_555 1_555
H121 O20 1_555 1_555
O21 H122 1_555 1_555
O22 H123 1_555 1_555
O24 H124 1_555 1_555
O25 H125 1_555 1_555
O26 H126 1_555 1_555
O27 H127 1_555 1_555
H128 O27 1_555 1_555
O28 H129 1_555 1_555
H130 O28 1_555 1_555
O29 H131 1_555 1_555
H132 O29 1_555 1_555
O30 H133 1_555 1_555
H134 O30 1_555 1_555
O31 N67 1_555 1_555
N67 O32 1_555 1_555
O33 N67 1_555 1_555
O34 N68 1_555 1_555
N68 O35 1_555 1_555
O36 N68 1_555 1_555
C3 N1 1_555 1_555
C3 N2 1_555 1_555
C6 N3 1_555 1_555
C6 N4 1_555 1_555
C9 N5 1_555 1_555
C9 N6 1_555 1_555
C12 N7 1_555 1_555
C12 N8 1_555 1_555
C15 N9 1_555 1_555
C15 N10 1_555 1_555
C18 N11 1_555 1_555
C18 N12 1_555 1_555
C21 N13 1_555 1_555
C21 N14 1_555 1_555
C24 N15 1_555 1_555
C24 N16 1_555 1_555
C27 N17 1_555 1_555
C27 N18 1_555 1_555
C30 N19 1_555 1_555
C30 N20 1_555 1_555
C33 N21 1_555 1_555
C33 N22 1_555 1_555
C36 N23 1_555 1_555
C36 N24 1_555 1_555
C39 N25 1_555 1_555
C39 N26 1_555 1_555
C42 N27 1_555 1_555
C42 N28 1_555 1_555
C45 N29 1_555 1_555
C45 N30 1_555 1_555
C48 N31 1_555 1_555
C48 N32 1_555 1_555
C51 N33 1_555 1_555
C51 N34 1_555 1_555
C54 N35 1_555 1_555
C54 N36 1_555 1_555
C57 N37 1_555 1_555
C57 N38 1_555 1_555
C59 N40 1_555 1_555
C60 N39 1_555 1_555
C63 N41 1_555 1_555
C63 N42 1_555 1_555
C66 N43 1_555 1_555
C66 N44 1_555 1_555
C69 N45 1_555 1_555
C69 N46 1_555 1_555
C72 N47 1_555 1_555
C72 N48 1_555 1_555
C75 N49 1_555 1_555
C75 N50 1_555 1_555
C78 N51 1_555 1_555
C78 N52 1_555 1_555
C80 N54 1_555 1_555
C81 N53 1_555 1_555
C84 N55 1_555 1_555
C84 N56 1_555 1_555
C87 N57 1_555 1_555
C87 N58 1_555 1_555
C90 N59 1_555 1_555
C90 N60 1_555 1_555
C93 N61 1_555 1_555
C93 N62 1_555 1_555
C96 N63 1_555 1_555
C96 N64 1_555 1_555
B1 N3 1_555 1_555
B1 N5 1_555 1_555
B1 N7 1_555 1_555
B2 N11 1_555 1_555
B2 N13 1_555 1_555
B2 N15 1_555 1_555
B3 N19 1_555 1_555
B3 N21 1_555 1_555
B3 N23 1_555 1_555
B4 N27 1_555 1_555
B4 N29 1_555 1_555
B4 N31 1_555 1_555
B5 N35 1_555 1_555
B5 N37 1_555 1_555
B5 N39 1_555 1_555
B6 N43 1_555 1_555
B6 N45 1_555 1_555
B6 N47 1_555 1_555
B7 N51 1_555 1_555
B7 N53 1_555 1_555
B7 N55 1_555 1_555
B8 N59 1_555 1_555
B8 N61 1_555 1_555
B8 N63 1_555 1_555
N12 Pd2 1_555 1_555
N14 Pd1 1_555 1_555
N18 Pd5 1_555 1_555
N22 Pd2 1_555 1_555
N26 Pd1 1_555 1_555
N28 Pd3 1_555 1_555
N34 Pd2 1_555 1_555
N36 Pd3 1_555 1_555
N38 Pd6 1_555 1_555
N44 Pd5 1_555 1_555
N46 Pd6 1_555 1_555
N48 Pd4 1_555 1_555
N50 Pd5 1_555 1_555
N52 Pd1 1_555 1_555
N56 Pd4 1_555 1_555
N58 Pd6 1_555 1_555
N60 Pd4 1_555 1_555
N62 Pd3 1_555 1_555

#END
