# generated using pymatgen
data_B4H160Pd3C96N60O23
_symmetry_space_group_name_H-M   'P 1'
_cell_length_a   16.91340000
_cell_length_b   16.91340000
_cell_length_c   34.34400000
_cell_angle_alpha   90.00000000
_cell_angle_beta   90.00000000
_cell_angle_gamma   90.00000000
_symmetry_Int_Tables_number   1
_chemical_formula_structural   B4H160Pd3C96N60O23
_chemical_formula_sum   'B16 H640 Pd12 C384 N240 O92'
_cell_volume   9824.55109129
_cell_formula_units_Z   4
loop_
 _symmetry_equiv_pos_site_id
 _symmetry_equiv_pos_as_xyz
  1  'x, y, z'
loop_
 _atom_site_type_symbol
 _atom_site_label
 _atom_site_symmetry_multiplicity
 _atom_site_fract_x
 _atom_site_fract_y
 _atom_site_fract_z
 _atom_site_occupancy
  B  B1  1  0.259800  0.170800  0.392100  1.0
  B  B2  1  0.740200  0.829200  0.392100  1.0
  B  B3  1  0.829200  0.259800  0.392100  1.0
  B  B4  1  0.170800  0.740200  0.392100  1.0
  B  B5  1  0.240200  0.670800  0.107900  1.0
  B  B6  1  0.759800  0.329200  0.107900  1.0
  B  B7  1  0.670800  0.759800  0.107900  1.0
  B  B8  1  0.329200  0.240200  0.107900  1.0
  B  B9  1  0.740200  0.829200  0.607900  1.0
  B  B10  1  0.259800  0.170800  0.607900  1.0
  B  B11  1  0.170800  0.740200  0.607900  1.0
  B  B12  1  0.829200  0.259800  0.607900  1.0
  B  B13  1  0.759800  0.329200  0.892100  1.0
  B  B14  1  0.240200  0.670800  0.892100  1.0
  B  B15  1  0.329200  0.240200  0.892100  1.0
  B  B16  1  0.670800  0.759800  0.892100  1.0
  H  H17  1  0.496700  0.293900  0.431700  1
  H  H18  1  0.503300  0.706100  0.431700  1
  H  H19  1  0.706100  0.496700  0.431700  1
  H  H20  1  0.293900  0.503300  0.431700  1
  H  H21  1  0.003300  0.793900  0.068300  1
  H  H22  1  0.996700  0.206100  0.068300  1
  H  H23  1  0.793900  0.996700  0.068300  1
  H  H24  1  0.206100  0.003300  0.068300  1
  H  H25  1  0.503300  0.706100  0.568300  1
  H  H26  1  0.496700  0.293900  0.568300  1
  H  H27  1  0.293900  0.503300  0.568300  1
  H  H28  1  0.706100  0.496700  0.568300  1
  H  H29  1  0.996700  0.206100  0.931700  1
  H  H30  1  0.003300  0.793900  0.931700  1
  H  H31  1  0.206100  0.003300  0.931700  1
  H  H32  1  0.793900  0.996700  0.931700  1
  H  H33  1  0.510300  0.302600  0.320900  1
  H  H34  1  0.489700  0.697400  0.320900  1
  H  H35  1  0.697400  0.510300  0.320900  1
  H  H36  1  0.302600  0.489700  0.320900  1
  H  H37  1  0.989700  0.802600  0.179100  1
  H  H38  1  0.010300  0.197400  0.179100  1
  H  H39  1  0.802600  0.010300  0.179100  1
  H  H40  1  0.197400  0.989700  0.179100  1
  H  H41  1  0.489700  0.697400  0.679100  1
  H  H42  1  0.510300  0.302600  0.679100  1
  H  H43  1  0.302600  0.489700  0.679100  1
  H  H44  1  0.697400  0.510300  0.679100  1
  H  H45  1  0.010300  0.197400  0.820900  1
  H  H46  1  0.989700  0.802600  0.820900  1
  H  H47  1  0.197400  0.989700  0.820900  1
  H  H48  1  0.802600  0.010300  0.820900  1
  H  H49  1  0.588600  0.278400  0.308600  1
  H  H50  1  0.411400  0.721600  0.308600  1
  H  H51  1  0.721600  0.588600  0.308600  1
  H  H52  1  0.278400  0.411400  0.308600  1
  H  H53  1  0.911400  0.778400  0.191400  1
  H  H54  1  0.088600  0.221600  0.191400  1
  H  H55  1  0.778400  0.088600  0.191400  1
  H  H56  1  0.221600  0.911400  0.191400  1
  H  H57  1  0.411400  0.721600  0.691400  1
  H  H58  1  0.588600  0.278400  0.691400  1
  H  H59  1  0.278400  0.411400  0.691400  1
  H  H60  1  0.721600  0.588600  0.691400  1
  H  H61  1  0.088600  0.221600  0.808600  1
  H  H62  1  0.911400  0.778400  0.808600  1
  H  H63  1  0.221600  0.911400  0.808600  1
  H  H64  1  0.778400  0.088600  0.808600  1
  H  H65  1  0.616900  0.118800  0.294800  1
  H  H66  1  0.383100  0.881200  0.294800  1
  H  H67  1  0.881200  0.616900  0.294800  1
  H  H68  1  0.118800  0.383100  0.294800  1
  H  H69  1  0.883100  0.618800  0.205200  1
  H  H70  1  0.116900  0.381200  0.205200  1
  H  H71  1  0.618800  0.116900  0.205200  1
  H  H72  1  0.381200  0.883100  0.205200  1
  H  H73  1  0.383100  0.881200  0.705200  1
  H  H74  1  0.616900  0.118800  0.705200  1
  H  H75  1  0.118800  0.383100  0.705200  1
  H  H76  1  0.881200  0.616900  0.705200  1
  H  H77  1  0.116900  0.381200  0.794800  1
  H  H78  1  0.883100  0.618800  0.794800  1
  H  H79  1  0.381200  0.883100  0.794800  1
  H  H80  1  0.618800  0.116900  0.794800  1
  H  H81  1  0.650300  0.162600  0.263400  1
  H  H82  1  0.349700  0.837400  0.263400  1
  H  H83  1  0.837400  0.650300  0.263400  1
  H  H84  1  0.162600  0.349700  0.263400  1
  H  H85  1  0.849700  0.662600  0.236600  1
  H  H86  1  0.150300  0.337400  0.236600  1
  H  H87  1  0.662600  0.150300  0.236600  1
  H  H88  1  0.337400  0.849700  0.236600  1
  H  H89  1  0.349700  0.837400  0.736600  1
  H  H90  1  0.650300  0.162600  0.736600  1
  H  H91  1  0.162600  0.349700  0.736600  1
  H  H92  1  0.837400  0.650300  0.736600  1
  H  H93  1  0.150300  0.337400  0.763400  1
  H  H94  1  0.849700  0.662600  0.763400  1
  H  H95  1  0.337400  0.849700  0.763400  1
  H  H96  1  0.662600  0.150300  0.763400  1
  H  H97  1  0.294500  0.055600  0.330500  1
  H  H98  1  0.705500  0.944400  0.330500  1
  H  H99  1  0.944400  0.294500  0.330500  1
  H  H100  1  0.055600  0.705500  0.330500  1
  H  H101  1  0.205500  0.555600  0.169500  1
  H  H102  1  0.794500  0.444400  0.169500  1
  H  H103  1  0.555600  0.794500  0.169500  1
  H  H104  1  0.444400  0.205500  0.169500  1
  H  H105  1  0.705500  0.944400  0.669500  1
  H  H106  1  0.294500  0.055600  0.669500  1
  H  H107  1  0.055600  0.705500  0.669500  1
  H  H108  1  0.944400  0.294500  0.669500  1
  H  H109  1  0.794500  0.444400  0.830500  1
  H  H110  1  0.205500  0.555600  0.830500  1
  H  H111  1  0.444400  0.205500  0.830500  1
  H  H112  1  0.555600  0.794500  0.830500  1
  H  H113  1  0.164600  0.908300  0.305900  1
  H  H114  1  0.835400  0.091700  0.305900  1
  H  H115  1  0.091700  0.164600  0.305900  1
  H  H116  1  0.908300  0.835400  0.305900  1
  H  H117  1  0.335400  0.408300  0.194100  1
  H  H118  1  0.664600  0.591700  0.194100  1
  H  H119  1  0.408300  0.664600  0.194100  1
  H  H120  1  0.591700  0.335400  0.194100  1
  H  H121  1  0.835400  0.091700  0.694100  1
  H  H122  1  0.164600  0.908300  0.694100  1
  H  H123  1  0.908300  0.835400  0.694100  1
  H  H124  1  0.091700  0.164600  0.694100  1
  H  H125  1  0.664600  0.591700  0.805900  1
  H  H126  1  0.335400  0.408300  0.805900  1
  H  H127  1  0.591700  0.335400  0.805900  1
  H  H128  1  0.408300  0.664600  0.805900  1
  H  H129  1  0.242300  0.951600  0.290000  1
  H  H130  1  0.757700  0.048400  0.290000  1
  H  H131  1  0.048400  0.242300  0.290000  1
  H  H132  1  0.951600  0.757700  0.290000  1
  H  H133  1  0.257700  0.451600  0.210000  1
  H  H134  1  0.742300  0.548400  0.210000  1
  H  H135  1  0.451600  0.742300  0.210000  1
  H  H136  1  0.548400  0.257700  0.210000  1
  H  H137  1  0.757700  0.048400  0.710000  1
  H  H138  1  0.242300  0.951600  0.710000  1
  H  H139  1  0.951600  0.757700  0.710000  1
  H  H140  1  0.048400  0.242300  0.710000  1
  H  H141  1  0.742300  0.548400  0.790000  1
  H  H142  1  0.257700  0.451600  0.790000  1
  H  H143  1  0.548400  0.257700  0.790000  1
  H  H144  1  0.451600  0.742300  0.790000  1
  H  H145  1  0.157100  0.977500  0.274300  1
  H  H146  1  0.842900  0.022500  0.274300  1
  H  H147  1  0.022500  0.157100  0.274300  1
  H  H148  1  0.977500  0.842900  0.274300  1
  H  H149  1  0.342900  0.477500  0.225700  1
  H  H150  1  0.657100  0.522500  0.225700  1
  H  H151  1  0.477500  0.657100  0.225700  1
  H  H152  1  0.522500  0.342900  0.225700  1
  H  H153  1  0.842900  0.022500  0.725700  1
  H  H154  1  0.157100  0.977500  0.725700  1
  H  H155  1  0.977500  0.842900  0.725700  1
  H  H156  1  0.022500  0.157100  0.725700  1
  H  H157  1  0.657100  0.522500  0.774300  1
  H  H158  1  0.342900  0.477500  0.774300  1
  H  H159  1  0.522500  0.342900  0.774300  1
  H  H160  1  0.477500  0.657100  0.774300  1
  H  H161  1  0.110000  0.112800  0.393800  1
  H  H162  1  0.890000  0.887200  0.393800  1
  H  H163  1  0.887200  0.110000  0.393800  1
  H  H164  1  0.112800  0.890000  0.393800  1
  H  H165  1  0.390000  0.612800  0.106200  1
  H  H166  1  0.610000  0.387200  0.106200  1
  H  H167  1  0.612800  0.610000  0.106200  1
  H  H168  1  0.387200  0.390000  0.106200  1
  H  H169  1  0.890000  0.887200  0.606200  1
  H  H170  1  0.110000  0.112800  0.606200  1
  H  H171  1  0.112800  0.890000  0.606200  1
  H  H172  1  0.887200  0.110000  0.606200  1
  H  H173  1  0.610000  0.387200  0.893800  1
  H  H174  1  0.390000  0.612800  0.893800  1
  H  H175  1  0.387200  0.390000  0.893800  1
  H  H176  1  0.612800  0.610000  0.893800  1
  H  H177  1  0.195000  0.327300  0.367300  1
  H  H178  1  0.805000  0.672700  0.367300  1
  H  H179  1  0.672700  0.195000  0.367300  1
  H  H180  1  0.327300  0.805000  0.367300  1
  H  H181  1  0.305000  0.827300  0.132700  1
  H  H182  1  0.695000  0.172700  0.132700  1
  H  H183  1  0.827300  0.695000  0.132700  1
  H  H184  1  0.172700  0.305000  0.132700  1
  H  H185  1  0.805000  0.672700  0.632700  1
  H  H186  1  0.195000  0.327300  0.632700  1
  H  H187  1  0.327300  0.805000  0.632700  1
  H  H188  1  0.672700  0.195000  0.632700  1
  H  H189  1  0.695000  0.172700  0.867300  1
  H  H190  1  0.305000  0.827300  0.867300  1
  H  H191  1  0.172700  0.305000  0.867300  1
  H  H192  1  0.827300  0.695000  0.867300  1
  H  H193  1  0.016300  0.396700  0.402900  1
  H  H194  1  0.983700  0.603300  0.402900  1
  H  H195  1  0.603300  0.016300  0.402900  1
  H  H196  1  0.396700  0.983700  0.402900  1
  H  H197  1  0.483700  0.896700  0.097100  1
  H  H198  1  0.516300  0.103300  0.097100  1
  H  H199  1  0.896700  0.516300  0.097100  1
  H  H200  1  0.103300  0.483700  0.097100  1
  H  H201  1  0.983700  0.603300  0.597100  1
  H  H202  1  0.016300  0.396700  0.597100  1
  H  H203  1  0.396700  0.983700  0.597100  1
  H  H204  1  0.603300  0.016300  0.597100  1
  H  H205  1  0.516300  0.103300  0.902900  1
  H  H206  1  0.483700  0.896700  0.902900  1
  H  H207  1  0.103300  0.483700  0.902900  1
  H  H208  1  0.896700  0.516300  0.902900  1
  H  H209  1  0.089700  0.450500  0.390000  1
  H  H210  1  0.910300  0.549500  0.390000  1
  H  H211  1  0.549500  0.089700  0.390000  1
  H  H212  1  0.450500  0.910300  0.390000  1
  H  H213  1  0.410300  0.950500  0.110000  1
  H  H214  1  0.589700  0.049500  0.110000  1
  H  H215  1  0.950500  0.589700  0.110000  1
  H  H216  1  0.049500  0.410300  0.110000  1
  H  H217  1  0.910300  0.549500  0.610000  1
  H  H218  1  0.089700  0.450500  0.610000  1
  H  H219  1  0.450500  0.910300  0.610000  1
  H  H220  1  0.549500  0.089700  0.610000  1
  H  H221  1  0.589700  0.049500  0.890000  1
  H  H222  1  0.410300  0.950500  0.890000  1
  H  H223  1  0.049500  0.410300  0.890000  1
  H  H224  1  0.950500  0.589700  0.890000  1
  H  H225  1  0.067000  0.442700  0.435100  1
  H  H226  1  0.933000  0.557300  0.435100  1
  H  H227  1  0.557300  0.067000  0.435100  1
  H  H228  1  0.442700  0.933000  0.435100  1
  H  H229  1  0.433000  0.942700  0.064900  1
  H  H230  1  0.567000  0.057300  0.064900  1
  H  H231  1  0.942700  0.567000  0.064900  1
  H  H232  1  0.057300  0.433000  0.064900  1
  H  H233  1  0.933000  0.557300  0.564900  1
  H  H234  1  0.067000  0.442700  0.564900  1
  H  H235  1  0.442700  0.933000  0.564900  1
  H  H236  1  0.557300  0.067000  0.564900  1
  H  H237  1  0.567000  0.057300  0.935100  1
  H  H238  1  0.433000  0.942700  0.935100  1
  H  H239  1  0.057300  0.433000  0.935100  1
  H  H240  1  0.942700  0.567000  0.935100  1
  H  H241  1  0.173600  0.192700  0.460100  1
  H  H242  1  0.826400  0.807300  0.460100  1
  H  H243  1  0.807300  0.173600  0.460100  1
  H  H244  1  0.192700  0.826400  0.460100  1
  H  H245  1  0.326400  0.692700  0.039900  1
  H  H246  1  0.673600  0.307300  0.039900  1
  H  H247  1  0.692700  0.673600  0.039900  1
  H  H248  1  0.307300  0.326400  0.039900  1
  H  H249  1  0.826400  0.807300  0.539900  1
  H  H250  1  0.173600  0.192700  0.539900  1
  H  H251  1  0.192700  0.826400  0.539900  1
  H  H252  1  0.807300  0.173600  0.539900  1
  H  H253  1  0.673600  0.307300  0.960100  1
  H  H254  1  0.326400  0.692700  0.960100  1
  H  H255  1  0.307300  0.326400  0.960100  1
  H  H256  1  0.692700  0.673600  0.960100  1
  H  H257  1  0.909200  0.425700  0.526500  1
  H  H258  1  0.090800  0.574300  0.526500  1
  H  H259  1  0.574300  0.909200  0.526500  1
  H  H260  1  0.425700  0.090800  0.526500  1
  H  H261  1  0.590800  0.925700  0.973500  1
  H  H262  1  0.409200  0.074300  0.973500  1
  H  H263  1  0.925700  0.409200  0.973500  1
  H  H264  1  0.074300  0.590800  0.973500  1
  H  H265  1  0.090800  0.574300  0.473500  1
  H  H266  1  0.909200  0.425700  0.473500  1
  H  H267  1  0.425700  0.090800  0.473500  1
  H  H268  1  0.574300  0.909200  0.473500  1
  H  H269  1  0.409200  0.074300  0.026500  1
  H  H270  1  0.590800  0.925700  0.026500  1
  H  H271  1  0.074300  0.590800  0.026500  1
  H  H272  1  0.925700  0.409200  0.026500  1
  H  H273  1  0.842300  0.465100  0.499800  1
  H  H274  1  0.157700  0.534900  0.499800  1
  H  H275  1  0.534900  0.842300  0.499800  1
  H  H276  1  0.465100  0.157700  0.499800  1
  H  H277  1  0.657700  0.965100  0.000200  1
  H  H278  1  0.342300  0.034900  0.000200  1
  H  H279  1  0.965100  0.342300  0.000200  1
  H  H280  1  0.034900  0.657700  0.000200  1
  H  H281  1  0.157700  0.534900  0.500200  1
  H  H282  1  0.842300  0.465100  0.500200  1
  H  H283  1  0.465100  0.157700  0.500200  1
  H  H284  1  0.534900  0.842300  0.500200  1
  H  H285  1  0.342300  0.034900  0.999800  1
  H  H286  1  0.657700  0.965100  0.999800  1
  H  H287  1  0.034900  0.657700  0.999800  1
  H  H288  1  0.965100  0.342300  0.999800  1
  H  H289  1  0.933700  0.481800  0.491000  1
  H  H290  1  0.066300  0.518200  0.491000  1
  H  H291  1  0.518200  0.933700  0.491000  1
  H  H292  1  0.481800  0.066300  0.491000  1
  H  H293  1  0.566300  0.981800  0.009000  1
  H  H294  1  0.433700  0.018200  0.009000  1
  H  H295  1  0.981800  0.433700  0.009000  1
  H  H296  1  0.018200  0.566300  0.009000  1
  H  H297  1  0.066300  0.518200  0.509000  1
  H  H298  1  0.933700  0.481800  0.509000  1
  H  H299  1  0.481800  0.066300  0.509000  1
  H  H300  1  0.518200  0.933700  0.509000  1
  H  H301  1  0.433700  0.018200  0.991000  1
  H  H302  1  0.566300  0.981800  0.991000  1
  H  H303  1  0.018200  0.566300  0.991000  1
  H  H304  1  0.981800  0.433700  0.991000  1
  H  H305  1  0.789400  0.381000  0.448300  1
  H  H306  1  0.210600  0.619000  0.448300  1
  H  H307  1  0.619000  0.789400  0.448300  1
  H  H308  1  0.381000  0.210600  0.448300  1
  H  H309  1  0.710600  0.881000  0.051700  1
  H  H310  1  0.289400  0.119000  0.051700  1
  H  H311  1  0.881000  0.289400  0.051700  1
  H  H312  1  0.119000  0.710600  0.051700  1
  H  H313  1  0.210600  0.619000  0.551700  1
  H  H314  1  0.789400  0.381000  0.551700  1
  H  H315  1  0.381000  0.210600  0.551700  1
  H  H316  1  0.619000  0.789400  0.551700  1
  H  H317  1  0.289400  0.119000  0.948300  1
  H  H318  1  0.710600  0.881000  0.948300  1
  H  H319  1  0.119000  0.710600  0.948300  1
  H  H320  1  0.881000  0.289400  0.948300  1
  H  H321  1  0.263900  0.355500  0.527400  1
  H  H322  1  0.736100  0.644500  0.527400  1
  H  H323  1  0.644500  0.263900  0.527400  1
  H  H324  1  0.355500  0.736100  0.527400  1
  H  H325  1  0.236100  0.855500  0.972600  1
  H  H326  1  0.763900  0.144500  0.972600  1
  H  H327  1  0.855500  0.763900  0.972600  1
  H  H328  1  0.144500  0.236100  0.972600  1
  H  H329  1  0.736100  0.644500  0.472600  1
  H  H330  1  0.263900  0.355500  0.472600  1
  H  H331  1  0.355500  0.736100  0.472600  1
  H  H332  1  0.644500  0.263900  0.472600  1
  H  H333  1  0.763900  0.144500  0.027400  1
  H  H334  1  0.236100  0.855500  0.027400  1
  H  H335  1  0.144500  0.236100  0.027400  1
  H  H336  1  0.855500  0.763900  0.027400  1
  H  H337  1  0.226700  0.416300  0.496700  1
  H  H338  1  0.773300  0.583700  0.496700  1
  H  H339  1  0.583700  0.226700  0.496700  1
  H  H340  1  0.416300  0.773300  0.496700  1
  H  H341  1  0.273300  0.916300  0.003300  1
  H  H342  1  0.726700  0.083700  0.003300  1
  H  H343  1  0.916300  0.726700  0.003300  1
  H  H344  1  0.083700  0.273300  0.003300  1
  H  H345  1  0.773300  0.583700  0.503300  1
  H  H346  1  0.226700  0.416300  0.503300  1
  H  H347  1  0.416300  0.773300  0.503300  1
  H  H348  1  0.583700  0.226700  0.503300  1
  H  H349  1  0.726700  0.083700  0.996700  1
  H  H350  1  0.273300  0.916300  0.996700  1
  H  H351  1  0.083700  0.273300  0.996700  1
  H  H352  1  0.916300  0.726700  0.996700  1
  H  H353  1  0.316500  0.387900  0.492100  1
  H  H354  1  0.683500  0.612100  0.492100  1
  H  H355  1  0.612100  0.316500  0.492100  1
  H  H356  1  0.387900  0.683500  0.492100  1
  H  H357  1  0.183500  0.887900  0.007900  1
  H  H358  1  0.816500  0.112100  0.007900  1
  H  H359  1  0.887900  0.816500  0.007900  1
  H  H360  1  0.112100  0.183500  0.007900  1
  H  H361  1  0.683500  0.612100  0.507900  1
  H  H362  1  0.316500  0.387900  0.507900  1
  H  H363  1  0.387900  0.683500  0.507900  1
  H  H364  1  0.612100  0.316500  0.507900  1
  H  H365  1  0.816500  0.112100  0.992100  1
  H  H366  1  0.183500  0.887900  0.992100  1
  H  H367  1  0.112100  0.183500  0.992100  1
  H  H368  1  0.887900  0.816500  0.992100  1
  H  H369  1  0.524900  0.002300  0.304300  1
  H  H370  1  0.475100  0.997700  0.304300  1
  H  H371  1  0.997700  0.524900  0.304300  1
  H  H372  1  0.002300  0.475100  0.304300  1
  H  H373  1  0.975100  0.502300  0.195700  1
  H  H374  1  0.024900  0.497700  0.195700  1
  H  H375  1  0.502300  0.024900  0.195700  1
  H  H376  1  0.497700  0.975100  0.195700  1
  H  H377  1  0.475100  0.997700  0.695700  1
  H  H378  1  0.524900  0.002300  0.695700  1
  H  H379  1  0.002300  0.475100  0.695700  1
  H  H380  1  0.997700  0.524900  0.695700  1
  H  H381  1  0.024900  0.497700  0.804300  1
  H  H382  1  0.975100  0.502300  0.804300  1
  H  H383  1  0.497700  0.975100  0.804300  1
  H  H384  1  0.502300  0.024900  0.804300  1
  H  H385  1  0.254400  0.221200  0.312600  1.0
  H  H386  1  0.745600  0.778800  0.312600  1.0
  H  H387  1  0.778800  0.254400  0.312600  1.0
  H  H388  1  0.221200  0.745600  0.312600  1.0
  H  H389  1  0.245600  0.721200  0.187400  1.0
  H  H390  1  0.754400  0.278800  0.187400  1.0
  H  H391  1  0.721200  0.754400  0.187400  1.0
  H  H392  1  0.278800  0.245600  0.187400  1.0
  H  H393  1  0.745600  0.778800  0.687400  1.0
  H  H394  1  0.254400  0.221200  0.687400  1.0
  H  H395  1  0.221200  0.745600  0.687400  1.0
  H  H396  1  0.778800  0.254400  0.687400  1.0
  H  H397  1  0.754400  0.278800  0.812600  1.0
  H  H398  1  0.245600  0.721200  0.812600  1.0
  H  H399  1  0.278800  0.245600  0.812600  1.0
  H  H400  1  0.721200  0.754400  0.812600  1.0
  H  H401  1  0.367100  0.228500  0.245900  1.0
  H  H402  1  0.632900  0.771500  0.245900  1.0
  H  H403  1  0.771500  0.367100  0.245900  1.0
  H  H404  1  0.228500  0.632900  0.245900  1.0
  H  H405  1  0.132900  0.728500  0.254100  1.0
  H  H406  1  0.867100  0.271500  0.254100  1.0
  H  H407  1  0.728500  0.867100  0.254100  1.0
  H  H408  1  0.271500  0.132900  0.254100  1.0
  H  H409  1  0.632900  0.771500  0.754100  1.0
  H  H410  1  0.367100  0.228500  0.754100  1.0
  H  H411  1  0.228500  0.632900  0.754100  1.0
  H  H412  1  0.771500  0.367100  0.754100  1.0
  H  H413  1  0.867100  0.271500  0.745900  1.0
  H  H414  1  0.132900  0.728500  0.745900  1.0
  H  H415  1  0.271500  0.132900  0.745900  1.0
  H  H416  1  0.728500  0.867100  0.745900  1.0
  H  H417  1  0.432400  0.291300  0.259300  1.0
  H  H418  1  0.567600  0.708700  0.259300  1.0
  H  H419  1  0.708700  0.432400  0.259300  1.0
  H  H420  1  0.291300  0.567600  0.259300  1.0
  H  H421  1  0.067600  0.791300  0.240700  1.0
  H  H422  1  0.932400  0.208700  0.240700  1.0
  H  H423  1  0.791300  0.932400  0.240700  1.0
  H  H424  1  0.208700  0.067600  0.240700  1.0
  H  H425  1  0.567600  0.708700  0.740700  1.0
  H  H426  1  0.432400  0.291300  0.740700  1.0
  H  H427  1  0.291300  0.567600  0.740700  1.0
  H  H428  1  0.708700  0.432400  0.740700  1.0
  H  H429  1  0.932400  0.208700  0.759300  1.0
  H  H430  1  0.067600  0.791300  0.759300  1.0
  H  H431  1  0.208700  0.067600  0.759300  1.0
  H  H432  1  0.791300  0.932400  0.759300  1.0
  H  H433  1  0.340600  0.314100  0.260900  1.0
  H  H434  1  0.659400  0.685900  0.260900  1.0
  H  H435  1  0.685900  0.340600  0.260900  1.0
  H  H436  1  0.314100  0.659400  0.260900  1.0
  H  H437  1  0.159400  0.814100  0.239100  1.0
  H  H438  1  0.840600  0.185900  0.239100  1.0
  H  H439  1  0.814100  0.840600  0.239100  1.0
  H  H440  1  0.185900  0.159400  0.239100  1.0
  H  H441  1  0.659400  0.685900  0.739100  1.0
  H  H442  1  0.340600  0.314100  0.739100  1.0
  H  H443  1  0.314100  0.659400  0.739100  1.0
  H  H444  1  0.685900  0.340600  0.739100  1.0
  H  H445  1  0.840600  0.185900  0.760900  1.0
  H  H446  1  0.159400  0.814100  0.760900  1.0
  H  H447  1  0.185900  0.159400  0.760900  1.0
  H  H448  1  0.814100  0.840600  0.760900  1.0
  H  H449  1  0.427300  0.192600  0.392800  1.0
  H  H450  1  0.572700  0.807400  0.392800  1.0
  H  H451  1  0.807400  0.427300  0.392800  1.0
  H  H452  1  0.192600  0.572700  0.392800  1.0
  H  H453  1  0.072700  0.692600  0.107200  1.0
  H  H454  1  0.927300  0.307400  0.107200  1.0
  H  H455  1  0.692600  0.927300  0.107200  1.0
  H  H456  1  0.307400  0.072700  0.107200  1.0
  H  H457  1  0.572700  0.807400  0.607200  1.0
  H  H458  1  0.427300  0.192600  0.607200  1.0
  H  H459  1  0.192600  0.572700  0.607200  1.0
  H  H460  1  0.807400  0.427300  0.607200  1.0
  H  H461  1  0.927300  0.307400  0.892800  1.0
  H  H462  1  0.072700  0.692600  0.892800  1.0
  H  H463  1  0.307400  0.072700  0.892800  1.0
  H  H464  1  0.692600  0.927300  0.892800  1.0
  H  H465  1  0.168100  0.244300  0.328000  1.0
  H  H466  1  0.831900  0.755700  0.328000  1.0
  H  H467  1  0.755700  0.168100  0.328000  1.0
  H  H468  1  0.244300  0.831900  0.328000  1.0
  H  H469  1  0.331900  0.744300  0.172000  1.0
  H  H470  1  0.668100  0.255700  0.172000  1.0
  H  H471  1  0.744300  0.668100  0.172000  1.0
  H  H472  1  0.255700  0.331900  0.172000  1.0
  H  H473  1  0.831900  0.755700  0.672000  1.0
  H  H474  1  0.168100  0.244300  0.672000  1.0
  H  H475  1  0.244300  0.831900  0.672000  1.0
  H  H476  1  0.755700  0.168100  0.672000  1.0
  H  H477  1  0.668100  0.255700  0.828000  1.0
  H  H478  1  0.331900  0.744300  0.828000  1.0
  H  H479  1  0.255700  0.331900  0.828000  1.0
  H  H480  1  0.744300  0.668100  0.828000  1.0
  H  H481  1  0.064500  0.176400  0.270500  1.0
  H  H482  1  0.935500  0.823600  0.270500  1.0
  H  H483  1  0.823600  0.064500  0.270500  1.0
  H  H484  1  0.176400  0.935500  0.270500  1.0
  H  H485  1  0.435500  0.676400  0.229500  1.0
  H  H486  1  0.564500  0.323600  0.229500  1.0
  H  H487  1  0.676400  0.564500  0.229500  1.0
  H  H488  1  0.323600  0.435500  0.229500  1.0
  H  H489  1  0.935500  0.823600  0.729500  1.0
  H  H490  1  0.064500  0.176400  0.729500  1.0
  H  H491  1  0.176400  0.935500  0.729500  1.0
  H  H492  1  0.823600  0.064500  0.729500  1.0
  H  H493  1  0.564500  0.323600  0.770500  1.0
  H  H494  1  0.435500  0.676400  0.770500  1.0
  H  H495  1  0.323600  0.435500  0.770500  1.0
  H  H496  1  0.676400  0.564500  0.770500  1.0
  H  H497  1  0.985600  0.177700  0.296200  1.0
  H  H498  1  0.014400  0.822300  0.296200  1.0
  H  H499  1  0.822300  0.985600  0.296200  1.0
  H  H500  1  0.177700  0.014400  0.296200  1.0
  H  H501  1  0.514400  0.677700  0.203800  1.0
  H  H502  1  0.485600  0.322300  0.203800  1.0
  H  H503  1  0.677700  0.485600  0.203800  1.0
  H  H504  1  0.322300  0.514400  0.203800  1.0
  H  H505  1  0.014400  0.822300  0.703800  1.0
  H  H506  1  0.985600  0.177700  0.703800  1.0
  H  H507  1  0.177700  0.014400  0.703800  1.0
  H  H508  1  0.822300  0.985600  0.703800  1.0
  H  H509  1  0.485600  0.322300  0.796200  1.0
  H  H510  1  0.514400  0.677700  0.796200  1.0
  H  H511  1  0.322300  0.514400  0.796200  1.0
  H  H512  1  0.677700  0.485600  0.796200  1.0
  H  H513  1  0.026100  0.095200  0.285200  1.0
  H  H514  1  0.973900  0.904800  0.285200  1.0
  H  H515  1  0.904800  0.026100  0.285200  1.0
  H  H516  1  0.095200  0.973900  0.285200  1.0
  H  H517  1  0.473900  0.595200  0.214800  1.0
  H  H518  1  0.526100  0.404800  0.214800  1.0
  H  H519  1  0.595200  0.526100  0.214800  1.0
  H  H520  1  0.404800  0.473900  0.214800  1.0
  H  H521  1  0.973900  0.904800  0.714800  1.0
  H  H522  1  0.026100  0.095200  0.714800  1.0
  H  H523  1  0.095200  0.973900  0.714800  1.0
  H  H524  1  0.904800  0.026100  0.714800  1.0
  H  H525  1  0.526100  0.404800  0.785200  1.0
  H  H526  1  0.473900  0.595200  0.785200  1.0
  H  H527  1  0.404800  0.473900  0.785200  1.0
  H  H528  1  0.595200  0.526100  0.785200  1.0
  H  H529  1  0.150200  0.050200  0.391800  1.0
  H  H530  1  0.849800  0.949800  0.391800  1.0
  H  H531  1  0.949800  0.150200  0.391800  1.0
  H  H532  1  0.050200  0.849800  0.391800  1.0
  H  H533  1  0.349800  0.550200  0.108200  1.0
  H  H534  1  0.650200  0.449800  0.108200  1.0
  H  H535  1  0.550200  0.650200  0.108200  1.0
  H  H536  1  0.449800  0.349800  0.108200  1.0
  H  H537  1  0.849800  0.949800  0.608200  1.0
  H  H538  1  0.150200  0.050200  0.608200  1.0
  H  H539  1  0.050200  0.849800  0.608200  1.0
  H  H540  1  0.949800  0.150200  0.608200  1.0
  H  H541  1  0.650200  0.449800  0.891800  1.0
  H  H542  1  0.349800  0.550200  0.891800  1.0
  H  H543  1  0.449800  0.349800  0.891800  1.0
  H  H544  1  0.550200  0.650200  0.891800  1.0
  H  H545  1  0.122600  0.206000  0.433200  1.0
  H  H546  1  0.877400  0.794000  0.433200  1.0
  H  H547  1  0.794000  0.122600  0.433200  1.0
  H  H548  1  0.206000  0.877400  0.433200  1.0
  H  H549  1  0.377400  0.706000  0.066800  1.0
  H  H550  1  0.622600  0.294000  0.066800  1.0
  H  H551  1  0.706000  0.622600  0.066800  1.0
  H  H552  1  0.294000  0.377400  0.066800  1.0
  H  H553  1  0.877400  0.794000  0.566800  1.0
  H  H554  1  0.122600  0.206000  0.566800  1.0
  H  H555  1  0.206000  0.877400  0.566800  1.0
  H  H556  1  0.794000  0.122600  0.566800  1.0
  H  H557  1  0.622600  0.294000  0.933200  1.0
  H  H558  1  0.377400  0.706000  0.933200  1.0
  H  H559  1  0.294000  0.377400  0.933200  1.0
  H  H560  1  0.706000  0.622600  0.933200  1.0
  H  H561  1  0.339900  0.281700  0.446900  1.0
  H  H562  1  0.660100  0.718300  0.446900  1.0
  H  H563  1  0.718300  0.339900  0.446900  1.0
  H  H564  1  0.281700  0.660100  0.446900  1.0
  H  H565  1  0.160100  0.781700  0.053100  1.0
  H  H566  1  0.839900  0.218300  0.053100  1.0
  H  H567  1  0.781700  0.839900  0.053100  1.0
  H  H568  1  0.218300  0.160100  0.053100  1.0
  H  H569  1  0.660100  0.718300  0.553100  1.0
  H  H570  1  0.339900  0.281700  0.553100  1.0
  H  H571  1  0.281700  0.660100  0.553100  1.0
  H  H572  1  0.718300  0.339900  0.553100  1.0
  H  H573  1  0.839900  0.218300  0.946900  1.0
  H  H574  1  0.160100  0.781700  0.946900  1.0
  H  H575  1  0.218300  0.160100  0.946900  1.0
  H  H576  1  0.781700  0.839900  0.946900  1.0
  H  H577  1  0.104500  0.448800  0.434600  1.0
  H  H578  1  0.895500  0.551200  0.434600  1.0
  H  H579  1  0.551200  0.104500  0.434600  1.0
  H  H580  1  0.448800  0.895500  0.434600  1.0
  H  H581  1  0.395500  0.948800  0.065400  1.0
  H  H582  1  0.604500  0.051200  0.065400  1.0
  H  H583  1  0.948800  0.604500  0.065400  1.0
  H  H584  1  0.051200  0.395500  0.065400  1.0
  H  H585  1  0.895500  0.551200  0.565400  1.0
  H  H586  1  0.104500  0.448800  0.565400  1.0
  H  H587  1  0.448800  0.895500  0.565400  1.0
  H  H588  1  0.551200  0.104500  0.565400  1.0
  H  H589  1  0.604500  0.051200  0.934600  1.0
  H  H590  1  0.395500  0.948800  0.934600  1.0
  H  H591  1  0.051200  0.395500  0.934600  1.0
  H  H592  1  0.948800  0.604500  0.934600  1.0
  H  H593  1  0.092600  0.447500  0.388300  1.0
  H  H594  1  0.907400  0.552500  0.388300  1.0
  H  H595  1  0.552500  0.092600  0.388300  1.0
  H  H596  1  0.447500  0.907400  0.388300  1.0
  H  H597  1  0.407400  0.947500  0.111700  1.0
  H  H598  1  0.592600  0.052500  0.111700  1.0
  H  H599  1  0.947500  0.592600  0.111700  1.0
  H  H600  1  0.052500  0.407400  0.111700  1.0
  H  H601  1  0.907400  0.552500  0.611700  1.0
  H  H602  1  0.092600  0.447500  0.611700  1.0
  H  H603  1  0.447500  0.907400  0.611700  1.0
  H  H604  1  0.552500  0.092600  0.611700  1.0
  H  H605  1  0.592600  0.052500  0.888300  1.0
  H  H606  1  0.407400  0.947500  0.888300  1.0
  H  H607  1  0.052500  0.407400  0.888300  1.0
  H  H608  1  0.947500  0.592600  0.888300  1.0
  H  H609  1  0.144200  0.380300  0.409100  1.0
  H  H610  1  0.855800  0.619700  0.409100  1.0
  H  H611  1  0.619700  0.144200  0.409100  1.0
  H  H612  1  0.380300  0.855800  0.409100  1.0
  H  H613  1  0.355800  0.880300  0.090900  1.0
  H  H614  1  0.644200  0.119700  0.090900  1.0
  H  H615  1  0.880300  0.644200  0.090900  1.0
  H  H616  1  0.119700  0.355800  0.090900  1.0
  H  H617  1  0.855800  0.619700  0.590900  1.0
  H  H618  1  0.144200  0.380300  0.590900  1.0
  H  H619  1  0.380300  0.855800  0.590900  1.0
  H  H620  1  0.619700  0.144200  0.590900  1.0
  H  H621  1  0.644200  0.119700  0.909100  1.0
  H  H622  1  0.355800  0.880300  0.909100  1.0
  H  H623  1  0.119700  0.355800  0.909100  1.0
  H  H624  1  0.880300  0.644200  0.909100  1.0
  H  H625  1  0.949800  0.370800  0.368300  1.0
  H  H626  1  0.050200  0.629200  0.368300  1.0
  H  H627  1  0.629200  0.949800  0.368300  1.0
  H  H628  1  0.370800  0.050200  0.368300  1.0
  H  H629  1  0.550200  0.870800  0.131700  1.0
  H  H630  1  0.449800  0.129200  0.131700  1.0
  H  H631  1  0.870800  0.449800  0.131700  1.0
  H  H632  1  0.129200  0.550200  0.131700  1.0
  H  H633  1  0.050200  0.629200  0.631700  1.0
  H  H634  1  0.949800  0.370800  0.631700  1.0
  H  H635  1  0.370800  0.050200  0.631700  1.0
  H  H636  1  0.629200  0.949800  0.631700  1.0
  H  H637  1  0.449800  0.129200  0.868300  1.0
  H  H638  1  0.550200  0.870800  0.868300  1.0
  H  H639  1  0.129200  0.550200  0.868300  1.0
  H  H640  1  0.870800  0.449800  0.868300  1.0
  H  H641  1  0.969100  0.238300  0.434300  1.0
  H  H642  1  0.030900  0.761700  0.434300  1.0
  H  H643  1  0.761700  0.969100  0.434300  1.0
  H  H644  1  0.238300  0.030900  0.434300  1.0
  H  H645  1  0.530900  0.738300  0.065700  1.0
  H  H646  1  0.469100  0.261700  0.065700  1.0
  H  H647  1  0.738300  0.469100  0.065700  1.0
  H  H648  1  0.261700  0.530900  0.065700  1.0
  H  H649  1  0.030900  0.761700  0.565700  1.0
  H  H650  1  0.969100  0.238300  0.565700  1.0
  H  H651  1  0.238300  0.030900  0.565700  1.0
  H  H652  1  0.761700  0.969100  0.565700  1.0
  H  H653  1  0.469100  0.261700  0.934300  1.0
  H  H654  1  0.530900  0.738300  0.934300  1.0
  H  H655  1  0.261700  0.530900  0.934300  1.0
  H  H656  1  0.738300  0.469100  0.934300  1.0
  Pd  Pd657  1  0.000000  0.000000  0.347080  1.0
  Pd  Pd658  1  0.500000  0.500000  0.152920  1.0
  Pd  Pd659  1  0.000000  0.000000  0.652920  1.0
  Pd  Pd660  1  0.500000  0.500000  0.847080  1.0
  Pd  Pd661  1  0.063880  0.310660  0.500000  1.0
  Pd  Pd662  1  0.936120  0.689340  0.500000  1.0
  Pd  Pd663  1  0.689340  0.063880  0.500000  1.0
  Pd  Pd664  1  0.310660  0.936120  0.500000  1.0
  Pd  Pd665  1  0.436120  0.810660  0.000000  1.0
  Pd  Pd666  1  0.563880  0.189340  0.000000  1.0
  Pd  Pd667  1  0.810660  0.563880  0.000000  1.0
  Pd  Pd668  1  0.189340  0.436120  0.000000  1.0
  C  C669  1  0.241300  0.058600  0.339300  1
  C  C670  1  0.758700  0.941400  0.339300  1
  C  C671  1  0.941400  0.241300  0.339300  1
  C  C672  1  0.058600  0.758700  0.339300  1
  C  C673  1  0.258700  0.558600  0.160700  1
  C  C674  1  0.741300  0.441400  0.160700  1
  C  C675  1  0.558600  0.741300  0.160700  1
  C  C676  1  0.441400  0.258700  0.160700  1
  C  C677  1  0.758700  0.941400  0.660700  1
  C  C678  1  0.241300  0.058600  0.660700  1
  C  C679  1  0.058600  0.758700  0.660700  1
  C  C680  1  0.941400  0.241300  0.660700  1
  C  C681  1  0.741300  0.441400  0.839300  1
  C  C682  1  0.258700  0.558600  0.839300  1
  C  C683  1  0.441400  0.258700  0.839300  1
  C  C684  1  0.558600  0.741300  0.839300  1
  C  C685  1  0.181000  0.014000  0.326800  1
  C  C686  1  0.819000  0.986000  0.326800  1
  C  C687  1  0.986000  0.181000  0.326800  1
  C  C688  1  0.014000  0.819000  0.326800  1
  C  C689  1  0.319000  0.514000  0.173200  1
  C  C690  1  0.681000  0.486000  0.173200  1
  C  C691  1  0.514000  0.681000  0.173200  1
  C  C692  1  0.486000  0.319000  0.173200  1
  C  C693  1  0.819000  0.986000  0.673200  1
  C  C694  1  0.181000  0.014000  0.673200  1
  C  C695  1  0.014000  0.819000  0.673200  1
  C  C696  1  0.986000  0.181000  0.673200  1
  C  C697  1  0.681000  0.486000  0.826800  1
  C  C698  1  0.319000  0.514000  0.826800  1
  C  C699  1  0.486000  0.319000  0.826800  1
  C  C700  1  0.514000  0.681000  0.826800  1
  C  C701  1  0.187000  0.958800  0.297100  1
  C  C702  1  0.813000  0.041200  0.297100  1
  C  C703  1  0.041200  0.187000  0.297100  1
  C  C704  1  0.958800  0.813000  0.297100  1
  C  C705  1  0.313000  0.458800  0.202900  1
  C  C706  1  0.687000  0.541200  0.202900  1
  C  C707  1  0.458800  0.687000  0.202900  1
  C  C708  1  0.541200  0.313000  0.202900  1
  C  C709  1  0.813000  0.041200  0.702900  1
  C  C710  1  0.187000  0.958800  0.702900  1
  C  C711  1  0.958800  0.813000  0.702900  1
  C  C712  1  0.041200  0.187000  0.702900  1
  C  C713  1  0.687000  0.541200  0.797100  1
  C  C714  1  0.313000  0.458800  0.797100  1
  C  C715  1  0.541200  0.313000  0.797100  1
  C  C716  1  0.458800  0.687000  0.797100  1
  C  C717  1  0.177800  0.306400  0.391500  1
  C  C718  1  0.822200  0.693600  0.391500  1
  C  C719  1  0.693600  0.177800  0.391500  1
  C  C720  1  0.306400  0.822200  0.391500  1
  C  C721  1  0.322200  0.806400  0.108500  1
  C  C722  1  0.677800  0.193600  0.108500  1
  C  C723  1  0.806400  0.677800  0.108500  1
  C  C724  1  0.193600  0.322200  0.108500  1
  C  C725  1  0.822200  0.693600  0.608500  1
  C  C726  1  0.177800  0.306400  0.608500  1
  C  C727  1  0.306400  0.822200  0.608500  1
  C  C728  1  0.693600  0.177800  0.608500  1
  C  C729  1  0.677800  0.193600  0.891500  1
  C  C730  1  0.322200  0.806400  0.891500  1
  C  C731  1  0.193600  0.322200  0.891500  1
  C  C732  1  0.806400  0.677800  0.891500  1
  C  C733  1  0.126000  0.341400  0.414000  1
  C  C734  1  0.874000  0.658600  0.414000  1
  C  C735  1  0.658600  0.126000  0.414000  1
  C  C736  1  0.341400  0.874000  0.414000  1
  C  C737  1  0.374000  0.841400  0.086000  1
  C  C738  1  0.626000  0.158600  0.086000  1
  C  C739  1  0.841400  0.626000  0.086000  1
  C  C740  1  0.158600  0.374000  0.086000  1
  C  C741  1  0.874000  0.658600  0.586000  1
  C  C742  1  0.126000  0.341400  0.586000  1
  C  C743  1  0.341400  0.874000  0.586000  1
  C  C744  1  0.658600  0.126000  0.586000  1
  C  C745  1  0.626000  0.158600  0.914000  1
  C  C746  1  0.374000  0.841400  0.914000  1
  C  C747  1  0.158600  0.374000  0.914000  1
  C  C748  1  0.841400  0.626000  0.914000  1
  C  C749  1  0.069000  0.415000  0.410100  1
  C  C750  1  0.931000  0.585000  0.410100  1
  C  C751  1  0.585000  0.069000  0.410100  1
  C  C752  1  0.415000  0.931000  0.410100  1
  C  C753  1  0.431000  0.915000  0.089900  1
  C  C754  1  0.569000  0.085000  0.089900  1
  C  C755  1  0.915000  0.569000  0.089900  1
  C  C756  1  0.085000  0.431000  0.089900  1
  C  C757  1  0.931000  0.585000  0.589900  1
  C  C758  1  0.069000  0.415000  0.589900  1
  C  C759  1  0.415000  0.931000  0.589900  1
  C  C760  1  0.585000  0.069000  0.589900  1
  C  C761  1  0.569000  0.085000  0.910100  1
  C  C762  1  0.431000  0.915000  0.910100  1
  C  C763  1  0.085000  0.431000  0.910100  1
  C  C764  1  0.915000  0.569000  0.910100  1
  C  C765  1  0.897600  0.377200  0.475500  1
  C  C766  1  0.102400  0.622800  0.475500  1
  C  C767  1  0.622800  0.897600  0.475500  1
  C  C768  1  0.377200  0.102400  0.475500  1
  C  C769  1  0.602400  0.877200  0.024500  1
  C  C770  1  0.397600  0.122800  0.024500  1
  C  C771  1  0.877200  0.397600  0.024500  1
  C  C772  1  0.122800  0.602400  0.024500  1
  C  C773  1  0.102400  0.622800  0.524500  1
  C  C774  1  0.897600  0.377200  0.524500  1
  C  C775  1  0.377200  0.102400  0.524500  1
  C  C776  1  0.622800  0.897600  0.524500  1
  C  C777  1  0.397600  0.122800  0.975500  1
  C  C778  1  0.602400  0.877200  0.975500  1
  C  C779  1  0.122800  0.602400  0.975500  1
  C  C780  1  0.877200  0.397600  0.975500  1
  C  C781  1  0.895600  0.442200  0.500000  1
  C  C782  1  0.104400  0.557800  0.500000  1
  C  C783  1  0.557800  0.895600  0.500000  1
  C  C784  1  0.442200  0.104400  0.500000  1
  C  C785  1  0.604400  0.942200  0.000000  1
  C  C786  1  0.395600  0.057800  0.000000  1
  C  C787  1  0.942200  0.395600  0.000000  1
  C  C788  1  0.057800  0.604400  0.000000  1
  C  C789  1  0.841100  0.359300  0.449300  1
  C  C790  1  0.158900  0.640700  0.449300  1
  C  C791  1  0.640700  0.841100  0.449300  1
  C  C792  1  0.359300  0.158900  0.449300  1
  C  C793  1  0.658900  0.859300  0.050700  1
  C  C794  1  0.341100  0.140700  0.050700  1
  C  C795  1  0.859300  0.341100  0.050700  1
  C  C796  1  0.140700  0.658900  0.050700  1
  C  C797  1  0.158900  0.640700  0.550700  1
  C  C798  1  0.841100  0.359300  0.550700  1
  C  C799  1  0.359300  0.158900  0.550700  1
  C  C800  1  0.640700  0.841100  0.550700  1
  C  C801  1  0.341100  0.140700  0.949300  1
  C  C802  1  0.658900  0.859300  0.949300  1
  C  C803  1  0.140700  0.658900  0.949300  1
  C  C804  1  0.859300  0.341100  0.949300  1
  C  C805  1  0.263000  0.372000  0.500000  1.0
  C  C806  1  0.737000  0.628000  0.500000  1.0
  C  C807  1  0.628000  0.263000  0.500000  1.0
  C  C808  1  0.372000  0.737000  0.500000  1.0
  C  C809  1  0.237000  0.872000  0.000000  1.0
  C  C810  1  0.763000  0.128000  0.000000  1.0
  C  C811  1  0.872000  0.763000  0.000000  1.0
  C  C812  1  0.128000  0.237000  0.000000  1.0
  C  C813  1  0.305000  0.222200  0.324600  1.0
  C  C814  1  0.695000  0.777800  0.324600  1.0
  C  C815  1  0.777800  0.305000  0.324600  1.0
  C  C816  1  0.222200  0.695000  0.324600  1.0
  C  C817  1  0.195000  0.722200  0.175400  1.0
  C  C818  1  0.805000  0.277800  0.175400  1.0
  C  C819  1  0.722200  0.805000  0.175400  1.0
  C  C820  1  0.277800  0.195000  0.175400  1.0
  C  C821  1  0.695000  0.777800  0.675400  1.0
  C  C822  1  0.305000  0.222200  0.675400  1.0
  C  C823  1  0.222200  0.695000  0.675400  1.0
  C  C824  1  0.777800  0.305000  0.675400  1.0
  C  C825  1  0.805000  0.277800  0.824600  1.0
  C  C826  1  0.195000  0.722200  0.824600  1.0
  C  C827  1  0.277800  0.195000  0.824600  1.0
  C  C828  1  0.722200  0.805000  0.824600  1.0
  C  C829  1  0.374000  0.238800  0.306900  1.0
  C  C830  1  0.626000  0.761200  0.306900  1.0
  C  C831  1  0.761200  0.374000  0.306900  1.0
  C  C832  1  0.238800  0.626000  0.306900  1.0
  C  C833  1  0.126000  0.738800  0.193100  1.0
  C  C834  1  0.874000  0.261200  0.193100  1.0
  C  C835  1  0.738800  0.874000  0.193100  1.0
  C  C836  1  0.261200  0.126000  0.193100  1.0
  C  C837  1  0.626000  0.761200  0.693100  1.0
  C  C838  1  0.374000  0.238800  0.693100  1.0
  C  C839  1  0.238800  0.626000  0.693100  1.0
  C  C840  1  0.761200  0.374000  0.693100  1.0
  C  C841  1  0.874000  0.261200  0.806900  1.0
  C  C842  1  0.126000  0.738800  0.806900  1.0
  C  C843  1  0.261200  0.126000  0.806900  1.0
  C  C844  1  0.738800  0.874000  0.806900  1.0
  C  C845  1  0.379000  0.271000  0.264200  1.0
  C  C846  1  0.621000  0.729000  0.264200  1.0
  C  C847  1  0.729000  0.379000  0.264200  1.0
  C  C848  1  0.271000  0.621000  0.264200  1.0
  C  C849  1  0.121000  0.771000  0.235800  1.0
  C  C850  1  0.879000  0.229000  0.235800  1.0
  C  C851  1  0.771000  0.879000  0.235800  1.0
  C  C852  1  0.229000  0.121000  0.235800  1.0
  C  C853  1  0.621000  0.729000  0.735800  1.0
  C  C854  1  0.379000  0.271000  0.735800  1.0
  C  C855  1  0.271000  0.621000  0.735800  1.0
  C  C856  1  0.729000  0.379000  0.735800  1.0
  C  C857  1  0.879000  0.229000  0.764200  1.0
  C  C858  1  0.121000  0.771000  0.764200  1.0
  C  C859  1  0.229000  0.121000  0.764200  1.0
  C  C860  1  0.771000  0.879000  0.764200  1.0
  C  C861  1  0.399000  0.207000  0.370000  1.0
  C  C862  1  0.601000  0.793000  0.370000  1.0
  C  C863  1  0.793000  0.399000  0.370000  1.0
  C  C864  1  0.207000  0.601000  0.370000  1.0
  C  C865  1  0.101000  0.707000  0.130000  1.0
  C  C866  1  0.899000  0.293000  0.130000  1.0
  C  C867  1  0.707000  0.899000  0.130000  1.0
  C  C868  1  0.293000  0.101000  0.130000  1.0
  C  C869  1  0.601000  0.793000  0.630000  1.0
  C  C870  1  0.399000  0.207000  0.630000  1.0
  C  C871  1  0.207000  0.601000  0.630000  1.0
  C  C872  1  0.793000  0.399000  0.630000  1.0
  C  C873  1  0.899000  0.293000  0.870000  1.0
  C  C874  1  0.101000  0.707000  0.870000  1.0
  C  C875  1  0.293000  0.101000  0.870000  1.0
  C  C876  1  0.707000  0.899000  0.870000  1.0
  C  C877  1  0.150400  0.195800  0.338900  1.0
  C  C878  1  0.849600  0.804200  0.338900  1.0
  C  C879  1  0.804200  0.150400  0.338900  1.0
  C  C880  1  0.195800  0.849600  0.338900  1.0
  C  C881  1  0.349600  0.695800  0.161100  1.0
  C  C882  1  0.650400  0.304200  0.161100  1.0
  C  C883  1  0.695800  0.650400  0.161100  1.0
  C  C884  1  0.304200  0.349600  0.161100  1.0
  C  C885  1  0.849600  0.804200  0.661100  1.0
  C  C886  1  0.150400  0.195800  0.661100  1.0
  C  C887  1  0.195800  0.849600  0.661100  1.0
  C  C888  1  0.804200  0.150400  0.661100  1.0
  C  C889  1  0.650400  0.304200  0.838900  1.0
  C  C890  1  0.349600  0.695800  0.838900  1.0
  C  C891  1  0.304200  0.349600  0.838900  1.0
  C  C892  1  0.695800  0.650400  0.838900  1.0
  C  C893  1  0.085300  0.154700  0.328300  1.0
  C  C894  1  0.914700  0.845300  0.328300  1.0
  C  C895  1  0.845300  0.085300  0.328300  1.0
  C  C896  1  0.154700  0.914700  0.328300  1.0
  C  C897  1  0.414700  0.654700  0.171700  1.0
  C  C898  1  0.585300  0.345300  0.171700  1.0
  C  C899  1  0.654700  0.585300  0.171700  1.0
  C  C900  1  0.345300  0.414700  0.171700  1.0
  C  C901  1  0.914700  0.845300  0.671700  1.0
  C  C902  1  0.085300  0.154700  0.671700  1.0
  C  C903  1  0.154700  0.914700  0.671700  1.0
  C  C904  1  0.845300  0.085300  0.671700  1.0
  C  C905  1  0.585300  0.345300  0.828300  1.0
  C  C906  1  0.414700  0.654700  0.828300  1.0
  C  C907  1  0.345300  0.414700  0.828300  1.0
  C  C908  1  0.654700  0.585300  0.828300  1.0
  C  C909  1  0.036000  0.151000  0.291900  1.0
  C  C910  1  0.964000  0.849000  0.291900  1.0
  C  C911  1  0.849000  0.036000  0.291900  1.0
  C  C912  1  0.151000  0.964000  0.291900  1.0
  C  C913  1  0.464000  0.651000  0.208100  1.0
  C  C914  1  0.536000  0.349000  0.208100  1.0
  C  C915  1  0.651000  0.536000  0.208100  1.0
  C  C916  1  0.349000  0.464000  0.208100  1.0
  C  C917  1  0.964000  0.849000  0.708100  1.0
  C  C918  1  0.036000  0.151000  0.708100  1.0
  C  C919  1  0.151000  0.964000  0.708100  1.0
  C  C920  1  0.849000  0.036000  0.708100  1.0
  C  C921  1  0.536000  0.349000  0.791900  1.0
  C  C922  1  0.464000  0.651000  0.791900  1.0
  C  C923  1  0.349000  0.464000  0.791900  1.0
  C  C924  1  0.651000  0.536000  0.791900  1.0
  C  C925  1  0.284500  0.274700  0.449800  1.0
  C  C926  1  0.715500  0.725300  0.449800  1.0
  C  C927  1  0.725300  0.284500  0.449800  1.0
  C  C928  1  0.274700  0.715500  0.449800  1.0
  C  C929  1  0.215500  0.774700  0.050200  1.0
  C  C930  1  0.784500  0.225300  0.050200  1.0
  C  C931  1  0.774700  0.784500  0.050200  1.0
  C  C932  1  0.225300  0.215500  0.050200  1.0
  C  C933  1  0.715500  0.725300  0.550200  1.0
  C  C934  1  0.284500  0.274700  0.550200  1.0
  C  C935  1  0.274700  0.715500  0.550200  1.0
  C  C936  1  0.725300  0.284500  0.550200  1.0
  C  C937  1  0.784500  0.225300  0.949800  1.0
  C  C938  1  0.215500  0.774700  0.949800  1.0
  C  C939  1  0.225300  0.215500  0.949800  1.0
  C  C940  1  0.774700  0.784500  0.949800  1.0
  C  C941  1  0.238100  0.307900  0.476600  1.0
  C  C942  1  0.761900  0.692100  0.476600  1.0
  C  C943  1  0.692100  0.238100  0.476600  1.0
  C  C944  1  0.307900  0.761900  0.476600  1.0
  C  C945  1  0.261900  0.807900  0.023400  1.0
  C  C946  1  0.738100  0.192100  0.023400  1.0
  C  C947  1  0.807900  0.738100  0.023400  1.0
  C  C948  1  0.192100  0.261900  0.023400  1.0
  C  C949  1  0.761900  0.692100  0.523400  1.0
  C  C950  1  0.238100  0.307900  0.523400  1.0
  C  C951  1  0.307900  0.761900  0.523400  1.0
  C  C952  1  0.692100  0.238100  0.523400  1.0
  C  C953  1  0.738100  0.192100  0.976600  1.0
  C  C954  1  0.261900  0.807900  0.976600  1.0
  C  C955  1  0.192100  0.261900  0.976600  1.0
  C  C956  1  0.807900  0.738100  0.976600  1.0
  C  C957  1  0.018200  0.360300  0.417100  1.0
  C  C958  1  0.981800  0.639700  0.417100  1.0
  C  C959  1  0.639700  0.018200  0.417100  1.0
  C  C960  1  0.360300  0.981800  0.417100  1.0
  C  C961  1  0.481800  0.860300  0.082900  1.0
  C  C962  1  0.518200  0.139700  0.082900  1.0
  C  C963  1  0.860300  0.518200  0.082900  1.0
  C  C964  1  0.139700  0.481800  0.082900  1.0
  C  C965  1  0.981800  0.639700  0.582900  1.0
  C  C966  1  0.018200  0.360300  0.582900  1.0
  C  C967  1  0.360300  0.981800  0.582900  1.0
  C  C968  1  0.639700  0.018200  0.582900  1.0
  C  C969  1  0.518200  0.139700  0.917100  1.0
  C  C970  1  0.481800  0.860300  0.917100  1.0
  C  C971  1  0.139700  0.481800  0.917100  1.0
  C  C972  1  0.860300  0.518200  0.917100  1.0
  C  C973  1  0.098000  0.414700  0.411700  1.0
  C  C974  1  0.902000  0.585300  0.411700  1.0
  C  C975  1  0.585300  0.098000  0.411700  1.0
  C  C976  1  0.414700  0.902000  0.411700  1.0
  C  C977  1  0.402000  0.914700  0.088300  1.0
  C  C978  1  0.598000  0.085300  0.088300  1.0
  C  C979  1  0.914700  0.598000  0.088300  1.0
  C  C980  1  0.085300  0.402000  0.088300  1.0
  C  C981  1  0.902000  0.585300  0.588300  1.0
  C  C982  1  0.098000  0.414700  0.588300  1.0
  C  C983  1  0.414700  0.902000  0.588300  1.0
  C  C984  1  0.585300  0.098000  0.588300  1.0
  C  C985  1  0.598000  0.085300  0.911700  1.0
  C  C986  1  0.402000  0.914700  0.911700  1.0
  C  C987  1  0.085300  0.402000  0.911700  1.0
  C  C988  1  0.914700  0.598000  0.911700  1.0
  C  C989  1  0.956500  0.347500  0.393200  1.0
  C  C990  1  0.043500  0.652500  0.393200  1.0
  C  C991  1  0.652500  0.956500  0.393200  1.0
  C  C992  1  0.347500  0.043500  0.393200  1.0
  C  C993  1  0.543500  0.847500  0.106800  1.0
  C  C994  1  0.456500  0.152500  0.106800  1.0
  C  C995  1  0.847500  0.456500  0.106800  1.0
  C  C996  1  0.152500  0.543500  0.106800  1.0
  C  C997  1  0.043500  0.652500  0.606800  1.0
  C  C998  1  0.956500  0.347500  0.606800  1.0
  C  C999  1  0.347500  0.043500  0.606800  1.0
  C  C1000  1  0.652500  0.956500  0.606800  1.0
  C  C1001  1  0.456500  0.152500  0.893200  1.0
  C  C1002  1  0.543500  0.847500  0.893200  1.0
  C  C1003  1  0.152500  0.543500  0.893200  1.0
  C  C1004  1  0.847500  0.456500  0.893200  1.0
  C  C1005  1  0.140400  0.090700  0.373200  1.0
  C  C1006  1  0.859600  0.909300  0.373200  1.0
  C  C1007  1  0.909300  0.140400  0.373200  1.0
  C  C1008  1  0.090700  0.859600  0.373200  1.0
  C  C1009  1  0.359600  0.590700  0.126800  1.0
  C  C1010  1  0.640400  0.409300  0.126800  1.0
  C  C1011  1  0.590700  0.640400  0.126800  1.0
  C  C1012  1  0.409300  0.359600  0.126800  1.0
  C  C1013  1  0.859600  0.909300  0.626800  1.0
  C  C1014  1  0.140400  0.090700  0.626800  1.0
  C  C1015  1  0.090700  0.859600  0.626800  1.0
  C  C1016  1  0.909300  0.140400  0.626800  1.0
  C  C1017  1  0.640400  0.409300  0.873200  1.0
  C  C1018  1  0.359600  0.590700  0.873200  1.0
  C  C1019  1  0.409300  0.359600  0.873200  1.0
  C  C1020  1  0.590700  0.640400  0.873200  1.0
  C  C1021  1  0.167700  0.234500  0.441800  1.0
  C  C1022  1  0.832300  0.765500  0.441800  1.0
  C  C1023  1  0.765500  0.167700  0.441800  1.0
  C  C1024  1  0.234500  0.832300  0.441800  1.0
  C  C1025  1  0.332300  0.734500  0.058200  1.0
  C  C1026  1  0.667700  0.265500  0.058200  1.0
  C  C1027  1  0.734500  0.667700  0.058200  1.0
  C  C1028  1  0.265500  0.332300  0.058200  1.0
  C  C1029  1  0.832300  0.765500  0.558200  1.0
  C  C1030  1  0.167700  0.234500  0.558200  1.0
  C  C1031  1  0.234500  0.832300  0.558200  1.0
  C  C1032  1  0.765500  0.167700  0.558200  1.0
  C  C1033  1  0.667700  0.265500  0.941800  1.0
  C  C1034  1  0.332300  0.734500  0.941800  1.0
  C  C1035  1  0.265500  0.332300  0.941800  1.0
  C  C1036  1  0.734500  0.667700  0.941800  1.0
  C  C1037  1  0.939400  0.283500  0.441800  1.0
  C  C1038  1  0.060600  0.716500  0.441800  1.0
  C  C1039  1  0.716500  0.939400  0.441800  1.0
  C  C1040  1  0.283500  0.060600  0.441800  1.0
  C  C1041  1  0.560600  0.783500  0.058200  1.0
  C  C1042  1  0.439400  0.216500  0.058200  1.0
  C  C1043  1  0.783500  0.439400  0.058200  1.0
  C  C1044  1  0.216500  0.560600  0.058200  1.0
  C  C1045  1  0.060600  0.716500  0.558200  1.0
  C  C1046  1  0.939400  0.283500  0.558200  1.0
  C  C1047  1  0.283500  0.060600  0.558200  1.0
  C  C1048  1  0.716500  0.939400  0.558200  1.0
  C  C1049  1  0.439400  0.216500  0.941800  1.0
  C  C1050  1  0.560600  0.783500  0.941800  1.0
  C  C1051  1  0.216500  0.560600  0.941800  1.0
  C  C1052  1  0.783500  0.439400  0.941800  1.0
  N  N1053  1  0.212000  0.110600  0.368000  1
  N  N1054  1  0.788000  0.889400  0.368000  1
  N  N1055  1  0.889400  0.212000  0.368000  1
  N  N1056  1  0.110600  0.788000  0.368000  1
  N  N1057  1  0.288000  0.610600  0.132000  1
  N  N1058  1  0.712000  0.389400  0.132000  1
  N  N1059  1  0.610600  0.712000  0.132000  1
  N  N1060  1  0.389400  0.288000  0.132000  1
  N  N1061  1  0.788000  0.889400  0.632000  1
  N  N1062  1  0.212000  0.110600  0.632000  1
  N  N1063  1  0.110600  0.788000  0.632000  1
  N  N1064  1  0.889400  0.212000  0.632000  1
  N  N1065  1  0.712000  0.389400  0.868000  1
  N  N1066  1  0.288000  0.610600  0.868000  1
  N  N1067  1  0.389400  0.288000  0.868000  1
  N  N1068  1  0.610600  0.712000  0.868000  1
  N  N1069  1  0.110100  0.038700  0.349400  1
  N  N1070  1  0.889900  0.961300  0.349400  1
  N  N1071  1  0.961300  0.110100  0.349400  1
  N  N1072  1  0.038700  0.889900  0.349400  1
  N  N1073  1  0.389900  0.538700  0.150600  1
  N  N1074  1  0.610100  0.461300  0.150600  1
  N  N1075  1  0.538700  0.610100  0.150600  1
  N  N1076  1  0.461300  0.389900  0.150600  1
  N  N1077  1  0.889900  0.961300  0.650600  1
  N  N1078  1  0.110100  0.038700  0.650600  1
  N  N1079  1  0.038700  0.889900  0.650600  1
  N  N1080  1  0.961300  0.110100  0.650600  1
  N  N1081  1  0.610100  0.461300  0.849400  1
  N  N1082  1  0.389900  0.538700  0.849400  1
  N  N1083  1  0.461300  0.389900  0.849400  1
  N  N1084  1  0.538700  0.610100  0.849400  1
  N  N1085  1  0.205300  0.234800  0.407000  1
  N  N1086  1  0.794700  0.765200  0.407000  1
  N  N1087  1  0.765200  0.205300  0.407000  1
  N  N1088  1  0.234800  0.794700  0.407000  1
  N  N1089  1  0.294700  0.734800  0.093000  1
  N  N1090  1  0.705300  0.265200  0.093000  1
  N  N1091  1  0.734800  0.705300  0.093000  1
  N  N1092  1  0.265200  0.294700  0.093000  1
  N  N1093  1  0.794700  0.765200  0.593000  1
  N  N1094  1  0.205300  0.234800  0.593000  1
  N  N1095  1  0.234800  0.794700  0.593000  1
  N  N1096  1  0.765200  0.205300  0.593000  1
  N  N1097  1  0.705300  0.265200  0.907000  1
  N  N1098  1  0.294700  0.734800  0.907000  1
  N  N1099  1  0.265200  0.294700  0.907000  1
  N  N1100  1  0.734800  0.705300  0.907000  1
  N  N1101  1  0.124700  0.293400  0.448200  1
  N  N1102  1  0.875300  0.706600  0.448200  1
  N  N1103  1  0.706600  0.124700  0.448200  1
  N  N1104  1  0.293400  0.875300  0.448200  1
  N  N1105  1  0.375300  0.793400  0.051800  1
  N  N1106  1  0.624700  0.206600  0.051800  1
  N  N1107  1  0.793400  0.624700  0.051800  1
  N  N1108  1  0.206600  0.375300  0.051800  1
  N  N1109  1  0.875300  0.706600  0.551800  1
  N  N1110  1  0.124700  0.293400  0.551800  1
  N  N1111  1  0.293400  0.875300  0.551800  1
  N  N1112  1  0.706600  0.124700  0.551800  1
  N  N1113  1  0.624700  0.206600  0.948200  1
  N  N1114  1  0.375300  0.793400  0.948200  1
  N  N1115  1  0.206600  0.375300  0.948200  1
  N  N1116  1  0.793400  0.624700  0.948200  1
  N  N1117  1  0.961400  0.329800  0.469500  1
  N  N1118  1  0.038600  0.670200  0.469500  1
  N  N1119  1  0.670200  0.961400  0.469500  1
  N  N1120  1  0.329800  0.038600  0.469500  1
  N  N1121  1  0.538600  0.829800  0.030500  1
  N  N1122  1  0.461400  0.170200  0.030500  1
  N  N1123  1  0.829800  0.461400  0.030500  1
  N  N1124  1  0.170200  0.538600  0.030500  1
  N  N1125  1  0.038600  0.670200  0.530500  1
  N  N1126  1  0.961400  0.329800  0.530500  1
  N  N1127  1  0.329800  0.038600  0.530500  1
  N  N1128  1  0.670200  0.961400  0.530500  1
  N  N1129  1  0.461400  0.170200  0.969500  1
  N  N1130  1  0.538600  0.829800  0.969500  1
  N  N1131  1  0.170200  0.538600  0.969500  1
  N  N1132  1  0.829800  0.461400  0.969500  1
  N  N1133  1  0.872100  0.303700  0.424300  1
  N  N1134  1  0.127900  0.696300  0.424300  1
  N  N1135  1  0.696300  0.872100  0.424300  1
  N  N1136  1  0.303700  0.127900  0.424300  1
  N  N1137  1  0.627900  0.803700  0.075700  1
  N  N1138  1  0.372100  0.196300  0.075700  1
  N  N1139  1  0.803700  0.372100  0.075700  1
  N  N1140  1  0.196300  0.627900  0.075700  1
  N  N1141  1  0.127900  0.696300  0.575700  1
  N  N1142  1  0.872100  0.303700  0.575700  1
  N  N1143  1  0.303700  0.127900  0.575700  1
  N  N1144  1  0.696300  0.872100  0.575700  1
  N  N1145  1  0.372100  0.196300  0.924300  1
  N  N1146  1  0.627900  0.803700  0.924300  1
  N  N1147  1  0.196300  0.627900  0.924300  1
  N  N1148  1  0.803700  0.372100  0.924300  1
  N  N1149  1  0.946000  0.084000  0.534400  1.0
  N  N1150  1  0.054000  0.916000  0.534400  1.0
  N  N1151  1  0.916000  0.946000  0.534400  1.0
  N  N1152  1  0.084000  0.054000  0.534400  1.0
  N  N1153  1  0.554000  0.584000  0.965600  1.0
  N  N1154  1  0.446000  0.416000  0.965600  1.0
  N  N1155  1  0.584000  0.446000  0.965600  1.0
  N  N1156  1  0.416000  0.554000  0.965600  1.0
  N  N1157  1  0.054000  0.916000  0.465600  1.0
  N  N1158  1  0.946000  0.084000  0.465600  1.0
  N  N1159  1  0.084000  0.054000  0.465600  1.0
  N  N1160  1  0.916000  0.946000  0.465600  1.0
  N  N1161  1  0.446000  0.416000  0.034400  1.0
  N  N1162  1  0.554000  0.584000  0.034400  1.0
  N  N1163  1  0.416000  0.554000  0.034400  1.0
  N  N1164  1  0.584000  0.446000  0.034400  1.0
  N  N1165  1  0.321100  0.206500  0.364100  1.0
  N  N1166  1  0.678900  0.793500  0.364100  1.0
  N  N1167  1  0.793500  0.321100  0.364100  1.0
  N  N1168  1  0.206500  0.678900  0.364100  1.0
  N  N1169  1  0.178900  0.706500  0.135900  1.0
  N  N1170  1  0.821100  0.293500  0.135900  1.0
  N  N1171  1  0.706500  0.821100  0.135900  1.0
  N  N1172  1  0.293500  0.178900  0.135900  1.0
  N  N1173  1  0.678900  0.793500  0.635900  1.0
  N  N1174  1  0.321100  0.206500  0.635900  1.0
  N  N1175  1  0.206500  0.678900  0.635900  1.0
  N  N1176  1  0.793500  0.321100  0.635900  1.0
  N  N1177  1  0.821100  0.293500  0.864100  1.0
  N  N1178  1  0.178900  0.706500  0.864100  1.0
  N  N1179  1  0.293500  0.178900  0.864100  1.0
  N  N1180  1  0.706500  0.821100  0.864100  1.0
  N  N1181  1  0.434000  0.239100  0.330100  1.0
  N  N1182  1  0.566000  0.760900  0.330100  1.0
  N  N1183  1  0.760900  0.434000  0.330100  1.0
  N  N1184  1  0.239100  0.566000  0.330100  1.0
  N  N1185  1  0.066000  0.739100  0.169900  1.0
  N  N1186  1  0.934000  0.260900  0.169900  1.0
  N  N1187  1  0.739100  0.934000  0.169900  1.0
  N  N1188  1  0.260900  0.066000  0.169900  1.0
  N  N1189  1  0.566000  0.760900  0.669900  1.0
  N  N1190  1  0.434000  0.239100  0.669900  1.0
  N  N1191  1  0.239100  0.566000  0.669900  1.0
  N  N1192  1  0.760900  0.434000  0.669900  1.0
  N  N1193  1  0.934000  0.260900  0.830100  1.0
  N  N1194  1  0.066000  0.739100  0.830100  1.0
  N  N1195  1  0.260900  0.066000  0.830100  1.0
  N  N1196  1  0.739100  0.934000  0.830100  1.0
  N  N1197  1  0.187500  0.152100  0.369600  1.0
  N  N1198  1  0.812500  0.847900  0.369600  1.0
  N  N1199  1  0.847900  0.187500  0.369600  1.0
  N  N1200  1  0.152100  0.812500  0.369600  1.0
  N  N1201  1  0.312500  0.652100  0.130400  1.0
  N  N1202  1  0.687500  0.347900  0.130400  1.0
  N  N1203  1  0.652100  0.687500  0.130400  1.0
  N  N1204  1  0.347900  0.312500  0.130400  1.0
  N  N1205  1  0.812500  0.847900  0.630400  1.0
  N  N1206  1  0.187500  0.152100  0.630400  1.0
  N  N1207  1  0.152100  0.812500  0.630400  1.0
  N  N1208  1  0.847900  0.187500  0.630400  1.0
  N  N1209  1  0.687500  0.347900  0.869600  1.0
  N  N1210  1  0.312500  0.652100  0.869600  1.0
  N  N1211  1  0.347900  0.312500  0.869600  1.0
  N  N1212  1  0.652100  0.687500  0.869600  1.0
  N  N1213  1  0.080000  0.088500  0.350100  1.0
  N  N1214  1  0.920000  0.911500  0.350100  1.0
  N  N1215  1  0.911500  0.080000  0.350100  1.0
  N  N1216  1  0.088500  0.920000  0.350100  1.0
  N  N1217  1  0.420000  0.588500  0.149900  1.0
  N  N1218  1  0.580000  0.411500  0.149900  1.0
  N  N1219  1  0.588500  0.580000  0.149900  1.0
  N  N1220  1  0.411500  0.420000  0.149900  1.0
  N  N1221  1  0.920000  0.911500  0.649900  1.0
  N  N1222  1  0.080000  0.088500  0.649900  1.0
  N  N1223  1  0.088500  0.920000  0.649900  1.0
  N  N1224  1  0.911500  0.080000  0.649900  1.0
  N  N1225  1  0.580000  0.411500  0.850100  1.0
  N  N1226  1  0.420000  0.588500  0.850100  1.0
  N  N1227  1  0.411500  0.420000  0.850100  1.0
  N  N1228  1  0.588500  0.580000  0.850100  1.0
  N  N1229  1  0.235200  0.227800  0.427000  1.0
  N  N1230  1  0.764800  0.772200  0.427000  1.0
  N  N1231  1  0.772200  0.235200  0.427000  1.0
  N  N1232  1  0.227800  0.764800  0.427000  1.0
  N  N1233  1  0.264800  0.727800  0.073000  1.0
  N  N1234  1  0.735200  0.272200  0.073000  1.0
  N  N1235  1  0.727800  0.735200  0.073000  1.0
  N  N1236  1  0.272200  0.264800  0.073000  1.0
  N  N1237  1  0.764800  0.772200  0.573000  1.0
  N  N1238  1  0.235200  0.227800  0.573000  1.0
  N  N1239  1  0.227800  0.764800  0.573000  1.0
  N  N1240  1  0.772200  0.235200  0.573000  1.0
  N  N1241  1  0.735200  0.272200  0.927000  1.0
  N  N1242  1  0.264800  0.727800  0.927000  1.0
  N  N1243  1  0.272200  0.264800  0.927000  1.0
  N  N1244  1  0.727800  0.735200  0.927000  1.0
  N  N1245  1  0.166600  0.286200  0.471100  1.0
  N  N1246  1  0.833400  0.713800  0.471100  1.0
  N  N1247  1  0.713800  0.166600  0.471100  1.0
  N  N1248  1  0.286200  0.833400  0.471100  1.0
  N  N1249  1  0.333400  0.786200  0.028900  1.0
  N  N1250  1  0.666600  0.213800  0.028900  1.0
  N  N1251  1  0.786200  0.666600  0.028900  1.0
  N  N1252  1  0.213800  0.333400  0.028900  1.0
  N  N1253  1  0.833400  0.713800  0.528900  1.0
  N  N1254  1  0.166600  0.286200  0.528900  1.0
  N  N1255  1  0.286200  0.833400  0.528900  1.0
  N  N1256  1  0.713800  0.166600  0.528900  1.0
  N  N1257  1  0.666600  0.213800  0.971100  1.0
  N  N1258  1  0.333400  0.786200  0.971100  1.0
  N  N1259  1  0.213800  0.333400  0.971100  1.0
  N  N1260  1  0.786200  0.666600  0.971100  1.0
  N  N1261  1  0.001400  0.317300  0.451300  1.0
  N  N1262  1  0.998600  0.682700  0.451300  1.0
  N  N1263  1  0.682700  0.001400  0.451300  1.0
  N  N1264  1  0.317300  0.998600  0.451300  1.0
  N  N1265  1  0.498600  0.817300  0.048700  1.0
  N  N1266  1  0.501400  0.182700  0.048700  1.0
  N  N1267  1  0.817300  0.501400  0.048700  1.0
  N  N1268  1  0.182700  0.498600  0.048700  1.0
  N  N1269  1  0.998600  0.682700  0.548700  1.0
  N  N1270  1  0.001400  0.317300  0.548700  1.0
  N  N1271  1  0.317300  0.998600  0.548700  1.0
  N  N1272  1  0.682700  0.001400  0.548700  1.0
  N  N1273  1  0.501400  0.182700  0.951300  1.0
  N  N1274  1  0.498600  0.817300  0.951300  1.0
  N  N1275  1  0.182700  0.498600  0.951300  1.0
  N  N1276  1  0.817300  0.501400  0.951300  1.0
  N  N1277  1  0.297000  0.094100  0.410000  1.0
  N  N1278  1  0.703000  0.905900  0.410000  1.0
  N  N1279  1  0.905900  0.297000  0.410000  1.0
  N  N1280  1  0.094100  0.703000  0.410000  1.0
  N  N1281  1  0.203000  0.594100  0.090000  1.0
  N  N1282  1  0.797000  0.405900  0.090000  1.0
  N  N1283  1  0.594100  0.797000  0.090000  1.0
  N  N1284  1  0.405900  0.203000  0.090000  1.0
  N  N1285  1  0.703000  0.905900  0.590000  1.0
  N  N1286  1  0.297000  0.094100  0.590000  1.0
  N  N1287  1  0.094100  0.703000  0.590000  1.0
  N  N1288  1  0.905900  0.297000  0.590000  1.0
  N  N1289  1  0.797000  0.405900  0.910000  1.0
  N  N1290  1  0.203000  0.594100  0.910000  1.0
  N  N1291  1  0.405900  0.203000  0.910000  1.0
  N  N1292  1  0.594100  0.797000  0.910000  1.0
  O  O1293  1  0.466800  0.330000  0.449700  1
  O  O1294  1  0.533200  0.670000  0.449700  1
  O  O1295  1  0.670000  0.466800  0.449700  1
  O  O1296  1  0.330000  0.533200  0.449700  1
  O  O1297  1  0.033200  0.830000  0.050300  1
  O  O1298  1  0.966800  0.170000  0.050300  1
  O  O1299  1  0.830000  0.966800  0.050300  1
  O  O1300  1  0.170000  0.033200  0.050300  1
  O  O1301  1  0.533200  0.670000  0.550300  1
  O  O1302  1  0.466800  0.330000  0.550300  1
  O  O1303  1  0.330000  0.533200  0.550300  1
  O  O1304  1  0.670000  0.466800  0.550300  1
  O  O1305  1  0.966800  0.170000  0.949700  1
  O  O1306  1  0.033200  0.830000  0.949700  1
  O  O1307  1  0.170000  0.033200  0.949700  1
  O  O1308  1  0.830000  0.966800  0.949700  1
  O  O1309  1  0.500000  0.500000  0.386000  1
  O  O1310  1  0.000000  0.000000  0.114000  1
  O  O1311  1  0.500000  0.500000  0.614000  1
  O  O1312  1  0.000000  0.000000  0.886000  1
  O  O1313  1  0.570000  0.317000  0.322900  1
  O  O1314  1  0.430000  0.683000  0.322900  1
  O  O1315  1  0.683000  0.570000  0.322900  1
  O  O1316  1  0.317000  0.430000  0.322900  1
  O  O1317  1  0.930000  0.817000  0.177100  1
  O  O1318  1  0.070000  0.183000  0.177100  1
  O  O1319  1  0.817000  0.070000  0.177100  1
  O  O1320  1  0.183000  0.930000  0.177100  1
  O  O1321  1  0.430000  0.683000  0.677100  1
  O  O1322  1  0.570000  0.317000  0.677100  1
  O  O1323  1  0.317000  0.430000  0.677100  1
  O  O1324  1  0.683000  0.570000  0.677100  1
  O  O1325  1  0.070000  0.183000  0.822900  1
  O  O1326  1  0.930000  0.817000  0.822900  1
  O  O1327  1  0.183000  0.930000  0.822900  1
  O  O1328  1  0.817000  0.070000  0.822900  1
  O  O1329  1  0.639000  0.184000  0.292200  1
  O  O1330  1  0.361000  0.816000  0.292200  1
  O  O1331  1  0.816000  0.639000  0.292200  1
  O  O1332  1  0.184000  0.361000  0.292200  1
  O  O1333  1  0.861000  0.684000  0.207800  1
  O  O1334  1  0.139000  0.316000  0.207800  1
  O  O1335  1  0.684000  0.139000  0.207800  1
  O  O1336  1  0.316000  0.861000  0.207800  1
  O  O1337  1  0.361000  0.816000  0.707800  1
  O  O1338  1  0.639000  0.184000  0.707800  1
  O  O1339  1  0.184000  0.361000  0.707800  1
  O  O1340  1  0.816000  0.639000  0.707800  1
  O  O1341  1  0.139000  0.316000  0.792200  1
  O  O1342  1  0.861000  0.684000  0.792200  1
  O  O1343  1  0.316000  0.861000  0.792200  1
  O  O1344  1  0.684000  0.139000  0.792200  1
  O  O1345  1  0.586000  0.993000  0.301900  1
  O  O1346  1  0.414000  0.007000  0.301900  1
  O  O1347  1  0.007000  0.586000  0.301900  1
  O  O1348  1  0.993000  0.414000  0.301900  1
  O  O1349  1  0.914000  0.493000  0.198100  1
  O  O1350  1  0.086000  0.507000  0.198100  1
  O  O1351  1  0.493000  0.086000  0.198100  1
  O  O1352  1  0.507000  0.914000  0.198100  1
  O  O1353  1  0.414000  0.007000  0.698100  1
  O  O1354  1  0.586000  0.993000  0.698100  1
  O  O1355  1  0.993000  0.414000  0.698100  1
  O  O1356  1  0.007000  0.586000  0.698100  1
  O  O1357  1  0.086000  0.507000  0.801900  1
  O  O1358  1  0.914000  0.493000  0.801900  1
  O  O1359  1  0.507000  0.914000  0.801900  1
  O  O1360  1  0.493000  0.086000  0.801900  1
  O  O1361  1  0.919700  0.127300  0.500000  1.0
  O  O1362  1  0.080300  0.872700  0.500000  1.0
  O  O1363  1  0.872700  0.919700  0.500000  1.0
  O  O1364  1  0.127300  0.080300  0.500000  1.0
  O  O1365  1  0.580300  0.627300  0.000000  1.0
  O  O1366  1  0.419700  0.372700  0.000000  1.0
  O  O1367  1  0.627300  0.419700  0.000000  1.0
  O  O1368  1  0.372700  0.580300  0.000000  1.0
  O  O1369  1  0.020800  0.105100  0.550200  1.0
  O  O1370  1  0.979200  0.894900  0.550200  1.0
  O  O1371  1  0.894900  0.020800  0.550200  1.0
  O  O1372  1  0.105100  0.979200  0.550200  1.0
  O  O1373  1  0.479200  0.605100  0.949800  1.0
  O  O1374  1  0.520800  0.394900  0.949800  1.0
  O  O1375  1  0.605100  0.520800  0.949800  1.0
  O  O1376  1  0.394900  0.479200  0.949800  1.0
  O  O1377  1  0.979200  0.894900  0.449800  1.0
  O  O1378  1  0.020800  0.105100  0.449800  1.0
  O  O1379  1  0.105100  0.979200  0.449800  1.0
  O  O1380  1  0.894900  0.020800  0.449800  1.0
  O  O1381  1  0.520800  0.394900  0.050200  1.0
  O  O1382  1  0.479200  0.605100  0.050200  1.0
  O  O1383  1  0.394900  0.479200  0.050200  1.0
  O  O1384  1  0.605100  0.520800  0.050200  1.0
