
#######################################################################
#
#                 Cambridge Crystallographic Data Centre
#                                CCDC 
#
#######################################################################
#
# If this CIF has been generated from an entry in the Cambridge 
# Structural Database, then it will include bibliographic, chemical, 
# crystal, experimental, refinement or atomic coordinate data resulting 
# from the CCDC's data processing and validation procedures.
#
#######################################################################

data_WUQNIG
_chemical_formula_moiety         
'C108 H144 N36 Pd6 12+,C26 H23 N1 O2,12(N1 O3 1-),44.4(H2 O1)'
_chemical_name_systematic        
'tetrakis(\m~3~-2,4,6-tris(pyridin-4-yl)-1,3,5-triazine)-hexakis(1,2-bis(dimethylamino)ethane)-hexa-palladium(ii) 9-cyclohexyl-10a,11-dihydro-7H-7,11-ethenoacenaphtho[3,4-f]isoindole-8,10(7aH,9H)-dione dodecakis(nitrate) hydrate'
_symmetry_cell_setting           tetragonal
_symmetry_space_group_name_H-M   'I 41/a'
_symmetry_Int_Tables_number      88
_space_group_name_Hall           '-I 4ad'
loop_
_symmetry_equiv_pos_site_id
_symmetry_equiv_pos_as_xyz
1 x,y,z
2 1/2-x,-y,1/2+z
3 3/4-y,1/4+x,1/4+z
4 3/4+y,3/4-x,3/4+z
5 1/2+x,1/2+y,1/2+z
6 -x,1/2-y,z
7 1/4-y,3/4+x,3/4+z
8 1/4+y,1/4-x,1/4+z
9 -x,-y,-z
10 1/2+x,y,1/2-z
11 1/4+y,3/4-x,3/4-z
12 1/4-y,1/4+x,1/4-z
13 1/2-x,1/2-y,1/2-z
14 x,1/2+y,-z
15 3/4+y,1/4-x,1/4-z
16 3/4-y,3/4+x,3/4-z
_cell_length_a                   26.0405(17)
_cell_length_b                   26.0405(17)
_cell_length_c                   31.603(2)
_cell_angle_alpha                90
_cell_angle_beta                 90
_cell_angle_gamma                90
_cell_volume                     21430.2
_exptl_crystal_colour            yellow
_exptl_crystal_description       block
_cell_formula_units_Z            4
loop_
_atom_site_label
_atom_site_type_symbol
_atom_site_fract_x
_atom_site_fract_y
_atom_site_fract_z
C37 C 0.6222(16) 1.3008(19) 0.8228(14)
H61 H 0.6202 1.3385 0.8285
C38 C 0.6773(16) 1.283(3) 0.8122(15)
H62 H 0.7058 1.3055 0.8100
C39 C 0.6804(16) 1.232(3) 0.8064(15)
H63 H 0.7120 1.2152 0.7995
C40 C 0.6311(16) 1.201(2) 0.8115(13)
H64 H 0.6364 1.1635 0.8083
C41 C 0.6102(17) 1.216(2) 0.8548(12)
C42 C 0.6094(18) 1.268(2) 0.8619(12)
C43 C 0.4740(18) 1.290(3) 0.7899(14)
C44 C 0.4950(17) 1.320(2) 0.8208(13)
C45 C 0.5470(17) 1.320(2) 0.8284(13)
C46 C 0.579(2) 1.286(2) 0.8065(18)
H65 H 0.6140 1.2825 0.8135
C47 C 0.557(2) 1.256(3) 0.7739(18)
H66 H 0.5790 1.2349 0.7572
C48 C 0.505(2) 1.258(3) 0.7659(16)
H67 H 0.4911 1.2379 0.7439
C49 C 0.5892(17) 1.289(2) 0.8995(14)
C50 C 0.5900(17) 1.182(2) 0.8847(14)
H68 H 0.5902 1.1464 0.8801
C51 C 0.5836(15) 1.283(2) 0.7868(13)
H69 H 0.5882 1.3030 0.7600
C52 C 0.5896(15) 1.223(2) 0.7793(12)
H70 H 0.5976 1.2144 0.7492
C53 C 0.581(2) 1.203(3) 0.7976(17)
H71 H 0.6082 1.2171 0.7808
C54 C 0.588(2) 1.174(2) 0.832(2)
H72 H 0.6208 1.1632 0.8424
C55 C 0.5297(16) 1.2864(17) 0.8034(13)
C56 C 0.4612(18) 1.2972(17) 0.7933(17)
O1 O 0.5089(16) 1.3268(16) 0.8133(17)
O2 O 0.4724(19) 1.3427(17) 0.792(2)
N10 N 0.4936(15) 1.2600(16) 0.8068(15)
C57 C 0.5490(15) 1.2673(18) 0.8117(14)
H73 H 0.5556 1.3050 0.8085
C58 C 0.5796(17) 1.240(2) 0.7765(15)
H74 H 0.5742 1.2027 0.7784
H75 H 0.5672 1.2520 0.7485
C59 C 0.6368(17) 1.252(2) 0.781(2)
H76 H 0.6423 1.2899 0.7780
H77 H 0.6563 1.2349 0.7584
C60 C 0.6563(16) 1.235(3) 0.825(3)
H78 H 0.6516 1.1970 0.8275
H79 H 0.6933 1.2423 0.8274
C61 C 0.626(2) 1.262(3) 0.860(2)
H80 H 0.6384 1.2499 0.8877
H81 H 0.6330 1.2996 0.8581
C62 C 0.569(2) 1.252(2) 0.8557(14)
H82 H 0.5616 1.2154 0.8607
H83 H 0.5500 1.2723 0.8774
C37E C 0.3778(16) 1.1992(19) 0.8228(14)
C37O C 0.4492(19) 1.3722(16) 0.9272(14)
C37J C 0.5508(19) 1.1278(16) 0.9272(14)
H61E H 0.3798 1.1615 0.8285
H61O H 0.4115 1.3702 0.9215
H61J H 0.5885 1.1298 0.9215
C38E C 0.3227(16) 1.217(3) 0.8122(15)
C38O C 0.467(3) 1.4273(16) 0.9378(15)
C38J C 0.533(3) 1.0727(16) 0.9378(15)
H62E H 0.2942 1.1945 0.8100
H62O H 0.4445 1.4558 0.9400
H62J H 0.5555 1.0442 0.9400
C39E C 0.3196(16) 1.268(3) 0.8064(15)
C39O C 0.518(3) 1.4304(16) 0.9436(15)
C39J C 0.482(3) 1.0696(16) 0.9436(15)
H63E H 0.2880 1.2848 0.7995
H63O H 0.5348 1.4620 0.9505
H63J H 0.4652 1.0380 0.9505
C40E C 0.3689(16) 1.299(2) 0.8115(13)
C40O C 0.549(2) 1.3811(16) 0.9385(13)
C40J C 0.451(2) 1.1189(16) 0.9385(13)
H64E H 0.3636 1.3365 0.8083
H64O H 0.5865 1.3864 0.9417
H64J H 0.4135 1.1136 0.9417
C41E C 0.3898(17) 1.284(2) 0.8548(12)
C41O C 0.534(2) 1.3602(17) 0.8952(12)
C41J C 0.466(2) 1.1398(17) 0.8952(12)
C42E C 0.3906(18) 1.232(2) 0.8619(12)
C42O C 0.482(2) 1.3594(18) 0.8881(12)
C42J C 0.518(2) 1.1406(18) 0.8881(12)
C43E C 0.5260(18) 1.210(3) 0.7899(14)
C43O C 0.460(3) 1.2240(18) 0.9601(14)
C43J C 0.540(3) 1.2760(18) 0.9601(14)
C44E C 0.5050(17) 1.180(2) 0.8208(13)
C44O C 0.430(2) 1.2450(17) 0.9292(13)
C44J C 0.570(2) 1.2550(17) 0.9292(13)
C45E C 0.4530(17) 1.180(2) 0.8284(13)
C45O C 0.430(2) 1.2970(17) 0.9216(13)
C45J C 0.570(2) 1.2030(17) 0.9216(13)
C46E C 0.421(2) 1.214(2) 0.8065(18)
C46O C 0.464(2) 1.329(2) 0.9435(18)
C46J C 0.536(2) 1.171(2) 0.9435(18)
H65E H 0.3860 1.2175 0.8135
H65J H 0.5325 1.1360 0.9365
H65O H 0.4675 1.3640 0.9365
C47E C 0.443(2) 1.244(3) 0.7739(18)
C47J C 0.506(3) 1.193(2) 0.9761(18)
C47O C 0.494(3) 1.307(2) 0.9761(18)
H66E H 0.4210 1.2651 0.7572
H66O H 0.5151 1.3290 0.9928
H66J H 0.4849 1.1710 0.9928
C48E C 0.495(2) 1.242(3) 0.7659(16)
C48O C 0.492(3) 1.255(2) 0.9841(16)
C48J C 0.508(3) 1.245(2) 0.9841(16)
H67J H 0.4879 1.2589 1.0061
H67O H 0.5121 1.2411 1.0061
H67E H 0.5089 1.2621 0.7439
C49O C 0.461(2) 1.3392(17) 0.8505(14)
C49E C 0.4108(17) 1.211(2) 0.8995(14)
C49J C 0.539(2) 1.1608(17) 0.8505(14)
C50E C 0.4100(17) 1.318(2) 0.8847(14)
C50O C 0.568(2) 1.3400(17) 0.8653(14)
C50J C 0.432(2) 1.1600(17) 0.8653(14)
H68O H 0.6036 1.3402 0.8699
H68E H 0.4098 1.3536 0.8801
H68J H 0.3964 1.1598 0.8699
C51O C 0.467(2) 1.3336(15) 0.9632(13)
C51E C 0.4164(15) 1.217(2) 0.7868(13)
C51J C 0.533(2) 1.1664(15) 0.9632(13)
H69J H 0.5530 1.1618 0.9900
H69E H 0.4118 1.1970 0.7600
H69O H 0.4470 1.3382 0.9900
C52E C 0.4104(15) 1.277(2) 0.7793(12)
C52J C 0.473(2) 1.1604(15) 0.9707(12)
C52O C 0.527(2) 1.3396(15) 0.9707(12)
H70E H 0.4024 1.2856 0.7492
H70O H 0.5356 1.3476 1.0008
H70J H 0.4644 1.1524 1.0008
C53E C 0.419(2) 1.297(3) 0.7976(17)
C53J C 0.453(3) 1.169(2) 0.9524(17)
C53O C 0.547(3) 1.331(2) 0.9524(17)
H71E H 0.3918 1.2829 0.7808
H71O H 0.5329 1.3582 0.9692
H71J H 0.4671 1.1418 0.9692
C54E C 0.412(2) 1.326(2) 0.832(2)
C54O C 0.576(2) 1.338(2) 0.918(2)
C54J C 0.424(2) 1.162(2) 0.918(2)
H72J H 0.4132 1.1292 0.9076
H72E H 0.3792 1.3368 0.8424
H72O H 0.5868 1.3708 0.9076
C55O C 0.4636(17) 1.2797(16) 0.9466(13)
C55E C 0.4703(16) 1.2136(17) 0.8034(13)
C55J C 0.5364(17) 1.2203(16) 0.9466(13)
C56O C 0.4528(17) 1.2112(18) 0.9567(17)
C56E C 0.5388(18) 1.2028(17) 0.7933(17)
C56J C 0.5472(17) 1.2888(18) 0.9567(17)
O1J O 0.5768(16) 1.2411(16) 0.9367(17)
O1O O 0.4232(16) 1.2589(16) 0.9367(17)
O1E O 0.4911(16) 1.1732(16) 0.8133(17)
O2J O 0.5927(17) 1.2776(19) 0.958(2)
O2O O 0.4073(17) 1.2224(19) 0.958(2)
O2E O 0.5276(19) 1.1573(17) 0.792(2)
N10J N 0.5100(16) 1.2564(15) 0.9432(15)
N10O N 0.4900(16) 1.2436(15) 0.9432(15)
N10E N 0.5064(15) 1.2400(16) 0.8068(15)
C57J C 0.5173(18) 1.2010(15) 0.9383(14)
C57O C 0.4827(18) 1.2990(15) 0.9383(14)
C57E C 0.4510(15) 1.2327(18) 0.8117(14)
H73O H 0.4450 1.3056 0.9415
H73J H 0.5550 1.1944 0.9415
H73E H 0.4444 1.1950 0.8085
C58E C 0.4204(17) 1.260(2) 0.7765(15)
C58O C 0.510(2) 1.3296(17) 0.9735(15)
C58J C 0.490(2) 1.1704(17) 0.9735(15)
H74E H 0.4258 1.2973 0.7784
H74O H 0.5473 1.3242 0.9716
H74J H 0.4527 1.1758 0.9716
H75E H 0.4328 1.2480 0.7485
H75O H 0.4980 1.3172 1.0015
H75J H 0.5020 1.1828 1.0015
C59E C 0.3632(17) 1.248(2) 0.781(2)
C59O C 0.498(2) 1.3868(17) 0.969(2)
C59J C 0.502(2) 1.1132(17) 0.969(2)
H76J H 0.5399 1.1077 0.9720
H76O H 0.4601 1.3923 0.9720
H76E H 0.3577 1.2101 0.7780
H77J H 0.4849 1.0937 0.9916
H77O H 0.5151 1.4063 0.9916
H77E H 0.3437 1.2651 0.7584
C60E C 0.3437(16) 1.265(3) 0.825(3)
C60O C 0.515(3) 1.4063(16) 0.925(3)
C60J C 0.485(3) 1.0937(16) 0.925(3)
H78J H 0.4470 1.0984 0.9225
H78O H 0.5530 1.4016 0.9225
H78E H 0.3484 1.3030 0.8275
H79J H 0.4923 1.0567 0.9226
H79O H 0.5077 1.4433 0.9226
H79E H 0.3067 1.2577 0.8274
C61O C 0.488(3) 1.376(2) 0.890(2)
C61E C 0.374(2) 1.238(3) 0.860(2)
C61J C 0.512(3) 1.124(2) 0.890(2)
H80O H 0.5001 1.3884 0.8623
H80J H 0.4999 1.1116 0.8623
H80E H 0.3616 1.2501 0.8877
H81O H 0.4504 1.3830 0.8919
H81J H 0.5496 1.1170 0.8919
H81E H 0.3670 1.2004 0.8581
C62O C 0.498(2) 1.319(2) 0.8943(14)
C62J C 0.502(2) 1.181(2) 0.8943(14)
C62E C 0.431(2) 1.248(2) 0.8557(14)
H82O H 0.5346 1.3116 0.8893
H82J H 0.4654 1.1884 0.8893
H82E H 0.4384 1.2846 0.8607
H83O H 0.4777 1.3000 0.8726
H83J H 0.5223 1.2000 0.8726
H83E H 0.4500 1.2277 0.8774
N11 N 0.6164(4) 0.9370(4) 0.9821(3)
O3 O 0.6312(4) 0.9076(4) 0.9523(3)
O4 O 0.6426(3) 0.9535(3) 1.0145(3)
O5 O 0.5714(3) 0.9656(4) 0.9743(3)
O6 O 0.8238(5) 1.2494(5) 0.8290(4)
O11 O 0.5207(4) 1.3766(3) 1.1525(3)
N16 N 0.8583(11) 0.9268(10) 0.7416(9)
O25 O 0.8507(16) 0.9458(18) 0.7827(9)
O26 O 0.9101(10) 0.919(2) 0.7277(14)
O27 O 0.8196(8) 0.9212(8) 0.7117(6)
O28 O 0.5480(8) 0.9543(9) 0.7144(7)
N20 N 0.9595(8) 0.9988(10) 0.8204(7)
O40 O 1.0070(9) 1.0074(10) 0.8444(8)
O41 O 0.9127(11) 1.015(3) 0.8365(18)
O42 O 0.9645(13) 0.9750(14) 0.7802(8)
O48 O 0.7247(6) 1.1734(6) 1.2151(5)
O49 O 0.496(2) 1.093(2) 1.4172(17)
O50 O 0.7864(7) 1.1492(7) 0.8051(6)
O53 O 0.5000 1.2500 1.3750
O57 O 0.6311(14) 1.1807(15) 1.3178(12)
Pd1 Pd 0.5000 1.2500 1.164014(18)
Pd2 Pd 0.713462(15) 0.963647(15) 0.876932(12)
C1 C 0.7292(3) 1.0750(2) 0.8866(2)
H1 H 0.7472 1.0714 0.8607
C2 C 0.6854(3) 1.0389(2) 0.94210(19)
H2 H 0.6728 1.0091 0.9559
C3 C 0.6765(3) 1.0854(2) 0.9601(2)
H3 H 0.6576 1.0878 0.9857
C4 C 0.6952(3) 1.1294(2) 0.9406(2)
C5 C 0.7223(3) 1.1240(2) 0.9036(2)
H4 H 0.7362 1.1532 0.8897
C6 C 0.5638(2) 1.1963(2) 1.1008(2)
H5 H 0.5499 1.1664 1.1137
C7 C 0.5957(3) 1.1909(2) 1.0658(2)
H6 H 0.6038 1.1577 1.0551
C8 C 0.6154(2) 1.2339(2) 1.04718(18)
C9 C 0.6039(2) 1.2815(2) 1.06354(18)
H7 H 0.6176 1.3117 1.0511
C10 C 0.5721(2) 1.2842(2) 1.09832(18)
H8 H 0.5641 1.3171 1.1096
C11 C 0.6495(2) 1.2292(2) 1.00966(19)
C12 C 0.6987(3) 1.2655(2) 0.9595(2)
C13 C 0.6866(3) 1.1803(2) 0.9594(2)
C14 C 0.7141(3) 1.3597(2) 0.95843(19)
H9 H 0.6949 1.3629 0.9838
C15 C 0.7216(2) 1.3123(2) 0.9400(2)
C16 C 0.7499(2) 1.3090(2) 0.9033(2)
H10 H 0.7552 1.2766 0.8901
C17 C 0.7704(2) 1.3530(2) 0.8859(2)
H11 H 0.7904 1.3506 0.8608
C18 C 0.7351(2) 1.4025(2) 0.93909(19)
H12 H 0.7297 1.4353 0.9514
C19 C 0.8227(4) 0.9638(5) 0.8894(4)
H13 H 0.8267 0.9522 0.8600
H14 H 0.8533 0.9543 0.9056
H15 H 0.8184 1.0011 0.8899
C20 C 0.7761(5) 0.9440(5) 0.9531(4)
H16 H 0.7416 0.9346 0.9630
H17 H 0.7837 0.9794 0.9614
H18 H 0.8014 0.9208 0.9658
C21 C 0.7791(4) 0.8801(4) 0.8977(3)
H19 H 0.8142 0.8665 0.9025
H20 H 0.7554 0.8619 0.9171
C22 C 0.7637(4) 0.8705(4) 0.8536(4)
H21 H 0.7882 0.8868 0.8338
H22 H 0.7627 0.8331 0.8478
C23 C 0.6705(6) 0.8607(6) 0.8678(5)
H23 H 0.6377 0.8729 0.8565
H24 H 0.6705 0.8641 0.8987
H25 H 0.6752 0.8245 0.8602
C24 C 0.7011(6) 0.8946(5) 0.8004(4)
H26 H 0.6666 0.9091 0.7965
H27 H 0.7022 0.8599 0.7885
H28 H 0.7263 0.9163 0.7860
C25 C 0.5963(6) 1.2770(6) 1.2057(5)
H29 H 0.6189 1.2638 1.1834
H30 H 0.6157 1.2800 1.2321
H31 H 0.5833 1.3109 1.1974
C26 C 0.5744(6) 1.1829(5) 1.2110(4)
H32 H 0.5938 1.1774 1.1848
H33 H 0.5457 1.1587 1.2123
H34 H 0.5971 1.1775 1.2354
C27 C 0.5301(3) 1.2530(5) 1.2515(4)
H35 H 0.5390 1.2888 1.2592
H36 H 0.5449 1.2301 1.2733
N1 N 0.71108(18) 1.03326(17) 0.90581(15)
N2 N 0.55196(19) 1.24270(17) 1.11682(15)
N3 N 0.6567(2) 1.18232(19) 0.99396(17)
N4 N 0.7084(2) 1.22085(19) 0.94108(18)
N5 N 0.6700(2) 1.27215(18) 0.99402(16)
N6 N 0.64895(17) 0.98716(18) 0.84631(14)
N7 N 0.5525(2) 1.2413(2) 1.21189(17)
N8 N 0.7781(2) 0.9396(2) 0.90780(16)
N9 N 0.7141(2) 0.8923(2) 0.84930(17)
Pd1J Pd 0.5000 1.2500 0.585986(18)
Pd2J Pd 0.213647(15) 1.036538(15) 0.873068(12)
Pd2E Pd 0.286538(15) 1.536353(15) 0.876932(12)
Pd2O Pd 0.786353(15) 1.463462(15) 0.873068(12)
C1O C 0.6750(2) 1.4792(3) 0.8634(2)
C1E C 0.2708(3) 1.4250(2) 0.8866(2)
C1J C 0.3250(2) 1.0208(3) 0.8634(2)
H1O H 0.6786 1.4972 0.8893
H1E H 0.2528 1.4286 0.8607
H1J H 0.3214 1.0028 0.8893
C2J C 0.2889(2) 1.0646(3) 0.80790(19)
C2E C 0.3146(3) 1.4611(2) 0.94210(19)
C2O C 0.7111(2) 1.4354(3) 0.80790(19)
H2J H 0.2591 1.0772 0.7941
H2E H 0.3272 1.4909 0.9559
H2O H 0.7409 1.4228 0.7941
C3J C 0.3354(2) 1.0735(3) 0.7899(2)
C3E C 0.3235(3) 1.4146(2) 0.9601(2)
C3O C 0.6646(2) 1.4265(3) 0.7899(2)
H3O H 0.6622 1.4076 0.7643
H3E H 0.3424 1.4122 0.9857
H3J H 0.3378 1.0924 0.7643
C4J C 0.3794(2) 1.0548(3) 0.8094(2)
C4E C 0.3048(3) 1.3706(2) 0.9406(2)
C4O C 0.6206(2) 1.4452(3) 0.8094(2)
C5O C 0.6260(2) 1.4723(3) 0.8464(2)
C5E C 0.2777(3) 1.3760(2) 0.9036(2)
C5J C 0.3740(2) 1.0277(3) 0.8464(2)
H4O H 0.5968 1.4862 0.8603
H4E H 0.2638 1.3468 0.8897
H4J H 0.4032 1.0138 0.8603
C6O C 0.5537(2) 1.3138(2) 0.6492(2)
C6J C 0.4463(2) 1.1862(2) 0.6492(2)
C6E C 0.4362(2) 1.3037(2) 1.1008(2)
H5O H 0.5836 1.2999 0.6363
H5J H 0.4164 1.2001 0.6363
H5E H 0.4501 1.3336 1.1137
C7O C 0.5591(2) 1.3457(3) 0.6842(2)
C7J C 0.4409(2) 1.1543(3) 0.6842(2)
C7E C 0.4043(3) 1.3091(2) 1.0658(2)
H6J H 0.4077 1.1462 0.6949
H6O H 0.5923 1.3538 0.6949
H6E H 0.3962 1.3423 1.0551
C8O C 0.5161(2) 1.3654(2) 0.70282(18)
C8J C 0.4839(2) 1.1346(2) 0.70282(18)
C8E C 0.3846(2) 1.2661(2) 1.04718(18)
C9J C 0.5315(2) 1.1461(2) 0.68646(18)
C9O C 0.4685(2) 1.3539(2) 0.68646(18)
C9E C 0.3961(2) 1.2185(2) 1.06354(18)
H7J H 0.5617 1.1324 0.6989
H7O H 0.4383 1.3676 0.6989
H7E H 0.3824 1.1883 1.0511
C10J C 0.5342(2) 1.1779(2) 0.65168(18)
C10O C 0.4658(2) 1.3221(2) 0.65168(18)
C10E C 0.4279(2) 1.2158(2) 1.09832(18)
H8J H 0.5671 1.1859 0.6404
H8O H 0.4329 1.3141 0.6404
H8E H 0.4359 1.1829 1.1096
C11O C 0.5208(2) 1.3995(2) 0.74034(19)
C11J C 0.4792(2) 1.1005(2) 0.74034(19)
C11E C 0.3505(2) 1.2708(2) 1.00966(19)
C12J C 0.5155(2) 1.0513(3) 0.7905(2)
C12E C 0.3013(3) 1.2345(2) 0.9595(2)
C12O C 0.4845(2) 1.4487(3) 0.7905(2)
C13J C 0.4303(2) 1.0634(3) 0.7906(2)
C13E C 0.3134(3) 1.3197(2) 0.9594(2)
C13O C 0.5697(2) 1.4366(3) 0.7906(2)
C14O C 0.3903(2) 1.4641(3) 0.79157(19)
C14E C 0.2859(3) 1.1403(2) 0.95843(19)
C14J C 0.6097(2) 1.0359(3) 0.79157(19)
H9O H 0.3871 1.4449 0.7662
H9E H 0.3051 1.1371 0.9838
H9J H 0.6129 1.0551 0.7662
C15J C 0.5623(2) 1.0284(2) 0.8100(2)
C15E C 0.2784(2) 1.1877(2) 0.9400(2)
C15O C 0.4377(2) 1.4716(2) 0.8100(2)
C16J C 0.5590(2) 1.0001(2) 0.8467(2)
C16E C 0.2501(2) 1.1910(2) 0.9033(2)
C16O C 0.4410(2) 1.4999(2) 0.8467(2)
H10O H 0.4734 1.5052 0.8599
H10E H 0.2448 1.2234 0.8901
H10J H 0.5266 0.9948 0.8599
C17J C 0.6030(2) 0.9796(2) 0.8641(2)
C17E C 0.2296(2) 1.1470(2) 0.8859(2)
C17O C 0.3970(2) 1.5204(2) 0.8641(2)
H11O H 0.3994 1.5404 0.8892
H11E H 0.2096 1.1494 0.8608
H11J H 0.6006 0.9596 0.8892
C18O C 0.3475(2) 1.4851(2) 0.81091(19)
C18E C 0.2649(2) 1.0975(2) 0.93909(19)
C18J C 0.6525(2) 1.0149(2) 0.81091(19)
H12O H 0.3147 1.4797 0.7986
H12E H 0.2703 1.0647 0.9514
H12J H 0.6853 1.0203 0.7986
C19O C 0.7862(5) 1.5727(4) 0.8606(4)
C19E C 0.1773(4) 1.5362(5) 0.8894(4)
C19J C 0.2138(5) 0.9273(4) 0.8606(4)
H13O H 0.7978 1.5767 0.8900
H13E H 0.1733 1.5478 0.8600
H13J H 0.2022 0.9233 0.8900
H14O H 0.7957 1.6033 0.8444
H14E H 0.1467 1.5457 0.9056
H14J H 0.2043 0.8967 0.8444
H15O H 0.7489 1.5684 0.8601
H15E H 0.1816 1.4989 0.8899
H15J H 0.2511 0.9316 0.8601
C20O C 0.8060(5) 1.5261(5) 0.7969(4)
C20E C 0.2239(5) 1.5560(5) 0.9531(4)
C20J C 0.1940(5) 0.9739(5) 0.7969(4)
H16O H 0.8154 1.4916 0.7870
H16E H 0.2584 1.5654 0.9630
H16J H 0.1846 1.0084 0.7870
H17O H 0.7706 1.5337 0.7886
H17E H 0.2163 1.5206 0.9614
H17J H 0.2294 0.9663 0.7886
H18O H 0.8292 1.5514 0.7842
H18E H 0.1986 1.5792 0.9658
H18J H 0.1708 0.9486 0.7842
C21O C 0.8699(4) 1.5291(4) 0.8523(3)
C21E C 0.2209(4) 1.6199(4) 0.8977(3)
C21J C 0.1301(4) 0.9709(4) 0.8523(3)
H19O H 0.8835 1.5642 0.8475
H19E H 0.1858 1.6335 0.9025
H19J H 0.1165 0.9358 0.8475
H20O H 0.8881 1.5054 0.8329
H20E H 0.2446 1.6381 0.9171
H20J H 0.1119 0.9946 0.8329
C22O C 0.8795(4) 1.5137(4) 0.8964(4)
C22E C 0.2363(4) 1.6295(4) 0.8536(4)
C22J C 0.1205(4) 0.9863(4) 0.8964(4)
H21O H 0.8632 1.5382 0.9162
H21E H 0.2118 1.6132 0.8338
H21J H 0.1368 0.9618 0.9162
H22O H 0.9169 1.5127 0.9022
H22E H 0.2373 1.6669 0.8478
H22J H 0.0831 0.9873 0.9022
C23O C 0.8893(6) 1.4205(6) 0.8822(5)
C23E C 0.3295(6) 1.6393(6) 0.8678(5)
C23J C 0.1107(6) 1.0795(6) 0.8822(5)
H23O H 0.8771 1.3877 0.8935
H23E H 0.3623 1.6271 0.8565
H23J H 0.1229 1.1123 0.8935
H24O H 0.8859 1.4205 0.8513
H24E H 0.3295 1.6359 0.8987
H24J H 0.1141 1.0795 0.8513
H25O H 0.9255 1.4252 0.8898
H25E H 0.3248 1.6755 0.8602
H25J H 0.0745 1.0748 0.8898
C24O C 0.8554(5) 1.4511(6) 0.9496(4)
C24E C 0.2989(6) 1.6054(5) 0.8004(4)
C24J C 0.1446(5) 1.0489(6) 0.9496(4)
H26O H 0.8409 1.4166 0.9535
H26E H 0.3334 1.5909 0.7965
H26J H 0.1591 1.0834 0.9535
H27O H 0.8901 1.4522 0.9615
H27E H 0.2978 1.6401 0.7885
H27J H 0.1099 1.0478 0.9615
H28O H 0.8337 1.4763 0.9640
H28E H 0.2737 1.5837 0.7860
H28J H 0.1663 1.0237 0.9640
C25O C 0.4730(6) 1.3463(6) 0.5443(5)
C25J C 0.5270(6) 1.1537(6) 0.5443(5)
C25E C 0.4037(6) 1.2230(6) 1.2057(5)
H29O H 0.4862 1.3689 0.5666
H29J H 0.5138 1.1311 0.5666
H29E H 0.3811 1.2362 1.1834
H30O H 0.4700 1.3657 0.5179
H30J H 0.5300 1.1343 0.5179
H30E H 0.3843 1.2200 1.2321
H31O H 0.4391 1.3333 0.5526
H31J H 0.5609 1.1667 0.5526
H31E H 0.4167 1.1891 1.1974
C26O C 0.5671(5) 1.3244(6) 0.5390(4)
C26J C 0.4329(5) 1.1756(6) 0.5390(4)
C26E C 0.4256(6) 1.3171(5) 1.2110(4)
H32O H 0.5726 1.3438 0.5652
H32J H 0.4274 1.1562 0.5652
H32E H 0.4062 1.3226 1.1848
H33O H 0.5913 1.2957 0.5377
H33J H 0.4087 1.2043 0.5377
H33E H 0.4543 1.3413 1.2123
H34O H 0.5725 1.3471 0.5146
H34J H 0.4275 1.1529 0.5146
H34E H 0.4029 1.3225 1.2354
C27O C 0.4970(5) 1.2801(3) 0.4985(4)
C27J C 0.5030(5) 1.2199(3) 0.4985(4)
C27E C 0.4699(3) 1.2470(5) 1.2515(4)
H35J H 0.5388 1.2110 0.4908
H35O H 0.4612 1.2890 0.4908
H35E H 0.4610 1.2112 1.2592
H36J H 0.4801 1.2051 0.4767
H36O H 0.5199 1.2949 0.4767
H36E H 0.4551 1.2699 1.2733
N1J N 0.28326(17) 1.03892(18) 0.84419(15)
N1E N 0.28892(18) 1.46674(17) 0.90581(15)
N1O N 0.71674(17) 1.46108(18) 0.84419(15)
N2O N 0.50730(17) 1.30196(19) 0.63318(15)
N2J N 0.49270(17) 1.19804(19) 0.63318(15)
N2E N 0.44804(19) 1.25730(17) 1.11682(15)
N3O N 0.56768(19) 1.4067(2) 0.75604(17)
N3J N 0.43232(19) 1.0933(2) 0.75604(17)
N3E N 0.3433(2) 1.31768(19) 0.99396(17)
N4J N 0.47085(19) 1.0416(2) 0.80892(18)
N4E N 0.2916(2) 1.27915(19) 0.94108(18)
N4O N 0.52915(19) 1.4584(2) 0.80892(18)
N5J N 0.52215(18) 1.0800(2) 0.75598(16)
N5O N 0.47785(18) 1.4200(2) 0.75598(16)
N5E N 0.3300(2) 1.22785(18) 0.99402(16)
N6J N 0.23716(18) 1.10105(17) 0.90369(14)
N6E N 0.35105(17) 1.51284(18) 0.84631(14)
N6O N 0.76284(18) 1.39895(17) 0.90369(14)
N7O N 0.5087(2) 1.3025(2) 0.53811(17)
N7J N 0.4913(2) 1.1975(2) 0.53811(17)
N7E N 0.4475(2) 1.2587(2) 1.21189(17)
N8O N 0.8104(2) 1.5281(2) 0.84220(16)
N8E N 0.2219(2) 1.5604(2) 0.90780(16)
N8J N 0.1896(2) 0.9719(2) 0.84220(16)
N9O N 0.8577(2) 1.4641(2) 0.90070(17)
N9E N 0.2859(2) 1.6077(2) 0.84930(17)
N9J N 0.1423(2) 1.0359(2) 0.90070(17)
loop_
_geom_bond_atom_site_label_1
_geom_bond_atom_site_label_2
_geom_bond_site_symmetry_1
_geom_bond_site_symmetry_2
Pd1 N2 1_555 1_555
Pd2 N1 1_555 1_555
C1 H1 1_555 1_555
C2 H2 1_555 1_555
C3 C2 1_555 1_555
H3 C3 1_555 1_555
C4 C3 1_555 1_555
C5 C1 1_555 1_555
H4 C5 1_555 1_555
C6 H5 1_555 1_555
C7 C6 1_555 1_555
H6 C7 1_555 1_555
C8 C7 1_555 1_555
C9 C8 1_555 1_555
H7 C9 1_555 1_555
C10 C9 1_555 1_555
H8 C10 1_555 1_555
C11 C8 1_555 1_555
C12 C15 1_555 1_555
C13 C4 1_555 1_555
C14 H9 1_555 1_555
C15 C14 1_555 1_555
C16 C15 1_555 1_555
H10 C16 1_555 1_555
C17 C16 1_555 1_555
H11 C17 1_555 1_555
C18 C14 1_555 1_555
H12 C18 1_555 1_555
C19 H13 1_555 1_555
H14 C19 1_555 1_555
H15 C19 1_555 1_555
C20 H16 1_555 1_555
H17 C20 1_555 1_555
H18 C20 1_555 1_555
C21 H19 1_555 1_555
H20 C21 1_555 1_555
C22 C21 1_555 1_555
H21 C22 1_555 1_555
H22 C22 1_555 1_555
C23 H23 1_555 1_555
H24 C23 1_555 1_555
H25 C23 1_555 1_555
C24 H26 1_555 1_555
H27 C24 1_555 1_555
H28 C24 1_555 1_555
C25 H29 1_555 1_555
H30 C25 1_555 1_555
H31 C25 1_555 1_555
C26 H32 1_555 1_555
H33 C26 1_555 1_555
H34 C26 1_555 1_555
C27 H35 1_555 1_555
H36 C27 1_555 1_555
N1 C1 1_555 1_555
N2 C6 1_555 1_555
N3 C11 1_555 1_555
N4 C12 1_555 1_555
N5 C11 1_555 1_555
N6 Pd2 1_555 1_555
N7 Pd1 1_555 1_555
N8 Pd2 1_555 1_555
N9 Pd2 1_555 1_555
C37 H61 1_555 1_555
C38 C37 1_555 1_555
H62 C38 1_555 1_555
C39 C38 1_555 1_555
H63 C39 1_555 1_555
C40 C39 1_555 1_555
H64 C40 1_555 1_555
C41 C40 1_555 1_555
C42 C37 1_555 1_555
C43 C44 1_555 1_555
C44 C45 1_555 1_555
C45 C46 1_555 1_555
C46 C37 1_555 1_555
H65 C37 1_555 1_555
C47 C46 1_555 1_555
H66 C47 1_555 1_555
C48 C43 1_555 1_555
H67 C48 1_555 1_555
C49 C42 1_555 1_555
C50 C41 1_555 1_555
H68 C50 1_555 1_555
C51 C37 1_555 1_555
H69 C51 1_555 1_555
C52 C40 1_555 1_555
H70 H66 1_555 1_555
C53 C40 1_555 1_555
H71 C40 1_555 1_555
C54 C40 1_555 1_555
H72 C54 1_555 1_555
C55 C43 1_555 1_555
C56 C43 1_555 1_555
O1 C43 1_555 1_555
O2 C43 1_555 1_555
N10 C43 1_555 1_555
C57 C45 1_555 1_555
H73 C45 1_555 1_555
C58 C46 1_555 1_555
H74 C52 1_555 1_555
H75 C47 1_555 1_555
C59 C38 1_555 1_555
H76 C59 1_555 1_555
H77 C59 1_555 1_555
C60 C38 1_555 1_555
H78 C40 1_555 1_555
H79 C38 1_555 1_555
C61 C37 1_555 1_555
H80 C42 1_555 1_555
H81 C37 1_555 1_555
C62 C41 1_555 1_555
H82 C41 1_555 1_555
H83 C62 1_555 1_555
N11 O3 1_555 1_555
O4 N11 1_555 1_555
O5 N11 1_555 1_555
N16 O25 1_555 1_555
O26 N16 1_555 1_555
O27 N16 1_555 1_555
N20 O40 1_555 1_555
O41 N20 1_555 1_555
O42 N20 1_555 1_555
Pd1J N2O 1_555 1_555
Pd2J N1J 1_555 1_555
Pd2E N1E 1_555 1_555
Pd2O N1O 1_555 1_555
C1O H1O 1_555 1_555
C1E H1E 1_555 1_555
C1J H1J 1_555 1_555
C2J H2J 1_555 1_555
C2E H2E 1_555 1_555
C2O H2O 1_555 1_555
C3J C2J 1_555 1_555
C3E C2E 1_555 1_555
C3O C2O 1_555 1_555
H3O C3O 1_555 1_555
H3E C3E 1_555 1_555
H3J C3J 1_555 1_555
C4J C3J 1_555 1_555
C4E C3E 1_555 1_555
C4O C3O 1_555 1_555
C5O C1O 1_555 1_555
C5E C1E 1_555 1_555
C5J C1J 1_555 1_555
H4O C5O 1_555 1_555
H4E C5E 1_555 1_555
H4J C5J 1_555 1_555
C6O H5O 1_555 1_555
C6J H5J 1_555 1_555
C6E H5E 1_555 1_555
C7O C6O 1_555 1_555
C7J C6J 1_555 1_555
C7E C6E 1_555 1_555
H6J C7J 1_555 1_555
H6O C7O 1_555 1_555
H6E C7E 1_555 1_555
C8O C7O 1_555 1_555
C8J C7J 1_555 1_555
C8E C7E 1_555 1_555
C9J C8J 1_555 1_555
C9O C8O 1_555 1_555
C9E C8E 1_555 1_555
H7J C9J 1_555 1_555
H7O C9O 1_555 1_555
H7E C9E 1_555 1_555
C10J C9J 1_555 1_555
C10O C9O 1_555 1_555
C10E C9E 1_555 1_555
H8J C10J 1_555 1_555
H8O C10O 1_555 1_555
H8E C10E 1_555 1_555
C11O C8O 1_555 1_555
C11J C8J 1_555 1_555
C11E C8E 1_555 1_555
C12J C15J 1_555 1_555
C12E C15E 1_555 1_555
C12O C15O 1_555 1_555
C13J C4J 1_555 1_555
C13E C4E 1_555 1_555
C13O C4O 1_555 1_555
C14O H9O 1_555 1_555
C14E H9E 1_555 1_555
C14J H9J 1_555 1_555
C15J C14J 1_555 1_555
C15E C14E 1_555 1_555
C15O C14O 1_555 1_555
C16J C15J 1_555 1_555
C16E C15E 1_555 1_555
C16O C15O 1_555 1_555
H10O C16O 1_555 1_555
H10E C16E 1_555 1_555
H10J C16J 1_555 1_555
C17J N6 1_555 1_555
C17E C16E 1_555 1_555
C17O C16O 1_555 1_555
H11O C17O 1_555 1_555
H11E C17E 1_555 1_555
H11J C17J 1_555 1_555
C18O C14O 1_555 1_555
C18E C14E 1_555 1_555
C18J N6 1_555 1_555
H12O C18O 1_555 1_555
H12E C18E 1_555 1_555
H12J C18J 1_555 1_555
C19O H13O 1_555 1_555
C19E H13E 1_555 1_555
C19J H13J 1_555 1_555
H14O C19O 1_555 1_555
H14E C19E 1_555 1_555
H14J C19J 1_555 1_555
H15O C19O 1_555 1_555
H15E C19E 1_555 1_555
H15J C19J 1_555 1_555
C20O H16O 1_555 1_555
C20E H16E 1_555 1_555
C20J H16J 1_555 1_555
H17O C20O 1_555 1_555
H17E C20E 1_555 1_555
H17J C20J 1_555 1_555
H18O C20O 1_555 1_555
H18E C20E 1_555 1_555
H18J C20J 1_555 1_555
C21O H19O 1_555 1_555
C21E H19E 1_555 1_555
C21J H19J 1_555 1_555
H20O C21O 1_555 1_555
H20E C21E 1_555 1_555
H20J C21J 1_555 1_555
C22O C21O 1_555 1_555
C22E C21E 1_555 1_555
C22J C21J 1_555 1_555
H21O C22O 1_555 1_555
H21E C22E 1_555 1_555
H21J C22J 1_555 1_555
H22O C22O 1_555 1_555
H22E C22E 1_555 1_555
H22J C22J 1_555 1_555
C23O H23O 1_555 1_555
C23E H23E 1_555 1_555
C23J H23J 1_555 1_555
H24O C23O 1_555 1_555
H24E C23E 1_555 1_555
H24J C23J 1_555 1_555
H25O C23O 1_555 1_555
H25E C23E 1_555 1_555
H25J C23J 1_555 1_555
C24O H26O 1_555 1_555
C24E H26E 1_555 1_555
C24J H26J 1_555 1_555
H27O C24O 1_555 1_555
H27E C24E 1_555 1_555
H27J C24J 1_555 1_555
H28O C24O 1_555 1_555
H28E C24E 1_555 1_555
H28J C24J 1_555 1_555
C25O H29O 1_555 1_555
C25J H29J 1_555 1_555
C25E H29E 1_555 1_555
H30O C25O 1_555 1_555
H30J C25J 1_555 1_555
H30E C25E 1_555 1_555
H31O C25O 1_555 1_555
H31J C25J 1_555 1_555
H31E C25E 1_555 1_555
C26O H32O 1_555 1_555
C26J H32J 1_555 1_555
C26E H32E 1_555 1_555
H33O C26O 1_555 1_555
H33J C26J 1_555 1_555
H33E C26E 1_555 1_555
H34O C26O 1_555 1_555
H34J C26J 1_555 1_555
H34E C26E 1_555 1_555
C27O C27J 1_555 1_555
C27J H35J 1_555 1_555
C27E C27 1_555 1_555
H35O C27O 1_555 1_555
H35E C27E 1_555 1_555
H36J C27J 1_555 1_555
H36O C27O 1_555 1_555
H36E C27E 1_555 1_555
N1J C1J 1_555 1_555
N1E C1E 1_555 1_555
N1O C1O 1_555 1_555
N2O C6O 1_555 1_555
N2J Pd1J 1_555 1_555
N2E Pd1 1_555 1_555
N3O C11O 1_555 1_555
N3J C11J 1_555 1_555
N3E C11E 1_555 1_555
N4J C12J 1_555 1_555
N4E C12E 1_555 1_555
N4O C12O 1_555 1_555
N5J C11J 1_555 1_555
N5O C11O 1_555 1_555
N5E C11E 1_555 1_555
N6J Pd2J 1_555 1_555
N6E Pd2E 1_555 1_555
N6O C17 1_555 1_555
N7O Pd1J 1_555 1_555
N7J Pd1J 1_555 1_555
N7E Pd1 1_555 1_555
N8O Pd2O 1_555 1_555
N8E Pd2E 1_555 1_555
N8J Pd2J 1_555 1_555
N9O Pd2O 1_555 1_555
N9E Pd2E 1_555 1_555
N9J Pd2J 1_555 1_555
C37E H61E 1_555 1_555
C37O H61O 1_555 1_555
C37J H61J 1_555 1_555
C38E C37E 1_555 1_555
C38O C37O 1_555 1_555
C38J C37J 1_555 1_555
H62E C38E 1_555 1_555
H62O C38O 1_555 1_555
H62J C38J 1_555 1_555
C39E C38E 1_555 1_555
C39O C38O 1_555 1_555
C39J C38J 1_555 1_555
H63E C39E 1_555 1_555
H63O C39O 1_555 1_555
H63J C39J 1_555 1_555
C40E C39E 1_555 1_555
C40O C39O 1_555 1_555
C40J C39J 1_555 1_555
H64E C40E 1_555 1_555
H64O C40O 1_555 1_555
H64J C40J 1_555 1_555
C41E C40E 1_555 1_555
C41O C40O 1_555 1_555
C41J C40J 1_555 1_555
C42E C37E 1_555 1_555
C42O C37O 1_555 1_555
C42J C37J 1_555 1_555
C43E C47 1_555 1_555
C43O C44O 1_555 1_555
C43J C44J 1_555 1_555
C44E C43E 1_555 1_555
C44O C45O 1_555 1_555
C44J C49 1_555 1_555
C45E C44E 1_555 1_555
C45O C46O 1_555 1_555
C45J C50 1_555 1_555
C46E C37E 1_555 1_555
C46O C37O 1_555 1_555
C46J C37J 1_555 1_555
H65E C37E 1_555 1_555
H65J C37J 1_555 1_555
H65O C37O 1_555 1_555
C47E C43 1_555 1_555
C47J C43O 1_555 1_555
C47O C43J 1_555 1_555
H66E C47E 1_555 1_555
H66O C47O 1_555 1_555
H66J C47J 1_555 1_555
C48E C43 1_555 1_555
C48O C43O 1_555 1_555
C48J C43O 1_555 1_555
H67J C48O 1_555 1_555
H67O C48O 1_555 1_555
H67E C48 1_555 1_555
C49O C44 1_555 1_555
C49E C42E 1_555 1_555
C49J C54 1_555 1_555
C50E C41E 1_555 1_555
C50O C45 1_555 1_555
C50J C41J 1_555 1_555
H68O C50O 1_555 1_555
H68E C50E 1_555 1_555
H68J C50J 1_555 1_555
C51O C37O 1_555 1_555
C51E C37E 1_555 1_555
C51J C37J 1_555 1_555
H69J C51J 1_555 1_555
H69E C51E 1_555 1_555
H69O C51O 1_555 1_555
C52E C43 1_555 1_555
C52J C40J 1_555 1_555
C52O C40O 1_555 1_555
H70E H66E 1_555 1_555
H70O H66O 1_555 1_555
H70J H66J 1_555 1_555
C53E C43 1_555 1_555
C53J C40J 1_555 1_555
C53O C40O 1_555 1_555
H71E C40E 1_555 1_555
H71O C40O 1_555 1_555
H71J C40J 1_555 1_555
C54E C40E 1_555 1_555
C54O C49 1_555 1_555
C54J C40J 1_555 1_555
H72J C54J 1_555 1_555
H72E C54E 1_555 1_555
H72O C54O 1_555 1_555
C55O C43O 1_555 1_555
C55E N10 1_555 1_555
C55J C43J 1_555 1_555
C56O C43O 1_555 1_555
C56E C47 1_555 1_555
C56J C43J 1_555 1_555
O1J C49 1_555 1_555
O1O C43O 1_555 1_555
O1E C43E 1_555 1_555
O2J C43J 1_555 1_555
O2O C43O 1_555 1_555
O2E C43E 1_555 1_555
N10J C43O 1_555 1_555
N10O C43O 1_555 1_555
N10E C43 1_555 1_555
C57J C43O 1_555 1_555
C57O C43J 1_555 1_555
C57E C43 1_555 1_555
H73O C45O 1_555 1_555
H73J C45J 1_555 1_555
H73E C45E 1_555 1_555
C58E C43 1_555 1_555
C58O C43J 1_555 1_555
C58J C43O 1_555 1_555
H74E C56 1_555 1_555
H74O C52O 1_555 1_555
H74J C52J 1_555 1_555
H75E C47E 1_555 1_555
H75O C47O 1_555 1_555
H75J C47J 1_555 1_555
C59E C38E 1_555 1_555
C59O C38O 1_555 1_555
C59J C38J 1_555 1_555
H76J C59J 1_555 1_555
H76O C59O 1_555 1_555
H76E C59E 1_555 1_555
H77J C59J 1_555 1_555
H77O C59O 1_555 1_555
H77E C59E 1_555 1_555
C60E C38E 1_555 1_555
C60O C38O 1_555 1_555
C60J C38J 1_555 1_555
H78J C40J 1_555 1_555
H78O C40O 1_555 1_555
H78E C40E 1_555 1_555
H79J C38J 1_555 1_555
H79O C38O 1_555 1_555
H79E C38E 1_555 1_555
C61O C37O 1_555 1_555
C61E C37E 1_555 1_555
C61J C37J 1_555 1_555
H80O C42O 1_555 1_555
H80J C42J 1_555 1_555
H80E C42E 1_555 1_555
H81O C37O 1_555 1_555
H81J C37J 1_555 1_555
H81E C37E 1_555 1_555
C62O C41O 1_555 1_555
C62J C41J 1_555 1_555
C62E C41E 1_555 1_555
H82O C41O 1_555 1_555
H82J C41J 1_555 1_555
H82E C41E 1_555 1_555
H83O C62O 1_555 1_555
H83J C62J 1_555 1_555
H83E C62E 1_555 1_555
C2 N1 1_555 1_555
C4 C5 1_555 1_555
C10 N2 1_555 1_555
C12 N5 1_555 1_555
C13 N3 1_555 1_555
C13 N4 1_555 1_555
C18 N6O 1_555 1_555
C19 N8 1_555 1_555
C20 N8 1_555 1_555
C21 N8 1_555 1_555
C22 N9 1_555 1_555
C23 N9 1_555 1_555
C24 N9 1_555 1_555
C25 N7 1_555 1_555
C26 N7 1_555 1_555
C27 N7 1_555 1_555
C39 C59 1_555 1_555
C39 C60 1_555 1_555
C39 H79 1_555 1_555
C40 C59 1_555 1_555
C40 C60 1_555 1_555
C41 C42 1_555 1_555
C41 C54 1_555 1_555
C41 C60 1_555 1_555
C41 C61 1_555 1_555
C42 C61 1_555 1_555
C42 H81 1_555 1_555
C42 C62 1_555 1_555
C44 C55 1_555 1_555
C44 C56 1_555 1_555
C44 O1 1_555 1_555
C44 O2 1_555 1_555
C44 N10 1_555 1_555
C45 C55 1_555 1_555
C45 O1 1_555 1_555
C46 H65 1_555 1_555
C46 C51 1_555 1_555
C46 C55 1_555 1_555
C46 C57 1_555 1_555
C46 H73 1_555 1_555
H65 C51 1_555 1_555
C47 C48 1_555 1_555
C47 C51 1_555 1_555
C47 C52 1_555 1_555
C47 C53 1_555 1_555
C47 C55 1_555 1_555
C47 C57 1_555 1_555
C47 C58 1_555 1_555
C47 C48E 1_555 1_555
C47 N10E 1_555 1_555
H66 C52 1_555 1_555
H66 C58 1_555 1_555
H66 H75 1_555 1_555
C48 C55 1_555 1_555
C48 C56 1_555 1_555
C48 N10 1_555 1_555
C48 C43E 1_555 1_555
C48 C47E 1_555 1_555
C48 C48E 1_555 1_555
C48 N10E 1_555 1_555
H67 C48E 1_555 1_555
H67 H67E 1_555 1_555
C49 C61 1_555 1_555
C50 C54 1_555 1_555
C51 C52 1_555 1_555
C51 C55 1_555 1_555
C51 C57 1_555 1_555
C51 H73 1_555 1_555
C51 C58 1_555 1_555
C51 C59 1_555 1_555
C52 H70 1_555 1_555
C52 C53 1_555 1_555
C52 H71 1_555 1_555
C52 C58 1_555 1_555
C52 C59 1_555 1_555
C52 C43E 1_555 1_555
C52 C56E 1_555 1_555
H70 C58 1_555 1_555
C53 H71 1_555 1_555
C53 C54 1_555 1_555
C53 C58 1_555 1_555
C53 H74 1_555 1_555
C53 C43E 1_555 1_555
C53 C56E 1_555 1_555
H71 C58 1_555 1_555
H71 C59 1_555 1_555
C55 O1 1_555 1_555
C55 N10 1_555 1_555
C55 C57 1_555 1_555
C55 H73 1_555 1_555
C55 N10E 1_555 1_555
C56 O1 1_555 1_555
C56 O2 1_555 1_555
C56 N10 1_555 1_555
C56 C47E 1_555 1_555
C56 C52E 1_555 1_555
C56 C53E 1_555 1_555
C56 C58E 1_555 1_555
O1 O2 1_555 1_555
O1 C49O 1_555 1_555
N10 C57 1_555 1_555
N10 C43E 1_555 1_555
N10 C47E 1_555 1_555
N10 C48E 1_555 1_555
N10 N10E 1_555 1_555
N10 C57E 1_555 1_555
C57 H73 1_555 1_555
C57 C58 1_555 1_555
C57 C62 1_555 1_555
C57 C43E 1_555 1_555
C57 N10E 1_555 1_555
C58 H74 1_555 1_555
C58 H75 1_555 1_555
C58 C59 1_555 1_555
C58 C43E 1_555 1_555
C58 C56E 1_555 1_555
H74 C56E 1_555 1_555
C59 C60 1_555 1_555
C60 H78 1_555 1_555
C60 H79 1_555 1_555
C60 C61 1_555 1_555
C61 H80 1_555 1_555
C61 H81 1_555 1_555
C61 C62 1_555 1_555
C62 H82 1_555 1_555
Pd2O N6O 1_555 1_555
C2J N1J 1_555 1_555
C2E N1E 1_555 1_555
C2O N1O 1_555 1_555
C4J C5J 1_555 1_555
C4E C5E 1_555 1_555
C4O C5O 1_555 1_555
C6J N2J 1_555 1_555
C6E N2E 1_555 1_555
C10J N2J 1_555 1_555
C10O N2O 1_555 1_555
C10E N2E 1_555 1_555
C12J N5J 1_555 1_555
C12E N5E 1_555 1_555
C12O N5O 1_555 1_555
C13J N3J 1_555 1_555
C13J N4J 1_555 1_555
C13E N3E 1_555 1_555
C13E N4E 1_555 1_555
C13O N3O 1_555 1_555
C13O N4O 1_555 1_555
C14J C18J 1_555 1_555
C16J C17J 1_555 1_555
C17E N6J 1_555 1_555
C17O N6E 1_555 1_555
C18O N6E 1_555 1_555
C18E N6J 1_555 1_555
C19O N8O 1_555 1_555
C19E N8E 1_555 1_555
C19J N8J 1_555 1_555
C20O N8O 1_555 1_555
C20E N8E 1_555 1_555
C20J N8J 1_555 1_555
C21O N8O 1_555 1_555
C21E N8E 1_555 1_555
C21J N8J 1_555 1_555
C22O N9O 1_555 1_555
C22E N9E 1_555 1_555
C22J N9J 1_555 1_555
C23O N9O 1_555 1_555
C23E N9E 1_555 1_555
C23J N9J 1_555 1_555
C24O N9O 1_555 1_555
C24E N9E 1_555 1_555
C24J N9J 1_555 1_555
C25O N7O 1_555 1_555
C25J N7J 1_555 1_555
C25E N7E 1_555 1_555
C26O N7O 1_555 1_555
C26J N7J 1_555 1_555
C26E N7E 1_555 1_555
C27O N7O 1_555 1_555
C27J N7J 1_555 1_555
C27E N7E 1_555 1_555
C39E C59E 1_555 1_555
C39E C60E 1_555 1_555
C39E H79E 1_555 1_555
C39O C59O 1_555 1_555
C39O C60O 1_555 1_555
C39O H79O 1_555 1_555
C39J C59J 1_555 1_555
C39J C60J 1_555 1_555
C39J H79J 1_555 1_555
C40E C52E 1_555 1_555
C40E C53E 1_555 1_555
C40E C59E 1_555 1_555
C40E C60E 1_555 1_555
C40O C54O 1_555 1_555
C40O C59O 1_555 1_555
C40O C60O 1_555 1_555
C40J C59J 1_555 1_555
C40J C60J 1_555 1_555
C41E C42E 1_555 1_555
C41E C54E 1_555 1_555
C41E C60E 1_555 1_555
C41E C61E 1_555 1_555
C41O C42O 1_555 1_555
C41O C50O 1_555 1_555
C41O C54O 1_555 1_555
C41O C60O 1_555 1_555
C41O C61O 1_555 1_555
C41J C42J 1_555 1_555
C41J C54J 1_555 1_555
C41J C60J 1_555 1_555
C41J C61J 1_555 1_555
C42E C61E 1_555 1_555
C42E H81E 1_555 1_555
C42E C62E 1_555 1_555
C42O C49O 1_555 1_555
C42O C61O 1_555 1_555
C42O H81O 1_555 1_555
C42O C62O 1_555 1_555
C42J C49J 1_555 1_555
C42J C61J 1_555 1_555
C42J H81J 1_555 1_555
C42J C62J 1_555 1_555
C43E C48E 1_555 1_555
C43E C55E 1_555 1_555
C43E C56E 1_555 1_555
C43E N10E 1_555 1_555
C43O C52J 1_555 1_555
C43O C53J 1_555 1_555
C43J C48O 1_555 1_555
C43J C48J 1_555 1_555
C43J C52O 1_555 1_555
C43J C53O 1_555 1_555
C43J O1J 1_555 1_555
C43J N10J 1_555 1_555
C43J N10O 1_555 1_555
C44E C49J 1_555 1_555
C44E C55E 1_555 1_555
C44E C56E 1_555 1_555
C44E O1E 1_555 1_555
C44E O2E 1_555 1_555
C44E N10E 1_555 1_555
C44O C49E 1_555 1_555
C44O C55O 1_555 1_555
C44O C56O 1_555 1_555
C44O O1O 1_555 1_555
C44O O2O 1_555 1_555
C44O N10O 1_555 1_555
C44J C45J 1_555 1_555
C44J C55J 1_555 1_555
C44J C56J 1_555 1_555
C44J O1J 1_555 1_555
C44J O2J 1_555 1_555
C44J N10J 1_555 1_555
C45E C46E 1_555 1_555
C45E C50J 1_555 1_555
C45E C55E 1_555 1_555
C45E O1E 1_555 1_555
C45E C57E 1_555 1_555
C45O C50E 1_555 1_555
C45O C55O 1_555 1_555
C45O O1O 1_555 1_555
C45O C57O 1_555 1_555
C45J C46J 1_555 1_555
C45J C55J 1_555 1_555
C45J O1J 1_555 1_555
C45J C57J 1_555 1_555
C46E H65E 1_555 1_555
C46E C47E 1_555 1_555
C46E C51E 1_555 1_555
C46E C55E 1_555 1_555
C46E C57E 1_555 1_555
C46E H73E 1_555 1_555
C46E C58E 1_555 1_555
C46O H65O 1_555 1_555
C46O C47O 1_555 1_555
C46O C51O 1_555 1_555
C46O C55O 1_555 1_555
C46O C57O 1_555 1_555
C46O H73O 1_555 1_555
C46O C58O 1_555 1_555
C46J H65J 1_555 1_555
C46J C47J 1_555 1_555
C46J C51J 1_555 1_555
C46J C55J 1_555 1_555
C46J C57J 1_555 1_555
C46J H73J 1_555 1_555
C46J C58J 1_555 1_555
H65E C51E 1_555 1_555
H65J C51J 1_555 1_555
H65O C51O 1_555 1_555
C47E C48E 1_555 1_555
C47E C51E 1_555 1_555
C47E C52E 1_555 1_555
C47E C53E 1_555 1_555
C47E C55E 1_555 1_555
C47E C57E 1_555 1_555
C47E C58E 1_555 1_555
C47J C48O 1_555 1_555
C47J C48J 1_555 1_555
C47J C51J 1_555 1_555
C47J C52J 1_555 1_555
C47J C53J 1_555 1_555
C47J C55J 1_555 1_555
C47J C56O 1_555 1_555
C47J N10O 1_555 1_555
C47J C57J 1_555 1_555
C47J C58J 1_555 1_555
C47O C48O 1_555 1_555
C47O C48J 1_555 1_555
C47O C51O 1_555 1_555
C47O C52O 1_555 1_555
C47O C53O 1_555 1_555
C47O C55O 1_555 1_555
C47O C56J 1_555 1_555
C47O N10J 1_555 1_555
C47O C57O 1_555 1_555
C47O C58O 1_555 1_555
H66E C52E 1_555 1_555
H66E C58E 1_555 1_555
H66E H75E 1_555 1_555
H66O C52O 1_555 1_555
H66O C58O 1_555 1_555
H66O H75O 1_555 1_555
H66J C52J 1_555 1_555
H66J C58J 1_555 1_555
H66J H75J 1_555 1_555
C48E H67E 1_555 1_555
C48E C55E 1_555 1_555
C48E C56E 1_555 1_555
C48E N10E 1_555 1_555
C48O C48J 1_555 1_555
C48O C55O 1_555 1_555
C48O C56O 1_555 1_555
C48O N10J 1_555 1_555
C48O N10O 1_555 1_555
C48J H67J 1_555 1_555
C48J H67O 1_555 1_555
C48J C55J 1_555 1_555
C48J C56J 1_555 1_555
C48J N10J 1_555 1_555
C48J N10O 1_555 1_555
H67J H67O 1_555 1_555
C49O C54E 1_555 1_555
C49O C61O 1_555 1_555
C49E C54J 1_555 1_555
C49E O1O 1_555 1_555
C49E C61E 1_555 1_555
C49J O1E 1_555 1_555
C49J C61J 1_555 1_555
C50E C54E 1_555 1_555
C50O C54O 1_555 1_555
C50J C54J 1_555 1_555
C51O C52O 1_555 1_555
C51O C55O 1_555 1_555
C51O C57O 1_555 1_555
C51O H73O 1_555 1_555
C51O C58O 1_555 1_555
C51O C59O 1_555 1_555
C51E C52E 1_555 1_555
C51E C55E 1_555 1_555
C51E C57E 1_555 1_555
C51E H73E 1_555 1_555
C51E C58E 1_555 1_555
C51E C59E 1_555 1_555
C51J C52J 1_555 1_555
C51J C55J 1_555 1_555
C51J C57J 1_555 1_555
C51J H73J 1_555 1_555
C51J C58J 1_555 1_555
C51J C59J 1_555 1_555
C52E H70E 1_555 1_555
C52E C53E 1_555 1_555
C52E H71E 1_555 1_555
C52E C58E 1_555 1_555
C52E H74E 1_555 1_555
C52E C59E 1_555 1_555
C52J H70J 1_555 1_555
C52J C53J 1_555 1_555
C52J H71J 1_555 1_555
C52J C56O 1_555 1_555
C52J C58J 1_555 1_555
C52J C59J 1_555 1_555
C52O H70O 1_555 1_555
C52O C53O 1_555 1_555
C52O H71O 1_555 1_555
C52O C56J 1_555 1_555
C52O C58O 1_555 1_555
C52O C59O 1_555 1_555
H70E C58E 1_555 1_555
H70O C58O 1_555 1_555
H70J C58J 1_555 1_555
C53E H71E 1_555 1_555
C53E C54E 1_555 1_555
C53E C58E 1_555 1_555
C53E H74E 1_555 1_555
C53J H71J 1_555 1_555
C53J C54J 1_555 1_555
C53J C56O 1_555 1_555
C53J C58J 1_555 1_555
C53J H74J 1_555 1_555
C53O H71O 1_555 1_555
C53O C54O 1_555 1_555
C53O C56J 1_555 1_555
C53O C58O 1_555 1_555
C53O H74O 1_555 1_555
H71E C58E 1_555 1_555
H71E C59E 1_555 1_555
H71O C58O 1_555 1_555
H71O C59O 1_555 1_555
H71J C58J 1_555 1_555
H71J C59J 1_555 1_555
C55O O1O 1_555 1_555
C55O N10J 1_555 1_555
C55O N10O 1_555 1_555
C55O C57O 1_555 1_555
C55O H73O 1_555 1_555
C55E O1E 1_555 1_555
C55E N10E 1_555 1_555
C55E C57E 1_555 1_555
C55E H73E 1_555 1_555
C55J O1J 1_555 1_555
C55J N10J 1_555 1_555
C55J N10O 1_555 1_555
C55J C57J 1_555 1_555
C55J H73J 1_555 1_555
C56O O1O 1_555 1_555
C56O O2O 1_555 1_555
C56O N10O 1_555 1_555
C56O C58J 1_555 1_555
C56O H74J 1_555 1_555
C56E O1E 1_555 1_555
C56E O2E 1_555 1_555
C56E N10E 1_555 1_555
C56J O1J 1_555 1_555
C56J O2J 1_555 1_555
C56J N10J 1_555 1_555
C56J C58O 1_555 1_555
C56J H74O 1_555 1_555
O1J O2J 1_555 1_555
O1O O2O 1_555 1_555
O1E O2E 1_555 1_555
N10J N10O 1_555 1_555
N10J C57J 1_555 1_555
N10J C57O 1_555 1_555
N10O C57J 1_555 1_555
N10O C57O 1_555 1_555
N10E C57E 1_555 1_555
C57J H73J 1_555 1_555
C57J C58J 1_555 1_555
C57J C62J 1_555 1_555
C57O H73O 1_555 1_555
C57O C58O 1_555 1_555
C57O C62O 1_555 1_555
C57E H73E 1_555 1_555
C57E C58E 1_555 1_555
C57E C62E 1_555 1_555
C58E H74E 1_555 1_555
C58E H75E 1_555 1_555
C58E C59E 1_555 1_555
C58O H74O 1_555 1_555
C58O H75O 1_555 1_555
C58O C59O 1_555 1_555
C58J H74J 1_555 1_555
C58J H75J 1_555 1_555
C58J C59J 1_555 1_555
C59E C60E 1_555 1_555
C59O C60O 1_555 1_555
C59J C60J 1_555 1_555
C60E H78E 1_555 1_555
C60E H79E 1_555 1_555
C60E C61E 1_555 1_555
C60O H78O 1_555 1_555
C60O H79O 1_555 1_555
C60O C61O 1_555 1_555
C60J H78J 1_555 1_555
C60J H79J 1_555 1_555
C60J C61J 1_555 1_555
C61O H80O 1_555 1_555
C61O H81O 1_555 1_555
C61O C62O 1_555 1_555
C61E H80E 1_555 1_555
C61E H81E 1_555 1_555
C61E C62E 1_555 1_555
C61J H80J 1_555 1_555
C61J H81J 1_555 1_555
C61J C62J 1_555 1_555
C62O H82O 1_555 1_555
C62J H82J 1_555 1_555
C62E H82E 1_555 1_555

#END
