# generated using pymatgen
data_H332Pd6C248N88O229
_symmetry_space_group_name_H-M   'P 1'
_cell_length_a   24.26399024
_cell_length_b   24.26399024
_cell_length_c   24.26399024
_cell_angle_alpha   98.73081058
_cell_angle_beta   115.09395141
_cell_angle_gamma   115.09395141
_symmetry_Int_Tables_number   1
_chemical_formula_structural   H332Pd6C248N88O229
_chemical_formula_sum   'H664 Pd12 C496 N176 O458'
_cell_volume   10715.11787741
_cell_formula_units_Z   2
loop_
 _symmetry_equiv_pos_site_id
 _symmetry_equiv_pos_as_xyz
  1  'x, y, z'
loop_
 _atom_site_type_symbol
 _atom_site_label
 _atom_site_symmetry_multiplicity
 _atom_site_fract_x
 _atom_site_fract_y
 _atom_site_fract_z
 _atom_site_occupancy
  C  C1  1  0.194400  0.268400  0.107400  1
  C  C2  1  0.305600  0.913000  0.574000  1
  C  C3  1  0.161000  0.074000  0.768400  1
  C  C4  1  0.339000  0.607400  0.413000  1
  C  C5  1  0.805600  0.731600  0.892600  1
  C  C6  1  0.694400  0.087000  0.426000  1
  C  C7  1  0.839000  0.926000  0.231600  1
  C  C8  1  0.661000  0.392600  0.587000  1
  C  C9  1  0.306400  0.281000  0.117600  1
  C  C10  1  0.193600  0.811200  0.474600  1
  C  C11  1  0.163400  0.974600  0.781000  1
  C  C12  1  0.336600  0.617600  0.311200  1
  C  C13  1  0.693600  0.719000  0.882400  1
  C  C14  1  0.806400  0.188800  0.525400  1
  C  C15  1  0.836600  0.025400  0.219000  1
  C  C16  1  0.663400  0.382400  0.688800  1
  C  C17  1  0.300900  0.311300  0.215400  1
  C  C18  1  0.199100  0.914500  0.510400  1
  C  C19  1  0.095900  0.010400  0.811300  1
  C  C20  1  0.404100  0.715400  0.414500  1
  C  C21  1  0.699100  0.688700  0.784600  1
  C  C22  1  0.800900  0.085500  0.489600  1
  C  C23  1  0.904100  0.989600  0.188700  1
  C  C24  1  0.595900  0.284600  0.585500  1
  C  C25  1  0.378800  0.364600  0.262000  1
  C  C26  1  0.121200  0.883200  0.485800  1
  C  C27  1  0.102600  0.985800  0.864600  1
  C  C28  1  0.397400  0.762000  0.383200  1
  C  C29  1  0.621200  0.635400  0.738000  1
  C  C30  1  0.878800  0.116800  0.514200  1
  C  C31  1  0.897400  0.014200  0.135400  1
  C  C32  1  0.602600  0.238000  0.616800  1
  C  C33  1  0.368400  0.462100  0.295300  1
  C  C34  1  0.131600  0.926900  0.593700  1
  C  C35  1  0.166800  0.093700  0.962100  1
  C  C36  1  0.333200  0.795300  0.426900  1
  C  C37  1  0.631600  0.537900  0.704700  1
  C  C38  1  0.868400  0.073100  0.406300  1
  C  C39  1  0.833200  0.906300  0.037900  1
  C  C40  1  0.666800  0.204700  0.573100  1
  C  C41  1  0.464300  0.471900  0.280400  1
  C  C42  1  0.035700  0.816100  0.507600  1
  C  C43  1  0.191500  0.007600  0.971900  1
  C  C44  1  0.308500  0.780400  0.316100  1
  C  C45  1  0.535700  0.528100  0.719600  1
  C  C46  1  0.964300  0.183900  0.492400  1
  C  C47  1  0.808500  0.992400  0.028100  1
  C  C48  1  0.691500  0.219600  0.683900  1
  C  C49  1  0.128200  0.190300  0.529300  1
  C  C50  1  0.371800  0.401100  0.562100  1
  C  C51  1  0.661000  0.062100  0.690300  1
  C  C52  1  0.839000  0.029300  0.901100  1
  C  C53  1  0.871800  0.809700  0.470700  1
  C  C54  1  0.628200  0.598900  0.437900  1
  C  C55  1  0.339000  0.937900  0.309700  1
  C  C56  1  0.161000  0.970700  0.098900  1
  C  C57  1  0.209600  0.229700  0.478100  1
  C  C58  1  0.290400  0.268500  0.520100  1
  C  C59  1  0.751600  0.020100  0.729700  1
  C  C60  1  0.748400  0.978100  0.768500  1
  C  C61  1  0.790400  0.770300  0.521900  1
  C  C62  1  0.709600  0.731500  0.479900  1
  C  C63  1  0.248400  0.979900  0.270300  1
  C  C64  1  0.251600  0.021900  0.231500  1
  C  C65  1  0.249800  0.221600  0.587800  1
  C  C66  1  0.250200  0.338000  0.471800  1
  C  C67  1  0.633800  0.971800  0.721600  1
  C  C68  1  0.866200  0.087800  0.838000  1
  C  C69  1  0.750200  0.778400  0.412200  1
  C  C70  1  0.749800  0.662000  0.528200  1
  C  C71  1  0.366200  0.028200  0.278400  1
  C  C72  1  0.133800  0.912200  0.162000  1
  C  C73  1  0.077000  0.555000  0.876400  1.0
  C  C74  1  0.423000  0.799400  0.978000  1.0
  C  C75  1  0.678600  0.478000  0.055000  1.0
  C  C76  1  0.821400  0.376400  0.299400  1.0
  C  C77  1  0.923000  0.445000  0.123600  1.0
  C  C78  1  0.577000  0.200600  0.022000  1.0
  C  C79  1  0.321400  0.522000  0.945000  1.0
  C  C80  1  0.178600  0.623600  0.700600  1.0
  C  C81  1  0.039700  0.510500  0.904800  1.0
  C  C82  1  0.460300  0.865100  0.970800  1.0
  C  C83  1  0.605700  0.470800  0.010500  1.0
  C  C84  1  0.894300  0.404800  0.365100  1.0
  C  C85  1  0.960300  0.489500  0.095200  1.0
  C  C86  1  0.539700  0.134900  0.029200  1.0
  C  C87  1  0.394300  0.529200  0.989500  1.0
  C  C88  1  0.105700  0.595200  0.634900  1.0
  C  C89  1  0.087600  0.513200  0.961600  1.0
  C  C90  1  0.412400  0.874000  0.925600  1.0
  C  C91  1  0.551600  0.425600  0.013200  1.0
  C  C92  1  0.948400  0.461600  0.374000  1.0
  C  C93  1  0.912400  0.486800  0.038400  1.0
  C  C94  1  0.587600  0.126000  0.074400  1.0
  C  C95  1  0.448400  0.574400  0.986800  1.0
  C  C96  1  0.051600  0.538400  0.626000  1.0
  C  C97  1  0.167900  0.557400  0.987500  1.0
  C  C98  1  0.332100  0.819600  0.889500  1.0
  C  C99  1  0.569900  0.389500  0.057400  1.0
  C  C100  1  0.930100  0.487500  0.319600  1.0
  C  C101  1  0.832100  0.442600  0.012500  1.0
  C  C102  1  0.667900  0.180400  0.110500  1.0
  C  C103  1  0.430100  0.610500  0.942600  1.0
  C  C104  1  0.069900  0.512500  0.680400  1.0
  C  C105  1  0.173800  0.535000  0.929200  1.0
  C  C106  1  0.326200  0.755400  0.861200  1.0
  C  C107  1  0.605800  0.361200  0.035000  1.0
  C  C108  1  0.894200  0.429200  0.255400  1.0
  C  C109  1  0.826200  0.465000  0.070800  1.0
  C  C110  1  0.673800  0.244600  0.138800  1.0
  C  C111  1  0.394200  0.638800  0.965000  1.0
  C  C112  1  0.105800  0.570800  0.744600  1.0
  C  C113  1  0.122600  0.528700  0.870100  1.0
  C  C114  1  0.377400  0.747500  0.906100  1.0
  C  C115  1  0.658600  0.406100  0.028700  1.0
  C  C116  1  0.841400  0.370100  0.247500  1.0
  C  C117  1  0.877400  0.471300  0.129900  1.0
  C  C118  1  0.622600  0.252500  0.093900  1.0
  C  C119  1  0.341400  0.593900  0.971300  1.0
  C  C120  1  0.158600  0.629900  0.752500  1.0
  C  C121  1  0.236000  0.736100  0.920100  1.0
  C  C122  1  0.264000  0.684100  0.000100  1.0
  C  C123  1  0.816000  0.500100  0.236100  1.0
  C  C124  1  0.684000  0.420100  0.184100  1.0
  C  C125  1  0.764000  0.263900  0.079900  1.0
  C  C126  1  0.736000  0.315900  0.999900  1.0
  C  C127  1  0.184000  0.499900  0.763900  1.0
  C  C128  1  0.316000  0.579900  0.815900  1.0
  C  C129  1  0.185000  0.684200  0.859200  1.0
  C  C130  1  0.315000  0.674200  0.999200  1.0
  C  C131  1  0.825000  0.499200  0.184200  1.0
  C  C132  1  0.675000  0.359200  0.174200  1.0
  C  C133  1  0.815000  0.315800  0.140800  1.0
  C  C134  1  0.685000  0.325800  0.000800  1.0
  C  C135  1  0.175000  0.500800  0.815800  1.0
  C  C136  1  0.325000  0.640800  0.825800  1.0
  C  C137  1  0.133000  0.624600  0.851600  1.0
  C  C138  1  0.367000  0.718600  0.991600  1.0
  C  C139  1  0.773000  0.491600  0.124600  1.0
  C  C140  1  0.727000  0.351600  0.218600  1.0
  C  C141  1  0.867000  0.375400  0.148400  1.0
  C  C142  1  0.633000  0.281400  0.008400  1.0
  C  C143  1  0.227000  0.508400  0.875400  1.0
  C  C144  1  0.273000  0.648400  0.781400  1.0
  C  C145  1  0.135000  0.614500  0.907500  1.0
  C  C146  1  0.365000  0.772500  0.979500  1.0
  C  C147  1  0.707000  0.479500  0.114500  1.0
  C  C148  1  0.793000  0.407500  0.272500  1.0
  C  C149  1  0.865000  0.385500  0.092500  1.0
  C  C150  1  0.635000  0.227500  0.020500  1.0
  C  C151  1  0.293000  0.520500  0.885500  1.0
  C  C152  1  0.207000  0.592500  0.727500  1.0
  C  C153  1  0.187000  0.669100  0.970100  1.0
  C  C154  1  0.313000  0.783100  0.982100  1.0
  C  C155  1  0.699000  0.482100  0.169100  1.0
  C  C156  1  0.801000  0.470100  0.283100  1.0
  C  C157  1  0.813000  0.330900  0.029900  1.0
  C  C158  1  0.687000  0.216900  0.017900  1.0
  C  C159  1  0.301000  0.517900  0.830900  1.0
  C  C160  1  0.199000  0.529900  0.716900  1.0
  C  C161  1  0.237000  0.729100  0.976100  1.0
  C  C162  1  0.263000  0.739100  0.992100  1.0
  C  C163  1  0.753000  0.492100  0.229100  1.0
  C  C164  1  0.747000  0.476100  0.239100  1.0
  C  C165  1  0.763000  0.270900  0.023900  1.0
  C  C166  1  0.737000  0.260900  0.007900  1.0
  C  C167  1  0.247000  0.507900  0.770900  1.0
  C  C168  1  0.253000  0.523900  0.760900  1.0
  C  C169  1  0.121800  0.511300  0.811500  1.0
  C  C170  1  0.378200  0.689700  0.889500  1.0
  C  C171  1  0.699800  0.389500  0.011300  1.0
  C  C172  1  0.800200  0.311500  0.189700  1.0
  C  C173  1  0.878200  0.488700  0.188500  1.0
  C  C174  1  0.621800  0.310300  0.110500  1.0
  C  C175  1  0.300200  0.610500  0.988700  1.0
  C  C176  1  0.199800  0.688500  0.810300  1.0
  C  C177  1  0.228000  0.525300  0.933300  1.0
  C  C178  1  0.272000  0.705300  0.797300  1.0
  C  C179  1  0.592000  0.297300  0.025300  1.0
  C  C180  1  0.908000  0.433300  0.205300  1.0
  C  C181  1  0.772000  0.474700  0.066700  1.0
  C  C182  1  0.728000  0.294700  0.202700  1.0
  C  C183  1  0.408000  0.702700  0.974700  1.0
  C  C184  1  0.092000  0.566700  0.794700  1.0
  C  C185  1  0.133400  0.629600  0.930200  1.0
  C  C186  1  0.366600  0.796800  0.996200  1.0
  C  C187  1  0.699400  0.496200  0.129600  1.0
  C  C188  1  0.800600  0.430200  0.296800  1.0
  C  C189  1  0.866600  0.370400  0.069800  1.0
  C  C190  1  0.633400  0.203200  0.003800  1.0
  C  C191  1  0.300600  0.503800  0.870400  1.0
  C  C192  1  0.199400  0.569800  0.703200  1.0
  C  C193  1  0.187400  0.631100  0.997700  1.0
  C  C194  1  0.312600  0.810300  0.943700  1.0
  C  C195  1  0.633400  0.443700  0.131100  1.0
  C  C196  1  0.866600  0.497700  0.310300  1.0
  C  C197  1  0.812600  0.368900  0.002300  1.0
  C  C198  1  0.687400  0.189700  0.056300  1.0
  C  C199  1  0.366600  0.556300  0.868900  1.0
  C  C200  1  0.133400  0.502300  0.689700  1.0
  C  C201  1  0.216000  0.621400  0.999400  1.0
  C  C202  1  0.284000  0.783400  0.905400  1.0
  C  C203  1  0.622000  0.405400  0.121400  1.0
  C  C204  1  0.878000  0.499400  0.283400  1.0
  C  C205  1  0.784000  0.378600  0.000600  1.0
  C  C206  1  0.716000  0.216600  0.094600  1.0
  C  C207  1  0.378000  0.594600  0.878600  1.0
  C  C208  1  0.122000  0.500600  0.716600  1.0
  C  C209  1  0.238000  0.580000  0.994000  1.0
  C  C210  1  0.262000  0.756000  0.842000  1.0
  C  C211  1  0.586000  0.342000  0.080000  1.0
  C  C212  1  0.914000  0.494000  0.256000  1.0
  C  C213  1  0.762000  0.420000  0.006000  1.0
  C  C214  1  0.738000  0.244000  0.158000  1.0
  C  C215  1  0.414000  0.658000  0.920000  1.0
  C  C216  1  0.086000  0.506000  0.744000  1.0
  C  C217  1  0.183900  0.666900  0.910200  1.0
  C  C218  1  0.316100  0.726300  0.983000  1.0
  C  C219  1  0.756700  0.483000  0.166900  1.0
  C  C220  1  0.743300  0.410200  0.226300  1.0
  C  C221  1  0.816100  0.333100  0.089800  1.0
  C  C222  1  0.683900  0.273700  0.017000  1.0
  C  C223  1  0.243300  0.517000  0.833100  1.0
  C  C224  1  0.256700  0.589800  0.773700  1.0
  C  C225  1  0.241600  0.745500  0.909500  1.0
  C  C226  1  0.258400  0.667900  0.003900  1.0
  C  C227  1  0.836000  0.503900  0.245500  1.0
  C  C228  1  0.664000  0.409500  0.167900  1.0
  C  C229  1  0.758400  0.254500  0.090500  1.0
  C  C230  1  0.741600  0.332100  0.996100  1.0
  C  C231  1  0.164000  0.496100  0.754500  1.0
  C  C232  1  0.336000  0.590500  0.832100  1.0
  C  C233  1  0.183700  0.639300  0.921000  1.0
  C  C234  1  0.316300  0.737300  0.955600  1.0
  C  C235  1  0.718300  0.455600  0.139300  1.0
  C  C236  1  0.781700  0.421000  0.237300  1.0
  C  C237  1  0.816300  0.360700  0.079000  1.0
  C  C238  1  0.683700  0.262700  0.044400  1.0
  C  C239  1  0.281700  0.544400  0.860700  1.0
  C  C240  1  0.218300  0.579000  0.762700  1.0
  C  C241  1  0.180400  0.643900  0.983500  1.0
  C  C242  1  0.319600  0.803100  0.963500  1.0
  C  C243  1  0.660400  0.463500  0.143900  1.0
  C  C244  1  0.839600  0.483500  0.303100  1.0
  C  C245  1  0.819600  0.356100  0.016500  1.0
  C  C246  1  0.680400  0.196900  0.036500  1.0
  C  C247  1  0.339600  0.536500  0.856100  1.0
  C  C248  1  0.160400  0.516500  0.696900  1.0
  C  C249  1  0.111200  0.582200  0.967000  1.0
  C  C250  1  0.388800  0.855800  0.971000  1.0
  C  C251  1  0.615200  0.471000  0.082200  1.0
  C  C252  1  0.884800  0.467000  0.355800  1.0
  C  C253  1  0.888800  0.417800  0.033000  1.0
  C  C254  1  0.611200  0.144200  0.029000  1.0
  C  C255  1  0.384800  0.529000  0.917800  1.0
  C  C256  1  0.115200  0.533000  0.644200  1.0
  C  C257  1  0.108700  0.518700  0.940000  1.0
  C  C258  1  0.391300  0.831300  0.910000  1.0
  C  C259  1  0.578700  0.410000  0.018700  1.0
  C  C260  1  0.921300  0.440000  0.331300  1.0
  C  C261  1  0.891300  0.481300  0.060000  1.0
  C  C262  1  0.608700  0.168700  0.090000  1.0
  C  C263  1  0.421300  0.590000  0.981300  1.0
  C  C264  1  0.078700  0.560000  0.668700  1.0
  C  C265  1  0.112000  0.514000  0.878000  1.0
  C  C266  1  0.388000  0.766000  0.902000  1.0
  C  C267  1  0.636000  0.402000  0.014000  1.0
  C  C268  1  0.864000  0.378000  0.266000  1.0
  C  C269  1  0.888000  0.486000  0.122000  1.0
  C  C270  1  0.612000  0.234000  0.098000  1.0
  C  C271  1  0.364000  0.598000  0.986000  1.0
  C  C272  1  0.136000  0.622000  0.734000  1.0
  C  C273  1  0.179000  0.575300  0.892300  1.0
  C  C274  1  0.321000  0.713300  0.896300  1.0
  C  C275  1  0.683000  0.396300  0.075300  1.0
  C  C276  1  0.817000  0.392300  0.213300  1.0
  C  C277  1  0.821000  0.424700  0.107700  1.0
  C  C278  1  0.679000  0.286700  0.103700  1.0
  C  C279  1  0.317000  0.603700  0.924700  1.0
  C  C280  1  0.183000  0.607700  0.786700  1.0
  C  C281  1  0.195800  0.384200  0.038400  1.0
  C  C282  1  0.304200  0.842600  0.688400  1.0
  C  C283  1  0.345800  0.188400  0.884200  1.0
  C  C284  1  0.154200  0.538400  0.342600  1.0
  C  C285  1  0.804200  0.615800  0.961600  1.0
  C  C286  1  0.695800  0.157400  0.311600  1.0
  C  C287  1  0.654200  0.811600  0.115800  1.0
  C  C288  1  0.845800  0.461600  0.657400  1.0
  C  C289  1  0.275700  0.372500  0.019000  1.0
  C  C290  1  0.224300  0.743300  0.596800  1.0
  C  C291  1  0.353500  0.096800  0.872500  1.0
  C  C292  1  0.146500  0.519000  0.243300  1.0
  C  C293  1  0.724300  0.627500  0.981000  1.0
  C  C294  1  0.775700  0.256700  0.403200  1.0
  C  C295  1  0.646500  0.903200  0.127500  1.0
  C  C296  1  0.853500  0.481000  0.756700  1.0
  C  C297  1  0.238100  0.363400  0.954500  1.0
  C  C298  1  0.261900  0.716400  0.625300  1.0
  C  C299  1  0.408900  0.125300  0.863400  1.0
  C  C300  1  0.091100  0.454500  0.216400  1.0
  C  C301  1  0.761900  0.636600  0.045500  1.0
  C  C302  1  0.738100  0.283600  0.374700  1.0
  C  C303  1  0.591100  0.874700  0.136600  1.0
  C  C304  1  0.908900  0.545500  0.783600  1.0
  C  C305  1  0.175400  0.364200  0.930000  1.0
  C  C306  1  0.324600  0.754600  0.688800  1.0
  C  C307  1  0.434200  0.188800  0.864200  1.0
  C  C308  1  0.065800  0.430000  0.254600  1.0
  C  C309  1  0.824600  0.635800  0.070000  1.0
  C  C310  1  0.675400  0.245400  0.311200  1.0
  C  C311  1  0.565800  0.811200  0.135800  1.0
  C  C312  1  0.934200  0.570000  0.745400  1.0
  C  C313  1  0.153700  0.374100  0.972400  1.0
  C  C314  1  0.346300  0.818700  0.720400  1.0
  C  C315  1  0.401700  0.220400  0.874100  1.0
  C  C316  1  0.098300  0.472400  0.318700  1.0
  C  C317  1  0.846300  0.625900  0.027600  1.0
  C  C318  1  0.653700  0.181300  0.279600  1.0
  C  C319  1  0.598300  0.779600  0.125900  1.0
  C  C320  1  0.901700  0.527600  0.681300  1.0
  C  C321  1  0.239900  0.335400  0.702900  1.0
  C  C322  1  0.260100  0.463000  0.595500  1.0
  C  C323  1  0.632500  0.095500  0.835400  1.0
  C  C324  1  0.867500  0.202900  0.963000  1.0
  C  C325  1  0.760100  0.664600  0.297100  1.0
  C  C326  1  0.739900  0.537000  0.404500  1.0
  C  C327  1  0.367500  0.904500  0.164600  1.0
  C  C328  1  0.132500  0.797100  0.037000  1.0
  C  C329  1  0.213400  0.338500  0.743300  1.0
  C  C330  1  0.286600  0.529900  0.625100  1.0
  C  C331  1  0.595200  0.125100  0.838500  1.0
  C  C332  1  0.904800  0.243300  0.029900  1.0
  C  C333  1  0.786600  0.661500  0.256700  1.0
  C  C334  1  0.713400  0.470100  0.374900  1.0
  C  C335  1  0.404800  0.874900  0.161500  1.0
  C  C336  1  0.095200  0.756700  0.970100  1.0
  C  C337  1  0.150700  0.337420  0.718920  1.0
  C  C338  1  0.349300  0.568220  0.686720  1.0
  C  C339  1  0.618500  0.186720  0.837420  1.0
  C  C340  1  0.881500  0.218920  0.068220  1.0
  C  C341  1  0.849300  0.662580  0.281080  1.0
  C  C342  1  0.650700  0.431780  0.313280  1.0
  C  C343  1  0.381500  0.813280  0.162580  1.0
  C  C344  1  0.118500  0.781080  0.931780  1.0
  C  C345  1  0.114600  0.332560  0.654960  1.0
  C  C346  1  0.385400  0.540360  0.717960  1.0
  C  C347  1  0.677600  0.217960  0.832560  1.0
  C  C348  1  0.822400  0.154960  0.040360  1.0
  C  C349  1  0.885400  0.667440  0.345040  1.0
  C  C350  1  0.614600  0.459640  0.282040  1.0
  C  C351  1  0.322400  0.782040  0.167440  1.0
  C  C352  1  0.177600  0.845040  0.959640  1.0
  C  C353  1  0.143700  0.329580  0.617480  1.0
  C  C354  1  0.356300  0.473780  0.685880  1.0
  C  C355  1  0.712100  0.185880  0.829580  1.0
  C  C356  1  0.787900  0.117480  0.973780  1.0
  C  C357  1  0.856300  0.670420  0.382520  1.0
  C  C358  1  0.643700  0.526220  0.314120  1.0
  C  C359  1  0.287900  0.814120  0.170420  1.0
  C  C360  1  0.212100  0.882520  0.026220  1.0
  C  C361  1  0.121300  0.340840  0.761140  1.0
  C  C362  1  0.378700  0.639840  0.719540  1.0
  C  C363  1  0.579700  0.219540  0.840840  1.0
  C  C364  1  0.920300  0.261140  0.139840  1.0
  C  C365  1  0.878700  0.659160  0.238860  1.0
  C  C366  1  0.621300  0.360160  0.280460  1.0
  C  C367  1  0.420300  0.780460  0.159160  1.0
  C  C368  1  0.079700  0.738860  0.860160  1.0
  C  C369  1  0.035800  0.341800  0.775000  1.0
  C  C370  1  0.464200  0.739200  0.806000  1.0
  C  C371  1  0.566800  0.306000  0.841800  1.0
  C  C372  1  0.933200  0.275000  0.239200  1.0
  C  C373  1  0.964200  0.658200  0.225000  1.0
  C  C374  1  0.535800  0.260800  0.194000  1.0
  C  C375  1  0.433200  0.694000  0.158200  1.0
  C  C376  1  0.066800  0.725000  0.760800  1.0
  C  C377  1  0.133100  0.354000  0.860300  1.0
  C  C378  1  0.366900  0.727200  0.720900  1.0
  C  C379  1  0.493700  0.220900  0.854000  1.0
  C  C380  1  0.006300  0.360300  0.227200  1.0
  C  C381  1  0.866900  0.646000  0.139700  1.0
  C  C382  1  0.633100  0.272800  0.279100  1.0
  C  C383  1  0.506300  0.779100  0.146000  1.0
  C  C384  1  0.993700  0.639700  0.772800  1.0
  C  C385  1  0.926200  0.327470  0.681870  1.0
  C  C386  1  0.573800  0.755670  0.901270  1.0
  C  C387  1  0.645600  0.401270  0.827470  1.0
  C  C388  1  0.854400  0.181870  0.255670  1.0
  C  C389  1  0.073800  0.672530  0.318130  1.0
  C  C390  1  0.426200  0.244330  0.098730  1.0
  C  C391  1  0.354400  0.598730  0.172530  1.0
  C  C392  1  0.145600  0.818130  0.744330  1.0
  C  C393  1  0.966100  0.338400  0.747700  1.0
  C  C394  1  0.533900  0.781600  0.872300  1.0
  C  C395  1  0.590700  0.372300  0.838400  1.0
  C  C396  1  0.909300  0.247700  0.281600  1.0
  C  C397  1  0.033900  0.661600  0.252300  1.0
  C  C398  1  0.466100  0.218400  0.127700  1.0
  C  C399  1  0.409300  0.627700  0.161600  1.0
  C  C400  1  0.090700  0.752300  0.718400  1.0
  C  C401  1  0.941100  0.346800  0.787700  1.0
  C  C402  1  0.558900  0.846600  0.905700  1.0
  C  C403  1  0.559100  0.405700  0.846800  1.0
  C  C404  1  0.940900  0.287700  0.346600  1.0
  C  C405  1  0.058900  0.653200  0.212300  1.0
  C  C406  1  0.441100  0.153400  0.094300  1.0
  C  C407  1  0.440900  0.594300  0.153200  1.0
  C  C408  1  0.059100  0.712300  0.653400  1.0
  C  C409  1  0.876600  0.343700  0.761100  1.0
  C  C410  1  0.623400  0.884500  0.967100  1.0
  C  C411  1  0.582600  0.467100  0.843700  1.0
  C  C412  1  0.917400  0.261100  0.384500  1.0
  C  C413  1  0.123400  0.656300  0.238900  1.0
  C  C414  1  0.376600  0.115500  0.032900  1.0
  C  C415  1  0.417400  0.532900  0.156300  1.0
  C  C416  1  0.082600  0.738900  0.615500  1.0
  C  C417  1  0.862400  0.325810  0.658410  1.0
  C  C418  1  0.637600  0.796010  0.963410  1.0
  C  C419  1  0.667400  0.463410  0.825810  1.0
  C  C420  1  0.832600  0.158410  0.296010  1.0
  C  C421  1  0.137600  0.674190  0.341590  1.0
  C  C422  1  0.362400  0.203990  0.036590  1.0
  C  C423  1  0.332600  0.536590  0.174190  1.0
  C  C424  1  0.167400  0.841590  0.703990  1.0
  C  C425  1  0.213500  0.287900  0.146800  1.0
  C  C426  1  0.286500  0.933300  0.574400  1.0
  C  C427  1  0.141100  0.074400  0.787900  1.0
  C  C428  1  0.358900  0.646800  0.433300  1.0
  C  C429  1  0.786500  0.712100  0.853200  1.0
  C  C430  1  0.713500  0.066700  0.425600  1.0
  C  C431  1  0.858900  0.925600  0.212100  1.0
  C  C432  1  0.641100  0.353200  0.566700  1.0
  C  C433  1  0.279900  0.270800  0.102900  1.0
  C  C434  1  0.220100  0.823000  0.490900  1.0
  C  C435  1  0.167900  0.990900  0.770800  1.0
  C  C436  1  0.332100  0.602900  0.323000  1.0
  C  C437  1  0.720100  0.729200  0.897100  1.0
  C  C438  1  0.779900  0.177000  0.509100  1.0
  C  C439  1  0.832100  0.009100  0.229200  1.0
  C  C440  1  0.667900  0.397100  0.677000  1.0
  C  C441  1  0.340800  0.323200  0.222200  1.0
  C  C442  1  0.159200  0.881400  0.482400  1.0
  C  C443  1  0.101000  0.982400  0.823200  1.0
  C  C444  1  0.399000  0.722200  0.381400  1.0
  C  C445  1  0.659200  0.676800  0.777800  1.0
  C  C446  1  0.840800  0.118600  0.517600  1.0
  C  C447  1  0.899000  0.017600  0.176800  1.0
  C  C448  1  0.601000  0.277800  0.618600  1.0
  C  C449  1  0.365800  0.382700  0.275900  1.0
  C  C450  1  0.134200  0.910100  0.516900  1.0
  C  C451  1  0.106800  0.016900  0.882700  1.0
  C  C452  1  0.393200  0.775900  0.410100  1.0
  C  C453  1  0.634200  0.617300  0.724100  1.0
  C  C454  1  0.865800  0.089900  0.483100  1.0
  C  C455  1  0.893200  0.983100  0.117300  1.0
  C  C456  1  0.606800  0.224100  0.589900  1.0
  C  C457  1  0.468800  0.461700  0.271500  1.0
  C  C458  1  0.031200  0.802700  0.492900  1.0
  C  C459  1  0.190200  0.992900  0.961700  1.0
  C  C460  1  0.309800  0.771500  0.302700  1.0
  C  C461  1  0.531200  0.538300  0.728500  1.0
  C  C462  1  0.968800  0.197300  0.507100  1.0
  C  C463  1  0.809800  0.007100  0.038300  1.0
  C  C464  1  0.690200  0.228500  0.697300  1.0
  C  C465  1  0.404300  0.498500  0.305000  1.0
  C  C466  1  0.095700  0.900700  0.594200  1.0
  C  C467  1  0.193500  0.094200  0.998500  1.0
  C  C468  1  0.306500  0.805000  0.400700  1.0
  C  C469  1  0.595700  0.501500  0.695000  1.0
  C  C470  1  0.904300  0.099300  0.405800  1.0
  C  C471  1  0.806500  0.905800  0.001500  1.0
  C  C472  1  0.693500  0.195000  0.599300  1.0
  C  C473  1  0.126700  0.198000  0.517300  1.0
  C  C474  1  0.373300  0.390600  0.571300  1.0
  C  C475  1  0.680700  0.071300  0.698000  1.0
  C  C476  1  0.819300  0.017300  0.890600  1.0
  C  C477  1  0.873300  0.802000  0.482700  1.0
  C  C478  1  0.626700  0.609400  0.428700  1.0
  C  C479  1  0.319300  0.928700  0.302000  1.0
  C  C480  1  0.180700  0.982700  0.109400  1.0
  C  C481  1  0.242700  0.214600  0.606100  1.0
  C  C482  1  0.257300  0.363400  0.471900  1.0
  C  C483  1  0.608500  0.971900  0.714600  1.0
  C  C484  1  0.891500  0.106100  0.863400  1.0
  C  C485  1  0.757300  0.785400  0.393900  1.0
  C  C486  1  0.742700  0.636600  0.528100  1.0
  C  C487  1  0.391500  0.028100  0.285400  1.0
  C  C488  1  0.108500  0.893900  0.136600  1.0
  C  C489  1  0.216900  0.218400  0.495500  1.0
  C  C490  1  0.283100  0.278600  0.501500  1.0
  C  C491  1  0.722900  0.001500  0.718400  1.0
  C  C492  1  0.777100  0.995500  0.778600  1.0
  C  C493  1  0.783100  0.781600  0.504500  1.0
  C  C494  1  0.716900  0.721400  0.498500  1.0
  C  C495  1  0.277100  0.998500  0.281600  1.0
  C  C496  1  0.222900  0.004500  0.221400  1.0
  H  H497  1  0.177200  0.268100  0.062700  1
  H  H498  1  0.322800  0.885500  0.590900  1
  H  H499  1  0.205400  0.090900  0.768100  1
  H  H500  1  0.294600  0.562700  0.385500  1
  H  H501  1  0.822800  0.731900  0.937300  1
  H  H502  1  0.677200  0.114500  0.409100  1
  H  H503  1  0.794600  0.909100  0.231900  1
  H  H504  1  0.705400  0.437300  0.614500  1
  H  H505  1  0.175200  0.286700  0.127700  1
  H  H506  1  0.324800  0.952500  0.611500  1
  H  H507  1  0.159000  0.111500  0.786700  1
  H  H508  1  0.341000  0.627700  0.452500  1
  H  H509  1  0.824800  0.713300  0.872300  1
  H  H510  1  0.675200  0.047500  0.388500  1
  H  H511  1  0.841000  0.888500  0.213300  1
  H  H512  1  0.659000  0.372300  0.547500  1
  H  H513  1  0.177700  0.222900  0.104400  1
  H  H514  1  0.322300  0.926700  0.545200  1
  H  H515  1  0.118500  0.045200  0.722900  1
  H  H516  1  0.381500  0.604400  0.426700  1
  H  H517  1  0.822300  0.777100  0.895600  1
  H  H518  1  0.677700  0.073300  0.454800  1
  H  H519  1  0.881500  0.954800  0.277100  1
  H  H520  1  0.618500  0.395600  0.573300  1
  H  H521  1  0.281000  0.273200  0.070400  1
  H  H522  1  0.219000  0.789400  0.492200  1
  H  H523  1  0.202800  0.992200  0.773200  1
  H  H524  1  0.297200  0.570400  0.289400  1
  H  H525  1  0.719000  0.726800  0.929600  1
  H  H526  1  0.781000  0.210600  0.507800  1
  H  H527  1  0.797200  0.007800  0.226800  1
  H  H528  1  0.702800  0.429600  0.710600  1
  H  H529  1  0.294800  0.238400  0.121400  1
  H  H530  1  0.205200  0.826600  0.443600  1
  H  H531  1  0.117000  0.943600  0.738400  1
  H  H532  1  0.383000  0.621400  0.326600  1
  H  H533  1  0.705200  0.761600  0.878600  1
  H  H534  1  0.794800  0.173400  0.556400  1
  H  H535  1  0.883000  0.056400  0.261600  1
  H  H536  1  0.617000  0.378600  0.673400  1
  H  H537  1  0.358900  0.310100  0.138200  1
  H  H538  1  0.141100  0.779300  0.451200  1
  H  H539  1  0.171900  0.951200  0.810100  1
  H  H540  1  0.328100  0.638200  0.279300  1
  H  H541  1  0.641100  0.689900  0.861800  1
  H  H542  1  0.858900  0.220700  0.548800  1
  H  H543  1  0.828100  0.048800  0.189900  1
  H  H544  1  0.671900  0.361800  0.720700  1
  H  H545  1  0.292900  0.267300  0.213400  1
  H  H546  1  0.207100  0.920500  0.474400  1
  H  H547  1  0.053900  0.974400  0.767300  1
  H  H548  1  0.446100  0.713400  0.420500  1
  H  H549  1  0.707100  0.732700  0.786600  1
  H  H550  1  0.792900  0.079500  0.525600  1
  H  H551  1  0.946100  0.025600  0.232700  1
  H  H552  1  0.553900  0.286600  0.579500  1
  H  H553  1  0.271200  0.319000  0.229600  1
  H  H554  1  0.228800  0.958400  0.547800  1
  H  H555  1  0.089400  0.047800  0.819000  1
  H  H556  1  0.410600  0.729600  0.458400  1
  H  H557  1  0.728800  0.681000  0.770400  1
  H  H558  1  0.771200  0.041600  0.452200  1
  H  H559  1  0.910600  0.952200  0.181000  1
  H  H560  1  0.589400  0.270400  0.541600  1
  H  H561  1  0.408300  0.353300  0.250400  1
  H  H562  1  0.091700  0.842100  0.445000  1
  H  H563  1  0.102900  0.945000  0.853300  1
  H  H564  1  0.397100  0.750400  0.342100  1
  H  H565  1  0.591700  0.646700  0.749600  1
  H  H566  1  0.908300  0.157900  0.555000  1
  H  H567  1  0.897100  0.055000  0.146700  1
  H  H568  1  0.602900  0.249600  0.657900  1
  H  H569  1  0.393900  0.368200  0.307900  1
  H  H570  1  0.106100  0.914000  0.474300  1
  H  H571  1  0.060300  0.974300  0.868200  1
  H  H572  1  0.439700  0.807900  0.414000  1
  H  H573  1  0.606100  0.631800  0.692100  1
  H  H574  1  0.893900  0.086000  0.525700  1
  H  H575  1  0.939700  0.025700  0.131800  1
  H  H576  1  0.560300  0.192100  0.586000  1
  H  H577  1  0.320200  0.426400  0.282000  1
  H  H578  1  0.179800  0.961800  0.606200  1
  H  H579  1  0.144400  0.106200  0.926400  1
  H  H580  1  0.355600  0.782000  0.461800  1
  H  H581  1  0.679800  0.573600  0.718000  1
  H  H582  1  0.820200  0.038200  0.393800  1
  H  H583  1  0.855600  0.893800  0.073600  1
  H  H584  1  0.644400  0.218000  0.538200  1
  H  H585  1  0.365900  0.498900  0.285200  1
  H  H586  1  0.134100  0.919300  0.633000  1
  H  H587  1  0.213700  0.133000  0.998900  1
  H  H588  1  0.286300  0.785200  0.419300  1
  H  H589  1  0.634100  0.501100  0.714800  1
  H  H590  1  0.865900  0.080700  0.367000  1
  H  H591  1  0.786300  0.867000  0.001100  1
  H  H592  1  0.713700  0.214800  0.580700  1
  H  H593  1  0.402600  0.478000  0.343200  1
  H  H594  1  0.097400  0.940600  0.575400  1
  H  H595  1  0.134800  0.075400  0.978000  1
  H  H596  1  0.365200  0.843200  0.440600  1
  H  H597  1  0.597400  0.522000  0.656800  1
  H  H598  1  0.902600  0.059400  0.424600  1
  H  H599  1  0.865200  0.924600  0.022000  1
  H  H600  1  0.634800  0.156800  0.559400  1
  H  H601  1  0.472600  0.449800  0.250200  1
  H  H602  1  0.027400  0.777600  0.477200  1
  H  H603  1  0.199600  0.977200  0.949800  1
  H  H604  1  0.300400  0.750200  0.277600  1
  H  H605  1  0.527400  0.550200  0.749800  1
  H  H606  1  0.972600  0.222400  0.522800  1
  H  H607  1  0.800400  0.022800  0.050200  1
  H  H608  1  0.699600  0.249800  0.722400  1
  H  H609  1  0.493100  0.474800  0.325100  1
  H  H610  1  0.006900  0.832000  0.481700  1
  H  H611  1  0.149700  0.981700  0.974800  1
  H  H612  1  0.350300  0.825100  0.332000  1
  H  H613  1  0.506900  0.525200  0.674900  1
  H  H614  1  0.993100  0.168000  0.518300  1
  H  H615  1  0.850300  0.018300  0.025200  1
  H  H616  1  0.649700  0.174900  0.668000  1
  H  H617  1  0.478900  0.516700  0.281800  1
  H  H618  1  0.021100  0.802900  0.537800  1
  H  H619  1  0.234900  0.037800  0.016700  1
  H  H620  1  0.265100  0.781800  0.302900  1
  H  H621  1  0.521100  0.483300  0.718200  1
  H  H622  1  0.978900  0.197100  0.462200  1
  H  H623  1  0.765100  0.962200  0.983300  1
  H  H624  1  0.734900  0.218200  0.697100  1
  H  H625  1  0.095500  0.198400  0.495900  1
  H  H626  1  0.404500  0.400400  0.602900  1
  H  H627  1  0.702500  0.102900  0.698400  1
  H  H628  1  0.797500  0.995900  0.900400  1
  H  H629  1  0.904500  0.801600  0.504100  1
  H  H630  1  0.595500  0.599600  0.397100  1
  H  H631  1  0.297500  0.897100  0.301600  1
  H  H632  1  0.202500  0.004100  0.099600  1
  H  H633  1  0.127200  0.200200  0.569400  1
  H  H634  1  0.372800  0.442200  0.573000  1
  H  H635  1  0.630800  0.073000  0.700200  1
  H  H636  1  0.869200  0.069400  0.942200  1
  H  H637  1  0.872800  0.799800  0.430600  1
  H  H638  1  0.627200  0.557800  0.427000  1
  H  H639  1  0.369200  0.927000  0.299800  1
  H  H640  1  0.130800  0.930600  0.057800  1
  H  H641  1  0.112400  0.143600  0.511400  1
  H  H642  1  0.387600  0.399000  0.531200  1
  H  H643  1  0.632200  0.031200  0.643600  1
  H  H644  1  0.867800  0.011400  0.899000  1
  H  H645  1  0.887600  0.856400  0.488600  1
  H  H646  1  0.612400  0.601000  0.468800  1
  H  H647  1  0.367800  0.968800  0.356400  1
  H  H648  1  0.132200  0.988600  0.101000  1
  H  H649  1  0.187400  0.183500  0.448300  1
  H  H650  1  0.312600  0.260900  0.496100  1
  H  H651  1  0.735200  0.996100  0.683500  1
  H  H652  1  0.764800  0.948300  0.760900  1
  H  H653  1  0.812600  0.816500  0.551700  1
  H  H654  1  0.687400  0.739100  0.503900  1
  H  H655  1  0.264800  0.003900  0.316500  1
  H  H656  1  0.235200  0.051700  0.239100  1
  H  H657  1  0.190100  0.252400  0.452700  1
  H  H658  1  0.309900  0.262600  0.562300  1
  H  H659  1  0.799700  0.062300  0.752400  1
  H  H660  1  0.700300  0.952700  0.762600  1
  H  H661  1  0.809900  0.747600  0.547300  1
  H  H662  1  0.690100  0.737400  0.437700  1
  H  H663  1  0.200300  0.937700  0.247600  1
  H  H664  1  0.299700  0.047300  0.237400  1
  H  H665  1  0.299100  0.250600  0.598500  1
  H  H666  1  0.200900  0.299400  0.451500  1
  H  H667  1  0.652100  0.951500  0.750600  1
  H  H668  1  0.847900  0.098500  0.799400  1
  H  H669  1  0.700900  0.749400  0.401500  1
  H  H670  1  0.799100  0.700600  0.548500  1
  H  H671  1  0.347900  0.048500  0.249400  1
  H  H672  1  0.152100  0.901500  0.200600  1
  H  H673  1  0.232700  0.175100  0.566600  1
  H  H674  1  0.267300  0.333900  0.442400  1
  H  H675  1  0.608500  0.942400  0.675100  1
  H  H676  1  0.891500  0.066600  0.833900  1
  H  H677  1  0.767300  0.824900  0.433400  1
  H  H678  1  0.732700  0.666100  0.557600  1
  H  H679  1  0.391500  0.057600  0.324900  1
  H  H680  1  0.108500  0.933400  0.166100  1
  H  H681  1  0.250000  0.229000  0.628800  1
  H  H682  1  0.250000  0.378800  0.479000  1
  H  H683  1  0.600200  0.979000  0.729000  1
  H  H684  1  0.899800  0.128800  0.878800  1
  H  H685  1  0.750000  0.771000  0.371200  1
  H  H686  1  0.750000  0.621200  0.521000  1
  H  H687  1  0.399800  0.021000  0.271000  1
  H  H688  1  0.100200  0.871200  0.121200  1
  H  H689  1  0.041300  0.551300  0.833000  1.0
  H  H690  1  0.458700  0.791700  0.010000  1.0
  H  H691  1  0.718300  0.510000  0.051300  1.0
  H  H692  1  0.781700  0.333000  0.291700  1.0
  H  H693  1  0.958700  0.448700  0.167000  1.0
  H  H694  1  0.541300  0.208300  0.990000  1.0
  H  H695  1  0.281700  0.490000  0.948700  1.0
  H  H696  1  0.218300  0.667000  0.708300  1.0
  H  H697  1  0.988700  0.484200  0.884500  1.0
  H  H698  1  0.511300  0.895800  0.995500  1.0
  H  H699  1  0.599700  0.495500  0.984200  1.0
  H  H700  1  0.900300  0.384500  0.395800  1.0
  H  H701  1  0.011300  0.515800  0.115500  1.0
  H  H702  1  0.488700  0.104200  0.004500  1.0
  H  H703  1  0.400300  0.504500  0.015800  1.0
  H  H704  1  0.099700  0.615500  0.604200  1.0
  H  H705  1  0.072800  0.488500  0.985300  1.0
  H  H706  1  0.427200  0.912500  0.915700  1.0
  H  H707  1  0.503200  0.415700  0.988500  1.0
  H  H708  1  0.996800  0.485300  0.412500  1.0
  H  H709  1  0.927200  0.511500  0.014700  1.0
  H  H710  1  0.572800  0.087500  0.084300  1.0
  H  H711  1  0.496800  0.584300  0.011500  1.0
  H  H712  1  0.003200  0.514700  0.587500  1.0
  H  H713  1  0.200100  0.555300  0.028200  1.0
  H  H714  1  0.299900  0.828100  0.855200  1.0
  H  H715  1  0.527100  0.355200  0.055300  1.0
  H  H716  1  0.972900  0.528200  0.328100  1.0
  H  H717  1  0.799900  0.444700  0.971800  1.0
  H  H718  1  0.700100  0.171900  0.144800  1.0
  H  H719  1  0.472900  0.644800  0.944700  1.0
  H  H720  1  0.027100  0.471800  0.671900  1.0
  H  H721  1  0.103500  0.572500  0.904000  1.0
  H  H722  1  0.396500  0.800500  0.969000  1.0
  H  H723  1  0.668500  0.469000  0.072500  1.0
  H  H724  1  0.831500  0.404000  0.300500  1.0
  H  H725  1  0.896500  0.427500  0.096000  1.0
  H  H726  1  0.603500  0.199500  0.031000  1.0
  H  H727  1  0.331500  0.531000  0.927500  1.0
  H  H728  1  0.168500  0.596000  0.699500  1.0
  H  H729  1  0.186100  0.663800  0.007900  1.0
  H  H730  1  0.313900  0.821800  0.977700  1.0
  H  H731  1  0.655900  0.477700  0.163800  1.0
  H  H732  1  0.844100  0.507900  0.321800  1.0
  H  H733  1  0.813900  0.336200  0.992100  1.0
  H  H734  1  0.686100  0.178200  0.022300  1.0
  H  H735  1  0.344100  0.522300  0.836200  1.0
  H  H736  1  0.155900  0.492100  0.678200  1.0
  H  H737  1  0.271000  0.765000  0.018200  1.0
  H  H738  1  0.229000  0.747200  0.994000  1.0
  H  H739  1  0.746800  0.494000  0.265000  1.0
  H  H740  1  0.753200  0.518200  0.247200  1.0
  H  H741  1  0.729000  0.235000  0.981800  1.0
  H  H742  1  0.771000  0.252800  0.006000  1.0
  H  H743  1  0.253200  0.506000  0.735000  1.0
  H  H744  1  0.246800  0.481800  0.752800  1.0
  H  H745  1  0.263400  0.529700  0.973500  1.0
  H  H746  1  0.236600  0.710100  0.766300  1.0
  H  H747  1  0.556200  0.266300  0.029700  1.0
  H  H748  1  0.943800  0.473500  0.210100  1.0
  H  H749  1  0.736600  0.470300  0.026500  1.0
  H  H750  1  0.763400  0.289900  0.233700  1.0
  H  H751  1  0.443800  0.733700  0.970300  1.0
  H  H752  1  0.056200  0.526500  0.789900  1.0
  H  H753  1  0.108800  0.651800  0.937000  1.0
  H  H754  1  0.391200  0.828200  0.043000  1.0
  H  H755  1  0.714800  0.543000  0.151800  1.0
  H  H756  1  0.785200  0.437000  0.328200  1.0
  H  H757  1  0.891200  0.348200  0.063000  1.0
  H  H758  1  0.608800  0.171800  0.957000  1.0
  H  H759  1  0.285200  0.457000  0.848200  1.0
  H  H760  1  0.214800  0.563000  0.671800  1.0
  H  H761  1  0.188000  0.653200  0.036400  1.0
  H  H762  1  0.312000  0.848400  0.965200  1.0
  H  H763  1  0.616800  0.465200  0.153200  1.0
  H  H764  1  0.883200  0.536400  0.348400  1.0
  H  H765  1  0.812000  0.346800  0.963600  1.0
  H  H766  1  0.688000  0.151600  0.034800  1.0
  H  H767  1  0.383200  0.534800  0.846800  1.0
  H  H768  1  0.116800  0.463600  0.651600  1.0
  H  H769  1  0.174700  0.611000  0.002100  1.0
  H  H770  1  0.325300  0.827400  0.936300  1.0
  H  H771  1  0.608900  0.436300  0.111000  1.0
  H  H772  1  0.891100  0.502100  0.327400  1.0
  H  H773  1  0.825300  0.389000  0.997900  1.0
  H  H774  1  0.674700  0.172600  0.063700  1.0
  H  H775  1  0.391100  0.563700  0.889000  1.0
  H  H776  1  0.108900  0.497900  0.672600  1.0
  H  H777  1  0.216000  0.536800  0.994400  1.0
  H  H778  1  0.284000  0.778400  0.820800  1.0
  H  H779  1  0.542400  0.320800  0.036800  1.0
  H  H780  1  0.957600  0.494400  0.278400  1.0
  H  H781  1  0.784000  0.463200  0.005600  1.0
  H  H782  1  0.716000  0.221600  0.179200  1.0
  H  H783  1  0.457600  0.679200  0.963200  1.0
  H  H784  1  0.042400  0.505600  0.721600  1.0
  H  H785  1  0.139400  0.635900  0.886500  1.0
  H  H786  1  0.360600  0.747100  0.996500  1.0
  H  H787  1  0.749400  0.496500  0.135900  1.0
  H  H788  1  0.750600  0.386500  0.247100  1.0
  H  H789  1  0.860600  0.364100  0.113500  1.0
  H  H790  1  0.639400  0.252900  0.003500  1.0
  H  H791  1  0.250600  0.503500  0.864100  1.0
  H  H792  1  0.249400  0.613500  0.752900  1.0
  H  H793  1  0.223100  0.647400  0.018900  1.0
  H  H794  1  0.276900  0.795800  0.924300  1.0
  H  H795  1  0.628500  0.424300  0.147400  1.0
  H  H796  1  0.871500  0.518900  0.295800  1.0
  H  H797  1  0.776900  0.352600  0.981100  1.0
  H  H798  1  0.723100  0.204200  0.075700  1.0
  H  H799  1  0.371500  0.575700  0.852600  1.0
  H  H800  1  0.128500  0.481100  0.704200  1.0
  H  H801  1  0.180800  0.684300  0.999500  1.0
  H  H802  1  0.319200  0.818700  0.003500  1.0
  H  H803  1  0.684800  0.503500  0.184300  1.0
  H  H804  1  0.815200  0.499500  0.318700  1.0
  H  H805  1  0.819200  0.315700  0.000500  1.0
  H  H806  1  0.680800  0.181300  0.996500  1.0
  H  H807  1  0.315200  0.496500  0.815700  1.0
  H  H808  1  0.184800  0.500500  0.681300  1.0
  H  H809  1  0.067800  0.579700  0.932100  1.0
  H  H810  1  0.432200  0.864300  0.011900  1.0
  H  H811  1  0.647600  0.511900  0.079700  1.0
  H  H812  1  0.852400  0.432100  0.364300  1.0
  H  H813  1  0.932200  0.420300  0.067900  1.0
  H  H814  1  0.567800  0.135700  0.988100  1.0
  H  H815  1  0.352400  0.488100  0.920300  1.0
  H  H816  1  0.147600  0.567900  0.635700  1.0
  H  H817  1  0.108800  0.585300  0.006700  1.0
  H  H818  1  0.391200  0.897900  0.976500  1.0
  H  H819  1  0.578600  0.476500  0.085300  1.0
  H  H820  1  0.921400  0.506700  0.397900  1.0
  H  H821  1  0.891200  0.414700  0.993300  1.0
  H  H822  1  0.608800  0.102100  0.023500  1.0
  H  H823  1  0.421400  0.523500  0.914700  1.0
  H  H824  1  0.078600  0.493300  0.602100  1.0
  H  H825  1  0.151400  0.520900  0.975500  1.0
  H  H826  1  0.348600  0.824100  0.869500  1.0
  H  H827  1  0.545400  0.369500  0.020900  1.0
  H  H828  1  0.954600  0.475500  0.324100  1.0
  H  H829  1  0.848600  0.479100  0.024500  1.0
  H  H830  1  0.651400  0.175900  0.130500  1.0
  H  H831  1  0.454600  0.630500  0.979100  1.0
  H  H832  1  0.045400  0.524500  0.675900  1.0
  H  H833  1  0.064400  0.479300  0.930300  1.0
  H  H834  1  0.435600  0.865900  0.914900  1.0
  H  H835  1  0.549000  0.414900  0.979300  1.0
  H  H836  1  0.951000  0.430300  0.365900  1.0
  H  H837  1  0.935600  0.520700  0.069700  1.0
  H  H838  1  0.564400  0.134100  0.085100  1.0
  H  H839  1  0.451000  0.585100  0.020700  1.0
  H  H840  1  0.049000  0.569700  0.634100  1.0
  H  H841  1  0.111700  0.473900  0.862400  1.0
  H  H842  1  0.388300  0.750700  0.862200  1.0
  H  H843  1  0.611500  0.362200  0.973900  1.0
  H  H844  1  0.888500  0.362400  0.250700  1.0
  H  H845  1  0.888300  0.526100  0.137600  1.0
  H  H846  1  0.611700  0.249300  0.137800  1.0
  H  H847  1  0.388500  0.637800  0.026100  1.0
  H  H848  1  0.111500  0.637600  0.749300  1.0
  H  H849  1  0.067400  0.508900  0.842300  1.0
  H  H850  1  0.432600  0.774900  0.941500  1.0
  H  H851  1  0.666600  0.441500  0.008900  1.0
  H  H852  1  0.833400  0.342300  0.274900  1.0
  H  H853  1  0.932600  0.491100  0.157700  1.0
  H  H854  1  0.567400  0.225100  0.058500  1.0
  H  H855  1  0.333400  0.558500  0.991100  1.0
  H  H856  1  0.166600  0.657700  0.725100  1.0
  H  H857  1  0.223000  0.577700  0.923900  1.0
  H  H858  1  0.277000  0.700900  0.854700  1.0
  H  H859  1  0.653800  0.354700  0.077700  1.0
  H  H860  1  0.846200  0.423900  0.200900  1.0
  H  H861  1  0.777000  0.422300  0.076100  1.0
  H  H862  1  0.723000  0.299100  0.145300  1.0
  H  H863  1  0.346200  0.645300  0.922300  1.0
  H  H864  1  0.153800  0.576100  0.799100  1.0
  H  H865  1  0.177700  0.572600  0.850300  1.0
  H  H866  1  0.322300  0.672600  0.894900  1.0
  H  H867  1  0.722300  0.394900  0.072600  1.0
  H  H868  1  0.777700  0.350300  0.172600  1.0
  H  H869  1  0.822300  0.427400  0.149700  1.0
  H  H870  1  0.677700  0.327400  0.105100  1.0
  H  H871  1  0.277700  0.605100  0.927400  1.0
  H  H872  1  0.222300  0.649700  0.827400  1.0
  H  H873  1  0.181400  0.392100  0.067900  1.0
  H  H874  1  0.318600  0.886500  0.710700  1.0
  H  H875  1  0.324200  0.210700  0.892100  1.0
  H  H876  1  0.175800  0.567900  0.386500  1.0
  H  H877  1  0.818600  0.607900  0.932100  1.0
  H  H878  1  0.681400  0.113500  0.289300  1.0
  H  H879  1  0.675800  0.789300  0.107900  1.0
  H  H880  1  0.824200  0.432100  0.613500  1.0
  H  H881  1  0.318100  0.371300  0.035000  1.0
  H  H882  1  0.181900  0.716900  0.553200  1.0
  H  H883  1  0.336300  0.053200  0.871300  1.0
  H  H884  1  0.163700  0.535000  0.216900  1.0
  H  H885  1  0.681900  0.628700  0.965000  1.0
  H  H886  1  0.818100  0.283100  0.446800  1.0
  H  H887  1  0.663700  0.946800  0.128700  1.0
  H  H888  1  0.836300  0.465000  0.783100  1.0
  H  H889  1  0.254600  0.356700  0.926500  1.0
  H  H890  1  0.245400  0.671900  0.602100  1.0
  H  H891  1  0.430200  0.102100  0.856700  1.0
  H  H892  1  0.069800  0.426500  0.171900  1.0
  H  H893  1  0.745400  0.643300  0.073500  1.0
  H  H894  1  0.754600  0.328100  0.397900  1.0
  H  H895  1  0.569800  0.897900  0.143300  1.0
  H  H896  1  0.930200  0.573500  0.828100  1.0
  H  H897  1  0.110600  0.374100  0.957100  1.0
  H  H898  1  0.389400  0.846500  0.763500  1.0
  H  H899  1  0.417000  0.263500  0.874100  1.0
  H  H900  1  0.083000  0.457100  0.346500  1.0
  H  H901  1  0.889400  0.625900  0.042900  1.0
  H  H902  1  0.610600  0.153500  0.236500  1.0
  H  H903  1  0.583000  0.736500  0.125900  1.0
  H  H904  1  0.917000  0.542900  0.653500  1.0
  H  H905  1  0.283700  0.336400  0.719900  1.0
  H  H906  1  0.216300  0.436200  0.552700  1.0
  H  H907  1  0.616500  0.052700  0.836400  1.0
  H  H908  1  0.883500  0.219900  0.936200  1.0
  H  H909  1  0.716300  0.663600  0.280100  1.0
  H  H910  1  0.783700  0.563800  0.447300  1.0
  H  H911  1  0.383500  0.947300  0.163600  1.0
  H  H912  1  0.116500  0.780100  0.063800  1.0
  H  H913  1  0.238500  0.341100  0.787200  1.0
  H  H914  1  0.261500  0.548700  0.602600  1.0
  H  H915  1  0.553900  0.102600  0.841100  1.0
  H  H916  1  0.946100  0.287200  0.048700  1.0
  H  H917  1  0.761500  0.658900  0.212800  1.0
  H  H918  1  0.738500  0.451300  0.397400  1.0
  H  H919  1  0.446100  0.897400  0.158900  1.0
  H  H920  1  0.053900  0.712800  0.951300  1.0
  H  H921  1  0.070700  0.331300  0.637200  1.0
  H  H922  1  0.429300  0.566500  0.760600  1.0
  H  H923  1  0.694100  0.260600  0.831300  1.0
  H  H924  1  0.805900  0.137200  0.066500  1.0
  H  H925  1  0.929300  0.668700  0.362800  1.0
  H  H926  1  0.570700  0.433500  0.239400  1.0
  H  H927  1  0.305900  0.739400  0.168700  1.0
  H  H928  1  0.194100  0.862800  0.933500  1.0
  H  H929  1  0.118800  0.326300  0.573300  1.0
  H  H930  1  0.381200  0.454500  0.707500  1.0
  H  H931  1  0.753000  0.207500  0.826300  1.0
  H  H932  1  0.747000  0.073300  0.954500  1.0
  H  H933  1  0.881200  0.673700  0.426700  1.0
  H  H934  1  0.618800  0.545500  0.292500  1.0
  H  H935  1  0.247000  0.792500  0.173700  1.0
  H  H936  1  0.253000  0.926700  0.045500  1.0
  H  H937  1  0.942200  0.321300  0.653300  1.0
  H  H938  1  0.557800  0.711100  0.879100  1.0
  H  H939  1  0.668000  0.379100  0.821300  1.0
  H  H940  1  0.832000  0.153300  0.211100  1.0
  H  H941  1  0.057800  0.678700  0.346700  1.0
  H  H942  1  0.442200  0.288900  0.120900  1.0
  H  H943  1  0.332000  0.620900  0.178700  1.0
  H  H944  1  0.168000  0.846700  0.788900  1.0
  H  H945  1  0.968200  0.354700  0.833300  1.0
  H  H946  1  0.531800  0.865100  0.886500  1.0
  H  H947  1  0.521400  0.386500  0.854700  1.0
  H  H948  1  0.978600  0.333300  0.365100  1.0
  H  H949  1  0.031800  0.645300  0.166700  1.0
  H  H950  1  0.468200  0.134900  0.113500  1.0
  H  H951  1  0.478600  0.613500  0.145300  1.0
  H  H952  1  0.021400  0.666700  0.634900  1.0
  H  H953  1  0.859000  0.348800  0.788600  1.0
  H  H954  1  0.641000  0.929600  0.989800  1.0
  H  H955  1  0.560200  0.489800  0.848800  1.0
  H  H956  1  0.939800  0.288600  0.429600  1.0
  H  H957  1  0.141000  0.651200  0.211400  1.0
  H  H958  1  0.359000  0.070400  0.010200  1.0
  H  H959  1  0.439800  0.510200  0.151200  1.0
  H  H960  1  0.060200  0.711400  0.570400  1.0
  H  H961  1  0.835000  0.318900  0.613300  1.0
  H  H962  1  0.665000  0.778300  0.983900  1.0
  H  H963  1  0.705600  0.483900  0.818900  1.0
  H  H964  1  0.794400  0.113300  0.278300  1.0
  H  H965  1  0.165000  0.681100  0.386700  1.0
  H  H966  1  0.335000  0.221700  0.016100  1.0
  H  H967  1  0.294400  0.516100  0.181100  1.0
  H  H968  1  0.205600  0.886700  0.721700  1.0
  H  H969  1  0.221100  0.313300  0.187800  1.0
  H  H970  1  0.278900  0.966700  0.592200  1.0
  H  H971  1  0.125500  0.092200  0.813300  1.0
  H  H972  1  0.374500  0.687800  0.466700  1.0
  H  H973  1  0.778900  0.686700  0.812200  1.0
  H  H974  1  0.721100  0.033300  0.407800  1.0
  H  H975  1  0.874500  0.907800  0.186700  1.0
  H  H976  1  0.625500  0.312200  0.533300  1.0
  H  H977  1  0.192400  0.241100  0.140100  1.0
  H  H978  1  0.307600  0.947700  0.548700  1.0
  H  H979  1  0.101000  0.048700  0.741100  1.0
  H  H980  1  0.399000  0.640100  0.447700  1.0
  H  H981  1  0.807600  0.758900  0.859900  1.0
  H  H982  1  0.692400  0.052300  0.451300  1.0
  H  H983  1  0.899000  0.951300  0.258900  1.0
  H  H984  1  0.601000  0.359900  0.552300  1.0
  H  H985  1  0.180500  0.291700  0.109000  1.0
  H  H986  1  0.319500  0.928500  0.611200  1.0
  H  H987  1  0.182700  0.111200  0.791700  1.0
  H  H988  1  0.317300  0.609000  0.428500  1.0
  H  H989  1  0.819500  0.708300  0.891000  1.0
  H  H990  1  0.680500  0.071500  0.388800  1.0
  H  H991  1  0.817300  0.888800  0.208300  1.0
  H  H992  1  0.682700  0.391000  0.571500  1.0
  H  H993  1  0.323800  0.295400  0.102400  1.0
  H  H994  1  0.176200  0.778600  0.471600  1.0
  H  H995  1  0.193000  0.971600  0.795400  1.0
  H  H996  1  0.307000  0.602400  0.278600  1.0
  H  H997  1  0.676200  0.704600  0.897600  1.0
  H  H998  1  0.823800  0.221400  0.528400  1.0
  H  H999  1  0.807000  0.028400  0.204600  1.0
  H  H1000  1  0.693000  0.397600  0.721400  1.0
  H  H1001  1  0.236900  0.254900  0.059200  1.0
  H  H1002  1  0.263100  0.822300  0.518000  1.0
  H  H1003  1  0.195700  0.018000  0.754900  1.0
  H  H1004  1  0.304300  0.559200  0.322300  1.0
  H  H1005  1  0.763100  0.745100  0.940800  1.0
  H  H1006  1  0.736900  0.177700  0.482000  1.0
  H  H1007  1  0.804300  0.982000  0.245100  1.0
  H  H1008  1  0.695700  0.440800  0.677700  1.0
  H  H1009  1  0.277800  0.232800  0.113400  1.0
  H  H1010  1  0.222200  0.835600  0.455000  1.0
  H  H1011  1  0.119400  0.955000  0.732800  1.0
  H  H1012  1  0.380600  0.613400  0.335600  1.0
  H  H1013  1  0.722200  0.767200  0.886600  1.0
  H  H1014  1  0.777800  0.164400  0.545000  1.0
  H  H1015  1  0.880600  0.045000  0.267200  1.0
  H  H1016  1  0.619400  0.386600  0.664400  1.0
  H  H1017  1  0.319300  0.283300  0.231000  1.0
  H  H1018  1  0.180700  0.911700  0.464000  1.0
  H  H1019  1  0.052300  0.964000  0.783300  1.0
  H  H1020  1  0.447700  0.731000  0.411700  1.0
  H  H1021  1  0.680700  0.716700  0.769000  1.0
  H  H1022  1  0.819300  0.088300  0.536000  1.0
  H  H1023  1  0.947700  0.036000  0.216700  1.0
  H  H1024  1  0.552300  0.269000  0.588300  1.0
  H  H1025  1  0.382700  0.327500  0.221000  1.0
  H  H1026  1  0.117300  0.838300  0.444800  1.0
  H  H1027  1  0.106500  0.944800  0.827500  1.0
  H  H1028  1  0.393500  0.721000  0.338300  1.0
  H  H1029  1  0.617300  0.672500  0.779000  1.0
  H  H1030  1  0.882700  0.161700  0.555200  1.0
  H  H1031  1  0.893500  0.055200  0.172500  1.0
  H  H1032  1  0.606500  0.279000  0.661700  1.0
  H  H1033  1  0.325000  0.378000  0.279400  1.0
  H  H1034  1  0.175000  0.954400  0.553000  1.0
  H  H1035  1  0.098600  0.053000  0.878000  1.0
  H  H1036  1  0.401400  0.779400  0.454400  1.0
  H  H1037  1  0.675000  0.622000  0.720600  1.0
  H  H1038  1  0.825000  0.045600  0.447000  1.0
  H  H1039  1  0.901400  0.947000  0.122000  1.0
  H  H1040  1  0.598600  0.220600  0.545600  1.0
  H  H1041  1  0.404200  0.389500  0.319100  1.0
  H  H1042  1  0.095800  0.914900  0.485300  1.0
  H  H1043  1  0.070400  0.985300  0.889500  1.0
  H  H1044  1  0.429600  0.819100  0.414900  1.0
  H  H1045  1  0.595800  0.610500  0.680900  1.0
  H  H1046  1  0.904200  0.085100  0.514700  1.0
  H  H1047  1  0.929600  0.014700  0.110500  1.0
  H  H1048  1  0.570400  0.180900  0.585100  1.0
  H  H1049  1  0.489400  0.505800  0.270600  1.0
  H  H1050  1  0.010600  0.781200  0.516400  1.0
  H  H1051  1  0.235200  0.016400  0.005800  1.0
  H  H1052  1  0.264800  0.770600  0.281200  1.0
  H  H1053  1  0.510600  0.494200  0.729400  1.0
  H  H1054  1  0.989400  0.218800  0.483600  1.0
  H  H1055  1  0.764800  0.983600  0.994200  1.0
  H  H1056  1  0.735200  0.229400  0.718800  1.0
  H  H1057  1  0.465400  0.430800  0.237200  1.0
  H  H1058  1  0.034600  0.771800  0.465400  1.0
  H  H1059  1  0.193600  0.965400  0.930800  1.0
  H  H1060  1  0.306400  0.737200  0.271800  1.0
  H  H1061  1  0.534600  0.569200  0.762800  1.0
  H  H1062  1  0.965400  0.228200  0.534600  1.0
  H  H1063  1  0.806400  0.034600  0.069200  1.0
  H  H1064  1  0.693600  0.262800  0.728200  1.0
  H  H1065  1  0.500300  0.464600  0.315300  1.0
  H  H1066  1  0.999700  0.815000  0.464300  1.0
  H  H1067  1  0.149300  0.964300  0.964600  1.0
  H  H1068  1  0.350700  0.815300  0.315000  1.0
  H  H1069  1  0.499700  0.535400  0.684700  1.0
  H  H1070  1  0.000300  0.185000  0.535700  1.0
  H  H1071  1  0.850700  0.035700  0.035400  1.0
  H  H1072  1  0.649300  0.184700  0.685000  1.0
  H  H1073  1  0.424233  0.536833  0.294400  1.0
  H  H1074  1  0.075767  0.870167  0.612600  1.0
  H  H1075  1  0.242433  0.112600  0.036833  1.0
  H  H1076  1  0.257567  0.794400  0.370167  1.0
  H  H1077  1  0.575767  0.463167  0.705600  1.0
  H  H1078  1  0.924233  0.129833  0.387400  1.0
  H  H1079  1  0.757567  0.887400  0.963167  1.0
  H  H1080  1  0.742433  0.205600  0.629833  1.0
  H  H1081  1  0.437900  0.509300  0.351600  1.0
  H  H1082  1  0.062100  0.913700  0.571400  1.0
  H  H1083  1  0.157700  0.071400  0.009300  1.0
  H  H1084  1  0.342300  0.851600  0.413700  1.0
  H  H1085  1  0.562100  0.490700  0.648400  1.0
  H  H1086  1  0.937900  0.086300  0.428600  1.0
  H  H1087  1  0.842300  0.928600  0.990700  1.0
  H  H1088  1  0.657700  0.148400  0.586300  1.0
  H  H1089  1  0.357400  0.487700  0.297700  1.0
  H  H1090  1  0.142600  0.940300  0.630300  1.0
  H  H1091  1  0.190000  0.130300  0.987700  1.0
  H  H1092  1  0.310000  0.797700  0.440300  1.0
  H  H1093  1  0.642600  0.512300  0.702300  1.0
  H  H1094  1  0.857400  0.059700  0.369700  1.0
  H  H1095  1  0.810000  0.869700  0.012300  1.0
  H  H1096  1  0.690000  0.202300  0.559700  1.0
  H  H1097  1  0.117300  0.197700  0.552800  1.0
  H  H1098  1  0.382700  0.435500  0.580400  1.0
  H  H1099  1  0.644900  0.080400  0.697700  1.0
  H  H1100  1  0.855100  0.052800  0.935500  1.0
  H  H1101  1  0.882700  0.802300  0.447200  1.0
  H  H1102  1  0.617300  0.564500  0.419600  1.0
  H  H1103  1  0.355100  0.919600  0.302300  1.0
  H  H1104  1  0.144900  0.947200  0.064500  1.0
  H  H1105  1  0.104300  0.152200  0.487900  1.0
  H  H1106  1  0.395700  0.383600  0.547900  1.0
  H  H1107  1  0.664300  0.047900  0.652200  1.0
  H  H1108  1  0.835700  0.987900  0.883600  1.0
  H  H1109  1  0.895700  0.847800  0.512100  1.0
  H  H1110  1  0.604300  0.616400  0.452100  1.0
  H  H1111  1  0.335700  0.952100  0.347800  1.0
  H  H1112  1  0.164300  0.012100  0.116400  1.0
  H  H1113  1  0.105800  0.219300  0.491700  1.0
  H  H1114  1  0.394200  0.385900  0.613500  1.0
  H  H1115  1  0.727600  0.113500  0.719300  1.0
  H  H1116  1  0.772400  0.991700  0.885900  1.0
  H  H1117  1  0.894200  0.780700  0.508300  1.0
  H  H1118  1  0.605800  0.614100  0.386500  1.0
  H  H1119  1  0.272400  0.886500  0.280700  1.0
  H  H1120  1  0.227600  0.008300  0.114100  1.0
  H  H1121  1  0.228800  0.221400  0.637800  1.0
  H  H1122  1  0.271200  0.409000  0.492600  1.0
  H  H1123  1  0.583600  0.992600  0.721400  1.0
  H  H1124  1  0.916400  0.137800  0.909000  1.0
  H  H1125  1  0.771200  0.778600  0.362200  1.0
  H  H1126  1  0.728800  0.591000  0.507400  1.0
  H  H1127  1  0.416400  0.007400  0.278600  1.0
  H  H1128  1  0.083600  0.862200  0.091000  1.0
  H  H1129  1  0.295600  0.242000  0.629000  1.0
  H  H1130  1  0.204400  0.333400  0.446400  1.0
  H  H1131  1  0.613000  0.946400  0.742000  1.0
  H  H1132  1  0.887000  0.129000  0.833400  1.0
  H  H1133  1  0.704400  0.758000  0.371000  1.0
  H  H1134  1  0.795600  0.666600  0.553600  1.0
  H  H1135  1  0.387000  0.053600  0.258000  1.0
  H  H1136  1  0.113000  0.871000  0.166600  1.0
  H  H1137  1  0.225400  0.167500  0.587100  1.0
  H  H1138  1  0.274600  0.361700  0.442100  1.0
  H  H1139  1  0.580400  0.942100  0.667500  1.0
  H  H1140  1  0.919600  0.087100  0.861700  1.0
  H  H1141  1  0.774600  0.832500  0.412900  1.0
  H  H1142  1  0.725400  0.638300  0.557900  1.0
  H  H1143  1  0.419600  0.057900  0.332500  1.0
  H  H1144  1  0.080400  0.912900  0.138300  1.0
  H  H1145  1  0.172200  0.201800  0.452000  1.0
  H  H1146  1  0.327800  0.279800  0.529600  1.0
  H  H1147  1  0.749800  0.029600  0.701800  1.0
  H  H1148  1  0.750200  0.952000  0.779800  1.0
  H  H1149  1  0.827800  0.798200  0.548000  1.0
  H  H1150  1  0.672200  0.720200  0.470400  1.0
  H  H1151  1  0.250200  0.970400  0.298200  1.0
  H  H1152  1  0.249800  0.048000  0.220200  1.0
  H  H1153  1  0.225000  0.181800  0.496600  1.0
  H  H1154  1  0.275000  0.271600  0.456800  1.0
  H  H1155  1  0.685200  0.956800  0.681800  1.0
  H  H1156  1  0.814800  0.996600  0.771600  1.0
  H  H1157  1  0.775000  0.818200  0.503400  1.0
  H  H1158  1  0.725000  0.728400  0.543200  1.0
  H  H1159  1  0.314800  0.043200  0.318200  1.0
  H  H1160  1  0.185200  0.003400  0.228400  1.0
  N  N1161  1  0.446600  0.401500  0.080900  1
  N  N1162  1  0.053400  0.634300  0.454900  1
  N  N1163  1  0.320600  0.954900  0.901500  1
  N  N1164  1  0.179400  0.580900  0.134300  1
  N  N1165  1  0.553400  0.598500  0.919100  1
  N  N1166  1  0.946600  0.365700  0.545100  1
  N  N1167  1  0.679400  0.045100  0.098500  1
  N  N1168  1  0.820600  0.419100  0.865700  1
  N  N1169  1  0.214900  0.400100  0.331600  1
  N  N1170  1  0.285100  0.116700  0.685200  1
  N  N1171  1  0.068500  0.185200  0.900100  1
  N  N1172  1  0.431500  0.831600  0.616700  1
  N  N1173  1  0.785100  0.599900  0.668400  1
  N  N1174  1  0.714900  0.883300  0.314800  1
  N  N1175  1  0.931500  0.814800  0.099900  1
  N  N1176  1  0.568500  0.168400  0.383300  1
  N  N1177  1  0.041700  0.220100  0.180800  1
  N  N1178  1  0.458300  0.139100  0.678400  1
  N  N1179  1  0.039300  0.178400  0.720100  1
  N  N1180  1  0.460700  0.680800  0.639100  1
  N  N1181  1  0.958300  0.779900  0.819200  1
  N  N1182  1  0.541700  0.860900  0.321600  1
  N  N1183  1  0.960700  0.821600  0.279900  1
  N  N1184  1  0.539300  0.319200  0.360900  1
  N  N1185  1  0.490900  0.441700  0.115600  1
  N  N1186  1  0.009100  0.624700  0.450800  1
  N  N1187  1  0.326100  0.950800  0.941700  1
  N  N1188  1  0.173900  0.615600  0.124700  1
  N  N1189  1  0.509100  0.558300  0.884400  1
  N  N1190  1  0.990900  0.375300  0.549200  1
  N  N1191  1  0.673900  0.049200  0.058300  1
  N  N1192  1  0.826100  0.384400  0.875300  1
  N  N1193  1  0.594000  0.679100  0.276700  1
  N  N1194  1  0.906000  0.682700  0.585100  1
  N  N1195  1  0.402400  0.085100  0.179100  1
  N  N1196  1  0.097600  0.776700  0.182700  1
  N  N1197  1  0.406000  0.320900  0.723300  1
  N  N1198  1  0.094000  0.317300  0.414900  1
  N  N1199  1  0.597600  0.914900  0.820900  1
  N  N1200  1  0.902400  0.223300  0.817300  1
  N  N1201  1  0.530800  0.709000  0.327400  1
  N  N1202  1  0.969200  0.796600  0.678200  1
  N  N1203  1  0.381600  0.178200  0.209000  1
  N  N1204  1  0.118400  0.827400  0.296600  1
  N  N1205  1  0.469200  0.291000  0.672600  1
  N  N1206  1  0.030800  0.203400  0.321800  1
  N  N1207  1  0.618400  0.821800  0.791000  1
  N  N1208  1  0.881600  0.172600  0.703400  1
  N  N1209  1  0.530600  0.680400  0.355800  1
  N  N1210  1  0.969400  0.825200  0.649800  1
  N  N1211  1  0.324600  0.149800  0.180400  1
  N  N1212  1  0.175400  0.855800  0.325200  1
  N  N1213  1  0.469400  0.319600  0.644200  1
  N  N1214  1  0.030600  0.174800  0.350200  1
  N  N1215  1  0.675400  0.850200  0.819600  1
  N  N1216  1  0.824600  0.144200  0.674800  1
  N  N1217  1  0.135300  0.370300  0.152600  1
  N  N1218  1  0.364700  0.017300  0.735000  1
  N  N1219  1  0.217700  0.235000  0.870300  1
  N  N1220  1  0.282300  0.652600  0.517300  1
  N  N1221  1  0.864700  0.629700  0.847400  1
  N  N1222  1  0.635300  0.982700  0.265000  1
  N  N1223  1  0.782300  0.765000  0.129700  1
  N  N1224  1  0.717700  0.347400  0.482700  1
  N  N1225  1  0.203700  0.418100  0.234800  1
  N  N1226  1  0.296300  0.031100  0.714400  1
  N  N1227  1  0.183300  0.214400  0.918100  1
  N  N1228  1  0.316700  0.734800  0.531100  1
  N  N1229  1  0.796300  0.581900  0.765200  1
  N  N1230  1  0.703700  0.968900  0.285600  1
  N  N1231  1  0.816700  0.785600  0.081900  1
  N  N1232  1  0.683300  0.265200  0.468900  1
  N  N1233  1  0.160000  0.377900  0.186700  1
  N  N1234  1  0.340000  0.026700  0.717900  1
  N  N1235  1  0.191200  0.217900  0.877900  1
  N  N1236  1  0.308800  0.686700  0.526700  1
  N  N1237  1  0.840000  0.622100  0.813300  1
  N  N1238  1  0.660000  0.973300  0.282100  1
  N  N1239  1  0.808800  0.782100  0.122100  1
  N  N1240  1  0.691200  0.313300  0.473300  1
  N  N1241  1  0.988600  0.139400  0.107400  1
  N  N1242  1  0.511400  0.118800  0.650800  1
  N  N1243  1  0.032000  0.150800  0.639400  1
  N  N1244  1  0.468000  0.607400  0.618800  1
  N  N1245  1  0.011400  0.860600  0.892600  1
  N  N1246  1  0.488600  0.881200  0.349200  1
  N  N1247  1  0.968000  0.849200  0.360600  1
  N  N1248  1  0.532000  0.392600  0.381200  1
  N  N1249  1  0.008100  0.181400  0.056700  1
  N  N1250  1  0.491900  0.048600  0.673300  1
  N  N1251  1  0.124700  0.173300  0.681400  1
  N  N1252  1  0.375300  0.556700  0.548600  1
  N  N1253  1  0.991900  0.818600  0.943300  1
  N  N1254  1  0.508100  0.951400  0.326700  1
  N  N1255  1  0.875300  0.826700  0.318600  1
  N  N1256  1  0.624700  0.443300  0.451400  1
  N  N1257  1  0.246400  0.699600  0.933200  1.0
  N  N1258  1  0.253600  0.686800  0.953200  1.0
  N  N1259  1  0.766400  0.453200  0.199600  1.0
  N  N1260  1  0.733600  0.433200  0.186800  1.0
  N  N1261  1  0.753600  0.300400  0.066800  1.0
  N  N1262  1  0.746400  0.313200  0.046800  1.0
  N  N1263  1  0.233600  0.546800  0.800400  1.0
  N  N1264  1  0.266400  0.566800  0.813200  1.0
  N  N1265  1  0.255660  0.383110  0.060930  1.0
  N  N1266  1  0.244340  0.805270  0.627450  1.0
  N  N1267  1  0.322180  0.127450  0.883110  1.0
  N  N1268  1  0.177820  0.560930  0.305270  1.0
  N  N1269  1  0.744340  0.616890  0.939070  1.0
  N  N1270  1  0.755660  0.194730  0.372550  1.0
  N  N1271  1  0.677820  0.872550  0.116890  1.0
  N  N1272  1  0.822180  0.439070  0.694730  1.0
  N  N1273  1  0.205340  0.331220  0.640480  1.0
  N  N1274  1  0.294660  0.435140  0.625880  1.0
  N  N1275  1  0.690740  0.125880  0.831220  1.0
  N  N1276  1  0.809260  0.140480  0.935140  1.0
  N  N1277  1  0.794660  0.668780  0.359520  1.0
  N  N1278  1  0.705340  0.564860  0.374120  1.0
  N  N1279  1  0.309260  0.874120  0.168780  1.0
  N  N1280  1  0.190740  0.859520  0.064860  1.0
  N  N1281  1  0.160980  0.349340  0.823720  1.0
  N  N1282  1  0.339020  0.662740  0.688360  1.0
  N  N1283  1  0.525620  0.188360  0.849340  1.0
  N  N1284  1  0.974380  0.323720  0.162740  1.0
  N  N1285  1  0.839020  0.650660  0.176280  1.0
  N  N1286  1  0.660980  0.337260  0.311640  1.0
  N  N1287  1  0.474380  0.811640  0.150660  1.0
  N  N1288  1  0.025620  0.676280  0.837260  1.0
  N  N1289  1  0.070750  0.350520  0.838070  1.0
  N  N1290  1  0.429250  0.767320  0.779770  1.0
  N  N1291  1  0.512450  0.279770  0.850520  1.0
  N  N1292  1  0.987550  0.338070  0.267320  1.0
  N  N1293  1  0.929250  0.649480  0.161930  1.0
  N  N1294  1  0.570750  0.232680  0.220230  1.0
  N  N1295  1  0.487550  0.720230  0.149480  1.0
  N  N1296  1  0.012450  0.661930  0.732680  1.0
  N  N1297  1  0.057850  0.335980  0.733830  1.0
  N  N1298  1  0.442150  0.675980  0.778130  1.0
  N  N1299  1  0.602150  0.278130  0.835980  1.0
  N  N1300  1  0.897850  0.233830  0.175980  1.0
  N  N1301  1  0.942150  0.664020  0.266170  1.0
  N  N1302  1  0.557850  0.324020  0.221870  1.0
  N  N1303  1  0.397850  0.721870  0.164020  1.0
  N  N1304  1  0.102150  0.766170  0.824020  1.0
  N  N1305  1  0.363890  0.504740  0.166530  1.0
  N  N1306  1  0.136110  0.802640  0.640850  1.0
  N  N1307  1  0.338210  0.140850  0.004740  1.0
  N  N1308  1  0.161790  0.666530  0.302640  1.0
  N  N1309  1  0.636110  0.495260  0.833470  1.0
  N  N1310  1  0.863890  0.197360  0.359150  1.0
  N  N1311  1  0.661790  0.859150  0.995260  1.0
  N  N1312  1  0.838210  0.333470  0.697360  1.0
  N  N1313  1  0.206200  0.235610  0.546810  1.0
  N  N1314  1  0.293800  0.340610  0.529410  1.0
  N  N1315  1  0.688800  0.029410  0.735610  1.0
  N  N1316  1  0.811200  0.046810  0.840610  1.0
  N  N1317  1  0.793800  0.764390  0.453190  1.0
  N  N1318  1  0.706200  0.659390  0.470590  1.0
  N  N1319  1  0.311200  0.970590  0.264390  1.0
  N  N1320  1  0.188800  0.953190  0.159390  1.0
  N  N1321  1  0.282300  0.314100  0.152600  1.0
  N  N1322  1  0.217700  0.870300  0.531800  1.0
  N  N1323  1  0.161500  0.031800  0.814100  1.0
  N  N1324  1  0.338500  0.652600  0.370300  1.0
  N  N1325  1  0.717700  0.685900  0.847400  1.0
  N  N1326  1  0.782300  0.129700  0.468200  1.0
  N  N1327  1  0.838500  0.968200  0.185900  1.0
  N  N1328  1  0.661500  0.347400  0.629700  1.0
  N  N1329  1  0.393600  0.436600  0.258400  1.0
  N  N1330  1  0.106400  0.864800  0.543000  1.0
  N  N1331  1  0.178200  0.043000  0.936600  1.0
  N  N1332  1  0.321800  0.758400  0.364800  1.0
  N  N1333  1  0.606400  0.563400  0.741600  1.0
  N  N1334  1  0.893600  0.135200  0.457000  1.0
  N  N1335  1  0.821800  0.957000  0.063400  1.0
  N  N1336  1  0.678200  0.241600  0.635200  1.0
  O  O1337  1  0.461200  0.416500  0.140100  1
  O  O1338  1  0.038800  0.678900  0.455300  1
  O  O1339  1  0.276400  0.955300  0.916500  1
  O  O1340  1  0.223600  0.640100  0.178900  1
  O  O1341  1  0.538800  0.583500  0.859900  1
  O  O1342  1  0.961200  0.321100  0.544700  1
  O  O1343  1  0.723600  0.044700  0.083500  1
  O  O1344  1  0.776400  0.359900  0.821100  1
  O  O1345  1  0.403900  0.342900  0.032000  1
  O  O1346  1  0.096100  0.628100  0.439000  1
  O  O1347  1  0.310900  0.939000  0.842900  1
  O  O1348  1  0.189100  0.532000  0.128100  1
  O  O1349  1  0.596100  0.657100  0.968000  1
  O  O1350  1  0.903900  0.371900  0.561000  1
  O  O1351  1  0.689100  0.061000  0.157100  1
  O  O1352  1  0.810900  0.468000  0.871900  1
  O  O1353  1  0.463000  0.454300  0.060100  1
  O  O1354  1  0.037000  0.597100  0.491300  1
  O  O1355  1  0.394200  0.991300  0.954300  1
  O  O1356  1  0.105800  0.560100  0.097100  1
  O  O1357  1  0.537000  0.545700  0.939900  1
  O  O1358  1  0.963000  0.402900  0.508700  1
  O  O1359  1  0.605800  0.008700  0.045700  1
  O  O1360  1  0.894200  0.439900  0.902900  1
  O  O1361  1  0.926800  0.347200  0.921600  1
  O  O1362  1  0.573200  0.994800  0.920400  1
  O  O1363  1  0.425600  0.420400  0.847200  1
  O  O1364  1  0.074400  0.421600  0.494800  1
  O  O1365  1  0.073200  0.652800  0.078400  1
  O  O1366  1  0.426800  0.005200  0.079600  1
  O  O1367  1  0.574400  0.579600  0.152800  1
  O  O1368  1  0.925600  0.578400  0.505200  1
  O  O1369  1  0.102700  0.326800  0.470900  1
  O  O1370  1  0.397300  0.368200  0.724100  1
  O  O1371  1  0.855900  0.224100  0.826800  1
  O  O1372  1  0.644100  0.970900  0.868200  1
  O  O1373  1  0.897300  0.673200  0.529100  1
  O  O1374  1  0.602700  0.631800  0.275900  1
  O  O1375  1  0.144100  0.775900  0.173200  1
  O  O1376  1  0.355900  0.029100  0.131800  1
  O  O1377  1  0.203500  0.366600  0.271500  1
  O  O1378  1  0.296500  0.068000  0.663100  1
  O  O1379  1  0.095100  0.163100  0.866600  1
  O  O1380  1  0.404900  0.771500  0.568000  1
  O  O1381  1  0.796500  0.633400  0.728500  1
  O  O1382  1  0.703500  0.932000  0.336900  1
  O  O1383  1  0.904900  0.836900  0.133400  1
  O  O1384  1  0.595100  0.228500  0.432000  1
  O  O1385  1  0.170900  0.362200  0.353300  1
  O  O1386  1  0.329100  0.182400  0.691300  1
  O  O1387  1  0.008900  0.191300  0.862200  1
  O  O1388  1  0.491100  0.853300  0.682400  1
  O  O1389  1  0.829100  0.637800  0.646700  1
  O  O1390  1  0.670900  0.817600  0.308700  1
  O  O1391  1  0.991100  0.808700  0.137800  1
  O  O1392  1  0.508900  0.146700  0.317600  1
  O  O1393  1  0.259200  0.468700  0.367100  1
  O  O1394  1  0.240800  0.107900  0.709500  1
  O  O1395  1  0.101600  0.209500  0.968700  1
  O  O1396  1  0.398400  0.867100  0.607900  1
  O  O1397  1  0.740800  0.531300  0.632900  1
  O  O1398  1  0.759200  0.892100  0.290500  1
  O  O1399  1  0.898400  0.790500  0.031300  1
  O  O1400  1  0.601600  0.132900  0.392100  1
  O  O1401  1  0.497700  0.737600  0.331300  1
  O  O1402  1  0.002300  0.833600  0.739900  1
  O  O1403  1  0.406300  0.239900  0.237600  1
  O  O1404  1  0.093700  0.831300  0.333600  1
  O  O1405  1  0.502300  0.262400  0.668700  1
  O  O1406  1  0.997700  0.166400  0.260100  1
  O  O1407  1  0.593700  0.760100  0.762400  1
  O  O1408  1  0.906300  0.168700  0.666400  1
  O  O1409  1  0.985600  0.148600  0.148200  1
  O  O1410  1  0.514400  0.162600  0.663000  1
  O  O1411  1  0.000400  0.163000  0.648600  1
  O  O1412  1  0.499600  0.648200  0.662600  1
  O  O1413  1  0.014400  0.851400  0.851800  1
  O  O1414  1  0.485600  0.837400  0.337000  1
  O  O1415  1  0.999600  0.837000  0.351400  1
  O  O1416  1  0.500400  0.351800  0.337400  1
  O  O1417  1  0.072300  0.250800  0.148500  1
  O  O1418  1  0.427700  0.076200  0.678500  1
  O  O1419  1  0.102300  0.178500  0.750800  1
  O  O1420  1  0.397700  0.648500  0.576200  1
  O  O1421  1  0.927700  0.749200  0.851500  1
  O  O1422  1  0.572300  0.923800  0.321500  1
  O  O1423  1  0.897700  0.821500  0.249200  1
  O  O1424  1  0.602300  0.351500  0.423800  1
  O  O1425  1  0.060500  0.255300  0.244800  1
  O  O1426  1  0.439500  0.184300  0.694800  1
  O  O1427  1  0.010500  0.194800  0.755300  1
  O  O1428  1  0.489500  0.744800  0.684300  1
  O  O1429  1  0.939500  0.744700  0.755200  1
  O  O1430  1  0.560500  0.815700  0.305200  1
  O  O1431  1  0.989500  0.805200  0.244700  1
  O  O1432  1  0.510500  0.255200  0.315700  1
  O  O1433  1  0.101900  0.060200  0.611500  1
  O  O1434  1  0.398100  0.509600  0.458300  1
  O  O1435  1  0.448700  0.958300  0.560200  1
  O  O1436  1  0.051300  0.111500  0.009600  1
  O  O1437  1  0.898100  0.939800  0.388500  1
  O  O1438  1  0.601900  0.490400  0.541700  1
  O  O1439  1  0.551300  0.041700  0.439800  1
  O  O1440  1  0.948700  0.888500  0.990400  1
  O  O1441  1  0.411000  0.086800  0.489800  1
  O  O1442  1  0.089000  0.078800  0.175800  1
  O  O1443  1  0.597000  0.675800  0.586800  1
  O  O1444  1  0.903000  0.989800  0.578800  1
  O  O1445  1  0.589000  0.913200  0.510200  1
  O  O1446  1  0.911000  0.921200  0.824200  1
  O  O1447  1  0.403000  0.324200  0.413200  1
  O  O1448  1  0.097000  0.010200  0.421200  1
  O  O1449  1  0.064400  0.408500  0.045700  1
  O  O1450  1  0.435600  0.981300  0.844100  1
  O  O1451  1  0.362800  0.344100  0.908500  1
  O  O1452  1  0.137200  0.545700  0.481300  1
  O  O1453  1  0.935600  0.591500  0.954300  1
  O  O1454  1  0.564400  0.018700  0.155900  1
  O  O1455  1  0.637200  0.655900  0.091500  1
  O  O1456  1  0.862800  0.454300  0.518700  1
  O  O1457  1  0.250000  0.125000  0.375000  1
  O  O1458  1  0.750000  0.875000  0.625000  1
  O  O1459  1  0.188200  0.051100  0.501500  1
  O  O1460  1  0.311800  0.313300  0.362900  1
  O  O1461  1  0.549600  0.862900  0.551100  1
  O  O1462  1  0.950400  0.001500  0.813300  1
  O  O1463  1  0.811800  0.948900  0.498500  1
  O  O1464  1  0.688200  0.686700  0.637100  1
  O  O1465  1  0.450400  0.137100  0.448900  1
  O  O1466  1  0.049600  0.998500  0.186700  1
  O  O1467  1  0.544400  0.506300  0.166700  1
  O  O1468  1  0.955600  0.622300  0.461900  1
  O  O1469  1  0.339600  0.961900  0.006300  1
  O  O1470  1  0.160400  0.666700  0.122300  1
  O  O1471  1  0.455600  0.493700  0.833300  1
  O  O1472  1  0.044400  0.377700  0.538100  1
  O  O1473  1  0.660400  0.038100  0.993700  1
  O  O1474  1  0.839600  0.333300  0.877700  1
  O  O1475  1  0.439000  0.392300  0.119900  1
  O  O1476  1  0.061000  0.680900  0.453300  1
  O  O1477  1  0.272400  0.953300  0.892300  1
  O  O1478  1  0.227600  0.619900  0.180900  1
  O  O1479  1  0.561000  0.607700  0.880100  1
  O  O1480  1  0.939000  0.319100  0.546700  1
  O  O1481  1  0.727600  0.046700  0.107700  1
  O  O1482  1  0.772400  0.380100  0.819100  1
  O  O1483  1  0.491900  0.426700  0.056800  1
  O  O1484  1  0.008100  0.564900  0.434800  1
  O  O1485  1  0.369900  0.934800  0.926700  1
  O  O1486  1  0.130100  0.556800  0.064900  1
  O  O1487  1  0.508100  0.573300  0.943200  1
  O  O1488  1  0.991900  0.435100  0.565200  1
  O  O1489  1  0.630100  0.065200  0.073300  1
  O  O1490  1  0.869900  0.443200  0.935100  1
  O  O1491  1  0.975000  0.324000  0.933000  1
  O  O1492  1  0.525000  0.958000  0.849000  1
  O  O1493  1  0.391000  0.349000  0.824000  1
  O  O1494  1  0.109000  0.433000  0.458000  1
  O  O1495  1  0.025000  0.676000  0.067000  1
  O  O1496  1  0.475000  0.042000  0.151000  1
  O  O1497  1  0.609000  0.651000  0.176000  1
  O  O1498  1  0.891000  0.567000  0.542000  1
  O  O1499  1  0.628100  0.701800  0.241700  1
  O  O1500  1  0.871900  0.613600  0.573700  1
  O  O1501  1  0.460100  0.073700  0.201800  1
  O  O1502  1  0.039900  0.741700  0.113600  1
  O  O1503  1  0.371900  0.298200  0.758300  1
  O  O1504  1  0.128100  0.386400  0.426300  1
  O  O1505  1  0.539900  0.926300  0.798200  1
  O  O1506  1  0.960100  0.258300  0.886400  1
  O  O1507  1  0.590800  0.624000  0.291000  1
  O  O1508  1  0.909200  0.700200  0.533200  1
  O  O1509  1  0.333000  0.033200  0.124000  1
  O  O1510  1  0.167000  0.791000  0.200200  1
  O  O1511  1  0.409200  0.376000  0.709000  1
  O  O1512  1  0.090800  0.299800  0.466800  1
  O  O1513  1  0.667000  0.966800  0.876000  1
  O  O1514  1  0.833000  0.209000  0.799800  1
  O  O1515  1  0.566000  0.713500  0.296300  1
  O  O1516  1  0.934000  0.730300  0.647500  1
  O  O1517  1  0.417200  0.147500  0.213500  1
  O  O1518  1  0.082800  0.796300  0.230300  1
  O  O1519  1  0.434000  0.286500  0.703700  1
  O  O1520  1  0.066000  0.269700  0.352500  1
  O  O1521  1  0.582800  0.852500  0.786500  1
  O  O1522  1  0.917200  0.203700  0.769700  1
  O  O1523  1  0.511300  0.654800  0.337100  1
  O  O1524  1  0.988700  0.825800  0.643500  1
  O  O1525  1  0.317700  0.143500  0.154800  1
  O  O1526  1  0.182300  0.837100  0.325800  1
  O  O1527  1  0.488700  0.345200  0.662900  1
  O  O1528  1  0.011300  0.174200  0.356500  1
  O  O1529  1  0.682300  0.856500  0.845200  1
  O  O1530  1  0.817700  0.162900  0.674200  1
  O  O1531  1  0.039000  0.263400  0.020000  1
  O  O1532  1  0.461000  0.981000  0.724400  1
  O  O1533  1  0.243400  0.224400  0.763400  1
  O  O1534  1  0.256600  0.520000  0.481000  1
  O  O1535  1  0.961000  0.736600  0.980000  1
  O  O1536  1  0.539000  0.019000  0.275600  1
  O  O1537  1  0.756600  0.775600  0.236600  1
  O  O1538  1  0.743400  0.480000  0.519000  1
  O  O1539  1  0.522700  0.736500  0.376000  1
  O  O1540  1  0.977300  0.853300  0.713800  1
  O  O1541  1  0.360500  0.213800  0.236500  1
  O  O1542  1  0.139500  0.876000  0.353300  1
  O  O1543  1  0.477300  0.263500  0.624000  1
  O  O1544  1  0.022700  0.146700  0.286200  1
  O  O1545  1  0.639500  0.786200  0.763500  1
  O  O1546  1  0.860500  0.124000  0.646700  1
  O  O1547  1  0.521100  0.645100  0.314400  1
  O  O1548  1  0.978900  0.793300  0.624000  1
  O  O1549  1  0.330700  0.124000  0.145100  1
  O  O1550  1  0.169300  0.814400  0.293300  1
  O  O1551  1  0.478900  0.354900  0.685600  1
  O  O1552  1  0.021100  0.206700  0.376000  1
  O  O1553  1  0.669300  0.876000  0.854900  1
  O  O1554  1  0.830700  0.185600  0.706700  1
  O  O1555  1  0.558100  0.743800  0.294500  1
  O  O1556  1  0.941900  0.736400  0.685700  1
  O  O1557  1  0.449300  0.185700  0.243800  1
  O  O1558  1  0.050700  0.794500  0.236400  1
  O  O1559  1  0.441900  0.256200  0.705500  1
  O  O1560  1  0.058100  0.263600  0.314300  1
  O  O1561  1  0.550700  0.814300  0.756200  1
  O  O1562  1  0.949300  0.205500  0.763600  1
  O  O1563  1  0.531400  0.675500  0.454300  1
  O  O1564  1  0.968600  0.922900  0.644100  1
  O  O1565  1  0.221200  0.144100  0.175500  1
  O  O1566  1  0.278800  0.954300  0.422900  1
  O  O1567  1  0.468600  0.324500  0.545700  1
  O  O1568  1  0.031400  0.077100  0.355900  1
  O  O1569  1  0.778800  0.855900  0.824500  1
  O  O1570  1  0.721200  0.045700  0.577100  1
  O  O1571  1  0.543600  0.709400  0.418000  1
  O  O1572  1  0.956400  0.874400  0.665800  1
  O  O1573  1  0.291400  0.165800  0.209400  1
  O  O1574  1  0.208600  0.918000  0.374400  1
  O  O1575  1  0.456400  0.290600  0.582000  1
  O  O1576  1  0.043600  0.125600  0.334200  1
  O  O1577  1  0.708600  0.834200  0.790600  1
  O  O1578  1  0.791400  0.082000  0.625600  1
  O  O1579  1  0.480700  0.611300  0.322800  1
  O  O1580  1  0.019300  0.842100  0.630600  1
  O  O1581  1  0.288500  0.130600  0.111300  1
  O  O1582  1  0.211500  0.822800  0.342100  1
  O  O1583  1  0.519300  0.388700  0.677200  1
  O  O1584  1  0.980700  0.157900  0.369400  1
  O  O1585  1  0.711500  0.869400  0.888700  1
  O  O1586  1  0.788500  0.177200  0.657900  1
  O  O1587  1  0.561700  0.714200  0.325100  1
  O  O1588  1  0.938300  0.763400  0.652500  1
  O  O1589  1  0.389100  0.152500  0.214200  1
  O  O1590  1  0.110900  0.825100  0.263400  1
  O  O1591  1  0.438300  0.285800  0.674900  1
  O  O1592  1  0.061700  0.236600  0.347500  1
  O  O1593  1  0.610900  0.847500  0.785800  1
  O  O1594  1  0.889100  0.174900  0.736600  1
  O  O1595  1  0.344700  0.978300  0.464200  1
  O  O1596  1  0.155300  0.119500  0.133600  1
  O  O1597  1  0.514100  0.633600  0.478300  1
  O  O1598  1  0.985900  0.964200  0.619500  1
  O  O1599  1  0.655300  0.021700  0.535800  1
  O  O1600  1  0.844700  0.880500  0.866400  1
  O  O1601  1  0.485900  0.366400  0.521700  1
  O  O1602  1  0.014100  0.035800  0.380500  1
  O  O1603  1  0.209500  0.419900  0.188400  1
  O  O1604  1  0.290500  0.978900  0.710400  1
  O  O1605  1  0.231500  0.210400  0.919900  1
  O  O1606  1  0.268500  0.688400  0.478900  1
  O  O1607  1  0.790500  0.580100  0.811600  1
  O  O1608  1  0.709500  0.021100  0.289600  1
  O  O1609  1  0.768500  0.789600  0.080100  1
  O  O1610  1  0.731500  0.311600  0.521100  1
  O  O1611  1  0.110400  0.325200  0.179200  1
  O  O1612  1  0.389600  0.068800  0.714800  1
  O  O1613  1  0.146000  0.214800  0.825200  1
  O  O1614  1  0.354000  0.679200  0.568800  1
  O  O1615  1  0.889600  0.674800  0.820800  1
  O  O1616  1  0.610400  0.931200  0.285200  1
  O  O1617  1  0.854000  0.785200  0.174800  1
  O  O1618  1  0.646000  0.320800  0.431200  1
  O  O1619  1  0.085700  0.365700  0.090400  1
  O  O1620  1  0.414300  0.004700  0.780000  1
  O  O1621  1  0.275300  0.280000  0.865700  1
  O  O1622  1  0.224700  0.590400  0.504700  1
  O  O1623  1  0.914300  0.634300  0.909600  1
  O  O1624  1  0.585700  0.995300  0.220000  1
  O  O1625  1  0.724700  0.720000  0.134300  1
  O  O1626  1  0.775300  0.409600  0.495300  1
  O  O1627  1  0.198000  0.427300  0.177700  1
  O  O1628  1  0.302000  0.979700  0.729300  1
  O  O1629  1  0.249600  0.229300  0.927300  1
  O  O1630  1  0.250400  0.677700  0.479700  1
  O  O1631  1  0.802000  0.572700  0.822300  1
  O  O1632  1  0.698000  0.020300  0.270700  1
  O  O1633  1  0.750400  0.770700  0.072700  1
  O  O1634  1  0.749600  0.322300  0.520300  1
  O  O1635  1  0.251900  0.465600  0.299700  1
  O  O1636  1  0.248100  0.047800  0.713700  1
  O  O1637  1  0.165900  0.213700  0.965600  1
  O  O1638  1  0.334100  0.799700  0.547800  1
  O  O1639  1  0.748100  0.534400  0.700300  1
  O  O1640  1  0.751900  0.952200  0.286300  1
  O  O1641  1  0.834100  0.786300  0.034400  1
  O  O1642  1  0.665900  0.200300  0.452200  1
  O  O1643  1  0.150400  0.353900  0.221700  1
  O  O1644  1  0.349600  0.071300  0.703500  1
  O  O1645  1  0.132200  0.203500  0.853900  1
  O  O1646  1  0.367800  0.721700  0.571300  1
  O  O1647  1  0.849600  0.646100  0.778300  1
  O  O1648  1  0.650400  0.928700  0.296500  1
  O  O1649  1  0.867800  0.796500  0.146100  1
  O  O1650  1  0.632200  0.278300  0.428700  1
  O  O1651  1  0.073700  0.318000  0.079700  1
  O  O1652  1  0.426300  0.006000  0.744300  1
  O  O1653  1  0.238300  0.244300  0.818000  1
  O  O1654  1  0.261700  0.579700  0.506000  1
  O  O1655  1  0.926300  0.682000  0.920300  1
  O  O1656  1  0.573700  0.994000  0.255700  1
  O  O1657  1  0.761700  0.755700  0.182000  1
  O  O1658  1  0.738300  0.420300  0.494000  1
  O  O1659  1  0.110900  0.295900  0.272000  1
  O  O1660  1  0.389100  0.161100  0.685000  1
  O  O1661  1  0.023900  0.185000  0.795900  1
  O  O1662  1  0.476100  0.772000  0.661100  1
  O  O1663  1  0.889100  0.704100  0.728000  1
  O  O1664  1  0.610900  0.838900  0.315000  1
  O  O1665  1  0.976100  0.815000  0.204100  1
  O  O1666  1  0.523900  0.228000  0.338900  1
  O  O1667  1  0.101300  0.345200  0.120100  1
  O  O1668  1  0.398700  0.018800  0.743900  1
  O  O1669  1  0.225100  0.243900  0.845200  1
  O  O1670  1  0.274900  0.620100  0.518800  1
  O  O1671  1  0.898700  0.654800  0.879900  1
  O  O1672  1  0.601300  0.981200  0.256100  1
  O  O1673  1  0.774900  0.756100  0.154800  1
  O  O1674  1  0.725100  0.379900  0.481200  1
  O  O1675  1  0.228900  0.436800  0.213900  1
  O  O1676  1  0.271100  0.985000  0.707900  1
  O  O1677  1  0.222900  0.207900  0.936800  1
  O  O1678  1  0.277100  0.713900  0.485000  1
  O  O1679  1  0.771100  0.563200  0.786100  1
  O  O1680  1  0.728900  0.015000  0.292100  1
  O  O1681  1  0.777100  0.792100  0.063200  1
  O  O1682  1  0.722900  0.286100  0.515000  1
  O  O1683  1  0.031200  0.231700  0.991300  1
  O  O1684  1  0.468800  0.960100  0.700500  1
  O  O1685  1  0.240400  0.200500  0.731700  1
  O  O1686  1  0.259600  0.491300  0.460100  1
  O  O1687  1  0.968800  0.768300  0.008700  1
  O  O1688  1  0.531200  0.039900  0.299500  1
  O  O1689  1  0.759600  0.799500  0.268300  1
  O  O1690  1  0.740400  0.508700  0.539900  1
  O  O1691  1  0.026400  0.203200  0.163400  1
  O  O1692  1  0.473600  0.137000  0.676800  1
  O  O1693  1  0.039800  0.176800  0.703200  1
  O  O1694  1  0.460200  0.663400  0.637000  1
  O  O1695  1  0.973600  0.796800  0.836600  1
  O  O1696  1  0.526400  0.863000  0.323200  1
  O  O1697  1  0.960200  0.823200  0.296800  1
  O  O1698  1  0.539800  0.336600  0.363000  1
  O  O1699  1  0.976700  0.148100  0.044600  1
  O  O1700  1  0.523300  0.067900  0.671400  1
  O  O1701  1  0.103500  0.171400  0.648100  1
  O  O1702  1  0.396500  0.544600  0.567900  1
  O  O1703  1  0.023300  0.851900  0.955400  1
  O  O1704  1  0.476700  0.932100  0.328600  1
  O  O1705  1  0.896500  0.828600  0.351900  1
  O  O1706  1  0.603500  0.455400  0.432100  1
  O  O1707  1  0.968000  0.114600  0.048400  1
  O  O1708  1  0.532000  0.080400  0.646600  1
  O  O1709  1  0.066200  0.146600  0.614600  1
  O  O1710  1  0.433800  0.548400  0.580400  1
  O  O1711  1  0.032000  0.885400  0.951600  1
  O  O1712  1  0.468000  0.919600  0.353400  1
  O  O1713  1  0.933800  0.853400  0.385400  1
  O  O1714  1  0.566200  0.451600  0.419600  1
  O  O1715  1  0.044000  0.231300  0.121900  1
  O  O1716  1  0.456000  0.077900  0.687300  1
  O  O1717  1  0.109400  0.187300  0.731300  1
  O  O1718  1  0.390600  0.621900  0.577900  1
  O  O1719  1  0.956000  0.768700  0.878100  1
  O  O1720  1  0.544000  0.922100  0.312700  1
  O  O1721  1  0.890600  0.812700  0.268700  1
  O  O1722  1  0.609400  0.378100  0.422100  1
  O  O1723  1  0.015900  0.198500  0.007000  1
  O  O1724  1  0.484100  0.991100  0.682600  1
  O  O1725  1  0.191500  0.182600  0.698500  1
  O  O1726  1  0.308500  0.507000  0.491100  1
  O  O1727  1  0.984100  0.801500  0.993000  1
  O  O1728  1  0.515900  0.008900  0.317400  1
  O  O1729  1  0.808500  0.817400  0.301500  1
  O  O1730  1  0.691500  0.493000  0.508900  1
  O  O1731  1  0.108300  0.029600  0.505900  1
  O  O1732  1  0.391700  0.397600  0.421300  1
  O  O1733  1  0.523700  0.921300  0.529600  1
  O  O1734  1  0.976300  0.005900  0.897600  1
  O  O1735  1  0.891700  0.970400  0.494100  1
  O  O1736  1  0.608300  0.602400  0.578700  1
  O  O1737  1  0.476300  0.078700  0.470400  1
  O  O1738  1  0.023700  0.994100  0.102400  1
  O  O1739  1  0.022600  0.410400  0.053000  1
  O  O1740  1  0.477400  0.030400  0.887800  1
  O  O1741  1  0.357400  0.387800  0.910400  1
  O  O1742  1  0.142600  0.553000  0.530400  1
  O  O1743  1  0.977400  0.589600  0.947000  1
  O  O1744  1  0.522600  0.969600  0.112200  1
  O  O1745  1  0.642600  0.612200  0.089600  1
  O  O1746  1  0.857400  0.447000  0.469600  1
  O  O1747  1  0.342400  0.168800  0.508600  1
  O  O1748  1  0.157600  0.166200  0.326400  1
  O  O1749  1  0.660200  0.826400  0.668800  1
  O  O1750  1  0.839800  0.008600  0.666200  1
  O  O1751  1  0.657600  0.831200  0.491400  1
  O  O1752  1  0.842400  0.833800  0.673600  1
  O  O1753  1  0.339800  0.173600  0.331200  1
  O  O1754  1  0.160200  0.991400  0.333800  1
  O  O1755  1  0.375800  0.184500  0.488900  1
  O  O1756  1  0.124200  0.113100  0.308700  1
  O  O1757  1  0.695600  0.808700  0.684500  1
  O  O1758  1  0.804400  0.988900  0.613100  1
  O  O1759  1  0.624200  0.815500  0.511100  1
  O  O1760  1  0.875800  0.886900  0.691300  1
  O  O1761  1  0.304400  0.191300  0.315500  1
  O  O1762  1  0.195600  0.011100  0.386900  1
  O  O1763  1  0.352300  0.089300  0.539600  1
  O  O1764  1  0.147700  0.187300  0.237000  1
  O  O1765  1  0.549700  0.737000  0.589300  1
  O  O1766  1  0.950300  0.039600  0.687300  1
  O  O1767  1  0.647700  0.910700  0.460400  1
  O  O1768  1  0.852300  0.812700  0.763000  1
  O  O1769  1  0.450300  0.263000  0.410700  1
  O  O1770  1  0.049700  0.960400  0.312700  1
  O  O1771  1  0.238400  0.067200  0.529600  1
  O  O1772  1  0.261600  0.291200  0.328800  1
  O  O1773  1  0.537600  0.828800  0.567200  1
  O  O1774  1  0.962400  0.029600  0.791200  1
  O  O1775  1  0.761600  0.932800  0.470400  1
  O  O1776  1  0.738400  0.708800  0.671200  1
  O  O1777  1  0.462400  0.171200  0.432800  1
  O  O1778  1  0.037600  0.970400  0.208800  1
  O  O1779  1  0.164300  0.677800  0.859900  1.0
  O  O1780  1  0.335700  0.695600  0.013500  1.0
  O  O1781  1  0.817900  0.513500  0.177800  1.0
  O  O1782  1  0.682100  0.359900  0.195600  1.0
  O  O1783  1  0.835700  0.322200  0.140100  1.0
  O  O1784  1  0.664300  0.304400  0.986500  1.0
  O  O1785  1  0.182100  0.486500  0.822200  1.0
  O  O1786  1  0.317900  0.640100  0.804400  1.0
  O  O1787  1  0.184900  0.735600  0.865300  1.0
  O  O1788  1  0.315100  0.680400  0.050700  1.0
  O  O1789  1  0.870300  0.550700  0.235600  1.0
  O  O1790  1  0.629700  0.365300  0.180400  1.0
  O  O1791  1  0.815100  0.264400  0.134700  1.0
  O  O1792  1  0.684900  0.319600  0.949300  1.0
  O  O1793  1  0.129700  0.449300  0.764400  1.0
  O  O1794  1  0.370300  0.634700  0.819600  1.0
  Pd  Pd1795  1  0.250000  0.335986  0.585986  1.0
  Pd  Pd1796  1  0.750000  0.085986  0.835986  1.0
  Pd  Pd1797  1  0.750000  0.664014  0.414014  1.0
  Pd  Pd1798  1  0.250000  0.914014  0.164014  1.0
  Pd  Pd1799  1  0.322891  0.409606  0.159421  1.0
  Pd  Pd1800  1  0.177109  0.836530  0.586715  1.0
  Pd  Pd1801  1  0.250185  0.086715  0.909606  1.0
  Pd  Pd1802  1  0.249815  0.659421  0.336530  1.0
  Pd  Pd1803  1  0.677109  0.590394  0.840579  1.0
  Pd  Pd1804  1  0.822891  0.163470  0.413285  1.0
  Pd  Pd1805  1  0.749815  0.913285  0.090394  1.0
  Pd  Pd1806  1  0.750185  0.340579  0.663470  1.0
