# generated using pymatgen
data_P12H144Pd6C192S12N24O25F72
_symmetry_space_group_name_H-M   'P 1'
_cell_length_a   47.52700000
_cell_length_b   47.52700000
_cell_length_c   48.04227052
_cell_angle_alpha   119.64583774
_cell_angle_beta   119.64583774
_cell_angle_gamma   90.00000000
_symmetry_Int_Tables_number   1
_chemical_formula_structural   P12H144Pd6C192S12N24O25F72
_chemical_formula_sum   'P48 H576 Pd24 C768 S48 N96 O100 F288'
_cell_volume   77548.53220016
_cell_formula_units_Z   4
loop_
 _symmetry_equiv_pos_site_id
 _symmetry_equiv_pos_as_xyz
  1  'x, y, z'
loop_
 _atom_site_type_symbol
 _atom_site_label
 _atom_site_symmetry_multiplicity
 _atom_site_fract_x
 _atom_site_fract_y
 _atom_site_fract_z
 _atom_site_occupancy
  C  C1  1  0.003260  0.099460  0.630320  1.0
  C  C2  1  0.627060  0.530860  0.630320  1.0
  C  C3  1  0.900540  0.372940  0.369680  1.0
  C  C4  1  0.469140  0.996740  0.369680  1.0
  C  C5  1  0.987900  0.098800  0.598200  1.0
  C  C6  1  0.610300  0.499400  0.598200  1.0
  C  C7  1  0.901200  0.389700  0.401800  1.0
  C  C8  1  0.500600  0.012100  0.401800  1.0
  C  C9  1  0.954010  0.073610  0.568020  1.0
  C  C10  1  0.614010  0.494410  0.568020  1.0
  C  C11  1  0.926390  0.385990  0.431980  1.0
  C  C12  1  0.505590  0.045990  0.431980  1.0
  C  C13  1  0.945010  0.055510  0.577820  1.0
  C  C14  1  0.632810  0.522310  0.577820  1.0
  C  C15  1  0.944490  0.367190  0.422180  1.0
  C  C16  1  0.477690  0.054990  0.422180  1.0
  C  C17  1  0.035940  0.121740  0.663680  1.0
  C  C18  1  0.627740  0.541940  0.663680  1.0
  C  C19  1  0.878260  0.372260  0.336320  1.0
  C  C20  1  0.458060  0.964060  0.336320  1.0
  C  C21  1  0.059400  0.147200  0.672800  1.0
  C  C22  1  0.613400  0.525600  0.672800  1.0
  C  C23  1  0.852800  0.386600  0.327200  1.0
  C  C24  1  0.474400  0.940600  0.327200  1.0
  C  C25  1  0.091100  0.168400  0.707600  1.0
  C  C26  1  0.616500  0.539200  0.707600  1.0
  C  C27  1  0.831600  0.383500  0.292400  1.0
  C  C28  1  0.460800  0.908900  0.292400  1.0
  C  C29  1  0.078830  0.139730  0.731260  1.0
  C  C30  1  0.652430  0.591530  0.731260  1.0
  C  C31  1  0.860270  0.347570  0.268740  1.0
  C  C32  1  0.408470  0.921170  0.268740  1.0
  C  C33  1  0.047900  0.117700  0.694600  1.0
  C  C34  1  0.646700  0.576900  0.694600  1.0
  C  C35  1  0.882300  0.353300  0.305400  1.0
  C  C36  1  0.423100  0.952100  0.305400  1.0
  C  C37  1  0.912860  0.030760  0.553720  1.0
  C  C38  1  0.640860  0.522960  0.553720  1.0
  C  C39  1  0.969240  0.359140  0.446280  1.0
  C  C40  1  0.477040  0.087140  0.446280  1.0
  C  C41  1  0.884850  0.019350  0.517100  1.0
  C  C42  1  0.632250  0.497750  0.517100  1.0
  C  C43  1  0.980650  0.367750  0.482900  1.0
  C  C44  1  0.502250  0.115150  0.482900  1.0
  C  C45  1  0.853300  0.995600  0.496200  1.0
  C  C46  1  0.642900  0.500600  0.496200  1.0
  C  C47  1  0.004400  0.357100  0.503800  1.0
  C  C48  1  0.499400  0.146700  0.503800  1.0
  C  C49  1  0.875600  0.990900  0.550000  1.0
  C  C50  1  0.674400  0.559100  0.550000  1.0
  C  C51  1  0.009100  0.325600  0.450000  1.0
  C  C52  1  0.440900  0.124400  0.450000  1.0
  C  C53  1  0.906800  0.015400  0.569800  1.0
  C  C54  1  0.663000  0.554400  0.569800  1.0
  C  C55  1  0.984600  0.337000  0.430200  1.0
  C  C56  1  0.445600  0.093200  0.430200  1.0
  C  C57  1  0.981300  0.112000  0.549200  1.0
  C  C58  1  0.567900  0.437200  0.549200  1.0
  C  C59  1  0.888000  0.432100  0.450800  1.0
  C  C60  1  0.562800  0.018700  0.450800  1.0
  C  C61  1  0.944100  0.102300  0.532000  1.0
  C  C62  1  0.587900  0.429700  0.532000  1.0
  C  C63  1  0.897700  0.412100  0.468000  1.0
  C  C64  1  0.570300  0.055900  0.468000  1.0
  C  C65  1  0.029200  0.274500  0.786000  1.0
  C  C66  1  0.756800  0.511500  0.786000  1.0
  C  C67  1  0.725500  0.243200  0.214000  1.0
  C  C68  1  0.488500  0.970800  0.214000  1.0
  C  C69  1  0.015380  0.289280  0.767560  1.0
  C  C70  1  0.752180  0.478280  0.767560  1.0
  C  C71  1  0.710720  0.247820  0.232440  1.0
  C  C72  1  0.521720  0.984620  0.232440  1.0
  C  C73  1  0.986500  0.298400  0.768200  1.0
  C  C74  1  0.781700  0.469800  0.768200  1.0
  C  C75  1  0.701600  0.218300  0.231800  1.0
  C  C76  1  0.530200  0.013500  0.231800  1.0
  C  C77  1  0.978800  0.289700  0.786400  1.0
  C  C78  1  0.807600  0.496700  0.786400  1.0
  C  C79  1  0.710300  0.192400  0.213600  1.0
  C  C80  1  0.503300  0.021200  0.213600  1.0
  C  C81  1  0.057100  0.263200  0.789000  1.0
  C  C82  1  0.731900  0.525800  0.789000  1.0
  C  C83  1  0.736800  0.268100  0.211000  1.0
  C  C84  1  0.474200  0.942900  0.211000  1.0
  C  C85  1  0.075100  0.262100  0.773400  1.0
  C  C86  1  0.698300  0.511300  0.773400  1.0
  C  C87  1  0.737900  0.301700  0.226600  1.0
  C  C88  1  0.488700  0.924900  0.226600  1.0
  C  C89  1  0.101300  0.248100  0.776200  1.0
  C  C90  1  0.674900  0.528100  0.776200  1.0
  C  C91  1  0.751900  0.325100  0.223800  1.0
  C  C92  1  0.471900  0.898700  0.223800  1.0
  C  C93  1  0.093400  0.232200  0.812600  1.0
  C  C94  1  0.719200  0.580400  0.812600  1.0
  C  C95  1  0.767800  0.280800  0.187400  1.0
  C  C96  1  0.419600  0.906600  0.187400  1.0
  C  C97  1  0.068100  0.248000  0.810000  1.0
  C  C98  1  0.741900  0.562000  0.810000  1.0
  C  C99  1  0.752000  0.258100  0.190000  1.0
  C  C100  1  0.438000  0.931900  0.190000  1.0
  C  C101  1  0.951320  0.294220  0.789640  1.0
  C  C102  1  0.838320  0.495420  0.789640  1.0
  C  C103  1  0.705780  0.161680  0.210360  1.0
  C  C104  1  0.504580  0.048680  0.210360  1.0
  C  C105  1  0.930600  0.313800  0.783600  1.0
  C  C106  1  0.853000  0.469800  0.783600  1.0
  C  C107  1  0.686200  0.147000  0.216400  1.0
  C  C108  1  0.530200  0.069400  0.216400  1.0
  C  C109  1  0.903400  0.315900  0.787400  1.0
  C  C110  1  0.884000  0.471500  0.787400  1.0
  C  C111  1  0.684100  0.116000  0.212600  1.0
  C  C112  1  0.528500  0.096600  0.212600  1.0
  C  C113  1  0.915400  0.276800  0.805800  1.0
  C  C114  1  0.890400  0.529000  0.805800  1.0
  C  C115  1  0.723200  0.109600  0.194200  1.0
  C  C116  1  0.471000  0.084600  0.194200  1.0
  C  C117  1  0.942200  0.275200  0.800800  1.0
  C  C118  1  0.858600  0.525600  0.800800  1.0
  C  C119  1  0.724800  0.141400  0.199200  1.0
  C  C120  1  0.474400  0.057800  0.199200  1.0
  C  C121  1  0.998400  0.299900  0.714800  1.0
  C  C122  1  0.716400  0.414900  0.714800  1.0
  C  C123  1  0.700100  0.283600  0.285200  1.0
  C  C124  1  0.585100  0.001600  0.285200  1.0
  C  C125  1  0.982700  0.324500  0.730600  1.0
  C  C126  1  0.747900  0.406100  0.730600  1.0
  C  C127  1  0.675500  0.252100  0.269400  1.0
  C  C128  1  0.593900  0.017300  0.269400  1.0
  C  C129  1  0.786470  0.096970  0.577940  1.0
  C  C130  1  0.791470  0.480970  0.577940  1.0
  C  C131  1  0.903030  0.208530  0.422060  1.0
  C  C132  1  0.519030  0.213530  0.422060  1.0
  C  C133  1  0.771630  0.114730  0.564260  1.0
  C  C134  1  0.792630  0.449530  0.564260  1.0
  C  C135  1  0.885270  0.207370  0.435740  1.0
  C  C136  1  0.550470  0.228370  0.435740  1.0
  C  C137  1  0.775690  0.148590  0.593780  1.0
  C  C138  1  0.818090  0.445190  0.593780  1.0
  C  C139  1  0.851410  0.181910  0.406220  1.0
  C  C140  1  0.554810  0.224310  0.406220  1.0
  C  C141  1  0.794030  0.155630  0.629260  1.0
  C  C142  1  0.835230  0.473630  0.629260  1.0
  C  C143  1  0.844370  0.164770  0.370740  1.0
  C  C144  1  0.526370  0.205970  0.370740  1.0
  C  C145  1  0.785980  0.063680  0.555560  1.0
  C  C146  1  0.769580  0.491880  0.555560  1.0
  C  C147  1  0.936320  0.230420  0.444440  1.0
  C  C148  1  0.508120  0.214020  0.444440  1.0
  C  C149  1  0.774910  0.042710  0.517220  1.0
  C  C150  1  0.742310  0.474510  0.517220  1.0
  C  C151  1  0.957290  0.257690  0.482780  1.0
  C  C152  1  0.525490  0.225090  0.482780  1.0
  C  C153  1  0.777600  0.010500  0.498400  1.0
  C  C154  1  0.720800  0.487900  0.498400  1.0
  C  C155  1  0.989500  0.279200  0.501600  1.0
  C  C156  1  0.512100  0.222400  0.501600  1.0
  C  C157  1  0.805300  0.016300  0.558800  1.0
  C  C158  1  0.753500  0.542500  0.558800  1.0
  C  C159  1  0.983700  0.246500  0.441200  1.0
  C  C160  1  0.457500  0.194700  0.441200  1.0
  C  C161  1  0.801100  0.048500  0.576000  1.0
  C  C162  1  0.774900  0.527500  0.576000  1.0
  C  C163  1  0.951500  0.225100  0.424000  1.0
  C  C164  1  0.472500  0.198900  0.424000  1.0
  C  C165  1  0.803030  0.186630  0.663260  1.0
  C  C166  1  0.860230  0.476630  0.663260  1.0
  C  C167  1  0.813370  0.139770  0.336740  1.0
  C  C168  1  0.523370  0.196970  0.336740  1.0
  C  C169  1  0.796800  0.216800  0.669800  1.0
  C  C170  1  0.873000  0.453000  0.669800  1.0
  C  C171  1  0.783200  0.127000  0.330200  1.0
  C  C172  1  0.547000  0.203200  0.330200  1.0
  C  C173  1  0.808000  0.246600  0.705400  1.0
  C  C174  1  0.897400  0.458800  0.705400  1.0
  C  C175  1  0.753400  0.102600  0.294600  1.0
  C  C176  1  0.541200  0.192000  0.294600  1.0
  C  C177  1  0.835470  0.217570  0.734940  1.0
  C  C178  1  0.899470  0.517370  0.734940  1.0
  C  C179  1  0.782430  0.100530  0.265060  1.0
  C  C180  1  0.482630  0.164530  0.265060  1.0
  C  C181  1  0.822780  0.187980  0.697960  1.0
  C  C182  1  0.875180  0.509980  0.697960  1.0
  C  C183  1  0.812020  0.124820  0.302040  1.0
  C  C184  1  0.490020  0.177220  0.302040  1.0
  C  C185  1  0.724400  0.122200  0.513600  1.0
  C  C186  1  0.789200  0.391400  0.513600  1.0
  C  C187  1  0.877800  0.210800  0.486400  1.0
  C  C188  1  0.608600  0.275600  0.486400  1.0
  C  C189  1  0.743400  0.159500  0.539800  1.0
  C  C190  1  0.796400  0.380300  0.539800  1.0
  C  C191  1  0.840500  0.203600  0.460200  1.0
  C  C192  1  0.619700  0.256600  0.460200  1.0
  C  C193  1  0.925560  0.412060  0.963520  1.0
  C  C194  1  0.037960  0.551460  0.963520  1.0
  C  C195  1  0.587940  0.962040  0.036480  1.0
  C  C196  1  0.448540  0.074440  0.036480  1.0
  C  C197  1  0.923970  0.443370  0.978740  1.0
  C  C198  1  0.054770  0.535370  0.978740  1.0
  C  C199  1  0.556630  0.945230  0.021260  1.0
  C  C200  1  0.464630  0.076030  0.021260  1.0
  C  C201  1  0.943610  0.464010  0.020820  1.0
  C  C202  1  0.077210  0.556810  0.020820  1.0
  C  C203  1  0.535990  0.922790  0.979180  1.0
  C  C204  1  0.443190  0.056390  0.979180  1.0
  C  C205  1  0.959680  0.447580  0.036160  1.0
  C  C206  1  0.076480  0.588580  0.036160  1.0
  C  C207  1  0.552420  0.923520  0.963840  1.0
  C  C208  1  0.411420  0.040320  0.963840  1.0
  C  C209  1  0.908740  0.387140  0.923680  1.0
  C  C210  1  0.014940  0.536540  0.923680  1.0
  C  C211  1  0.612860  0.985060  0.076320  1.0
  C  C212  1  0.463460  0.091260  0.076320  1.0
  C  C213  1  0.892300  0.389400  0.892200  1.0
  C  C214  1  0.999900  0.502800  0.892200  1.0
  C  C215  1  0.610600  0.000100  0.107800  1.0
  C  C216  1  0.497200  0.107700  0.107800  1.0
  C  C217  1  0.875050  0.362450  0.853300  1.0
  C  C218  1  0.978250  0.490850  0.853300  1.0
  C  C219  1  0.637550  0.021750  0.146700  1.0
  C  C220  1  0.509150  0.124950  0.146700  1.0
  C  C221  1  0.889900  0.325200  0.874400  1.0
  C  C222  1  0.984500  0.549200  0.874400  1.0
  C  C223  1  0.674800  0.015500  0.125600  1.0
  C  C224  1  0.450800  0.110100  0.125600  1.0
  C  C225  1  0.906600  0.353300  0.913200  1.0
  C  C226  1  0.006600  0.559900  0.913200  1.0
  C  C227  1  0.646700  0.993400  0.086800  1.0
  C  C228  1  0.440100  0.093400  0.086800  1.0
  C  C229  1  0.981240  0.462140  0.076080  1.0
  C  C230  1  0.094840  0.613940  0.076080  1.0
  C  C231  1  0.537860  0.905160  0.923920  1.0
  C  C232  1  0.386060  0.018760  0.923920  1.0
  C  C233  1  0.993710  0.495010  0.108220  1.0
  C  C234  1  0.114510  0.613210  0.108220  1.0
  C  C235  1  0.504990  0.885490  0.891780  1.0
  C  C236  1  0.386790  0.006290  0.891780  1.0
  C  C237  1  0.016320  0.507220  0.147040  1.0
  C  C238  1  0.130720  0.639820  0.147040  1.0
  C  C239  1  0.492780  0.869280  0.852960  1.0
  C  C240  1  0.360180  0.983680  0.852960  1.0
  C  C241  1  0.016900  0.450000  0.124800  1.0
  C  C242  1  0.107900  0.674800  0.124800  1.0
  C  C243  1  0.550000  0.892100  0.875200  1.0
  C  C244  1  0.325200  0.983100  0.875200  1.0
  C  C245  1  0.993700  0.439200  0.086200  1.0
  C  C246  1  0.092500  0.647000  0.086200  1.0
  C  C247  1  0.560800  0.907500  0.913800  1.0
  C  C248  1  0.353000  0.006300  0.913800  1.0
  C  C249  1  0.913500  0.497700  0.981600  1.0
  C  C250  1  0.068100  0.483900  0.981600  1.0
  C  C251  1  0.502300  0.931900  0.018400  1.0
  C  C252  1  0.516100  0.086500  0.018400  1.0
  C  C253  1  0.914200  0.508500  0.016800  1.0
  C  C254  1  0.102600  0.508300  0.016800  1.0
  C  C255  1  0.491500  0.897400  0.983200  1.0
  C  C256  1  0.491700  0.085800  0.983200  1.0
  C  C257  1  0.665060  0.877560  0.446320  1.0
  C  C258  1  0.781260  0.568760  0.446320  1.0
  C  C259  1  0.122440  0.218740  0.553680  1.0
  C  C260  1  0.431240  0.334940  0.553680  1.0
  C  C261  1  0.633880  0.865580  0.414560  1.0
  C  C262  1  0.780680  0.548980  0.414560  1.0
  C  C263  1  0.134420  0.219320  0.585440  1.0
  C  C264  1  0.451020  0.366120  0.585440  1.0
  C  C265  1  0.607800  0.850000  0.414600  1.0
  C  C266  1  0.806800  0.564600  0.414600  1.0
  C  C267  1  0.150000  0.193200  0.585400  1.0
  C  C268  1  0.435400  0.392200  0.585400  1.0
  C  C269  1  0.619840  0.850440  0.446280  1.0
  C  C270  1  0.826440  0.595840  0.446280  1.0
  C  C271  1  0.149560  0.173560  0.553720  1.0
  C  C272  1  0.404160  0.380160  0.553720  1.0
  C  C273  1  0.694000  0.894800  0.453400  1.0
  C  C274  1  0.759400  0.558600  0.453400  1.0
  C  C275  1  0.105200  0.240600  0.546600  1.0
  C  C276  1  0.441400  0.306000  0.546600  1.0
  C  C277  1  0.699000  0.901900  0.431400  1.0
  C  C278  1  0.732400  0.529500  0.431400  1.0
  C  C279  1  0.098100  0.267600  0.568600  1.0
  C  C280  1  0.470500  0.301000  0.568600  1.0
  C  C281  1  0.729000  0.919800  0.441200  1.0
  C  C282  1  0.712200  0.521400  0.441200  1.0
  C  C283  1  0.080200  0.287800  0.558800  1.0
  C  C284  1  0.478600  0.271000  0.558800  1.0
  C  C285  1  0.755600  0.927000  0.502200  1.0
  C  C286  1  0.746600  0.575200  0.502200  1.0
  C  C287  1  0.073000  0.253400  0.497800  1.0
  C  C288  1  0.424800  0.244400  0.497800  1.0
  C  C289  1  0.724500  0.908700  0.490600  1.0
  C  C290  1  0.766100  0.581900  0.490600  1.0
  C  C291  1  0.091300  0.233900  0.509400  1.0
  C  C292  1  0.418100  0.275500  0.509400  1.0
  C  C293  1  0.599000  0.836500  0.452200  1.0
  C  C294  1  0.853200  0.615700  0.452200  1.0
  C  C295  1  0.163500  0.146800  0.547800  1.0
  C  C296  1  0.384300  0.401000  0.547800  1.0
  C  C297  1  0.564400  0.820300  0.429800  1.0
  C  C298  1  0.865400  0.609500  0.429800  1.0
  C  C299  1  0.179700  0.134600  0.570200  1.0
  C  C300  1  0.390500  0.435600  0.570200  1.0
  C  C301  1  0.546200  0.808000  0.439000  1.0
  C  C302  1  0.892800  0.631000  0.439000  1.0
  C  C303  1  0.192000  0.107200  0.561000  1.0
  C  C304  1  0.369000  0.453800  0.561000  1.0
  C  C305  1  0.599000  0.828500  0.499200  1.0
  C  C306  1  0.900200  0.670700  0.499200  1.0
  C  C307  1  0.171500  0.099800  0.500800  1.0
  C  C308  1  0.329300  0.401000  0.500800  1.0
  C  C309  1  0.616400  0.839300  0.487800  1.0
  C  C310  1  0.871400  0.648500  0.487800  1.0
  C  C311  1  0.160700  0.128600  0.512200  1.0
  C  C312  1  0.351500  0.383600  0.512200  1.0
  C  C313  1  0.585500  0.858200  0.351600  1.0
  C  C314  1  0.766100  0.493400  0.351600  1.0
  C  C315  1  0.141800  0.233900  0.648400  1.0
  C  C316  1  0.506600  0.414500  0.648400  1.0
  C  C317  1  0.566000  0.827300  0.342800  1.0
  C  C318  1  0.776800  0.515500  0.342800  1.0
  C  C319  1  0.172700  0.223200  0.657200  1.0
  C  C320  1  0.484500  0.434000  0.657200  1.0
  C  C321  1  0.715490  0.248590  0.772980  1.0
  C  C322  1  0.057490  0.524390  0.772980  1.0
  C  C323  1  0.751410  0.942510  0.227020  1.0
  C  C324  1  0.475610  0.284510  0.227020  1.0
  C  C325  1  0.685180  0.249980  0.751760  1.0
  C  C326  1  0.066580  0.501780  0.751760  1.0
  C  C327  1  0.750020  0.933420  0.248240  1.0
  C  C328  1  0.498220  0.314820  0.248240  1.0
  C  C329  1  0.658900  0.235100  0.752000  1.0
  C  C330  1  0.093100  0.516900  0.752000  1.0
  C  C331  1  0.764900  0.906900  0.248000  1.0
  C  C332  1  0.483100  0.341100  0.248000  1.0
  C  C333  1  0.669900  0.221800  0.772600  1.0
  C  C334  1  0.102700  0.550800  0.772600  1.0
  C  C335  1  0.778200  0.897300  0.227400  1.0
  C  C336  1  0.449200  0.330100  0.227400  1.0
  C  C337  1  0.744720  0.260820  0.776640  1.0
  C  C338  1  0.031920  0.515820  0.776640  1.0
  C  C339  1  0.739180  0.968080  0.223360  1.0
  C  C340  1  0.484180  0.255280  0.223360  1.0
  C  C341  1  0.751500  0.281200  0.766600  1.0
  C  C342  1  0.015100  0.485400  0.766600  1.0
  C  C343  1  0.718800  0.984900  0.233400  1.0
  C  C344  1  0.514600  0.248500  0.233400  1.0
  C  C345  1  0.781600  0.291400  0.770800  1.0
  C  C346  1  0.989200  0.479400  0.770800  1.0
  C  C347  1  0.708600  0.010800  0.229200  1.0
  C  C348  1  0.520600  0.218400  0.229200  1.0
  C  C349  1  0.803300  0.259200  0.797600  1.0
  C  C350  1  0.994300  0.538400  0.797600  1.0
  C  C351  1  0.740800  0.005700  0.202400  1.0
  C  C352  1  0.461600  0.196700  0.202400  1.0
  C  C353  1  0.772400  0.249500  0.792600  1.0
  C  C354  1  0.020200  0.543100  0.792600  1.0
  C  C355  1  0.750500  0.979800  0.207400  1.0
  C  C356  1  0.456900  0.227600  0.207400  1.0
  C  C357  1  0.648700  0.205800  0.776400  1.0
  C  C358  1  0.127700  0.570600  0.776400  1.0
  C  C359  1  0.794200  0.872300  0.223600  1.0
  C  C360  1  0.429400  0.351300  0.223600  1.0
  C  C361  1  0.614900  0.201500  0.763400  1.0
  C  C362  1  0.148500  0.561900  0.763400  1.0
  C  C363  1  0.798500  0.851500  0.236600  1.0
  C  C364  1  0.438100  0.385100  0.236600  1.0
  C  C365  1  0.595700  0.184600  0.768200  1.0
  C  C366  1  0.172500  0.583600  0.768200  1.0
  C  C367  1  0.815400  0.827500  0.231800  1.0
  C  C368  1  0.416400  0.404300  0.231800  1.0
  C  C369  1  0.645900  0.173100  0.802400  1.0
  C  C370  1  0.156500  0.629300  0.802400  1.0
  C  C371  1  0.826900  0.843500  0.197600  1.0
  C  C372  1  0.370700  0.354100  0.197600  1.0
  C  C373  1  0.664100  0.190800  0.797000  1.0
  C  C374  1  0.132900  0.606200  0.797000  1.0
  C  C375  1  0.809200  0.867100  0.203000  1.0
  C  C376  1  0.393800  0.335900  0.203000  1.0
  C  C377  1  0.637800  0.256100  0.699200  1.0
  C  C378  1  0.061400  0.443100  0.699200  1.0
  C  C379  1  0.743900  0.938600  0.300800  1.0
  C  C380  1  0.556900  0.362200  0.300800  1.0
  C  C381  1  0.619000  0.259800  0.717200  1.0
  C  C382  1  0.098200  0.457400  0.717200  1.0
  C  C383  1  0.740200  0.901800  0.282800  1.0
  C  C384  1  0.542600  0.381000  0.282800  1.0
  C  C385  1  0.530200  0.948800  0.579200  1.0
  C  C386  1  0.049000  0.630400  0.579200  1.0
  C  C387  1  0.051200  0.951000  0.420800  1.0
  C  C388  1  0.369600  0.469800  0.420800  1.0
  C  C389  1  0.505870  0.961070  0.565140  1.0
  C  C390  1  0.059270  0.604070  0.565140  1.0
  C  C391  1  0.038930  0.940730  0.434860  1.0
  C  C392  1  0.395930  0.494130  0.434860  1.0
  C  C393  1  0.510620  0.995420  0.594040  1.0
  C  C394  1  0.083420  0.598620  0.594040  1.0
  C  C395  1  0.004580  0.916580  0.405960  1.0
  C  C396  1  0.401380  0.489380  0.405960  1.0
  C  C397  1  0.538330  0.008330  0.629260  1.0
  C  C398  1  0.090930  0.620930  0.629260  1.0
  C  C399  1  0.991670  0.909070  0.370740  1.0
  C  C400  1  0.379070  0.461670  0.370740  1.0
  C  C401  1  0.531250  0.916150  0.557300  1.0
  C  C402  1  0.026050  0.641150  0.557300  1.0
  C  C403  1  0.083850  0.973950  0.442700  1.0
  C  C404  1  0.358850  0.468750  0.442700  1.0
  C  C405  1  0.508040  0.888740  0.519280  1.0
  C  C406  1  0.011240  0.630540  0.519280  1.0
  C  C407  1  0.111260  0.988760  0.480720  1.0
  C  C408  1  0.369460  0.491960  0.480720  1.0
  C  C409  1  0.511100  0.856700  0.501000  1.0
  C  C410  1  0.989900  0.644300  0.501000  1.0
  C  C411  1  0.143300  0.010100  0.499000  1.0
  C  C412  1  0.355700  0.488900  0.499000  1.0
  C  C413  1  0.564300  0.876400  0.561000  1.0
  C  C414  1  0.996700  0.684600  0.561000  1.0
  C  C415  1  0.123600  0.003300  0.439000  1.0
  C  C416  1  0.315400  0.435700  0.439000  1.0
  C  C417  1  0.560300  0.908700  0.577600  1.0
  C  C418  1  0.017300  0.668900  0.577600  1.0
  C  C419  1  0.091300  0.982700  0.422400  1.0
  C  C420  1  0.331100  0.439700  0.422400  1.0
  C  C421  1  0.546440  0.039240  0.662880  1.0
  C  C422  1  0.116440  0.623640  0.662880  1.0
  C  C423  1  0.960760  0.883560  0.337120  1.0
  C  C424  1  0.376360  0.453560  0.337120  1.0
  C  C425  1  0.529500  0.062700  0.669200  1.0
  C  C426  1  0.139700  0.606500  0.669200  1.0
  C  C427  1  0.937300  0.860300  0.330800  1.0
  C  C428  1  0.393500  0.470500  0.330800  1.0
  C  C429  1  0.539400  0.091900  0.704800  1.0
  C  C430  1  0.165400  0.612900  0.704800  1.0
  C  C431  1  0.908100  0.834600  0.295200  1.0
  C  C432  1  0.387100  0.460600  0.295200  1.0
  C  C433  1  0.588120  0.076420  0.734440  1.0
  C  C434  1  0.146320  0.658020  0.734440  1.0
  C  C435  1  0.923580  0.853680  0.265560  1.0
  C  C436  1  0.341980  0.411880  0.265560  1.0
  C  C437  1  0.576900  0.047400  0.697600  1.0
  C  C438  1  0.120700  0.650200  0.697600  1.0
  C  C439  1  0.952600  0.879300  0.302400  1.0
  C  C440  1  0.349800  0.423100  0.302400  1.0
  C  C441  1  0.446000  0.958300  0.517400  1.0
  C  C442  1  0.071400  0.559100  0.517400  1.0
  C  C443  1  0.041700  0.928600  0.482600  1.0
  C  C444  1  0.440900  0.554000  0.482600  1.0
  C  C445  1  0.459600  0.995800  0.538400  1.0
  C  C446  1  0.078800  0.542600  0.538400  1.0
  C  C447  1  0.004200  0.921200  0.461600  1.0
  C  C448  1  0.457400  0.540400  0.461600  1.0
  C  C449  1  0.596720  0.619320  0.443840  1.0
  C  C450  1  0.847120  0.824520  0.443840  1.0
  C  C451  1  0.380680  0.152880  0.556160  1.0
  C  C452  1  0.175480  0.403280  0.556160  1.0
  C  C453  1  0.568750  0.608950  0.409700  1.0
  C  C454  1  0.840950  0.800750  0.409700  1.0
  C  C455  1  0.391050  0.159050  0.590300  1.0
  C  C456  1  0.199250  0.431250  0.590300  1.0
  C  C457  1  0.553860  0.635460  0.409920  1.0
  C  C458  1  0.856060  0.774460  0.409920  1.0
  C  C459  1  0.364540  0.143940  0.590080  1.0
  C  C460  1  0.225540  0.446140  0.590080  1.0
  C  C461  1  0.570830  0.665230  0.444260  1.0
  C  C462  1  0.873430  0.779030  0.444260  1.0
  C  C463  1  0.334770  0.126570  0.555740  1.0
  C  C464  1  0.220970  0.429170  0.555740  1.0
  C  C465  1  0.615500  0.598700  0.452000  1.0
  C  C466  1  0.836500  0.853300  0.452000  1.0
  C  C467  1  0.401300  0.163500  0.548000  1.0
  C  C468  1  0.146700  0.384500  0.548000  1.0
  C  C469  1  0.609300  0.564100  0.431400  1.0
  C  C470  1  0.822100  0.867300  0.431400  1.0
  C  C471  1  0.435900  0.177900  0.568600  1.0
  C  C472  1  0.132700  0.390700  0.568600  1.0
  C  C473  1  0.629800  0.546300  0.443200  1.0
  C  C474  1  0.813400  0.896900  0.443200  1.0
  C  C475  1  0.453700  0.186600  0.556800  1.0
  C  C476  1  0.103100  0.370200  0.556800  1.0
  C  C477  1  0.668400  0.600200  0.503600  1.0
  C  C478  1  0.835200  0.903400  0.503600  1.0
  C  C479  1  0.399800  0.164800  0.496400  1.0
  C  C480  1  0.096600  0.331600  0.496400  1.0
  C  C481  1  0.646600  0.616700  0.489800  1.0
  C  C482  1  0.843200  0.873100  0.489800  1.0
  C  C483  1  0.383300  0.156800  0.510200  1.0
  C  C484  1  0.126900  0.353400  0.510200  1.0
  C  C485  1  0.562000  0.695000  0.452200  1.0
  C  C486  1  0.890200  0.757200  0.452200  1.0
  C  C487  1  0.305000  0.109800  0.547800  1.0
  C  C488  1  0.242800  0.438000  0.547800  1.0
  C  C489  1  0.534100  0.701300  0.430400  1.0
  C  C490  1  0.896300  0.729100  0.430400  1.0
  C  C491  1  0.298700  0.103700  0.569600  1.0
  C  C492  1  0.270900  0.465900  0.569600  1.0
  C  C493  1  0.528200  0.732400  0.441200  1.0
  C  C494  1  0.913000  0.708800  0.441200  1.0
  C  C495  1  0.267600  0.087000  0.558800  1.0
  C  C496  1  0.291200  0.471800  0.558800  1.0
  C  C497  1  0.581900  0.757000  0.502000  1.0
  C  C498  1  0.920100  0.745000  0.502000  1.0
  C  C499  1  0.243000  0.079900  0.498000  1.0
  C  C500  1  0.255000  0.418100  0.498000  1.0
  C  C501  1  0.586100  0.724700  0.490200  1.0
  C  C502  1  0.904100  0.765500  0.490200  1.0
  C  C503  1  0.275300  0.095900  0.509800  1.0
  C  C504  1  0.234500  0.413900  0.509800  1.0
  C  C505  1  0.527700  0.571700  0.335000  1.0
  C  C506  1  0.807300  0.763300  0.335000  1.0
  C  C507  1  0.428300  0.192700  0.665000  1.0
  C  C508  1  0.236700  0.472300  0.665000  1.0
  C  C509  1  0.503400  0.590100  0.339200  1.0
  C  C510  1  0.835800  0.749100  0.339200  1.0
  C  C511  1  0.409900  0.164200  0.660800  1.0
  C  C512  1  0.250900  0.496600  0.660800  1.0
  C  C513  1  0.647910  0.254110  0.963620  1.0
  C  C514  1  0.315710  0.709510  0.963620  1.0
  C  C515  1  0.745890  0.684290  0.036380  1.0
  C  C516  1  0.290490  0.352090  0.036380  1.0
  C  C517  1  0.637410  0.279510  0.979220  1.0
  C  C518  1  0.341810  0.699710  0.979220  1.0
  C  C519  1  0.720490  0.658190  0.020780  1.0
  C  C520  1  0.300290  0.362590  0.020780  1.0
  C  C521  1  0.658410  0.300110  0.021420  1.0
  C  C522  1  0.363010  0.721310  0.021420  1.0
  C  C523  1  0.699890  0.636990  0.978580  1.0
  C  C524  1  0.278690  0.341590  0.978580  1.0
  C  C525  1  0.684800  0.290300  0.036400  1.0
  C  C526  1  0.351600  0.746100  0.036400  1.0
  C  C527  1  0.709700  0.648400  0.963600  1.0
  C  C528  1  0.253900  0.315200  0.963600  1.0
  C  C529  1  0.630970  0.229170  0.923740  1.0
  C  C530  1  0.292770  0.694570  0.923740  1.0
  C  C531  1  0.770830  0.707230  0.076260  1.0
  C  C532  1  0.305430  0.369030  0.076260  1.0
  C  C533  1  0.599630  0.221930  0.892060  1.0
  C  C534  1  0.292430  0.670130  0.892060  1.0
  C  C535  1  0.778070  0.707570  0.107940  1.0
  C  C536  1  0.329870  0.400370  0.107940  1.0
  C  C537  1  0.585370  0.195870  0.853340  1.0
  C  C538  1  0.267970  0.657470  0.853340  1.0
  C  C539  1  0.804130  0.732030  0.146660  1.0
  C  C540  1  0.342530  0.414630  0.146660  1.0
  C  C541  1  0.635900  0.180100  0.875200  1.0
  C  C542  1  0.239300  0.695100  0.875200  1.0
  C  C543  1  0.819900  0.760700  0.124800  1.0
  C  C544  1  0.304900  0.364100  0.124800  1.0
  C  C545  1  0.648700  0.206200  0.913800  1.0
  C  C546  1  0.265100  0.707600  0.913800  1.0
  C  C547  1  0.793800  0.734900  0.086200  1.0
  C  C548  1  0.292400  0.351300  0.086200  1.0
  C  C549  1  0.709080  0.306580  0.076360  1.0
  C  C550  1  0.367280  0.769780  0.076360  1.0
  C  C551  1  0.693420  0.632720  0.923640  1.0
  C  C552  1  0.230220  0.290920  0.923640  1.0
  C  C553  1  0.712540  0.334840  0.108280  1.0
  C  C554  1  0.395740  0.773440  0.108280  1.0
  C  C555  1  0.665160  0.604260  0.891720  1.0
  C  C556  1  0.226560  0.287460  0.891720  1.0
  C  C557  1  0.737930  0.348930  0.147260  1.0
  C  C558  1  0.409330  0.798330  0.147260  1.0
  C  C559  1  0.651070  0.590670  0.852740  1.0
  C  C560  1  0.201670  0.262070  0.852740  1.0
  C  C561  1  0.761400  0.304900  0.125000  1.0
  C  C562  1  0.363600  0.820100  0.125000  1.0
  C  C563  1  0.695100  0.636400  0.875000  1.0
  C  C564  1  0.179900  0.238600  0.875000  1.0
  C  C565  1  0.734800  0.291600  0.086400  1.0
  C  C566  1  0.351600  0.794800  0.086400  1.0
  C  C567  1  0.708400  0.648400  0.913600  1.0
  C  C568  1  0.205200  0.265200  0.913600  1.0
  C  C569  1  0.609900  0.326800  0.983600  1.0
  C  C570  1  0.373700  0.656800  0.983600  1.0
  C  C571  1  0.673200  0.626300  0.016400  1.0
  C  C572  1  0.343200  0.390100  0.016400  1.0
  C  C573  1  0.614900  0.333000  0.019600  1.0
  C  C574  1  0.404700  0.686600  0.019600  1.0
  C  C575  1  0.667000  0.595300  0.980400  1.0
  C  C576  1  0.313400  0.385100  0.980400  1.0
  C  C577  1  0.480440  0.792440  0.579280  1.0
  C  C578  1  0.098840  0.786840  0.579280  1.0
  C  C579  1  0.207560  0.901160  0.420720  1.0
  C  C580  1  0.213160  0.519560  0.420720  1.0
  C  C581  1  0.448360  0.786560  0.568320  1.0
  C  C582  1  0.119960  0.781760  0.568320  1.0
  C  C583  1  0.213440  0.880040  0.431680  1.0
  C  C584  1  0.218240  0.551640  0.431680  1.0
  C  C585  1  0.444340  0.791440  0.598280  1.0
  C  C586  1  0.153940  0.806840  0.598280  1.0
  C  C587  1  0.208560  0.846060  0.401720  1.0
  C  C588  1  0.193160  0.555660  0.401720  1.0
  C  C589  1  0.473430  0.799130  0.630260  1.0
  C  C590  1  0.156830  0.831130  0.630260  1.0
  C  C591  1  0.200870  0.843170  0.369740  1.0
  C  C592  1  0.168870  0.526570  0.369740  1.0
  C  C593  1  0.490580  0.790980  0.555960  1.0
  C  C594  1  0.065380  0.764980  0.555960  1.0
  C  C595  1  0.209020  0.934620  0.444040  1.0
  C  C596  1  0.235020  0.509420  0.444040  1.0
  C  C597  1  0.472080  0.785280  0.519760  1.0
  C  C598  1  0.047680  0.734480  0.519760  1.0
  C  C599  1  0.214720  0.952320  0.480240  1.0
  C  C600  1  0.265520  0.527920  0.480240  1.0
  C  C601  1  0.484700  0.785800  0.499400  1.0
  C  C602  1  0.014700  0.713600  0.499400  1.0
  C  C603  1  0.214200  0.985300  0.500600  1.0
  C  C604  1  0.286400  0.515300  0.500600  1.0
  C  C605  1  0.540400  0.798200  0.553200  1.0
  C  C606  1  0.012800  0.755000  0.553200  1.0
  C  C607  1  0.201800  0.987200  0.446800  1.0
  C  C608  1  0.245000  0.459600  0.446800  1.0
  C  C609  1  0.526100  0.798400  0.572800  1.0
  C  C610  1  0.046700  0.774400  0.572800  1.0
  C  C611  1  0.201600  0.953300  0.427200  1.0
  C  C612  1  0.225600  0.473900  0.427200  1.0
  C  C613  1  0.476190  0.806790  0.663780  1.0
  C  C614  1  0.187590  0.856990  0.663780  1.0
  C  C615  1  0.193210  0.812410  0.336220  1.0
  C  C616  1  0.143010  0.523810  0.336220  1.0
  C  C617  1  0.452400  0.809700  0.672600  1.0
  C  C618  1  0.220200  0.862900  0.672600  1.0
  C  C619  1  0.190300  0.779800  0.327400  1.0
  C  C620  1  0.137100  0.547600  0.327400  1.0
  C  C621  1  0.457800  0.820200  0.707800  1.0
  C  C622  1  0.250000  0.887600  0.707800  1.0
  C  C623  1  0.179800  0.750000  0.292200  1.0
  C  C624  1  0.112400  0.542200  0.292200  1.0
  C  C625  1  0.517080  0.827780  0.732560  1.0
  C  C626  1  0.215480  0.904780  0.732560  1.0
  C  C627  1  0.172220  0.784520  0.267440  1.0
  C  C628  1  0.095220  0.482920  0.267440  1.0
  C  C629  1  0.509400  0.814500  0.695200  1.0
  C  C630  1  0.185800  0.880700  0.695200  1.0
  C  C631  1  0.185500  0.814200  0.304800  1.0
  C  C632  1  0.119300  0.490600  0.304800  1.0
  C  C633  1  0.383200  0.759300  0.519800  1.0
  C  C634  1  0.136600  0.760500  0.519800  1.0
  C  C635  1  0.240700  0.863400  0.480200  1.0
  C  C636  1  0.239500  0.616800  0.480200  1.0
  C  C637  1  0.380500  0.781800  0.552800  1.0
  C  C638  1  0.172300  0.771000  0.552800  1.0
  C  C639  1  0.218200  0.827700  0.447200  1.0
  C  C640  1  0.229000  0.619500  0.447200  1.0
  C  C641  1  0.513110  0.031810  0.791420  1.0
  C  C642  1  0.278310  0.759610  0.791420  1.0
  C  C643  1  0.968190  0.721690  0.208580  1.0
  C  C644  1  0.240390  0.486890  0.208580  1.0
  C  C645  1  0.480830  0.021830  0.778860  1.0
  C  C646  1  0.298030  0.757030  0.778860  1.0
  C  C647  1  0.978170  0.701970  0.221140  1.0
  C  C648  1  0.242970  0.519170  0.221140  1.0
  C  C649  1  0.472300  0.993300  0.780000  1.0
  C  C650  1  0.307700  0.786700  0.780000  1.0
  C  C651  1  0.006700  0.692300  0.220000  1.0
  C  C652  1  0.213300  0.527700  0.220000  1.0
  C  C653  1  0.498100  0.982100  0.792600  1.0
  C  C654  1  0.294500  0.810500  0.792600  1.0
  C  C655  1  0.017900  0.705500  0.207400  1.0
  C  C656  1  0.189500  0.501900  0.207400  1.0
  C  C657  1  0.526930  0.058230  0.791860  1.0
  C  C658  1  0.264930  0.733630  0.791860  1.0
  C  C659  1  0.941770  0.735070  0.208140  1.0
  C  C660  1  0.266370  0.473070  0.208140  1.0
  C  C661  1  0.512600  0.079600  0.781600  1.0
  C  C662  1  0.269000  0.702000  0.781600  1.0
  C  C663  1  0.920400  0.731000  0.218400  1.0
  C  C664  1  0.298000  0.487400  0.218400  1.0
  C  C665  1  0.527800  0.103500  0.780400  1.0
  C  C666  1  0.252600  0.676900  0.780400  1.0
  C  C667  1  0.896500  0.747400  0.219600  1.0
  C  C668  1  0.323100  0.472200  0.219600  1.0
  C  C669  1  0.577600  0.086300  0.801200  1.0
  C  C670  1  0.223600  0.714900  0.801200  1.0
  C  C671  1  0.913700  0.776400  0.198800  1.0
  C  C672  1  0.285100  0.422400  0.198800  1.0
  C  C673  1  0.560700  0.062400  0.801600  1.0
  C  C674  1  0.240900  0.739200  0.801600  1.0
  C  C675  1  0.937600  0.759100  0.198400  1.0
  C  C676  1  0.260800  0.439300  0.198400  1.0
  C  C677  1  0.495400  0.952700  0.792400  1.0
  C  C678  1  0.297000  0.839700  0.792400  1.0
  C  C679  1  0.047300  0.703000  0.207600  1.0
  C  C680  1  0.160300  0.504600  0.207600  1.0
  C  C681  1  0.467300  0.927200  0.776200  1.0
  C  C682  1  0.308900  0.849000  0.776200  1.0
  C  C683  1  0.072800  0.691100  0.223800  1.0
  C  C684  1  0.151000  0.532700  0.223800  1.0
  C  C685  1  0.467000  0.897400  0.775000  1.0
  C  C686  1  0.308000  0.877600  0.775000  1.0
  C  C687  1  0.102600  0.692000  0.225000  1.0
  C  C688  1  0.122400  0.533000  0.225000  1.0
  C  C689  1  0.527800  0.916300  0.808400  1.0
  C  C690  1  0.280600  0.892100  0.808400  1.0
  C  C691  1  0.083700  0.719400  0.191600  1.0
  C  C692  1  0.107900  0.472200  0.191600  1.0
  C  C693  1  0.526500  0.946300  0.809400  1.0
  C  C694  1  0.282900  0.863100  0.809400  1.0
  C  C695  1  0.053700  0.717100  0.190600  1.0
  C  C696  1  0.136900  0.473500  0.190600  1.0
  C  C697  1  0.416700  0.017000  0.744200  1.0
  C  C698  1  0.327500  0.727200  0.744200  1.0
  C  C699  1  0.983000  0.672500  0.255800  1.0
  C  C700  1  0.272800  0.583300  0.255800  1.0
  C  C701  1  0.415400  0.004000  0.766000  1.0
  C  C702  1  0.350600  0.762000  0.766000  1.0
  C  C703  1  0.996000  0.649400  0.234000  1.0
  C  C704  1  0.238000  0.584600  0.234000  1.0
  C  C705  1  0.524100  0.716200  0.777200  1.0
  C  C706  1  0.253100  0.061000  0.777200  1.0
  C  C707  1  0.283800  0.746900  0.222800  1.0
  C  C708  1  0.939000  0.475900  0.222800  1.0
  C  C709  1  0.502430  0.687530  0.762460  1.0
  C  C710  1  0.260030  0.074930  0.762460  1.0
  C  C711  1  0.312470  0.739970  0.237540  1.0
  C  C712  1  0.925070  0.497570  0.237540  1.0
  C  C713  1  0.517700  0.661100  0.761600  1.0
  C  C714  1  0.243900  0.100500  0.761600  1.0
  C  C715  1  0.338900  0.756100  0.238400  1.0
  C  C716  1  0.899500  0.482300  0.238400  1.0
  C  C717  1  0.550500  0.670400  0.775600  1.0
  C  C718  1  0.225100  0.105200  0.775600  1.0
  C  C719  1  0.329600  0.774900  0.224400  1.0
  C  C720  1  0.894800  0.449500  0.224400  1.0
  C  C721  1  0.515500  0.745200  0.780000  1.0
  C  C722  1  0.264500  0.034800  0.780000  1.0
  C  C723  1  0.254800  0.735500  0.220000  1.0
  C  C724  1  0.965200  0.484500  0.220000  1.0
  C  C725  1  0.484700  0.751100  0.765400  1.0
  C  C726  1  0.280700  0.014300  0.765400  1.0
  C  C727  1  0.248900  0.719300  0.234600  1.0
  C  C728  1  0.985700  0.515300  0.234600  1.0
  C  C729  1  0.479000  0.780800  0.768400  1.0
  C  C730  1  0.289400  0.987600  0.768400  1.0
  C  C731  1  0.219200  0.710600  0.231600  1.0
  C  C732  1  0.012400  0.521000  0.231600  1.0
  C  C733  1  0.539400  0.804500  0.803600  1.0
  C  C734  1  0.264200  0.999100  0.803600  1.0
  C  C735  1  0.195500  0.735800  0.196400  1.0
  C  C736  1  0.000900  0.460600  0.196400  1.0
  C  C737  1  0.543600  0.774300  0.800800  1.0
  C  C738  1  0.257200  0.026500  0.800800  1.0
  C  C739  1  0.225700  0.742800  0.199200  1.0
  C  C740  1  0.973500  0.456400  0.199200  1.0
  C  C741  1  0.570600  0.649200  0.778000  1.0
  C  C742  1  0.207400  0.128800  0.778000  1.0
  C  C743  1  0.350800  0.792600  0.222000  1.0
  C  C744  1  0.871200  0.429400  0.222000  1.0
  C  C745  1  0.563000  0.616000  0.767000  1.0
  C  C746  1  0.204000  0.151000  0.767000  1.0
  C  C747  1  0.384000  0.796000  0.233000  1.0
  C  C748  1  0.849000  0.437000  0.233000  1.0
  C  C749  1  0.584900  0.596800  0.769800  1.0
  C  C750  1  0.184900  0.173000  0.769800  1.0
  C  C751  1  0.403200  0.815100  0.230200  1.0
  C  C752  1  0.827000  0.415100  0.230200  1.0
  C  C753  1  0.628600  0.645700  0.797000  1.0
  C  C754  1  0.168400  0.151300  0.797000  1.0
  C  C755  1  0.354300  0.831600  0.203000  1.0
  C  C756  1  0.848700  0.371400  0.203000  1.0
  C  C757  1  0.605500  0.664200  0.794600  1.0
  C  C758  1  0.189100  0.130400  0.794600  1.0
  C  C759  1  0.335800  0.810900  0.205400  1.0
  C  C760  1  0.869600  0.394500  0.205400  1.0
  C  C761  1  0.444100  0.643900  0.726400  1.0
  C  C762  1  0.282300  0.082500  0.726400  1.0
  C  C763  1  0.356100  0.717700  0.273600  1.0
  C  C764  1  0.917500  0.555900  0.273600  1.0
  C  C765  1  0.463500  0.627400  0.745400  1.0
  C  C766  1  0.281900  0.118000  0.745400  1.0
  C  C767  1  0.372600  0.718100  0.254600  1.0
  C  C768  1  0.882000  0.536500  0.254600  1.0
  F  F769  1  0.765900  0.968200  0.387800  1.0
  F  F770  1  0.621900  0.419600  0.387800  1.0
  F  F771  1  0.031800  0.378100  0.612200  1.0
  F  F772  1  0.580400  0.234100  0.612200  1.0
  F  F773  1  0.729400  0.948100  0.389000  1.0
  F  F774  1  0.659600  0.440900  0.389000  1.0
  F  F775  1  0.051900  0.340400  0.611000  1.0
  F  F776  1  0.559100  0.270600  0.611000  1.0
  F  F777  1  0.730400  0.922000  0.341200  1.0
  F  F778  1  0.610800  0.419200  0.341200  1.0
  F  F779  1  0.078000  0.389200  0.658800  1.0
  F  F780  1  0.580800  0.269600  0.658800  1.0
  F  F781  1  0.779400  0.925200  0.374600  1.0
  F  F782  1  0.595200  0.449400  0.374600  1.0
  F  F783  1  0.074800  0.404800  0.625400  1.0
  F  F784  1  0.550600  0.220600  0.625400  1.0
  F  F785  1  0.778500  0.951300  0.422400  1.0
  F  F786  1  0.643900  0.471100  0.422400  1.0
  F  F787  1  0.048700  0.356100  0.577600  1.0
  F  F788  1  0.528900  0.221500  0.577600  1.0
  F  F789  1  0.742700  0.905000  0.375600  1.0
  F  F790  1  0.632900  0.470600  0.375600  1.0
  F  F791  1  0.095000  0.367100  0.624400  1.0
  F  F792  1  0.529400  0.257300  0.624400  1.0
  F  F793  1  0.837200  0.965800  0.577200  1.0
  F  F794  1  0.740000  0.611400  0.577200  1.0
  F  F795  1  0.034200  0.260000  0.422800  1.0
  F  F796  1  0.388600  0.162800  0.422800  1.0
  F  F797  1  0.810200  0.936300  0.580800  1.0
  F  F798  1  0.770600  0.644500  0.580800  1.0
  F  F799  1  0.063700  0.229400  0.419200  1.0
  F  F800  1  0.355500  0.189800  0.419200  1.0
  F  F801  1  0.859400  0.939000  0.599400  1.0
  F  F802  1  0.740000  0.660400  0.599400  1.0
  F  F803  1  0.061000  0.260000  0.400600  1.0
  F  F804  1  0.339600  0.140600  0.400600  1.0
  F  F805  1  0.874100  0.990600  0.634800  1.0
  F  F806  1  0.760700  0.644200  0.634800  1.0
  F  F807  1  0.009400  0.239300  0.365200  1.0
  F  F808  1  0.355800  0.125900  0.365200  1.0
  F  F809  1  0.824800  0.987800  0.616000  1.0
  F  F810  1  0.791200  0.628200  0.616000  1.0
  F  F811  1  0.012200  0.208800  0.384000  1.0
  F  F812  1  0.371800  0.175200  0.384000  1.0
  F  F813  1  0.847100  0.961100  0.638400  1.0
  F  F814  1  0.791300  0.677300  0.638400  1.0
  F  F815  1  0.038900  0.208700  0.361600  1.0
  F  F816  1  0.322700  0.152900  0.361600  1.0
  F  F817  1  0.474600  0.769300  0.419400  1.0
  F  F818  1  0.944800  0.650100  0.419400  1.0
  F  F819  1  0.230700  0.055200  0.580600  1.0
  F  F820  1  0.349900  0.525400  0.580600  1.0
  F  F821  1  0.430400  0.730500  0.373200  1.0
  F  F822  1  0.942800  0.642700  0.373200  1.0
  F  F823  1  0.269500  0.057200  0.626800  1.0
  F  F824  1  0.357300  0.569600  0.626800  1.0
  F  F825  1  0.429600  0.775600  0.410800  1.0
  F  F826  1  0.981200  0.635200  0.410800  1.0
  F  F827  1  0.224400  0.018800  0.589200  1.0
  F  F828  1  0.364800  0.570400  0.589200  1.0
  F  F829  1  0.456100  0.800500  0.402600  1.0
  F  F830  1  0.946500  0.602100  0.402600  1.0
  F  F831  1  0.199500  0.053500  0.597400  1.0
  F  F832  1  0.397900  0.543900  0.597400  1.0
  F  F833  1  0.456900  0.755400  0.365000  1.0
  F  F834  1  0.908100  0.609600  0.365000  1.0
  F  F835  1  0.244600  0.091900  0.635000  1.0
  F  F836  1  0.390400  0.543100  0.635000  1.0
  F  F837  1  0.411800  0.761500  0.356200  1.0
  F  F838  1  0.944400  0.594700  0.356200  1.0
  F  F839  1  0.238500  0.055600  0.643800  1.0
  F  F840  1  0.405300  0.588200  0.643800  1.0
  F  F841  1  0.615600  0.833900  0.575400  1.0
  F  F842  1  0.959800  0.741500  0.575400  1.0
  F  F843  1  0.166100  0.040200  0.424600  1.0
  F  F844  1  0.258500  0.384400  0.424600  1.0
  F  F845  1  0.638900  0.885100  0.614600  1.0
  F  F846  1  0.975700  0.729500  0.614600  1.0
  F  F847  1  0.114900  0.024300  0.385400  1.0
  F  F848  1  0.270500  0.361100  0.385400  1.0
  F  F849  1  0.629000  0.856200  0.630600  1.0
  F  F850  1  0.001600  0.774400  0.630600  1.0
  F  F851  1  0.143800  0.998400  0.369400  1.0
  F  F852  1  0.225600  0.371000  0.369400  1.0
  F  F853  1  0.654400  0.826100  0.612200  1.0
  F  F854  1  0.957800  0.786100  0.612200  1.0
  F  F855  1  0.173900  0.042200  0.387800  1.0
  F  F856  1  0.213900  0.345600  0.387800  1.0
  F  F857  1  0.664500  0.855100  0.596400  1.0
  F  F858  1  0.931900  0.741300  0.596400  1.0
  F  F859  1  0.144900  0.068100  0.403600  1.0
  F  F860  1  0.258700  0.335500  0.403600  1.0
  F  F861  1  0.677700  0.877200  0.651400  1.0
  F  F862  1  0.973700  0.774200  0.651400  1.0
  F  F863  1  0.122800  0.026300  0.348600  1.0
  F  F864  1  0.225800  0.322300  0.348600  1.0
  F  F865  1  0.519000  0.158800  0.769200  1.0
  F  F866  1  0.250200  0.610400  0.769200  1.0
  F  F867  1  0.841200  0.749800  0.230800  1.0
  F  F868  1  0.389600  0.481000  0.230800  1.0
  F  F869  1  0.519900  0.200400  0.767400  1.0
  F  F870  1  0.247500  0.567000  0.767400  1.0
  F  F871  1  0.799600  0.752500  0.232600  1.0
  F  F872  1  0.433000  0.480100  0.232600  1.0
  F  F873  1  0.526600  0.159300  0.731600  1.0
  F  F874  1  0.205000  0.572300  0.731600  1.0
  F  F875  1  0.840700  0.795000  0.268400  1.0
  F  F876  1  0.427700  0.473400  0.268400  1.0
  F  F877  1  0.482000  0.129000  0.711400  1.0
  F  F878  1  0.229400  0.582400  0.711400  1.0
  F  F879  1  0.871000  0.770600  0.288600  1.0
  F  F880  1  0.417600  0.518000  0.288600  1.0
  F  F881  1  0.475300  0.170100  0.747000  1.0
  F  F882  1  0.271700  0.576900  0.747000  1.0
  F  F883  1  0.829900  0.728300  0.253000  1.0
  F  F884  1  0.423100  0.524700  0.253000  1.0
  F  F885  1  0.483200  0.170600  0.709600  1.0
  F  F886  1  0.226400  0.539000  0.709600  1.0
  F  F887  1  0.829400  0.773600  0.290400  1.0
  F  F888  1  0.461000  0.516800  0.290400  1.0
  F  F889  1  0.645700  0.119200  0.824600  1.0
  F  F890  1  0.178900  0.705400  0.824600  1.0
  F  F891  1  0.880800  0.821100  0.175400  1.0
  F  F892  1  0.294600  0.354300  0.175400  1.0
  F  F893  1  0.697100  0.141800  0.860400  1.0
  F  F894  1  0.163300  0.718600  0.860400  1.0
  F  F895  1  0.858200  0.836700  0.139600  1.0
  F  F896  1  0.281400  0.302900  0.139600  1.0
  F  F897  1  0.674800  0.107100  0.862400  1.0
  F  F898  1  0.187600  0.755300  0.862400  1.0
  F  F899  1  0.892900  0.812400  0.137600  1.0
  F  F900  1  0.244700  0.325200  0.137600  1.0
  F  F901  1  0.651900  0.072600  0.804600  1.0
  F  F902  1  0.152700  0.732000  0.804600  1.0
  F  F903  1  0.927400  0.847300  0.195400  1.0
  F  F904  1  0.268000  0.348100  0.195400  1.0
  F  F905  1  0.674200  0.107200  0.802600  1.0
  F  F906  1  0.128400  0.695400  0.802600  1.0
  F  F907  1  0.892800  0.871600  0.197400  1.0
  F  F908  1  0.304600  0.325800  0.197400  1.0
  F  F909  1  0.703300  0.095100  0.840400  1.0
  F  F910  1  0.137100  0.745300  0.840400  1.0
  F  F911  1  0.904900  0.862900  0.159600  1.0
  F  F912  1  0.254700  0.296700  0.159600  1.0
  F  F913  1  0.825600  0.330600  0.756800  1.0
  F  F914  1  0.931200  0.426200  0.756800  1.0
  F  F915  1  0.669400  0.068800  0.243200  1.0
  F  F916  1  0.573800  0.174400  0.243200  1.0
  F  F917  1  0.807200  0.370100  0.772200  1.0
  F  F918  1  0.965000  0.402100  0.772200  1.0
  F  F919  1  0.629900  0.035000  0.227800  1.0
  F  F920  1  0.597900  0.192800  0.227800  1.0
  F  F921  1  0.847500  0.375100  0.768800  1.0
  F  F922  1  0.921300  0.393700  0.768800  1.0
  F  F923  1  0.624900  0.078700  0.231200  1.0
  F  F924  1  0.606300  0.152500  0.231200  1.0
  F  F925  1  0.819700  0.332800  0.713400  1.0
  F  F926  1  0.893700  0.380600  0.713400  1.0
  F  F927  1  0.667200  0.106300  0.286600  1.0
  F  F928  1  0.619400  0.180300  0.286600  1.0
  F  F929  1  0.779500  0.327800  0.716800  1.0
  F  F930  1  0.937300  0.389000  0.716800  1.0
  F  F931  1  0.672200  0.062700  0.283200  1.0
  F  F932  1  0.611000  0.220500  0.283200  1.0
  F  F933  1  0.801400  0.372200  0.728600  1.0
  F  F934  1  0.927200  0.356400  0.728600  1.0
  F  F935  1  0.627800  0.072800  0.271400  1.0
  F  F936  1  0.643600  0.198600  0.271400  1.0
  F  F937  1  0.877800  0.245800  0.824000  1.0
  F  F938  1  0.946200  0.578200  0.824000  1.0
  F  F939  1  0.754200  0.053800  0.176000  1.0
  F  F940  1  0.421800  0.122200  0.176000  1.0
  F  F941  1  0.863100  0.245500  0.856800  1.0
  F  F942  1  0.993700  0.611300  0.856800  1.0
  F  F943  1  0.754500  0.006300  0.143200  1.0
  F  F944  1  0.388700  0.136900  0.143200  1.0
  F  F945  1  0.848700  0.201600  0.806000  1.0
  F  F946  1  0.957300  0.604400  0.806000  1.0
  F  F947  1  0.798400  0.042700  0.194000  1.0
  F  F948  1  0.395600  0.151300  0.194000  1.0
  F  F949  1  0.898200  0.208600  0.824200  1.0
  F  F950  1  0.926000  0.615600  0.824200  1.0
  F  F951  1  0.791400  0.074000  0.175800  1.0
  F  F952  1  0.384400  0.101800  0.175800  1.0
  F  F953  1  0.912600  0.252500  0.875200  1.0
  F  F954  1  0.962600  0.622700  0.875200  1.0
  F  F955  1  0.747500  0.037400  0.124800  1.0
  F  F956  1  0.377300  0.087400  0.124800  1.0
  F  F957  1  0.883600  0.208300  0.857200  1.0
  F  F958  1  0.973600  0.648900  0.857200  1.0
  F  F959  1  0.791700  0.026400  0.142800  1.0
  F  F960  1  0.351100  0.116400  0.142800  1.0
  F  F961  1  0.161700  0.231700  0.762200  1.0
  F  F962  1  0.600500  0.530500  0.762200  1.0
  F  F963  1  0.768300  0.399500  0.237800  1.0
  F  F964  1  0.469500  0.838300  0.237800  1.0
  F  F965  1  0.139300  0.260000  0.742600  1.0
  F  F966  1  0.603300  0.482600  0.742600  1.0
  F  F967  1  0.740000  0.396700  0.257400  1.0
  F  F968  1  0.517400  0.860700  0.257400  1.0
  F  F969  1  0.190400  0.277800  0.783600  1.0
  F  F970  1  0.593200  0.505800  0.783600  1.0
  F  F971  1  0.722200  0.406800  0.216400  1.0
  F  F972  1  0.494200  0.809600  0.216400  1.0
  F  F973  1  0.195000  0.234300  0.748200  1.0
  F  F974  1  0.553200  0.513900  0.748200  1.0
  F  F975  1  0.765700  0.446800  0.251800  1.0
  F  F976  1  0.486100  0.805000  0.251800  1.0
  F  F977  1  0.144000  0.216700  0.707400  1.0
  F  F978  1  0.563400  0.490700  0.707400  1.0
  F  F979  1  0.783300  0.436600  0.292600  1.0
  F  F980  1  0.509300  0.856000  0.292600  1.0
  F  F981  1  0.172600  0.262800  0.728800  1.0
  F  F982  1  0.556200  0.466000  0.728800  1.0
  F  F983  1  0.737200  0.443800  0.271200  1.0
  F  F984  1  0.534000  0.827400  0.271200  1.0
  F  F985  1  0.115200  0.168000  0.822200  1.0
  F  F986  1  0.707000  0.654200  0.822200  1.0
  F  F987  1  0.832000  0.293000  0.177800  1.0
  F  F988  1  0.345800  0.884800  0.177800  1.0
  F  F989  1  0.130400  0.192300  0.878200  1.0
  F  F990  1  0.747800  0.685900  0.878200  1.0
  F  F991  1  0.807700  0.252200  0.121800  1.0
  F  F992  1  0.314100  0.869600  0.121800  1.0
  F  F993  1  0.081100  0.180600  0.836000  1.0
  F  F994  1  0.754900  0.655400  0.836000  1.0
  F  F995  1  0.819400  0.245100  0.164000  1.0
  F  F996  1  0.344600  0.918900  0.164000  1.0
  F  F997  1  0.078100  0.130900  0.805800  1.0
  F  F998  1  0.727700  0.674900  0.805800  1.0
  F  F999  1  0.869100  0.272300  0.194200  1.0
  F  F1000  1  0.325100  0.921900  0.194200  1.0
  F  F1001  1  0.127400  0.142600  0.848000  1.0
  F  F1002  1  0.720600  0.705400  0.848000  1.0
  F  F1003  1  0.857400  0.279400  0.152000  1.0
  F  F1004  1  0.294600  0.872600  0.152000  1.0
  F  F1005  1  0.093300  0.155200  0.861800  1.0
  F  F1006  1  0.768500  0.706600  0.861800  1.0
  F  F1007  1  0.844800  0.231500  0.138200  1.0
  F  F1008  1  0.293400  0.906700  0.138200  1.0
  F  F1009  1  0.582200  0.869000  0.823000  1.0
  F  F1010  1  0.240800  0.954000  0.823000  1.0
  F  F1011  1  0.131000  0.759200  0.177000  1.0
  F  F1012  1  0.046000  0.417800  0.177000  1.0
  F  F1013  1  0.621700  0.863000  0.817400  1.0
  F  F1014  1  0.195700  0.954400  0.817400  1.0
  F  F1015  1  0.137000  0.804300  0.182600  1.0
  F  F1016  1  0.045600  0.378300  0.182600  1.0
  F  F1017  1  0.597100  0.895000  0.807000  1.0
  F  F1018  1  0.209900  0.912000  0.807000  1.0
  F  F1019  1  0.105000  0.790100  0.193000  1.0
  F  F1020  1  0.088000  0.402900  0.193000  1.0
  F  F1021  1  0.606000  0.920200  0.860400  1.0
  F  F1022  1  0.254400  0.940200  0.860400  1.0
  F  F1023  1  0.079800  0.745600  0.139600  1.0
  F  F1024  1  0.059800  0.394000  0.139600  1.0
  F  F1025  1  0.630500  0.888200  0.870800  1.0
  F  F1026  1  0.240300  0.982600  0.870800  1.0
  F  F1027  1  0.111800  0.759700  0.129200  1.0
  F  F1028  1  0.017400  0.369500  0.129200  1.0
  F  F1029  1  0.645400  0.914200  0.854800  1.0
  F  F1030  1  0.209400  0.940600  0.854800  1.0
  F  F1031  1  0.085800  0.790600  0.145200  1.0
  F  F1032  1  0.059400  0.354600  0.145200  1.0
  F  F1033  1  0.430100  0.830600  0.762000  1.0
  F  F1034  1  0.331900  0.931400  0.762000  1.0
  F  F1035  1  0.169400  0.668100  0.238000  1.0
  F  F1036  1  0.068600  0.569900  0.238000  1.0
  F  F1037  1  0.386300  0.793400  0.711400  1.0
  F  F1038  1  0.325100  0.918000  0.711400  1.0
  F  F1039  1  0.206600  0.674900  0.288600  1.0
  F  F1040  1  0.082000  0.613700  0.288600  1.0
  F  F1041  1  0.407600  0.792100  0.759000  1.0
  F  F1042  1  0.351400  0.966900  0.759000  1.0
  F  F1043  1  0.207900  0.648600  0.241000  1.0
  F  F1044  1  0.033100  0.592400  0.241000  1.0
  F  F1045  1  0.406900  0.839900  0.790000  1.0
  F  F1046  1  0.383100  0.950100  0.790000  1.0
  F  F1047  1  0.160100  0.616900  0.210000  1.0
  F  F1048  1  0.049900  0.593100  0.210000  1.0
  F  F1049  1  0.385700  0.841400  0.742600  1.0
  F  F1050  1  0.356900  0.901200  0.742600  1.0
  F  F1051  1  0.158600  0.643100  0.257400  1.0
  F  F1052  1  0.098800  0.614300  0.257400  1.0
  F  F1053  1  0.363200  0.802800  0.739400  1.0
  F  F1054  1  0.376200  0.936600  0.739400  1.0
  F  F1055  1  0.197200  0.623800  0.260600  1.0
  F  F1056  1  0.063400  0.636800  0.260600  1.0
  H  H1057  1  0.053200  0.150500  0.653200  1.0
  H  H1058  1  0.600000  0.502700  0.653200  1.0
  H  H1059  1  0.849500  0.400000  0.346800  1.0
  H  H1060  1  0.497300  0.946800  0.346800  1.0
  H  H1061  1  0.105500  0.184900  0.711200  1.0
  H  H1062  1  0.605700  0.526300  0.711200  1.0
  H  H1063  1  0.815100  0.394300  0.288800  1.0
  H  H1064  1  0.473700  0.894500  0.288800  1.0
  H  H1065  1  0.084900  0.138100  0.751800  1.0
  H  H1066  1  0.666900  0.613700  0.751800  1.0
  H  H1067  1  0.861900  0.333100  0.248200  1.0
  H  H1068  1  0.386300  0.915100  0.248200  1.0
  H  H1069  1  0.034700  0.099700  0.690400  1.0
  H  H1070  1  0.655700  0.590700  0.690400  1.0
  H  H1071  1  0.900300  0.344300  0.309600  1.0
  H  H1072  1  0.409300  0.965300  0.309600  1.0
  H  H1073  1  0.887400  0.028600  0.505000  1.0
  H  H1074  1  0.617600  0.476400  0.505000  1.0
  H  H1075  1  0.971400  0.382400  0.495000  1.0
  H  H1076  1  0.523600  0.112600  0.495000  1.0
  H  H1077  1  0.835700  0.988700  0.471200  1.0
  H  H1078  1  0.635500  0.482500  0.471200  1.0
  H  H1079  1  0.011300  0.364500  0.528800  1.0
  H  H1080  1  0.517500  0.164300  0.528800  1.0
  H  H1081  1  0.872600  0.980200  0.560600  1.0
  H  H1082  1  0.688000  0.580400  0.560600  1.0
  H  H1083  1  0.019800  0.312000  0.439400  1.0
  H  H1084  1  0.419600  0.127400  0.439400  1.0
  H  H1085  1  0.924300  0.021700  0.594600  1.0
  H  H1086  1  0.670300  0.572900  0.594600  1.0
  H  H1087  1  0.978300  0.329700  0.405400  1.0
  H  H1088  1  0.427100  0.075700  0.405400  1.0
  H  H1089  1  0.988200  0.131800  0.550000  1.0
  H  H1090  1  0.561800  0.418200  0.550000  1.0
  H  H1091  1  0.868200  0.438200  0.450000  1.0
  H  H1092  1  0.581800  0.011800  0.450000  1.0
  H  H1093  1  0.986200  0.093300  0.533200  1.0
  H  H1094  1  0.547000  0.439900  0.533200  1.0
  H  H1095  1  0.906700  0.453000  0.466800  1.0
  H  H1096  1  0.560100  0.013800  0.466800  1.0
  H  H1097  1  0.931400  0.097200  0.506000  1.0
  H  H1098  1  0.574600  0.408800  0.506000  1.0
  H  H1099  1  0.902800  0.425400  0.494000  1.0
  H  H1100  1  0.591200  0.068600  0.494000  1.0
  H  H1101  1  0.939000  0.121000  0.547600  1.0
  H  H1102  1  0.608600  0.426600  0.547600  1.0
  H  H1103  1  0.879000  0.391400  0.452400  1.0
  H  H1104  1  0.573400  0.061000  0.452400  1.0
  H  H1105  1  0.069200  0.272000  0.759600  1.0
  H  H1106  1  0.690400  0.487600  0.759600  1.0
  H  H1107  1  0.728000  0.309600  0.240400  1.0
  H  H1108  1  0.512400  0.930800  0.240400  1.0
  H  H1109  1  0.112300  0.248300  0.764800  1.0
  H  H1110  1  0.652500  0.516500  0.764800  1.0
  H  H1111  1  0.751700  0.347500  0.235200  1.0
  H  H1112  1  0.483500  0.887700  0.235200  1.0
  H  H1113  1  0.098700  0.220600  0.824400  1.0
  H  H1114  1  0.725700  0.603800  0.824400  1.0
  H  H1115  1  0.779400  0.274300  0.175600  1.0
  H  H1116  1  0.396200  0.901300  0.175600  1.0
  H  H1117  1  0.058100  0.248600  0.822600  1.0
  H  H1118  1  0.764500  0.574000  0.822600  1.0
  H  H1119  1  0.751400  0.235500  0.177400  1.0
  H  H1120  1  0.426000  0.941900  0.177400  1.0
  H  H1121  1  0.935200  0.326800  0.776000  1.0
  H  H1122  1  0.840800  0.449200  0.776000  1.0
  H  H1123  1  0.673200  0.159200  0.224000  1.0
  H  H1124  1  0.550800  0.064800  0.224000  1.0
  H  H1125  1  0.890500  0.329700  0.782800  1.0
  H  H1126  1  0.892300  0.453100  0.782800  1.0
  H  H1127  1  0.670300  0.107700  0.217200  1.0
  H  H1128  1  0.546900  0.109500  0.217200  1.0
  H  H1129  1  0.910300  0.264300  0.813600  1.0
  H  H1130  1  0.903300  0.549300  0.813600  1.0
  H  H1131  1  0.735700  0.096700  0.186400  1.0
  H  H1132  1  0.450700  0.089700  0.186400  1.0
  H  H1133  1  0.954500  0.260900  0.805000  1.0
  H  H1134  1  0.850500  0.544100  0.805000  1.0
  H  H1135  1  0.739100  0.149500  0.195000  1.0
  H  H1136  1  0.455900  0.045500  0.195000  1.0
  H  H1137  1  0.008300  0.307600  0.705400  1.0
  H  H1138  1  0.697100  0.397800  0.705400  1.0
  H  H1139  1  0.692400  0.302900  0.294600  1.0
  H  H1140  1  0.602200  0.991700  0.294600  1.0
  H  H1141  1  0.981000  0.277700  0.693000  1.0
  H  H1142  1  0.712000  0.415300  0.693000  1.0
  H  H1143  1  0.722300  0.288000  0.307000  1.0
  H  H1144  1  0.584700  0.019000  0.307000  1.0
  H  H1145  1  0.964800  0.326100  0.710200  1.0
  H  H1146  1  0.745400  0.384100  0.710200  1.0
  H  H1147  1  0.673900  0.254600  0.289800  1.0
  H  H1148  1  0.615900  0.035200  0.289800  1.0
  H  H1149  1  0.999900  0.346900  0.751200  1.0
  H  H1150  1  0.751300  0.404300  0.751200  1.0
  H  H1151  1  0.653100  0.248700  0.248800  1.0
  H  H1152  1  0.595700  0.000100  0.248800  1.0
  H  H1153  1  0.764400  0.051200  0.502200  1.0
  H  H1154  1  0.737800  0.451000  0.502200  1.0
  H  H1155  1  0.948800  0.262200  0.497800  1.0
  H  H1156  1  0.549000  0.235600  0.497800  1.0
  H  H1157  1  0.768900  0.997800  0.472000  1.0
  H  H1158  1  0.703100  0.474200  0.472000  1.0
  H  H1159  1  0.002200  0.296900  0.528000  1.0
  H  H1160  1  0.525800  0.231100  0.528000  1.0
  H  H1161  1  0.815800  0.007200  0.573200  1.0
  H  H1162  1  0.757400  0.566000  0.573200  1.0
  H  H1163  1  0.992800  0.242600  0.426800  1.0
  H  H1164  1  0.434000  0.184200  0.426800  1.0
  H  H1165  1  0.808500  0.060200  0.601800  1.0
  H  H1166  1  0.793300  0.541600  0.601800  1.0
  H  H1167  1  0.939800  0.206700  0.398200  1.0
  H  H1168  1  0.458400  0.191500  0.398200  1.0
  H  H1169  1  0.783700  0.217300  0.648000  1.0
  H  H1170  1  0.864300  0.430700  0.648000  1.0
  H  H1171  1  0.782700  0.135700  0.352000  1.0
  H  H1172  1  0.569300  0.216300  0.352000  1.0
  H  H1173  1  0.802800  0.266100  0.707600  1.0
  H  H1174  1  0.904800  0.441500  0.707600  1.0
  H  H1175  1  0.733900  0.095200  0.292400  1.0
  H  H1176  1  0.558500  0.197200  0.292400  1.0
  H  H1177  1  0.849300  0.218100  0.757400  1.0
  H  H1178  1  0.908100  0.539300  0.757400  1.0
  H  H1179  1  0.781900  0.091900  0.242600  1.0
  H  H1180  1  0.460700  0.150700  0.242600  1.0
  H  H1181  1  0.827500  0.168300  0.696000  1.0
  H  H1182  1  0.868500  0.527700  0.696000  1.0
  H  H1183  1  0.831700  0.131500  0.304000  1.0
  H  H1184  1  0.472300  0.172500  0.304000  1.0
  H  H1185  1  0.712400  0.114500  0.486600  1.0
  H  H1186  1  0.774200  0.372100  0.486600  1.0
  H  H1187  1  0.885500  0.225800  0.513400  1.0
  H  H1188  1  0.627900  0.287600  0.513400  1.0
  H  H1189  1  0.707700  0.117400  0.518000  1.0
  H  H1190  1  0.810300  0.400600  0.518000  1.0
  H  H1191  1  0.882600  0.189700  0.482000  1.0
  H  H1192  1  0.599400  0.292300  0.482000  1.0
  H  H1193  1  0.727700  0.171900  0.534000  1.0
  H  H1194  1  0.806300  0.362100  0.534000  1.0
  H  H1195  1  0.828100  0.193700  0.466000  1.0
  H  H1196  1  0.637900  0.272300  0.466000  1.0
  H  H1197  1  0.760400  0.163900  0.535600  1.0
  H  H1198  1  0.775200  0.371700  0.535600  1.0
  H  H1199  1  0.836100  0.224800  0.464400  1.0
  H  H1200  1  0.628300  0.239600  0.464400  1.0
  H  H1201  1  0.893000  0.411200  0.897600  1.0
  H  H1202  1  0.004600  0.486400  0.897600  1.0
  H  H1203  1  0.588800  0.995400  0.102400  1.0
  H  H1204  1  0.513600  0.107000  0.102400  1.0
  H  H1205  1  0.864600  0.365700  0.833400  1.0
  H  H1206  1  0.968800  0.467700  0.833400  1.0
  H  H1207  1  0.634300  0.031200  0.166600  1.0
  H  H1208  1  0.532300  0.135400  0.166600  1.0
  H  H1209  1  0.889400  0.303100  0.868000  1.0
  H  H1210  1  0.978600  0.564900  0.868000  1.0
  H  H1211  1  0.696900  0.021400  0.132000  1.0
  H  H1212  1  0.435100  0.110600  0.132000  1.0
  H  H1213  1  0.916800  0.349600  0.932800  1.0
  H  H1214  1  0.016000  0.583200  0.932800  1.0
  H  H1215  1  0.650400  0.984000  0.067200  1.0
  H  H1216  1  0.416800  0.083200  0.067200  1.0
  H  H1217  1  0.986100  0.511100  0.103200  1.0
  H  H1218  1  0.117100  0.592100  0.103200  1.0
  H  H1219  1  0.488900  0.882900  0.896800  1.0
  H  H1220  1  0.407900  0.013900  0.896800  1.0
  H  H1221  1  0.023200  0.529900  0.167200  1.0
  H  H1222  1  0.144000  0.637300  0.167200  1.0
  H  H1223  1  0.470100  0.856000  0.832800  1.0
  H  H1224  1  0.362700  0.976800  0.832800  1.0
  H  H1225  1  0.024800  0.434500  0.130800  1.0
  H  H1226  1  0.106000  0.696300  0.130800  1.0
  H  H1227  1  0.565500  0.894000  0.869200  1.0
  H  H1228  1  0.303700  0.975200  0.869200  1.0
  H  H1229  1  0.986200  0.416200  0.066400  1.0
  H  H1230  1  0.080200  0.650200  0.066400  1.0
  H  H1231  1  0.583800  0.919800  0.933600  1.0
  H  H1232  1  0.349800  0.013800  0.933600  1.0
  H  H1233  1  0.935600  0.508600  0.989200  1.0
  H  H1234  1  0.053600  0.480600  0.989200  1.0
  H  H1235  1  0.491400  0.946400  0.010800  1.0
  H  H1236  1  0.519400  0.064400  0.010800  1.0
  H  H1237  1  0.896500  0.504400  0.966400  1.0
  H  H1238  1  0.069900  0.462000  0.966400  1.0
  H  H1239  1  0.495600  0.930100  0.033600  1.0
  H  H1240  1  0.538000  0.103500  0.033600  1.0
  H  H1241  1  0.892300  0.496700  0.009000  1.0
  H  H1242  1  0.116700  0.512300  0.009000  1.0
  H  H1243  1  0.503300  0.883300  0.991000  1.0
  H  H1244  1  0.487700  0.107700  0.991000  1.0
  H  H1245  1  0.918200  0.532900  0.031600  1.0
  H  H1246  1  0.113400  0.498700  0.031600  1.0
  H  H1247  1  0.467100  0.886600  0.968400  1.0
  H  H1248  1  0.501300  0.081800  0.968400  1.0
  H  H1249  1  0.679600  0.893600  0.406600  1.0
  H  H1250  1  0.727000  0.513000  0.406600  1.0
  H  H1251  1  0.106400  0.273000  0.593400  1.0
  H  H1252  1  0.487000  0.320400  0.593400  1.0
  H  H1253  1  0.729900  0.923600  0.424400  1.0
  H  H1254  1  0.694500  0.500800  0.424400  1.0
  H  H1255  1  0.076400  0.305500  0.575600  1.0
  H  H1256  1  0.499200  0.270100  0.575600  1.0
  H  H1257  1  0.775300  0.935800  0.526800  1.0
  H  H1258  1  0.751500  0.591000  0.526800  1.0
  H  H1259  1  0.064200  0.248500  0.473200  1.0
  H  H1260  1  0.409000  0.224700  0.473200  1.0
  H  H1261  1  0.723900  0.905700  0.508000  1.0
  H  H1262  1  0.784100  0.602300  0.508000  1.0
  H  H1263  1  0.094300  0.215900  0.492000  1.0
  H  H1264  1  0.397700  0.276100  0.492000  1.0
  H  H1265  1  0.551700  0.817300  0.405800  1.0
  H  H1266  1  0.854100  0.588500  0.405800  1.0
  H  H1267  1  0.182700  0.145900  0.594200  1.0
  H  H1268  1  0.411500  0.448300  0.594200  1.0
  H  H1269  1  0.522700  0.796600  0.421800  1.0
  H  H1270  1  0.899100  0.625200  0.421800  1.0
  H  H1271  1  0.203400  0.100900  0.578200  1.0
  H  H1272  1  0.374800  0.477300  0.578200  1.0
  H  H1273  1  0.610900  0.831500  0.523200  1.0
  H  H1274  1  0.912300  0.691700  0.523200  1.0
  H  H1275  1  0.168500  0.087700  0.476800  1.0
  H  H1276  1  0.308300  0.389100  0.476800  1.0
  H  H1277  1  0.640100  0.848700  0.504200  1.0
  H  H1278  1  0.864100  0.655500  0.504200  1.0
  H  H1279  1  0.151300  0.135900  0.495800  1.0
  H  H1280  1  0.344500  0.359900  0.495800  1.0
  H  H1281  1  0.578500  0.877500  0.363200  1.0
  H  H1282  1  0.784700  0.485700  0.363200  1.0
  H  H1283  1  0.122500  0.215300  0.636800  1.0
  H  H1284  1  0.514300  0.421500  0.636800  1.0
  H  H1285  1  0.581100  0.854400  0.327800  1.0
  H  H1286  1  0.746700  0.473400  0.327800  1.0
  H  H1287  1  0.145600  0.253300  0.672200  1.0
  H  H1288  1  0.526600  0.418900  0.672200  1.0
  H  H1289  1  0.574000  0.808300  0.332600  1.0
  H  H1290  1  0.758600  0.524300  0.332600  1.0
  H  H1291  1  0.191700  0.241400  0.667400  1.0
  H  H1292  1  0.475700  0.426000  0.667400  1.0
  H  H1293  1  0.541900  0.820900  0.323200  1.0
  H  H1294  1  0.781300  0.502300  0.323200  1.0
  H  H1295  1  0.179100  0.218700  0.676800  1.0
  H  H1296  1  0.497700  0.458100  0.676800  1.0
  H  H1297  1  0.734100  0.289100  0.755800  1.0
  H  H1298  1  0.021700  0.466700  0.755800  1.0
  H  H1299  1  0.710900  0.978300  0.244200  1.0
  H  H1300  1  0.533300  0.265900  0.244200  1.0
  H  H1301  1  0.784300  0.305500  0.763600  1.0
  H  H1302  1  0.979300  0.458100  0.763600  1.0
  H  H1303  1  0.694500  0.020700  0.236400  1.0
  H  H1304  1  0.541900  0.215700  0.236400  1.0
  H  H1305  1  0.821400  0.252100  0.808800  1.0
  H  H1306  1  0.987400  0.556700  0.808800  1.0
  H  H1307  1  0.747900  0.012600  0.191200  1.0
  H  H1308  1  0.443300  0.178600  0.191200  1.0
  H  H1309  1  0.770000  0.235400  0.800000  1.0
  H  H1310  1  0.030000  0.564600  0.800000  1.0
  H  H1311  1  0.764600  0.970000  0.200000  1.0
  H  H1312  1  0.435400  0.230000  0.200000  1.0
  H  H1313  1  0.603600  0.211100  0.749800  1.0
  H  H1314  1  0.146200  0.538700  0.749800  1.0
  H  H1315  1  0.788900  0.853800  0.250200  1.0
  H  H1316  1  0.461300  0.396400  0.250200  1.0
  H  H1317  1  0.573000  0.183300  0.759200  1.0
  H  H1318  1  0.186200  0.575900  0.759200  1.0
  H  H1319  1  0.816700  0.813800  0.240800  1.0
  H  H1320  1  0.424100  0.427000  0.240800  1.0
  H  H1321  1  0.656500  0.163800  0.816400  1.0
  H  H1322  1  0.159900  0.652600  0.816400  1.0
  H  H1323  1  0.836200  0.840100  0.183600  1.0
  H  H1324  1  0.347400  0.343500  0.183600  1.0
  H  H1325  1  0.687000  0.192500  0.807000  1.0
  H  H1326  1  0.120000  0.614500  0.807000  1.0
  H  H1327  1  0.807500  0.880000  0.193000  1.0
  H  H1328  1  0.385500  0.313000  0.193000  1.0
  H  H1329  1  0.634400  0.271100  0.690400  1.0
  H  H1330  1  0.056000  0.419300  0.690400  1.0
  H  H1331  1  0.728900  0.944000  0.309600  1.0
  H  H1332  1  0.580700  0.365600  0.309600  1.0
  H  H1333  1  0.629000  0.232700  0.676800  1.0
  H  H1334  1  0.047800  0.444100  0.676800  1.0
  H  H1335  1  0.767300  0.952200  0.323200  1.0
  H  H1336  1  0.555900  0.371000  0.323200  1.0
  H  H1337  1  0.595000  0.255200  0.699000  1.0
  H  H1338  1  0.104000  0.443800  0.699000  1.0
  H  H1339  1  0.744800  0.896000  0.301000  1.0
  H  H1340  1  0.556200  0.405000  0.301000  1.0
  H  H1341  1  0.628200  0.283100  0.740200  1.0
  H  H1342  1  0.112000  0.457100  0.740200  1.0
  H  H1343  1  0.716900  0.888000  0.259800  1.0
  H  H1344  1  0.542900  0.371800  0.259800  1.0
  H  H1345  1  0.488500  0.892200  0.504400  1.0
  H  H1346  1  0.015900  0.612200  0.504400  1.0
  H  H1347  1  0.107800  0.984100  0.495600  1.0
  H  H1348  1  0.387800  0.511500  0.495600  1.0
  H  H1349  1  0.494300  0.839300  0.475200  1.0
  H  H1350  1  0.980900  0.635900  0.475200  1.0
  H  H1351  1  0.160700  0.019100  0.524800  1.0
  H  H1352  1  0.364100  0.505700  0.524800  1.0
  H  H1353  1  0.582900  0.871700  0.575600  1.0
  H  H1354  1  0.992700  0.703900  0.575600  1.0
  H  H1355  1  0.128300  0.007300  0.424400  1.0
  H  H1356  1  0.296100  0.417100  0.424400  1.0
  H  H1357  1  0.577700  0.926000  0.603200  1.0
  H  H1358  1  0.025500  0.677200  0.603200  1.0
  H  H1359  1  0.074000  0.974500  0.396800  1.0
  H  H1360  1  0.322800  0.422300  0.396800  1.0
  H  H1361  1  0.509300  0.058600  0.647200  1.0
  H  H1362  1  0.137900  0.588600  0.647200  1.0
  H  H1363  1  0.941400  0.862100  0.352800  1.0
  H  H1364  1  0.411400  0.490700  0.352800  1.0
  H  H1365  1  0.526800  0.106900  0.706800  1.0
  H  H1366  1  0.180000  0.599900  0.706800  1.0
  H  H1367  1  0.893100  0.820000  0.293200  1.0
  H  H1368  1  0.400100  0.473200  0.293200  1.0
  H  H1369  1  0.608300  0.081400  0.756800  1.0
  H  H1370  1  0.148500  0.675400  0.756800  1.0
  H  H1371  1  0.918600  0.851500  0.243200  1.0
  H  H1372  1  0.324600  0.391700  0.243200  1.0
  H  H1373  1  0.590000  0.032900  0.696000  1.0
  H  H1374  1  0.106000  0.663100  0.696000  1.0
  H  H1375  1  0.967100  0.894000  0.304000  1.0
  H  H1376  1  0.336900  0.410000  0.304000  1.0
  H  H1377  1  0.429700  0.948000  0.489800  1.0
  H  H1378  1  0.060100  0.541800  0.489800  1.0
  H  H1379  1  0.052000  0.939900  0.510200  1.0
  H  H1380  1  0.458200  0.570300  0.510200  1.0
  H  H1381  1  0.434400  0.953100  0.527000  1.0
  H  H1382  1  0.092600  0.573900  0.527000  1.0
  H  H1383  1  0.046900  0.907400  0.473000  1.0
  H  H1384  1  0.426100  0.565600  0.473000  1.0
  H  H1385  1  0.441000  0.005200  0.533600  1.0
  H  H1386  1  0.092600  0.528400  0.533600  1.0
  H  H1387  1  0.994800  0.907400  0.466400  1.0
  H  H1388  1  0.471600  0.559000  0.466400  1.0
  H  H1389  1  0.471700  0.001000  0.529200  1.0
  H  H1390  1  0.057500  0.528200  0.529200  1.0
  H  H1391  1  0.999000  0.942500  0.470800  1.0
  H  H1392  1  0.471800  0.528300  0.470800  1.0
  H  H1393  1  0.589000  0.551100  0.406600  1.0
  H  H1394  1  0.817600  0.855500  0.406600  1.0
  H  H1395  1  0.448900  0.182400  0.593400  1.0
  H  H1396  1  0.144500  0.411000  0.593400  1.0
  H  H1397  1  0.623400  0.522500  0.427800  1.0
  H  H1398  1  0.804400  0.905300  0.427800  1.0
  H  H1399  1  0.477500  0.195600  0.572200  1.0
  H  H1400  1  0.094700  0.376600  0.572200  1.0
  H  H1401  1  0.688200  0.612200  0.528800  1.0
  H  H1402  1  0.840600  0.916600  0.528800  1.0
  H  H1403  1  0.387800  0.159400  0.471200  1.0
  H  H1404  1  0.083400  0.311800  0.471200  1.0
  H  H1405  1  0.652700  0.640400  0.506000  1.0
  H  H1406  1  0.853300  0.865600  0.506000  1.0
  H  H1407  1  0.359600  0.146700  0.494000  1.0
  H  H1408  1  0.134400  0.347300  0.494000  1.0
  H  H1409  1  0.517300  0.682600  0.405600  1.0
  H  H1410  1  0.888300  0.723000  0.405600  1.0
  H  H1411  1  0.317400  0.111700  0.594400  1.0
  H  H1412  1  0.277000  0.482700  0.594400  1.0
  H  H1413  1  0.508300  0.734400  0.424600  1.0
  H  H1414  1  0.916300  0.690200  0.424600  1.0
  H  H1415  1  0.265600  0.083700  0.575400  1.0
  H  H1416  1  0.309800  0.491700  0.575400  1.0
  H  H1417  1  0.598600  0.776400  0.526600  1.0
  H  H1418  1  0.928000  0.750200  0.526600  1.0
  H  H1419  1  0.223600  0.072000  0.473400  1.0
  H  H1420  1  0.249800  0.401400  0.473400  1.0
  H  H1421  1  0.605100  0.722600  0.507600  1.0
  H  H1422  1  0.902500  0.785000  0.507600  1.0
  H  H1423  1  0.277400  0.097500  0.492400  1.0
  H  H1424  1  0.215000  0.394900  0.492400  1.0
  H  H1425  1  0.540700  0.581900  0.330000  1.0
  H  H1426  1  0.789300  0.748100  0.330000  1.0
  H  H1427  1  0.418100  0.210700  0.670000  1.0
  H  H1428  1  0.251900  0.459300  0.670000  1.0
  H  H1429  1  0.515200  0.547900  0.313200  1.0
  H  H1430  1  0.798000  0.765300  0.313200  1.0
  H  H1431  1  0.452100  0.202000  0.686800  1.0
  H  H1432  1  0.234700  0.484800  0.686800  1.0
  H  H1433  1  0.489900  0.579400  0.343400  1.0
  H  H1434  1  0.853500  0.764000  0.343400  1.0
  H  H1435  1  0.420600  0.146500  0.656600  1.0
  H  H1436  1  0.236000  0.510100  0.656600  1.0
  H  H1437  1  0.487800  0.588400  0.315200  1.0
  H  H1438  1  0.827400  0.726800  0.315200  1.0
  H  H1439  1  0.411600  0.172600  0.684800  1.0
  H  H1440  1  0.273200  0.512200  0.684800  1.0
  H  H1441  1  0.586700  0.235800  0.897200  1.0
  H  H1442  1  0.310500  0.661400  0.897200  1.0
  H  H1443  1  0.764200  0.689500  0.102800  1.0
  H  H1444  1  0.338600  0.413300  0.102800  1.0
  H  H1445  1  0.563700  0.192000  0.833200  1.0
  H  H1446  1  0.269500  0.641200  0.833200  1.0
  H  H1447  1  0.808000  0.730500  0.166800  1.0
  H  H1448  1  0.358800  0.436300  0.166800  1.0
  H  H1449  1  0.648000  0.165500  0.869000  1.0
  H  H1450  1  0.221000  0.703500  0.869000  1.0
  H  H1451  1  0.834500  0.779000  0.131000  1.0
  H  H1452  1  0.296500  0.352000  0.131000  1.0
  H  H1453  1  0.669600  0.208600  0.933800  1.0
  H  H1454  1  0.264200  0.725200  0.933800  1.0
  H  H1455  1  0.791400  0.735800  0.066200  1.0
  H  H1456  1  0.274800  0.330400  0.066200  1.0
  H  H1457  1  0.696200  0.345600  0.103200  1.0
  H  H1458  1  0.407000  0.757600  0.103200  1.0
  H  H1459  1  0.654400  0.593000  0.896800  1.0
  H  H1460  1  0.242400  0.303800  0.896800  1.0
  H  H1461  1  0.738900  0.368400  0.167400  1.0
  H  H1462  1  0.428500  0.799000  0.167400  1.0
  H  H1463  1  0.631600  0.571500  0.832600  1.0
  H  H1464  1  0.201000  0.261100  0.832600  1.0
  H  H1465  1  0.778900  0.295400  0.131000  1.0
  H  H1466  1  0.352100  0.835600  0.131000  1.0
  H  H1467  1  0.704600  0.647900  0.869000  1.0
  H  H1468  1  0.164400  0.221100  0.869000  1.0
  H  H1469  1  0.734000  0.271900  0.066400  1.0
  H  H1470  1  0.332400  0.794500  0.066400  1.0
  H  H1471  1  0.728100  0.667600  0.933600  1.0
  H  H1472  1  0.205500  0.266000  0.933600  1.0
  H  H1473  1  0.628900  0.342200  0.990200  1.0
  H  H1474  1  0.361300  0.648000  0.990200  1.0
  H  H1475  1  0.657800  0.638700  0.009800  1.0
  H  H1476  1  0.352000  0.371100  0.009800  1.0
  H  H1477  1  0.589000  0.330500  0.969200  1.0
  H  H1478  1  0.380200  0.638700  0.969200  1.0
  H  H1479  1  0.669500  0.619800  0.030800  1.0
  H  H1480  1  0.361300  0.411000  0.030800  1.0
  H  H1481  1  0.596900  0.316300  0.012800  1.0
  H  H1482  1  0.415900  0.696500  0.012800  1.0
  H  H1483  1  0.683700  0.584100  0.987200  1.0
  H  H1484  1  0.303500  0.403100  0.987200  1.0
  H  H1485  1  0.614200  0.355500  0.034800  1.0
  H  H1486  1  0.420600  0.679300  0.034800  1.0
  H  H1487  1  0.644500  0.579400  0.965200  1.0
  H  H1488  1  0.320700  0.385800  0.965200  1.0
  H  H1489  1  0.448500  0.780600  0.507600  1.0
  H  H1490  1  0.059100  0.727000  0.507600  1.0
  H  H1491  1  0.219400  0.940900  0.492400  1.0
  H  H1492  1  0.273000  0.551500  0.492400  1.0
  H  H1493  1  0.470700  0.781400  0.474800  1.0
  H  H1494  1  0.004100  0.693400  0.474800  1.0
  H  H1495  1  0.218600  0.995900  0.525200  1.0
  H  H1496  1  0.306600  0.529300  0.525200  1.0
  H  H1497  1  0.563600  0.801300  0.563800  1.0
  H  H1498  1  0.000200  0.762500  0.563800  1.0
  H  H1499  1  0.198700  0.999800  0.436200  1.0
  H  H1500  1  0.237500  0.436400  0.436200  1.0
  H  H1501  1  0.540500  0.803600  0.597800  1.0
  H  H1502  1  0.057300  0.794200  0.597800  1.0
  H  H1503  1  0.196400  0.942700  0.402200  1.0
  H  H1504  1  0.205800  0.459500  0.402200  1.0
  H  H1505  1  0.430000  0.804000  0.652400  1.0
  H  H1506  1  0.222400  0.848400  0.652400  1.0
  H  H1507  1  0.196000  0.777600  0.347600  1.0
  H  H1508  1  0.151600  0.570000  0.347600  1.0
  H  H1509  1  0.440200  0.821200  0.711400  1.0
  H  H1510  1  0.271200  0.890200  0.711400  1.0
  H  H1511  1  0.178800  0.728800  0.288600  1.0
  H  H1512  1  0.109800  0.559800  0.288600  1.0
  H  H1513  1  0.539500  0.835700  0.754000  1.0
  H  H1514  1  0.214500  0.918300  0.754000  1.0
  H  H1515  1  0.164300  0.785500  0.246000  1.0
  H  H1516  1  0.081700  0.460500  0.246000  1.0
  H  H1517  1  0.526700  0.810800  0.691200  1.0
  H  H1518  1  0.164500  0.880400  0.691200  1.0
  H  H1519  1  0.189200  0.835500  0.308800  1.0
  H  H1520  1  0.119600  0.473300  0.308800  1.0
  H  H1521  1  0.364400  0.756400  0.496200  1.0
  H  H1522  1  0.131800  0.739800  0.496200  1.0
  H  H1523  1  0.243600  0.868200  0.503800  1.0
  H  H1524  1  0.260200  0.635600  0.503800  1.0
  H  H1525  1  0.382000  0.736900  0.515200  1.0
  H  H1526  1  0.133200  0.778300  0.515200  1.0
  H  H1527  1  0.263100  0.866800  0.484800  1.0
  H  H1528  1  0.221700  0.618000  0.484800  1.0
  H  H1529  1  0.358400  0.772400  0.546400  1.0
  H  H1530  1  0.188000  0.774000  0.546400  1.0
  H  H1531  1  0.227600  0.812000  0.453600  1.0
  H  H1532  1  0.226000  0.641600  0.453600  1.0
  H  H1533  1  0.382500  0.804300  0.557800  1.0
  H  H1534  1  0.175300  0.753500  0.557800  1.0
  H  H1535  1  0.195700  0.824700  0.442200  1.0
  H  H1536  1  0.246500  0.617500  0.442200  1.0
  H  H1537  1  0.490300  0.077700  0.774600  1.0
  H  H1538  1  0.284300  0.696900  0.774600  1.0
  H  H1539  1  0.922300  0.715700  0.225400  1.0
  H  H1540  1  0.303100  0.509700  0.225400  1.0
  H  H1541  1  0.516700  0.117300  0.773600  1.0
  H  H1542  1  0.256900  0.656300  0.773600  1.0
  H  H1543  1  0.882700  0.743100  0.226400  1.0
  H  H1544  1  0.343700  0.483300  0.226400  1.0
  H  H1545  1  0.600100  0.089100  0.808400  1.0
  H  H1546  1  0.208300  0.719300  0.808400  1.0
  H  H1547  1  0.910900  0.791700  0.191600  1.0
  H  H1548  1  0.280700  0.399900  0.191600  1.0
  H  H1549  1  0.572100  0.048700  0.808400  1.0
  H  H1550  1  0.236300  0.759700  0.808400  1.0
  H  H1551  1  0.951300  0.763700  0.191600  1.0
  H  H1552  1  0.240300  0.427900  0.191600  1.0
  H  H1553  1  0.446200  0.930200  0.764800  1.0
  H  H1554  1  0.318600  0.834600  0.764800  1.0
  H  H1555  1  0.069800  0.681400  0.235200  1.0
  H  H1556  1  0.165400  0.553800  0.235200  1.0
  H  H1557  1  0.446900  0.881100  0.763200  1.0
  H  H1558  1  0.316300  0.882100  0.763200  1.0
  H  H1559  1  0.118900  0.683700  0.236800  1.0
  H  H1560  1  0.117900  0.553100  0.236800  1.0
  H  H1561  1  0.548400  0.911900  0.818400  1.0
  H  H1562  1  0.270000  0.906500  0.818400  1.0
  H  H1563  1  0.088100  0.730000  0.181600  1.0
  H  H1564  1  0.093500  0.451600  0.181600  1.0
  H  H1565  1  0.546900  0.962600  0.821800  1.0
  H  H1566  1  0.274900  0.859200  0.821800  1.0
  H  H1567  1  0.037400  0.725100  0.178200  1.0
  H  H1568  1  0.140800  0.453100  0.178200  1.0
  H  H1569  1  0.402800  0.031900  0.743200  1.0
  H  H1570  1  0.340400  0.711300  0.743200  1.0
  H  H1571  1  0.968100  0.659600  0.256800  1.0
  H  H1572  1  0.288700  0.597200  0.256800  1.0
  H  H1573  1  0.407500  0.998100  0.717600  1.0
  H  H1574  1  0.310100  0.719500  0.717600  1.0
  H  H1575  1  0.001900  0.689900  0.282400  1.0
  H  H1576  1  0.280500  0.592500  0.282400  1.0
  H  H1577  1  0.391900  0.992400  0.754200  1.0
  H  H1578  1  0.362300  0.761800  0.754200  1.0
  H  H1579  1  0.007600  0.637700  0.245800  1.0
  H  H1580  1  0.238200  0.608100  0.245800  1.0
  H  H1581  1  0.425000  0.022800  0.792600  1.0
  H  H1582  1  0.367600  0.769800  0.792600  1.0
  H  H1583  1  0.977200  0.632400  0.207400  1.0
  H  H1584  1  0.230200  0.575000  0.207400  1.0
  H  H1585  1  0.465400  0.732900  0.751800  1.0
  H  H1586  1  0.286400  0.018900  0.751800  1.0
  H  H1587  1  0.267100  0.713600  0.248200  1.0
  H  H1588  1  0.981100  0.534600  0.248200  1.0
  H  H1589  1  0.457200  0.782700  0.757800  1.0
  H  H1590  1  0.300600  0.975100  0.757800  1.0
  H  H1591  1  0.217300  0.699400  0.242200  1.0
  H  H1592  1  0.024900  0.542800  0.242200  1.0
  H  H1593  1  0.558100  0.822800  0.816000  1.0
  H  H1594  1  0.257900  0.993200  0.816000  1.0
  H  H1595  1  0.177200  0.742100  0.184000  1.0
  H  H1596  1  0.006800  0.441900  0.184000  1.0
  H  H1597  1  0.565700  0.773200  0.813000  1.0
  H  H1598  1  0.247300  0.039800  0.813000  1.0
  H  H1599  1  0.226800  0.752700  0.187000  1.0
  H  H1600  1  0.960200  0.434300  0.187000  1.0
  H  H1601  1  0.540600  0.605200  0.756600  1.0
  H  H1602  1  0.216000  0.151400  0.756600  1.0
  H  H1603  1  0.394800  0.784000  0.243400  1.0
  H  H1604  1  0.848600  0.459400  0.243400  1.0
  H  H1605  1  0.578000  0.574500  0.762200  1.0
  H  H1606  1  0.184200  0.187700  0.762200  1.0
  H  H1607  1  0.425500  0.815800  0.237800  1.0
  H  H1608  1  0.812300  0.422000  0.237800  1.0
  H  H1609  1  0.651100  0.655700  0.807200  1.0
  H  H1610  1  0.156100  0.151500  0.807200  1.0
  H  H1611  1  0.344300  0.843900  0.192800  1.0
  H  H1612  1  0.848500  0.348900  0.192800  1.0
  H  H1613  1  0.613100  0.687000  0.804000  1.0
  H  H1614  1  0.190900  0.117000  0.804000  1.0
  H  H1615  1  0.313000  0.809100  0.196000  1.0
  H  H1616  1  0.883000  0.386900  0.196000  1.0
  H  H1617  1  0.423300  0.643600  0.725600  1.0
  H  H1618  1  0.302300  0.082000  0.725600  1.0
  H  H1619  1  0.356400  0.697700  0.274400  1.0
  H  H1620  1  0.918000  0.576700  0.274400  1.0
  H  H1621  1  0.437700  0.631200  0.699800  1.0
  H  H1622  1  0.262100  0.068600  0.699800  1.0
  H  H1623  1  0.368800  0.737900  0.300200  1.0
  H  H1624  1  0.931400  0.562300  0.300200  1.0
  H  H1625  1  0.449500  0.604100  0.731400  1.0
  H  H1626  1  0.281900  0.127300  0.731400  1.0
  H  H1627  1  0.395900  0.718100  0.268600  1.0
  H  H1628  1  0.872700  0.550500  0.268600  1.0
  H  H1629  1  0.469500  0.639700  0.771800  1.0
  H  H1630  1  0.302300  0.132100  0.771800  1.0
  H  H1631  1  0.360300  0.697700  0.228200  1.0
  H  H1632  1  0.867900  0.530500  0.228200  1.0
  N  N1633  1  0.099730  0.163730  0.735860  1.0
  N  N1634  1  0.636130  0.572130  0.735860  1.0
  N  N1635  1  0.836270  0.363870  0.264140  1.0
  N  N1636  1  0.427870  0.900270  0.264140  1.0
  N  N1637  1  0.849800  0.983300  0.514600  1.0
  N  N1638  1  0.664800  0.531300  0.514600  1.0
  N  N1639  1  0.016700  0.335200  0.485400  1.0
  N  N1640  1  0.468700  0.150200  0.485400  1.0
  N  N1641  1  0.109900  0.234500  0.796800  1.0
  N  N1642  1  0.686900  0.562300  0.796800  1.0
  N  N1643  1  0.765500  0.313100  0.203200  1.0
  N  N1644  1  0.437700  0.890100  0.203200  1.0
  N  N1645  1  0.897020  0.297300  0.798600  1.0
  N  N1646  1  0.901580  0.501300  0.798600  1.0
  N  N1647  1  0.702700  0.098420  0.201400  1.0
  N  N1648  1  0.498700  0.102980  0.201400  1.0
  N  N1649  1  0.793700  0.998900  0.520600  1.0
  N  N1650  1  0.726900  0.521700  0.520600  1.0
  N  N1651  1  0.001100  0.273100  0.479400  1.0
  N  N1652  1  0.478300  0.206300  0.479400  1.0
  N  N1653  1  0.826790  0.245390  0.736580  1.0
  N  N1654  1  0.909790  0.491190  0.736580  1.0
  N  N1655  1  0.754610  0.090210  0.263420  1.0
  N  N1656  1  0.508810  0.173210  0.263420  1.0
  N  N1657  1  0.874280  0.331480  0.846360  1.0
  N  N1658  1  0.972080  0.514880  0.846360  1.0
  N  N1659  1  0.668520  0.027920  0.153640  1.0
  N  N1660  1  0.485120  0.125720  0.153640  1.0
  N  N1661  1  0.027690  0.483790  0.153380  1.0
  N  N1662  1  0.125690  0.669590  0.153380  1.0
  N  N1663  1  0.516210  0.874310  0.846620  1.0
  N  N1664  1  0.330410  0.972310  0.846620  1.0
  N  N1665  1  0.756700  0.931500  0.476800  1.0
  N  N1666  1  0.720100  0.545300  0.476800  1.0
  N  N1667  1  0.068500  0.279900  0.523200  1.0
  N  N1668  1  0.454700  0.243300  0.523200  1.0
  N  N1669  1  0.564400  0.813600  0.474400  1.0
  N  N1670  1  0.910000  0.660800  0.474400  1.0
  N  N1671  1  0.186400  0.090000  0.525600  1.0
  N  N1672  1  0.339200  0.435600  0.525600  1.0
  N  N1673  1  0.806300  0.279300  0.786000  1.0
  N  N1674  1  0.979700  0.506700  0.786000  1.0
  N  N1675  1  0.720700  0.020300  0.214000  1.0
  N  N1676  1  0.493300  0.193700  0.214000  1.0
  N  N1677  1  0.612200  0.170200  0.786800  1.0
  N  N1678  1  0.174600  0.616600  0.786800  1.0
  N  N1679  1  0.829800  0.825400  0.213200  1.0
  N  N1680  1  0.383400  0.387800  0.213200  1.0
  N  N1681  1  0.539600  0.852100  0.522600  1.0
  N  N1682  1  0.983000  0.670500  0.522600  1.0
  N  N1683  1  0.147900  0.017000  0.477400  1.0
  N  N1684  1  0.329500  0.460400  0.477400  1.0
  N  N1685  1  0.568130  0.096930  0.736060  1.0
  N  N1686  1  0.167930  0.639130  0.736060  1.0
  N  N1687  1  0.903070  0.832070  0.263940  1.0
  N  N1688  1  0.360870  0.431870  0.263940  1.0
  N  N1689  1  0.659400  0.565600  0.478200  1.0
  N  N1690  1  0.818800  0.912600  0.478200  1.0
  N  N1691  1  0.434400  0.181200  0.521800  1.0
  N  N1692  1  0.087400  0.340600  0.521800  1.0
  N  N1693  1  0.553000  0.759300  0.476800  1.0
  N  N1694  1  0.923800  0.717500  0.476800  1.0
  N  N1695  1  0.240700  0.076200  0.523200  1.0
  N  N1696  1  0.282500  0.447000  0.523200  1.0
  N  N1697  1  0.604920  0.176820  0.846640  1.0
  N  N1698  1  0.241720  0.669820  0.846640  1.0
  N  N1699  1  0.823180  0.758280  0.153360  1.0
  N  N1700  1  0.330180  0.395080  0.153360  1.0
  N  N1701  1  0.760680  0.332480  0.153560  1.0
  N  N1702  1  0.392880  0.821080  0.153560  1.0
  N  N1703  1  0.667520  0.607120  0.846440  1.0
  N  N1704  1  0.178920  0.239320  0.846440  1.0
  N  N1705  1  0.518700  0.793300  0.518200  1.0
  N  N1706  1  0.999500  0.724900  0.518200  1.0
  N  N1707  1  0.206700  0.000500  0.481800  1.0
  N  N1708  1  0.275100  0.481300  0.481800  1.0
  N  N1709  1  0.490380  0.828580  0.736160  1.0
  N  N1710  1  0.245780  0.907580  0.736160  1.0
  N  N1711  1  0.171420  0.754220  0.263840  1.0
  N  N1712  1  0.092420  0.509620  0.263840  1.0
  N  N1713  1  0.559800  0.105400  0.790000  1.0
  N  N1714  1  0.230200  0.684600  0.790000  1.0
  N  N1715  1  0.894600  0.769800  0.210000  1.0
  N  N1716  1  0.315400  0.440200  0.210000  1.0
  N  N1717  1  0.497700  0.893570  0.791800  1.0
  N  N1718  1  0.294100  0.898230  0.791800  1.0
  N  N1719  1  0.106430  0.705900  0.208200  1.0
  N  N1720  1  0.101770  0.502300  0.208200  1.0
  N  N1721  1  0.507200  0.806620  0.787800  1.0
  N  N1722  1  0.280600  0.981180  0.787800  1.0
  N  N1723  1  0.193380  0.719400  0.212200  1.0
  N  N1724  1  0.018820  0.492800  0.212200  1.0
  N  N1725  1  0.616900  0.612700  0.784200  1.0
  N  N1726  1  0.167300  0.171500  0.784200  1.0
  N  N1727  1  0.387300  0.832700  0.215800  1.0
  N  N1728  1  0.828500  0.383100  0.215800  1.0
  O  O1729  1  0.001600  0.120500  0.591000  1.0
  O  O1730  1  0.589400  0.470500  0.591000  1.0
  O  O1731  1  0.879500  0.410600  0.409000  1.0
  O  O1732  1  0.529500  0.998400  0.409000  1.0
  O  O1733  1  0.933590  0.070090  0.530380  1.0
  O  O1734  1  0.596790  0.460290  0.530380  1.0
  O  O1735  1  0.929910  0.403210  0.469620  1.0
  O  O1736  1  0.539710  0.066410  0.469620  1.0
  O  O1737  1  0.026600  0.296700  0.747400  1.0
  O  O1738  1  0.720800  0.450700  0.747400  1.0
  O  O1739  1  0.703300  0.279200  0.252600  1.0
  O  O1740  1  0.549300  0.973400  0.252600  1.0
  O  O1741  1  0.967000  0.313400  0.746800  1.0
  O  O1742  1  0.779800  0.433400  0.746800  1.0
  O  O1743  1  0.686600  0.220200  0.253200  1.0
  O  O1744  1  0.566600  0.033000  0.253200  1.0
  O  O1745  1  0.751370  0.103370  0.522940  1.0
  O  O1746  1  0.771570  0.419570  0.522940  1.0
  O  O1747  1  0.896630  0.228430  0.477060  1.0
  O  O1748  1  0.580430  0.248630  0.477060  1.0
  O  O1749  1  0.761200  0.171900  0.583000  1.0
  O  O1750  1  0.821800  0.411100  0.583000  1.0
  O  O1751  1  0.828100  0.178200  0.417000  1.0
  O  O1752  1  0.588900  0.238800  0.417000  1.0
  O  O1753  1  0.904700  0.458000  0.956800  1.0
  O  O1754  1  0.052100  0.498800  0.956800  1.0
  O  O1755  1  0.542000  0.947900  0.043200  1.0
  O  O1756  1  0.501200  0.095300  0.043200  1.0
  O  O1757  1  0.943400  0.499400  0.042000  1.0
  O  O1758  1  0.098600  0.542600  0.042000  1.0
  O  O1759  1  0.500600  0.901400  0.958000  1.0
  O  O1760  1  0.457400  0.056600  0.958000  1.0
  O  O1761  1  0.624600  0.866300  0.380600  1.0
  O  O1762  1  0.756000  0.514300  0.380600  1.0
  O  O1763  1  0.133700  0.244000  0.619400  1.0
  O  O1764  1  0.485700  0.375400  0.619400  1.0
  O  O1765  1  0.571300  0.835600  0.381200  1.0
  O  O1766  1  0.809900  0.545600  0.381200  1.0
  O  O1767  1  0.164400  0.190100  0.618800  1.0
  O  O1768  1  0.454400  0.428700  0.618800  1.0
  O  O1769  1  0.676900  0.265600  0.729800  1.0
  O  O1770  1  0.052900  0.464200  0.729800  1.0
  O  O1771  1  0.734400  0.947100  0.270200  1.0
  O  O1772  1  0.535800  0.323100  0.270200  1.0
  O  O1773  1  0.623100  0.234000  0.729000  1.0
  O  O1774  1  0.105900  0.495000  0.729000  1.0
  O  O1775  1  0.766000  0.894100  0.271000  1.0
  O  O1776  1  0.505000  0.376900  0.271000  1.0
  O  O1777  1  0.476220  0.943520  0.524040  1.0
  O  O1778  1  0.047820  0.580520  0.524040  1.0
  O  O1779  1  0.056480  0.952180  0.475960  1.0
  O  O1780  1  0.419480  0.523780  0.475960  1.0
  O  O1781  1  0.484700  0.012100  0.583000  1.0
  O  O1782  1  0.098300  0.570900  0.583000  1.0
  O  O1783  1  0.987900  0.901700  0.417000  1.0
  O  O1784  1  0.429100  0.515300  0.417000  1.0
  O  O1785  1  0.552640  0.574040  0.373480  1.0
  O  O1786  1  0.820840  0.799440  0.373480  1.0
  O  O1787  1  0.425960  0.179160  0.626520  1.0
  O  O1788  1  0.200560  0.447360  0.626520  1.0
  O  O1789  1  0.522750  0.628450  0.373700  1.0
  O  O1790  1  0.850950  0.745250  0.373700  1.0
  O  O1791  1  0.371550  0.149050  0.626300  1.0
  O  O1792  1  0.254750  0.477250  0.626300  1.0
  O  O1793  1  0.607700  0.288500  0.958200  1.0
  O  O1794  1  0.350500  0.669700  0.958200  1.0
  O  O1795  1  0.711500  0.649500  0.041800  1.0
  O  O1796  1  0.330300  0.392300  0.041800  1.0
  O  O1797  1  0.650300  0.329900  0.043600  1.0
  O  O1798  1  0.393300  0.713700  0.043600  1.0
  O  O1799  1  0.670100  0.606700  0.956400  1.0
  O  O1800  1  0.286300  0.349700  0.956400  1.0
  O  O1801  1  0.418080  0.775980  0.529760  1.0
  O  O1802  1  0.111680  0.753780  0.529760  1.0
  O  O1803  1  0.224020  0.888320  0.470240  1.0
  O  O1804  1  0.246220  0.581920  0.470240  1.0
  O  O1805  1  0.409700  0.784300  0.589800  1.0
  O  O1806  1  0.180100  0.805500  0.589800  1.0
  O  O1807  1  0.215700  0.819900  0.410200  1.0
  O  O1808  1  0.194500  0.590300  0.410200  1.0
  O  O1809  1  0.454500  0.037100  0.764600  1.0
  O  O1810  1  0.310100  0.727500  0.764600  1.0
  O  O1811  1  0.962900  0.689900  0.235400  1.0
  O  O1812  1  0.272500  0.545500  0.235400  1.0
  O  O1813  1  0.436400  0.978400  0.764800  1.0
  O  O1814  1  0.328400  0.786400  0.764800  1.0
  O  O1815  1  0.021600  0.671600  0.235200  1.0
  O  O1816  1  0.213600  0.563600  0.235200  1.0
  O  O1817  1  0.466000  0.681600  0.748800  1.0
  O  O1818  1  0.282800  0.067200  0.748800  1.0
  O  O1819  1  0.318400  0.717200  0.251200  1.0
  O  O1820  1  0.932800  0.534000  0.251200  1.0
  O  O1821  1  0.496800  0.627200  0.746200  1.0
  O  O1822  1  0.249400  0.119000  0.746200  1.0
  O  O1823  1  0.372800  0.750600  0.253800  1.0
  O  O1824  1  0.881000  0.503200  0.253800  1.0
  O  O1825  1  0.647700  0.937000  0.496800  1.0
  O  O1826  1  0.849100  0.559800  0.496800  1.0
  O  O1827  1  0.063000  0.150900  0.503200  1.0
  O  O1828  1  0.440200  0.352300  0.503200  1.0
  P  P1829  1  0.754400  0.936700  0.381800  1.0
  P  P1830  1  0.627400  0.445100  0.381800  1.0
  P  P1831  1  0.063300  0.372600  0.618200  1.0
  P  P1832  1  0.554900  0.245600  0.618200  1.0
  P  P1833  1  0.842200  0.963400  0.607800  1.0
  P  P1834  1  0.765600  0.644400  0.607800  1.0
  P  P1835  1  0.036600  0.234400  0.392200  1.0
  P  P1836  1  0.355600  0.157800  0.392200  1.0
  P  P1837  1  0.443300  0.765500  0.388000  1.0
  P  P1838  1  0.944700  0.622500  0.388000  1.0
  P  P1839  1  0.234500  0.055300  0.612000  1.0
  P  P1840  1  0.377500  0.556700  0.612000  1.0
  P  P1841  1  0.646700  0.855600  0.613400  1.0
  P  P1842  1  0.966700  0.757800  0.613400  1.0
  P  P1843  1  0.144400  0.033300  0.386600  1.0
  P  P1844  1  0.242200  0.353300  0.386600  1.0
  P  P1845  1  0.500900  0.164800  0.739400  1.0
  P  P1846  1  0.238500  0.574600  0.739400  1.0
  P  P1847  1  0.835200  0.761500  0.260600  1.0
  P  P1848  1  0.425400  0.499100  0.260600  1.0
  P  P1849  1  0.674600  0.107300  0.832600  1.0
  P  P1850  1  0.158000  0.725300  0.832600  1.0
  P  P1851  1  0.892700  0.842000  0.167400  1.0
  P  P1852  1  0.274700  0.325400  0.167400  1.0
  P  P1853  1  0.813600  0.351600  0.743000  1.0
  P  P1854  1  0.929400  0.391400  0.743000  1.0
  P  P1855  1  0.648400  0.070600  0.257000  1.0
  P  P1856  1  0.608600  0.186400  0.257000  1.0
  P  P1857  1  0.880600  0.226900  0.840400  1.0
  P  P1858  1  0.959800  0.613500  0.840400  1.0
  P  P1859  1  0.773100  0.040200  0.159600  1.0
  P  P1860  1  0.386500  0.119400  0.159600  1.0
  P  P1861  1  0.167160  0.247160  0.745320  1.0
  P  P1862  1  0.578160  0.498160  0.745320  1.0
  P  P1863  1  0.752840  0.421840  0.254680  1.0
  P  P1864  1  0.501840  0.832840  0.254680  1.0
  P  P1865  1  0.104300  0.161600  0.842000  1.0
  P  P1866  1  0.737700  0.680400  0.842000  1.0
  P  P1867  1  0.838400  0.262300  0.158000  1.0
  P  P1868  1  0.319600  0.895700  0.158000  1.0
  P  P1869  1  0.613800  0.891500  0.838800  1.0
  P  P1870  1  0.225000  0.947300  0.838800  1.0
  P  P1871  1  0.108500  0.775000  0.161200  1.0
  P  P1872  1  0.052700  0.386200  0.161200  1.0
  P  P1873  1  0.396600  0.816800  0.750800  1.0
  P  P1874  1  0.354200  0.934000  0.750800  1.0
  P  P1875  1  0.183200  0.645800  0.249200  1.0
  P  P1876  1  0.066000  0.603400  0.249200  1.0
  Pd  Pd1877  1  0.804570  0.954970  0.496440  1.0
  Pd  Pd1878  1  0.691870  0.541470  0.496440  1.0
  Pd  Pd1879  1  0.045030  0.308130  0.503560  1.0
  Pd  Pd1880  1  0.458530  0.195430  0.503560  1.0
  Pd  Pd1881  1  0.541850  0.803540  0.496660  1.0
  Pd  Pd1882  1  0.954810  0.693120  0.496660  1.0
  Pd  Pd1883  1  0.196460  0.045190  0.503340  1.0
  Pd  Pd1884  1  0.306880  0.458150  0.503340  1.0
  Pd  Pd1885  1  0.587190  0.138780  0.790680  1.0
  Pd  Pd1886  1  0.203490  0.651900  0.790680  1.0
  Pd  Pd1887  1  0.861220  0.796510  0.209320  1.0
  Pd  Pd1888  1  0.348100  0.412810  0.209320  1.0
  Pd  Pd1889  1  0.850750  0.289350  0.790920  1.0
  Pd  Pd1890  1  0.940170  0.501570  0.790920  1.0
  Pd  Pd1891  1  0.710650  0.059830  0.209080  1.0
  Pd  Pd1892  1  0.498430  0.149250  0.209080  1.0
  Pd  Pd1893  1  0.138900  0.203400  0.790620  1.0
  Pd  Pd1894  1  0.651720  0.587220  0.790620  1.0
  Pd  Pd1895  1  0.796600  0.348280  0.209380  1.0
  Pd  Pd1896  1  0.412780  0.861100  0.209380  1.0
  Pd  Pd1897  1  0.501770  0.850300  0.790600  1.0
  Pd  Pd1898  1  0.288830  0.940300  0.790600  1.0
  Pd  Pd1899  1  0.149700  0.711170  0.209400  1.0
  Pd  Pd1900  1  0.059700  0.498230  0.209400  1.0
  S  S1901  1  0.976680  0.070080  0.622960  1.0
  S  S1902  1  0.646280  0.552880  0.622960  1.0
  S  S1903  1  0.929920  0.353720  0.377040  1.0
  S  S1904  1  0.447120  0.023320  0.377040  1.0
  S  S1905  1  0.006570  0.271440  0.802300  1.0
  S  S1906  1  0.795730  0.530860  0.802300  1.0
  S  S1907  1  0.728560  0.204270  0.197700  1.0
  S  S1908  1  0.469140  0.993430  0.197700  1.0
  S  S1909  1  0.805340  0.121770  0.625680  1.0
  S  S1910  1  0.820340  0.503910  0.625680  1.0
  S  S1911  1  0.878230  0.179660  0.374320  1.0
  S  S1912  1  0.496090  0.194660  0.374320  1.0
  S  S1913  1  0.950240  0.408420  0.999700  1.0
  S  S1914  1  0.049460  0.591280  0.999700  1.0
  S  S1915  1  0.591580  0.950540  0.000300  1.0
  S  S1916  1  0.408720  0.049760  0.000300  1.0
  S  S1917  1  0.661670  0.869370  0.474380  1.0
  S  S1918  1  0.812710  0.605010  0.474380  1.0
  S  S1919  1  0.130630  0.187290  0.525620  1.0
  S  S1920  1  0.394990  0.338330  0.525620  1.0
  S  S1921  1  0.711320  0.228980  0.791840  1.0
  S  S1922  1  0.080520  0.562860  0.791840  1.0
  S  S1923  1  0.771020  0.919480  0.208160  1.0
  S  S1924  1  0.437140  0.288680  0.208160  1.0
  S  S1925  1  0.556770  0.978470  0.626340  1.0
  S  S1926  1  0.069570  0.647870  0.626340  1.0
  S  S1927  1  0.021530  0.930430  0.373660  1.0
  S  S1928  1  0.352130  0.443230  0.373660  1.0
  S  S1929  1  0.604050  0.660310  0.474500  1.0
  S  S1930  1  0.870450  0.814190  0.474500  1.0
  S  S1931  1  0.339690  0.129550  0.525500  1.0
  S  S1932  1  0.185810  0.395950  0.525500  1.0
  S  S1933  1  0.682530  0.256400  0.999660  1.0
  S  S1934  1  0.317130  0.743260  0.999660  1.0
  S  S1935  1  0.743600  0.682870  0.000340  1.0
  S  S1936  1  0.256740  0.317470  0.000340  1.0
  S  S1937  1  0.504310  0.802710  0.624220  1.0
  S  S1938  1  0.119910  0.821510  0.624220  1.0
  S  S1939  1  0.197290  0.880090  0.375780  1.0
  S  S1940  1  0.178490  0.495690  0.375780  1.0
  S  S1941  1  0.531430  0.006060  0.802660  1.0
  S  S1942  1  0.271230  0.796600  0.802660  1.0
  S  S1943  1  0.993940  0.728770  0.197340  1.0
  S  S1944  1  0.203400  0.468570  0.197340  1.0
  S  S1945  1  0.561760  0.710400  0.789640  1.0
  S  S1946  1  0.227880  0.079240  0.789640  1.0
  S  S1947  1  0.289600  0.772120  0.210360  1.0
  S  S1948  1  0.920760  0.438240  0.210360  1.0
