
#######################################################################
#
#                 Cambridge Crystallographic Data Centre
#                                CCDC 
#
#######################################################################
#
# If this CIF has been generated from an entry in the Cambridge 
# Structural Database, then it will include bibliographic, chemical, 
# crystal, experimental, refinement or atomic coordinate data resulting 
# from the CCDC's data processing and validation procedures.
#
#######################################################################

data_WUVQIN
_chemical_formula_moiety         
'C188 H152 N4 P4 Pt2 4+,4(C1 F3 O3 S1 1-),8(C2 H4 Cl2)'
_chemical_name_systematic        
"bis(\m~2~-4,9,15,20-tetrakis(\a-Phenylbenzylidene)-1,12(3,5)-dipyridinacyclodocosaphane-2,5,7,10,13,16,18,21-octayne-N,N')-tetrakis(triethylphosphine)-di-platinum(ii) hexakis(1,2-dichloroethane) clathrate tetrakis(trifluoromethanesulfonate) 1,2-dichloroethane solvate"
_symmetry_cell_setting           triclinic
_symmetry_space_group_name_H-M   'P -1'
_symmetry_Int_Tables_number      2
_space_group_name_Hall           '-P 1'
loop_
_symmetry_equiv_pos_site_id
_symmetry_equiv_pos_as_xyz
1 x,y,z
2 -x,-y,-z
_cell_length_a                   13.252(2)
_cell_length_b                   20.821(3)
_cell_length_c                   21.983(3)
_cell_angle_alpha                102.407(3)
_cell_angle_beta                 102.973(3)
_cell_angle_gamma                95.742(3)
_cell_volume                     5702.19
_exptl_crystal_colour            'bright orange'
_chemical_melting_point          '245 deg.C (dec.)'
_cell_formula_units_Z            1
_exptl_crystal_recrystallization_method dichloromethane/1,2-dichloroethane
loop_
_atom_site_label
_atom_site_type_symbol
_atom_site_fract_x
_atom_site_fract_y
_atom_site_fract_z
Pt1 Pt 0.01315(4) 0.17722(2) 0.21751(2)
P1 P 0.1590(3) 0.1347(2) 0.2011(2)
P2 P -0.1060(3) 0.1003(2) 0.13712(16)
N1 N 0.1063(7) 0.2547(4) 0.2948(4)
N2 N -0.1135(7) 0.2234(4) 0.2435(4)
C1 C 0.1415(9) 0.3137(6) 0.2846(5)
C2 C 0.1909(10) 0.3690(6) 0.3343(6)
C3 C 0.1952(11) 0.3637(6) 0.3984(6)
C4 C 0.1545(10) 0.3038(6) 0.4085(6)
C5 C 0.1097(9) 0.2503(6) 0.3558(5)
C6 C -0.1379(9) 0.2768(6) 0.2208(5)
C7 C -0.2079(10) 0.3175(5) 0.2449(5)
C8 C -0.2440(10) 0.3031(6) 0.2964(6)
C9 C -0.2145(9) 0.2490(5) 0.3193(5)
C10 C -0.1498(9) 0.2099(5) 0.2909(5)
C11 C 0.2333(12) 0.4291(6) 0.3217(6)
C12 C 0.2699(9) 0.4786(6) 0.3104(5)
C13 C 0.3139(10) 0.5418(5) 0.3018(5)
C14 C 0.3562(10) 0.5471(6) 0.2515(6)
C15 C 0.3072(10) 0.5984(6) 0.3493(6)
C16 C 0.2982(11) 0.6453(6) 0.3911(6)
C17 C 0.2930(11) 0.6990(6) 0.4377(6)
C18 C 0.2896(10) 0.7482(6) 0.4767(6)
C19 C 0.2954(10) 0.8051(6) 0.5283(6)
C20 C 0.3152(9) 0.8706(6) 0.5244(5)
C21 C 0.2750(9) 0.7882(5) 0.5855(5)
C22 C -0.2490(10) 0.2310(6) 0.3726(6)
C23 C -0.2307(10) 0.3723(6) 0.2190(6)
C24 C -0.2502(10) 0.4163(6) 0.1933(5)
C25 C -0.2725(9) 0.4751(5) 0.1696(5)
C26 C -0.2964(9) 0.4762(5) 0.1060(5)
C27 C -0.2609(10) 0.5334(6) 0.2203(5)
C28 C -0.2434(11) 0.5802(6) 0.2665(6)
C29 C -0.2214(13) 0.6343(6) 0.3182(6)
C30 C -0.1920(12) 0.6830(6) 0.3622(5)
C31 C -0.1542(10) 0.7375(6) 0.4192(5)
C32 C -0.1237(10) 0.8004(6) 0.4160(5)
C33 C -0.1559(11) 0.7191(6) 0.4777(6)
C34 C 0.1568(11) 0.2944(6) 0.4710(5)
C35 C 0.3722(10) 0.4861(6) 0.2045(6)
C36 C 0.3432(13) 0.4821(7) 0.1393(7)
C37 C 0.3552(15) 0.4279(8) 0.0967(7)
C38 C 0.3991(15) 0.3741(8) 0.1175(9)
C39 C 0.4326(16) 0.3810(9) 0.1818(9)
C40 C 0.4139(13) 0.4356(8) 0.2257(8)
C41 C 0.3949(10) 0.6133(6) 0.2404(6)
C42 C 0.3376(12) 0.6649(7) 0.2464(7)
C43 C 0.3753(15) 0.7254(8) 0.2353(8)
C44 C 0.4651(17) 0.7333(9) 0.2217(8)
C45 C 0.5243(13) 0.6832(8) 0.2142(7)
C46 C 0.4854(11) 0.6219(7) 0.2237(6)
C47 C 0.3226(15) 0.8862(10) 0.4621(7)
C48 C 0.2378(13) 0.8613(10) 0.4088(10)
C49 C 0.2414(13) 0.8742(12) 0.3498(8)
C50 C 0.3297(16) 0.9121(12) 0.3441(7)
C51 C 0.4144(13) 0.9370(10) 0.3973(9)
C52 C 0.4108(13) 0.9241(9) 0.4563(7)
C53 C 0.3375(10) 0.9255(6) 0.5830(6)
C54 C 0.2968(14) 0.9838(7) 0.5802(8)
C55 C 0.3169(16) 1.0348(8) 0.6336(9)
C56 C 0.3738(14) 1.0316(8) 0.6920(8)
C57 C 0.4191(14) 0.9739(8) 0.6958(7)
C58 C 0.3978(11) 0.9215(6) 0.6409(6)
C59 C -0.3222(15) 0.4146(7) 0.0513(7)
C60 C -0.3625(15) 0.3520(8) 0.0559(6)
C61 C -0.3704(14) 0.2965(6) 0.0059(8)
C62 C -0.3379(15) 0.3035(7) -0.0485(7)
C63 C -0.2976(14) 0.3661(8) -0.0530(6)
C64 C -0.2898(14) 0.4216(6) -0.0031(8)
C65 C -0.3100(9) 0.5429(5) 0.0909(5)
C66 C -0.2270(13) 0.5902(7) 0.0974(8)
C67 C -0.2452(17) 0.6529(8) 0.0878(8)
C68 C -0.3419(15) 0.6659(7) 0.0702(6)
C69 C -0.4223(14) 0.6199(8) 0.0623(7)
C70 C -0.4109(11) 0.5576(7) 0.0725(6)
C71 C -0.1360(11) 0.8196(5) 0.3540(5)
C72 C -0.2235(11) 0.7983(6) 0.3060(6)
C73 C -0.2345(13) 0.8157(7) 0.2451(6)
C74 C -0.1501(14) 0.8544(7) 0.2364(7)
C75 C -0.0613(14) 0.8778(7) 0.2853(7)
C76 C -0.0543(12) 0.8619(7) 0.3454(7)
C77 C -0.0852(15) 0.8510(8) 0.4811(8)
C78 C -0.1374(12) 0.9041(9) 0.4981(8)
C79 C -0.0947(14) 0.9524(8) 0.5552(8)
C80 C 0.0001(15) 0.9475(9) 0.5953(7)
C81 C 0.0522(14) 0.8944(11) 0.5783(10)
C82 C 0.0096(16) 0.8462(10) 0.5212(11)
C83 C 0.199(3) 0.1408(18) 0.1277(12)
C84 C 0.191(5) 0.2114(18) 0.118(3)
C85 C 0.2789(15) 0.1820(14) 0.2588(14)
C86 C 0.366(3) 0.140(2) 0.273(3)
C87 C 0.158(3) 0.0510(7) 0.2145(16)
C88 C 0.145(4) 0.038(3) 0.2787(18)
C89 C -0.0662(14) 0.0487(8) 0.0733(8)
C90 C -0.1579(18) 0.0019(10) 0.0211(9)
C91 C -0.2197(14) 0.1346(16) 0.1006(16)
C92 C -0.178(3) 0.1822(16) 0.0639(16)
C93 C -0.2072(13) 0.0614(12) 0.1681(12)
C94 C -0.147(3) 0.0258(18) 0.2161(17)
H1 H 0.1321 0.3176 0.2414
H2 H 0.2256 0.4007 0.4339
H3 H 0.0809 0.2097 0.3628
H4 H -0.1078 0.2875 0.1882
H5 H -0.2880 0.3300 0.3153
H6 H -0.1316 0.1723 0.3064
H7 H 0.3146 0.5176 0.1243
H8 H 0.3339 0.4256 0.0519
H9 H 0.4045 0.3351 0.0876
H10 H 0.4693 0.3485 0.1974
H11 H 0.4306 0.4371 0.2704
H12 H 0.2730 0.6594 0.2580
H13 H 0.3350 0.7607 0.2377
H14 H 0.4910 0.7755 0.2167
H15 H 0.5891 0.6897 0.2030
H16 H 0.5239 0.5859 0.2181
H17 H 0.1775 0.8354 0.4128
H18 H 0.1835 0.8571 0.3135
H19 H 0.3321 0.9209 0.3037
H20 H 0.4747 0.9629 0.3934
H21 H 0.4688 0.9412 0.4927
H22 H 0.2545 0.9881 0.5407
H23 H 0.2896 1.0747 0.6298
H24 H 0.3829 1.0671 0.7290
H25 H 0.4635 0.9706 0.7351
H26 H 0.4260 0.8817 0.6439
H27 H -0.3847 0.3472 0.0931
H28 H -0.3979 0.2537 0.0090
H29 H -0.3433 0.2656 -0.0826
H30 H -0.2755 0.3709 -0.0903
H31 H -0.2622 0.4644 -0.0062
H32 H -0.1575 0.5808 0.1084
H33 H -0.1873 0.6865 0.0939
H34 H -0.3530 0.7085 0.0634
H35 H -0.4910 0.6299 0.0491
H36 H -0.4706 0.5256 0.0671
H37 H -0.2800 0.7709 0.3124
H38 H -0.2976 0.8012 0.2119
H39 H -0.1540 0.8648 0.1960
H40 H -0.0043 0.9048 0.2789
H41 H 0.0061 0.8799 0.3800
H42 H -0.2022 0.9074 0.4707
H43 H -0.1304 0.9887 0.5669
H44 H 0.0292 0.9805 0.6344
H45 H 0.1170 0.8911 0.6057
H46 H 0.0452 0.8099 0.5095
H47 H 0.2714 0.1319 0.1315
H48 H 0.1522 0.1074 0.0902
H49 H 0.2088 0.2147 0.0778
H50 H 0.2396 0.2440 0.1542
H51 H 0.1191 0.2204 0.1159
H52 H 0.3056 0.2187 0.2416
H53 H 0.2618 0.2022 0.2995
H54 H 0.4282 0.1680 0.3038
H55 H 0.3843 0.1200 0.2332
H56 H 0.1016 0.0211 0.1798
H57 H 0.2252 0.0367 0.2084
H58 H 0.1444 -0.0097 0.2771
H59 H 0.0783 0.0504 0.2859
H60 H 0.2029 0.0641 0.3140
H61 H -0.0284 0.0776 0.0526
H62 H -0.0165 0.0213 0.0919
H63 H -0.1301 -0.0254 -0.0117
H64 H -0.2059 0.0285 0.0008
H65 H -0.1958 -0.0272 0.0410
H66 H -0.2742 0.0986 0.0707
H67 H -0.2503 0.1589 0.1341
H68 H -0.2363 0.2020 0.0427
H69 H -0.1474 0.1574 0.0313
H70 H -0.1248 0.2176 0.0941
H71 H -0.2430 0.0954 0.1899
H72 H -0.2601 0.0292 0.1328
H73 H -0.1969 0.0036 0.2351
H74 H -0.0950 0.0584 0.2503
H75 H -0.1124 -0.0075 0.1936
C33A C 0.1559(11) 0.2809(6) 0.5223(6)
C31A C 0.1542(10) 0.2625(6) 0.5808(5)
C30A C 0.1920(12) 0.3170(6) 0.6378(5)
C29A C 0.2214(13) 0.3657(6) 0.6818(6)
C28A C 0.2434(11) 0.4198(6) 0.7335(6)
C27A C 0.2609(10) 0.4666(6) 0.7797(5)
C25A C 0.2725(9) 0.5249(5) 0.8304(5)
C24A C 0.2502(10) 0.5837(6) 0.8067(5)
C23A C 0.2307(10) 0.6277(6) 0.7810(6)
C7A C 0.2079(10) 0.6825(5) 0.7551(5)
C6A C 0.1379(9) 0.7232(6) 0.7792(5)
N2A N 0.1135(7) 0.7766(4) 0.7565(4)
Pt1A Pt -0.01315(4) 0.82278(2) 0.78249(2)
P1A P -0.1590(3) 0.8653(2) 0.7989(2)
C83A C -0.199(3) 0.8592(18) 0.8723(12)
C84A C -0.191(5) 0.7886(18) 0.882(3)
H49A H -0.2088 0.7853 0.9222
H50A H -0.2396 0.7560 0.8458
H51A H -0.1191 0.7796 0.8841
H47A H -0.2714 0.8681 0.8685
H48A H -0.1522 0.8926 0.9098
C85A C -0.2789(15) 0.8180(14) 0.7412(14)
C86A C -0.366(3) 0.860(2) 0.727(3)
H54A H -0.4282 0.8320 0.6962
H55A H -0.3843 0.8800 0.7668
H52A H -0.3056 0.7813 0.7584
H53A H -0.2618 0.7978 0.7005
C87A C -0.158(3) 0.9490(7) 0.7855(16)
C88A C -0.145(4) 0.962(3) 0.7213(18)
H58A H -0.1444 1.0097 0.7229
H59A H -0.0783 0.9496 0.7141
H60A H -0.2029 0.9359 0.6860
H56A H -0.1016 0.9789 0.8202
H57A H -0.2252 0.9633 0.7916
P2A P 0.1060(3) 0.8997(2) 0.86288(16)
C89A C 0.0662(14) 0.9513(8) 0.9267(8)
C90A C 0.1579(18) 0.9981(10) 0.9789(9)
H63A H 0.1301 1.0254 1.0117
H64A H 0.2059 0.9715 0.9992
H65A H 0.1958 1.0272 0.9590
H61A H 0.0284 0.9224 0.9474
H62A H 0.0165 0.9787 0.9081
C91A C 0.2197(14) 0.8654(16) 0.8994(16)
C92A C 0.178(3) 0.8178(16) 0.9361(16)
H68A H 0.2363 0.7980 0.9573
H69A H 0.1474 0.8426 0.9687
H70A H 0.1248 0.7824 0.9059
H66A H 0.2742 0.9014 0.9293
H67A H 0.2503 0.8411 0.8659
C93A C 0.2072(13) 0.9386(12) 0.8319(12)
C94A C 0.147(3) 0.9742(18) 0.7839(17)
H73A H 0.1969 0.9964 0.7649
H74A H 0.0950 0.9416 0.7497
H75A H 0.1124 1.0075 0.8064
H71A H 0.2430 0.9046 0.8101
H72A H 0.2601 0.9708 0.8672
N1A N -0.1063(7) 0.7453(4) 0.7052(4)
C1A C -0.1415(9) 0.6863(6) 0.7154(5)
C2A C -0.1909(10) 0.6310(6) 0.6657(6)
C3A C -0.1952(11) 0.6363(6) 0.6016(6)
C4A C -0.1545(10) 0.6962(6) 0.5915(6)
C5A C -0.1097(9) 0.7497(6) 0.6442(5)
H3A H -0.0809 0.7903 0.6372
C34A C -0.1568(11) 0.7056(6) 0.5290(5)
C21A C -0.2750(9) 0.2118(5) 0.4145(5)
C19A C -0.2954(10) 0.1949(6) 0.4717(6)
C18A C -0.2896(10) 0.2518(6) 0.5233(6)
C17A C -0.2930(11) 0.3010(6) 0.5623(6)
C16A C -0.2982(11) 0.3547(6) 0.6089(6)
C15A C -0.3072(10) 0.4016(6) 0.6507(6)
C13A C -0.3139(10) 0.4582(5) 0.6982(5)
C12A C -0.2699(9) 0.5214(6) 0.6896(5)
C11A C -0.2333(12) 0.5709(6) 0.6783(6)
C14A C -0.3562(10) 0.4529(6) 0.7485(6)
C35A C -0.3722(10) 0.5139(6) 0.7955(6)
C36A C -0.3432(13) 0.5179(7) 0.8607(7)
C37A C -0.3552(15) 0.5721(8) 0.9033(7)
C38A C -0.3991(15) 0.6259(8) 0.8825(9)
C39A C -0.4326(16) 0.6190(9) 0.8182(9)
C40A C -0.4139(13) 0.5644(8) 0.7743(8)
H11A H -0.4306 0.5629 0.7296
H10A H -0.4693 0.6515 0.8026
H9A H -0.4045 0.6649 0.9124
H8A H -0.3339 0.5744 0.9481
H7A H -0.3146 0.4824 0.8757
C41A C -0.3949(10) 0.3867(6) 0.7596(6)
C42A C -0.3376(12) 0.3351(7) 0.7536(7)
C43A C -0.3753(15) 0.2746(8) 0.7647(8)
C44A C -0.4651(17) 0.2667(9) 0.7783(8)
C45A C -0.5243(13) 0.3168(8) 0.7858(7)
C46A C -0.4854(11) 0.3781(7) 0.7763(6)
H16A H -0.5239 0.4141 0.7819
H15A H -0.5891 0.3103 0.7970
H14A H -0.4910 0.2245 0.7833
H13A H -0.3350 0.2393 0.7623
H12A H -0.2730 0.3406 0.7420
C20A C -0.3152(9) 0.1294(6) 0.4756(5)
C47A C -0.3226(15) 0.1138(10) 0.5379(7)
C48A C -0.2378(13) 0.1387(10) 0.5912(10)
C49A C -0.2414(13) 0.1258(12) 0.6502(8)
C50A C -0.3297(16) 0.0879(12) 0.6559(7)
C51A C -0.4144(13) 0.0630(10) 0.6027(9)
C52A C -0.4108(13) 0.0759(9) 0.5437(7)
H21A H -0.4688 0.0588 0.5073
H20A H -0.4747 0.0371 0.6066
H19A H -0.3321 0.0791 0.6963
H18A H -0.1835 0.1429 0.6865
H17A H -0.1775 0.1646 0.5872
C53A C -0.3375(10) 0.0745(6) 0.4170(6)
C54A C -0.2968(14) 0.0162(7) 0.4198(8)
C55A C -0.3169(16) -0.0348(8) 0.3664(9)
C56A C -0.3738(14) -0.0316(8) 0.3080(8)
C57A C -0.4191(14) 0.0261(8) 0.3042(7)
C58A C -0.3978(11) 0.0785(6) 0.3591(6)
H26A H -0.4260 0.1183 0.3561
H25A H -0.4635 0.0294 0.2649
H24A H -0.3829 -0.0671 0.2710
H23A H -0.2896 -0.0747 0.3702
H22A H -0.2545 0.0119 0.4593
H2A H -0.2256 0.5993 0.5661
H1A H -0.1321 0.6824 0.7586
C10A C 0.1498(9) 0.7901(5) 0.7091(5)
C9A C 0.2145(9) 0.7510(5) 0.6807(5)
C8A C 0.2440(10) 0.6969(6) 0.7036(6)
H5A H 0.2880 0.6700 0.6847
C22A C 0.2490(10) 0.7690(6) 0.6274(6)
H6A H 0.1316 0.8277 0.6936
H4A H 0.1078 0.7125 0.8118
C26A C 0.2964(9) 0.5238(5) 0.8940(5)
C59A C 0.3222(15) 0.5854(7) 0.9487(7)
C60A C 0.3625(15) 0.6480(8) 0.9441(6)
C61A C 0.3704(14) 0.7035(6) 0.9941(8)
C62A C 0.3379(15) 0.6965(7) 1.0485(7)
C63A C 0.2976(14) 0.6339(8) 1.0530(6)
C64A C 0.2898(14) 0.5784(6) 1.0031(8)
H31A H 0.2622 0.5356 1.0062
H30A H 0.2755 0.6291 1.0903
H29A H 0.3433 0.7344 1.0826
H28A H 0.3979 0.7463 0.9910
H27A H 0.3847 0.6528 0.9069
C65A C 0.3100(9) 0.4571(5) 0.9091(5)
C66A C 0.2270(13) 0.4098(7) 0.9026(8)
C67A C 0.2452(17) 0.3471(8) 0.9122(8)
C68A C 0.3419(15) 0.3341(7) 0.9298(6)
C69A C 0.4223(14) 0.3801(8) 0.9377(7)
C70A C 0.4109(11) 0.4424(7) 0.9275(6)
H36A H 0.4706 0.4744 0.9329
H35A H 0.4910 0.3701 0.9509
H34A H 0.3530 0.2915 0.9366
H33A H 0.1873 0.3135 0.9061
H32A H 0.1575 0.4192 0.8916
C32A C 0.1237(10) 0.1996(6) 0.5840(5)
C71A C 0.1360(11) 0.1804(5) 0.6460(5)
C72A C 0.2235(11) 0.2017(6) 0.6940(6)
C73A C 0.2345(13) 0.1843(7) 0.7549(6)
C74A C 0.1501(14) 0.1456(7) 0.7636(7)
C75A C 0.0613(14) 0.1222(7) 0.7147(7)
C76A C 0.0543(12) 0.1381(7) 0.6546(7)
H41A H -0.0061 0.1201 0.6200
H40A H 0.0043 0.0952 0.7211
H39A H 0.1540 0.1352 0.8040
H38A H 0.2976 0.1988 0.7881
H37A H 0.2800 0.2291 0.6876
C77A C 0.0852(15) 0.1490(8) 0.5189(8)
C78A C 0.1374(12) 0.0959(9) 0.5019(8)
C79A C 0.0947(14) 0.0476(8) 0.4448(8)
C80A C -0.0001(15) 0.0525(9) 0.4047(7)
C81A C -0.0522(14) 0.1056(11) 0.4217(10)
C82A C -0.0096(16) 0.1538(10) 0.4788(11)
H46A H -0.0452 0.1901 0.4905
H45A H -0.1170 0.1089 0.3943
H44A H -0.0292 0.0195 0.3656
H43A H 0.1304 0.0113 0.4331
H42A H 0.2022 0.0926 0.5293
S1 S -0.0148(4) 0.8483(3) 0.0853(3)
F1 F 0.1496(8) 0.7899(6) 0.0883(7)
F2 F 0.1811(6) 0.8992(7) 0.1108(7)
F3 F 0.1395(8) 0.8488(8) 0.1820(5)
O1 O -0.0432(8) 0.9091(5) 0.1184(6)
O2 O -0.0772(7) 0.7912(5) 0.0940(6)
O3 O -0.0323(8) 0.8456(7) 0.0173(3)
C95 C 0.1217(5) 0.8464(5) 0.1185(5)
S2 S 0.5157(9) 0.1095(5) 0.1240(6)
F4 F 0.4719(15) 0.2239(7) 0.1757(8)
F5 F 0.5991(12) 0.2284(6) 0.1267(10)
F6 F 0.4353(14) 0.1981(8) 0.0699(8)
O4 O 0.5511(15) 0.0791(7) 0.0683(8)
O5 O 0.4141(12) 0.0742(7) 0.1212(10)
O6 O 0.5906(14) 0.1070(8) 0.1824(8)
C96 C 0.5050(10) 0.1950(5) 0.1241(7)
Cl1 Cl 0.0596(7) 0.5828(4) 0.1853(4)
Cl2 Cl 0.0672(7) 0.7033(5) 0.3135(4)
C97 C 0.0440(18) 0.6673(5) 0.1836(5)
C98 C -0.0146(13) 0.6952(8) 0.2341(5)
H76 H 0.1136 0.6949 0.1931
H77 H 0.0038 0.6687 0.1402
H78 H -0.0807 0.6648 0.2276
H79 H -0.0324 0.7392 0.2293
Cl3 Cl 0.3939(13) 0.1253(9) 0.8902(9)
Cl4 Cl 0.5957(13) 0.1057(9) 0.8368(9)
C99 C 0.460(2) 0.0552(12) 0.8981(19)
C100 C 0.5783(18) 0.075(2) 0.9052(13)
H80 H 0.4502 0.0402 0.9364
H81 H 0.4311 0.0178 0.8597
H82 H 0.6150 0.0366 0.9078
H83 H 0.6087 0.1106 0.9452
Cl5 Cl -0.0269(15) 0.4589(9) 0.3624(9)
Cl6 Cl 0.0768(15) 0.6283(10) 0.5027(9)
C101 C 0.027(3) 0.5458(11) 0.3820(11)
C102 C -0.024(2) 0.5850(14) 0.4318(17)
H84 H 0.1037 0.5519 0.3998
H85 H 0.0130 0.5627 0.3426
H86 H -0.0738 0.5540 0.4434
H87 H -0.0629 0.6173 0.4133
Cl7 Cl 0.0303(12) 0.3850(8) 0.1502(8)
Cl8 Cl 0.0468(12) 0.4380(8) 0.0169(8)
C103 C 0.005(3) 0.3340(9) 0.0695(8)
C104 C 0.082(3) 0.3614(12) 0.0347(11)
H88 H 0.0131 0.2876 0.0707
H89 H -0.0683 0.3341 0.0458
H90 H 0.0790 0.3285 -0.0057
H91 H 0.1540 0.3695 0.0624
C105? C 0.309(2) 0.8851(11) 0.4588(10)
C106? C 0.2426(18) 0.8455(10) 0.4020(13)
C107? C 0.2428(19) 0.8612(12) 0.3437(10)
C108? C 0.309(2) 0.9165(13) 0.3422(8)
C109? C 0.3758(17) 0.9561(10) 0.3990(10)
C110? C 0.3755(17) 0.9404(10) 0.4573(8)
C111? C 0.2938(15) 0.5799(7) 0.9482(7)
C112? C 0.3345(15) 0.6442(8) 0.9485(7)
C113? C 0.3368(15) 0.6970(6) 1.0000(8)
C114? C 0.2985(16) 0.6854(7) 1.0512(7)
C115? C 0.2578(16) 0.6212(9) 1.0509(7)
C116? C 0.2554(15) 0.5684(7) 0.9994(8)
C117? C 0.0632(15) 0.1449(8) 0.5254(8)
C118? C 0.0984(13) 0.0839(8) 0.5137(7)
C119? C 0.0505(14) 0.0355(7) 0.4574(8)
C120? C -0.0327(15) 0.0482(9) 0.4128(7)
C121? C -0.0679(15) 0.1093(11) 0.4244(10)
C122? C -0.0200(17) 0.1576(8) 0.4807(11)
C123? C 0.179(4) 0.1538(17) 0.1269(11)
C124? C 0.210(5) 0.2271(18) 0.127(3)
C125? C 0.2677(16) 0.1695(19) 0.2724(9)
C126? C 0.377(3) 0.164(3) 0.261(3)
C127? C 0.158(3) 0.0449(4) 0.1887(16)
C128? C 0.149(4) 0.029(3) 0.2527(18)
C129? C -0.139(3) 0.0263(8) 0.1656(14)
C130? C -0.180(3) 0.0344(16) 0.2264(12)
H92? H 0.1970 0.8077 0.4030
H93? H 0.1975 0.8341 0.3048
H94? H 0.3096 0.9272 0.3023
H95? H 0.4213 0.9939 0.3979
H96? H 0.4208 0.9675 0.4961
H97? H 0.3607 0.6521 0.9135
H98? H 0.3646 0.7409 1.0002
H99? H 0.3001 0.7215 1.0864
H100? H 0.2316 0.6133 1.0859
H101? H 0.2276 0.5245 0.9992
H102? H 0.1552 0.0752 0.5442
H103? H 0.0745 -0.0062 0.4495
H104? H -0.0655 0.0152 0.3743
H105? H -0.1248 0.1180 0.3939
H106? H -0.0441 0.1994 0.4887
H107? H 0.2348 0.1292 0.1145
H108? H 0.1141 0.1357 0.0926
H109? H 0.2174 0.2298 0.0840
H110? H 0.2768 0.2457 0.1587
H111? H 0.1555 0.2526 0.1376
H112? H 0.3414 0.1043 0.2918
H113? H 0.2638 0.2171 0.2888
H114? H 0.2590 0.1464 0.3063
H115? H 0.4307 0.1821 0.3015
H116? H 0.3885 0.1885 0.2292
H117? H 0.3821 0.1167 0.2446
H118? H 0.0969 0.0203 0.1533
H119? H 0.2227 0.0324 0.1778
H120? H 0.1482 -0.0191 0.2489
H121? H 0.0846 0.0415 0.2628
H122? H 0.2098 0.0535 0.2872
H123? H -0.1921 -0.0053 0.1300
H124? H -0.0753 0.0050 0.1734
H125? H -0.1936 -0.0091 0.2358
H126? H -0.2460 0.0531 0.2192
H127? H -0.1284 0.0645 0.2629
loop_
_geom_bond_atom_site_label_1
_geom_bond_atom_site_label_2
_geom_bond_site_symmetry_1
_geom_bond_site_symmetry_2
Pt1 P1 1_555 1_555
P1 C83 1_555 1_555
P2 Pt1 1_555 1_555
N1 Pt1 1_555 1_555
N2 Pt1 1_555 1_555
C1 N1 1_555 1_555
C2 C1 1_555 1_555
C3 C2 1_555 1_555
C4 C3 1_555 1_555
C5 N1 1_555 1_555
C6 N2 1_555 1_555
C7 C6 1_555 1_555
C8 C7 1_555 1_555
C9 C8 1_555 1_555
C10 N2 1_555 1_555
C11 C2 1_555 1_555
C12 C11 1_555 1_555
C13 C12 1_555 1_555
C14 C13 1_555 1_555
C15 C13 1_555 1_555
C16 C15 1_555 1_555
C17 C16 1_555 1_555
C18 C17 1_555 1_555
C19 C18 1_555 1_555
C20 C19 1_555 1_555
C21 C19 1_555 1_555
C22 C9 1_555 1_555
C23 C7 1_555 1_555
C24 C23 1_555 1_555
C25 C24 1_555 1_555
C26 C25 1_555 1_555
C27 C25 1_555 1_555
C28 C27 1_555 1_555
C29 C28 1_555 1_555
C30 C29 1_555 1_555
C31 C30 1_555 1_555
C32 C31 1_555 1_555
C33 C31 1_555 1_555
C34 C4 1_555 1_555
C35 C14 1_555 1_555
C36 C35 1_555 1_555
C37 C36 1_555 1_555
C38 C37 1_555 1_555
C39 C38 1_555 1_555
C40 C35 1_555 1_555
C41 C14 1_555 1_555
C42 C41 1_555 1_555
C43 C42 1_555 1_555
C44 C43 1_555 1_555
C45 C44 1_555 1_555
C46 C41 1_555 1_555
C47 C20 1_555 1_555
C48 C47 1_555 1_555
C49 C48 1_555 1_555
C50 C49 1_555 1_555
C51 C50 1_555 1_555
C52 C47 1_555 1_555
C53 C20 1_555 1_555
C54 C53 1_555 1_555
C55 C54 1_555 1_555
C56 C55 1_555 1_555
C57 C56 1_555 1_555
C58 C53 1_555 1_555
C59 C26 1_555 1_555
C60 C59 1_555 1_555
C61 C60 1_555 1_555
C62 C61 1_555 1_555
C63 C62 1_555 1_555
C64 C59 1_555 1_555
C65 C26 1_555 1_555
C66 C65 1_555 1_555
C67 C66 1_555 1_555
C68 C67 1_555 1_555
C69 C68 1_555 1_555
C70 C65 1_555 1_555
C71 C32 1_555 1_555
C72 C71 1_555 1_555
C73 C72 1_555 1_555
C74 C73 1_555 1_555
C75 C74 1_555 1_555
C76 C71 1_555 1_555
C77 C32 1_555 1_555
C78 C77 1_555 1_555
C79 C78 1_555 1_555
C80 C79 1_555 1_555
C81 C80 1_555 1_555
C82 C77 1_555 1_555
C83 C84 1_555 1_555
C84 H49 1_555 1_555
C85 P1 1_555 1_555
C86 C85 1_555 1_555
C87 P1 1_555 1_555
C88 C87 1_555 1_555
C89 P2 1_555 1_555
C90 C89 1_555 1_555
C91 P2 1_555 1_555
C92 C91 1_555 1_555
C93 P2 1_555 1_555
C94 C93 1_555 1_555
H1 C1 1_555 1_555
H2 C3 1_555 1_555
H3 C5 1_555 1_555
H4 C6 1_555 1_555
H5 C8 1_555 1_555
H6 C10 1_555 1_555
H7 C36 1_555 1_555
H8 C37 1_555 1_555
H9 C38 1_555 1_555
H10 C39 1_555 1_555
H11 C40 1_555 1_555
H12 C42 1_555 1_555
H13 C43 1_555 1_555
H14 C44 1_555 1_555
H15 C45 1_555 1_555
H16 C46 1_555 1_555
H17 C48 1_555 1_555
H18 C49 1_555 1_555
H19 C50 1_555 1_555
H20 C51 1_555 1_555
H21 C52 1_555 1_555
H22 C54 1_555 1_555
H23 C55 1_555 1_555
H24 C56 1_555 1_555
H25 C57 1_555 1_555
H26 C58 1_555 1_555
H27 C60 1_555 1_555
H28 C61 1_555 1_555
H29 C62 1_555 1_555
H30 C63 1_555 1_555
H31 C64 1_555 1_555
H32 C66 1_555 1_555
H33 C67 1_555 1_555
H34 C68 1_555 1_555
H35 C69 1_555 1_555
H36 C70 1_555 1_555
H37 C72 1_555 1_555
H38 C73 1_555 1_555
H39 C74 1_555 1_555
H40 C75 1_555 1_555
H41 C76 1_555 1_555
H42 C78 1_555 1_555
H43 C79 1_555 1_555
H44 C80 1_555 1_555
H45 C81 1_555 1_555
H46 C82 1_555 1_555
H47 C83 1_555 1_555
H48 C83 1_555 1_555
H50 C84 1_555 1_555
H51 C84 1_555 1_555
H52 C85 1_555 1_555
H53 C85 1_555 1_555
H54 C86 1_555 1_555
H55 C86 1_555 1_555
H56 C87 1_555 1_555
H57 C87 1_555 1_555
H58 C88 1_555 1_555
H59 C88 1_555 1_555
H60 C88 1_555 1_555
H61 C89 1_555 1_555
H62 C89 1_555 1_555
H63 C90 1_555 1_555
H64 C90 1_555 1_555
H65 C90 1_555 1_555
H66 C91 1_555 1_555
H67 C91 1_555 1_555
H68 C92 1_555 1_555
H69 C92 1_555 1_555
H70 C92 1_555 1_555
H71 C93 1_555 1_555
H72 C93 1_555 1_555
H73 C94 1_555 1_555
H74 C94 1_555 1_555
H75 C94 1_555 1_555
S1 O1 1_555 1_555
F1 C95 1_555 1_555
F2 C95 1_555 1_555
F3 C95 1_555 1_555
O2 S1 1_555 1_555
O3 S1 1_555 1_555
C95 S1 1_555 1_555
S2 O4 1_555 1_555
F4 C96 1_555 1_555
F5 C96 1_555 1_555
F6 C96 1_555 1_555
O5 S2 1_555 1_555
O6 S2 1_555 1_555
C96 S2 1_555 1_555
Cl1 C97 1_555 1_555
Cl2 C98 1_555 1_555
C97 C98 1_555 1_555
C98 H78 1_555 1_555
H76 C97 1_555 1_555
H77 C97 1_555 1_555
H79 C98 1_555 1_555
Cl3 C99 1_555 1_555
Cl4 C100 1_555 1_555
C99 C100 1_555 1_555
C100 H82 1_555 1_555
H80 C99 1_555 1_555
H81 C99 1_555 1_555
H83 C100 1_555 1_555
Cl5 C101 1_555 1_555
Cl6 C102 1_555 1_555
C101 C102 1_555 1_555
C102 H86 1_555 1_555
H84 C101 1_555 1_555
H85 C101 1_555 1_555
H87 C102 1_555 1_555
Cl7 C103 1_555 1_555
Cl8 C104 1_555 1_555
C103 C104 1_555 1_555
C104 H90 1_555 1_555
H88 C103 1_555 1_555
H89 C103 1_555 1_555
H91 C104 1_555 1_555
C33A C34 1_555 1_555
C31A C33A 1_555 1_555
C30A C31A 1_555 1_555
C29A C30A 1_555 1_555
C28A C29A 1_555 1_555
C27A C28A 1_555 1_555
C25A C27A 1_555 1_555
C24A C25A 1_555 1_555
C23A C24A 1_555 1_555
C7A C23A 1_555 1_555
C6A C7A 1_555 1_555
N2A C6A 1_555 1_555
Pt1A N2A 1_555 1_555
P1A Pt1A 1_555 1_555
C83A P1A 1_555 1_555
C84A C83A 1_555 1_555
H49A C84A 1_555 1_555
H50A C84A 1_555 1_555
H51A C84A 1_555 1_555
H47A C83A 1_555 1_555
H48A C83A 1_555 1_555
C85A P1A 1_555 1_555
C86A C85A 1_555 1_555
H54A C86A 1_555 1_555
H55A C86A 1_555 1_555
H52A C85A 1_555 1_555
H53A C85A 1_555 1_555
C87A P1A 1_555 1_555
C88A C87A 1_555 1_555
H58A C88A 1_555 1_555
H59A C88A 1_555 1_555
H60A C88A 1_555 1_555
H56A C87A 1_555 1_555
H57A C87A 1_555 1_555
P2A Pt1A 1_555 1_555
C89A P2A 1_555 1_555
C90A C89A 1_555 1_555
H63A C90A 1_555 1_555
H64A C90A 1_555 1_555
H65A C90A 1_555 1_555
H61A C89A 1_555 1_555
H62A C89A 1_555 1_555
C91A P2A 1_555 1_555
C92A C91A 1_555 1_555
H68A C92A 1_555 1_555
H69A C92A 1_555 1_555
H70A C92A 1_555 1_555
H66A C91A 1_555 1_555
H67A C91A 1_555 1_555
C93A P2A 1_555 1_555
C94A C93A 1_555 1_555
H73A C94A 1_555 1_555
H74A C94A 1_555 1_555
H75A C94A 1_555 1_555
H71A C93A 1_555 1_555
H72A C93A 1_555 1_555
N1A Pt1A 1_555 1_555
C1A N1A 1_555 1_555
C2A C1A 1_555 1_555
C3A C2A 1_555 1_555
C4A C3A 1_555 1_555
C5A N1A 1_555 1_555
H3A C5A 1_555 1_555
C34A C33 1_555 1_555
C21A C22 1_555 1_555
C19A C21A 1_555 1_555
C18A C19A 1_555 1_555
C17A C18A 1_555 1_555
C16A C17A 1_555 1_555
C15A C16A 1_555 1_555
C13A C15A 1_555 1_555
C12A C13A 1_555 1_555
C11A C2A 1_555 1_555
C14A C13A 1_555 1_555
C35A C14A 1_555 1_555
C36A C35A 1_555 1_555
C37A C36A 1_555 1_555
C38A C37A 1_555 1_555
C39A C38A 1_555 1_555
C40A C35A 1_555 1_555
H11A C40A 1_555 1_555
H10A C39A 1_555 1_555
H9A C38A 1_555 1_555
H8A C37A 1_555 1_555
H7A C36A 1_555 1_555
C41A C14A 1_555 1_555
C42A C41A 1_555 1_555
C43A C42A 1_555 1_555
C44A C43A 1_555 1_555
C45A C44A 1_555 1_555
C46A C41A 1_555 1_555
H16A C46A 1_555 1_555
H15A C45A 1_555 1_555
H14A C44A 1_555 1_555
H13A C43A 1_555 1_555
H12A C42A 1_555 1_555
C20A C19A 1_555 1_555
C47A C20A 1_555 1_555
C48A C47A 1_555 1_555
C49A C48A 1_555 1_555
C50A C49A 1_555 1_555
C51A C50A 1_555 1_555
C52A C47A 1_555 1_555
H21A C52A 1_555 1_555
H20A C51A 1_555 1_555
H19A C50A 1_555 1_555
H18A C49A 1_555 1_555
H17A C48A 1_555 1_555
C53A C20A 1_555 1_555
C54A C53A 1_555 1_555
C55A C54A 1_555 1_555
C56A C55A 1_555 1_555
C57A C56A 1_555 1_555
C58A C53A 1_555 1_555
H26A C58A 1_555 1_555
H25A C57A 1_555 1_555
H24A C56A 1_555 1_555
H23A C55A 1_555 1_555
H22A C54A 1_555 1_555
H2A C3A 1_555 1_555
H1A C1A 1_555 1_555
C10A N2A 1_555 1_555
C9A C10A 1_555 1_555
C8A C7A 1_555 1_555
H5A C8A 1_555 1_555
C22A C21 1_555 1_555
H6A C10A 1_555 1_555
H4A C6A 1_555 1_555
C26A C25A 1_555 1_555
C59A C26A 1_555 1_555
C60A C59A 1_555 1_555
C61A C60A 1_555 1_555
C62A C61A 1_555 1_555
C63A C62A 1_555 1_555
C64A C59A 1_555 1_555
H31A C64A 1_555 1_555
H30A C63A 1_555 1_555
H29A C62A 1_555 1_555
H28A C61A 1_555 1_555
H27A C60A 1_555 1_555
C65A C26A 1_555 1_555
C66A C65A 1_555 1_555
C67A C66A 1_555 1_555
C68A C67A 1_555 1_555
C69A C68A 1_555 1_555
C70A C65A 1_555 1_555
H36A C70A 1_555 1_555
H35A C69A 1_555 1_555
H34A C68A 1_555 1_555
H33A C67A 1_555 1_555
H32A C66A 1_555 1_555
C32A C31A 1_555 1_555
C71A C32A 1_555 1_555
C72A C71A 1_555 1_555
C73A C72A 1_555 1_555
C74A C73A 1_555 1_555
C75A C74A 1_555 1_555
C76A C71A 1_555 1_555
H41A C76A 1_555 1_555
H40A C75A 1_555 1_555
H39A C74A 1_555 1_555
H38A C73A 1_555 1_555
H37A C72A 1_555 1_555
C77A C32A 1_555 1_555
C78A C77A 1_555 1_555
C79A C78A 1_555 1_555
C80A C79A 1_555 1_555
C81A C80A 1_555 1_555
C82A C77A 1_555 1_555
H46A C82A 1_555 1_555
H45A C81A 1_555 1_555
H44A C80A 1_555 1_555
H43A C79A 1_555 1_555
H42A C78A 1_555 1_555
C4 C5 1_555 1_555
C9 C10 1_555 1_555
C39 C40 1_555 1_555
C45 C46 1_555 1_555
C51 C52 1_555 1_555
C57 C58 1_555 1_555
C63 C64 1_555 1_555
C69 C70 1_555 1_555
C75 C76 1_555 1_555
C81 C82 1_555 1_555
C4A C5A 1_555 1_555
C4A C34A 1_555 1_555
C12A C11A 1_555 1_555
C39A C40A 1_555 1_555
C45A C46A 1_555 1_555
C51A C52A 1_555 1_555
C57A C58A 1_555 1_555
C9A C8A 1_555 1_555
C9A C22A 1_555 1_555
C63A C64A 1_555 1_555
C69A C70A 1_555 1_555
C75A C76A 1_555 1_555
C81A C82A 1_555 1_555

#END
