
#######################################################################
#
#                 Cambridge Crystallographic Data Centre
#                                CCDC 
#
#######################################################################
#
# If this CIF has been generated from an entry in the Cambridge 
# Structural Database, then it will include bibliographic, chemical, 
# crystal, experimental, refinement or atomic coordinate data resulting 
# from the CCDC's data processing and validation procedures.
#
#######################################################################

data_XAFYAF
_chemical_formula_moiety         
'C82 H76 N4 O8 P4 Pt2 4+,4(C1 F3 O3 S1 1-),1.5(C7 H8)'
_chemical_name_systematic        
'bis(\m~2~-ethylene bis(pyridine-4-carboxylate))-bis(1,3-bis(diphenylphosphino)propane)-di-platinum(ii) tetrakis(trifluoromethanesulfonate) toluene solvate'
_symmetry_cell_setting           monoclinic
_symmetry_space_group_name_H-M   'P 21/n'
_symmetry_Int_Tables_number      14
_space_group_name_Hall           '-P 2yn'
loop_
_symmetry_equiv_pos_site_id
_symmetry_equiv_pos_as_xyz
1 x,y,z
2 1/2-x,1/2+y,1/2-z
3 -x,-y,-z
4 1/2+x,1/2-y,1/2+z
_cell_length_a                   13.2388(3)
_cell_length_b                   24.2168(5)
_cell_length_c                   19.0150(4)
_cell_angle_alpha                90
_cell_angle_beta                 106.8891(11)
_cell_angle_gamma                90
_cell_volume                     5833.3
_exptl_crystal_colour            colorless
_exptl_crystal_description       prism
_cell_formula_units_Z            2
loop_
_atom_site_label
_atom_site_type_symbol
_atom_site_fract_x
_atom_site_fract_y
_atom_site_fract_z
Pt1 Pt 0.22469(3) 0.217055(17) -0.01244(2)
P1 P 0.2504(2) 0.30963(13) -0.00301(14)
P2 P 0.0550(2) 0.22670(12) -0.08247(15)
N1 N 0.3811(6) 0.2016(4) 0.0553(4)
N2 N 0.2096(6) 0.1312(3) -0.0196(4)
O1 O 0.6956(6) 0.1426(4) 0.2546(4)
O2 O 0.7521(5) 0.1480(3) 0.1545(4)
O3 O 0.8679(6) 0.0550(3) 0.1230(4)
O4 O 0.9053(14) 0.0637(5) 0.0176(7)
C1 C 0.3922(8) 0.1836(4) 0.1226(5)
H1 H 0.3318 0.1811 0.1398
C2 C 0.4898(8) 0.1682(5) 0.1689(6)
H2 H 0.4977 0.1563 0.2178
C3 C 0.5763(8) 0.1710(4) 0.1407(6)
C4 C 0.5620(8) 0.1884(5) 0.0696(6)
H3 H 0.6202 0.1903 0.0499
C5 C 0.4630(8) 0.2029(4) 0.0275(5)
H4 H 0.4524 0.2141 -0.0220
C6 C 0.6809(9) 0.1528(5) 0.1901(6)
C7 C 0.8581(8) 0.1317(6) 0.1985(7)
H5 H 0.8544 0.1029 0.2346
H6 H 0.8972 0.1639 0.2252
C8 C 0.9105(8) 0.1100(5) 0.1453(8)
H7 H 0.8967 0.1346 0.1020
H8 H 0.9878 0.1079 0.1683
C9 C 0.8714(12) 0.0372(6) 0.0586(7)
C10 C 0.8330(10) -0.0196(5) 0.0438(6)
C11 C 0.8514(10) -0.0481(5) -0.0156(6)
H9 H 0.8797 -0.0289 -0.0491
C12 C 0.1708(9) 0.1024(5) 0.0256(6)
H10 H 0.1581 0.1206 0.0664
C13 C 0.2315(8) 0.1046(4) -0.0755(6)
H11 H 0.2634 0.1249 -0.1062
C14 C 0.7896(8) -0.0504(5) 0.0901(6)
H12 H 0.7751 -0.0335 0.1313
C15 C 0.1774(10) 0.3499(5) -0.0804(6)
H13 H 0.1865 0.3894 -0.0665
H14 H 0.2092 0.3442 -0.1209
C16 C 0.0592(9) 0.3380(5) -0.1096(7)
H15 H 0.0281 0.3392 -0.0682
H16 H 0.0255 0.3674 -0.1447
C17 C 0.0347(9) 0.2834(5) -0.1471(6)
H17 H 0.0802 0.2780 -0.1797
H18 H -0.0397 0.2833 -0.1781
C18 C 0.3879(8) 0.3273(4) 0.0069(6)
C19 C 0.4585(10) 0.3351(5) 0.0746(7)
H19 H 0.4344 0.3329 0.1169
C20 C 0.5632(10) 0.3460(6) 0.0832(9)
H20 H 0.6126 0.3501 0.1304
C21 C 0.5936(12) 0.3508(6) 0.0178(10)
H21 H 0.6644 0.3607 0.0216
C22 C 0.5269(12) 0.3421(6) -0.0487(9)
H22 H 0.5517 0.3443 -0.0907
C23 C 0.4238(10) 0.3302(5) -0.0572(7)
H23 H 0.3764 0.3240 -0.1047
C24 C 0.2225(8) 0.3380(5) 0.0780(6)
C25 C 0.2268(9) 0.3045(6) 0.1372(6)
H24 H 0.2431 0.2664 0.1352
C26 C 0.2076(11) 0.3255(7) 0.1998(7)
H25 H 0.2127 0.3022 0.2408
C27 C 0.1816(11) 0.3794(8) 0.2024(8)
H26 H 0.1651 0.3935 0.2444
C28 C 0.1790(13) 0.4137(7) 0.1444(10)
H27 H 0.1637 0.4518 0.1476
C29 C 0.1979(12) 0.3938(6) 0.0824(8)
H28 H 0.1945 0.4178 0.0423
C30 C -0.0362(8) 0.2376(5) -0.0280(6)
C31 C -0.1399(9) 0.2496(6) -0.0641(6)
H29 H -0.1639 0.2511 -0.1163
C32 C -0.2100(10) 0.2597(7) -0.0218(8)
H30 H -0.2824 0.2670 -0.0456
C33 C -0.1750(10) 0.2591(6) 0.0515(7)
H31 H -0.2226 0.2668 0.0792
C34 C -0.0713(11) 0.2475(6) 0.0876(6)
H32 H -0.0474 0.2473 0.1398
C35 C -0.0015(8) 0.2360(5) 0.0471(6)
H33 H 0.0699 0.2270 0.0716
C36 C 0.0063(8) 0.1659(5) -0.1399(5)
C37 C -0.0520(9) 0.1267(5) -0.1164(6)
H34 H -0.0722 0.1327 -0.0730
C38 C -0.0813(10) 0.0783(6) -0.1566(7)
H35 H -0.1221 0.0513 -0.1408
C39 C -0.0515(10) 0.0693(6) -0.2190(7)
H36 H -0.0728 0.0367 -0.2470
C40 C 0.0102(10) 0.1084(6) -0.2409(6)
H37 H 0.0341 0.1017 -0.2827
C41 C 0.0365(9) 0.1572(5) -0.2018(6)
H38 H 0.0758 0.1847 -0.2180
C12B C 0.8292(9) -0.1024(5) -0.0256(6)
N2B N 0.7904(6) -0.1312(3) 0.0196(4)
Pt1B Pt 0.77531(3) -0.217055(17) 0.01244(2)
P1B P 0.7496(2) -0.30963(13) 0.00301(14)
C15B C 0.8226(10) -0.3499(5) 0.0804(6)
H13B H 0.8135 -0.3894 0.0665
H14B H 0.7908 -0.3442 0.1209
C16B C 0.9408(9) -0.3380(5) 0.1096(7)
H15B H 0.9719 -0.3392 0.0682
H16B H 0.9745 -0.3674 0.1447
C17B C 0.9653(9) -0.2834(5) 0.1471(6)
P2B P 0.9450(2) -0.22670(12) 0.08247(15)
N1B N 0.6189(6) -0.2016(4) -0.0553(4)
C1B C 0.6078(8) -0.1836(4) -0.1226(5)
H1B H 0.6682 -0.1811 -0.1398
C2B C 0.5102(8) -0.1682(5) -0.1689(6)
H2B H 0.5023 -0.1563 -0.2178
C3B C 0.4237(8) -0.1710(4) -0.1407(6)
C4B C 0.4380(8) -0.1884(5) -0.0696(6)
H3B H 0.3798 -0.1903 -0.0499
C5B C 0.5370(8) -0.2029(4) -0.0275(5)
H4B H 0.5476 -0.2141 0.0220
C6B C 0.3191(9) -0.1528(5) -0.1901(6)
O1B O 0.3044(6) -0.1426(4) -0.2546(4)
O2B O 0.2479(5) -0.1480(3) -0.1545(4)
C7B C 0.1419(8) -0.1317(6) -0.1985(7)
H5B H 0.1456 -0.1029 -0.2346
H6B H 0.1028 -0.1639 -0.2252
C8B C 0.0895(8) -0.1100(5) -0.1453(8)
O3B O 0.1321(6) -0.0550(3) -0.1230(4)
C9B C 0.1286(12) -0.0372(6) -0.0586(7)
O4B O 0.0947(14) -0.0637(5) -0.0176(7)
C10B C 0.1670(10) 0.0196(5) -0.0438(6)
C11B C 0.1486(10) 0.0481(5) 0.0156(6)
H9B H 0.1203 0.0289 0.0491
C14B C 0.2104(8) 0.0504(5) -0.0901(6)
H12B H 0.2249 0.0335 -0.1313
H7B H 0.1033 -0.1346 -0.1020
H8B H 0.0122 -0.1079 -0.1683
C30B C 1.0362(8) -0.2376(5) 0.0280(6)
C31B C 1.1399(9) -0.2496(6) 0.0641(6)
H29B H 1.1639 -0.2511 0.1163
C32B C 1.2100(10) -0.2597(7) 0.0218(8)
H30B H 1.2824 -0.2670 0.0456
C33B C 1.1750(10) -0.2591(6) -0.0515(7)
H31B H 1.2226 -0.2668 -0.0792
C34B C 1.0713(11) -0.2475(6) -0.0876(6)
H32B H 1.0474 -0.2473 -0.1398
C35B C 1.0015(8) -0.2360(5) -0.0471(6)
H33B H 0.9301 -0.2270 -0.0716
C36B C 0.9937(8) -0.1659(5) 0.1399(5)
C37B C 1.0520(9) -0.1267(5) 0.1164(6)
H34B H 1.0722 -0.1327 0.0730
C38B C 1.0813(10) -0.0783(6) 0.1566(7)
H35B H 1.1221 -0.0513 0.1408
C39B C 1.0515(10) -0.0693(6) 0.2190(7)
H36B H 1.0728 -0.0367 0.2470
C40B C 0.9898(10) -0.1084(6) 0.2409(6)
H37B H 0.9659 -0.1017 0.2827
C41B C 0.9635(9) -0.1572(5) 0.2018(6)
H38B H 0.9242 -0.1847 0.2180
H17B H 0.9198 -0.2780 0.1797
H18B H 1.0397 -0.2833 0.1781
C18B C 0.6121(8) -0.3273(4) -0.0069(6)
C19B C 0.5415(10) -0.3351(5) -0.0746(7)
H19B H 0.5656 -0.3329 -0.1169
C20B C 0.4368(10) -0.3460(6) -0.0832(9)
H20B H 0.3874 -0.3501 -0.1304
C21B C 0.4064(12) -0.3508(6) -0.0178(10)
H21B H 0.3356 -0.3607 -0.0216
C22B C 0.4731(12) -0.3421(6) 0.0487(9)
H22B H 0.4483 -0.3443 0.0907
C23B C 0.5762(10) -0.3302(5) 0.0572(7)
H23B H 0.6236 -0.3240 0.1047
C24B C 0.7775(8) -0.3380(5) -0.0780(6)
C25B C 0.7732(9) -0.3045(6) -0.1372(6)
H24B H 0.7569 -0.2664 -0.1352
C26B C 0.7924(11) -0.3255(7) -0.1998(7)
H25B H 0.7873 -0.3022 -0.2408
C27B C 0.8184(11) -0.3794(8) -0.2024(8)
H26B H 0.8349 -0.3935 -0.2444
C28B C 0.8210(13) -0.4137(7) -0.1444(10)
H27B H 0.8363 -0.4518 -0.1476
C29B C 0.8021(12) -0.3938(6) -0.0824(8)
H28B H 0.8055 -0.4178 -0.0423
C13B C 0.7685(8) -0.1046(4) 0.0755(6)
H11B H 0.7366 -0.1249 0.1062
H10B H 0.8419 -0.1206 -0.0664
S1 S 0.8134(3) 0.29552(16) 0.27948(18)
O5 O 0.7717(11) 0.3550(6) 0.2604(7)
O6 O 0.7813(13) 0.2651(5) 0.2183(6)
O7 O 0.7950(9) 0.2783(4) 0.3463(5)
C42 C 0.9330(14) 0.3026(11) 0.3010(10)
F1 F 0.9863(10) 0.3301(6) 0.2536(7)
F2 F 0.9873(14) 0.3360(9) 0.3632(8)
F3 F 1.0008(12) 0.2591(8) 0.3191(11)
S2 S 0.2079(3) 0.1533(2) 0.2502(2)
O8 O 0.3038(11) 0.1869(8) 0.2717(9)
O9 O 0.1621(8) 0.1596(5) 0.1769(5)
O10 O 0.1378(13) 0.1482(12) 0.2970(8)
C43 C 0.2480(11) 0.0954(7) 0.2438(9)
F4 F 0.292(2) 0.0681(12) 0.3193(13)
F5 F 0.3340(12) 0.0833(7) 0.2204(12)
F6 F 0.1821(13) 0.0515(6) 0.2200(12)
C44 C 0.316(3) 0.1274(17) 0.662(2)
H39 H 0.2955 0.1590 0.6282
H40 H 0.3665 0.1395 0.7076
H41 H 0.2530 0.1122 0.6719
C45 C 0.3738(19) 0.0766(11) 0.6204(13)
C46 C 0.410(3) 0.0280(13) 0.6584(15)
H42 H 0.4016 0.0225 0.7060
C47 C 0.457(3) -0.0125(11) 0.627(2)
H43 H 0.4812 -0.0457 0.6528
C48 C 0.468(2) -0.0044(12) 0.557(2)
H44 H 0.5006 -0.0321 0.5356
C49 C 0.433(2) 0.0442(14) 0.5192(15)
H45 H 0.4405 0.0497 0.4716
C50 C 0.385(2) 0.0847(11) 0.5508(13)
H46 H 0.3609 0.1179 0.5248
loop_
_geom_bond_atom_site_label_1
_geom_bond_atom_site_label_2
_geom_bond_site_symmetry_1
_geom_bond_site_symmetry_2
Pt1 P1 1_555 1_555
P1 C15 1_555 1_555
P2 Pt1 1_555 1_555
N1 Pt1 1_555 1_555
N2 Pt1 1_555 1_555
O1 C6 1_555 1_555
O2 C6 1_555 1_555
O3 C8 1_555 1_555
O4 C9 1_555 1_555
C1 N1 1_555 1_555
H1 C1 1_555 1_555
C2 C1 1_555 1_555
H2 C2 1_555 1_555
C3 C2 1_555 1_555
C4 C3 1_555 1_555
H3 C4 1_555 1_555
C5 N1 1_555 1_555
H4 C5 1_555 1_555
C6 C3 1_555 1_555
C7 O2 1_555 1_555
H5 C7 1_555 1_555
H6 C7 1_555 1_555
C8 C7 1_555 1_555
H7 C8 1_555 1_555
H8 C8 1_555 1_555
C9 O3 1_555 1_555
C10 C9 1_555 1_555
C11 C10 1_555 1_555
H9 C11 1_555 1_555
C12 N2 1_555 1_555
H10 C12 1_555 1_555
C13 N2 1_555 1_555
H11 C13 1_555 1_555
C14 C10 1_555 1_555
H12 C14 1_555 1_555
C15 H13 1_555 1_555
H14 C15 1_555 1_555
C16 C15 1_555 1_555
H15 C16 1_555 1_555
H16 C16 1_555 1_555
C17 P2 1_555 1_555
H17 C17 1_555 1_555
H18 C17 1_555 1_555
C18 P1 1_555 1_555
C19 C18 1_555 1_555
H19 C19 1_555 1_555
C20 C19 1_555 1_555
H20 C20 1_555 1_555
C21 C20 1_555 1_555
H21 C21 1_555 1_555
C22 C21 1_555 1_555
H22 C22 1_555 1_555
C23 C18 1_555 1_555
H23 C23 1_555 1_555
C24 P1 1_555 1_555
C25 C24 1_555 1_555
H24 C25 1_555 1_555
C26 C25 1_555 1_555
H25 C26 1_555 1_555
C27 C26 1_555 1_555
H26 C27 1_555 1_555
C28 C27 1_555 1_555
H27 C28 1_555 1_555
C29 C24 1_555 1_555
H28 C29 1_555 1_555
C30 P2 1_555 1_555
C31 C30 1_555 1_555
H29 C31 1_555 1_555
C32 C31 1_555 1_555
H30 C32 1_555 1_555
C33 C32 1_555 1_555
H31 C33 1_555 1_555
C34 C33 1_555 1_555
H32 C34 1_555 1_555
C35 C30 1_555 1_555
H33 C35 1_555 1_555
C36 P2 1_555 1_555
C37 C36 1_555 1_555
H34 C37 1_555 1_555
C38 C37 1_555 1_555
H35 C38 1_555 1_555
C39 C38 1_555 1_555
H36 C39 1_555 1_555
C40 C39 1_555 1_555
H37 C40 1_555 1_555
C41 C36 1_555 1_555
H38 C41 1_555 1_555
S1 O5 1_555 1_555
O6 S1 1_555 1_555
O7 S1 1_555 1_555
C42 S1 1_555 1_555
F1 C42 1_555 1_555
F2 C42 1_555 1_555
F3 C42 1_555 1_555
S2 O8 1_555 1_555
O9 S2 1_555 1_555
O10 S2 1_555 1_555
C43 S2 1_555 1_555
F4 C43 1_555 1_555
F5 C43 1_555 1_555
F6 C43 1_555 1_555
C44 H39 1_555 1_555
H40 C44 1_555 1_555
H41 C44 1_555 1_555
C45 C44 1_555 1_555
C46 C45 1_555 1_555
H42 C46 1_555 1_555
C47 C46 1_555 1_555
H43 C47 1_555 1_555
C48 C47 1_555 1_555
H44 C48 1_555 1_555
C49 C48 1_555 1_555
H45 C49 1_555 1_555
C50 C45 1_555 1_555
H46 C50 1_555 1_555
C12B C11 1_555 1_555
N2B C12B 1_555 1_555
Pt1B N2B 1_555 1_555
P1B Pt1B 1_555 1_555
C15B P1B 1_555 1_555
H13B C15B 1_555 1_555
H14B C15B 1_555 1_555
C16B C15B 1_555 1_555
H15B C16B 1_555 1_555
H16B C16B 1_555 1_555
C17B C16B 1_555 1_555
P2B Pt1B 1_555 1_555
N1B Pt1B 1_555 1_555
C1B N1B 1_555 1_555
H1B C1B 1_555 1_555
C2B C1B 1_555 1_555
H2B C2B 1_555 1_555
C3B C2B 1_555 1_555
C4B C3B 1_555 1_555
H3B C4B 1_555 1_555
C5B N1B 1_555 1_555
H4B C5B 1_555 1_555
C6B C3B 1_555 1_555
O1B C6B 1_555 1_555
O2B C6B 1_555 1_555
C7B O2B 1_555 1_555
H5B C7B 1_555 1_555
H6B C7B 1_555 1_555
C8B C7B 1_555 1_555
O3B C8B 1_555 1_555
C9B O3B 1_555 1_555
O4B C9B 1_555 1_555
C10B C9B 1_555 1_555
C11B C12 1_555 1_555
H9B C11B 1_555 1_555
C14B C13 1_555 1_555
H12B C14B 1_555 1_555
H7B C8B 1_555 1_555
H8B C8B 1_555 1_555
C30B P2B 1_555 1_555
C31B C30B 1_555 1_555
H29B C31B 1_555 1_555
C32B C31B 1_555 1_555
H30B C32B 1_555 1_555
C33B C32B 1_555 1_555
H31B C33B 1_555 1_555
C34B C33B 1_555 1_555
H32B C34B 1_555 1_555
C35B C30B 1_555 1_555
H33B C35B 1_555 1_555
C36B P2B 1_555 1_555
C37B C36B 1_555 1_555
H34B C37B 1_555 1_555
C38B C37B 1_555 1_555
H35B C38B 1_555 1_555
C39B C38B 1_555 1_555
H36B C39B 1_555 1_555
C40B C39B 1_555 1_555
H37B C40B 1_555 1_555
C41B C36B 1_555 1_555
H38B C41B 1_555 1_555
H17B C17B 1_555 1_555
H18B C17B 1_555 1_555
C18B P1B 1_555 1_555
C19B C18B 1_555 1_555
H19B C19B 1_555 1_555
C20B C19B 1_555 1_555
H20B C20B 1_555 1_555
C21B C20B 1_555 1_555
H21B C21B 1_555 1_555
C22B C21B 1_555 1_555
H22B C22B 1_555 1_555
C23B C18B 1_555 1_555
H23B C23B 1_555 1_555
C24B P1B 1_555 1_555
C25B C24B 1_555 1_555
H24B C25B 1_555 1_555
C26B C25B 1_555 1_555
H25B C26B 1_555 1_555
C27B C26B 1_555 1_555
H26B C27B 1_555 1_555
C28B C27B 1_555 1_555
H27B C28B 1_555 1_555
C29B C24B 1_555 1_555
H28B C29B 1_555 1_555
C13B C14 1_555 1_555
H11B C13B 1_555 1_555
H10B C12B 1_555 1_555
C4 C5 1_555 1_555
C16 C17 1_555 1_555
C22 C23 1_555 1_555
C28 C29 1_555 1_555
C34 C35 1_555 1_555
C40 C41 1_555 1_555
C49 C50 1_555 1_555
N2B C13B 1_555 1_555
C17B P2B 1_555 1_555
C4B C5B 1_555 1_555
C10B C11B 1_555 1_555
C10B C14B 1_555 1_555
C34B C35B 1_555 1_555
C40B C41B 1_555 1_555
C22B C23B 1_555 1_555
C28B C29B 1_555 1_555

#END
