
#######################################################################
#
#                 Cambridge Crystallographic Data Centre
#                                CCDC 
#
#######################################################################
#
# If this CIF has been generated from an entry in the Cambridge 
# Structural Database, then it will include bibliographic, chemical, 
# crystal, experimental, refinement or atomic coordinate data resulting 
# from the CCDC's data processing and validation procedures.
#
#######################################################################

data_XAFYEJ
_chemical_formula_moiety         
'C84 H80 N4 O8 P4 Pd2 4+,4(C1 F3 O3 S1 1-),2(C1 H4 O1),2(H2 O1)'
_chemical_name_systematic        
'bis(\m~2~-propylene bis(pyridine-4-carboxylate))-bis(1,3-bis(diphenylphosphino)propane)-di-palladium(ii) tetrakis(trifluoromethanesulfonate) methanol solvate dihydrate'
_symmetry_cell_setting           triclinic
_symmetry_space_group_name_H-M   'P -1'
_symmetry_Int_Tables_number      2
_space_group_name_Hall           '-P 1'
loop_
_symmetry_equiv_pos_site_id
_symmetry_equiv_pos_as_xyz
1 x,y,z
2 -x,-y,-z
_cell_length_a                   10.5043(2)
_cell_length_b                   12.0394(3)
_cell_length_c                   20.2334(6)
_cell_angle_alpha                91.9466(10)
_cell_angle_beta                 104.8438(12)
_cell_angle_gamma                90.2628(20)
_cell_volume                     2471.77
_exptl_crystal_colour            colorless
_exptl_crystal_description       plate
_cell_formula_units_Z            1
loop_
_atom_site_label
_atom_site_type_symbol
_atom_site_fract_x
_atom_site_fract_y
_atom_site_fract_z
Pd1 Pd 0.10998(3) 0.17408(3) 0.247682(18)
P1 P 0.02325(11) 0.08457(9) 0.32337(6)
P2 P -0.03680(11) 0.31158(9) 0.24637(6)
O1 O 0.5312(3) 0.3693(3) 0.05544(19)
O2 O 0.3537(3) 0.3191(3) -0.02897(16)
O3 O 0.4867(3) 0.2770(2) -0.20910(17)
O4 O 0.3326(3) 0.1692(3) -0.28132(18)
N1 N 0.1949(3) 0.2469(3) 0.17533(19)
N2 N 0.2549(3) 0.0510(3) 0.24858(19)
C1 C 0.3106(5) 0.3011(4) 0.1970(2)
H1 H 0.3430 0.3195 0.2444
C2 C 0.3842(5) 0.3313(4) 0.1527(2)
H2 H 0.4657 0.3699 0.1695
C3 C 0.3378(4) 0.3045(3) 0.0836(2)
C4 C 0.2162(4) 0.2499(4) 0.0609(2)
H3 H 0.1805 0.2321 0.0137
C5 C 0.1489(4) 0.2224(4) 0.1084(2)
H4 H 0.0665 0.1845 0.0929
C6 C 0.4197(5) 0.3346(4) 0.0359(3)
C7 C 0.4243(5) 0.3438(4) -0.0798(3)
H5 H 0.4950 0.2892 -0.0787
H6 H 0.4646 0.4191 -0.0709
C8 C 0.3249(5) 0.3372(4) -0.1480(2)
H7 H 0.2549 0.3920 -0.1480
H8 H 0.2835 0.2622 -0.1553
C9 C 0.3863(5) 0.3597(4) -0.2060(3)
H9 H 0.3173 0.3572 -0.2498
H10 H 0.4271 0.4349 -0.1993
C10 C 0.4428(5) 0.1860(4) -0.2487(3)
C11 C 0.5527(4) 0.1045(4) -0.2468(2)
C12 C 0.5240(5) 0.0101(4) -0.2897(3)
H11 H 0.4385 -0.0018 -0.3193
C13 C 0.3775(4) 0.0660(4) 0.2885(3)
H12 H 0.3974 0.1314 0.3170
C14 C 0.2273(4) -0.0397(4) 0.2066(2)
H13 H 0.1410 -0.0494 0.1775
C15 C 0.6789(4) 0.1194(4) -0.2046(2)
H14 H 0.7006 0.1832 -0.1749
C16 C -0.1553(4) 0.0838(4) 0.3042(3)
H15 H -0.1906 0.0427 0.2600
H16 H -0.1825 0.0424 0.3399
C17 C -0.2184(4) 0.1982(4) 0.3000(3)
H17 H -0.3133 0.1888 0.2973
H18 H -0.1779 0.2420 0.3425
C18 C -0.2041(4) 0.2633(4) 0.2389(2)
H19 H -0.2628 0.3283 0.2340
H20 H -0.2333 0.2155 0.1968
C19 C 0.0864(5) 0.1340(3) 0.4113(2)
C20 C 0.2160(5) 0.1729(4) 0.4335(3)
H21 H 0.2681 0.1777 0.4015
C21 C 0.2700(5) 0.2047(4) 0.5010(3)
H22 H 0.3585 0.2312 0.5156
C22 C 0.1943(6) 0.1977(4) 0.5474(3)
H23 H 0.2318 0.2176 0.5942
C23 C 0.0645(6) 0.1619(4) 0.5263(3)
H24 H 0.0123 0.1592 0.5582
C24 C 0.0110(6) 0.1300(4) 0.4586(3)
H25 H -0.0781 0.1051 0.4442
C25 C 0.0642(4) -0.0618(4) 0.3222(2)
C26 C -0.0120(5) -0.1342(4) 0.2731(3)
H26 H -0.0883 -0.1080 0.2416
C27 C 0.0228(5) -0.2451(4) 0.2697(3)
H27 H -0.0300 -0.2944 0.2359
C28 C 0.1329(5) -0.2837(4) 0.3149(3)
H28 H 0.1561 -0.3596 0.3126
C29 C 0.2092(6) -0.2123(4) 0.3633(3)
H29 H 0.2860 -0.2388 0.3943
C30 C 0.1749(5) -0.1012(4) 0.3675(3)
H30 H 0.2278 -0.0524 0.4016
C31 C 0.0070(4) 0.4034(3) 0.3218(2)
C32 C 0.1359(5) 0.4093(4) 0.3617(3)
H31 H 0.2015 0.3653 0.3492
C33 C 0.1700(5) 0.4791(4) 0.4199(3)
H32 H 0.2585 0.4826 0.4470
C34 C 0.0759(5) 0.5428(4) 0.4383(3)
H33 H 0.0993 0.5907 0.4779
C35 C -0.0522(5) 0.5376(4) 0.3994(3)
H34 H -0.1168 0.5822 0.4124
C36 C -0.0883(5) 0.4681(4) 0.3415(3)
H35 H -0.1774 0.4642 0.3154
C37 C -0.0490(4) 0.3990(4) 0.1743(2)
C38 C -0.1431(5) 0.3806(4) 0.1127(3)
H36 H -0.2043 0.3206 0.1077
C39 C -0.1485(6) 0.4491(5) 0.0585(3)
H37 H -0.2134 0.4362 0.0166
C40 C -0.0593(6) 0.5362(5) 0.0653(3)
H38 H -0.0638 0.5838 0.0283
C41 C 0.0353(6) 0.5539(4) 0.1254(3)
H39 H 0.0966 0.6136 0.1293
C42 C 0.0435(5) 0.4872(4) 0.1801(3)
H40 H 0.1104 0.5001 0.2213
C13A C 0.6225(4) -0.0660(4) -0.2885(3)
N2A N 0.7451(3) -0.0510(3) -0.24858(19)
Pd1A Pd 0.89002(3) -0.17408(3) -0.247682(18)
P1A P 0.97675(11) -0.08457(9) -0.32337(6)
C16A C 1.1553(4) -0.0838(4) -0.3042(3)
H15A H 1.1906 -0.0427 -0.2600
H16A H 1.1825 -0.0424 -0.3399
C17A C 1.2184(4) -0.1982(4) -0.3000(3)
H17A H 1.3133 -0.1888 -0.2973
H18A H 1.1779 -0.2420 -0.3425
C18A C 1.2041(4) -0.2633(4) -0.2389(2)
P2A P 1.03680(11) -0.31158(9) -0.24637(6)
N1A N 0.8051(3) -0.2469(3) -0.17533(19)
C1A C 0.6894(5) -0.3011(4) -0.1970(2)
H1A H 0.6570 -0.3195 -0.2444
C2A C 0.6158(5) -0.3313(4) -0.1527(2)
H2A H 0.5343 -0.3699 -0.1695
C3A C 0.6622(4) -0.3045(3) -0.0836(2)
C4A C 0.7838(4) -0.2499(4) -0.0609(2)
H3A H 0.8195 -0.2321 -0.0137
C5A C 0.8511(4) -0.2224(4) -0.1084(2)
H4A H 0.9335 -0.1845 -0.0929
C6A C 0.5803(5) -0.3346(4) -0.0359(3)
O1A O 0.4688(3) -0.3693(3) -0.05544(19)
O2A O 0.6463(3) -0.3191(3) 0.02897(16)
C7A C 0.5757(5) -0.3438(4) 0.0798(3)
H5A H 0.5050 -0.2892 0.0787
H6A H 0.5354 -0.4191 0.0709
C8A C 0.6751(5) -0.3372(4) 0.1480(2)
H7A H 0.7451 -0.3920 0.1480
H8A H 0.7165 -0.2622 0.1553
C9A C 0.6137(5) -0.3597(4) 0.2060(3)
O3A O 0.5133(3) -0.2770(2) 0.20910(17)
C10A C 0.5572(5) -0.1860(4) 0.2487(3)
O4A O 0.6674(3) -0.1692(3) 0.28132(18)
C11A C 0.4473(4) -0.1045(4) 0.2468(2)
C12A C 0.4760(5) -0.0101(4) 0.2897(3)
H11A H 0.5615 0.0018 0.3193
C15A C 0.3211(4) -0.1194(4) 0.2046(2)
H14A H 0.2994 -0.1832 0.1749
H9A H 0.6827 -0.3572 0.2498
H10A H 0.5729 -0.4349 0.1993
C31A C 0.9930(4) -0.4034(3) -0.3218(2)
C32A C 0.8641(5) -0.4093(4) -0.3617(3)
H31A H 0.7985 -0.3653 -0.3492
C33A C 0.8300(5) -0.4791(4) -0.4199(3)
H32A H 0.7415 -0.4826 -0.4470
C34A C 0.9241(5) -0.5428(4) -0.4383(3)
H33A H 0.9007 -0.5907 -0.4779
C35A C 1.0522(5) -0.5376(4) -0.3994(3)
H34A H 1.1168 -0.5822 -0.4124
C36A C 1.0883(5) -0.4681(4) -0.3415(3)
H35A H 1.1774 -0.4642 -0.3154
C37A C 1.0490(4) -0.3990(4) -0.1743(2)
C38A C 1.1431(5) -0.3806(4) -0.1127(3)
H36A H 1.2043 -0.3206 -0.1077
C39A C 1.1485(6) -0.4491(5) -0.0585(3)
H37A H 1.2134 -0.4362 -0.0166
C40A C 1.0593(6) -0.5362(5) -0.0653(3)
H38A H 1.0638 -0.5838 -0.0283
C41A C 0.9647(6) -0.5539(4) -0.1254(3)
H39A H 0.9034 -0.6136 -0.1293
C42A C 0.9565(5) -0.4872(4) -0.1801(3)
H40A H 0.8896 -0.5001 -0.2213
H19A H 1.2628 -0.3283 -0.2340
H20A H 1.2333 -0.2155 -0.1968
C19A C 0.9136(5) -0.1340(3) -0.4113(2)
C20A C 0.7840(5) -0.1729(4) -0.4335(3)
H21A H 0.7319 -0.1777 -0.4015
C21A C 0.7300(5) -0.2047(4) -0.5010(3)
H22A H 0.6415 -0.2312 -0.5156
C22A C 0.8057(6) -0.1977(4) -0.5474(3)
H23A H 0.7682 -0.2176 -0.5942
C23A C 0.9355(6) -0.1619(4) -0.5263(3)
H24A H 0.9877 -0.1592 -0.5582
C24A C 0.9890(6) -0.1300(4) -0.4586(3)
H25A H 1.0781 -0.1051 -0.4442
C25A C 0.9358(4) 0.0618(4) -0.3222(2)
C26A C 1.0120(5) 0.1342(4) -0.2731(3)
H26A H 1.0883 0.1080 -0.2416
C27A C 0.9772(5) 0.2451(4) -0.2697(3)
H27A H 1.0300 0.2944 -0.2359
C28A C 0.8671(5) 0.2837(4) -0.3149(3)
H28A H 0.8439 0.3596 -0.3126
C29A C 0.7908(6) 0.2123(4) -0.3633(3)
H29A H 0.7140 0.2388 -0.3943
C30A C 0.8251(5) 0.1012(4) -0.3675(3)
H30A H 0.7722 0.0524 -0.4016
C14A C 0.7727(4) 0.0397(4) -0.2066(2)
H13A H 0.8590 0.0494 -0.1775
H12A H 0.6026 -0.1314 -0.3170
S1 S 0.55416(11) 0.39454(10) 0.36534(6)
F1 F 0.6066(3) 0.6071(3) 0.3718(2)
F2 F 0.4896(4) 0.5594(3) 0.43874(19)
F3 F 0.4021(3) 0.5645(3) 0.3310(2)
O5 O 0.6667(3) 0.3763(3) 0.42111(19)
O6 O 0.5795(3) 0.3965(3) 0.29822(17)
O7 O 0.4384(3) 0.3317(3) 0.36831(19)
C43 C 0.5109(5) 0.5384(4) 0.3775(3)
S2 S 0.83793(16) 0.99515(12) 0.08807(9)
F4 F 0.6003(5) 0.9321(4) 0.0349(4)
F5 F 0.6595(5) 0.9677(4) 0.1472(3)
F6 F 0.6232(5) 1.1023(4) 0.0735(4)
O8 O 0.8343(7) 1.0330(5) 0.0135(3)
O9 O 0.8777(4) 0.8829(3) 0.0974(2)
O10 O 0.9024(4) 1.0749(3) 0.1385(2)
C44 C 0.6722(8) 0.9969(6) 0.0878(5)
O11 O 0.6792(6) 0.1328(4) 0.4352(4)
H41 H 0.6862 0.2024 0.4385
C45 C 0.5836(8) 0.0988(7) 0.4648(4)
H42 H 0.6099 0.1184 0.5139
H43 H 0.5714 0.0181 0.4583
H44 H 0.5008 0.1355 0.4437
O12 O 0.8931(5) 1.2082(4) -0.0619(3)
H45 H 0.976(6) 1.159(6) -0.074(4)
H46 H 0.867(8) 1.139(5) -0.030(4)
loop_
_geom_bond_atom_site_label_1
_geom_bond_atom_site_label_2
_geom_bond_site_symmetry_1
_geom_bond_site_symmetry_2
Pd1 P1 1_555 1_555
P1 C16 1_555 1_555
P2 Pd1 1_555 1_555
O1 C6 1_555 1_555
O2 C6 1_555 1_555
O3 C9 1_555 1_555
O4 C10 1_555 1_555
N1 Pd1 1_555 1_555
N2 Pd1 1_555 1_555
C1 N1 1_555 1_555
H1 C1 1_555 1_555
C2 C1 1_555 1_555
H2 C2 1_555 1_555
C3 C2 1_555 1_555
C4 C3 1_555 1_555
H3 C4 1_555 1_555
C5 N1 1_555 1_555
H4 C5 1_555 1_555
C6 C3 1_555 1_555
C7 O2 1_555 1_555
H5 C7 1_555 1_555
H6 C7 1_555 1_555
C8 C7 1_555 1_555
H7 C8 1_555 1_555
H8 C8 1_555 1_555
C9 C8 1_555 1_555
H9 C9 1_555 1_555
H10 C9 1_555 1_555
C10 O3 1_555 1_555
C11 C10 1_555 1_555
C12 C11 1_555 1_555
H11 C12 1_555 1_555
C13 N2 1_555 1_555
H12 C13 1_555 1_555
C14 N2 1_555 1_555
H13 C14 1_555 1_555
C15 C11 1_555 1_555
H14 C15 1_555 1_555
C16 H15 1_555 1_555
H16 C16 1_555 1_555
C17 C16 1_555 1_555
H17 C17 1_555 1_555
H18 C17 1_555 1_555
C18 P2 1_555 1_555
H19 C18 1_555 1_555
H20 C18 1_555 1_555
C19 P1 1_555 1_555
C20 C19 1_555 1_555
H21 C20 1_555 1_555
C21 C20 1_555 1_555
H22 C21 1_555 1_555
C22 C21 1_555 1_555
H23 C22 1_555 1_555
C23 C22 1_555 1_555
H24 C23 1_555 1_555
C24 C19 1_555 1_555
H25 C24 1_555 1_555
C25 P1 1_555 1_555
C26 C25 1_555 1_555
H26 C26 1_555 1_555
C27 C26 1_555 1_555
H27 C27 1_555 1_555
C28 C27 1_555 1_555
H28 C28 1_555 1_555
C29 C28 1_555 1_555
H29 C29 1_555 1_555
C30 C25 1_555 1_555
H30 C30 1_555 1_555
C31 P2 1_555 1_555
C32 C31 1_555 1_555
H31 C32 1_555 1_555
C33 C32 1_555 1_555
H32 C33 1_555 1_555
C34 C33 1_555 1_555
H33 C34 1_555 1_555
C35 C34 1_555 1_555
H34 C35 1_555 1_555
C36 C31 1_555 1_555
H35 C36 1_555 1_555
C37 P2 1_555 1_555
C38 C37 1_555 1_555
H36 C38 1_555 1_555
C39 C38 1_555 1_555
H37 C39 1_555 1_555
C40 C39 1_555 1_555
H38 C40 1_555 1_555
C41 C40 1_555 1_555
H39 C41 1_555 1_555
C42 C37 1_555 1_555
H40 C42 1_555 1_555
S1 O5 1_555 1_555
F1 C43 1_555 1_555
F2 C43 1_555 1_555
F3 C43 1_555 1_555
O6 S1 1_555 1_555
O7 S1 1_555 1_555
C43 S1 1_555 1_555
S2 O8 1_555 1_555
F4 C44 1_555 1_555
F5 C44 1_555 1_555
F6 C44 1_555 1_555
O9 S2 1_555 1_555
O10 S2 1_555 1_555
C44 S2 1_555 1_555
O11 H41 1_555 1_555
C45 O11 1_555 1_555
H42 C45 1_555 1_555
H43 C45 1_555 1_555
H44 C45 1_555 1_555
O12 H45 1_555 1_555
H46 O12 1_555 1_555
C13A C12 1_555 1_555
N2A C13A 1_555 1_555
Pd1A N2A 1_555 1_555
P1A Pd1A 1_555 1_555
C16A P1A 1_555 1_555
H15A C16A 1_555 1_555
H16A C16A 1_555 1_555
C17A C16A 1_555 1_555
H17A C17A 1_555 1_555
H18A C17A 1_555 1_555
C18A C17A 1_555 1_555
P2A Pd1A 1_555 1_555
N1A Pd1A 1_555 1_555
C1A N1A 1_555 1_555
H1A C1A 1_555 1_555
C2A C1A 1_555 1_555
H2A C2A 1_555 1_555
C3A C2A 1_555 1_555
C4A C3A 1_555 1_555
H3A C4A 1_555 1_555
C5A N1A 1_555 1_555
H4A C5A 1_555 1_555
C6A C3A 1_555 1_555
O1A C6A 1_555 1_555
O2A C6A 1_555 1_555
C7A O2A 1_555 1_555
H5A C7A 1_555 1_555
H6A C7A 1_555 1_555
C8A C7A 1_555 1_555
H7A C8A 1_555 1_555
H8A C8A 1_555 1_555
C9A C8A 1_555 1_555
O3A C9A 1_555 1_555
C10A O3A 1_555 1_555
O4A C10A 1_555 1_555
C11A C10A 1_555 1_555
C12A C13 1_555 1_555
H11A C12A 1_555 1_555
C15A C14 1_555 1_555
H14A C15A 1_555 1_555
H9A C9A 1_555 1_555
H10A C9A 1_555 1_555
C31A P2A 1_555 1_555
C32A C31A 1_555 1_555
H31A C32A 1_555 1_555
C33A C32A 1_555 1_555
H32A C33A 1_555 1_555
C34A C33A 1_555 1_555
H33A C34A 1_555 1_555
C35A C34A 1_555 1_555
H34A C35A 1_555 1_555
C36A C31A 1_555 1_555
H35A C36A 1_555 1_555
C37A P2A 1_555 1_555
C38A C37A 1_555 1_555
H36A C38A 1_555 1_555
C39A C38A 1_555 1_555
H37A C39A 1_555 1_555
C40A C39A 1_555 1_555
H38A C40A 1_555 1_555
C41A C40A 1_555 1_555
H39A C41A 1_555 1_555
C42A C37A 1_555 1_555
H40A C42A 1_555 1_555
H19A C18A 1_555 1_555
H20A C18A 1_555 1_555
C19A P1A 1_555 1_555
C20A C19A 1_555 1_555
H21A C20A 1_555 1_555
C21A C20A 1_555 1_555
H22A C21A 1_555 1_555
C22A C21A 1_555 1_555
H23A C22A 1_555 1_555
C23A C22A 1_555 1_555
H24A C23A 1_555 1_555
C24A C19A 1_555 1_555
H25A C24A 1_555 1_555
C25A P1A 1_555 1_555
C26A C25A 1_555 1_555
H26A C26A 1_555 1_555
C27A C26A 1_555 1_555
H27A C27A 1_555 1_555
C28A C27A 1_555 1_555
H28A C28A 1_555 1_555
C29A C28A 1_555 1_555
H29A C29A 1_555 1_555
C30A C25A 1_555 1_555
H30A C30A 1_555 1_555
C14A C15 1_555 1_555
H13A C14A 1_555 1_555
H12A C13A 1_555 1_555
C4 C5 1_555 1_555
C17 C18 1_555 1_555
C23 C24 1_555 1_555
C29 C30 1_555 1_555
C35 C36 1_555 1_555
C41 C42 1_555 1_555
N2A C14A 1_555 1_555
C18A P2A 1_555 1_555
C4A C5A 1_555 1_555
C11A C12A 1_555 1_555
C11A C15A 1_555 1_555
C35A C36A 1_555 1_555
C41A C42A 1_555 1_555
C23A C24A 1_555 1_555
C29A C30A 1_555 1_555

#END
