
#######################################################################
#
#                 Cambridge Crystallographic Data Centre
#                                CCDC 
#
#######################################################################
#
# If this CIF has been generated from an entry in the Cambridge 
# Structural Database, then it will include bibliographic, chemical, 
# crystal, experimental, refinement or atomic coordinate data resulting 
# from the CCDC's data processing and validation procedures.
#
#######################################################################

data_XAFYIN
_chemical_formula_moiety         
'C40 H60 N4 O8 P4 Pt2 4+,4(C1 F3 O3 S1 1-),C1 H3 N1 O2'
_chemical_name_systematic        
'bis(\m~2~-ethylene bis(pyridine-4-carboxylate))-tetrakis(trimethylphosphine)-di-platinum(ii) tetrakis(trifluoromethanesulfonate) nitromethane solvate'
_symmetry_cell_setting           triclinic
_symmetry_space_group_name_H-M   'P -1'
_symmetry_Int_Tables_number      2
_space_group_name_Hall           '-P 1'
loop_
_symmetry_equiv_pos_site_id
_symmetry_equiv_pos_as_xyz
1 x,y,z
2 -x,-y,-z
_cell_length_a                   8.81510(10)
_cell_length_b                   9.03470(10)
_cell_length_c                   22.8904(4)
_cell_angle_alpha                90.8881(6)
_cell_angle_beta                 91.5730(6)
_cell_angle_gamma                99.6842(6)
_cell_volume                     1796
_exptl_crystal_colour            colorless
_exptl_crystal_description       prism
_cell_formula_units_Z            1
loop_
_atom_site_label
_atom_site_type_symbol
_atom_site_fract_x
_atom_site_fract_y
_atom_site_fract_z
Pt1 Pt -0.11348(3) 0.96199(3) 0.305848(11)
P1 P -0.2977(2) 1.0330(2) 0.36132(8)
P2 P -0.0669(2) 0.77204(19) 0.36337(8)
O1 O 0.4773(7) 0.9242(8) 0.1038(3)
O2 O 0.2936(6) 0.7291(6) 0.0779(2)
O3 O 0.2648(6) 0.6646(6) -0.0543(2)
O4 O 0.0597(7) 0.4966(6) -0.0844(3)
N1 N 0.0512(7) 0.9166(6) 0.2460(2)
N2 N -0.1455(7) 1.1211(6) 0.2424(3)
C1 C 0.1933(8) 0.9941(8) 0.2462(3)
H1 H 0.2269 1.0638 0.2773
C2 C 0.2936(8) 0.9760(8) 0.2023(3)
H2 H 0.3947 1.0326 0.2031
C3 C 0.2444(8) 0.8746(8) 0.1573(3)
C4 C 0.0957(8) 0.7941(8) 0.1567(3)
H3 H 0.0598 0.7240 0.1260
C5 C 0.0014(8) 0.8179(8) 0.2016(3)
H4 H -0.1009 0.7641 0.2014
C6 C 0.3540(8) 0.8488(8) 0.1103(3)
C7 C 0.3939(9) 0.6675(10) 0.0384(3)
H5 H 0.4596 0.6071 0.0602
H6 H 0.4612 0.7493 0.0187
C8 C 0.2918(9) 0.5711(8) -0.0054(3)
H7 H 0.3420 0.4869 -0.0188
H8 H 0.1931 0.5288 0.0123
C9 C 0.1514(8) 0.6079(8) -0.0917(3)
C10 C 0.1514(8) 0.7045(7) -0.1447(3)
C11 C 0.2516(8) 0.8400(8) -0.1484(3)
H9 H 0.3240 0.8738 -0.1175
C12 C -0.2439(8) 1.0764(8) 0.1973(3)
H10 H -0.3110 0.9827 0.1995
C13 C -0.0486(8) 1.2541(8) 0.2399(3)
H11 H 0.0208 1.2863 0.2719
C14 C 0.0493(8) 0.6563(8) -0.1915(3)
H12 H -0.0188 0.5631 -0.1901
C15 C -0.3362(10) 1.2174(9) 0.3414(4)
H13 H -0.4076 1.2500 0.3690
H14 H -0.3821 1.2123 0.3018
H15 H -0.2396 1.2893 0.3427
C16 C -0.2578(10) 1.0557(10) 0.4391(3)
H16 H -0.3438 1.0917 0.4577
H17 H -0.1633 1.1288 0.4462
H18 H -0.2445 0.9589 0.4554
C17 C -0.4820(10) 0.9112(10) 0.3523(4)
H19 H -0.4769 0.8151 0.3709
H20 H -0.5076 0.8938 0.3106
H21 H -0.5614 0.9586 0.3706
C18 C 0.0221(11) 0.6364(9) 0.3232(4)
H22 H 0.0403 0.5557 0.3492
H23 H 0.1204 0.6862 0.3082
H24 H -0.0462 0.5941 0.2904
C19 C -0.2304(10) 0.6560(9) 0.3942(4)
H25 H -0.1973 0.5691 0.4127
H26 H -0.3076 0.6214 0.3632
H27 H -0.2752 0.7145 0.4236
C20 C 0.0675(10) 0.8311(9) 0.4231(4)
H28 H 0.0271 0.9037 0.4481
H29 H 0.1663 0.8782 0.4078
H30 H 0.0821 0.7437 0.4461
C12A C 0.2439(8) 0.9236(8) -0.1973(3)
N2A N 0.1455(7) 0.8789(6) -0.2424(3)
Pt1A Pt 0.11348(3) 1.03801(3) -0.305848(11)
P1A P 0.2977(2) 0.9670(2) -0.36132(8)
C15A C 0.3362(10) 0.7826(9) -0.3414(4)
H13A H 0.4076 0.7500 -0.3690
H14A H 0.3821 0.7877 -0.3018
H15A H 0.2396 0.7107 -0.3427
C16A C 0.2578(10) 0.9443(10) -0.4391(3)
H16A H 0.3438 0.9083 -0.4577
H17A H 0.1633 0.8712 -0.4462
H18A H 0.2445 1.0411 -0.4554
C17A C 0.4820(10) 1.0888(10) -0.3523(4)
H19A H 0.4769 1.1849 -0.3709
H20A H 0.5076 1.1062 -0.3106
H21A H 0.5614 1.0414 -0.3706
P2A P 0.0669(2) 1.22796(19) -0.36337(8)
C18A C -0.0221(11) 1.3636(9) -0.3232(4)
H22A H -0.0403 1.4443 -0.3492
H23A H -0.1204 1.3138 -0.3082
H24A H 0.0462 1.4059 -0.2904
C19A C 0.2304(10) 1.3440(9) -0.3942(4)
H25A H 0.1973 1.4309 -0.4127
H26A H 0.3076 1.3786 -0.3632
H27A H 0.2752 1.2855 -0.4236
C20A C -0.0675(10) 1.1689(9) -0.4231(4)
H28A H -0.0271 1.0963 -0.4481
H29A H -0.1663 1.1218 -0.4078
H30A H -0.0821 1.2563 -0.4461
N1A N -0.0512(7) 1.0834(6) -0.2460(2)
C1A C -0.1933(8) 1.0059(8) -0.2462(3)
H1A H -0.2269 0.9362 -0.2773
C2A C -0.2936(8) 1.0240(8) -0.2023(3)
H2A H -0.3947 0.9674 -0.2031
C3A C -0.2444(8) 1.1254(8) -0.1573(3)
C4A C -0.0957(8) 1.2059(8) -0.1567(3)
H3A H -0.0598 1.2760 -0.1260
C5A C -0.0014(8) 1.1821(8) -0.2016(3)
H4A H 0.1009 1.2359 -0.2014
C6A C -0.3540(8) 1.1512(8) -0.1103(3)
O1A O -0.4773(7) 1.0758(8) -0.1038(3)
O2A O -0.2936(6) 1.2709(6) -0.0779(2)
C7A C -0.3939(9) 1.3325(10) -0.0384(3)
H5A H -0.4596 1.3929 -0.0602
H6A H -0.4612 1.2507 -0.0187
C8A C -0.2918(9) 1.4289(8) 0.0054(3)
O3A O -0.2648(6) 1.3354(6) 0.0543(2)
C9A C -0.1514(8) 1.3921(8) 0.0917(3)
O4A O -0.0597(7) 1.5034(6) 0.0844(3)
C10A C -0.1514(8) 1.2955(7) 0.1447(3)
C11A C -0.2516(8) 1.1600(8) 0.1484(3)
H9A H -0.3240 1.1262 0.1175
C14A C -0.0493(8) 1.3437(8) 0.1915(3)
H12A H 0.0188 1.4369 0.1901
H7A H -0.3420 1.5131 0.0188
H8A H -0.1931 1.4712 -0.0123
C13A C 0.0486(8) 0.7459(8) -0.2399(3)
H11A H -0.0208 0.7137 -0.2719
H10A H 0.3110 1.0173 -0.1995
S1 S 0.5879(2) 0.5943(2) 0.20540(10)
F1 F 0.3165(9) 0.4793(13) 0.1656(5)
F2 F 0.4454(14) 0.3214(9) 0.2027(7)
F3 F 0.3432(12) 0.4584(17) 0.2559(5)
O5 O 0.5332(14) 0.7329(9) 0.2156(5)
O6 O 0.6408(10) 0.5768(11) 0.1487(4)
O7 O 0.6841(9) 0.5522(12) 0.2504(4)
C21 C 0.4138(13) 0.4574(14) 0.2085(6)
S2 S 0.1858(2) 0.2553(2) 0.40842(8)
F4 F 0.3614(10) 0.5055(9) 0.3798(4)
F5 F 0.2612(8) 0.5151(7) 0.4636(3)
F6 F 0.4485(7) 0.3966(9) 0.4519(4)
O8 O 0.0604(8) 0.3089(7) 0.3800(3)
O9 O 0.2717(8) 0.1716(8) 0.3712(3)
O10 O 0.1518(9) 0.1908(7) 0.4638(3)
C22 C 0.3201(11) 0.4263(11) 0.4273(4)
O11 O 0.247(4) 0.220(3) 0.0594(14)
O12 O 0.050(3) 0.051(3) 0.0269(12)
N3 N 0.176(3) 0.143(3) 0.0171(13)
C23 C 0.190(5) 0.142(5) -0.0463(14)
H31 H 0.1104 0.0644 -0.0640
H32 H 0.2921 0.1205 -0.0561
H33 H 0.1780 0.2403 -0.0613
loop_
_geom_bond_atom_site_label_1
_geom_bond_atom_site_label_2
_geom_bond_site_symmetry_1
_geom_bond_site_symmetry_2
Pt1 P1 1_555 1_555
P1 C15 1_555 1_555
P2 Pt1 1_555 1_555
O1 C6 1_555 1_555
O2 C6 1_555 1_555
O3 C8 1_555 1_555
O4 C9 1_555 1_555
N1 Pt1 1_555 1_555
N2 Pt1 1_555 1_555
C1 N1 1_555 1_555
H1 C1 1_555 1_555
C2 C1 1_555 1_555
H2 C2 1_555 1_555
C3 C2 1_555 1_555
C4 C3 1_555 1_555
H3 C4 1_555 1_555
C5 N1 1_555 1_555
H4 C5 1_555 1_555
C6 C3 1_555 1_555
C7 O2 1_555 1_555
H5 C7 1_555 1_555
H6 C7 1_555 1_555
C8 C7 1_555 1_555
H7 C8 1_555 1_555
H8 C8 1_555 1_555
C9 O3 1_555 1_555
C10 C9 1_555 1_555
C11 C10 1_555 1_555
H9 C11 1_555 1_555
C12 N2 1_555 1_555
H10 C12 1_555 1_555
C13 N2 1_555 1_555
H11 C13 1_555 1_555
C14 C10 1_555 1_555
H12 C14 1_555 1_555
C15 H13 1_555 1_555
H14 C15 1_555 1_555
H15 C15 1_555 1_555
C16 P1 1_555 1_555
H16 C16 1_555 1_555
H17 C16 1_555 1_555
H18 C16 1_555 1_555
C17 P1 1_555 1_555
H19 C17 1_555 1_555
H20 C17 1_555 1_555
H21 C17 1_555 1_555
C18 P2 1_555 1_555
H22 C18 1_555 1_555
H23 C18 1_555 1_555
H24 C18 1_555 1_555
C19 P2 1_555 1_555
H25 C19 1_555 1_555
H26 C19 1_555 1_555
H27 C19 1_555 1_555
C20 P2 1_555 1_555
H28 C20 1_555 1_555
H29 C20 1_555 1_555
H30 C20 1_555 1_555
S1 O5 1_555 1_555
F1 C21 1_555 1_555
F2 C21 1_555 1_555
F3 C21 1_555 1_555
O6 S1 1_555 1_555
O7 S1 1_555 1_555
C21 S1 1_555 1_555
S2 O8 1_555 1_555
F4 C22 1_555 1_555
F5 C22 1_555 1_555
F6 C22 1_555 1_555
O9 S2 1_555 1_555
O10 S2 1_555 1_555
C22 S2 1_555 1_555
O11 N3 1_555 1_555
O12 N3 1_555 1_555
N3 C23 1_555 1_555
C23 H31 1_555 1_555
H32 C23 1_555 1_555
H33 C23 1_555 1_555
C12A C11 1_555 1_555
N2A C12A 1_555 1_555
Pt1A N2A 1_555 1_555
P1A Pt1A 1_555 1_555
C15A P1A 1_555 1_555
H13A C15A 1_555 1_555
H14A C15A 1_555 1_555
H15A C15A 1_555 1_555
C16A P1A 1_555 1_555
H16A C16A 1_555 1_555
H17A C16A 1_555 1_555
H18A C16A 1_555 1_555
C17A P1A 1_555 1_555
H19A C17A 1_555 1_555
H20A C17A 1_555 1_555
H21A C17A 1_555 1_555
P2A Pt1A 1_555 1_555
C18A P2A 1_555 1_555
H22A C18A 1_555 1_555
H23A C18A 1_555 1_555
H24A C18A 1_555 1_555
C19A P2A 1_555 1_555
H25A C19A 1_555 1_555
H26A C19A 1_555 1_555
H27A C19A 1_555 1_555
C20A P2A 1_555 1_555
H28A C20A 1_555 1_555
H29A C20A 1_555 1_555
H30A C20A 1_555 1_555
N1A Pt1A 1_555 1_555
C1A N1A 1_555 1_555
H1A C1A 1_555 1_555
C2A C1A 1_555 1_555
H2A C2A 1_555 1_555
C3A C2A 1_555 1_555
C4A C3A 1_555 1_555
H3A C4A 1_555 1_555
C5A N1A 1_555 1_555
H4A C5A 1_555 1_555
C6A C3A 1_555 1_555
O1A C6A 1_555 1_555
O2A C6A 1_555 1_555
C7A O2A 1_555 1_555
H5A C7A 1_555 1_555
H6A C7A 1_555 1_555
C8A C7A 1_555 1_555
O3A C8A 1_555 1_555
C9A O3A 1_555 1_555
O4A C9A 1_555 1_555
C10A C9A 1_555 1_555
C11A C12 1_555 1_555
H9A C11A 1_555 1_555
C14A C13 1_555 1_555
H12A C14A 1_555 1_555
H7A C8A 1_555 1_555
H8A C8A 1_555 1_555
C13A C14 1_555 1_555
H11A C13A 1_555 1_555
H10A C12A 1_555 1_555
C4 C5 1_555 1_555
N2A C13A 1_555 1_555
C4A C5A 1_555 1_555
C10A C11A 1_555 1_555
C10A C14A 1_555 1_555

#END
