# generated using pymatgen
data_CuH21(C3O)5
_symmetry_space_group_name_H-M   'P 1'
_cell_length_a   29.29600000
_cell_length_b   29.29600000
_cell_length_c   41.22000000
_cell_angle_alpha   90.00000000
_cell_angle_beta   90.00000000
_cell_angle_gamma   90.00000000
_symmetry_Int_Tables_number   1
_chemical_formula_structural   CuH21(C3O)5
_chemical_formula_sum   'Cu48 H1008 C720 O240'
_cell_volume   35377.29649152
_cell_formula_units_Z   48
loop_
 _symmetry_equiv_pos_site_id
 _symmetry_equiv_pos_as_xyz
  1  'x, y, z'
loop_
 _atom_site_type_symbol
 _atom_site_label
 _atom_site_symmetry_multiplicity
 _atom_site_fract_x
 _atom_site_fract_y
 _atom_site_fract_z
 _atom_site_occupancy
  Cu  Cu1  1  0.259850  0.259850  0.000000  1.0
  Cu  Cu2  1  0.740150  0.740150  0.000000  1.0
  Cu  Cu3  1  0.740150  0.259850  0.000000  1.0
  Cu  Cu4  1  0.259850  0.740150  0.000000  1.0
  Cu  Cu5  1  0.759850  0.759850  0.500000  1.0
  Cu  Cu6  1  0.240150  0.240150  0.500000  1.0
  Cu  Cu7  1  0.240150  0.759850  0.500000  1.0
  Cu  Cu8  1  0.759850  0.240150  0.500000  1.0
  Cu  Cu9  1  0.195580  0.195580  0.000000  1.0
  Cu  Cu10  1  0.804420  0.804420  0.000000  1.0
  Cu  Cu11  1  0.804420  0.195580  0.000000  1.0
  Cu  Cu12  1  0.195580  0.804420  0.000000  1.0
  Cu  Cu13  1  0.695580  0.695580  0.500000  1.0
  Cu  Cu14  1  0.304420  0.304420  0.500000  1.0
  Cu  Cu15  1  0.304420  0.695580  0.500000  1.0
  Cu  Cu16  1  0.695580  0.304420  0.500000  1.0
  Cu  Cu17  1  0.258340  0.000000  0.181320  1.0
  Cu  Cu18  1  0.741660  0.000000  0.181320  1.0
  Cu  Cu19  1  0.000000  0.258340  0.181320  1.0
  Cu  Cu20  1  0.000000  0.741660  0.181320  1.0
  Cu  Cu21  1  0.741660  0.000000  0.818680  1.0
  Cu  Cu22  1  0.258340  0.000000  0.818680  1.0
  Cu  Cu23  1  0.000000  0.258340  0.818680  1.0
  Cu  Cu24  1  0.000000  0.741660  0.818680  1.0
  Cu  Cu25  1  0.758340  0.500000  0.681320  1.0
  Cu  Cu26  1  0.241660  0.500000  0.681320  1.0
  Cu  Cu27  1  0.500000  0.758340  0.681320  1.0
  Cu  Cu28  1  0.500000  0.241660  0.681320  1.0
  Cu  Cu29  1  0.241660  0.500000  0.318680  1.0
  Cu  Cu30  1  0.758340  0.500000  0.318680  1.0
  Cu  Cu31  1  0.500000  0.758340  0.318680  1.0
  Cu  Cu32  1  0.500000  0.241660  0.318680  1.0
  Cu  Cu33  1  0.195830  0.000000  0.134540  1.0
  Cu  Cu34  1  0.804170  0.000000  0.134540  1.0
  Cu  Cu35  1  0.000000  0.195830  0.134540  1.0
  Cu  Cu36  1  0.000000  0.804170  0.134540  1.0
  Cu  Cu37  1  0.804170  0.000000  0.865460  1.0
  Cu  Cu38  1  0.195830  0.000000  0.865460  1.0
  Cu  Cu39  1  0.000000  0.195830  0.865460  1.0
  Cu  Cu40  1  0.000000  0.804170  0.865460  1.0
  Cu  Cu41  1  0.695830  0.500000  0.634540  1.0
  Cu  Cu42  1  0.304170  0.500000  0.634540  1.0
  Cu  Cu43  1  0.500000  0.695830  0.634540  1.0
  Cu  Cu44  1  0.500000  0.304170  0.634540  1.0
  Cu  Cu45  1  0.304170  0.500000  0.365460  1.0
  Cu  Cu46  1  0.695830  0.500000  0.365460  1.0
  Cu  Cu47  1  0.500000  0.695830  0.365460  1.0
  Cu  Cu48  1  0.500000  0.304170  0.365460  1.0
  H  H49  1  0.162900  0.162900  0.330300  1
  H  H50  1  0.837100  0.837100  0.330300  1
  H  H51  1  0.837100  0.162900  0.330300  1
  H  H52  1  0.162900  0.837100  0.330300  1
  H  H53  1  0.837100  0.162900  0.669700  1
  H  H54  1  0.162900  0.837100  0.669700  1
  H  H55  1  0.162900  0.162900  0.669700  1
  H  H56  1  0.837100  0.837100  0.669700  1
  H  H57  1  0.662900  0.662900  0.830300  1
  H  H58  1  0.337100  0.337100  0.830300  1
  H  H59  1  0.337100  0.662900  0.830300  1
  H  H60  1  0.662900  0.337100  0.830300  1
  H  H61  1  0.337100  0.662900  0.169700  1
  H  H62  1  0.662900  0.337100  0.169700  1
  H  H63  1  0.662900  0.662900  0.169700  1
  H  H64  1  0.337100  0.337100  0.169700  1
  H  H65  1  0.116900  0.156700  0.311700  1
  H  H66  1  0.883100  0.843300  0.311700  1
  H  H67  1  0.843300  0.116900  0.311700  1
  H  H68  1  0.156700  0.883100  0.311700  1
  H  H69  1  0.883100  0.156700  0.688300  1
  H  H70  1  0.116900  0.843300  0.688300  1
  H  H71  1  0.156700  0.116900  0.688300  1
  H  H72  1  0.843300  0.883100  0.688300  1
  H  H73  1  0.616900  0.656700  0.811700  1
  H  H74  1  0.383100  0.343300  0.811700  1
  H  H75  1  0.343300  0.616900  0.811700  1
  H  H76  1  0.656700  0.383100  0.811700  1
  H  H77  1  0.383100  0.656700  0.188300  1
  H  H78  1  0.616900  0.343300  0.188300  1
  H  H79  1  0.656700  0.616900  0.188300  1
  H  H80  1  0.343300  0.383100  0.188300  1
  H  H81  1  0.883100  0.843300  0.688300  1
  H  H82  1  0.116900  0.156700  0.688300  1
  H  H83  1  0.156700  0.883100  0.688300  1
  H  H84  1  0.843300  0.116900  0.688300  1
  H  H85  1  0.116900  0.843300  0.311700  1
  H  H86  1  0.883100  0.156700  0.311700  1
  H  H87  1  0.843300  0.883100  0.311700  1
  H  H88  1  0.156700  0.116900  0.311700  1
  H  H89  1  0.383100  0.343300  0.188300  1
  H  H90  1  0.616900  0.656700  0.188300  1
  H  H91  1  0.656700  0.383100  0.188300  1
  H  H92  1  0.343300  0.616900  0.188300  1
  H  H93  1  0.616900  0.343300  0.811700  1
  H  H94  1  0.383100  0.656700  0.811700  1
  H  H95  1  0.343300  0.383100  0.811700  1
  H  H96  1  0.656700  0.616900  0.811700  1
  H  H97  1  0.176600  0.235400  0.302200  1
  H  H98  1  0.823400  0.764600  0.302200  1
  H  H99  1  0.764600  0.176600  0.302200  1
  H  H100  1  0.235400  0.823400  0.302200  1
  H  H101  1  0.823400  0.235400  0.697800  1
  H  H102  1  0.176600  0.764600  0.697800  1
  H  H103  1  0.235400  0.176600  0.697800  1
  H  H104  1  0.764600  0.823400  0.697800  1
  H  H105  1  0.676600  0.735400  0.802200  1
  H  H106  1  0.323400  0.264600  0.802200  1
  H  H107  1  0.264600  0.676600  0.802200  1
  H  H108  1  0.735400  0.323400  0.802200  1
  H  H109  1  0.323400  0.735400  0.197800  1
  H  H110  1  0.676600  0.264600  0.197800  1
  H  H111  1  0.735400  0.676600  0.197800  1
  H  H112  1  0.264600  0.323400  0.197800  1
  H  H113  1  0.823400  0.764600  0.697800  1
  H  H114  1  0.176600  0.235400  0.697800  1
  H  H115  1  0.235400  0.823400  0.697800  1
  H  H116  1  0.764600  0.176600  0.697800  1
  H  H117  1  0.176600  0.764600  0.302200  1
  H  H118  1  0.823400  0.235400  0.302200  1
  H  H119  1  0.764600  0.823400  0.302200  1
  H  H120  1  0.235400  0.176600  0.302200  1
  H  H121  1  0.323400  0.264600  0.197800  1
  H  H122  1  0.676600  0.735400  0.197800  1
  H  H123  1  0.735400  0.323400  0.197800  1
  H  H124  1  0.264600  0.676600  0.197800  1
  H  H125  1  0.676600  0.264600  0.802200  1
  H  H126  1  0.323400  0.735400  0.802200  1
  H  H127  1  0.264600  0.323400  0.802200  1
  H  H128  1  0.735400  0.676600  0.802200  1
  H  H129  1  0.129700  0.228600  0.282900  1
  H  H130  1  0.870300  0.771400  0.282900  1
  H  H131  1  0.771400  0.129700  0.282900  1
  H  H132  1  0.228600  0.870300  0.282900  1
  H  H133  1  0.870300  0.228600  0.717100  1
  H  H134  1  0.129700  0.771400  0.717100  1
  H  H135  1  0.228600  0.129700  0.717100  1
  H  H136  1  0.771400  0.870300  0.717100  1
  H  H137  1  0.629700  0.728600  0.782900  1
  H  H138  1  0.370300  0.271400  0.782900  1
  H  H139  1  0.271400  0.629700  0.782900  1
  H  H140  1  0.728600  0.370300  0.782900  1
  H  H141  1  0.370300  0.728600  0.217100  1
  H  H142  1  0.629700  0.271400  0.217100  1
  H  H143  1  0.728600  0.629700  0.217100  1
  H  H144  1  0.271400  0.370300  0.217100  1
  H  H145  1  0.870300  0.771400  0.717100  1
  H  H146  1  0.129700  0.228600  0.717100  1
  H  H147  1  0.228600  0.870300  0.717100  1
  H  H148  1  0.771400  0.129700  0.717100  1
  H  H149  1  0.129700  0.771400  0.282900  1
  H  H150  1  0.870300  0.228600  0.282900  1
  H  H151  1  0.771400  0.870300  0.282900  1
  H  H152  1  0.228600  0.129700  0.282900  1
  H  H153  1  0.370300  0.271400  0.217100  1
  H  H154  1  0.629700  0.728600  0.217100  1
  H  H155  1  0.728600  0.370300  0.217100  1
  H  H156  1  0.271400  0.629700  0.217100  1
  H  H157  1  0.629700  0.271400  0.782900  1
  H  H158  1  0.370300  0.728600  0.782900  1
  H  H159  1  0.271400  0.370300  0.782900  1
  H  H160  1  0.728600  0.629700  0.782900  1
  H  H161  1  0.176200  0.237000  0.263400  1
  H  H162  1  0.823800  0.763000  0.263400  1
  H  H163  1  0.763000  0.176200  0.263400  1
  H  H164  1  0.237000  0.823800  0.263400  1
  H  H165  1  0.823800  0.237000  0.736600  1
  H  H166  1  0.176200  0.763000  0.736600  1
  H  H167  1  0.237000  0.176200  0.736600  1
  H  H168  1  0.763000  0.823800  0.736600  1
  H  H169  1  0.676200  0.737000  0.763400  1
  H  H170  1  0.323800  0.263000  0.763400  1
  H  H171  1  0.263000  0.676200  0.763400  1
  H  H172  1  0.737000  0.323800  0.763400  1
  H  H173  1  0.323800  0.737000  0.236600  1
  H  H174  1  0.676200  0.263000  0.236600  1
  H  H175  1  0.737000  0.676200  0.236600  1
  H  H176  1  0.263000  0.323800  0.236600  1
  H  H177  1  0.823800  0.763000  0.736600  1
  H  H178  1  0.176200  0.237000  0.736600  1
  H  H179  1  0.237000  0.823800  0.736600  1
  H  H180  1  0.763000  0.176200  0.736600  1
  H  H181  1  0.176200  0.763000  0.263400  1
  H  H182  1  0.823800  0.237000  0.263400  1
  H  H183  1  0.763000  0.823800  0.263400  1
  H  H184  1  0.237000  0.176200  0.263400  1
  H  H185  1  0.323800  0.263000  0.236600  1
  H  H186  1  0.676200  0.737000  0.236600  1
  H  H187  1  0.737000  0.323800  0.236600  1
  H  H188  1  0.263000  0.676200  0.236600  1
  H  H189  1  0.676200  0.263000  0.763400  1
  H  H190  1  0.323800  0.737000  0.763400  1
  H  H191  1  0.263000  0.323800  0.763400  1
  H  H192  1  0.737000  0.676200  0.763400  1
  H  H193  1  0.404300  0.129100  0.163900  1
  H  H194  1  0.595700  0.870900  0.163900  1
  H  H195  1  0.870900  0.404300  0.163900  1
  H  H196  1  0.129100  0.595700  0.163900  1
  H  H197  1  0.595700  0.129100  0.836100  1
  H  H198  1  0.404300  0.870900  0.836100  1
  H  H199  1  0.129100  0.404300  0.836100  1
  H  H200  1  0.870900  0.595700  0.836100  1
  H  H201  1  0.904300  0.629100  0.663900  1
  H  H202  1  0.095700  0.370900  0.663900  1
  H  H203  1  0.370900  0.904300  0.663900  1
  H  H204  1  0.629100  0.095700  0.663900  1
  H  H205  1  0.095700  0.629100  0.336100  1
  H  H206  1  0.904300  0.370900  0.336100  1
  H  H207  1  0.629100  0.904300  0.336100  1
  H  H208  1  0.370900  0.095700  0.336100  1
  H  H209  1  0.595700  0.870900  0.836100  1
  H  H210  1  0.404300  0.129100  0.836100  1
  H  H211  1  0.129100  0.595700  0.836100  1
  H  H212  1  0.870900  0.404300  0.836100  1
  H  H213  1  0.404300  0.870900  0.163900  1
  H  H214  1  0.595700  0.129100  0.163900  1
  H  H215  1  0.870900  0.595700  0.163900  1
  H  H216  1  0.129100  0.404300  0.163900  1
  H  H217  1  0.095700  0.370900  0.336100  1
  H  H218  1  0.904300  0.629100  0.336100  1
  H  H219  1  0.629100  0.095700  0.336100  1
  H  H220  1  0.370900  0.904300  0.336100  1
  H  H221  1  0.904300  0.370900  0.663900  1
  H  H222  1  0.095700  0.629100  0.663900  1
  H  H223  1  0.370900  0.095700  0.663900  1
  H  H224  1  0.629100  0.904300  0.663900  1
  H  H225  1  0.453800  0.148600  0.155000  1
  H  H226  1  0.546200  0.851400  0.155000  1
  H  H227  1  0.851400  0.453800  0.155000  1
  H  H228  1  0.148600  0.546200  0.155000  1
  H  H229  1  0.546200  0.148600  0.845000  1
  H  H230  1  0.453800  0.851400  0.845000  1
  H  H231  1  0.148600  0.453800  0.845000  1
  H  H232  1  0.851400  0.546200  0.845000  1
  H  H233  1  0.953800  0.648600  0.655000  1
  H  H234  1  0.046200  0.351400  0.655000  1
  H  H235  1  0.351400  0.953800  0.655000  1
  H  H236  1  0.648600  0.046200  0.655000  1
  H  H237  1  0.046200  0.648600  0.345000  1
  H  H238  1  0.953800  0.351400  0.345000  1
  H  H239  1  0.648600  0.953800  0.345000  1
  H  H240  1  0.351400  0.046200  0.345000  1
  H  H241  1  0.546200  0.851400  0.845000  1
  H  H242  1  0.453800  0.148600  0.845000  1
  H  H243  1  0.148600  0.546200  0.845000  1
  H  H244  1  0.851400  0.453800  0.845000  1
  H  H245  1  0.453800  0.851400  0.155000  1
  H  H246  1  0.546200  0.148600  0.155000  1
  H  H247  1  0.851400  0.546200  0.155000  1
  H  H248  1  0.148600  0.453800  0.155000  1
  H  H249  1  0.046200  0.351400  0.345000  1
  H  H250  1  0.953800  0.648600  0.345000  1
  H  H251  1  0.648600  0.046200  0.345000  1
  H  H252  1  0.351400  0.953800  0.345000  1
  H  H253  1  0.953800  0.351400  0.655000  1
  H  H254  1  0.046200  0.648600  0.655000  1
  H  H255  1  0.351400  0.046200  0.655000  1
  H  H256  1  0.648600  0.953800  0.655000  1
  H  H257  1  0.431600  0.108800  0.133500  1
  H  H258  1  0.568400  0.891200  0.133500  1
  H  H259  1  0.891200  0.431600  0.133500  1
  H  H260  1  0.108800  0.568400  0.133500  1
  H  H261  1  0.568400  0.108800  0.866500  1
  H  H262  1  0.431600  0.891200  0.866500  1
  H  H263  1  0.108800  0.431600  0.866500  1
  H  H264  1  0.891200  0.568400  0.866500  1
  H  H265  1  0.931600  0.608800  0.633500  1
  H  H266  1  0.068400  0.391200  0.633500  1
  H  H267  1  0.391200  0.931600  0.633500  1
  H  H268  1  0.608800  0.068400  0.633500  1
  H  H269  1  0.068400  0.608800  0.366500  1
  H  H270  1  0.931600  0.391200  0.366500  1
  H  H271  1  0.608800  0.931600  0.366500  1
  H  H272  1  0.391200  0.068400  0.366500  1
  H  H273  1  0.568400  0.891200  0.866500  1
  H  H274  1  0.431600  0.108800  0.866500  1
  H  H275  1  0.108800  0.568400  0.866500  1
  H  H276  1  0.891200  0.431600  0.866500  1
  H  H277  1  0.431600  0.891200  0.133500  1
  H  H278  1  0.568400  0.108800  0.133500  1
  H  H279  1  0.891200  0.568400  0.133500  1
  H  H280  1  0.108800  0.431600  0.133500  1
  H  H281  1  0.068400  0.391200  0.366500  1
  H  H282  1  0.931600  0.608800  0.366500  1
  H  H283  1  0.608800  0.068400  0.366500  1
  H  H284  1  0.391200  0.931600  0.366500  1
  H  H285  1  0.931600  0.391200  0.633500  1
  H  H286  1  0.068400  0.608800  0.633500  1
  H  H287  1  0.391200  0.068400  0.633500  1
  H  H288  1  0.608800  0.931600  0.633500  1
  H  H289  1  0.444100  0.157300  0.084300  1
  H  H290  1  0.555900  0.842700  0.084300  1
  H  H291  1  0.842700  0.444100  0.084300  1
  H  H292  1  0.157300  0.555900  0.084300  1
  H  H293  1  0.555900  0.157300  0.915700  1
  H  H294  1  0.444100  0.842700  0.915700  1
  H  H295  1  0.157300  0.444100  0.915700  1
  H  H296  1  0.842700  0.555900  0.915700  1
  H  H297  1  0.944100  0.657300  0.584300  1
  H  H298  1  0.055900  0.342700  0.584300  1
  H  H299  1  0.342700  0.944100  0.584300  1
  H  H300  1  0.657300  0.055900  0.584300  1
  H  H301  1  0.055900  0.657300  0.415700  1
  H  H302  1  0.944100  0.342700  0.415700  1
  H  H303  1  0.657300  0.944100  0.415700  1
  H  H304  1  0.342700  0.055900  0.415700  1
  H  H305  1  0.555900  0.842700  0.915700  1
  H  H306  1  0.444100  0.157300  0.915700  1
  H  H307  1  0.157300  0.555900  0.915700  1
  H  H308  1  0.842700  0.444100  0.915700  1
  H  H309  1  0.444100  0.842700  0.084300  1
  H  H310  1  0.555900  0.157300  0.084300  1
  H  H311  1  0.842700  0.555900  0.084300  1
  H  H312  1  0.157300  0.444100  0.084300  1
  H  H313  1  0.055900  0.342700  0.415700  1
  H  H314  1  0.944100  0.657300  0.415700  1
  H  H315  1  0.657300  0.055900  0.415700  1
  H  H316  1  0.342700  0.944100  0.415700  1
  H  H317  1  0.944100  0.342700  0.584300  1
  H  H318  1  0.055900  0.657300  0.584300  1
  H  H319  1  0.342700  0.055900  0.584300  1
  H  H320  1  0.657300  0.944100  0.584300  1
  H  H321  1  0.465200  0.196600  0.106600  1
  H  H322  1  0.534800  0.803400  0.106600  1
  H  H323  1  0.803400  0.465200  0.106600  1
  H  H324  1  0.196600  0.534800  0.106600  1
  H  H325  1  0.534800  0.196600  0.893400  1
  H  H326  1  0.465200  0.803400  0.893400  1
  H  H327  1  0.196600  0.465200  0.893400  1
  H  H328  1  0.803400  0.534800  0.893400  1
  H  H329  1  0.965200  0.696600  0.606600  1
  H  H330  1  0.034800  0.303400  0.606600  1
  H  H331  1  0.303400  0.965200  0.606600  1
  H  H332  1  0.696600  0.034800  0.606600  1
  H  H333  1  0.034800  0.696600  0.393400  1
  H  H334  1  0.965200  0.303400  0.393400  1
  H  H335  1  0.696600  0.965200  0.393400  1
  H  H336  1  0.303400  0.034800  0.393400  1
  H  H337  1  0.534800  0.803400  0.893400  1
  H  H338  1  0.465200  0.196600  0.893400  1
  H  H339  1  0.196600  0.534800  0.893400  1
  H  H340  1  0.803400  0.465200  0.893400  1
  H  H341  1  0.465200  0.803400  0.106600  1
  H  H342  1  0.534800  0.196600  0.106600  1
  H  H343  1  0.803400  0.534800  0.106600  1
  H  H344  1  0.196600  0.465200  0.106600  1
  H  H345  1  0.034800  0.303400  0.393400  1
  H  H346  1  0.965200  0.696600  0.393400  1
  H  H347  1  0.696600  0.034800  0.393400  1
  H  H348  1  0.303400  0.965200  0.393400  1
  H  H349  1  0.965200  0.303400  0.606600  1
  H  H350  1  0.034800  0.696600  0.606600  1
  H  H351  1  0.303400  0.034800  0.606600  1
  H  H352  1  0.696600  0.965200  0.606600  1
  H  H353  1  0.423500  0.207800  0.082800  1
  H  H354  1  0.576500  0.792200  0.082800  1
  H  H355  1  0.792200  0.423500  0.082800  1
  H  H356  1  0.207800  0.576500  0.082800  1
  H  H357  1  0.576500  0.207800  0.917200  1
  H  H358  1  0.423500  0.792200  0.917200  1
  H  H359  1  0.207800  0.423500  0.917200  1
  H  H360  1  0.792200  0.576500  0.917200  1
  H  H361  1  0.923500  0.707800  0.582800  1
  H  H362  1  0.076500  0.292200  0.582800  1
  H  H363  1  0.292200  0.923500  0.582800  1
  H  H364  1  0.707800  0.076500  0.582800  1
  H  H365  1  0.076500  0.707800  0.417200  1
  H  H366  1  0.923500  0.292200  0.417200  1
  H  H367  1  0.707800  0.923500  0.417200  1
  H  H368  1  0.292200  0.076500  0.417200  1
  H  H369  1  0.576500  0.792200  0.917200  1
  H  H370  1  0.423500  0.207800  0.917200  1
  H  H371  1  0.207800  0.576500  0.917200  1
  H  H372  1  0.792200  0.423500  0.917200  1
  H  H373  1  0.423500  0.792200  0.082800  1
  H  H374  1  0.576500  0.207800  0.082800  1
  H  H375  1  0.792200  0.576500  0.082800  1
  H  H376  1  0.207800  0.423500  0.082800  1
  H  H377  1  0.076500  0.292200  0.417200  1
  H  H378  1  0.923500  0.707800  0.417200  1
  H  H379  1  0.707800  0.076500  0.417200  1
  H  H380  1  0.292200  0.923500  0.417200  1
  H  H381  1  0.923500  0.292200  0.582800  1
  H  H382  1  0.076500  0.707800  0.582800  1
  H  H383  1  0.292200  0.076500  0.582800  1
  H  H384  1  0.707800  0.923500  0.582800  1
  H  H385  1  0.380000  0.238800  0.130200  1
  H  H386  1  0.620000  0.761200  0.130200  1
  H  H387  1  0.761200  0.380000  0.130200  1
  H  H388  1  0.238800  0.620000  0.130200  1
  H  H389  1  0.620000  0.238800  0.869800  1
  H  H390  1  0.380000  0.761200  0.869800  1
  H  H391  1  0.238800  0.380000  0.869800  1
  H  H392  1  0.761200  0.620000  0.869800  1
  H  H393  1  0.880000  0.738800  0.630200  1
  H  H394  1  0.120000  0.261200  0.630200  1
  H  H395  1  0.261200  0.880000  0.630200  1
  H  H396  1  0.738800  0.120000  0.630200  1
  H  H397  1  0.120000  0.738800  0.369800  1
  H  H398  1  0.880000  0.261200  0.369800  1
  H  H399  1  0.738800  0.880000  0.369800  1
  H  H400  1  0.261200  0.120000  0.369800  1
  H  H401  1  0.620000  0.761200  0.869800  1
  H  H402  1  0.380000  0.238800  0.869800  1
  H  H403  1  0.238800  0.620000  0.869800  1
  H  H404  1  0.761200  0.380000  0.869800  1
  H  H405  1  0.380000  0.761200  0.130200  1
  H  H406  1  0.620000  0.238800  0.130200  1
  H  H407  1  0.761200  0.620000  0.130200  1
  H  H408  1  0.238800  0.380000  0.130200  1
  H  H409  1  0.120000  0.261200  0.369800  1
  H  H410  1  0.880000  0.738800  0.369800  1
  H  H411  1  0.738800  0.120000  0.369800  1
  H  H412  1  0.261200  0.880000  0.369800  1
  H  H413  1  0.880000  0.261200  0.630200  1
  H  H414  1  0.120000  0.738800  0.630200  1
  H  H415  1  0.261200  0.120000  0.630200  1
  H  H416  1  0.738800  0.880000  0.630200  1
  H  H417  1  0.422200  0.226800  0.153300  1
  H  H418  1  0.577800  0.773200  0.153300  1
  H  H419  1  0.773200  0.422200  0.153300  1
  H  H420  1  0.226800  0.577800  0.153300  1
  H  H421  1  0.577800  0.226800  0.846700  1
  H  H422  1  0.422200  0.773200  0.846700  1
  H  H423  1  0.226800  0.422200  0.846700  1
  H  H424  1  0.773200  0.577800  0.846700  1
  H  H425  1  0.922200  0.726800  0.653300  1
  H  H426  1  0.077800  0.273200  0.653300  1
  H  H427  1  0.273200  0.922200  0.653300  1
  H  H428  1  0.726800  0.077800  0.653300  1
  H  H429  1  0.077800  0.726800  0.346700  1
  H  H430  1  0.922200  0.273200  0.346700  1
  H  H431  1  0.726800  0.922200  0.346700  1
  H  H432  1  0.273200  0.077800  0.346700  1
  H  H433  1  0.577800  0.773200  0.846700  1
  H  H434  1  0.422200  0.226800  0.846700  1
  H  H435  1  0.226800  0.577800  0.846700  1
  H  H436  1  0.773200  0.422200  0.846700  1
  H  H437  1  0.422200  0.773200  0.153300  1
  H  H438  1  0.577800  0.226800  0.153300  1
  H  H439  1  0.773200  0.577800  0.153300  1
  H  H440  1  0.226800  0.422200  0.153300  1
  H  H441  1  0.077800  0.273200  0.346700  1
  H  H442  1  0.922200  0.726800  0.346700  1
  H  H443  1  0.726800  0.077800  0.346700  1
  H  H444  1  0.273200  0.922200  0.346700  1
  H  H445  1  0.922200  0.273200  0.653300  1
  H  H446  1  0.077800  0.726800  0.653300  1
  H  H447  1  0.273200  0.077800  0.653300  1
  H  H448  1  0.726800  0.922200  0.653300  1
  H  H449  1  0.372400  0.207900  0.161700  1
  H  H450  1  0.627600  0.792100  0.161700  1
  H  H451  1  0.792100  0.372400  0.161700  1
  H  H452  1  0.207900  0.627600  0.161700  1
  H  H453  1  0.627600  0.207900  0.838300  1
  H  H454  1  0.372400  0.792100  0.838300  1
  H  H455  1  0.207900  0.372400  0.838300  1
  H  H456  1  0.792100  0.627600  0.838300  1
  H  H457  1  0.872400  0.707900  0.661700  1
  H  H458  1  0.127600  0.292100  0.661700  1
  H  H459  1  0.292100  0.872400  0.661700  1
  H  H460  1  0.707900  0.127600  0.661700  1
  H  H461  1  0.127600  0.707900  0.338300  1
  H  H462  1  0.872400  0.292100  0.338300  1
  H  H463  1  0.707900  0.872400  0.338300  1
  H  H464  1  0.292100  0.127600  0.338300  1
  H  H465  1  0.627600  0.792100  0.838300  1
  H  H466  1  0.372400  0.207900  0.838300  1
  H  H467  1  0.207900  0.627600  0.838300  1
  H  H468  1  0.792100  0.372400  0.838300  1
  H  H469  1  0.372400  0.792100  0.161700  1
  H  H470  1  0.627600  0.207900  0.161700  1
  H  H471  1  0.792100  0.627600  0.161700  1
  H  H472  1  0.207900  0.372400  0.161700  1
  H  H473  1  0.127600  0.292100  0.338300  1
  H  H474  1  0.872400  0.707900  0.338300  1
  H  H475  1  0.707900  0.127600  0.338300  1
  H  H476  1  0.292100  0.872400  0.338300  1
  H  H477  1  0.872400  0.292100  0.661700  1
  H  H478  1  0.127600  0.707900  0.661700  1
  H  H479  1  0.292100  0.127600  0.661700  1
  H  H480  1  0.707900  0.872400  0.661700  1
  H  H481  1  0.110100  0.110100  0.166900  1.0
  H  H482  1  0.889900  0.889900  0.166900  1.0
  H  H483  1  0.889900  0.110100  0.166900  1.0
  H  H484  1  0.110100  0.889900  0.166900  1.0
  H  H485  1  0.889900  0.110100  0.833100  1.0
  H  H486  1  0.110100  0.889900  0.833100  1.0
  H  H487  1  0.110100  0.110100  0.833100  1.0
  H  H488  1  0.889900  0.889900  0.833100  1.0
  H  H489  1  0.610100  0.610100  0.666900  1.0
  H  H490  1  0.389900  0.389900  0.666900  1.0
  H  H491  1  0.389900  0.610100  0.666900  1.0
  H  H492  1  0.610100  0.389900  0.666900  1.0
  H  H493  1  0.389900  0.610100  0.333100  1.0
  H  H494  1  0.610100  0.389900  0.333100  1.0
  H  H495  1  0.610100  0.610100  0.333100  1.0
  H  H496  1  0.389900  0.389900  0.333100  1.0
  H  H497  1  0.220200  0.220200  0.292200  1.0
  H  H498  1  0.779800  0.779800  0.292200  1.0
  H  H499  1  0.779800  0.220200  0.292200  1.0
  H  H500  1  0.220200  0.779800  0.292200  1.0
  H  H501  1  0.779800  0.220200  0.707800  1.0
  H  H502  1  0.220200  0.779800  0.707800  1.0
  H  H503  1  0.220200  0.220200  0.707800  1.0
  H  H504  1  0.779800  0.779800  0.707800  1.0
  H  H505  1  0.720200  0.720200  0.792200  1.0
  H  H506  1  0.279800  0.279800  0.792200  1.0
  H  H507  1  0.279800  0.720200  0.792200  1.0
  H  H508  1  0.720200  0.279800  0.792200  1.0
  H  H509  1  0.279800  0.720200  0.207800  1.0
  H  H510  1  0.720200  0.279800  0.207800  1.0
  H  H511  1  0.720200  0.720200  0.207800  1.0
  H  H512  1  0.279800  0.279800  0.207800  1.0
  H  H513  1  0.354200  0.098400  0.138900  1.0
  H  H514  1  0.645800  0.901600  0.138900  1.0
  H  H515  1  0.901600  0.354200  0.138900  1.0
  H  H516  1  0.098400  0.645800  0.138900  1.0
  H  H517  1  0.645800  0.098400  0.861100  1.0
  H  H518  1  0.354200  0.901600  0.861100  1.0
  H  H519  1  0.098400  0.354200  0.861100  1.0
  H  H520  1  0.901600  0.645800  0.861100  1.0
  H  H521  1  0.854200  0.598400  0.638900  1.0
  H  H522  1  0.145800  0.401600  0.638900  1.0
  H  H523  1  0.401600  0.854200  0.638900  1.0
  H  H524  1  0.598400  0.145800  0.638900  1.0
  H  H525  1  0.145800  0.598400  0.361100  1.0
  H  H526  1  0.854200  0.401600  0.361100  1.0
  H  H527  1  0.598400  0.854200  0.361100  1.0
  H  H528  1  0.401600  0.145800  0.361100  1.0
  H  H529  1  0.645800  0.901600  0.861100  1.0
  H  H530  1  0.354200  0.098400  0.861100  1.0
  H  H531  1  0.098400  0.645800  0.861100  1.0
  H  H532  1  0.901600  0.354200  0.861100  1.0
  H  H533  1  0.354200  0.901600  0.138900  1.0
  H  H534  1  0.645800  0.098400  0.138900  1.0
  H  H535  1  0.901600  0.645800  0.138900  1.0
  H  H536  1  0.098400  0.354200  0.138900  1.0
  H  H537  1  0.145800  0.401600  0.361100  1.0
  H  H538  1  0.854200  0.598400  0.361100  1.0
  H  H539  1  0.598400  0.145800  0.361100  1.0
  H  H540  1  0.401600  0.854200  0.361100  1.0
  H  H541  1  0.854200  0.401600  0.638900  1.0
  H  H542  1  0.145800  0.598400  0.638900  1.0
  H  H543  1  0.401600  0.145800  0.638900  1.0
  H  H544  1  0.598400  0.854200  0.638900  1.0
  H  H545  1  0.349800  0.200200  0.072400  1.0
  H  H546  1  0.650200  0.799800  0.072400  1.0
  H  H547  1  0.799800  0.349800  0.072400  1.0
  H  H548  1  0.200200  0.650200  0.072400  1.0
  H  H549  1  0.650200  0.200200  0.927600  1.0
  H  H550  1  0.349800  0.799800  0.927600  1.0
  H  H551  1  0.200200  0.349800  0.927600  1.0
  H  H552  1  0.799800  0.650200  0.927600  1.0
  H  H553  1  0.849800  0.700200  0.572400  1.0
  H  H554  1  0.150200  0.299800  0.572400  1.0
  H  H555  1  0.299800  0.849800  0.572400  1.0
  H  H556  1  0.700200  0.150200  0.572400  1.0
  H  H557  1  0.150200  0.700200  0.427600  1.0
  H  H558  1  0.849800  0.299800  0.427600  1.0
  H  H559  1  0.700200  0.849800  0.427600  1.0
  H  H560  1  0.299800  0.150200  0.427600  1.0
  H  H561  1  0.650200  0.799800  0.927600  1.0
  H  H562  1  0.349800  0.200200  0.927600  1.0
  H  H563  1  0.200200  0.650200  0.927600  1.0
  H  H564  1  0.799800  0.349800  0.927600  1.0
  H  H565  1  0.349800  0.799800  0.072400  1.0
  H  H566  1  0.650200  0.200200  0.072400  1.0
  H  H567  1  0.799800  0.650200  0.072400  1.0
  H  H568  1  0.200200  0.349800  0.072400  1.0
  H  H569  1  0.150200  0.299800  0.427600  1.0
  H  H570  1  0.849800  0.700200  0.427600  1.0
  H  H571  1  0.700200  0.150200  0.427600  1.0
  H  H572  1  0.299800  0.849800  0.427600  1.0
  H  H573  1  0.849800  0.299800  0.572400  1.0
  H  H574  1  0.150200  0.700200  0.572400  1.0
  H  H575  1  0.299800  0.150200  0.572400  1.0
  H  H576  1  0.700200  0.849800  0.572400  1.0
  H  H577  1  0.245500  0.108400  0.077400  1.0
  H  H578  1  0.754500  0.891600  0.077400  1.0
  H  H579  1  0.891600  0.245500  0.077400  1.0
  H  H580  1  0.108400  0.754500  0.077400  1.0
  H  H581  1  0.754500  0.108400  0.922600  1.0
  H  H582  1  0.245500  0.891600  0.922600  1.0
  H  H583  1  0.108400  0.245500  0.922600  1.0
  H  H584  1  0.891600  0.754500  0.922600  1.0
  H  H585  1  0.745500  0.608400  0.577400  1.0
  H  H586  1  0.254500  0.391600  0.577400  1.0
  H  H587  1  0.391600  0.745500  0.577400  1.0
  H  H588  1  0.608400  0.254500  0.577400  1.0
  H  H589  1  0.254500  0.608400  0.422600  1.0
  H  H590  1  0.745500  0.391600  0.422600  1.0
  H  H591  1  0.608400  0.745500  0.422600  1.0
  H  H592  1  0.391600  0.254500  0.422600  1.0
  H  H593  1  0.754500  0.891600  0.922600  1.0
  H  H594  1  0.245500  0.108400  0.922600  1.0
  H  H595  1  0.108400  0.754500  0.922600  1.0
  H  H596  1  0.891600  0.245500  0.922600  1.0
  H  H597  1  0.245500  0.891600  0.077400  1.0
  H  H598  1  0.754500  0.108400  0.077400  1.0
  H  H599  1  0.891600  0.754500  0.077400  1.0
  H  H600  1  0.108400  0.245500  0.077400  1.0
  H  H601  1  0.254500  0.391600  0.422600  1.0
  H  H602  1  0.745500  0.608400  0.422600  1.0
  H  H603  1  0.608400  0.254500  0.422600  1.0
  H  H604  1  0.391600  0.745500  0.422600  1.0
  H  H605  1  0.745500  0.391600  0.577400  1.0
  H  H606  1  0.254500  0.608400  0.577400  1.0
  H  H607  1  0.391600  0.254500  0.577400  1.0
  H  H608  1  0.608400  0.745500  0.577400  1.0
  H  H609  1  0.196400  0.100700  0.246800  1.0
  H  H610  1  0.803600  0.899300  0.246800  1.0
  H  H611  1  0.899300  0.196400  0.246800  1.0
  H  H612  1  0.100700  0.803600  0.246800  1.0
  H  H613  1  0.803600  0.100700  0.753200  1.0
  H  H614  1  0.196400  0.899300  0.753200  1.0
  H  H615  1  0.100700  0.196400  0.753200  1.0
  H  H616  1  0.899300  0.803600  0.753200  1.0
  H  H617  1  0.696400  0.600700  0.746800  1.0
  H  H618  1  0.303600  0.399300  0.746800  1.0
  H  H619  1  0.399300  0.696400  0.746800  1.0
  H  H620  1  0.600700  0.303600  0.746800  1.0
  H  H621  1  0.303600  0.600700  0.253200  1.0
  H  H622  1  0.696400  0.399300  0.253200  1.0
  H  H623  1  0.600700  0.696400  0.253200  1.0
  H  H624  1  0.399300  0.303600  0.253200  1.0
  H  H625  1  0.803600  0.899300  0.753200  1.0
  H  H626  1  0.196400  0.100700  0.753200  1.0
  H  H627  1  0.100700  0.803600  0.753200  1.0
  H  H628  1  0.899300  0.196400  0.753200  1.0
  H  H629  1  0.196400  0.899300  0.246800  1.0
  H  H630  1  0.803600  0.100700  0.246800  1.0
  H  H631  1  0.899300  0.803600  0.246800  1.0
  H  H632  1  0.100700  0.196400  0.246800  1.0
  H  H633  1  0.303600  0.399300  0.253200  1.0
  H  H634  1  0.696400  0.600700  0.253200  1.0
  H  H635  1  0.600700  0.303600  0.253200  1.0
  H  H636  1  0.399300  0.696400  0.253200  1.0
  H  H637  1  0.696400  0.399300  0.746800  1.0
  H  H638  1  0.303600  0.600700  0.746800  1.0
  H  H639  1  0.399300  0.303600  0.746800  1.0
  H  H640  1  0.600700  0.696400  0.746800  1.0
  H  H641  1  0.230600  0.193500  0.260400  1.0
  H  H642  1  0.769400  0.806500  0.260400  1.0
  H  H643  1  0.806500  0.230600  0.260400  1.0
  H  H644  1  0.193500  0.769400  0.260400  1.0
  H  H645  1  0.769400  0.193500  0.739600  1.0
  H  H646  1  0.230600  0.806500  0.739600  1.0
  H  H647  1  0.193500  0.230600  0.739600  1.0
  H  H648  1  0.806500  0.769400  0.739600  1.0
  H  H649  1  0.730600  0.693500  0.760400  1.0
  H  H650  1  0.269400  0.306500  0.760400  1.0
  H  H651  1  0.306500  0.730600  0.760400  1.0
  H  H652  1  0.693500  0.269400  0.760400  1.0
  H  H653  1  0.269400  0.693500  0.239600  1.0
  H  H654  1  0.730600  0.306500  0.239600  1.0
  H  H655  1  0.693500  0.730600  0.239600  1.0
  H  H656  1  0.306500  0.269400  0.239600  1.0
  H  H657  1  0.769400  0.806500  0.739600  1.0
  H  H658  1  0.230600  0.193500  0.739600  1.0
  H  H659  1  0.193500  0.769400  0.739600  1.0
  H  H660  1  0.806500  0.230600  0.739600  1.0
  H  H661  1  0.230600  0.806500  0.260400  1.0
  H  H662  1  0.769400  0.193500  0.260400  1.0
  H  H663  1  0.806500  0.769400  0.260400  1.0
  H  H664  1  0.193500  0.230600  0.260400  1.0
  H  H665  1  0.269400  0.306500  0.239600  1.0
  H  H666  1  0.730600  0.693500  0.239600  1.0
  H  H667  1  0.693500  0.269400  0.239600  1.0
  H  H668  1  0.306500  0.730600  0.239600  1.0
  H  H669  1  0.730600  0.306500  0.760400  1.0
  H  H670  1  0.269400  0.693500  0.760400  1.0
  H  H671  1  0.306500  0.269400  0.760400  1.0
  H  H672  1  0.693500  0.730600  0.760400  1.0
  H  H673  1  0.207300  0.147300  0.321300  1.0
  H  H674  1  0.792700  0.852700  0.321300  1.0
  H  H675  1  0.852700  0.207300  0.321300  1.0
  H  H676  1  0.147300  0.792700  0.321300  1.0
  H  H677  1  0.792700  0.147300  0.678700  1.0
  H  H678  1  0.207300  0.852700  0.678700  1.0
  H  H679  1  0.147300  0.207300  0.678700  1.0
  H  H680  1  0.852700  0.792700  0.678700  1.0
  H  H681  1  0.707300  0.647300  0.821300  1.0
  H  H682  1  0.292700  0.352700  0.821300  1.0
  H  H683  1  0.352700  0.707300  0.821300  1.0
  H  H684  1  0.647300  0.292700  0.821300  1.0
  H  H685  1  0.292700  0.647300  0.178700  1.0
  H  H686  1  0.707300  0.352700  0.178700  1.0
  H  H687  1  0.647300  0.707300  0.178700  1.0
  H  H688  1  0.352700  0.292700  0.178700  1.0
  H  H689  1  0.792700  0.852700  0.678700  1.0
  H  H690  1  0.207300  0.147300  0.678700  1.0
  H  H691  1  0.147300  0.792700  0.678700  1.0
  H  H692  1  0.852700  0.207300  0.678700  1.0
  H  H693  1  0.207300  0.852700  0.321300  1.0
  H  H694  1  0.792700  0.147300  0.321300  1.0
  H  H695  1  0.852700  0.792700  0.321300  1.0
  H  H696  1  0.147300  0.207300  0.321300  1.0
  H  H697  1  0.292700  0.352700  0.178700  1.0
  H  H698  1  0.707300  0.647300  0.178700  1.0
  H  H699  1  0.647300  0.292700  0.178700  1.0
  H  H700  1  0.352700  0.707300  0.178700  1.0
  H  H701  1  0.707300  0.352700  0.821300  1.0
  H  H702  1  0.292700  0.647300  0.821300  1.0
  H  H703  1  0.352700  0.292700  0.821300  1.0
  H  H704  1  0.647300  0.707300  0.821300  1.0
  H  H705  1  0.217500  0.118600  0.289100  1.0
  H  H706  1  0.782500  0.881400  0.289100  1.0
  H  H707  1  0.881400  0.217500  0.289100  1.0
  H  H708  1  0.118600  0.782500  0.289100  1.0
  H  H709  1  0.782500  0.118600  0.710900  1.0
  H  H710  1  0.217500  0.881400  0.710900  1.0
  H  H711  1  0.118600  0.217500  0.710900  1.0
  H  H712  1  0.881400  0.782500  0.710900  1.0
  H  H713  1  0.717500  0.618600  0.789100  1.0
  H  H714  1  0.282500  0.381400  0.789100  1.0
  H  H715  1  0.381400  0.717500  0.789100  1.0
  H  H716  1  0.618600  0.282500  0.789100  1.0
  H  H717  1  0.282500  0.618600  0.210900  1.0
  H  H718  1  0.717500  0.381400  0.210900  1.0
  H  H719  1  0.618600  0.717500  0.210900  1.0
  H  H720  1  0.381400  0.282500  0.210900  1.0
  H  H721  1  0.782500  0.881400  0.710900  1.0
  H  H722  1  0.217500  0.118600  0.710900  1.0
  H  H723  1  0.118600  0.782500  0.710900  1.0
  H  H724  1  0.881400  0.217500  0.710900  1.0
  H  H725  1  0.217500  0.881400  0.289100  1.0
  H  H726  1  0.782500  0.118600  0.289100  1.0
  H  H727  1  0.881400  0.782500  0.289100  1.0
  H  H728  1  0.118600  0.217500  0.289100  1.0
  H  H729  1  0.282500  0.381400  0.210900  1.0
  H  H730  1  0.717500  0.618600  0.210900  1.0
  H  H731  1  0.618600  0.282500  0.210900  1.0
  H  H732  1  0.381400  0.717500  0.210900  1.0
  H  H733  1  0.717500  0.381400  0.789100  1.0
  H  H734  1  0.282500  0.618600  0.789100  1.0
  H  H735  1  0.381400  0.282500  0.789100  1.0
  H  H736  1  0.618600  0.717500  0.789100  1.0
  H  H737  1  0.170700  0.111100  0.308400  1.0
  H  H738  1  0.829300  0.888900  0.308400  1.0
  H  H739  1  0.888900  0.170700  0.308400  1.0
  H  H740  1  0.111100  0.829300  0.308400  1.0
  H  H741  1  0.829300  0.111100  0.691600  1.0
  H  H742  1  0.170700  0.888900  0.691600  1.0
  H  H743  1  0.111100  0.170700  0.691600  1.0
  H  H744  1  0.888900  0.829300  0.691600  1.0
  H  H745  1  0.670700  0.611100  0.808400  1.0
  H  H746  1  0.329300  0.388900  0.808400  1.0
  H  H747  1  0.388900  0.670700  0.808400  1.0
  H  H748  1  0.611100  0.329300  0.808400  1.0
  H  H749  1  0.329300  0.611100  0.191600  1.0
  H  H750  1  0.670700  0.388900  0.191600  1.0
  H  H751  1  0.611100  0.670700  0.191600  1.0
  H  H752  1  0.388900  0.329300  0.191600  1.0
  H  H753  1  0.829300  0.888900  0.691600  1.0
  H  H754  1  0.170700  0.111100  0.691600  1.0
  H  H755  1  0.111100  0.829300  0.691600  1.0
  H  H756  1  0.888900  0.170700  0.691600  1.0
  H  H757  1  0.170700  0.888900  0.308400  1.0
  H  H758  1  0.829300  0.111100  0.308400  1.0
  H  H759  1  0.888900  0.829300  0.308400  1.0
  H  H760  1  0.111100  0.170700  0.308400  1.0
  H  H761  1  0.329300  0.388900  0.191600  1.0
  H  H762  1  0.670700  0.611100  0.191600  1.0
  H  H763  1  0.611100  0.329300  0.191600  1.0
  H  H764  1  0.388900  0.670700  0.191600  1.0
  H  H765  1  0.670700  0.388900  0.808400  1.0
  H  H766  1  0.329300  0.611100  0.808400  1.0
  H  H767  1  0.388900  0.329300  0.808400  1.0
  H  H768  1  0.611100  0.670700  0.808400  1.0
  H  H769  1  0.468300  0.147500  0.133200  1.0
  H  H770  1  0.531700  0.852500  0.133200  1.0
  H  H771  1  0.852500  0.468300  0.133200  1.0
  H  H772  1  0.147500  0.531700  0.133200  1.0
  H  H773  1  0.531700  0.147500  0.866800  1.0
  H  H774  1  0.468300  0.852500  0.866800  1.0
  H  H775  1  0.147500  0.468300  0.866800  1.0
  H  H776  1  0.852500  0.531700  0.866800  1.0
  H  H777  1  0.968300  0.647500  0.633200  1.0
  H  H778  1  0.031700  0.352500  0.633200  1.0
  H  H779  1  0.352500  0.968300  0.633200  1.0
  H  H780  1  0.647500  0.031700  0.633200  1.0
  H  H781  1  0.031700  0.647500  0.366800  1.0
  H  H782  1  0.968300  0.352500  0.366800  1.0
  H  H783  1  0.647500  0.968300  0.366800  1.0
  H  H784  1  0.352500  0.031700  0.366800  1.0
  H  H785  1  0.531700  0.852500  0.866800  1.0
  H  H786  1  0.468300  0.147500  0.866800  1.0
  H  H787  1  0.147500  0.531700  0.866800  1.0
  H  H788  1  0.852500  0.468300  0.866800  1.0
  H  H789  1  0.468300  0.852500  0.133200  1.0
  H  H790  1  0.531700  0.147500  0.133200  1.0
  H  H791  1  0.852500  0.531700  0.133200  1.0
  H  H792  1  0.147500  0.468300  0.133200  1.0
  H  H793  1  0.031700  0.352500  0.366800  1.0
  H  H794  1  0.968300  0.647500  0.366800  1.0
  H  H795  1  0.647500  0.031700  0.366800  1.0
  H  H796  1  0.352500  0.968300  0.366800  1.0
  H  H797  1  0.968300  0.352500  0.633200  1.0
  H  H798  1  0.031700  0.647500  0.633200  1.0
  H  H799  1  0.352500  0.031700  0.633200  1.0
  H  H800  1  0.647500  0.968300  0.633200  1.0
  H  H801  1  0.445600  0.124900  0.101800  1.0
  H  H802  1  0.554400  0.875100  0.101800  1.0
  H  H803  1  0.875100  0.445600  0.101800  1.0
  H  H804  1  0.124900  0.554400  0.101800  1.0
  H  H805  1  0.554400  0.124900  0.898200  1.0
  H  H806  1  0.445600  0.875100  0.898200  1.0
  H  H807  1  0.124900  0.445600  0.898200  1.0
  H  H808  1  0.875100  0.554400  0.898200  1.0
  H  H809  1  0.945600  0.624900  0.601800  1.0
  H  H810  1  0.054400  0.375100  0.601800  1.0
  H  H811  1  0.375100  0.945600  0.601800  1.0
  H  H812  1  0.624900  0.054400  0.601800  1.0
  H  H813  1  0.054400  0.624900  0.398200  1.0
  H  H814  1  0.945600  0.375100  0.398200  1.0
  H  H815  1  0.624900  0.945600  0.398200  1.0
  H  H816  1  0.375100  0.054400  0.398200  1.0
  H  H817  1  0.554400  0.875100  0.898200  1.0
  H  H818  1  0.445600  0.124900  0.898200  1.0
  H  H819  1  0.124900  0.554400  0.898200  1.0
  H  H820  1  0.875100  0.445600  0.898200  1.0
  H  H821  1  0.445600  0.875100  0.101800  1.0
  H  H822  1  0.554400  0.124900  0.101800  1.0
  H  H823  1  0.875100  0.554400  0.101800  1.0
  H  H824  1  0.124900  0.445600  0.101800  1.0
  H  H825  1  0.054400  0.375100  0.398200  1.0
  H  H826  1  0.945600  0.624900  0.398200  1.0
  H  H827  1  0.624900  0.054400  0.398200  1.0
  H  H828  1  0.375100  0.945600  0.398200  1.0
  H  H829  1  0.945600  0.375100  0.601800  1.0
  H  H830  1  0.054400  0.624900  0.601800  1.0
  H  H831  1  0.375100  0.054400  0.601800  1.0
  H  H832  1  0.624900  0.945600  0.601800  1.0
  H  H833  1  0.429600  0.109300  0.137200  1.0
  H  H834  1  0.570400  0.890700  0.137200  1.0
  H  H835  1  0.890700  0.429600  0.137200  1.0
  H  H836  1  0.109300  0.570400  0.137200  1.0
  H  H837  1  0.570400  0.109300  0.862800  1.0
  H  H838  1  0.429600  0.890700  0.862800  1.0
  H  H839  1  0.109300  0.429600  0.862800  1.0
  H  H840  1  0.890700  0.570400  0.862800  1.0
  H  H841  1  0.929600  0.609300  0.637200  1.0
  H  H842  1  0.070400  0.390700  0.637200  1.0
  H  H843  1  0.390700  0.929600  0.637200  1.0
  H  H844  1  0.609300  0.070400  0.637200  1.0
  H  H845  1  0.070400  0.609300  0.362800  1.0
  H  H846  1  0.929600  0.390700  0.362800  1.0
  H  H847  1  0.609300  0.929600  0.362800  1.0
  H  H848  1  0.390700  0.070400  0.362800  1.0
  H  H849  1  0.570400  0.890700  0.862800  1.0
  H  H850  1  0.429600  0.109300  0.862800  1.0
  H  H851  1  0.109300  0.570400  0.862800  1.0
  H  H852  1  0.890700  0.429600  0.862800  1.0
  H  H853  1  0.429600  0.890700  0.137200  1.0
  H  H854  1  0.570400  0.109300  0.137200  1.0
  H  H855  1  0.890700  0.570400  0.137200  1.0
  H  H856  1  0.109300  0.429600  0.137200  1.0
  H  H857  1  0.070400  0.390700  0.362800  1.0
  H  H858  1  0.929600  0.609300  0.362800  1.0
  H  H859  1  0.609300  0.070400  0.362800  1.0
  H  H860  1  0.390700  0.929600  0.362800  1.0
  H  H861  1  0.929600  0.390700  0.637200  1.0
  H  H862  1  0.070400  0.609300  0.637200  1.0
  H  H863  1  0.390700  0.070400  0.637200  1.0
  H  H864  1  0.609300  0.929600  0.637200  1.0
  H  H865  1  0.449200  0.224300  0.113600  1.0
  H  H866  1  0.550800  0.775700  0.113600  1.0
  H  H867  1  0.775700  0.449200  0.113600  1.0
  H  H868  1  0.224300  0.550800  0.113600  1.0
  H  H869  1  0.550800  0.224300  0.886400  1.0
  H  H870  1  0.449200  0.775700  0.886400  1.0
  H  H871  1  0.224300  0.449200  0.886400  1.0
  H  H872  1  0.775700  0.550800  0.886400  1.0
  H  H873  1  0.949200  0.724300  0.613600  1.0
  H  H874  1  0.050800  0.275700  0.613600  1.0
  H  H875  1  0.275700  0.949200  0.613600  1.0
  H  H876  1  0.724300  0.050800  0.613600  1.0
  H  H877  1  0.050800  0.724300  0.386400  1.0
  H  H878  1  0.949200  0.275700  0.386400  1.0
  H  H879  1  0.724300  0.949200  0.386400  1.0
  H  H880  1  0.275700  0.050800  0.386400  1.0
  H  H881  1  0.550800  0.775700  0.886400  1.0
  H  H882  1  0.449200  0.224300  0.886400  1.0
  H  H883  1  0.224300  0.550800  0.886400  1.0
  H  H884  1  0.775700  0.449200  0.886400  1.0
  H  H885  1  0.449200  0.775700  0.113600  1.0
  H  H886  1  0.550800  0.224300  0.113600  1.0
  H  H887  1  0.775700  0.550800  0.113600  1.0
  H  H888  1  0.224300  0.449200  0.113600  1.0
  H  H889  1  0.050800  0.275700  0.386400  1.0
  H  H890  1  0.949200  0.724300  0.386400  1.0
  H  H891  1  0.724300  0.050800  0.386400  1.0
  H  H892  1  0.275700  0.949200  0.386400  1.0
  H  H893  1  0.949200  0.275700  0.613600  1.0
  H  H894  1  0.050800  0.724300  0.613600  1.0
  H  H895  1  0.275700  0.050800  0.613600  1.0
  H  H896  1  0.724300  0.949200  0.613600  1.0
  H  H897  1  0.397800  0.237400  0.104400  1.0
  H  H898  1  0.602200  0.762600  0.104400  1.0
  H  H899  1  0.762600  0.397800  0.104400  1.0
  H  H900  1  0.237400  0.602200  0.104400  1.0
  H  H901  1  0.602200  0.237400  0.895600  1.0
  H  H902  1  0.397800  0.762600  0.895600  1.0
  H  H903  1  0.237400  0.397800  0.895600  1.0
  H  H904  1  0.762600  0.602200  0.895600  1.0
  H  H905  1  0.897800  0.737400  0.604400  1.0
  H  H906  1  0.102200  0.262600  0.604400  1.0
  H  H907  1  0.262600  0.897800  0.604400  1.0
  H  H908  1  0.737400  0.102200  0.604400  1.0
  H  H909  1  0.102200  0.737400  0.395600  1.0
  H  H910  1  0.897800  0.262600  0.395600  1.0
  H  H911  1  0.737400  0.897800  0.395600  1.0
  H  H912  1  0.262600  0.102200  0.395600  1.0
  H  H913  1  0.602200  0.762600  0.895600  1.0
  H  H914  1  0.397800  0.237400  0.895600  1.0
  H  H915  1  0.237400  0.602200  0.895600  1.0
  H  H916  1  0.762600  0.397800  0.895600  1.0
  H  H917  1  0.397800  0.762600  0.104400  1.0
  H  H918  1  0.602200  0.237400  0.104400  1.0
  H  H919  1  0.762600  0.602200  0.104400  1.0
  H  H920  1  0.237400  0.397800  0.104400  1.0
  H  H921  1  0.102200  0.262600  0.395600  1.0
  H  H922  1  0.897800  0.737400  0.395600  1.0
  H  H923  1  0.737400  0.102200  0.395600  1.0
  H  H924  1  0.262600  0.897800  0.395600  1.0
  H  H925  1  0.897800  0.262600  0.604400  1.0
  H  H926  1  0.102200  0.737400  0.604400  1.0
  H  H927  1  0.262600  0.102200  0.604400  1.0
  H  H928  1  0.737400  0.897800  0.604400  1.0
  H  H929  1  0.426100  0.203300  0.081700  1.0
  H  H930  1  0.573900  0.796700  0.081700  1.0
  H  H931  1  0.796700  0.426100  0.081700  1.0
  H  H932  1  0.203300  0.573900  0.081700  1.0
  H  H933  1  0.573900  0.203300  0.918300  1.0
  H  H934  1  0.426100  0.796700  0.918300  1.0
  H  H935  1  0.203300  0.426100  0.918300  1.0
  H  H936  1  0.796700  0.573900  0.918300  1.0
  H  H937  1  0.926100  0.703300  0.581700  1.0
  H  H938  1  0.073900  0.296700  0.581700  1.0
  H  H939  1  0.296700  0.926100  0.581700  1.0
  H  H940  1  0.703300  0.073900  0.581700  1.0
  H  H941  1  0.073900  0.703300  0.418300  1.0
  H  H942  1  0.926100  0.296700  0.418300  1.0
  H  H943  1  0.703300  0.926100  0.418300  1.0
  H  H944  1  0.296700  0.073900  0.418300  1.0
  H  H945  1  0.573900  0.796700  0.918300  1.0
  H  H946  1  0.426100  0.203300  0.918300  1.0
  H  H947  1  0.203300  0.573900  0.918300  1.0
  H  H948  1  0.796700  0.426100  0.918300  1.0
  H  H949  1  0.426100  0.796700  0.081700  1.0
  H  H950  1  0.573900  0.203300  0.081700  1.0
  H  H951  1  0.796700  0.573900  0.081700  1.0
  H  H952  1  0.203300  0.426100  0.081700  1.0
  H  H953  1  0.073900  0.296700  0.418300  1.0
  H  H954  1  0.926100  0.703300  0.418300  1.0
  H  H955  1  0.703300  0.073900  0.418300  1.0
  H  H956  1  0.296700  0.926100  0.418300  1.0
  H  H957  1  0.926100  0.296700  0.581700  1.0
  H  H958  1  0.073900  0.703300  0.581700  1.0
  H  H959  1  0.296700  0.073900  0.581700  1.0
  H  H960  1  0.703300  0.926100  0.581700  1.0
  H  H961  1  0.423900  0.199800  0.168100  1.0
  H  H962  1  0.576100  0.800200  0.168100  1.0
  H  H963  1  0.800200  0.423900  0.168100  1.0
  H  H964  1  0.199800  0.576100  0.168100  1.0
  H  H965  1  0.576100  0.199800  0.831900  1.0
  H  H966  1  0.423900  0.800200  0.831900  1.0
  H  H967  1  0.199800  0.423900  0.831900  1.0
  H  H968  1  0.800200  0.576100  0.831900  1.0
  H  H969  1  0.923900  0.699800  0.668100  1.0
  H  H970  1  0.076100  0.300200  0.668100  1.0
  H  H971  1  0.300200  0.923900  0.668100  1.0
  H  H972  1  0.699800  0.076100  0.668100  1.0
  H  H973  1  0.076100  0.699800  0.331900  1.0
  H  H974  1  0.923900  0.300200  0.331900  1.0
  H  H975  1  0.699800  0.923900  0.331900  1.0
  H  H976  1  0.300200  0.076100  0.331900  1.0
  H  H977  1  0.576100  0.800200  0.831900  1.0
  H  H978  1  0.423900  0.199800  0.831900  1.0
  H  H979  1  0.199800  0.576100  0.831900  1.0
  H  H980  1  0.800200  0.423900  0.831900  1.0
  H  H981  1  0.423900  0.800200  0.168100  1.0
  H  H982  1  0.576100  0.199800  0.168100  1.0
  H  H983  1  0.800200  0.576100  0.168100  1.0
  H  H984  1  0.199800  0.423900  0.168100  1.0
  H  H985  1  0.076100  0.300200  0.331900  1.0
  H  H986  1  0.923900  0.699800  0.331900  1.0
  H  H987  1  0.699800  0.076100  0.331900  1.0
  H  H988  1  0.300200  0.923900  0.331900  1.0
  H  H989  1  0.923900  0.300200  0.668100  1.0
  H  H990  1  0.076100  0.699800  0.668100  1.0
  H  H991  1  0.300200  0.076100  0.668100  1.0
  H  H992  1  0.699800  0.923900  0.668100  1.0
  H  H993  1  0.384600  0.162300  0.172100  1.0
  H  H994  1  0.615400  0.837700  0.172100  1.0
  H  H995  1  0.837700  0.384600  0.172100  1.0
  H  H996  1  0.162300  0.615400  0.172100  1.0
  H  H997  1  0.615400  0.162300  0.827900  1.0
  H  H998  1  0.384600  0.837700  0.827900  1.0
  H  H999  1  0.162300  0.384600  0.827900  1.0
  H  H1000  1  0.837700  0.615400  0.827900  1.0
  H  H1001  1  0.884600  0.662300  0.672100  1.0
  H  H1002  1  0.115400  0.337700  0.672100  1.0
  H  H1003  1  0.337700  0.884600  0.672100  1.0
  H  H1004  1  0.662300  0.115400  0.672100  1.0
  H  H1005  1  0.115400  0.662300  0.327900  1.0
  H  H1006  1  0.884600  0.337700  0.327900  1.0
  H  H1007  1  0.662300  0.884600  0.327900  1.0
  H  H1008  1  0.337700  0.115400  0.327900  1.0
  H  H1009  1  0.615400  0.837700  0.827900  1.0
  H  H1010  1  0.384600  0.162300  0.827900  1.0
  H  H1011  1  0.162300  0.615400  0.827900  1.0
  H  H1012  1  0.837700  0.384600  0.827900  1.0
  H  H1013  1  0.384600  0.837700  0.172100  1.0
  H  H1014  1  0.615400  0.162300  0.172100  1.0
  H  H1015  1  0.837700  0.615400  0.172100  1.0
  H  H1016  1  0.162300  0.384600  0.172100  1.0
  H  H1017  1  0.115400  0.337700  0.327900  1.0
  H  H1018  1  0.884600  0.662300  0.327900  1.0
  H  H1019  1  0.662300  0.115400  0.327900  1.0
  H  H1020  1  0.337700  0.884600  0.327900  1.0
  H  H1021  1  0.884600  0.337700  0.672100  1.0
  H  H1022  1  0.115400  0.662300  0.672100  1.0
  H  H1023  1  0.337700  0.115400  0.672100  1.0
  H  H1024  1  0.662300  0.884600  0.672100  1.0
  H  H1025  1  0.372200  0.212300  0.159300  1.0
  H  H1026  1  0.627800  0.787700  0.159300  1.0
  H  H1027  1  0.787700  0.372200  0.159300  1.0
  H  H1028  1  0.212300  0.627800  0.159300  1.0
  H  H1029  1  0.627800  0.212300  0.840700  1.0
  H  H1030  1  0.372200  0.787700  0.840700  1.0
  H  H1031  1  0.212300  0.372200  0.840700  1.0
  H  H1032  1  0.787700  0.627800  0.840700  1.0
  H  H1033  1  0.872200  0.712300  0.659300  1.0
  H  H1034  1  0.127800  0.287700  0.659300  1.0
  H  H1035  1  0.287700  0.872200  0.659300  1.0
  H  H1036  1  0.712300  0.127800  0.659300  1.0
  H  H1037  1  0.127800  0.712300  0.340700  1.0
  H  H1038  1  0.872200  0.287700  0.340700  1.0
  H  H1039  1  0.712300  0.872200  0.340700  1.0
  H  H1040  1  0.287700  0.127800  0.340700  1.0
  H  H1041  1  0.627800  0.787700  0.840700  1.0
  H  H1042  1  0.372200  0.212300  0.840700  1.0
  H  H1043  1  0.212300  0.627800  0.840700  1.0
  H  H1044  1  0.787700  0.372200  0.840700  1.0
  H  H1045  1  0.372200  0.787700  0.159300  1.0
  H  H1046  1  0.627800  0.212300  0.159300  1.0
  H  H1047  1  0.787700  0.627800  0.159300  1.0
  H  H1048  1  0.212300  0.372200  0.159300  1.0
  H  H1049  1  0.127800  0.287700  0.340700  1.0
  H  H1050  1  0.872200  0.712300  0.340700  1.0
  H  H1051  1  0.712300  0.127800  0.340700  1.0
  H  H1052  1  0.287700  0.872200  0.340700  1.0
  H  H1053  1  0.872200  0.287700  0.659300  1.0
  H  H1054  1  0.127800  0.712300  0.659300  1.0
  H  H1055  1  0.287700  0.127800  0.659300  1.0
  H  H1056  1  0.712300  0.872200  0.659300  1.0
  C  C1057  1  0.149200  0.149200  0.311510  1
  C  C1058  1  0.850800  0.850800  0.311510  1
  C  C1059  1  0.850800  0.149200  0.311510  1
  C  C1060  1  0.149200  0.850800  0.311510  1
  C  C1061  1  0.850800  0.149200  0.688490  1
  C  C1062  1  0.149200  0.850800  0.688490  1
  C  C1063  1  0.149200  0.149200  0.688490  1
  C  C1064  1  0.850800  0.850800  0.688490  1
  C  C1065  1  0.649200  0.649200  0.811510  1
  C  C1066  1  0.350800  0.350800  0.811510  1
  C  C1067  1  0.350800  0.649200  0.811510  1
  C  C1068  1  0.649200  0.350800  0.811510  1
  C  C1069  1  0.350800  0.649200  0.188490  1
  C  C1070  1  0.649200  0.350800  0.188490  1
  C  C1071  1  0.649200  0.649200  0.188490  1
  C  C1072  1  0.350800  0.350800  0.188490  1
  C  C1073  1  0.162600  0.222650  0.282600  1
  C  C1074  1  0.837400  0.777350  0.282600  1
  C  C1075  1  0.777350  0.162600  0.282600  1
  C  C1076  1  0.222650  0.837400  0.282600  1
  C  C1077  1  0.837400  0.222650  0.717400  1
  C  C1078  1  0.162600  0.777350  0.717400  1
  C  C1079  1  0.222650  0.162600  0.717400  1
  C  C1080  1  0.777350  0.837400  0.717400  1
  C  C1081  1  0.662600  0.722650  0.782600  1
  C  C1082  1  0.337400  0.277350  0.782600  1
  C  C1083  1  0.277350  0.662600  0.782600  1
  C  C1084  1  0.722650  0.337400  0.782600  1
  C  C1085  1  0.337400  0.722650  0.217400  1
  C  C1086  1  0.662600  0.277350  0.217400  1
  C  C1087  1  0.722650  0.662600  0.217400  1
  C  C1088  1  0.277350  0.337400  0.217400  1
  C  C1089  1  0.837400  0.777350  0.717400  1
  C  C1090  1  0.162600  0.222650  0.717400  1
  C  C1091  1  0.222650  0.837400  0.717400  1
  C  C1092  1  0.777350  0.162600  0.717400  1
  C  C1093  1  0.162600  0.777350  0.282600  1
  C  C1094  1  0.837400  0.222650  0.282600  1
  C  C1095  1  0.777350  0.837400  0.282600  1
  C  C1096  1  0.222650  0.162600  0.282600  1
  C  C1097  1  0.337400  0.277350  0.217400  1
  C  C1098  1  0.662600  0.722650  0.217400  1
  C  C1099  1  0.722650  0.337400  0.217400  1
  C  C1100  1  0.277350  0.662600  0.217400  1
  C  C1101  1  0.662600  0.277350  0.782600  1
  C  C1102  1  0.337400  0.722650  0.782600  1
  C  C1103  1  0.277350  0.337400  0.782600  1
  C  C1104  1  0.722650  0.662600  0.782600  1
  C  C1105  1  0.425200  0.136500  0.146100  1
  C  C1106  1  0.574800  0.863500  0.146100  1
  C  C1107  1  0.863500  0.425200  0.146100  1
  C  C1108  1  0.136500  0.574800  0.146100  1
  C  C1109  1  0.574800  0.136500  0.853900  1
  C  C1110  1  0.425200  0.863500  0.853900  1
  C  C1111  1  0.136500  0.425200  0.853900  1
  C  C1112  1  0.863500  0.574800  0.853900  1
  C  C1113  1  0.925200  0.636500  0.646100  1
  C  C1114  1  0.074800  0.363500  0.646100  1
  C  C1115  1  0.363500  0.925200  0.646100  1
  C  C1116  1  0.636500  0.074800  0.646100  1
  C  C1117  1  0.074800  0.636500  0.353900  1
  C  C1118  1  0.925200  0.363500  0.353900  1
  C  C1119  1  0.636500  0.925200  0.353900  1
  C  C1120  1  0.363500  0.074800  0.353900  1
  C  C1121  1  0.574800  0.863500  0.853900  1
  C  C1122  1  0.425200  0.136500  0.853900  1
  C  C1123  1  0.136500  0.574800  0.853900  1
  C  C1124  1  0.863500  0.425200  0.853900  1
  C  C1125  1  0.425200  0.863500  0.146100  1
  C  C1126  1  0.574800  0.136500  0.146100  1
  C  C1127  1  0.863500  0.574800  0.146100  1
  C  C1128  1  0.136500  0.425200  0.146100  1
  C  C1129  1  0.074800  0.363500  0.353900  1
  C  C1130  1  0.925200  0.636500  0.353900  1
  C  C1131  1  0.636500  0.074800  0.353900  1
  C  C1132  1  0.363500  0.925200  0.353900  1
  C  C1133  1  0.925200  0.363500  0.646100  1
  C  C1134  1  0.074800  0.636500  0.646100  1
  C  C1135  1  0.363500  0.074800  0.646100  1
  C  C1136  1  0.636500  0.925200  0.646100  1
  C  C1137  1  0.437100  0.184600  0.097000  1
  C  C1138  1  0.562900  0.815400  0.097000  1
  C  C1139  1  0.815400  0.437100  0.097000  1
  C  C1140  1  0.184600  0.562900  0.097000  1
  C  C1141  1  0.562900  0.184600  0.903000  1
  C  C1142  1  0.437100  0.815400  0.903000  1
  C  C1143  1  0.184600  0.437100  0.903000  1
  C  C1144  1  0.815400  0.562900  0.903000  1
  C  C1145  1  0.937100  0.684600  0.597000  1
  C  C1146  1  0.062900  0.315400  0.597000  1
  C  C1147  1  0.315400  0.937100  0.597000  1
  C  C1148  1  0.684600  0.062900  0.597000  1
  C  C1149  1  0.062900  0.684600  0.403000  1
  C  C1150  1  0.937100  0.315400  0.403000  1
  C  C1151  1  0.684600  0.937100  0.403000  1
  C  C1152  1  0.315400  0.062900  0.403000  1
  C  C1153  1  0.562900  0.815400  0.903000  1
  C  C1154  1  0.437100  0.184600  0.903000  1
  C  C1155  1  0.184600  0.562900  0.903000  1
  C  C1156  1  0.815400  0.437100  0.903000  1
  C  C1157  1  0.437100  0.815400  0.097000  1
  C  C1158  1  0.562900  0.184600  0.097000  1
  C  C1159  1  0.815400  0.562900  0.097000  1
  C  C1160  1  0.184600  0.437100  0.097000  1
  C  C1161  1  0.062900  0.315400  0.403000  1
  C  C1162  1  0.937100  0.684600  0.403000  1
  C  C1163  1  0.684600  0.062900  0.403000  1
  C  C1164  1  0.315400  0.937100  0.403000  1
  C  C1165  1  0.937100  0.315400  0.597000  1
  C  C1166  1  0.062900  0.684600  0.597000  1
  C  C1167  1  0.315400  0.062900  0.597000  1
  C  C1168  1  0.684600  0.937100  0.597000  1
  C  C1169  1  0.393600  0.215400  0.144100  1
  C  C1170  1  0.606400  0.784600  0.144100  1
  C  C1171  1  0.784600  0.393600  0.144100  1
  C  C1172  1  0.215400  0.606400  0.144100  1
  C  C1173  1  0.606400  0.215400  0.855900  1
  C  C1174  1  0.393600  0.784600  0.855900  1
  C  C1175  1  0.215400  0.393600  0.855900  1
  C  C1176  1  0.784600  0.606400  0.855900  1
  C  C1177  1  0.893600  0.715400  0.644100  1
  C  C1178  1  0.106400  0.284600  0.644100  1
  C  C1179  1  0.284600  0.893600  0.644100  1
  C  C1180  1  0.715400  0.106400  0.644100  1
  C  C1181  1  0.106400  0.715400  0.355900  1
  C  C1182  1  0.893600  0.284600  0.355900  1
  C  C1183  1  0.715400  0.893600  0.355900  1
  C  C1184  1  0.284600  0.106400  0.355900  1
  C  C1185  1  0.606400  0.784600  0.855900  1
  C  C1186  1  0.393600  0.215400  0.855900  1
  C  C1187  1  0.215400  0.606400  0.855900  1
  C  C1188  1  0.784600  0.393600  0.855900  1
  C  C1189  1  0.393600  0.784600  0.144100  1
  C  C1190  1  0.606400  0.215400  0.144100  1
  C  C1191  1  0.784600  0.606400  0.144100  1
  C  C1192  1  0.215400  0.393600  0.144100  1
  C  C1193  1  0.106400  0.284600  0.355900  1
  C  C1194  1  0.893600  0.715400  0.355900  1
  C  C1195  1  0.715400  0.106400  0.355900  1
  C  C1196  1  0.284600  0.893600  0.355900  1
  C  C1197  1  0.893600  0.284600  0.644100  1
  C  C1198  1  0.106400  0.715400  0.644100  1
  C  C1199  1  0.284600  0.106400  0.644100  1
  C  C1200  1  0.715400  0.893600  0.644100  1
  C  C1201  1  0.120180  0.120180  0.187600  1.0
  C  C1202  1  0.879820  0.879820  0.187600  1.0
  C  C1203  1  0.879820  0.120180  0.187600  1.0
  C  C1204  1  0.120180  0.879820  0.187600  1.0
  C  C1205  1  0.879820  0.120180  0.812400  1.0
  C  C1206  1  0.120180  0.879820  0.812400  1.0
  C  C1207  1  0.120180  0.120180  0.812400  1.0
  C  C1208  1  0.879820  0.879820  0.812400  1.0
  C  C1209  1  0.620180  0.620180  0.687600  1.0
  C  C1210  1  0.379820  0.379820  0.687600  1.0
  C  C1211  1  0.379820  0.620180  0.687600  1.0
  C  C1212  1  0.620180  0.379820  0.687600  1.0
  C  C1213  1  0.379820  0.620180  0.312400  1.0
  C  C1214  1  0.620180  0.379820  0.312400  1.0
  C  C1215  1  0.620180  0.620180  0.312400  1.0
  C  C1216  1  0.379820  0.379820  0.312400  1.0
  C  C1217  1  0.150600  0.150600  0.250460  1.0
  C  C1218  1  0.849400  0.849400  0.250460  1.0
  C  C1219  1  0.849400  0.150600  0.250460  1.0
  C  C1220  1  0.150600  0.849400  0.250460  1.0
  C  C1221  1  0.849400  0.150600  0.749540  1.0
  C  C1222  1  0.150600  0.849400  0.749540  1.0
  C  C1223  1  0.150600  0.150600  0.749540  1.0
  C  C1224  1  0.849400  0.849400  0.749540  1.0
  C  C1225  1  0.650600  0.650600  0.750460  1.0
  C  C1226  1  0.349400  0.349400  0.750460  1.0
  C  C1227  1  0.349400  0.650600  0.750460  1.0
  C  C1228  1  0.650600  0.349400  0.750460  1.0
  C  C1229  1  0.349400  0.650600  0.249540  1.0
  C  C1230  1  0.650600  0.349400  0.249540  1.0
  C  C1231  1  0.650600  0.650600  0.249540  1.0
  C  C1232  1  0.349400  0.349400  0.249540  1.0
  C  C1233  1  0.171040  0.171040  0.281480  1.0
  C  C1234  1  0.828960  0.828960  0.281480  1.0
  C  C1235  1  0.828960  0.171040  0.281480  1.0
  C  C1236  1  0.171040  0.828960  0.281480  1.0
  C  C1237  1  0.828960  0.171040  0.718520  1.0
  C  C1238  1  0.171040  0.828960  0.718520  1.0
  C  C1239  1  0.171040  0.171040  0.718520  1.0
  C  C1240  1  0.828960  0.828960  0.718520  1.0
  C  C1241  1  0.671040  0.671040  0.781480  1.0
  C  C1242  1  0.328960  0.328960  0.781480  1.0
  C  C1243  1  0.328960  0.671040  0.781480  1.0
  C  C1244  1  0.671040  0.328960  0.781480  1.0
  C  C1245  1  0.328960  0.671040  0.218520  1.0
  C  C1246  1  0.671040  0.328960  0.218520  1.0
  C  C1247  1  0.671040  0.671040  0.218520  1.0
  C  C1248  1  0.328960  0.328960  0.218520  1.0
  C  C1249  1  0.207060  0.207060  0.273000  1.0
  C  C1250  1  0.792940  0.792940  0.273000  1.0
  C  C1251  1  0.792940  0.207060  0.273000  1.0
  C  C1252  1  0.207060  0.792940  0.273000  1.0
  C  C1253  1  0.792940  0.207060  0.727000  1.0
  C  C1254  1  0.207060  0.792940  0.727000  1.0
  C  C1255  1  0.207060  0.207060  0.727000  1.0
  C  C1256  1  0.792940  0.792940  0.727000  1.0
  C  C1257  1  0.707060  0.707060  0.773000  1.0
  C  C1258  1  0.292940  0.292940  0.773000  1.0
  C  C1259  1  0.292940  0.707060  0.773000  1.0
  C  C1260  1  0.707060  0.292940  0.773000  1.0
  C  C1261  1  0.292940  0.707060  0.227000  1.0
  C  C1262  1  0.707060  0.292940  0.227000  1.0
  C  C1263  1  0.707060  0.707060  0.227000  1.0
  C  C1264  1  0.292940  0.292940  0.227000  1.0
  C  C1265  1  0.269800  0.062000  0.127380  1.0
  C  C1266  1  0.730200  0.938000  0.127380  1.0
  C  C1267  1  0.938000  0.269800  0.127380  1.0
  C  C1268  1  0.062000  0.730200  0.127380  1.0
  C  C1269  1  0.730200  0.062000  0.872620  1.0
  C  C1270  1  0.269800  0.938000  0.872620  1.0
  C  C1271  1  0.062000  0.269800  0.872620  1.0
  C  C1272  1  0.938000  0.730200  0.872620  1.0
  C  C1273  1  0.769800  0.562000  0.627380  1.0
  C  C1274  1  0.230200  0.438000  0.627380  1.0
  C  C1275  1  0.438000  0.769800  0.627380  1.0
  C  C1276  1  0.562000  0.230200  0.627380  1.0
  C  C1277  1  0.230200  0.562000  0.372620  1.0
  C  C1278  1  0.769800  0.438000  0.372620  1.0
  C  C1279  1  0.562000  0.769800  0.372620  1.0
  C  C1280  1  0.438000  0.230200  0.372620  1.0
  C  C1281  1  0.730200  0.938000  0.872620  1.0
  C  C1282  1  0.269800  0.062000  0.872620  1.0
  C  C1283  1  0.062000  0.730200  0.872620  1.0
  C  C1284  1  0.938000  0.269800  0.872620  1.0
  C  C1285  1  0.269800  0.938000  0.127380  1.0
  C  C1286  1  0.730200  0.062000  0.127380  1.0
  C  C1287  1  0.938000  0.730200  0.127380  1.0
  C  C1288  1  0.062000  0.269800  0.127380  1.0
  C  C1289  1  0.230200  0.438000  0.372620  1.0
  C  C1290  1  0.769800  0.562000  0.372620  1.0
  C  C1291  1  0.562000  0.230200  0.372620  1.0
  C  C1292  1  0.438000  0.769800  0.372620  1.0
  C  C1293  1  0.769800  0.438000  0.627380  1.0
  C  C1294  1  0.230200  0.562000  0.627380  1.0
  C  C1295  1  0.438000  0.230200  0.627380  1.0
  C  C1296  1  0.562000  0.769800  0.627380  1.0
  C  C1297  1  0.295400  0.100400  0.111520  1.0
  C  C1298  1  0.704600  0.899600  0.111520  1.0
  C  C1299  1  0.899600  0.295400  0.111520  1.0
  C  C1300  1  0.100400  0.704600  0.111520  1.0
  C  C1301  1  0.704600  0.100400  0.888480  1.0
  C  C1302  1  0.295400  0.899600  0.888480  1.0
  C  C1303  1  0.100400  0.295400  0.888480  1.0
  C  C1304  1  0.899600  0.704600  0.888480  1.0
  C  C1305  1  0.795400  0.600400  0.611520  1.0
  C  C1306  1  0.204600  0.399600  0.611520  1.0
  C  C1307  1  0.399600  0.795400  0.611520  1.0
  C  C1308  1  0.600400  0.204600  0.611520  1.0
  C  C1309  1  0.204600  0.600400  0.388480  1.0
  C  C1310  1  0.795400  0.399600  0.388480  1.0
  C  C1311  1  0.600400  0.795400  0.388480  1.0
  C  C1312  1  0.399600  0.204600  0.388480  1.0
  C  C1313  1  0.704600  0.899600  0.888480  1.0
  C  C1314  1  0.295400  0.100400  0.888480  1.0
  C  C1315  1  0.100400  0.704600  0.888480  1.0
  C  C1316  1  0.899600  0.295400  0.888480  1.0
  C  C1317  1  0.295400  0.899600  0.111520  1.0
  C  C1318  1  0.704600  0.100400  0.111520  1.0
  C  C1319  1  0.899600  0.704600  0.111520  1.0
  C  C1320  1  0.100400  0.295400  0.111520  1.0
  C  C1321  1  0.204600  0.399600  0.388480  1.0
  C  C1322  1  0.795400  0.600400  0.388480  1.0
  C  C1323  1  0.600400  0.204600  0.388480  1.0
  C  C1324  1  0.399600  0.795400  0.388480  1.0
  C  C1325  1  0.795400  0.399600  0.611520  1.0
  C  C1326  1  0.204600  0.600400  0.611520  1.0
  C  C1327  1  0.399600  0.204600  0.611520  1.0
  C  C1328  1  0.600400  0.795400  0.611520  1.0
  C  C1329  1  0.338800  0.115100  0.122520  1.0
  C  C1330  1  0.661200  0.884900  0.122520  1.0
  C  C1331  1  0.884900  0.338800  0.122520  1.0
  C  C1332  1  0.115100  0.661200  0.122520  1.0
  C  C1333  1  0.661200  0.115100  0.877480  1.0
  C  C1334  1  0.338800  0.884900  0.877480  1.0
  C  C1335  1  0.115100  0.338800  0.877480  1.0
  C  C1336  1  0.884900  0.661200  0.877480  1.0
  C  C1337  1  0.838800  0.615100  0.622520  1.0
  C  C1338  1  0.161200  0.384900  0.622520  1.0
  C  C1339  1  0.384900  0.838800  0.622520  1.0
  C  C1340  1  0.615100  0.161200  0.622520  1.0
  C  C1341  1  0.161200  0.615100  0.377480  1.0
  C  C1342  1  0.838800  0.384900  0.377480  1.0
  C  C1343  1  0.615100  0.838800  0.377480  1.0
  C  C1344  1  0.384900  0.161200  0.377480  1.0
  C  C1345  1  0.661200  0.884900  0.877480  1.0
  C  C1346  1  0.338800  0.115100  0.877480  1.0
  C  C1347  1  0.115100  0.661200  0.877480  1.0
  C  C1348  1  0.884900  0.338800  0.877480  1.0
  C  C1349  1  0.338800  0.884900  0.122520  1.0
  C  C1350  1  0.661200  0.115100  0.122520  1.0
  C  C1351  1  0.884900  0.661200  0.122520  1.0
  C  C1352  1  0.115100  0.338800  0.122520  1.0
  C  C1353  1  0.161200  0.384900  0.377480  1.0
  C  C1354  1  0.838800  0.615100  0.377480  1.0
  C  C1355  1  0.615100  0.161200  0.377480  1.0
  C  C1356  1  0.384900  0.838800  0.377480  1.0
  C  C1357  1  0.838800  0.384900  0.622520  1.0
  C  C1358  1  0.161200  0.615100  0.622520  1.0
  C  C1359  1  0.384900  0.161200  0.622520  1.0
  C  C1360  1  0.615100  0.838800  0.622520  1.0
  C  C1361  1  0.358740  0.153900  0.109380  1.0
  C  C1362  1  0.641260  0.846100  0.109380  1.0
  C  C1363  1  0.846100  0.358740  0.109380  1.0
  C  C1364  1  0.153900  0.641260  0.109380  1.0
  C  C1365  1  0.641260  0.153900  0.890620  1.0
  C  C1366  1  0.358740  0.846100  0.890620  1.0
  C  C1367  1  0.153900  0.358740  0.890620  1.0
  C  C1368  1  0.846100  0.641260  0.890620  1.0
  C  C1369  1  0.858740  0.653900  0.609380  1.0
  C  C1370  1  0.141260  0.346100  0.609380  1.0
  C  C1371  1  0.346100  0.858740  0.609380  1.0
  C  C1372  1  0.653900  0.141260  0.609380  1.0
  C  C1373  1  0.141260  0.653900  0.390620  1.0
  C  C1374  1  0.858740  0.346100  0.390620  1.0
  C  C1375  1  0.653900  0.858740  0.390620  1.0
  C  C1376  1  0.346100  0.141260  0.390620  1.0
  C  C1377  1  0.641260  0.846100  0.890620  1.0
  C  C1378  1  0.358740  0.153900  0.890620  1.0
  C  C1379  1  0.153900  0.641260  0.890620  1.0
  C  C1380  1  0.846100  0.358740  0.890620  1.0
  C  C1381  1  0.358740  0.846100  0.109380  1.0
  C  C1382  1  0.641260  0.153900  0.109380  1.0
  C  C1383  1  0.846100  0.641260  0.109380  1.0
  C  C1384  1  0.153900  0.358740  0.109380  1.0
  C  C1385  1  0.141260  0.346100  0.390620  1.0
  C  C1386  1  0.858740  0.653900  0.390620  1.0
  C  C1387  1  0.653900  0.141260  0.390620  1.0
  C  C1388  1  0.346100  0.858740  0.390620  1.0
  C  C1389  1  0.858740  0.346100  0.609380  1.0
  C  C1390  1  0.141260  0.653900  0.609380  1.0
  C  C1391  1  0.346100  0.141260  0.609380  1.0
  C  C1392  1  0.653900  0.858740  0.609380  1.0
  C  C1393  1  0.335500  0.174700  0.082550  1.0
  C  C1394  1  0.664500  0.825300  0.082550  1.0
  C  C1395  1  0.825300  0.335500  0.082550  1.0
  C  C1396  1  0.174700  0.664500  0.082550  1.0
  C  C1397  1  0.664500  0.174700  0.917450  1.0
  C  C1398  1  0.335500  0.825300  0.917450  1.0
  C  C1399  1  0.174700  0.335500  0.917450  1.0
  C  C1400  1  0.825300  0.664500  0.917450  1.0
  C  C1401  1  0.835500  0.674700  0.582550  1.0
  C  C1402  1  0.164500  0.325300  0.582550  1.0
  C  C1403  1  0.325300  0.835500  0.582550  1.0
  C  C1404  1  0.674700  0.164500  0.582550  1.0
  C  C1405  1  0.164500  0.674700  0.417450  1.0
  C  C1406  1  0.835500  0.325300  0.417450  1.0
  C  C1407  1  0.674700  0.835500  0.417450  1.0
  C  C1408  1  0.325300  0.164500  0.417450  1.0
  C  C1409  1  0.664500  0.825300  0.917450  1.0
  C  C1410  1  0.335500  0.174700  0.917450  1.0
  C  C1411  1  0.174700  0.664500  0.917450  1.0
  C  C1412  1  0.825300  0.335500  0.917450  1.0
  C  C1413  1  0.335500  0.825300  0.082550  1.0
  C  C1414  1  0.664500  0.174700  0.082550  1.0
  C  C1415  1  0.825300  0.664500  0.082550  1.0
  C  C1416  1  0.174700  0.335500  0.082550  1.0
  C  C1417  1  0.164500  0.325300  0.417450  1.0
  C  C1418  1  0.835500  0.674700  0.417450  1.0
  C  C1419  1  0.674700  0.164500  0.417450  1.0
  C  C1420  1  0.325300  0.835500  0.417450  1.0
  C  C1421  1  0.835500  0.325300  0.582550  1.0
  C  C1422  1  0.164500  0.674700  0.582550  1.0
  C  C1423  1  0.325300  0.164500  0.582550  1.0
  C  C1424  1  0.674700  0.835500  0.582550  1.0
  C  C1425  1  0.293500  0.160300  0.070280  1.0
  C  C1426  1  0.706500  0.839700  0.070280  1.0
  C  C1427  1  0.839700  0.293500  0.070280  1.0
  C  C1428  1  0.160300  0.706500  0.070280  1.0
  C  C1429  1  0.706500  0.160300  0.929720  1.0
  C  C1430  1  0.293500  0.839700  0.929720  1.0
  C  C1431  1  0.160300  0.293500  0.929720  1.0
  C  C1432  1  0.839700  0.706500  0.929720  1.0
  C  C1433  1  0.793500  0.660300  0.570280  1.0
  C  C1434  1  0.206500  0.339700  0.570280  1.0
  C  C1435  1  0.339700  0.793500  0.570280  1.0
  C  C1436  1  0.660300  0.206500  0.570280  1.0
  C  C1437  1  0.206500  0.660300  0.429720  1.0
  C  C1438  1  0.793500  0.339700  0.429720  1.0
  C  C1439  1  0.660300  0.793500  0.429720  1.0
  C  C1440  1  0.339700  0.206500  0.429720  1.0
  C  C1441  1  0.706500  0.839700  0.929720  1.0
  C  C1442  1  0.293500  0.160300  0.929720  1.0
  C  C1443  1  0.160300  0.706500  0.929720  1.0
  C  C1444  1  0.839700  0.293500  0.929720  1.0
  C  C1445  1  0.293500  0.839700  0.070280  1.0
  C  C1446  1  0.706500  0.160300  0.070280  1.0
  C  C1447  1  0.839700  0.706500  0.070280  1.0
  C  C1448  1  0.160300  0.293500  0.070280  1.0
  C  C1449  1  0.206500  0.339700  0.429720  1.0
  C  C1450  1  0.793500  0.660300  0.429720  1.0
  C  C1451  1  0.660300  0.206500  0.429720  1.0
  C  C1452  1  0.339700  0.793500  0.429720  1.0
  C  C1453  1  0.793500  0.339700  0.570280  1.0
  C  C1454  1  0.206500  0.660300  0.570280  1.0
  C  C1455  1  0.339700  0.206500  0.570280  1.0
  C  C1456  1  0.660300  0.793500  0.570280  1.0
  C  C1457  1  0.268700  0.185300  0.043630  1.0
  C  C1458  1  0.731300  0.814700  0.043630  1.0
  C  C1459  1  0.814700  0.268700  0.043630  1.0
  C  C1460  1  0.185300  0.731300  0.043630  1.0
  C  C1461  1  0.731300  0.185300  0.956370  1.0
  C  C1462  1  0.268700  0.814700  0.956370  1.0
  C  C1463  1  0.185300  0.268700  0.956370  1.0
  C  C1464  1  0.814700  0.731300  0.956370  1.0
  C  C1465  1  0.768700  0.685300  0.543630  1.0
  C  C1466  1  0.231300  0.314700  0.543630  1.0
  C  C1467  1  0.314700  0.768700  0.543630  1.0
  C  C1468  1  0.685300  0.231300  0.543630  1.0
  C  C1469  1  0.231300  0.685300  0.456370  1.0
  C  C1470  1  0.768700  0.314700  0.456370  1.0
  C  C1471  1  0.685300  0.768700  0.456370  1.0
  C  C1472  1  0.314700  0.231300  0.456370  1.0
  C  C1473  1  0.731300  0.814700  0.956370  1.0
  C  C1474  1  0.268700  0.185300  0.956370  1.0
  C  C1475  1  0.185300  0.731300  0.956370  1.0
  C  C1476  1  0.814700  0.268700  0.956370  1.0
  C  C1477  1  0.268700  0.814700  0.043630  1.0
  C  C1478  1  0.731300  0.185300  0.043630  1.0
  C  C1479  1  0.814700  0.731300  0.043630  1.0
  C  C1480  1  0.185300  0.268700  0.043630  1.0
  C  C1481  1  0.231300  0.314700  0.456370  1.0
  C  C1482  1  0.768700  0.685300  0.456370  1.0
  C  C1483  1  0.685300  0.231300  0.456370  1.0
  C  C1484  1  0.314700  0.768700  0.456370  1.0
  C  C1485  1  0.768700  0.314700  0.543630  1.0
  C  C1486  1  0.231300  0.685300  0.543630  1.0
  C  C1487  1  0.314700  0.231300  0.543630  1.0
  C  C1488  1  0.685300  0.768700  0.543630  1.0
  C  C1489  1  0.273400  0.120600  0.085320  1.0
  C  C1490  1  0.726600  0.879400  0.085320  1.0
  C  C1491  1  0.879400  0.273400  0.085320  1.0
  C  C1492  1  0.120600  0.726600  0.085320  1.0
  C  C1493  1  0.726600  0.120600  0.914680  1.0
  C  C1494  1  0.273400  0.879400  0.914680  1.0
  C  C1495  1  0.120600  0.273400  0.914680  1.0
  C  C1496  1  0.879400  0.726600  0.914680  1.0
  C  C1497  1  0.773400  0.620600  0.585320  1.0
  C  C1498  1  0.226600  0.379400  0.585320  1.0
  C  C1499  1  0.379400  0.773400  0.585320  1.0
  C  C1500  1  0.620600  0.226600  0.585320  1.0
  C  C1501  1  0.226600  0.620600  0.414680  1.0
  C  C1502  1  0.773400  0.379400  0.414680  1.0
  C  C1503  1  0.620600  0.773400  0.414680  1.0
  C  C1504  1  0.379400  0.226600  0.414680  1.0
  C  C1505  1  0.726600  0.879400  0.914680  1.0
  C  C1506  1  0.273400  0.120600  0.914680  1.0
  C  C1507  1  0.120600  0.726600  0.914680  1.0
  C  C1508  1  0.879400  0.273400  0.914680  1.0
  C  C1509  1  0.273400  0.879400  0.085320  1.0
  C  C1510  1  0.726600  0.120600  0.085320  1.0
  C  C1511  1  0.879400  0.726600  0.085320  1.0
  C  C1512  1  0.120600  0.273400  0.085320  1.0
  C  C1513  1  0.226600  0.379400  0.414680  1.0
  C  C1514  1  0.773400  0.620600  0.414680  1.0
  C  C1515  1  0.620600  0.226600  0.414680  1.0
  C  C1516  1  0.379400  0.773400  0.414680  1.0
  C  C1517  1  0.773400  0.379400  0.585320  1.0
  C  C1518  1  0.226600  0.620600  0.585320  1.0
  C  C1519  1  0.379400  0.226600  0.585320  1.0
  C  C1520  1  0.620600  0.773400  0.585320  1.0
  C  C1521  1  0.183000  0.061070  0.185500  1.0
  C  C1522  1  0.817000  0.938930  0.185500  1.0
  C  C1523  1  0.938930  0.183000  0.185500  1.0
  C  C1524  1  0.061070  0.817000  0.185500  1.0
  C  C1525  1  0.817000  0.061070  0.814500  1.0
  C  C1526  1  0.183000  0.938930  0.814500  1.0
  C  C1527  1  0.061070  0.183000  0.814500  1.0
  C  C1528  1  0.938930  0.817000  0.814500  1.0
  C  C1529  1  0.683000  0.561070  0.685500  1.0
  C  C1530  1  0.317000  0.438930  0.685500  1.0
  C  C1531  1  0.438930  0.683000  0.685500  1.0
  C  C1532  1  0.561070  0.317000  0.685500  1.0
  C  C1533  1  0.317000  0.561070  0.314500  1.0
  C  C1534  1  0.683000  0.438930  0.314500  1.0
  C  C1535  1  0.561070  0.683000  0.314500  1.0
  C  C1536  1  0.438930  0.317000  0.314500  1.0
  C  C1537  1  0.817000  0.938930  0.814500  1.0
  C  C1538  1  0.183000  0.061070  0.814500  1.0
  C  C1539  1  0.061070  0.817000  0.814500  1.0
  C  C1540  1  0.938930  0.183000  0.814500  1.0
  C  C1541  1  0.183000  0.938930  0.185500  1.0
  C  C1542  1  0.817000  0.061070  0.185500  1.0
  C  C1543  1  0.938930  0.817000  0.185500  1.0
  C  C1544  1  0.061070  0.183000  0.185500  1.0
  C  C1545  1  0.317000  0.438930  0.314500  1.0
  C  C1546  1  0.683000  0.561070  0.314500  1.0
  C  C1547  1  0.561070  0.317000  0.314500  1.0
  C  C1548  1  0.438930  0.683000  0.314500  1.0
  C  C1549  1  0.683000  0.438930  0.685500  1.0
  C  C1550  1  0.317000  0.561070  0.685500  1.0
  C  C1551  1  0.438930  0.317000  0.685500  1.0
  C  C1552  1  0.561070  0.683000  0.685500  1.0
  C  C1553  1  0.157600  0.098000  0.203300  1.0
  C  C1554  1  0.842400  0.902000  0.203300  1.0
  C  C1555  1  0.902000  0.157600  0.203300  1.0
  C  C1556  1  0.098000  0.842400  0.203300  1.0
  C  C1557  1  0.842400  0.098000  0.796700  1.0
  C  C1558  1  0.157600  0.902000  0.796700  1.0
  C  C1559  1  0.098000  0.157600  0.796700  1.0
  C  C1560  1  0.902000  0.842400  0.796700  1.0
  C  C1561  1  0.657600  0.598000  0.703300  1.0
  C  C1562  1  0.342400  0.402000  0.703300  1.0
  C  C1563  1  0.402000  0.657600  0.703300  1.0
  C  C1564  1  0.598000  0.342400  0.703300  1.0
  C  C1565  1  0.342400  0.598000  0.296700  1.0
  C  C1566  1  0.657600  0.402000  0.296700  1.0
  C  C1567  1  0.598000  0.657600  0.296700  1.0
  C  C1568  1  0.402000  0.342400  0.296700  1.0
  C  C1569  1  0.842400  0.902000  0.796700  1.0
  C  C1570  1  0.157600  0.098000  0.796700  1.0
  C  C1571  1  0.098000  0.842400  0.796700  1.0
  C  C1572  1  0.902000  0.157600  0.796700  1.0
  C  C1573  1  0.157600  0.902000  0.203300  1.0
  C  C1574  1  0.842400  0.098000  0.203300  1.0
  C  C1575  1  0.902000  0.842400  0.203300  1.0
  C  C1576  1  0.098000  0.157600  0.203300  1.0
  C  C1577  1  0.342400  0.402000  0.296700  1.0
  C  C1578  1  0.657600  0.598000  0.296700  1.0
  C  C1579  1  0.598000  0.342400  0.296700  1.0
  C  C1580  1  0.402000  0.657600  0.296700  1.0
  C  C1581  1  0.657600  0.402000  0.703300  1.0
  C  C1582  1  0.342400  0.598000  0.703300  1.0
  C  C1583  1  0.402000  0.342400  0.703300  1.0
  C  C1584  1  0.598000  0.657600  0.703300  1.0
  C  C1585  1  0.171700  0.115200  0.236000  1.0
  C  C1586  1  0.828300  0.884800  0.236000  1.0
  C  C1587  1  0.884800  0.171700  0.236000  1.0
  C  C1588  1  0.115200  0.828300  0.236000  1.0
  C  C1589  1  0.828300  0.115200  0.764000  1.0
  C  C1590  1  0.171700  0.884800  0.764000  1.0
  C  C1591  1  0.115200  0.171700  0.764000  1.0
  C  C1592  1  0.884800  0.828300  0.764000  1.0
  C  C1593  1  0.671700  0.615200  0.736000  1.0
  C  C1594  1  0.328300  0.384800  0.736000  1.0
  C  C1595  1  0.384800  0.671700  0.736000  1.0
  C  C1596  1  0.615200  0.328300  0.736000  1.0
  C  C1597  1  0.328300  0.615200  0.264000  1.0
  C  C1598  1  0.671700  0.384800  0.264000  1.0
  C  C1599  1  0.615200  0.671700  0.264000  1.0
  C  C1600  1  0.384800  0.328300  0.264000  1.0
  C  C1601  1  0.828300  0.884800  0.764000  1.0
  C  C1602  1  0.171700  0.115200  0.764000  1.0
  C  C1603  1  0.115200  0.828300  0.764000  1.0
  C  C1604  1  0.884800  0.171700  0.764000  1.0
  C  C1605  1  0.171700  0.884800  0.236000  1.0
  C  C1606  1  0.828300  0.115200  0.236000  1.0
  C  C1607  1  0.884800  0.828300  0.236000  1.0
  C  C1608  1  0.115200  0.171700  0.236000  1.0
  C  C1609  1  0.328300  0.384800  0.264000  1.0
  C  C1610  1  0.671700  0.615200  0.264000  1.0
  C  C1611  1  0.615200  0.328300  0.264000  1.0
  C  C1612  1  0.384800  0.671700  0.264000  1.0
  C  C1613  1  0.671700  0.384800  0.736000  1.0
  C  C1614  1  0.328300  0.615200  0.736000  1.0
  C  C1615  1  0.384800  0.328300  0.736000  1.0
  C  C1616  1  0.615200  0.671700  0.736000  1.0
  C  C1617  1  0.193700  0.133600  0.301910  1.0
  C  C1618  1  0.806300  0.866400  0.301910  1.0
  C  C1619  1  0.866400  0.193700  0.301910  1.0
  C  C1620  1  0.133600  0.806300  0.301910  1.0
  C  C1621  1  0.806300  0.133600  0.698090  1.0
  C  C1622  1  0.193700  0.866400  0.698090  1.0
  C  C1623  1  0.133600  0.193700  0.698090  1.0
  C  C1624  1  0.866400  0.806300  0.698090  1.0
  C  C1625  1  0.693700  0.633600  0.801910  1.0
  C  C1626  1  0.306300  0.366400  0.801910  1.0
  C  C1627  1  0.366400  0.693700  0.801910  1.0
  C  C1628  1  0.633600  0.306300  0.801910  1.0
  C  C1629  1  0.306300  0.633600  0.198090  1.0
  C  C1630  1  0.693700  0.366400  0.198090  1.0
  C  C1631  1  0.633600  0.693700  0.198090  1.0
  C  C1632  1  0.366400  0.306300  0.198090  1.0
  C  C1633  1  0.806300  0.866400  0.698090  1.0
  C  C1634  1  0.193700  0.133600  0.698090  1.0
  C  C1635  1  0.133600  0.806300  0.698090  1.0
  C  C1636  1  0.866400  0.193700  0.698090  1.0
  C  C1637  1  0.193700  0.866400  0.301910  1.0
  C  C1638  1  0.806300  0.133600  0.301910  1.0
  C  C1639  1  0.866400  0.806300  0.301910  1.0
  C  C1640  1  0.133600  0.193700  0.301910  1.0
  C  C1641  1  0.306300  0.366400  0.198090  1.0
  C  C1642  1  0.693700  0.633600  0.198090  1.0
  C  C1643  1  0.633600  0.306300  0.198090  1.0
  C  C1644  1  0.366400  0.693700  0.198090  1.0
  C  C1645  1  0.693700  0.366400  0.801910  1.0
  C  C1646  1  0.306300  0.633600  0.801910  1.0
  C  C1647  1  0.366400  0.306300  0.801910  1.0
  C  C1648  1  0.633600  0.693700  0.801910  1.0
  C  C1649  1  0.403200  0.172380  0.124000  1.0
  C  C1650  1  0.596800  0.827620  0.124000  1.0
  C  C1651  1  0.827620  0.403200  0.124000  1.0
  C  C1652  1  0.172380  0.596800  0.124000  1.0
  C  C1653  1  0.596800  0.172380  0.876000  1.0
  C  C1654  1  0.403200  0.827620  0.876000  1.0
  C  C1655  1  0.172380  0.403200  0.876000  1.0
  C  C1656  1  0.827620  0.596800  0.876000  1.0
  C  C1657  1  0.903200  0.672380  0.624000  1.0
  C  C1658  1  0.096800  0.327620  0.624000  1.0
  C  C1659  1  0.327620  0.903200  0.624000  1.0
  C  C1660  1  0.672380  0.096800  0.624000  1.0
  C  C1661  1  0.096800  0.672380  0.376000  1.0
  C  C1662  1  0.903200  0.327620  0.376000  1.0
  C  C1663  1  0.672380  0.903200  0.376000  1.0
  C  C1664  1  0.327620  0.096800  0.376000  1.0
  C  C1665  1  0.596800  0.827620  0.876000  1.0
  C  C1666  1  0.403200  0.172380  0.876000  1.0
  C  C1667  1  0.172380  0.596800  0.876000  1.0
  C  C1668  1  0.827620  0.403200  0.876000  1.0
  C  C1669  1  0.403200  0.827620  0.124000  1.0
  C  C1670  1  0.596800  0.172380  0.124000  1.0
  C  C1671  1  0.827620  0.596800  0.124000  1.0
  C  C1672  1  0.172380  0.403200  0.124000  1.0
  C  C1673  1  0.096800  0.327620  0.376000  1.0
  C  C1674  1  0.903200  0.672380  0.376000  1.0
  C  C1675  1  0.672380  0.096800  0.376000  1.0
  C  C1676  1  0.327620  0.903200  0.376000  1.0
  C  C1677  1  0.903200  0.327620  0.624000  1.0
  C  C1678  1  0.096800  0.672380  0.624000  1.0
  C  C1679  1  0.327620  0.096800  0.624000  1.0
  C  C1680  1  0.672380  0.903200  0.624000  1.0
  C  C1681  1  0.440000  0.135100  0.124100  1.0
  C  C1682  1  0.560000  0.864900  0.124100  1.0
  C  C1683  1  0.864900  0.440000  0.124100  1.0
  C  C1684  1  0.135100  0.560000  0.124100  1.0
  C  C1685  1  0.560000  0.135100  0.875900  1.0
  C  C1686  1  0.440000  0.864900  0.875900  1.0
  C  C1687  1  0.135100  0.440000  0.875900  1.0
  C  C1688  1  0.864900  0.560000  0.875900  1.0
  C  C1689  1  0.940000  0.635100  0.624100  1.0
  C  C1690  1  0.060000  0.364900  0.624100  1.0
  C  C1691  1  0.364900  0.940000  0.624100  1.0
  C  C1692  1  0.635100  0.060000  0.624100  1.0
  C  C1693  1  0.060000  0.635100  0.375900  1.0
  C  C1694  1  0.940000  0.364900  0.375900  1.0
  C  C1695  1  0.635100  0.940000  0.375900  1.0
  C  C1696  1  0.364900  0.060000  0.375900  1.0
  C  C1697  1  0.560000  0.864900  0.875900  1.0
  C  C1698  1  0.440000  0.135100  0.875900  1.0
  C  C1699  1  0.135100  0.560000  0.875900  1.0
  C  C1700  1  0.864900  0.440000  0.875900  1.0
  C  C1701  1  0.440000  0.864900  0.124100  1.0
  C  C1702  1  0.560000  0.135100  0.124100  1.0
  C  C1703  1  0.864900  0.560000  0.124100  1.0
  C  C1704  1  0.135100  0.440000  0.124100  1.0
  C  C1705  1  0.060000  0.364900  0.375900  1.0
  C  C1706  1  0.940000  0.635100  0.375900  1.0
  C  C1707  1  0.635100  0.060000  0.375900  1.0
  C  C1708  1  0.364900  0.940000  0.375900  1.0
  C  C1709  1  0.940000  0.364900  0.624100  1.0
  C  C1710  1  0.060000  0.635100  0.624100  1.0
  C  C1711  1  0.364900  0.060000  0.624100  1.0
  C  C1712  1  0.635100  0.940000  0.624100  1.0
  C  C1713  1  0.420700  0.213000  0.104100  1.0
  C  C1714  1  0.579300  0.787000  0.104100  1.0
  C  C1715  1  0.787000  0.420700  0.104100  1.0
  C  C1716  1  0.213000  0.579300  0.104100  1.0
  C  C1717  1  0.579300  0.213000  0.895900  1.0
  C  C1718  1  0.420700  0.787000  0.895900  1.0
  C  C1719  1  0.213000  0.420700  0.895900  1.0
  C  C1720  1  0.787000  0.579300  0.895900  1.0
  C  C1721  1  0.920700  0.713000  0.604100  1.0
  C  C1722  1  0.079300  0.287000  0.604100  1.0
  C  C1723  1  0.287000  0.920700  0.604100  1.0
  C  C1724  1  0.713000  0.079300  0.604100  1.0
  C  C1725  1  0.079300  0.713000  0.395900  1.0
  C  C1726  1  0.920700  0.287000  0.395900  1.0
  C  C1727  1  0.713000  0.920700  0.395900  1.0
  C  C1728  1  0.287000  0.079300  0.395900  1.0
  C  C1729  1  0.579300  0.787000  0.895900  1.0
  C  C1730  1  0.420700  0.213000  0.895900  1.0
  C  C1731  1  0.213000  0.579300  0.895900  1.0
  C  C1732  1  0.787000  0.420700  0.895900  1.0
  C  C1733  1  0.420700  0.787000  0.104100  1.0
  C  C1734  1  0.579300  0.213000  0.104100  1.0
  C  C1735  1  0.787000  0.579300  0.104100  1.0
  C  C1736  1  0.213000  0.420700  0.104100  1.0
  C  C1737  1  0.079300  0.287000  0.395900  1.0
  C  C1738  1  0.920700  0.713000  0.395900  1.0
  C  C1739  1  0.713000  0.079300  0.395900  1.0
  C  C1740  1  0.287000  0.920700  0.395900  1.0
  C  C1741  1  0.920700  0.287000  0.604100  1.0
  C  C1742  1  0.079300  0.713000  0.604100  1.0
  C  C1743  1  0.287000  0.079300  0.604100  1.0
  C  C1744  1  0.713000  0.920700  0.604100  1.0
  C  C1745  1  0.395300  0.188100  0.159020  1.0
  C  C1746  1  0.604700  0.811900  0.159020  1.0
  C  C1747  1  0.811900  0.395300  0.159020  1.0
  C  C1748  1  0.188100  0.604700  0.159020  1.0
  C  C1749  1  0.604700  0.188100  0.840980  1.0
  C  C1750  1  0.395300  0.811900  0.840980  1.0
  C  C1751  1  0.188100  0.395300  0.840980  1.0
  C  C1752  1  0.811900  0.604700  0.840980  1.0
  C  C1753  1  0.895300  0.688100  0.659020  1.0
  C  C1754  1  0.104700  0.311900  0.659020  1.0
  C  C1755  1  0.311900  0.895300  0.659020  1.0
  C  C1756  1  0.688100  0.104700  0.659020  1.0
  C  C1757  1  0.104700  0.688100  0.340980  1.0
  C  C1758  1  0.895300  0.311900  0.340980  1.0
  C  C1759  1  0.688100  0.895300  0.340980  1.0
  C  C1760  1  0.311900  0.104700  0.340980  1.0
  C  C1761  1  0.604700  0.811900  0.840980  1.0
  C  C1762  1  0.395300  0.188100  0.840980  1.0
  C  C1763  1  0.188100  0.604700  0.840980  1.0
  C  C1764  1  0.811900  0.395300  0.840980  1.0
  C  C1765  1  0.395300  0.811900  0.159020  1.0
  C  C1766  1  0.604700  0.188100  0.159020  1.0
  C  C1767  1  0.811900  0.604700  0.159020  1.0
  C  C1768  1  0.188100  0.395300  0.159020  1.0
  C  C1769  1  0.104700  0.311900  0.340980  1.0
  C  C1770  1  0.895300  0.688100  0.340980  1.0
  C  C1771  1  0.688100  0.104700  0.340980  1.0
  C  C1772  1  0.311900  0.895300  0.340980  1.0
  C  C1773  1  0.895300  0.311900  0.659020  1.0
  C  C1774  1  0.104700  0.688100  0.659020  1.0
  C  C1775  1  0.311900  0.104700  0.659020  1.0
  C  C1776  1  0.688100  0.895300  0.659020  1.0
  O  O1777  1  0.312000  0.312000  0.000000  1.0
  O  O1778  1  0.688000  0.688000  0.000000  1.0
  O  O1779  1  0.688000  0.312000  0.000000  1.0
  O  O1780  1  0.312000  0.688000  0.000000  1.0
  O  O1781  1  0.812000  0.812000  0.500000  1.0
  O  O1782  1  0.188000  0.188000  0.500000  1.0
  O  O1783  1  0.188000  0.812000  0.500000  1.0
  O  O1784  1  0.812000  0.188000  0.500000  1.0
  O  O1785  1  0.143500  0.143500  0.000000  1.0
  O  O1786  1  0.856500  0.856500  0.000000  1.0
  O  O1787  1  0.856500  0.143500  0.000000  1.0
  O  O1788  1  0.143500  0.856500  0.000000  1.0
  O  O1789  1  0.643500  0.643500  0.500000  1.0
  O  O1790  1  0.356500  0.356500  0.500000  1.0
  O  O1791  1  0.356500  0.643500  0.500000  1.0
  O  O1792  1  0.643500  0.356500  0.500000  1.0
  O  O1793  1  0.305800  0.000000  0.220400  1.0
  O  O1794  1  0.694200  0.000000  0.220400  1.0
  O  O1795  1  0.000000  0.305800  0.220400  1.0
  O  O1796  1  0.000000  0.694200  0.220400  1.0
  O  O1797  1  0.694200  0.000000  0.779600  1.0
  O  O1798  1  0.305800  0.000000  0.779600  1.0
  O  O1799  1  0.000000  0.305800  0.779600  1.0
  O  O1800  1  0.000000  0.694200  0.779600  1.0
  O  O1801  1  0.805800  0.500000  0.720400  1.0
  O  O1802  1  0.194200  0.500000  0.720400  1.0
  O  O1803  1  0.500000  0.805800  0.720400  1.0
  O  O1804  1  0.500000  0.194200  0.720400  1.0
  O  O1805  1  0.194200  0.500000  0.279600  1.0
  O  O1806  1  0.805800  0.500000  0.279600  1.0
  O  O1807  1  0.500000  0.805800  0.279600  1.0
  O  O1808  1  0.500000  0.194200  0.279600  1.0
  O  O1809  1  0.147200  0.000000  0.094000  1.0
  O  O1810  1  0.852800  0.000000  0.094000  1.0
  O  O1811  1  0.000000  0.147200  0.094000  1.0
  O  O1812  1  0.000000  0.852800  0.094000  1.0
  O  O1813  1  0.852800  0.000000  0.906000  1.0
  O  O1814  1  0.147200  0.000000  0.906000  1.0
  O  O1815  1  0.000000  0.147200  0.906000  1.0
  O  O1816  1  0.000000  0.852800  0.906000  1.0
  O  O1817  1  0.647200  0.500000  0.594000  1.0
  O  O1818  1  0.352800  0.500000  0.594000  1.0
  O  O1819  1  0.500000  0.647200  0.594000  1.0
  O  O1820  1  0.500000  0.352800  0.594000  1.0
  O  O1821  1  0.352800  0.500000  0.406000  1.0
  O  O1822  1  0.647200  0.500000  0.406000  1.0
  O  O1823  1  0.500000  0.647200  0.406000  1.0
  O  O1824  1  0.500000  0.352800  0.406000  1.0
  O  O1825  1  0.288360  0.046610  0.155150  1.0
  O  O1826  1  0.711640  0.953390  0.155150  1.0
  O  O1827  1  0.953390  0.288360  0.155150  1.0
  O  O1828  1  0.046610  0.711640  0.155150  1.0
  O  O1829  1  0.711640  0.046610  0.844850  1.0
  O  O1830  1  0.288360  0.953390  0.844850  1.0
  O  O1831  1  0.046610  0.288360  0.844850  1.0
  O  O1832  1  0.953390  0.711640  0.844850  1.0
  O  O1833  1  0.788360  0.546610  0.655150  1.0
  O  O1834  1  0.211640  0.453390  0.655150  1.0
  O  O1835  1  0.453390  0.788360  0.655150  1.0
  O  O1836  1  0.546610  0.211640  0.655150  1.0
  O  O1837  1  0.211640  0.546610  0.344850  1.0
  O  O1838  1  0.788360  0.453390  0.344850  1.0
  O  O1839  1  0.546610  0.788360  0.344850  1.0
  O  O1840  1  0.453390  0.211640  0.344850  1.0
  O  O1841  1  0.711640  0.953390  0.844850  1.0
  O  O1842  1  0.288360  0.046610  0.844850  1.0
  O  O1843  1  0.046610  0.711640  0.844850  1.0
  O  O1844  1  0.953390  0.288360  0.844850  1.0
  O  O1845  1  0.288360  0.953390  0.155150  1.0
  O  O1846  1  0.711640  0.046610  0.155150  1.0
  O  O1847  1  0.953390  0.711640  0.155150  1.0
  O  O1848  1  0.046610  0.288360  0.155150  1.0
  O  O1849  1  0.211640  0.453390  0.344850  1.0
  O  O1850  1  0.788360  0.546610  0.344850  1.0
  O  O1851  1  0.546610  0.211640  0.344850  1.0
  O  O1852  1  0.453390  0.788360  0.344850  1.0
  O  O1853  1  0.788360  0.453390  0.655150  1.0
  O  O1854  1  0.211640  0.546610  0.655150  1.0
  O  O1855  1  0.453390  0.211640  0.655150  1.0
  O  O1856  1  0.546610  0.788360  0.655150  1.0
  O  O1857  1  0.234070  0.046110  0.114370  1.0
  O  O1858  1  0.765930  0.953890  0.114370  1.0
  O  O1859  1  0.953890  0.234070  0.114370  1.0
  O  O1860  1  0.046110  0.765930  0.114370  1.0
  O  O1861  1  0.765930  0.046110  0.885630  1.0
  O  O1862  1  0.234070  0.953890  0.885630  1.0
  O  O1863  1  0.046110  0.234070  0.885630  1.0
  O  O1864  1  0.953890  0.765930  0.885630  1.0
  O  O1865  1  0.734070  0.546110  0.614370  1.0
  O  O1866  1  0.265930  0.453890  0.614370  1.0
  O  O1867  1  0.453890  0.734070  0.614370  1.0
  O  O1868  1  0.546110  0.265930  0.614370  1.0
  O  O1869  1  0.265930  0.546110  0.385630  1.0
  O  O1870  1  0.734070  0.453890  0.385630  1.0
  O  O1871  1  0.546110  0.734070  0.385630  1.0
  O  O1872  1  0.453890  0.265930  0.385630  1.0
  O  O1873  1  0.765930  0.953890  0.885630  1.0
  O  O1874  1  0.234070  0.046110  0.885630  1.0
  O  O1875  1  0.046110  0.765930  0.885630  1.0
  O  O1876  1  0.953890  0.234070  0.885630  1.0
  O  O1877  1  0.234070  0.953890  0.114370  1.0
  O  O1878  1  0.765930  0.046110  0.114370  1.0
  O  O1879  1  0.953890  0.765930  0.114370  1.0
  O  O1880  1  0.046110  0.234070  0.114370  1.0
  O  O1881  1  0.265930  0.453890  0.385630  1.0
  O  O1882  1  0.734070  0.546110  0.385630  1.0
  O  O1883  1  0.546110  0.265930  0.385630  1.0
  O  O1884  1  0.453890  0.734070  0.385630  1.0
  O  O1885  1  0.734070  0.453890  0.614370  1.0
  O  O1886  1  0.265930  0.546110  0.614370  1.0
  O  O1887  1  0.453890  0.265930  0.614370  1.0
  O  O1888  1  0.546110  0.734070  0.614370  1.0
  O  O1889  1  0.288490  0.221340  0.033260  1.0
  O  O1890  1  0.711510  0.778660  0.033260  1.0
  O  O1891  1  0.778660  0.288490  0.033260  1.0
  O  O1892  1  0.221340  0.711510  0.033260  1.0
  O  O1893  1  0.711510  0.221340  0.966740  1.0
  O  O1894  1  0.288490  0.778660  0.966740  1.0
  O  O1895  1  0.221340  0.288490  0.966740  1.0
  O  O1896  1  0.778660  0.711510  0.966740  1.0
  O  O1897  1  0.788490  0.721340  0.533260  1.0
  O  O1898  1  0.211510  0.278660  0.533260  1.0
  O  O1899  1  0.278660  0.788490  0.533260  1.0
  O  O1900  1  0.721340  0.211510  0.533260  1.0
  O  O1901  1  0.211510  0.721340  0.466740  1.0
  O  O1902  1  0.788490  0.278660  0.466740  1.0
  O  O1903  1  0.721340  0.788490  0.466740  1.0
  O  O1904  1  0.278660  0.211510  0.466740  1.0
  O  O1905  1  0.711510  0.778660  0.966740  1.0
  O  O1906  1  0.288490  0.221340  0.966740  1.0
  O  O1907  1  0.221340  0.711510  0.966740  1.0
  O  O1908  1  0.778660  0.288490  0.966740  1.0
  O  O1909  1  0.288490  0.778660  0.033260  1.0
  O  O1910  1  0.711510  0.221340  0.033260  1.0
  O  O1911  1  0.778660  0.711510  0.033260  1.0
  O  O1912  1  0.221340  0.288490  0.033260  1.0
  O  O1913  1  0.211510  0.278660  0.466740  1.0
  O  O1914  1  0.788490  0.721340  0.466740  1.0
  O  O1915  1  0.721340  0.211510  0.466740  1.0
  O  O1916  1  0.278660  0.788490  0.466740  1.0
  O  O1917  1  0.788490  0.278660  0.533260  1.0
  O  O1918  1  0.211510  0.721340  0.533260  1.0
  O  O1919  1  0.278660  0.211510  0.533260  1.0
  O  O1920  1  0.721340  0.788490  0.533260  1.0
  O  O1921  1  0.233820  0.167260  0.032940  1.0
  O  O1922  1  0.766180  0.832740  0.032940  1.0
  O  O1923  1  0.832740  0.233820  0.032940  1.0
  O  O1924  1  0.167260  0.766180  0.032940  1.0
  O  O1925  1  0.766180  0.167260  0.967060  1.0
  O  O1926  1  0.233820  0.832740  0.967060  1.0
  O  O1927  1  0.167260  0.233820  0.967060  1.0
  O  O1928  1  0.832740  0.766180  0.967060  1.0
  O  O1929  1  0.733820  0.667260  0.532940  1.0
  O  O1930  1  0.266180  0.332740  0.532940  1.0
  O  O1931  1  0.332740  0.733820  0.532940  1.0
  O  O1932  1  0.667260  0.266180  0.532940  1.0
  O  O1933  1  0.266180  0.667260  0.467060  1.0
  O  O1934  1  0.733820  0.332740  0.467060  1.0
  O  O1935  1  0.667260  0.733820  0.467060  1.0
  O  O1936  1  0.332740  0.266180  0.467060  1.0
  O  O1937  1  0.766180  0.832740  0.967060  1.0
  O  O1938  1  0.233820  0.167260  0.967060  1.0
  O  O1939  1  0.167260  0.766180  0.967060  1.0
  O  O1940  1  0.832740  0.233820  0.967060  1.0
  O  O1941  1  0.233820  0.832740  0.032940  1.0
  O  O1942  1  0.766180  0.167260  0.032940  1.0
  O  O1943  1  0.832740  0.766180  0.032940  1.0
  O  O1944  1  0.167260  0.233820  0.032940  1.0
  O  O1945  1  0.266180  0.332740  0.467060  1.0
  O  O1946  1  0.733820  0.667260  0.467060  1.0
  O  O1947  1  0.667260  0.266180  0.467060  1.0
  O  O1948  1  0.332740  0.733820  0.467060  1.0
  O  O1949  1  0.733820  0.332740  0.532940  1.0
  O  O1950  1  0.266180  0.667260  0.532940  1.0
  O  O1951  1  0.332740  0.266180  0.532940  1.0
  O  O1952  1  0.667260  0.733820  0.532940  1.0
  O  O1953  1  0.219100  0.046960  0.200680  1.0
  O  O1954  1  0.780900  0.953040  0.200680  1.0
  O  O1955  1  0.953040  0.219100  0.200680  1.0
  O  O1956  1  0.046960  0.780900  0.200680  1.0
  O  O1957  1  0.780900  0.046960  0.799320  1.0
  O  O1958  1  0.219100  0.953040  0.799320  1.0
  O  O1959  1  0.046960  0.219100  0.799320  1.0
  O  O1960  1  0.953040  0.780900  0.799320  1.0
  O  O1961  1  0.719100  0.546960  0.700680  1.0
  O  O1962  1  0.280900  0.453040  0.700680  1.0
  O  O1963  1  0.453040  0.719100  0.700680  1.0
  O  O1964  1  0.546960  0.280900  0.700680  1.0
  O  O1965  1  0.280900  0.546960  0.299320  1.0
  O  O1966  1  0.719100  0.453040  0.299320  1.0
  O  O1967  1  0.546960  0.719100  0.299320  1.0
  O  O1968  1  0.453040  0.280900  0.299320  1.0
  O  O1969  1  0.780900  0.953040  0.799320  1.0
  O  O1970  1  0.219100  0.046960  0.799320  1.0
  O  O1971  1  0.046960  0.780900  0.799320  1.0
  O  O1972  1  0.953040  0.219100  0.799320  1.0
  O  O1973  1  0.219100  0.953040  0.200680  1.0
  O  O1974  1  0.780900  0.046960  0.200680  1.0
  O  O1975  1  0.953040  0.780900  0.200680  1.0
  O  O1976  1  0.046960  0.219100  0.200680  1.0
  O  O1977  1  0.280900  0.453040  0.299320  1.0
  O  O1978  1  0.719100  0.546960  0.299320  1.0
  O  O1979  1  0.546960  0.280900  0.299320  1.0
  O  O1980  1  0.453040  0.719100  0.299320  1.0
  O  O1981  1  0.719100  0.453040  0.700680  1.0
  O  O1982  1  0.280900  0.546960  0.700680  1.0
  O  O1983  1  0.453040  0.280900  0.700680  1.0
  O  O1984  1  0.546960  0.719100  0.700680  1.0
  O  O1985  1  0.164900  0.046090  0.160840  1.0
  O  O1986  1  0.835100  0.953910  0.160840  1.0
  O  O1987  1  0.953910  0.164900  0.160840  1.0
  O  O1988  1  0.046090  0.835100  0.160840  1.0
  O  O1989  1  0.835100  0.046090  0.839160  1.0
  O  O1990  1  0.164900  0.953910  0.839160  1.0
  O  O1991  1  0.046090  0.164900  0.839160  1.0
  O  O1992  1  0.953910  0.835100  0.839160  1.0
  O  O1993  1  0.664900  0.546090  0.660840  1.0
  O  O1994  1  0.335100  0.453910  0.660840  1.0
  O  O1995  1  0.453910  0.664900  0.660840  1.0
  O  O1996  1  0.546090  0.335100  0.660840  1.0
  O  O1997  1  0.335100  0.546090  0.339160  1.0
  O  O1998  1  0.664900  0.453910  0.339160  1.0
  O  O1999  1  0.546090  0.664900  0.339160  1.0
  O  O2000  1  0.453910  0.335100  0.339160  1.0
  O  O2001  1  0.835100  0.953910  0.839160  1.0
  O  O2002  1  0.164900  0.046090  0.839160  1.0
  O  O2003  1  0.046090  0.835100  0.839160  1.0
  O  O2004  1  0.953910  0.164900  0.839160  1.0
  O  O2005  1  0.164900  0.953910  0.160840  1.0
  O  O2006  1  0.835100  0.046090  0.160840  1.0
  O  O2007  1  0.953910  0.835100  0.160840  1.0
  O  O2008  1  0.046090  0.164900  0.160840  1.0
  O  O2009  1  0.335100  0.453910  0.339160  1.0
  O  O2010  1  0.664900  0.546090  0.339160  1.0
  O  O2011  1  0.546090  0.335100  0.339160  1.0
  O  O2012  1  0.453910  0.664900  0.339160  1.0
  O  O2013  1  0.664900  0.453910  0.660840  1.0
  O  O2014  1  0.335100  0.546090  0.660840  1.0
  O  O2015  1  0.453910  0.335100  0.660840  1.0
  O  O2016  1  0.546090  0.664900  0.660840  1.0
