# generated using pymatgen
data_Cu2H27C27O10
_symmetry_space_group_name_H-M   'P 1'
_cell_length_a   28.08300000
_cell_length_b   59.64500000
_cell_length_c   82.28800000
_cell_angle_alpha   90.00000000
_cell_angle_beta   90.00000000
_cell_angle_gamma   90.00000000
_symmetry_Int_Tables_number   1
_chemical_formula_structural   Cu2H27C27O10
_chemical_formula_sum   'Cu192 H2592 C2592 O960'
_cell_volume   137833.26690408
_cell_formula_units_Z   96
loop_
 _symmetry_equiv_pos_site_id
 _symmetry_equiv_pos_as_xyz
  1  'x, y, z'
loop_
 _atom_site_type_symbol
 _atom_site_label
 _atom_site_symmetry_multiplicity
 _atom_site_fract_x
 _atom_site_fract_y
 _atom_site_fract_z
 _atom_site_occupancy
  Cu  Cu1  1  0.180100  0.860873  0.971816  1.0
  Cu  Cu2  1  0.569900  0.889127  0.971816  1.0
  Cu  Cu3  1  0.569900  0.860873  0.778184  1.0
  Cu  Cu4  1  0.180100  0.889127  0.778184  1.0
  Cu  Cu5  1  0.180100  0.360873  0.471816  1.0
  Cu  Cu6  1  0.569900  0.389127  0.471816  1.0
  Cu  Cu7  1  0.569900  0.360873  0.278184  1.0
  Cu  Cu8  1  0.180100  0.389127  0.278184  1.0
  Cu  Cu9  1  0.680100  0.860873  0.471816  1.0
  Cu  Cu10  1  0.069900  0.889127  0.471816  1.0
  Cu  Cu11  1  0.069900  0.860873  0.278184  1.0
  Cu  Cu12  1  0.680100  0.889127  0.278184  1.0
  Cu  Cu13  1  0.680100  0.360873  0.971816  1.0
  Cu  Cu14  1  0.069900  0.389127  0.971816  1.0
  Cu  Cu15  1  0.069900  0.360873  0.778184  1.0
  Cu  Cu16  1  0.680100  0.389127  0.778184  1.0
  Cu  Cu17  1  0.819900  0.139127  0.028184  1.0
  Cu  Cu18  1  0.430100  0.110873  0.028184  1.0
  Cu  Cu19  1  0.430100  0.139127  0.221816  1.0
  Cu  Cu20  1  0.819900  0.110873  0.221816  1.0
  Cu  Cu21  1  0.819900  0.639127  0.528184  1.0
  Cu  Cu22  1  0.430100  0.610873  0.528184  1.0
  Cu  Cu23  1  0.430100  0.639127  0.721816  1.0
  Cu  Cu24  1  0.819900  0.610873  0.721816  1.0
  Cu  Cu25  1  0.319900  0.139127  0.528184  1.0
  Cu  Cu26  1  0.930100  0.110873  0.528184  1.0
  Cu  Cu27  1  0.930100  0.139127  0.721816  1.0
  Cu  Cu28  1  0.319900  0.110873  0.721816  1.0
  Cu  Cu29  1  0.319900  0.639127  0.028184  1.0
  Cu  Cu30  1  0.930100  0.610873  0.028184  1.0
  Cu  Cu31  1  0.930100  0.639127  0.221816  1.0
  Cu  Cu32  1  0.319900  0.610873  0.221816  1.0
  Cu  Cu33  1  0.115700  0.861251  0.948619  1.0
  Cu  Cu34  1  0.634300  0.888749  0.948619  1.0
  Cu  Cu35  1  0.634300  0.861251  0.801381  1.0
  Cu  Cu36  1  0.115700  0.888749  0.801381  1.0
  Cu  Cu37  1  0.115700  0.361251  0.448619  1.0
  Cu  Cu38  1  0.634300  0.388749  0.448619  1.0
  Cu  Cu39  1  0.634300  0.361251  0.301381  1.0
  Cu  Cu40  1  0.115700  0.388749  0.301381  1.0
  Cu  Cu41  1  0.615700  0.861251  0.448619  1.0
  Cu  Cu42  1  0.134300  0.888749  0.448619  1.0
  Cu  Cu43  1  0.134300  0.861251  0.301381  1.0
  Cu  Cu44  1  0.615700  0.888749  0.301381  1.0
  Cu  Cu45  1  0.615700  0.361251  0.948619  1.0
  Cu  Cu46  1  0.134300  0.388749  0.948619  1.0
  Cu  Cu47  1  0.134300  0.361251  0.801381  1.0
  Cu  Cu48  1  0.615700  0.388749  0.801381  1.0
  Cu  Cu49  1  0.884300  0.138749  0.051381  1.0
  Cu  Cu50  1  0.365700  0.111251  0.051381  1.0
  Cu  Cu51  1  0.365700  0.138749  0.198619  1.0
  Cu  Cu52  1  0.884300  0.111251  0.198619  1.0
  Cu  Cu53  1  0.884300  0.638749  0.551381  1.0
  Cu  Cu54  1  0.365700  0.611251  0.551381  1.0
  Cu  Cu55  1  0.365700  0.638749  0.698619  1.0
  Cu  Cu56  1  0.884300  0.611251  0.698619  1.0
  Cu  Cu57  1  0.384300  0.138749  0.551381  1.0
  Cu  Cu58  1  0.865700  0.111251  0.551381  1.0
  Cu  Cu59  1  0.865700  0.138749  0.698619  1.0
  Cu  Cu60  1  0.384300  0.111251  0.698619  1.0
  Cu  Cu61  1  0.384300  0.638749  0.051381  1.0
  Cu  Cu62  1  0.865700  0.611251  0.051381  1.0
  Cu  Cu63  1  0.865700  0.638749  0.198619  1.0
  Cu  Cu64  1  0.384300  0.611251  0.198619  1.0
  Cu  Cu65  1  0.173100  0.729522  0.884082  1.0
  Cu  Cu66  1  0.576900  0.020478  0.884082  1.0
  Cu  Cu67  1  0.576900  0.729522  0.865918  1.0
  Cu  Cu68  1  0.173100  0.020478  0.865918  1.0
  Cu  Cu69  1  0.173100  0.229522  0.384082  1.0
  Cu  Cu70  1  0.576900  0.520478  0.384082  1.0
  Cu  Cu71  1  0.576900  0.229522  0.365918  1.0
  Cu  Cu72  1  0.173100  0.520478  0.365918  1.0
  Cu  Cu73  1  0.673100  0.729522  0.384082  1.0
  Cu  Cu74  1  0.076900  0.020478  0.384082  1.0
  Cu  Cu75  1  0.076900  0.729522  0.365918  1.0
  Cu  Cu76  1  0.673100  0.020478  0.365918  1.0
  Cu  Cu77  1  0.673100  0.229522  0.884082  1.0
  Cu  Cu78  1  0.076900  0.520478  0.884082  1.0
  Cu  Cu79  1  0.076900  0.229522  0.865918  1.0
  Cu  Cu80  1  0.673100  0.520478  0.865918  1.0
  Cu  Cu81  1  0.826900  0.270478  0.115918  1.0
  Cu  Cu82  1  0.423100  0.979522  0.115918  1.0
  Cu  Cu83  1  0.423100  0.270478  0.134082  1.0
  Cu  Cu84  1  0.826900  0.979522  0.134082  1.0
  Cu  Cu85  1  0.826900  0.770478  0.615918  1.0
  Cu  Cu86  1  0.423100  0.479522  0.615918  1.0
  Cu  Cu87  1  0.423100  0.770478  0.634082  1.0
  Cu  Cu88  1  0.826900  0.479522  0.634082  1.0
  Cu  Cu89  1  0.326900  0.270478  0.615918  1.0
  Cu  Cu90  1  0.923100  0.979522  0.615918  1.0
  Cu  Cu91  1  0.923100  0.270478  0.634082  1.0
  Cu  Cu92  1  0.326900  0.979522  0.634082  1.0
  Cu  Cu93  1  0.326900  0.770478  0.115918  1.0
  Cu  Cu94  1  0.923100  0.479522  0.115918  1.0
  Cu  Cu95  1  0.923100  0.770478  0.134082  1.0
  Cu  Cu96  1  0.326900  0.479522  0.134082  1.0
  Cu  Cu97  1  0.108540  0.761572  0.883420  1.0
  Cu  Cu98  1  0.641460  0.988428  0.883420  1.0
  Cu  Cu99  1  0.641460  0.761572  0.866580  1.0
  Cu  Cu100  1  0.108540  0.988428  0.866580  1.0
  Cu  Cu101  1  0.108540  0.261572  0.383420  1.0
  Cu  Cu102  1  0.641460  0.488428  0.383420  1.0
  Cu  Cu103  1  0.641460  0.261572  0.366580  1.0
  Cu  Cu104  1  0.108540  0.488428  0.366580  1.0
  Cu  Cu105  1  0.608540  0.761572  0.383420  1.0
  Cu  Cu106  1  0.141460  0.988428  0.383420  1.0
  Cu  Cu107  1  0.141460  0.761572  0.366580  1.0
  Cu  Cu108  1  0.608540  0.988428  0.366580  1.0
  Cu  Cu109  1  0.608540  0.261572  0.883420  1.0
  Cu  Cu110  1  0.141460  0.488428  0.883420  1.0
  Cu  Cu111  1  0.141460  0.261572  0.866580  1.0
  Cu  Cu112  1  0.608540  0.488428  0.866580  1.0
  Cu  Cu113  1  0.891460  0.238428  0.116580  1.0
  Cu  Cu114  1  0.358540  0.011572  0.116580  1.0
  Cu  Cu115  1  0.358540  0.238428  0.133420  1.0
  Cu  Cu116  1  0.891460  0.011572  0.133420  1.0
  Cu  Cu117  1  0.891460  0.738428  0.616580  1.0
  Cu  Cu118  1  0.358540  0.511572  0.616580  1.0
  Cu  Cu119  1  0.358540  0.738428  0.633420  1.0
  Cu  Cu120  1  0.891460  0.511572  0.633420  1.0
  Cu  Cu121  1  0.391460  0.238428  0.616580  1.0
  Cu  Cu122  1  0.858540  0.011572  0.616580  1.0
  Cu  Cu123  1  0.858540  0.238428  0.633420  1.0
  Cu  Cu124  1  0.391460  0.011572  0.633420  1.0
  Cu  Cu125  1  0.391460  0.738428  0.116580  1.0
  Cu  Cu126  1  0.858540  0.511572  0.116580  1.0
  Cu  Cu127  1  0.858540  0.738428  0.133420  1.0
  Cu  Cu128  1  0.391460  0.511572  0.133420  1.0
  Cu  Cu129  1  0.907150  0.737925  0.976064  1.0
  Cu  Cu130  1  0.842850  0.012075  0.976064  1.0
  Cu  Cu131  1  0.842850  0.737925  0.773936  1.0
  Cu  Cu132  1  0.907150  0.012075  0.773936  1.0
  Cu  Cu133  1  0.907150  0.237925  0.476064  1.0
  Cu  Cu134  1  0.842850  0.512075  0.476064  1.0
  Cu  Cu135  1  0.842850  0.237925  0.273936  1.0
  Cu  Cu136  1  0.907150  0.512075  0.273936  1.0
  Cu  Cu137  1  0.407150  0.737925  0.476064  1.0
  Cu  Cu138  1  0.342850  0.012075  0.476064  1.0
  Cu  Cu139  1  0.342850  0.737925  0.273936  1.0
  Cu  Cu140  1  0.407150  0.012075  0.273936  1.0
  Cu  Cu141  1  0.407150  0.237925  0.976064  1.0
  Cu  Cu142  1  0.342850  0.512075  0.976064  1.0
  Cu  Cu143  1  0.342850  0.237925  0.773936  1.0
  Cu  Cu144  1  0.407150  0.512075  0.773936  1.0
  Cu  Cu145  1  0.092850  0.262075  0.023936  1.0
  Cu  Cu146  1  0.157150  0.987925  0.023936  1.0
  Cu  Cu147  1  0.157150  0.262075  0.226064  1.0
  Cu  Cu148  1  0.092850  0.987925  0.226064  1.0
  Cu  Cu149  1  0.092850  0.762075  0.523936  1.0
  Cu  Cu150  1  0.157150  0.487925  0.523936  1.0
  Cu  Cu151  1  0.157150  0.762075  0.726064  1.0
  Cu  Cu152  1  0.092850  0.487925  0.726064  1.0
  Cu  Cu153  1  0.592850  0.262075  0.523936  1.0
  Cu  Cu154  1  0.657150  0.987925  0.523936  1.0
  Cu  Cu155  1  0.657150  0.262075  0.726064  1.0
  Cu  Cu156  1  0.592850  0.987925  0.726064  1.0
  Cu  Cu157  1  0.592850  0.762075  0.023936  1.0
  Cu  Cu158  1  0.657150  0.487925  0.023936  1.0
  Cu  Cu159  1  0.657150  0.762075  0.226064  1.0
  Cu  Cu160  1  0.592850  0.487925  0.226064  1.0
  Cu  Cu161  1  0.904760  0.766900  0.951855  1.0
  Cu  Cu162  1  0.845240  0.983100  0.951855  1.0
  Cu  Cu163  1  0.845240  0.766900  0.798145  1.0
  Cu  Cu164  1  0.904760  0.983100  0.798145  1.0
  Cu  Cu165  1  0.904760  0.266900  0.451855  1.0
  Cu  Cu166  1  0.845240  0.483100  0.451855  1.0
  Cu  Cu167  1  0.845240  0.266900  0.298145  1.0
  Cu  Cu168  1  0.904760  0.483100  0.298145  1.0
  Cu  Cu169  1  0.404760  0.766900  0.451855  1.0
  Cu  Cu170  1  0.345240  0.983100  0.451855  1.0
  Cu  Cu171  1  0.345240  0.766900  0.298145  1.0
  Cu  Cu172  1  0.404760  0.983100  0.298145  1.0
  Cu  Cu173  1  0.404760  0.266900  0.951855  1.0
  Cu  Cu174  1  0.345240  0.483100  0.951855  1.0
  Cu  Cu175  1  0.345240  0.266900  0.798145  1.0
  Cu  Cu176  1  0.404760  0.483100  0.798145  1.0
  Cu  Cu177  1  0.095240  0.233100  0.048145  1.0
  Cu  Cu178  1  0.154760  0.016900  0.048145  1.0
  Cu  Cu179  1  0.154760  0.233100  0.201855  1.0
  Cu  Cu180  1  0.095240  0.016900  0.201855  1.0
  Cu  Cu181  1  0.095240  0.733100  0.548145  1.0
  Cu  Cu182  1  0.154760  0.516900  0.548145  1.0
  Cu  Cu183  1  0.154760  0.733100  0.701855  1.0
  Cu  Cu184  1  0.095240  0.516900  0.701855  1.0
  Cu  Cu185  1  0.595240  0.233100  0.548145  1.0
  Cu  Cu186  1  0.654760  0.016900  0.548145  1.0
  Cu  Cu187  1  0.654760  0.233100  0.701855  1.0
  Cu  Cu188  1  0.595240  0.016900  0.701855  1.0
  Cu  Cu189  1  0.595240  0.733100  0.048145  1.0
  Cu  Cu190  1  0.654760  0.516900  0.048145  1.0
  Cu  Cu191  1  0.654760  0.733100  0.201855  1.0
  Cu  Cu192  1  0.595240  0.516900  0.201855  1.0
  H  H193  1  0.375900  0.753100  0.942000  1
  H  H194  1  0.374100  0.996900  0.942000  1
  H  H195  1  0.374100  0.753100  0.808000  1
  H  H196  1  0.375900  0.996900  0.808000  1
  H  H197  1  0.375900  0.253100  0.442000  1
  H  H198  1  0.374100  0.496900  0.442000  1
  H  H199  1  0.374100  0.253100  0.308000  1
  H  H200  1  0.375900  0.496900  0.308000  1
  H  H201  1  0.875900  0.753100  0.442000  1
  H  H202  1  0.874100  0.996900  0.442000  1
  H  H203  1  0.874100  0.753100  0.308000  1
  H  H204  1  0.875900  0.996900  0.308000  1
  H  H205  1  0.875900  0.253100  0.942000  1
  H  H206  1  0.874100  0.496900  0.942000  1
  H  H207  1  0.874100  0.253100  0.808000  1
  H  H208  1  0.875900  0.496900  0.808000  1
  H  H209  1  0.624100  0.246900  0.058000  1
  H  H210  1  0.625900  0.003100  0.058000  1
  H  H211  1  0.625900  0.246900  0.192000  1
  H  H212  1  0.624100  0.003100  0.192000  1
  H  H213  1  0.624100  0.746900  0.558000  1
  H  H214  1  0.625900  0.503100  0.558000  1
  H  H215  1  0.625900  0.746900  0.692000  1
  H  H216  1  0.624100  0.503100  0.692000  1
  H  H217  1  0.124100  0.246900  0.558000  1
  H  H218  1  0.125900  0.003100  0.558000  1
  H  H219  1  0.125900  0.246900  0.692000  1
  H  H220  1  0.124100  0.003100  0.692000  1
  H  H221  1  0.124100  0.746900  0.058000  1
  H  H222  1  0.125900  0.503100  0.058000  1
  H  H223  1  0.125900  0.746900  0.192000  1
  H  H224  1  0.124100  0.503100  0.192000  1
  H  H225  1  0.359800  0.773000  0.930200  1
  H  H226  1  0.390200  0.977000  0.930200  1
  H  H227  1  0.390200  0.773000  0.819800  1
  H  H228  1  0.359800  0.977000  0.819800  1
  H  H229  1  0.359800  0.273000  0.430200  1
  H  H230  1  0.390200  0.477000  0.430200  1
  H  H231  1  0.390200  0.273000  0.319800  1
  H  H232  1  0.359800  0.477000  0.319800  1
  H  H233  1  0.859800  0.773000  0.430200  1
  H  H234  1  0.890200  0.977000  0.430200  1
  H  H235  1  0.890200  0.773000  0.319800  1
  H  H236  1  0.859800  0.977000  0.319800  1
  H  H237  1  0.859800  0.273000  0.930200  1
  H  H238  1  0.890200  0.477000  0.930200  1
  H  H239  1  0.890200  0.273000  0.819800  1
  H  H240  1  0.859800  0.477000  0.819800  1
  H  H241  1  0.640200  0.227000  0.069800  1
  H  H242  1  0.609800  0.023000  0.069800  1
  H  H243  1  0.609800  0.227000  0.180200  1
  H  H244  1  0.640200  0.023000  0.180200  1
  H  H245  1  0.640200  0.727000  0.569800  1
  H  H246  1  0.609800  0.523000  0.569800  1
  H  H247  1  0.609800  0.727000  0.680200  1
  H  H248  1  0.640200  0.523000  0.680200  1
  H  H249  1  0.140200  0.227000  0.569800  1
  H  H250  1  0.109800  0.023000  0.569800  1
  H  H251  1  0.109800  0.227000  0.680200  1
  H  H252  1  0.140200  0.023000  0.680200  1
  H  H253  1  0.140200  0.727000  0.069800  1
  H  H254  1  0.109800  0.523000  0.069800  1
  H  H255  1  0.109800  0.727000  0.180200  1
  H  H256  1  0.140200  0.523000  0.180200  1
  H  H257  1  0.334400  0.749100  0.929000  1
  H  H258  1  0.415600  0.000900  0.929000  1
  H  H259  1  0.415600  0.749100  0.821000  1
  H  H260  1  0.334400  0.000900  0.821000  1
  H  H261  1  0.334400  0.249100  0.429000  1
  H  H262  1  0.415600  0.500900  0.429000  1
  H  H263  1  0.415600  0.249100  0.321000  1
  H  H264  1  0.334400  0.500900  0.321000  1
  H  H265  1  0.834400  0.749100  0.429000  1
  H  H266  1  0.915600  0.000900  0.429000  1
  H  H267  1  0.915600  0.749100  0.321000  1
  H  H268  1  0.834400  0.000900  0.321000  1
  H  H269  1  0.834400  0.249100  0.929000  1
  H  H270  1  0.915600  0.500900  0.929000  1
  H  H271  1  0.915600  0.249100  0.821000  1
  H  H272  1  0.834400  0.500900  0.821000  1
  H  H273  1  0.665600  0.250900  0.071000  1
  H  H274  1  0.584400  0.999100  0.071000  1
  H  H275  1  0.584400  0.250900  0.179000  1
  H  H276  1  0.665600  0.999100  0.179000  1
  H  H277  1  0.665600  0.750900  0.571000  1
  H  H278  1  0.584400  0.499100  0.571000  1
  H  H279  1  0.584400  0.750900  0.679000  1
  H  H280  1  0.665600  0.499100  0.679000  1
  H  H281  1  0.165600  0.250900  0.571000  1
  H  H282  1  0.084400  0.999100  0.571000  1
  H  H283  1  0.084400  0.250900  0.679000  1
  H  H284  1  0.165600  0.999100  0.679000  1
  H  H285  1  0.165600  0.750900  0.071000  1
  H  H286  1  0.084400  0.499100  0.071000  1
  H  H287  1  0.084400  0.750900  0.179000  1
  H  H288  1  0.165600  0.499100  0.179000  1
  H  H289  1  0.323300  0.740100  0.964000  1
  H  H290  1  0.426700  0.009900  0.964000  1
  H  H291  1  0.426700  0.740100  0.786000  1
  H  H292  1  0.323300  0.009900  0.786000  1
  H  H293  1  0.323300  0.240100  0.464000  1
  H  H294  1  0.426700  0.509900  0.464000  1
  H  H295  1  0.426700  0.240100  0.286000  1
  H  H296  1  0.323300  0.509900  0.286000  1
  H  H297  1  0.823300  0.740100  0.464000  1
  H  H298  1  0.926700  0.009900  0.464000  1
  H  H299  1  0.926700  0.740100  0.286000  1
  H  H300  1  0.823300  0.009900  0.286000  1
  H  H301  1  0.823300  0.240100  0.964000  1
  H  H302  1  0.926700  0.509900  0.964000  1
  H  H303  1  0.926700  0.240100  0.786000  1
  H  H304  1  0.823300  0.509900  0.786000  1
  H  H305  1  0.676700  0.259900  0.036000  1
  H  H306  1  0.573300  0.990100  0.036000  1
  H  H307  1  0.573300  0.259900  0.214000  1
  H  H308  1  0.676700  0.990100  0.214000  1
  H  H309  1  0.676700  0.759900  0.536000  1
  H  H310  1  0.573300  0.490100  0.536000  1
  H  H311  1  0.573300  0.759900  0.714000  1
  H  H312  1  0.676700  0.490100  0.714000  1
  H  H313  1  0.176700  0.259900  0.536000  1
  H  H314  1  0.073300  0.990100  0.536000  1
  H  H315  1  0.073300  0.259900  0.714000  1
  H  H316  1  0.176700  0.990100  0.714000  1
  H  H317  1  0.176700  0.759900  0.036000  1
  H  H318  1  0.073300  0.490100  0.036000  1
  H  H319  1  0.073300  0.759900  0.214000  1
  H  H320  1  0.176700  0.490100  0.214000  1
  H  H321  1  0.280700  0.736100  0.951400  1
  H  H322  1  0.469300  0.013900  0.951400  1
  H  H323  1  0.469300  0.736100  0.798600  1
  H  H324  1  0.280700  0.013900  0.798600  1
  H  H325  1  0.280700  0.236100  0.451400  1
  H  H326  1  0.469300  0.513900  0.451400  1
  H  H327  1  0.469300  0.236100  0.298600  1
  H  H328  1  0.280700  0.513900  0.298600  1
  H  H329  1  0.780700  0.736100  0.451400  1
  H  H330  1  0.969300  0.013900  0.451400  1
  H  H331  1  0.969300  0.736100  0.298600  1
  H  H332  1  0.780700  0.013900  0.298600  1
  H  H333  1  0.780700  0.236100  0.951400  1
  H  H334  1  0.969300  0.513900  0.951400  1
  H  H335  1  0.969300  0.236100  0.798600  1
  H  H336  1  0.780700  0.513900  0.798600  1
  H  H337  1  0.719300  0.263900  0.048600  1
  H  H338  1  0.530700  0.986100  0.048600  1
  H  H339  1  0.530700  0.263900  0.201400  1
  H  H340  1  0.719300  0.986100  0.201400  1
  H  H341  1  0.719300  0.763900  0.548600  1
  H  H342  1  0.530700  0.486100  0.548600  1
  H  H343  1  0.530700  0.763900  0.701400  1
  H  H344  1  0.719300  0.486100  0.701400  1
  H  H345  1  0.219300  0.263900  0.548600  1
  H  H346  1  0.030700  0.986100  0.548600  1
  H  H347  1  0.030700  0.263900  0.701400  1
  H  H348  1  0.219300  0.986100  0.701400  1
  H  H349  1  0.219300  0.763900  0.048600  1
  H  H350  1  0.030700  0.486100  0.048600  1
  H  H351  1  0.030700  0.763900  0.201400  1
  H  H352  1  0.219300  0.486100  0.201400  1
  H  H353  1  0.272700  0.751600  0.967000  1
  H  H354  1  0.477300  0.998400  0.967000  1
  H  H355  1  0.477300  0.751600  0.783000  1
  H  H356  1  0.272700  0.998400  0.783000  1
  H  H357  1  0.272700  0.251600  0.467000  1
  H  H358  1  0.477300  0.498400  0.467000  1
  H  H359  1  0.477300  0.251600  0.283000  1
  H  H360  1  0.272700  0.498400  0.283000  1
  H  H361  1  0.772700  0.751600  0.467000  1
  H  H362  1  0.977300  0.998400  0.467000  1
  H  H363  1  0.977300  0.751600  0.283000  1
  H  H364  1  0.772700  0.998400  0.283000  1
  H  H365  1  0.772700  0.251600  0.967000  1
  H  H366  1  0.977300  0.498400  0.967000  1
  H  H367  1  0.977300  0.251600  0.783000  1
  H  H368  1  0.772700  0.498400  0.783000  1
  H  H369  1  0.727300  0.248400  0.033000  1
  H  H370  1  0.522700  0.001600  0.033000  1
  H  H371  1  0.522700  0.248400  0.217000  1
  H  H372  1  0.727300  0.001600  0.217000  1
  H  H373  1  0.727300  0.748400  0.533000  1
  H  H374  1  0.522700  0.501600  0.533000  1
  H  H375  1  0.522700  0.748400  0.717000  1
  H  H376  1  0.727300  0.501600  0.717000  1
  H  H377  1  0.227300  0.248400  0.533000  1
  H  H378  1  0.022700  0.001600  0.533000  1
  H  H379  1  0.022700  0.248400  0.717000  1
  H  H380  1  0.227300  0.001600  0.717000  1
  H  H381  1  0.227300  0.748400  0.033000  1
  H  H382  1  0.022700  0.501600  0.033000  1
  H  H383  1  0.022700  0.748400  0.217000  1
  H  H384  1  0.227300  0.501600  0.217000  1
  H  H385  1  0.362800  0.777100  0.965800  1
  H  H386  1  0.387200  0.972900  0.965800  1
  H  H387  1  0.387200  0.777100  0.784200  1
  H  H388  1  0.362800  0.972900  0.784200  1
  H  H389  1  0.362800  0.277100  0.465800  1
  H  H390  1  0.387200  0.472900  0.465800  1
  H  H391  1  0.387200  0.277100  0.284200  1
  H  H392  1  0.362800  0.472900  0.284200  1
  H  H393  1  0.862800  0.777100  0.465800  1
  H  H394  1  0.887200  0.972900  0.465800  1
  H  H395  1  0.887200  0.777100  0.284200  1
  H  H396  1  0.862800  0.972900  0.284200  1
  H  H397  1  0.862800  0.277100  0.965800  1
  H  H398  1  0.887200  0.472900  0.965800  1
  H  H399  1  0.887200  0.277100  0.784200  1
  H  H400  1  0.862800  0.472900  0.784200  1
  H  H401  1  0.637200  0.222900  0.034200  1
  H  H402  1  0.612800  0.027100  0.034200  1
  H  H403  1  0.612800  0.222900  0.215800  1
  H  H404  1  0.637200  0.027100  0.215800  1
  H  H405  1  0.637200  0.722900  0.534200  1
  H  H406  1  0.612800  0.527100  0.534200  1
  H  H407  1  0.612800  0.722900  0.715800  1
  H  H408  1  0.637200  0.527100  0.715800  1
  H  H409  1  0.137200  0.222900  0.534200  1
  H  H410  1  0.112800  0.027100  0.534200  1
  H  H411  1  0.112800  0.222900  0.715800  1
  H  H412  1  0.137200  0.027100  0.715800  1
  H  H413  1  0.137200  0.722900  0.034200  1
  H  H414  1  0.112800  0.527100  0.034200  1
  H  H415  1  0.112800  0.722900  0.215800  1
  H  H416  1  0.137200  0.527100  0.215800  1
  H  H417  1  0.312300  0.788800  0.968900  1
  H  H418  1  0.437700  0.961200  0.968900  1
  H  H419  1  0.437700  0.788800  0.781100  1
  H  H420  1  0.312300  0.961200  0.781100  1
  H  H421  1  0.312300  0.288800  0.468900  1
  H  H422  1  0.437700  0.461200  0.468900  1
  H  H423  1  0.437700  0.288800  0.281100  1
  H  H424  1  0.312300  0.461200  0.281100  1
  H  H425  1  0.812300  0.788800  0.468900  1
  H  H426  1  0.937700  0.961200  0.468900  1
  H  H427  1  0.937700  0.788800  0.281100  1
  H  H428  1  0.812300  0.961200  0.281100  1
  H  H429  1  0.812300  0.288800  0.968900  1
  H  H430  1  0.937700  0.461200  0.968900  1
  H  H431  1  0.937700  0.288800  0.781100  1
  H  H432  1  0.812300  0.461200  0.781100  1
  H  H433  1  0.687700  0.211200  0.031100  1
  H  H434  1  0.562300  0.038800  0.031100  1
  H  H435  1  0.562300  0.211200  0.218900  1
  H  H436  1  0.687700  0.038800  0.218900  1
  H  H437  1  0.687700  0.711200  0.531100  1
  H  H438  1  0.562300  0.538800  0.531100  1
  H  H439  1  0.562300  0.711200  0.718900  1
  H  H440  1  0.687700  0.538800  0.718900  1
  H  H441  1  0.187700  0.211200  0.531100  1
  H  H442  1  0.062300  0.038800  0.531100  1
  H  H443  1  0.062300  0.211200  0.718900  1
  H  H444  1  0.187700  0.038800  0.718900  1
  H  H445  1  0.187700  0.711200  0.031100  1
  H  H446  1  0.062300  0.538800  0.031100  1
  H  H447  1  0.062300  0.711200  0.218900  1
  H  H448  1  0.187700  0.538800  0.218900  1
  H  H449  1  0.346100  0.797400  0.954500  1
  H  H450  1  0.403900  0.952600  0.954500  1
  H  H451  1  0.403900  0.797400  0.795500  1
  H  H452  1  0.346100  0.952600  0.795500  1
  H  H453  1  0.346100  0.297400  0.454500  1
  H  H454  1  0.403900  0.452600  0.454500  1
  H  H455  1  0.403900  0.297400  0.295500  1
  H  H456  1  0.346100  0.452600  0.295500  1
  H  H457  1  0.846100  0.797400  0.454500  1
  H  H458  1  0.903900  0.952600  0.454500  1
  H  H459  1  0.903900  0.797400  0.295500  1
  H  H460  1  0.846100  0.952600  0.295500  1
  H  H461  1  0.846100  0.297400  0.954500  1
  H  H462  1  0.903900  0.452600  0.954500  1
  H  H463  1  0.903900  0.297400  0.795500  1
  H  H464  1  0.846100  0.452600  0.795500  1
  H  H465  1  0.653900  0.202600  0.045500  1
  H  H466  1  0.596100  0.047400  0.045500  1
  H  H467  1  0.596100  0.202600  0.204500  1
  H  H468  1  0.653900  0.047400  0.204500  1
  H  H469  1  0.653900  0.702600  0.545500  1
  H  H470  1  0.596100  0.547400  0.545500  1
  H  H471  1  0.596100  0.702600  0.704500  1
  H  H472  1  0.653900  0.547400  0.704500  1
  H  H473  1  0.153900  0.202600  0.545500  1
  H  H474  1  0.096100  0.047400  0.545500  1
  H  H475  1  0.096100  0.202600  0.704500  1
  H  H476  1  0.153900  0.047400  0.704500  1
  H  H477  1  0.153900  0.702600  0.045500  1
  H  H478  1  0.096100  0.547400  0.045500  1
  H  H479  1  0.096100  0.702600  0.204500  1
  H  H480  1  0.153900  0.547400  0.204500  1
  H  H481  1  0.043900  0.631800  0.947500  1
  H  H482  1  0.706100  0.118200  0.947500  1
  H  H483  1  0.706100  0.631800  0.802500  1
  H  H484  1  0.043900  0.118200  0.802500  1
  H  H485  1  0.043900  0.131800  0.447500  1
  H  H486  1  0.706100  0.618200  0.447500  1
  H  H487  1  0.706100  0.131800  0.302500  1
  H  H488  1  0.043900  0.618200  0.302500  1
  H  H489  1  0.543900  0.631800  0.447500  1
  H  H490  1  0.206100  0.118200  0.447500  1
  H  H491  1  0.206100  0.631800  0.302500  1
  H  H492  1  0.543900  0.118200  0.302500  1
  H  H493  1  0.543900  0.131800  0.947500  1
  H  H494  1  0.206100  0.618200  0.947500  1
  H  H495  1  0.206100  0.131800  0.802500  1
  H  H496  1  0.543900  0.618200  0.802500  1
  H  H497  1  0.956100  0.368200  0.052500  1
  H  H498  1  0.293900  0.881800  0.052500  1
  H  H499  1  0.293900  0.368200  0.197500  1
  H  H500  1  0.956100  0.881800  0.197500  1
  H  H501  1  0.956100  0.868200  0.552500  1
  H  H502  1  0.293900  0.381800  0.552500  1
  H  H503  1  0.293900  0.868200  0.697500  1
  H  H504  1  0.956100  0.381800  0.697500  1
  H  H505  1  0.456100  0.368200  0.552500  1
  H  H506  1  0.793900  0.881800  0.552500  1
  H  H507  1  0.793900  0.368200  0.697500  1
  H  H508  1  0.456100  0.881800  0.697500  1
  H  H509  1  0.456100  0.868200  0.052500  1
  H  H510  1  0.793900  0.381800  0.052500  1
  H  H511  1  0.793900  0.868200  0.197500  1
  H  H512  1  0.456100  0.381800  0.197500  1
  H  H513  1  0.026600  0.645600  0.931900  1
  H  H514  1  0.723400  0.104400  0.931900  1
  H  H515  1  0.723400  0.645600  0.818100  1
  H  H516  1  0.026600  0.104400  0.818100  1
  H  H517  1  0.026600  0.145600  0.431900  1
  H  H518  1  0.723400  0.604400  0.431900  1
  H  H519  1  0.723400  0.145600  0.318100  1
  H  H520  1  0.026600  0.604400  0.318100  1
  H  H521  1  0.526600  0.645600  0.431900  1
  H  H522  1  0.223400  0.104400  0.431900  1
  H  H523  1  0.223400  0.645600  0.318100  1
  H  H524  1  0.526600  0.104400  0.318100  1
  H  H525  1  0.526600  0.145600  0.931900  1
  H  H526  1  0.223400  0.604400  0.931900  1
  H  H527  1  0.223400  0.145600  0.818100  1
  H  H528  1  0.526600  0.604400  0.818100  1
  H  H529  1  0.973400  0.354400  0.068100  1
  H  H530  1  0.276600  0.895600  0.068100  1
  H  H531  1  0.276600  0.354400  0.181900  1
  H  H532  1  0.973400  0.895600  0.181900  1
  H  H533  1  0.973400  0.854400  0.568100  1
  H  H534  1  0.276600  0.395600  0.568100  1
  H  H535  1  0.276600  0.854400  0.681900  1
  H  H536  1  0.973400  0.395600  0.681900  1
  H  H537  1  0.473400  0.354400  0.568100  1
  H  H538  1  0.776600  0.895600  0.568100  1
  H  H539  1  0.776600  0.354400  0.681900  1
  H  H540  1  0.473400  0.895600  0.681900  1
  H  H541  1  0.473400  0.854400  0.068100  1
  H  H542  1  0.776600  0.395600  0.068100  1
  H  H543  1  0.776600  0.854400  0.181900  1
  H  H544  1  0.473400  0.395600  0.181900  1
  H  H545  1  0.006500  0.651900  0.949500  1
  H  H546  1  0.743500  0.098100  0.949500  1
  H  H547  1  0.743500  0.651900  0.800500  1
  H  H548  1  0.006500  0.098100  0.800500  1
  H  H549  1  0.006500  0.151900  0.449500  1
  H  H550  1  0.743500  0.598100  0.449500  1
  H  H551  1  0.743500  0.151900  0.300500  1
  H  H552  1  0.006500  0.598100  0.300500  1
  H  H553  1  0.506500  0.651900  0.449500  1
  H  H554  1  0.243500  0.098100  0.449500  1
  H  H555  1  0.243500  0.651900  0.300500  1
  H  H556  1  0.506500  0.098100  0.300500  1
  H  H557  1  0.506500  0.151900  0.949500  1
  H  H558  1  0.243500  0.598100  0.949500  1
  H  H559  1  0.243500  0.151900  0.800500  1
  H  H560  1  0.506500  0.598100  0.800500  1
  H  H561  1  0.993500  0.348100  0.050500  1
  H  H562  1  0.256500  0.901900  0.050500  1
  H  H563  1  0.256500  0.348100  0.199500  1
  H  H564  1  0.993500  0.901900  0.199500  1
  H  H565  1  0.993500  0.848100  0.550500  1
  H  H566  1  0.256500  0.401900  0.550500  1
  H  H567  1  0.256500  0.848100  0.699500  1
  H  H568  1  0.993500  0.401900  0.699500  1
  H  H569  1  0.493500  0.348100  0.550500  1
  H  H570  1  0.756500  0.901900  0.550500  1
  H  H571  1  0.756500  0.348100  0.699500  1
  H  H572  1  0.493500  0.901900  0.699500  1
  H  H573  1  0.493500  0.848100  0.050500  1
  H  H574  1  0.756500  0.401900  0.050500  1
  H  H575  1  0.756500  0.848100  0.199500  1
  H  H576  1  0.493500  0.401900  0.199500  1
  H  H577  1  0.127500  0.639600  0.940300  1
  H  H578  1  0.622500  0.110400  0.940300  1
  H  H579  1  0.622500  0.639600  0.809700  1
  H  H580  1  0.127500  0.110400  0.809700  1
  H  H581  1  0.127500  0.139600  0.440300  1
  H  H582  1  0.622500  0.610400  0.440300  1
  H  H583  1  0.622500  0.139600  0.309700  1
  H  H584  1  0.127500  0.610400  0.309700  1
  H  H585  1  0.627500  0.639600  0.440300  1
  H  H586  1  0.122500  0.110400  0.440300  1
  H  H587  1  0.122500  0.639600  0.309700  1
  H  H588  1  0.627500  0.110400  0.309700  1
  H  H589  1  0.627500  0.139600  0.940300  1
  H  H590  1  0.122500  0.610400  0.940300  1
  H  H591  1  0.122500  0.139600  0.809700  1
  H  H592  1  0.627500  0.610400  0.809700  1
  H  H593  1  0.872500  0.360400  0.059700  1
  H  H594  1  0.377500  0.889600  0.059700  1
  H  H595  1  0.377500  0.360400  0.190300  1
  H  H596  1  0.872500  0.889600  0.190300  1
  H  H597  1  0.872500  0.860400  0.559700  1
  H  H598  1  0.377500  0.389600  0.559700  1
  H  H599  1  0.377500  0.860400  0.690300  1
  H  H600  1  0.872500  0.389600  0.690300  1
  H  H601  1  0.372500  0.360400  0.559700  1
  H  H602  1  0.877500  0.889600  0.559700  1
  H  H603  1  0.877500  0.360400  0.690300  1
  H  H604  1  0.372500  0.889600  0.690300  1
  H  H605  1  0.372500  0.860400  0.059700  1
  H  H606  1  0.877500  0.389600  0.059700  1
  H  H607  1  0.877500  0.860400  0.190300  1
  H  H608  1  0.372500  0.389600  0.190300  1
  H  H609  1  0.145900  0.664800  0.938000  1
  H  H610  1  0.604100  0.085200  0.938000  1
  H  H611  1  0.604100  0.664800  0.812000  1
  H  H612  1  0.145900  0.085200  0.812000  1
  H  H613  1  0.145900  0.164800  0.438000  1
  H  H614  1  0.604100  0.585200  0.438000  1
  H  H615  1  0.604100  0.164800  0.312000  1
  H  H616  1  0.145900  0.585200  0.312000  1
  H  H617  1  0.645900  0.664800  0.438000  1
  H  H618  1  0.104100  0.085200  0.438000  1
  H  H619  1  0.104100  0.664800  0.312000  1
  H  H620  1  0.645900  0.085200  0.312000  1
  H  H621  1  0.645900  0.164800  0.938000  1
  H  H622  1  0.104100  0.585200  0.938000  1
  H  H623  1  0.104100  0.164800  0.812000  1
  H  H624  1  0.645900  0.585200  0.812000  1
  H  H625  1  0.854100  0.335200  0.062000  1
  H  H626  1  0.395900  0.914800  0.062000  1
  H  H627  1  0.395900  0.335200  0.188000  1
  H  H628  1  0.854100  0.914800  0.188000  1
  H  H629  1  0.854100  0.835200  0.562000  1
  H  H630  1  0.395900  0.414800  0.562000  1
  H  H631  1  0.395900  0.835200  0.688000  1
  H  H632  1  0.854100  0.414800  0.688000  1
  H  H633  1  0.354100  0.335200  0.562000  1
  H  H634  1  0.895900  0.914800  0.562000  1
  H  H635  1  0.895900  0.335200  0.688000  1
  H  H636  1  0.354100  0.914800  0.688000  1
  H  H637  1  0.354100  0.835200  0.062000  1
  H  H638  1  0.895900  0.414800  0.062000  1
  H  H639  1  0.895900  0.835200  0.188000  1
  H  H640  1  0.354100  0.414800  0.188000  1
  H  H641  1  0.111300  0.653800  0.924800  1
  H  H642  1  0.638700  0.096200  0.924800  1
  H  H643  1  0.638700  0.653800  0.825200  1
  H  H644  1  0.111300  0.096200  0.825200  1
  H  H645  1  0.111300  0.153800  0.424800  1
  H  H646  1  0.638700  0.596200  0.424800  1
  H  H647  1  0.638700  0.153800  0.325200  1
  H  H648  1  0.111300  0.596200  0.325200  1
  H  H649  1  0.611300  0.653800  0.424800  1
  H  H650  1  0.138700  0.096200  0.424800  1
  H  H651  1  0.138700  0.653800  0.325200  1
  H  H652  1  0.611300  0.096200  0.325200  1
  H  H653  1  0.611300  0.153800  0.924800  1
  H  H654  1  0.138700  0.596200  0.924800  1
  H  H655  1  0.138700  0.153800  0.825200  1
  H  H656  1  0.611300  0.596200  0.825200  1
  H  H657  1  0.888700  0.346200  0.075200  1
  H  H658  1  0.361300  0.903800  0.075200  1
  H  H659  1  0.361300  0.346200  0.174800  1
  H  H660  1  0.888700  0.903800  0.174800  1
  H  H661  1  0.888700  0.846200  0.575200  1
  H  H662  1  0.361300  0.403800  0.575200  1
  H  H663  1  0.361300  0.846200  0.674800  1
  H  H664  1  0.888700  0.403800  0.674800  1
  H  H665  1  0.388700  0.346200  0.575200  1
  H  H666  1  0.861300  0.903800  0.575200  1
  H  H667  1  0.861300  0.346200  0.674800  1
  H  H668  1  0.388700  0.903800  0.674800  1
  H  H669  1  0.388700  0.846200  0.075200  1
  H  H670  1  0.861300  0.403800  0.075200  1
  H  H671  1  0.861300  0.846200  0.174800  1
  H  H672  1  0.388700  0.403800  0.174800  1
  H  H673  1  0.096800  0.649100  0.967700  1
  H  H674  1  0.653200  0.100900  0.967700  1
  H  H675  1  0.653200  0.649100  0.782300  1
  H  H676  1  0.096800  0.100900  0.782300  1
  H  H677  1  0.096800  0.149100  0.467700  1
  H  H678  1  0.653200  0.600900  0.467700  1
  H  H679  1  0.653200  0.149100  0.282300  1
  H  H680  1  0.096800  0.600900  0.282300  1
  H  H681  1  0.596800  0.649100  0.467700  1
  H  H682  1  0.153200  0.100900  0.467700  1
  H  H683  1  0.153200  0.649100  0.282300  1
  H  H684  1  0.596800  0.100900  0.282300  1
  H  H685  1  0.596800  0.149100  0.967700  1
  H  H686  1  0.153200  0.600900  0.967700  1
  H  H687  1  0.153200  0.149100  0.782300  1
  H  H688  1  0.596800  0.600900  0.782300  1
  H  H689  1  0.903200  0.350900  0.032300  1
  H  H690  1  0.346800  0.899100  0.032300  1
  H  H691  1  0.346800  0.350900  0.217700  1
  H  H692  1  0.903200  0.899100  0.217700  1
  H  H693  1  0.903200  0.850900  0.532300  1
  H  H694  1  0.346800  0.399100  0.532300  1
  H  H695  1  0.346800  0.850900  0.717700  1
  H  H696  1  0.903200  0.399100  0.717700  1
  H  H697  1  0.403200  0.350900  0.532300  1
  H  H698  1  0.846800  0.899100  0.532300  1
  H  H699  1  0.846800  0.350900  0.717700  1
  H  H700  1  0.403200  0.899100  0.717700  1
  H  H701  1  0.403200  0.850900  0.032300  1
  H  H702  1  0.846800  0.399100  0.032300  1
  H  H703  1  0.846800  0.850900  0.217700  1
  H  H704  1  0.403200  0.399100  0.217700  1
  H  H705  1  0.060900  0.669700  0.970100  1
  H  H706  1  0.689100  0.080300  0.970100  1
  H  H707  1  0.689100  0.669700  0.779900  1
  H  H708  1  0.060900  0.080300  0.779900  1
  H  H709  1  0.060900  0.169700  0.470100  1
  H  H710  1  0.689100  0.580300  0.470100  1
  H  H711  1  0.689100  0.169700  0.279900  1
  H  H712  1  0.060900  0.580300  0.279900  1
  H  H713  1  0.560900  0.669700  0.470100  1
  H  H714  1  0.189100  0.080300  0.470100  1
  H  H715  1  0.189100  0.669700  0.279900  1
  H  H716  1  0.560900  0.080300  0.279900  1
  H  H717  1  0.560900  0.169700  0.970100  1
  H  H718  1  0.189100  0.580300  0.970100  1
  H  H719  1  0.189100  0.169700  0.779900  1
  H  H720  1  0.560900  0.580300  0.779900  1
  H  H721  1  0.939100  0.330300  0.029900  1
  H  H722  1  0.310900  0.919700  0.029900  1
  H  H723  1  0.310900  0.330300  0.220100  1
  H  H724  1  0.939100  0.919700  0.220100  1
  H  H725  1  0.939100  0.830300  0.529900  1
  H  H726  1  0.310900  0.419700  0.529900  1
  H  H727  1  0.310900  0.830300  0.720100  1
  H  H728  1  0.939100  0.419700  0.720100  1
  H  H729  1  0.439100  0.330300  0.529900  1
  H  H730  1  0.810900  0.919700  0.529900  1
  H  H731  1  0.810900  0.330300  0.720100  1
  H  H732  1  0.439100  0.919700  0.720100  1
  H  H733  1  0.439100  0.830300  0.029900  1
  H  H734  1  0.810900  0.419700  0.029900  1
  H  H735  1  0.810900  0.830300  0.220100  1
  H  H736  1  0.439100  0.419700  0.220100  1
  H  H737  1  0.115400  0.674300  0.965500  1
  H  H738  1  0.634600  0.075700  0.965500  1
  H  H739  1  0.634600  0.674300  0.784500  1
  H  H740  1  0.115400  0.075700  0.784500  1
  H  H741  1  0.115400  0.174300  0.465500  1
  H  H742  1  0.634600  0.575700  0.465500  1
  H  H743  1  0.634600  0.174300  0.284500  1
  H  H744  1  0.115400  0.575700  0.284500  1
  H  H745  1  0.615400  0.674300  0.465500  1
  H  H746  1  0.134600  0.075700  0.465500  1
  H  H747  1  0.134600  0.674300  0.284500  1
  H  H748  1  0.615400  0.075700  0.284500  1
  H  H749  1  0.615400  0.174300  0.965500  1
  H  H750  1  0.134600  0.575700  0.965500  1
  H  H751  1  0.134600  0.174300  0.784500  1
  H  H752  1  0.615400  0.575700  0.784500  1
  H  H753  1  0.884600  0.325700  0.034500  1
  H  H754  1  0.365400  0.924300  0.034500  1
  H  H755  1  0.365400  0.325700  0.215500  1
  H  H756  1  0.884600  0.924300  0.215500  1
  H  H757  1  0.884600  0.825700  0.534500  1
  H  H758  1  0.365400  0.424300  0.534500  1
  H  H759  1  0.365400  0.825700  0.715500  1
  H  H760  1  0.884600  0.424300  0.715500  1
  H  H761  1  0.384600  0.325700  0.534500  1
  H  H762  1  0.865400  0.924300  0.534500  1
  H  H763  1  0.865400  0.325700  0.715500  1
  H  H764  1  0.384600  0.924300  0.715500  1
  H  H765  1  0.384600  0.825700  0.034500  1
  H  H766  1  0.865400  0.424300  0.034500  1
  H  H767  1  0.865400  0.825700  0.215500  1
  H  H768  1  0.384600  0.424300  0.215500  1
  H  H769  1  0.119600  0.788800  0.043600  1
  H  H770  1  0.630400  0.961200  0.043600  1
  H  H771  1  0.630400  0.788800  0.706400  1
  H  H772  1  0.119600  0.961200  0.706400  1
  H  H773  1  0.119600  0.288800  0.543600  1
  H  H774  1  0.630400  0.461200  0.543600  1
  H  H775  1  0.630400  0.288800  0.206400  1
  H  H776  1  0.119600  0.461200  0.206400  1
  H  H777  1  0.619600  0.788800  0.543600  1
  H  H778  1  0.130400  0.961200  0.543600  1
  H  H779  1  0.130400  0.788800  0.206400  1
  H  H780  1  0.619600  0.961200  0.206400  1
  H  H781  1  0.619600  0.288800  0.043600  1
  H  H782  1  0.130400  0.461200  0.043600  1
  H  H783  1  0.130400  0.288800  0.706400  1
  H  H784  1  0.619600  0.461200  0.706400  1
  H  H785  1  0.880400  0.211200  0.956400  1
  H  H786  1  0.369600  0.038800  0.956400  1
  H  H787  1  0.369600  0.211200  0.293600  1
  H  H788  1  0.880400  0.038800  0.293600  1
  H  H789  1  0.880400  0.711200  0.456400  1
  H  H790  1  0.369600  0.538800  0.456400  1
  H  H791  1  0.369600  0.711200  0.793600  1
  H  H792  1  0.880400  0.538800  0.793600  1
  H  H793  1  0.380400  0.211200  0.456400  1
  H  H794  1  0.869600  0.038800  0.456400  1
  H  H795  1  0.869600  0.211200  0.793600  1
  H  H796  1  0.380400  0.038800  0.793600  1
  H  H797  1  0.380400  0.711200  0.956400  1
  H  H798  1  0.869600  0.538800  0.956400  1
  H  H799  1  0.869600  0.711200  0.293600  1
  H  H800  1  0.380400  0.538800  0.293600  1
  H  H801  1  0.130900  0.805700  0.029000  1
  H  H802  1  0.619100  0.944300  0.029000  1
  H  H803  1  0.619100  0.805700  0.721000  1
  H  H804  1  0.130900  0.944300  0.721000  1
  H  H805  1  0.130900  0.305700  0.529000  1
  H  H806  1  0.619100  0.444300  0.529000  1
  H  H807  1  0.619100  0.305700  0.221000  1
  H  H808  1  0.130900  0.444300  0.221000  1
  H  H809  1  0.630900  0.805700  0.529000  1
  H  H810  1  0.119100  0.944300  0.529000  1
  H  H811  1  0.119100  0.805700  0.221000  1
  H  H812  1  0.630900  0.944300  0.221000  1
  H  H813  1  0.630900  0.305700  0.029000  1
  H  H814  1  0.119100  0.444300  0.029000  1
  H  H815  1  0.119100  0.305700  0.721000  1
  H  H816  1  0.630900  0.444300  0.721000  1
  H  H817  1  0.869100  0.194300  0.971000  1
  H  H818  1  0.380900  0.055700  0.971000  1
  H  H819  1  0.380900  0.194300  0.279000  1
  H  H820  1  0.869100  0.055700  0.279000  1
  H  H821  1  0.869100  0.694300  0.471000  1
  H  H822  1  0.380900  0.555700  0.471000  1
  H  H823  1  0.380900  0.694300  0.779000  1
  H  H824  1  0.869100  0.555700  0.779000  1
  H  H825  1  0.369100  0.194300  0.471000  1
  H  H826  1  0.880900  0.055700  0.471000  1
  H  H827  1  0.880900  0.194300  0.779000  1
  H  H828  1  0.369100  0.055700  0.779000  1
  H  H829  1  0.369100  0.694300  0.971000  1
  H  H830  1  0.880900  0.555700  0.971000  1
  H  H831  1  0.880900  0.694300  0.279000  1
  H  H832  1  0.369100  0.555700  0.279000  1
  H  H833  1  0.128200  0.779200  0.025700  1
  H  H834  1  0.621800  0.970800  0.025700  1
  H  H835  1  0.621800  0.779200  0.724300  1
  H  H836  1  0.128200  0.970800  0.724300  1
  H  H837  1  0.128200  0.279200  0.525700  1
  H  H838  1  0.621800  0.470800  0.525700  1
  H  H839  1  0.621800  0.279200  0.224300  1
  H  H840  1  0.128200  0.470800  0.224300  1
  H  H841  1  0.628200  0.779200  0.525700  1
  H  H842  1  0.121800  0.970800  0.525700  1
  H  H843  1  0.121800  0.779200  0.224300  1
  H  H844  1  0.628200  0.970800  0.224300  1
  H  H845  1  0.628200  0.279200  0.025700  1
  H  H846  1  0.121800  0.470800  0.025700  1
  H  H847  1  0.121800  0.279200  0.724300  1
  H  H848  1  0.628200  0.470800  0.724300  1
  H  H849  1  0.871800  0.220800  0.974300  1
  H  H850  1  0.378200  0.029200  0.974300  1
  H  H851  1  0.378200  0.220800  0.275700  1
  H  H852  1  0.871800  0.029200  0.275700  1
  H  H853  1  0.871800  0.720800  0.474300  1
  H  H854  1  0.378200  0.529200  0.474300  1
  H  H855  1  0.378200  0.720800  0.775700  1
  H  H856  1  0.871800  0.529200  0.775700  1
  H  H857  1  0.371800  0.220800  0.474300  1
  H  H858  1  0.878200  0.029200  0.474300  1
  H  H859  1  0.878200  0.220800  0.775700  1
  H  H860  1  0.371800  0.029200  0.775700  1
  H  H861  1  0.371800  0.720800  0.974300  1
  H  H862  1  0.878200  0.529200  0.974300  1
  H  H863  1  0.878200  0.720800  0.275700  1
  H  H864  1  0.371800  0.529200  0.275700  1
  H  H865  1  0.046600  0.810800  0.049800  1
  H  H866  1  0.703400  0.939200  0.049800  1
  H  H867  1  0.703400  0.810800  0.700200  1
  H  H868  1  0.046600  0.939200  0.700200  1
  H  H869  1  0.046600  0.310800  0.549800  1
  H  H870  1  0.703400  0.439200  0.549800  1
  H  H871  1  0.703400  0.310800  0.200200  1
  H  H872  1  0.046600  0.439200  0.200200  1
  H  H873  1  0.546600  0.810800  0.549800  1
  H  H874  1  0.203400  0.939200  0.549800  1
  H  H875  1  0.203400  0.810800  0.200200  1
  H  H876  1  0.546600  0.939200  0.200200  1
  H  H877  1  0.546600  0.310800  0.049800  1
  H  H878  1  0.203400  0.439200  0.049800  1
  H  H879  1  0.203400  0.310800  0.700200  1
  H  H880  1  0.546600  0.439200  0.700200  1
  H  H881  1  0.953400  0.189200  0.950200  1
  H  H882  1  0.296600  0.060800  0.950200  1
  H  H883  1  0.296600  0.189200  0.299800  1
  H  H884  1  0.953400  0.060800  0.299800  1
  H  H885  1  0.953400  0.689200  0.450200  1
  H  H886  1  0.296600  0.560800  0.450200  1
  H  H887  1  0.296600  0.689200  0.799800  1
  H  H888  1  0.953400  0.560800  0.799800  1
  H  H889  1  0.453400  0.189200  0.450200  1
  H  H890  1  0.796600  0.060800  0.450200  1
  H  H891  1  0.796600  0.189200  0.799800  1
  H  H892  1  0.453400  0.060800  0.799800  1
  H  H893  1  0.453400  0.689200  0.950200  1
  H  H894  1  0.796600  0.560800  0.950200  1
  H  H895  1  0.796600  0.689200  0.299800  1
  H  H896  1  0.453400  0.560800  0.299800  1
  H  H897  1  0.007300  0.815000  0.036100  1
  H  H898  1  0.742700  0.935000  0.036100  1
  H  H899  1  0.742700  0.815000  0.713900  1
  H  H900  1  0.007300  0.935000  0.713900  1
  H  H901  1  0.007300  0.315000  0.536100  1
  H  H902  1  0.742700  0.435000  0.536100  1
  H  H903  1  0.742700  0.315000  0.213900  1
  H  H904  1  0.007300  0.435000  0.213900  1
  H  H905  1  0.507300  0.815000  0.536100  1
  H  H906  1  0.242700  0.935000  0.536100  1
  H  H907  1  0.242700  0.815000  0.213900  1
  H  H908  1  0.507300  0.935000  0.213900  1
  H  H909  1  0.507300  0.315000  0.036100  1
  H  H910  1  0.242700  0.435000  0.036100  1
  H  H911  1  0.242700  0.315000  0.713900  1
  H  H912  1  0.507300  0.435000  0.713900  1
  H  H913  1  0.992700  0.185000  0.963900  1
  H  H914  1  0.257300  0.065000  0.963900  1
  H  H915  1  0.257300  0.185000  0.286100  1
  H  H916  1  0.992700  0.065000  0.286100  1
  H  H917  1  0.992700  0.685000  0.463900  1
  H  H918  1  0.257300  0.565000  0.463900  1
  H  H919  1  0.257300  0.685000  0.786100  1
  H  H920  1  0.992700  0.565000  0.786100  1
  H  H921  1  0.492700  0.185000  0.463900  1
  H  H922  1  0.757300  0.065000  0.463900  1
  H  H923  1  0.757300  0.185000  0.786100  1
  H  H924  1  0.492700  0.065000  0.786100  1
  H  H925  1  0.492700  0.685000  0.963900  1
  H  H926  1  0.757300  0.565000  0.963900  1
  H  H927  1  0.757300  0.685000  0.286100  1
  H  H928  1  0.492700  0.565000  0.286100  1
  H  H929  1  0.057800  0.827300  0.035000  1
  H  H930  1  0.692200  0.922700  0.035000  1
  H  H931  1  0.692200  0.827300  0.715000  1
  H  H932  1  0.057800  0.922700  0.715000  1
  H  H933  1  0.057800  0.327300  0.535000  1
  H  H934  1  0.692200  0.422700  0.535000  1
  H  H935  1  0.692200  0.327300  0.215000  1
  H  H936  1  0.057800  0.422700  0.215000  1
  H  H937  1  0.557800  0.827300  0.535000  1
  H  H938  1  0.192200  0.922700  0.535000  1
  H  H939  1  0.192200  0.827300  0.215000  1
  H  H940  1  0.557800  0.922700  0.215000  1
  H  H941  1  0.557800  0.327300  0.035000  1
  H  H942  1  0.192200  0.422700  0.035000  1
  H  H943  1  0.192200  0.327300  0.715000  1
  H  H944  1  0.557800  0.422700  0.715000  1
  H  H945  1  0.942200  0.172700  0.965000  1
  H  H946  1  0.307800  0.077300  0.965000  1
  H  H947  1  0.307800  0.172700  0.285000  1
  H  H948  1  0.942200  0.077300  0.285000  1
  H  H949  1  0.942200  0.672700  0.465000  1
  H  H950  1  0.307800  0.577300  0.465000  1
  H  H951  1  0.307800  0.672700  0.785000  1
  H  H952  1  0.942200  0.577300  0.785000  1
  H  H953  1  0.442200  0.172700  0.465000  1
  H  H954  1  0.807800  0.077300  0.465000  1
  H  H955  1  0.807800  0.172700  0.785000  1
  H  H956  1  0.442200  0.077300  0.785000  1
  H  H957  1  0.442200  0.672700  0.965000  1
  H  H958  1  0.807800  0.577300  0.965000  1
  H  H959  1  0.807800  0.672700  0.285000  1
  H  H960  1  0.442200  0.577300  0.285000  1
  H  H961  1  0.042500  0.769900  0.045600  1
  H  H962  1  0.707500  0.980100  0.045600  1
  H  H963  1  0.707500  0.769900  0.704400  1
  H  H964  1  0.042500  0.980100  0.704400  1
  H  H965  1  0.042500  0.269900  0.545600  1
  H  H966  1  0.707500  0.480100  0.545600  1
  H  H967  1  0.707500  0.269900  0.204400  1
  H  H968  1  0.042500  0.480100  0.204400  1
  H  H969  1  0.542500  0.769900  0.545600  1
  H  H970  1  0.207500  0.980100  0.545600  1
  H  H971  1  0.207500  0.769900  0.204400  1
  H  H972  1  0.542500  0.980100  0.204400  1
  H  H973  1  0.542500  0.269900  0.045600  1
  H  H974  1  0.207500  0.480100  0.045600  1
  H  H975  1  0.207500  0.269900  0.704400  1
  H  H976  1  0.542500  0.480100  0.704400  1
  H  H977  1  0.957500  0.230100  0.954400  1
  H  H978  1  0.292500  0.019900  0.954400  1
  H  H979  1  0.292500  0.230100  0.295600  1
  H  H980  1  0.957500  0.019900  0.295600  1
  H  H981  1  0.957500  0.730100  0.454400  1
  H  H982  1  0.292500  0.519900  0.454400  1
  H  H983  1  0.292500  0.730100  0.795600  1
  H  H984  1  0.957500  0.519900  0.795600  1
  H  H985  1  0.457500  0.230100  0.454400  1
  H  H986  1  0.792500  0.019900  0.454400  1
  H  H987  1  0.792500  0.230100  0.795600  1
  H  H988  1  0.457500  0.019900  0.795600  1
  H  H989  1  0.457500  0.730100  0.954400  1
  H  H990  1  0.792500  0.519900  0.954400  1
  H  H991  1  0.792500  0.730100  0.295600  1
  H  H992  1  0.457500  0.519900  0.295600  1
  H  H993  1  0.049200  0.759500  0.027900  1
  H  H994  1  0.700800  0.990500  0.027900  1
  H  H995  1  0.700800  0.759500  0.722100  1
  H  H996  1  0.049200  0.990500  0.722100  1
  H  H997  1  0.049200  0.259500  0.527900  1
  H  H998  1  0.700800  0.490500  0.527900  1
  H  H999  1  0.700800  0.259500  0.222100  1
  H  H1000  1  0.049200  0.490500  0.222100  1
  H  H1001  1  0.549200  0.759500  0.527900  1
  H  H1002  1  0.200800  0.990500  0.527900  1
  H  H1003  1  0.200800  0.759500  0.222100  1
  H  H1004  1  0.549200  0.990500  0.222100  1
  H  H1005  1  0.549200  0.259500  0.027900  1
  H  H1006  1  0.200800  0.490500  0.027900  1
  H  H1007  1  0.200800  0.259500  0.722100  1
  H  H1008  1  0.549200  0.490500  0.722100  1
  H  H1009  1  0.950800  0.240500  0.972100  1
  H  H1010  1  0.299200  0.009500  0.972100  1
  H  H1011  1  0.299200  0.240500  0.277900  1
  H  H1012  1  0.950800  0.009500  0.277900  1
  H  H1013  1  0.950800  0.740500  0.472100  1
  H  H1014  1  0.299200  0.509500  0.472100  1
  H  H1015  1  0.299200  0.740500  0.777900  1
  H  H1016  1  0.950800  0.509500  0.777900  1
  H  H1017  1  0.450800  0.240500  0.472100  1
  H  H1018  1  0.799200  0.009500  0.472100  1
  H  H1019  1  0.799200  0.240500  0.777900  1
  H  H1020  1  0.450800  0.009500  0.777900  1
  H  H1021  1  0.450800  0.740500  0.972100  1
  H  H1022  1  0.799200  0.509500  0.972100  1
  H  H1023  1  0.799200  0.740500  0.277900  1
  H  H1024  1  0.450800  0.509500  0.277900  1
  H  H1025  1  0.002300  0.773500  0.032100  1
  H  H1026  1  0.747700  0.976500  0.032100  1
  H  H1027  1  0.747700  0.773500  0.717900  1
  H  H1028  1  0.002300  0.976500  0.717900  1
  H  H1029  1  0.002300  0.273500  0.532100  1
  H  H1030  1  0.747700  0.476500  0.532100  1
  H  H1031  1  0.747700  0.273500  0.217900  1
  H  H1032  1  0.002300  0.476500  0.217900  1
  H  H1033  1  0.502300  0.773500  0.532100  1
  H  H1034  1  0.247700  0.976500  0.532100  1
  H  H1035  1  0.247700  0.773500  0.217900  1
  H  H1036  1  0.502300  0.976500  0.217900  1
  H  H1037  1  0.502300  0.273500  0.032100  1
  H  H1038  1  0.247700  0.476500  0.032100  1
  H  H1039  1  0.247700  0.273500  0.717900  1
  H  H1040  1  0.502300  0.476500  0.717900  1
  H  H1041  1  0.997700  0.226500  0.967900  1
  H  H1042  1  0.252300  0.023500  0.967900  1
  H  H1043  1  0.252300  0.226500  0.282100  1
  H  H1044  1  0.997700  0.023500  0.282100  1
  H  H1045  1  0.997700  0.726500  0.467900  1
  H  H1046  1  0.252300  0.523500  0.467900  1
  H  H1047  1  0.252300  0.726500  0.782100  1
  H  H1048  1  0.997700  0.523500  0.782100  1
  H  H1049  1  0.497700  0.226500  0.467900  1
  H  H1050  1  0.752300  0.023500  0.467900  1
  H  H1051  1  0.752300  0.226500  0.782100  1
  H  H1052  1  0.497700  0.023500  0.782100  1
  H  H1053  1  0.497700  0.726500  0.967900  1
  H  H1054  1  0.752300  0.523500  0.967900  1
  H  H1055  1  0.752300  0.726500  0.282100  1
  H  H1056  1  0.497700  0.523500  0.282100  1
  H  H1057  1  0.265200  0.805300  0.955700  1.0
  H  H1058  1  0.484800  0.944700  0.955700  1.0
  H  H1059  1  0.484800  0.805300  0.794300  1.0
  H  H1060  1  0.265200  0.944700  0.794300  1.0
  H  H1061  1  0.265200  0.305300  0.455700  1.0
  H  H1062  1  0.484800  0.444700  0.455700  1.0
  H  H1063  1  0.484800  0.305300  0.294300  1.0
  H  H1064  1  0.265200  0.444700  0.294300  1.0
  H  H1065  1  0.765200  0.805300  0.455700  1.0
  H  H1066  1  0.984800  0.944700  0.455700  1.0
  H  H1067  1  0.984800  0.805300  0.294300  1.0
  H  H1068  1  0.765200  0.944700  0.294300  1.0
  H  H1069  1  0.765200  0.305300  0.955700  1.0
  H  H1070  1  0.984800  0.444700  0.955700  1.0
  H  H1071  1  0.984800  0.305300  0.794300  1.0
  H  H1072  1  0.765200  0.444700  0.794300  1.0
  H  H1073  1  0.734800  0.194700  0.044300  1.0
  H  H1074  1  0.515200  0.055300  0.044300  1.0
  H  H1075  1  0.515200  0.194700  0.205700  1.0
  H  H1076  1  0.734800  0.055300  0.205700  1.0
  H  H1077  1  0.734800  0.694700  0.544300  1.0
  H  H1078  1  0.515200  0.555300  0.544300  1.0
  H  H1079  1  0.515200  0.694700  0.705700  1.0
  H  H1080  1  0.734800  0.555300  0.705700  1.0
  H  H1081  1  0.234800  0.194700  0.544300  1.0
  H  H1082  1  0.015200  0.055300  0.544300  1.0
  H  H1083  1  0.015200  0.194700  0.705700  1.0
  H  H1084  1  0.234800  0.055300  0.705700  1.0
  H  H1085  1  0.234800  0.694700  0.044300  1.0
  H  H1086  1  0.015200  0.555300  0.044300  1.0
  H  H1087  1  0.015200  0.694700  0.205700  1.0
  H  H1088  1  0.234800  0.555300  0.205700  1.0
  H  H1089  1  0.260400  0.754600  0.922900  1.0
  H  H1090  1  0.489600  0.995400  0.922900  1.0
  H  H1091  1  0.489600  0.754600  0.827100  1.0
  H  H1092  1  0.260400  0.995400  0.827100  1.0
  H  H1093  1  0.260400  0.254600  0.422900  1.0
  H  H1094  1  0.489600  0.495400  0.422900  1.0
  H  H1095  1  0.489600  0.254600  0.327100  1.0
  H  H1096  1  0.260400  0.495400  0.327100  1.0
  H  H1097  1  0.760400  0.754600  0.422900  1.0
  H  H1098  1  0.989600  0.995400  0.422900  1.0
  H  H1099  1  0.989600  0.754600  0.327100  1.0
  H  H1100  1  0.760400  0.995400  0.327100  1.0
  H  H1101  1  0.760400  0.254600  0.922900  1.0
  H  H1102  1  0.989600  0.495400  0.922900  1.0
  H  H1103  1  0.989600  0.254600  0.827100  1.0
  H  H1104  1  0.760400  0.495400  0.827100  1.0
  H  H1105  1  0.739600  0.245400  0.077100  1.0
  H  H1106  1  0.510400  0.004600  0.077100  1.0
  H  H1107  1  0.510400  0.245400  0.172900  1.0
  H  H1108  1  0.739600  0.004600  0.172900  1.0
  H  H1109  1  0.739600  0.745400  0.577100  1.0
  H  H1110  1  0.510400  0.504600  0.577100  1.0
  H  H1111  1  0.510400  0.745400  0.672900  1.0
  H  H1112  1  0.739600  0.504600  0.672900  1.0
  H  H1113  1  0.239600  0.245400  0.577100  1.0
  H  H1114  1  0.010400  0.004600  0.577100  1.0
  H  H1115  1  0.010400  0.245400  0.672900  1.0
  H  H1116  1  0.239600  0.004600  0.672900  1.0
  H  H1117  1  0.239600  0.745400  0.077100  1.0
  H  H1118  1  0.010400  0.504600  0.077100  1.0
  H  H1119  1  0.010400  0.745400  0.172900  1.0
  H  H1120  1  0.239600  0.504600  0.172900  1.0
  H  H1121  1  0.162600  0.804500  0.921000  1.0
  H  H1122  1  0.587400  0.945500  0.921000  1.0
  H  H1123  1  0.587400  0.804500  0.829000  1.0
  H  H1124  1  0.162600  0.945500  0.829000  1.0
  H  H1125  1  0.162600  0.304500  0.421000  1.0
  H  H1126  1  0.587400  0.445500  0.421000  1.0
  H  H1127  1  0.587400  0.304500  0.329000  1.0
  H  H1128  1  0.162600  0.445500  0.329000  1.0
  H  H1129  1  0.662600  0.804500  0.421000  1.0
  H  H1130  1  0.087400  0.945500  0.421000  1.0
  H  H1131  1  0.087400  0.804500  0.329000  1.0
  H  H1132  1  0.662600  0.945500  0.329000  1.0
  H  H1133  1  0.662600  0.304500  0.921000  1.0
  H  H1134  1  0.087400  0.445500  0.921000  1.0
  H  H1135  1  0.087400  0.304500  0.829000  1.0
  H  H1136  1  0.662600  0.445500  0.829000  1.0
  H  H1137  1  0.837400  0.195500  0.079000  1.0
  H  H1138  1  0.412600  0.054500  0.079000  1.0
  H  H1139  1  0.412600  0.195500  0.171000  1.0
  H  H1140  1  0.837400  0.054500  0.171000  1.0
  H  H1141  1  0.837400  0.695500  0.579000  1.0
  H  H1142  1  0.412600  0.554500  0.579000  1.0
  H  H1143  1  0.412600  0.695500  0.671000  1.0
  H  H1144  1  0.837400  0.554500  0.671000  1.0
  H  H1145  1  0.337400  0.195500  0.579000  1.0
  H  H1146  1  0.912600  0.054500  0.579000  1.0
  H  H1147  1  0.912600  0.195500  0.671000  1.0
  H  H1148  1  0.337400  0.054500  0.671000  1.0
  H  H1149  1  0.337400  0.695500  0.079000  1.0
  H  H1150  1  0.912600  0.554500  0.079000  1.0
  H  H1151  1  0.912600  0.695500  0.171000  1.0
  H  H1152  1  0.337400  0.554500  0.171000  1.0
  H  H1153  1  0.325600  0.753100  0.971400  1.0
  H  H1154  1  0.424400  0.996900  0.971400  1.0
  H  H1155  1  0.424400  0.753100  0.778600  1.0
  H  H1156  1  0.325600  0.996900  0.778600  1.0
  H  H1157  1  0.325600  0.253100  0.471400  1.0
  H  H1158  1  0.424400  0.496900  0.471400  1.0
  H  H1159  1  0.424400  0.253100  0.278600  1.0
  H  H1160  1  0.325600  0.496900  0.278600  1.0
  H  H1161  1  0.825600  0.753100  0.471400  1.0
  H  H1162  1  0.924400  0.996900  0.471400  1.0
  H  H1163  1  0.924400  0.753100  0.278600  1.0
  H  H1164  1  0.825600  0.996900  0.278600  1.0
  H  H1165  1  0.825600  0.253100  0.971400  1.0
  H  H1166  1  0.924400  0.496900  0.971400  1.0
  H  H1167  1  0.924400  0.253100  0.778600  1.0
  H  H1168  1  0.825600  0.496900  0.778600  1.0
  H  H1169  1  0.674400  0.246900  0.028600  1.0
  H  H1170  1  0.575600  0.003100  0.028600  1.0
  H  H1171  1  0.575600  0.246900  0.221400  1.0
  H  H1172  1  0.674400  0.003100  0.221400  1.0
  H  H1173  1  0.674400  0.746900  0.528600  1.0
  H  H1174  1  0.575600  0.503100  0.528600  1.0
  H  H1175  1  0.575600  0.746900  0.721400  1.0
  H  H1176  1  0.674400  0.503100  0.721400  1.0
  H  H1177  1  0.174400  0.246900  0.528600  1.0
  H  H1178  1  0.075600  0.003100  0.528600  1.0
  H  H1179  1  0.075600  0.246900  0.721400  1.0
  H  H1180  1  0.174400  0.003100  0.721400  1.0
  H  H1181  1  0.174400  0.746900  0.028600  1.0
  H  H1182  1  0.075600  0.503100  0.028600  1.0
  H  H1183  1  0.075600  0.746900  0.221400  1.0
  H  H1184  1  0.174400  0.503100  0.221400  1.0
  H  H1185  1  0.271900  0.749300  0.965600  1.0
  H  H1186  1  0.478100  0.000700  0.965600  1.0
  H  H1187  1  0.478100  0.749300  0.784400  1.0
  H  H1188  1  0.271900  0.000700  0.784400  1.0
  H  H1189  1  0.271900  0.249300  0.465600  1.0
  H  H1190  1  0.478100  0.500700  0.465600  1.0
  H  H1191  1  0.478100  0.249300  0.284400  1.0
  H  H1192  1  0.271900  0.500700  0.284400  1.0
  H  H1193  1  0.771900  0.749300  0.465600  1.0
  H  H1194  1  0.978100  0.000700  0.465600  1.0
  H  H1195  1  0.978100  0.749300  0.284400  1.0
  H  H1196  1  0.771900  0.000700  0.284400  1.0
  H  H1197  1  0.771900  0.249300  0.965600  1.0
  H  H1198  1  0.978100  0.500700  0.965600  1.0
  H  H1199  1  0.978100  0.249300  0.784400  1.0
  H  H1200  1  0.771900  0.500700  0.784400  1.0
  H  H1201  1  0.728100  0.250700  0.034400  1.0
  H  H1202  1  0.521900  0.999300  0.034400  1.0
  H  H1203  1  0.521900  0.250700  0.215600  1.0
  H  H1204  1  0.728100  0.999300  0.215600  1.0
  H  H1205  1  0.728100  0.750700  0.534400  1.0
  H  H1206  1  0.521900  0.499300  0.534400  1.0
  H  H1207  1  0.521900  0.750700  0.715600  1.0
  H  H1208  1  0.728100  0.499300  0.715600  1.0
  H  H1209  1  0.228100  0.250700  0.534400  1.0
  H  H1210  1  0.021900  0.999300  0.534400  1.0
  H  H1211  1  0.021900  0.250700  0.715600  1.0
  H  H1212  1  0.228100  0.999300  0.715600  1.0
  H  H1213  1  0.228100  0.750700  0.034400  1.0
  H  H1214  1  0.021900  0.499300  0.034400  1.0
  H  H1215  1  0.021900  0.750700  0.215600  1.0
  H  H1216  1  0.228100  0.499300  0.215600  1.0
  H  H1217  1  0.287900  0.773200  0.972500  1.0
  H  H1218  1  0.462100  0.976800  0.972500  1.0
  H  H1219  1  0.462100  0.773200  0.777500  1.0
  H  H1220  1  0.287900  0.976800  0.777500  1.0
  H  H1221  1  0.287900  0.273200  0.472500  1.0
  H  H1222  1  0.462100  0.476800  0.472500  1.0
  H  H1223  1  0.462100  0.273200  0.277500  1.0
  H  H1224  1  0.287900  0.476800  0.277500  1.0
  H  H1225  1  0.787900  0.773200  0.472500  1.0
  H  H1226  1  0.962100  0.976800  0.472500  1.0
  H  H1227  1  0.962100  0.773200  0.277500  1.0
  H  H1228  1  0.787900  0.976800  0.277500  1.0
  H  H1229  1  0.787900  0.273200  0.972500  1.0
  H  H1230  1  0.962100  0.476800  0.972500  1.0
  H  H1231  1  0.962100  0.273200  0.777500  1.0
  H  H1232  1  0.787900  0.476800  0.777500  1.0
  H  H1233  1  0.712100  0.226800  0.027500  1.0
  H  H1234  1  0.537900  0.023200  0.027500  1.0
  H  H1235  1  0.537900  0.226800  0.222500  1.0
  H  H1236  1  0.712100  0.023200  0.222500  1.0
  H  H1237  1  0.712100  0.726800  0.527500  1.0
  H  H1238  1  0.537900  0.523200  0.527500  1.0
  H  H1239  1  0.537900  0.726800  0.722500  1.0
  H  H1240  1  0.712100  0.523200  0.722500  1.0
  H  H1241  1  0.212100  0.226800  0.527500  1.0
  H  H1242  1  0.037900  0.023200  0.527500  1.0
  H  H1243  1  0.037900  0.226800  0.722500  1.0
  H  H1244  1  0.212100  0.023200  0.722500  1.0
  H  H1245  1  0.212100  0.726800  0.027500  1.0
  H  H1246  1  0.037900  0.523200  0.027500  1.0
  H  H1247  1  0.037900  0.726800  0.222500  1.0
  H  H1248  1  0.212100  0.523200  0.222500  1.0
  H  H1249  1  0.380400  0.776900  0.955400  1.0
  H  H1250  1  0.369600  0.973100  0.955400  1.0
  H  H1251  1  0.369600  0.776900  0.794600  1.0
  H  H1252  1  0.380400  0.973100  0.794600  1.0
  H  H1253  1  0.380400  0.276900  0.455400  1.0
  H  H1254  1  0.369600  0.473100  0.455400  1.0
  H  H1255  1  0.369600  0.276900  0.294600  1.0
  H  H1256  1  0.380400  0.473100  0.294600  1.0
  H  H1257  1  0.880400  0.776900  0.455400  1.0
  H  H1258  1  0.869600  0.973100  0.455400  1.0
  H  H1259  1  0.869600  0.776900  0.294600  1.0
  H  H1260  1  0.880400  0.973100  0.294600  1.0
  H  H1261  1  0.880400  0.276900  0.955400  1.0
  H  H1262  1  0.869600  0.473100  0.955400  1.0
  H  H1263  1  0.869600  0.276900  0.794600  1.0
  H  H1264  1  0.880400  0.473100  0.794600  1.0
  H  H1265  1  0.619600  0.223100  0.044600  1.0
  H  H1266  1  0.630400  0.026900  0.044600  1.0
  H  H1267  1  0.630400  0.223100  0.205400  1.0
  H  H1268  1  0.619600  0.026900  0.205400  1.0
  H  H1269  1  0.619600  0.723100  0.544600  1.0
  H  H1270  1  0.630400  0.526900  0.544600  1.0
  H  H1271  1  0.630400  0.723100  0.705400  1.0
  H  H1272  1  0.619600  0.526900  0.705400  1.0
  H  H1273  1  0.119600  0.223100  0.544600  1.0
  H  H1274  1  0.130400  0.026900  0.544600  1.0
  H  H1275  1  0.130400  0.223100  0.705400  1.0
  H  H1276  1  0.119600  0.026900  0.705400  1.0
  H  H1277  1  0.119600  0.723100  0.044600  1.0
  H  H1278  1  0.130400  0.526900  0.044600  1.0
  H  H1279  1  0.130400  0.723100  0.205400  1.0
  H  H1280  1  0.119600  0.526900  0.205400  1.0
  H  H1281  1  0.343300  0.797300  0.956500  1.0
  H  H1282  1  0.406700  0.952700  0.956500  1.0
  H  H1283  1  0.406700  0.797300  0.793500  1.0
  H  H1284  1  0.343300  0.952700  0.793500  1.0
  H  H1285  1  0.343300  0.297300  0.456500  1.0
  H  H1286  1  0.406700  0.452700  0.456500  1.0
  H  H1287  1  0.406700  0.297300  0.293500  1.0
  H  H1288  1  0.343300  0.452700  0.293500  1.0
  H  H1289  1  0.843300  0.797300  0.456500  1.0
  H  H1290  1  0.906700  0.952700  0.456500  1.0
  H  H1291  1  0.906700  0.797300  0.293500  1.0
  H  H1292  1  0.843300  0.952700  0.293500  1.0
  H  H1293  1  0.843300  0.297300  0.956500  1.0
  H  H1294  1  0.906700  0.452700  0.956500  1.0
  H  H1295  1  0.906700  0.297300  0.793500  1.0
  H  H1296  1  0.843300  0.452700  0.793500  1.0
  H  H1297  1  0.656700  0.202700  0.043500  1.0
  H  H1298  1  0.593300  0.047300  0.043500  1.0
  H  H1299  1  0.593300  0.202700  0.206500  1.0
  H  H1300  1  0.656700  0.047300  0.206500  1.0
  H  H1301  1  0.656700  0.702700  0.543500  1.0
  H  H1302  1  0.593300  0.547300  0.543500  1.0
  H  H1303  1  0.593300  0.702700  0.706500  1.0
  H  H1304  1  0.656700  0.547300  0.706500  1.0
  H  H1305  1  0.156700  0.202700  0.543500  1.0
  H  H1306  1  0.093300  0.047300  0.543500  1.0
  H  H1307  1  0.093300  0.202700  0.706500  1.0
  H  H1308  1  0.156700  0.047300  0.706500  1.0
  H  H1309  1  0.156700  0.702700  0.043500  1.0
  H  H1310  1  0.093300  0.547300  0.043500  1.0
  H  H1311  1  0.093300  0.702700  0.206500  1.0
  H  H1312  1  0.156700  0.547300  0.206500  1.0
  H  H1313  1  0.362500  0.789000  0.939200  1.0
  H  H1314  1  0.387500  0.961000  0.939200  1.0
  H  H1315  1  0.387500  0.789000  0.810800  1.0
  H  H1316  1  0.362500  0.961000  0.810800  1.0
  H  H1317  1  0.362500  0.289000  0.439200  1.0
  H  H1318  1  0.387500  0.461000  0.439200  1.0
  H  H1319  1  0.387500  0.289000  0.310800  1.0
  H  H1320  1  0.362500  0.461000  0.310800  1.0
  H  H1321  1  0.862500  0.789000  0.439200  1.0
  H  H1322  1  0.887500  0.961000  0.439200  1.0
  H  H1323  1  0.887500  0.789000  0.310800  1.0
  H  H1324  1  0.862500  0.961000  0.310800  1.0
  H  H1325  1  0.862500  0.289000  0.939200  1.0
  H  H1326  1  0.887500  0.461000  0.939200  1.0
  H  H1327  1  0.887500  0.289000  0.810800  1.0
  H  H1328  1  0.862500  0.461000  0.810800  1.0
  H  H1329  1  0.637500  0.211000  0.060800  1.0
  H  H1330  1  0.612500  0.039000  0.060800  1.0
  H  H1331  1  0.612500  0.211000  0.189200  1.0
  H  H1332  1  0.637500  0.039000  0.189200  1.0
  H  H1333  1  0.637500  0.711000  0.560800  1.0
  H  H1334  1  0.612500  0.539000  0.560800  1.0
  H  H1335  1  0.612500  0.711000  0.689200  1.0
  H  H1336  1  0.637500  0.539000  0.689200  1.0
  H  H1337  1  0.137500  0.211000  0.560800  1.0
  H  H1338  1  0.112500  0.039000  0.560800  1.0
  H  H1339  1  0.112500  0.211000  0.689200  1.0
  H  H1340  1  0.137500  0.039000  0.689200  1.0
  H  H1341  1  0.137500  0.711000  0.060800  1.0
  H  H1342  1  0.112500  0.539000  0.060800  1.0
  H  H1343  1  0.112500  0.711000  0.189200  1.0
  H  H1344  1  0.137500  0.539000  0.189200  1.0
  H  H1345  1  0.356000  0.740200  0.944900  1.0
  H  H1346  1  0.394000  0.009800  0.944900  1.0
  H  H1347  1  0.394000  0.740200  0.805100  1.0
  H  H1348  1  0.356000  0.009800  0.805100  1.0
  H  H1349  1  0.356000  0.240200  0.444900  1.0
  H  H1350  1  0.394000  0.509800  0.444900  1.0
  H  H1351  1  0.394000  0.240200  0.305100  1.0
  H  H1352  1  0.356000  0.509800  0.305100  1.0
  H  H1353  1  0.856000  0.740200  0.444900  1.0
  H  H1354  1  0.894000  0.009800  0.444900  1.0
  H  H1355  1  0.894000  0.740200  0.305100  1.0
  H  H1356  1  0.856000  0.009800  0.305100  1.0
  H  H1357  1  0.856000  0.240200  0.944900  1.0
  H  H1358  1  0.894000  0.509800  0.944900  1.0
  H  H1359  1  0.894000  0.240200  0.805100  1.0
  H  H1360  1  0.856000  0.509800  0.805100  1.0
  H  H1361  1  0.644000  0.259800  0.055100  1.0
  H  H1362  1  0.606000  0.990200  0.055100  1.0
  H  H1363  1  0.606000  0.259800  0.194900  1.0
  H  H1364  1  0.644000  0.990200  0.194900  1.0
  H  H1365  1  0.644000  0.759800  0.555100  1.0
  H  H1366  1  0.606000  0.490200  0.555100  1.0
  H  H1367  1  0.606000  0.759800  0.694900  1.0
  H  H1368  1  0.644000  0.490200  0.694900  1.0
  H  H1369  1  0.144000  0.259800  0.555100  1.0
  H  H1370  1  0.106000  0.990200  0.555100  1.0
  H  H1371  1  0.106000  0.259800  0.694900  1.0
  H  H1372  1  0.144000  0.990200  0.694900  1.0
  H  H1373  1  0.144000  0.759800  0.055100  1.0
  H  H1374  1  0.106000  0.490200  0.055100  1.0
  H  H1375  1  0.106000  0.759800  0.194900  1.0
  H  H1376  1  0.144000  0.490200  0.194900  1.0
  H  H1377  1  0.337700  0.751400  0.928400  1.0
  H  H1378  1  0.412300  0.998600  0.928400  1.0
  H  H1379  1  0.412300  0.751400  0.821600  1.0
  H  H1380  1  0.337700  0.998600  0.821600  1.0
  H  H1381  1  0.337700  0.251400  0.428400  1.0
  H  H1382  1  0.412300  0.498600  0.428400  1.0
  H  H1383  1  0.412300  0.251400  0.321600  1.0
  H  H1384  1  0.337700  0.498600  0.321600  1.0
  H  H1385  1  0.837700  0.751400  0.428400  1.0
  H  H1386  1  0.912300  0.998600  0.428400  1.0
  H  H1387  1  0.912300  0.751400  0.321600  1.0
  H  H1388  1  0.837700  0.998600  0.321600  1.0
  H  H1389  1  0.837700  0.251400  0.928400  1.0
  H  H1390  1  0.912300  0.498600  0.928400  1.0
  H  H1391  1  0.912300  0.251400  0.821600  1.0
  H  H1392  1  0.837700  0.498600  0.821600  1.0
  H  H1393  1  0.662300  0.248600  0.071600  1.0
  H  H1394  1  0.587700  0.001400  0.071600  1.0
  H  H1395  1  0.587700  0.248600  0.178400  1.0
  H  H1396  1  0.662300  0.001400  0.178400  1.0
  H  H1397  1  0.662300  0.748600  0.571600  1.0
  H  H1398  1  0.587700  0.501400  0.571600  1.0
  H  H1399  1  0.587700  0.748600  0.678400  1.0
  H  H1400  1  0.662300  0.501400  0.678400  1.0
  H  H1401  1  0.162300  0.248600  0.571600  1.0
  H  H1402  1  0.087700  0.001400  0.571600  1.0
  H  H1403  1  0.087700  0.248600  0.678400  1.0
  H  H1404  1  0.162300  0.001400  0.678400  1.0
  H  H1405  1  0.162300  0.748600  0.071600  1.0
  H  H1406  1  0.087700  0.501400  0.071600  1.0
  H  H1407  1  0.087700  0.748600  0.178400  1.0
  H  H1408  1  0.162300  0.501400  0.178400  1.0
  H  H1409  1  0.302700  0.735900  0.938800  1.0
  H  H1410  1  0.447300  0.014100  0.938800  1.0
  H  H1411  1  0.447300  0.735900  0.811200  1.0
  H  H1412  1  0.302700  0.014100  0.811200  1.0
  H  H1413  1  0.302700  0.235900  0.438800  1.0
  H  H1414  1  0.447300  0.514100  0.438800  1.0
  H  H1415  1  0.447300  0.235900  0.311200  1.0
  H  H1416  1  0.302700  0.514100  0.311200  1.0
  H  H1417  1  0.802700  0.735900  0.438800  1.0
  H  H1418  1  0.947300  0.014100  0.438800  1.0
  H  H1419  1  0.947300  0.735900  0.311200  1.0
  H  H1420  1  0.802700  0.014100  0.311200  1.0
  H  H1421  1  0.802700  0.235900  0.938800  1.0
  H  H1422  1  0.947300  0.514100  0.938800  1.0
  H  H1423  1  0.947300  0.235900  0.811200  1.0
  H  H1424  1  0.802700  0.514100  0.811200  1.0
  H  H1425  1  0.697300  0.264100  0.061200  1.0
  H  H1426  1  0.552700  0.985900  0.061200  1.0
  H  H1427  1  0.552700  0.264100  0.188800  1.0
  H  H1428  1  0.697300  0.985900  0.188800  1.0
  H  H1429  1  0.697300  0.764100  0.561200  1.0
  H  H1430  1  0.552700  0.485900  0.561200  1.0
  H  H1431  1  0.552700  0.764100  0.688800  1.0
  H  H1432  1  0.697300  0.485900  0.688800  1.0
  H  H1433  1  0.197300  0.264100  0.561200  1.0
  H  H1434  1  0.052700  0.985900  0.561200  1.0
  H  H1435  1  0.052700  0.264100  0.688800  1.0
  H  H1436  1  0.197300  0.985900  0.688800  1.0
  H  H1437  1  0.197300  0.764100  0.061200  1.0
  H  H1438  1  0.052700  0.485900  0.061200  1.0
  H  H1439  1  0.052700  0.764100  0.188800  1.0
  H  H1440  1  0.197300  0.485900  0.188800  1.0
  H  H1441  1  0.108500  0.687600  0.920900  1.0
  H  H1442  1  0.641500  0.062400  0.920900  1.0
  H  H1443  1  0.641500  0.687600  0.829100  1.0
  H  H1444  1  0.108500  0.062400  0.829100  1.0
  H  H1445  1  0.108500  0.187600  0.420900  1.0
  H  H1446  1  0.641500  0.562400  0.420900  1.0
  H  H1447  1  0.641500  0.187600  0.329100  1.0
  H  H1448  1  0.108500  0.562400  0.329100  1.0
  H  H1449  1  0.608500  0.687600  0.420900  1.0
  H  H1450  1  0.141500  0.062400  0.420900  1.0
  H  H1451  1  0.141500  0.687600  0.329100  1.0
  H  H1452  1  0.608500  0.062400  0.329100  1.0
  H  H1453  1  0.608500  0.187600  0.920900  1.0
  H  H1454  1  0.141500  0.562400  0.920900  1.0
  H  H1455  1  0.141500  0.187600  0.829100  1.0
  H  H1456  1  0.608500  0.562400  0.829100  1.0
  H  H1457  1  0.891500  0.312400  0.079100  1.0
  H  H1458  1  0.358500  0.937600  0.079100  1.0
  H  H1459  1  0.358500  0.312400  0.170900  1.0
  H  H1460  1  0.891500  0.937600  0.170900  1.0
  H  H1461  1  0.891500  0.812400  0.579100  1.0
  H  H1462  1  0.358500  0.437600  0.579100  1.0
  H  H1463  1  0.358500  0.812400  0.670900  1.0
  H  H1464  1  0.891500  0.437600  0.670900  1.0
  H  H1465  1  0.391500  0.312400  0.579100  1.0
  H  H1466  1  0.858500  0.937600  0.579100  1.0
  H  H1467  1  0.858500  0.312400  0.670900  1.0
  H  H1468  1  0.391500  0.937600  0.670900  1.0
  H  H1469  1  0.391500  0.812400  0.079100  1.0
  H  H1470  1  0.858500  0.437600  0.079100  1.0
  H  H1471  1  0.858500  0.812400  0.170900  1.0
  H  H1472  1  0.391500  0.437600  0.170900  1.0
  H  H1473  1  0.009500  0.692000  0.956600  1.0
  H  H1474  1  0.740500  0.058000  0.956600  1.0
  H  H1475  1  0.740500  0.692000  0.793400  1.0
  H  H1476  1  0.009500  0.058000  0.793400  1.0
  H  H1477  1  0.009500  0.192000  0.456600  1.0
  H  H1478  1  0.740500  0.558000  0.456600  1.0
  H  H1479  1  0.740500  0.192000  0.293400  1.0
  H  H1480  1  0.009500  0.558000  0.293400  1.0
  H  H1481  1  0.509500  0.692000  0.456600  1.0
  H  H1482  1  0.240500  0.058000  0.456600  1.0
  H  H1483  1  0.240500  0.692000  0.293400  1.0
  H  H1484  1  0.509500  0.058000  0.293400  1.0
  H  H1485  1  0.509500  0.192000  0.956600  1.0
  H  H1486  1  0.240500  0.558000  0.956600  1.0
  H  H1487  1  0.240500  0.192000  0.793400  1.0
  H  H1488  1  0.509500  0.558000  0.793400  1.0
  H  H1489  1  0.990500  0.308000  0.043400  1.0
  H  H1490  1  0.259500  0.942000  0.043400  1.0
  H  H1491  1  0.259500  0.308000  0.206600  1.0
  H  H1492  1  0.990500  0.942000  0.206600  1.0
  H  H1493  1  0.990500  0.808000  0.543400  1.0
  H  H1494  1  0.259500  0.442000  0.543400  1.0
  H  H1495  1  0.259500  0.808000  0.706600  1.0
  H  H1496  1  0.990500  0.442000  0.706600  1.0
  H  H1497  1  0.490500  0.308000  0.543400  1.0
  H  H1498  1  0.759500  0.942000  0.543400  1.0
  H  H1499  1  0.759500  0.308000  0.706600  1.0
  H  H1500  1  0.490500  0.942000  0.706600  1.0
  H  H1501  1  0.490500  0.808000  0.043400  1.0
  H  H1502  1  0.759500  0.442000  0.043400  1.0
  H  H1503  1  0.759500  0.808000  0.206600  1.0
  H  H1504  1  0.490500  0.442000  0.206600  1.0
  H  H1505  1  0.021900  0.741800  0.923300  1.0
  H  H1506  1  0.728100  0.008200  0.923300  1.0
  H  H1507  1  0.728100  0.741800  0.826700  1.0
  H  H1508  1  0.021900  0.008200  0.826700  1.0
  H  H1509  1  0.021900  0.241800  0.423300  1.0
  H  H1510  1  0.728100  0.508200  0.423300  1.0
  H  H1511  1  0.728100  0.241800  0.326700  1.0
  H  H1512  1  0.021900  0.508200  0.326700  1.0
  H  H1513  1  0.521900  0.741800  0.423300  1.0
  H  H1514  1  0.228100  0.008200  0.423300  1.0
  H  H1515  1  0.228100  0.741800  0.326700  1.0
  H  H1516  1  0.521900  0.008200  0.326700  1.0
  H  H1517  1  0.521900  0.241800  0.923300  1.0
  H  H1518  1  0.228100  0.508200  0.923300  1.0
  H  H1519  1  0.228100  0.241800  0.826700  1.0
  H  H1520  1  0.521900  0.508200  0.826700  1.0
  H  H1521  1  0.978100  0.258200  0.076700  1.0
  H  H1522  1  0.271900  0.991800  0.076700  1.0
  H  H1523  1  0.271900  0.258200  0.173300  1.0
  H  H1524  1  0.978100  0.991800  0.173300  1.0
  H  H1525  1  0.978100  0.758200  0.576700  1.0
  H  H1526  1  0.271900  0.491800  0.576700  1.0
  H  H1527  1  0.271900  0.758200  0.673300  1.0
  H  H1528  1  0.978100  0.491800  0.673300  1.0
  H  H1529  1  0.478100  0.258200  0.576700  1.0
  H  H1530  1  0.771900  0.991800  0.576700  1.0
  H  H1531  1  0.771900  0.258200  0.673300  1.0
  H  H1532  1  0.478100  0.991800  0.673300  1.0
  H  H1533  1  0.478100  0.758200  0.076700  1.0
  H  H1534  1  0.771900  0.491800  0.076700  1.0
  H  H1535  1  0.771900  0.758200  0.173300  1.0
  H  H1536  1  0.478100  0.491800  0.173300  1.0
  H  H1537  1  0.138500  0.646200  0.950500  1.0
  H  H1538  1  0.611500  0.103800  0.950500  1.0
  H  H1539  1  0.611500  0.646200  0.799500  1.0
  H  H1540  1  0.138500  0.103800  0.799500  1.0
  H  H1541  1  0.138500  0.146200  0.450500  1.0
  H  H1542  1  0.611500  0.603800  0.450500  1.0
  H  H1543  1  0.611500  0.146200  0.299500  1.0
  H  H1544  1  0.138500  0.603800  0.299500  1.0
  H  H1545  1  0.638500  0.646200  0.450500  1.0
  H  H1546  1  0.111500  0.103800  0.450500  1.0
  H  H1547  1  0.111500  0.646200  0.299500  1.0
  H  H1548  1  0.638500  0.103800  0.299500  1.0
  H  H1549  1  0.638500  0.146200  0.950500  1.0
  H  H1550  1  0.111500  0.603800  0.950500  1.0
  H  H1551  1  0.111500  0.146200  0.799500  1.0
  H  H1552  1  0.638500  0.603800  0.799500  1.0
  H  H1553  1  0.861500  0.353800  0.049500  1.0
  H  H1554  1  0.388500  0.896200  0.049500  1.0
  H  H1555  1  0.388500  0.353800  0.200500  1.0
  H  H1556  1  0.861500  0.896200  0.200500  1.0
  H  H1557  1  0.861500  0.853800  0.549500  1.0
  H  H1558  1  0.388500  0.396200  0.549500  1.0
  H  H1559  1  0.388500  0.853800  0.700500  1.0
  H  H1560  1  0.861500  0.396200  0.700500  1.0
  H  H1561  1  0.361500  0.353800  0.549500  1.0
  H  H1562  1  0.888500  0.896200  0.549500  1.0
  H  H1563  1  0.888500  0.353800  0.700500  1.0
  H  H1564  1  0.361500  0.896200  0.700500  1.0
  H  H1565  1  0.361500  0.853800  0.049500  1.0
  H  H1566  1  0.888500  0.396200  0.049500  1.0
  H  H1567  1  0.888500  0.853800  0.200500  1.0
  H  H1568  1  0.361500  0.396200  0.200500  1.0
  H  H1569  1  0.142700  0.672500  0.954000  1.0
  H  H1570  1  0.607300  0.077500  0.954000  1.0
  H  H1571  1  0.607300  0.672500  0.796000  1.0
  H  H1572  1  0.142700  0.077500  0.796000  1.0
  H  H1573  1  0.142700  0.172500  0.454000  1.0
  H  H1574  1  0.607300  0.577500  0.454000  1.0
  H  H1575  1  0.607300  0.172500  0.296000  1.0
  H  H1576  1  0.142700  0.577500  0.296000  1.0
  H  H1577  1  0.642700  0.672500  0.454000  1.0
  H  H1578  1  0.107300  0.077500  0.454000  1.0
  H  H1579  1  0.107300  0.672500  0.296000  1.0
  H  H1580  1  0.642700  0.077500  0.296000  1.0
  H  H1581  1  0.642700  0.172500  0.954000  1.0
  H  H1582  1  0.107300  0.577500  0.954000  1.0
  H  H1583  1  0.107300  0.172500  0.796000  1.0
  H  H1584  1  0.642700  0.577500  0.796000  1.0
  H  H1585  1  0.857300  0.327500  0.046000  1.0
  H  H1586  1  0.392700  0.922500  0.046000  1.0
  H  H1587  1  0.392700  0.327500  0.204000  1.0
  H  H1588  1  0.857300  0.922500  0.204000  1.0
  H  H1589  1  0.857300  0.827500  0.546000  1.0
  H  H1590  1  0.392700  0.422500  0.546000  1.0
  H  H1591  1  0.392700  0.827500  0.704000  1.0
  H  H1592  1  0.857300  0.422500  0.704000  1.0
  H  H1593  1  0.357300  0.327500  0.546000  1.0
  H  H1594  1  0.892700  0.922500  0.546000  1.0
  H  H1595  1  0.892700  0.327500  0.704000  1.0
  H  H1596  1  0.357300  0.922500  0.704000  1.0
  H  H1597  1  0.357300  0.827500  0.046000  1.0
  H  H1598  1  0.892700  0.422500  0.046000  1.0
  H  H1599  1  0.892700  0.827500  0.204000  1.0
  H  H1600  1  0.357300  0.422500  0.204000  1.0
  H  H1601  1  0.143400  0.663400  0.935700  1.0
  H  H1602  1  0.606600  0.086600  0.935700  1.0
  H  H1603  1  0.606600  0.663400  0.814300  1.0
  H  H1604  1  0.143400  0.086600  0.814300  1.0
  H  H1605  1  0.143400  0.163400  0.435700  1.0
  H  H1606  1  0.606600  0.586600  0.435700  1.0
  H  H1607  1  0.606600  0.163400  0.314300  1.0
  H  H1608  1  0.143400  0.586600  0.314300  1.0
  H  H1609  1  0.643400  0.663400  0.435700  1.0
  H  H1610  1  0.106600  0.086600  0.435700  1.0
  H  H1611  1  0.106600  0.663400  0.314300  1.0
  H  H1612  1  0.643400  0.086600  0.314300  1.0
  H  H1613  1  0.643400  0.163400  0.935700  1.0
  H  H1614  1  0.106600  0.586600  0.935700  1.0
  H  H1615  1  0.106600  0.163400  0.814300  1.0
  H  H1616  1  0.643400  0.586600  0.814300  1.0
  H  H1617  1  0.856600  0.336600  0.064300  1.0
  H  H1618  1  0.393400  0.913400  0.064300  1.0
  H  H1619  1  0.393400  0.336600  0.185700  1.0
  H  H1620  1  0.856600  0.913400  0.185700  1.0
  H  H1621  1  0.856600  0.836600  0.564300  1.0
  H  H1622  1  0.393400  0.413400  0.564300  1.0
  H  H1623  1  0.393400  0.836600  0.685700  1.0
  H  H1624  1  0.856600  0.413400  0.685700  1.0
  H  H1625  1  0.356600  0.336600  0.564300  1.0
  H  H1626  1  0.893400  0.913400  0.564300  1.0
  H  H1627  1  0.893400  0.336600  0.685700  1.0
  H  H1628  1  0.356600  0.913400  0.685700  1.0
  H  H1629  1  0.356600  0.836600  0.064300  1.0
  H  H1630  1  0.893400  0.413400  0.064300  1.0
  H  H1631  1  0.893400  0.836600  0.185700  1.0
  H  H1632  1  0.356600  0.413400  0.185700  1.0
  H  H1633  1  0.064300  0.644100  0.966500  1.0
  H  H1634  1  0.685700  0.105900  0.966500  1.0
  H  H1635  1  0.685700  0.644100  0.783500  1.0
  H  H1636  1  0.064300  0.105900  0.783500  1.0
  H  H1637  1  0.064300  0.144100  0.466500  1.0
  H  H1638  1  0.685700  0.605900  0.466500  1.0
  H  H1639  1  0.685700  0.144100  0.283500  1.0
  H  H1640  1  0.064300  0.605900  0.283500  1.0
  H  H1641  1  0.564300  0.644100  0.466500  1.0
  H  H1642  1  0.185700  0.105900  0.466500  1.0
  H  H1643  1  0.185700  0.644100  0.283500  1.0
  H  H1644  1  0.564300  0.105900  0.283500  1.0
  H  H1645  1  0.564300  0.144100  0.966500  1.0
  H  H1646  1  0.185700  0.605900  0.966500  1.0
  H  H1647  1  0.185700  0.144100  0.783500  1.0
  H  H1648  1  0.564300  0.605900  0.783500  1.0
  H  H1649  1  0.935700  0.355900  0.033500  1.0
  H  H1650  1  0.314300  0.894100  0.033500  1.0
  H  H1651  1  0.314300  0.355900  0.216500  1.0
  H  H1652  1  0.935700  0.894100  0.216500  1.0
  H  H1653  1  0.935700  0.855900  0.533500  1.0
  H  H1654  1  0.314300  0.394100  0.533500  1.0
  H  H1655  1  0.314300  0.855900  0.716500  1.0
  H  H1656  1  0.935700  0.394100  0.716500  1.0
  H  H1657  1  0.435700  0.355900  0.533500  1.0
  H  H1658  1  0.814300  0.894100  0.533500  1.0
  H  H1659  1  0.814300  0.355900  0.716500  1.0
  H  H1660  1  0.435700  0.894100  0.716500  1.0
  H  H1661  1  0.435700  0.855900  0.033500  1.0
  H  H1662  1  0.814300  0.394100  0.033500  1.0
  H  H1663  1  0.814300  0.855900  0.216500  1.0
  H  H1664  1  0.435700  0.394100  0.216500  1.0
  H  H1665  1  0.020500  0.660300  0.962500  1.0
  H  H1666  1  0.729500  0.089700  0.962500  1.0
  H  H1667  1  0.729500  0.660300  0.787500  1.0
  H  H1668  1  0.020500  0.089700  0.787500  1.0
  H  H1669  1  0.020500  0.160300  0.462500  1.0
  H  H1670  1  0.729500  0.589700  0.462500  1.0
  H  H1671  1  0.729500  0.160300  0.287500  1.0
  H  H1672  1  0.020500  0.589700  0.287500  1.0
  H  H1673  1  0.520500  0.660300  0.462500  1.0
  H  H1674  1  0.229500  0.089700  0.462500  1.0
  H  H1675  1  0.229500  0.660300  0.287500  1.0
  H  H1676  1  0.520500  0.089700  0.287500  1.0
  H  H1677  1  0.520500  0.160300  0.962500  1.0
  H  H1678  1  0.229500  0.589700  0.962500  1.0
  H  H1679  1  0.229500  0.160300  0.787500  1.0
  H  H1680  1  0.520500  0.589700  0.787500  1.0
  H  H1681  1  0.979500  0.339700  0.037500  1.0
  H  H1682  1  0.270500  0.910300  0.037500  1.0
  H  H1683  1  0.270500  0.339700  0.212500  1.0
  H  H1684  1  0.979500  0.910300  0.212500  1.0
  H  H1685  1  0.979500  0.839700  0.537500  1.0
  H  H1686  1  0.270500  0.410300  0.537500  1.0
  H  H1687  1  0.270500  0.839700  0.712500  1.0
  H  H1688  1  0.979500  0.410300  0.712500  1.0
  H  H1689  1  0.479500  0.339700  0.537500  1.0
  H  H1690  1  0.770500  0.910300  0.537500  1.0
  H  H1691  1  0.770500  0.339700  0.712500  1.0
  H  H1692  1  0.479500  0.910300  0.712500  1.0
  H  H1693  1  0.479500  0.839700  0.037500  1.0
  H  H1694  1  0.770500  0.410300  0.037500  1.0
  H  H1695  1  0.770500  0.839700  0.212500  1.0
  H  H1696  1  0.479500  0.410300  0.212500  1.0
  H  H1697  1  0.068100  0.670300  0.970400  1.0
  H  H1698  1  0.681900  0.079700  0.970400  1.0
  H  H1699  1  0.681900  0.670300  0.779600  1.0
  H  H1700  1  0.068100  0.079700  0.779600  1.0
  H  H1701  1  0.068100  0.170300  0.470400  1.0
  H  H1702  1  0.681900  0.579700  0.470400  1.0
  H  H1703  1  0.681900  0.170300  0.279600  1.0
  H  H1704  1  0.068100  0.579700  0.279600  1.0
  H  H1705  1  0.568100  0.670300  0.470400  1.0
  H  H1706  1  0.181900  0.079700  0.470400  1.0
  H  H1707  1  0.181900  0.670300  0.279600  1.0
  H  H1708  1  0.568100  0.079700  0.279600  1.0
  H  H1709  1  0.568100  0.170300  0.970400  1.0
  H  H1710  1  0.181900  0.579700  0.970400  1.0
  H  H1711  1  0.181900  0.170300  0.779600  1.0
  H  H1712  1  0.568100  0.579700  0.779600  1.0
  H  H1713  1  0.931900  0.329700  0.029600  1.0
  H  H1714  1  0.318100  0.920300  0.029600  1.0
  H  H1715  1  0.318100  0.329700  0.220400  1.0
  H  H1716  1  0.931900  0.920300  0.220400  1.0
  H  H1717  1  0.931900  0.829700  0.529600  1.0
  H  H1718  1  0.318100  0.420300  0.529600  1.0
  H  H1719  1  0.318100  0.829700  0.720400  1.0
  H  H1720  1  0.931900  0.420300  0.720400  1.0
  H  H1721  1  0.431900  0.329700  0.529600  1.0
  H  H1722  1  0.818100  0.920300  0.529600  1.0
  H  H1723  1  0.818100  0.329700  0.720400  1.0
  H  H1724  1  0.431900  0.920300  0.720400  1.0
  H  H1725  1  0.431900  0.829700  0.029600  1.0
  H  H1726  1  0.818100  0.420300  0.029600  1.0
  H  H1727  1  0.818100  0.829700  0.220400  1.0
  H  H1728  1  0.431900  0.420300  0.220400  1.0
  H  H1729  1  0.065200  0.630200  0.938500  1.0
  H  H1730  1  0.684800  0.119800  0.938500  1.0
  H  H1731  1  0.684800  0.630200  0.811500  1.0
  H  H1732  1  0.065200  0.119800  0.811500  1.0
  H  H1733  1  0.065200  0.130200  0.438500  1.0
  H  H1734  1  0.684800  0.619800  0.438500  1.0
  H  H1735  1  0.684800  0.130200  0.311500  1.0
  H  H1736  1  0.065200  0.619800  0.311500  1.0
  H  H1737  1  0.565200  0.630200  0.438500  1.0
  H  H1738  1  0.184800  0.119800  0.438500  1.0
  H  H1739  1  0.184800  0.630200  0.311500  1.0
  H  H1740  1  0.565200  0.119800  0.311500  1.0
  H  H1741  1  0.565200  0.130200  0.938500  1.0
  H  H1742  1  0.184800  0.619800  0.938500  1.0
  H  H1743  1  0.184800  0.130200  0.811500  1.0
  H  H1744  1  0.565200  0.619800  0.811500  1.0
  H  H1745  1  0.934800  0.369800  0.061500  1.0
  H  H1746  1  0.315200  0.880200  0.061500  1.0
  H  H1747  1  0.315200  0.369800  0.188500  1.0
  H  H1748  1  0.934800  0.880200  0.188500  1.0
  H  H1749  1  0.934800  0.869800  0.561500  1.0
  H  H1750  1  0.315200  0.380200  0.561500  1.0
  H  H1751  1  0.315200  0.869800  0.688500  1.0
  H  H1752  1  0.934800  0.380200  0.688500  1.0
  H  H1753  1  0.434800  0.369800  0.561500  1.0
  H  H1754  1  0.815200  0.880200  0.561500  1.0
  H  H1755  1  0.815200  0.369800  0.688500  1.0
  H  H1756  1  0.434800  0.880200  0.688500  1.0
  H  H1757  1  0.434800  0.869800  0.061500  1.0
  H  H1758  1  0.815200  0.380200  0.061500  1.0
  H  H1759  1  0.815200  0.869800  0.188500  1.0
  H  H1760  1  0.434800  0.380200  0.188500  1.0
  H  H1761  1  0.069900  0.647200  0.923500  1.0
  H  H1762  1  0.680100  0.102800  0.923500  1.0
  H  H1763  1  0.680100  0.647200  0.826500  1.0
  H  H1764  1  0.069900  0.102800  0.826500  1.0
  H  H1765  1  0.069900  0.147200  0.423500  1.0
  H  H1766  1  0.680100  0.602800  0.423500  1.0
  H  H1767  1  0.680100  0.147200  0.326500  1.0
  H  H1768  1  0.069900  0.602800  0.326500  1.0
  H  H1769  1  0.569900  0.647200  0.423500  1.0
  H  H1770  1  0.180100  0.102800  0.423500  1.0
  H  H1771  1  0.180100  0.647200  0.326500  1.0
  H  H1772  1  0.569900  0.102800  0.326500  1.0
  H  H1773  1  0.569900  0.147200  0.923500  1.0
  H  H1774  1  0.180100  0.602800  0.923500  1.0
  H  H1775  1  0.180100  0.147200  0.826500  1.0
  H  H1776  1  0.569900  0.602800  0.826500  1.0
  H  H1777  1  0.930100  0.352800  0.076500  1.0
  H  H1778  1  0.319900  0.897200  0.076500  1.0
  H  H1779  1  0.319900  0.352800  0.173500  1.0
  H  H1780  1  0.930100  0.897200  0.173500  1.0
  H  H1781  1  0.930100  0.852800  0.576500  1.0
  H  H1782  1  0.319900  0.397200  0.576500  1.0
  H  H1783  1  0.319900  0.852800  0.673500  1.0
  H  H1784  1  0.930100  0.397200  0.673500  1.0
  H  H1785  1  0.430100  0.352800  0.576500  1.0
  H  H1786  1  0.819900  0.897200  0.576500  1.0
  H  H1787  1  0.819900  0.352800  0.673500  1.0
  H  H1788  1  0.430100  0.897200  0.673500  1.0
  H  H1789  1  0.430100  0.852800  0.076500  1.0
  H  H1790  1  0.819900  0.397200  0.076500  1.0
  H  H1791  1  0.819900  0.852800  0.173500  1.0
  H  H1792  1  0.430100  0.397200  0.173500  1.0
  H  H1793  1  0.021600  0.646200  0.933700  1.0
  H  H1794  1  0.728400  0.103800  0.933700  1.0
  H  H1795  1  0.728400  0.646200  0.816300  1.0
  H  H1796  1  0.021600  0.103800  0.816300  1.0
  H  H1797  1  0.021600  0.146200  0.433700  1.0
  H  H1798  1  0.728400  0.603800  0.433700  1.0
  H  H1799  1  0.728400  0.146200  0.316300  1.0
  H  H1800  1  0.021600  0.603800  0.316300  1.0
  H  H1801  1  0.521600  0.646200  0.433700  1.0
  H  H1802  1  0.228400  0.103800  0.433700  1.0
  H  H1803  1  0.228400  0.646200  0.316300  1.0
  H  H1804  1  0.521600  0.103800  0.316300  1.0
  H  H1805  1  0.521600  0.146200  0.933700  1.0
  H  H1806  1  0.228400  0.603800  0.933700  1.0
  H  H1807  1  0.228400  0.146200  0.816300  1.0
  H  H1808  1  0.521600  0.603800  0.816300  1.0
  H  H1809  1  0.978400  0.353800  0.066300  1.0
  H  H1810  1  0.271600  0.896200  0.066300  1.0
  H  H1811  1  0.271600  0.353800  0.183700  1.0
  H  H1812  1  0.978400  0.896200  0.183700  1.0
  H  H1813  1  0.978400  0.853800  0.566300  1.0
  H  H1814  1  0.271600  0.396200  0.566300  1.0
  H  H1815  1  0.271600  0.853800  0.683700  1.0
  H  H1816  1  0.978400  0.396200  0.683700  1.0
  H  H1817  1  0.478400  0.353800  0.566300  1.0
  H  H1818  1  0.771600  0.896200  0.566300  1.0
  H  H1819  1  0.771600  0.353800  0.683700  1.0
  H  H1820  1  0.478400  0.896200  0.683700  1.0
  H  H1821  1  0.478400  0.853800  0.066300  1.0
  H  H1822  1  0.771600  0.396200  0.066300  1.0
  H  H1823  1  0.771600  0.853800  0.183700  1.0
  H  H1824  1  0.478400  0.396200  0.183700  1.0
  H  H1825  1  0.998900  0.775000  0.008400  1.0
  H  H1826  1  0.751100  0.975000  0.008400  1.0
  H  H1827  1  0.751100  0.775000  0.741600  1.0
  H  H1828  1  0.998900  0.975000  0.741600  1.0
  H  H1829  1  0.998900  0.275000  0.508400  1.0
  H  H1830  1  0.751100  0.475000  0.508400  1.0
  H  H1831  1  0.751100  0.275000  0.241600  1.0
  H  H1832  1  0.998900  0.475000  0.241600  1.0
  H  H1833  1  0.498900  0.775000  0.508400  1.0
  H  H1834  1  0.251100  0.975000  0.508400  1.0
  H  H1835  1  0.251100  0.775000  0.241600  1.0
  H  H1836  1  0.498900  0.975000  0.241600  1.0
  H  H1837  1  0.498900  0.275000  0.008400  1.0
  H  H1838  1  0.251100  0.475000  0.008400  1.0
  H  H1839  1  0.251100  0.275000  0.741600  1.0
  H  H1840  1  0.498900  0.475000  0.741600  1.0
  H  H1841  1  0.001100  0.225000  0.991600  1.0
  H  H1842  1  0.248900  0.025000  0.991600  1.0
  H  H1843  1  0.248900  0.225000  0.258400  1.0
  H  H1844  1  0.001100  0.025000  0.258400  1.0
  H  H1845  1  0.001100  0.725000  0.491600  1.0
  H  H1846  1  0.248900  0.525000  0.491600  1.0
  H  H1847  1  0.248900  0.725000  0.758400  1.0
  H  H1848  1  0.001100  0.525000  0.758400  1.0
  H  H1849  1  0.501100  0.225000  0.491600  1.0
  H  H1850  1  0.748900  0.025000  0.491600  1.0
  H  H1851  1  0.748900  0.225000  0.758400  1.0
  H  H1852  1  0.501100  0.025000  0.758400  1.0
  H  H1853  1  0.501100  0.725000  0.991600  1.0
  H  H1854  1  0.748900  0.525000  0.991600  1.0
  H  H1855  1  0.748900  0.725000  0.258400  1.0
  H  H1856  1  0.501100  0.525000  0.258400  1.0
  H  H1857  1  0.104400  0.821300  0.006800  1.0
  H  H1858  1  0.645600  0.928700  0.006800  1.0
  H  H1859  1  0.645600  0.821300  0.743200  1.0
  H  H1860  1  0.104400  0.928700  0.743200  1.0
  H  H1861  1  0.104400  0.321300  0.506800  1.0
  H  H1862  1  0.645600  0.428700  0.506800  1.0
  H  H1863  1  0.645600  0.321300  0.243200  1.0
  H  H1864  1  0.104400  0.428700  0.243200  1.0
  H  H1865  1  0.604400  0.821300  0.506800  1.0
  H  H1866  1  0.145600  0.928700  0.506800  1.0
  H  H1867  1  0.145600  0.821300  0.243200  1.0
  H  H1868  1  0.604400  0.928700  0.243200  1.0
  H  H1869  1  0.604400  0.321300  0.006800  1.0
  H  H1870  1  0.145600  0.428700  0.006800  1.0
  H  H1871  1  0.145600  0.321300  0.743200  1.0
  H  H1872  1  0.604400  0.428700  0.743200  1.0
  H  H1873  1  0.895600  0.178700  0.993200  1.0
  H  H1874  1  0.354400  0.071300  0.993200  1.0
  H  H1875  1  0.354400  0.178700  0.256800  1.0
  H  H1876  1  0.895600  0.071300  0.256800  1.0
  H  H1877  1  0.895600  0.678700  0.493200  1.0
  H  H1878  1  0.354400  0.571300  0.493200  1.0
  H  H1879  1  0.354400  0.678700  0.756800  1.0
  H  H1880  1  0.895600  0.571300  0.756800  1.0
  H  H1881  1  0.395600  0.178700  0.493200  1.0
  H  H1882  1  0.854400  0.071300  0.493200  1.0
  H  H1883  1  0.854400  0.178700  0.756800  1.0
  H  H1884  1  0.395600  0.071300  0.756800  1.0
  H  H1885  1  0.395600  0.678700  0.993200  1.0
  H  H1886  1  0.854400  0.571300  0.993200  1.0
  H  H1887  1  0.854400  0.678700  0.256800  1.0
  H  H1888  1  0.395600  0.571300  0.256800  1.0
  H  H1889  1  0.026800  0.808000  0.966400  1.0
  H  H1890  1  0.723200  0.942000  0.966400  1.0
  H  H1891  1  0.723200  0.808000  0.783600  1.0
  H  H1892  1  0.026800  0.942000  0.783600  1.0
  H  H1893  1  0.026800  0.308000  0.466400  1.0
  H  H1894  1  0.723200  0.442000  0.466400  1.0
  H  H1895  1  0.723200  0.308000  0.283600  1.0
  H  H1896  1  0.026800  0.442000  0.283600  1.0
  H  H1897  1  0.526800  0.808000  0.466400  1.0
  H  H1898  1  0.223200  0.942000  0.466400  1.0
  H  H1899  1  0.223200  0.808000  0.283600  1.0
  H  H1900  1  0.526800  0.942000  0.283600  1.0
  H  H1901  1  0.526800  0.308000  0.966400  1.0
  H  H1902  1  0.223200  0.442000  0.966400  1.0
  H  H1903  1  0.223200  0.308000  0.783600  1.0
  H  H1904  1  0.526800  0.442000  0.783600  1.0
  H  H1905  1  0.973200  0.192000  0.033600  1.0
  H  H1906  1  0.276800  0.058000  0.033600  1.0
  H  H1907  1  0.276800  0.192000  0.216400  1.0
  H  H1908  1  0.973200  0.058000  0.216400  1.0
  H  H1909  1  0.973200  0.692000  0.533600  1.0
  H  H1910  1  0.276800  0.558000  0.533600  1.0
  H  H1911  1  0.276800  0.692000  0.716400  1.0
  H  H1912  1  0.973200  0.558000  0.716400  1.0
  H  H1913  1  0.473200  0.192000  0.533600  1.0
  H  H1914  1  0.776800  0.058000  0.533600  1.0
  H  H1915  1  0.776800  0.192000  0.716400  1.0
  H  H1916  1  0.473200  0.058000  0.716400  1.0
  H  H1917  1  0.473200  0.692000  0.033600  1.0
  H  H1918  1  0.776800  0.558000  0.033600  1.0
  H  H1919  1  0.776800  0.692000  0.216400  1.0
  H  H1920  1  0.473200  0.558000  0.216400  1.0
  H  H1921  1  0.112700  0.802400  0.045500  1.0
  H  H1922  1  0.637300  0.947600  0.045500  1.0
  H  H1923  1  0.637300  0.802400  0.704500  1.0
  H  H1924  1  0.112700  0.947600  0.704500  1.0
  H  H1925  1  0.112700  0.302400  0.545500  1.0
  H  H1926  1  0.637300  0.447600  0.545500  1.0
  H  H1927  1  0.637300  0.302400  0.204500  1.0
  H  H1928  1  0.112700  0.447600  0.204500  1.0
  H  H1929  1  0.612700  0.802400  0.545500  1.0
  H  H1930  1  0.137300  0.947600  0.545500  1.0
  H  H1931  1  0.137300  0.802400  0.204500  1.0
  H  H1932  1  0.612700  0.947600  0.204500  1.0
  H  H1933  1  0.612700  0.302400  0.045500  1.0
  H  H1934  1  0.137300  0.447600  0.045500  1.0
  H  H1935  1  0.137300  0.302400  0.704500  1.0
  H  H1936  1  0.612700  0.447600  0.704500  1.0
  H  H1937  1  0.887300  0.197600  0.954500  1.0
  H  H1938  1  0.362700  0.052400  0.954500  1.0
  H  H1939  1  0.362700  0.197600  0.295500  1.0
  H  H1940  1  0.887300  0.052400  0.295500  1.0
  H  H1941  1  0.887300  0.697600  0.454500  1.0
  H  H1942  1  0.362700  0.552400  0.454500  1.0
  H  H1943  1  0.362700  0.697600  0.795500  1.0
  H  H1944  1  0.887300  0.552400  0.795500  1.0
  H  H1945  1  0.387300  0.197600  0.454500  1.0
  H  H1946  1  0.862700  0.052400  0.454500  1.0
  H  H1947  1  0.862700  0.197600  0.795500  1.0
  H  H1948  1  0.387300  0.052400  0.795500  1.0
  H  H1949  1  0.387300  0.697600  0.954500  1.0
  H  H1950  1  0.862700  0.552400  0.954500  1.0
  H  H1951  1  0.862700  0.697600  0.295500  1.0
  H  H1952  1  0.387300  0.552400  0.295500  1.0
  H  H1953  1  0.104900  0.821500  0.032000  1.0
  H  H1954  1  0.645100  0.928500  0.032000  1.0
  H  H1955  1  0.645100  0.821500  0.718000  1.0
  H  H1956  1  0.104900  0.928500  0.718000  1.0
  H  H1957  1  0.104900  0.321500  0.532000  1.0
  H  H1958  1  0.645100  0.428500  0.532000  1.0
  H  H1959  1  0.645100  0.321500  0.218000  1.0
  H  H1960  1  0.104900  0.428500  0.218000  1.0
  H  H1961  1  0.604900  0.821500  0.532000  1.0
  H  H1962  1  0.145100  0.928500  0.532000  1.0
  H  H1963  1  0.145100  0.821500  0.218000  1.0
  H  H1964  1  0.604900  0.928500  0.218000  1.0
  H  H1965  1  0.604900  0.321500  0.032000  1.0
  H  H1966  1  0.145100  0.428500  0.032000  1.0
  H  H1967  1  0.145100  0.321500  0.718000  1.0
  H  H1968  1  0.604900  0.428500  0.718000  1.0
  H  H1969  1  0.895100  0.178500  0.968000  1.0
  H  H1970  1  0.354900  0.071500  0.968000  1.0
  H  H1971  1  0.354900  0.178500  0.282000  1.0
  H  H1972  1  0.895100  0.071500  0.282000  1.0
  H  H1973  1  0.895100  0.678500  0.468000  1.0
  H  H1974  1  0.354900  0.571500  0.468000  1.0
  H  H1975  1  0.354900  0.678500  0.782000  1.0
  H  H1976  1  0.895100  0.571500  0.782000  1.0
  H  H1977  1  0.395100  0.178500  0.468000  1.0
  H  H1978  1  0.854900  0.071500  0.468000  1.0
  H  H1979  1  0.854900  0.178500  0.782000  1.0
  H  H1980  1  0.395100  0.071500  0.782000  1.0
  H  H1981  1  0.395100  0.678500  0.968000  1.0
  H  H1982  1  0.854900  0.571500  0.968000  1.0
  H  H1983  1  0.854900  0.678500  0.282000  1.0
  H  H1984  1  0.395100  0.571500  0.282000  1.0
  H  H1985  1  0.134400  0.799400  0.027600  1.0
  H  H1986  1  0.615600  0.950600  0.027600  1.0
  H  H1987  1  0.615600  0.799400  0.722400  1.0
  H  H1988  1  0.134400  0.950600  0.722400  1.0
  H  H1989  1  0.134400  0.299400  0.527600  1.0
  H  H1990  1  0.615600  0.450600  0.527600  1.0
  H  H1991  1  0.615600  0.299400  0.222400  1.0
  H  H1992  1  0.134400  0.450600  0.222400  1.0
  H  H1993  1  0.634400  0.799400  0.527600  1.0
  H  H1994  1  0.115600  0.950600  0.527600  1.0
  H  H1995  1  0.115600  0.799400  0.222400  1.0
  H  H1996  1  0.634400  0.950600  0.222400  1.0
  H  H1997  1  0.634400  0.299400  0.027600  1.0
  H  H1998  1  0.115600  0.450600  0.027600  1.0
  H  H1999  1  0.115600  0.299400  0.722400  1.0
  H  H2000  1  0.634400  0.450600  0.722400  1.0
  H  H2001  1  0.865600  0.200600  0.972400  1.0
  H  H2002  1  0.384400  0.049400  0.972400  1.0
  H  H2003  1  0.384400  0.200600  0.277600  1.0
  H  H2004  1  0.865600  0.049400  0.277600  1.0
  H  H2005  1  0.865600  0.700600  0.472400  1.0
  H  H2006  1  0.384400  0.549400  0.472400  1.0
  H  H2007  1  0.384400  0.700600  0.777600  1.0
  H  H2008  1  0.865600  0.549400  0.777600  1.0
  H  H2009  1  0.365600  0.200600  0.472400  1.0
  H  H2010  1  0.884400  0.049400  0.472400  1.0
  H  H2011  1  0.884400  0.200600  0.777600  1.0
  H  H2012  1  0.365600  0.049400  0.777600  1.0
  H  H2013  1  0.365600  0.700600  0.972400  1.0
  H  H2014  1  0.884400  0.549400  0.972400  1.0
  H  H2015  1  0.884400  0.700600  0.277600  1.0
  H  H2016  1  0.365600  0.549400  0.277600  1.0
  H  H2017  1  0.025100  0.800500  0.049800  1.0
  H  H2018  1  0.724900  0.949500  0.049800  1.0
  H  H2019  1  0.724900  0.800500  0.700200  1.0
  H  H2020  1  0.025100  0.949500  0.700200  1.0
  H  H2021  1  0.025100  0.300500  0.549800  1.0
  H  H2022  1  0.724900  0.449500  0.549800  1.0
  H  H2023  1  0.724900  0.300500  0.200200  1.0
  H  H2024  1  0.025100  0.449500  0.200200  1.0
  H  H2025  1  0.525100  0.800500  0.549800  1.0
  H  H2026  1  0.224900  0.949500  0.549800  1.0
  H  H2027  1  0.224900  0.800500  0.200200  1.0
  H  H2028  1  0.525100  0.949500  0.200200  1.0
  H  H2029  1  0.525100  0.300500  0.049800  1.0
  H  H2030  1  0.224900  0.449500  0.049800  1.0
  H  H2031  1  0.224900  0.300500  0.700200  1.0
  H  H2032  1  0.525100  0.449500  0.700200  1.0
  H  H2033  1  0.974900  0.199500  0.950200  1.0
  H  H2034  1  0.275100  0.050500  0.950200  1.0
  H  H2035  1  0.275100  0.199500  0.299800  1.0
  H  H2036  1  0.974900  0.050500  0.299800  1.0
  H  H2037  1  0.974900  0.699500  0.450200  1.0
  H  H2038  1  0.275100  0.550500  0.450200  1.0
  H  H2039  1  0.275100  0.699500  0.799800  1.0
  H  H2040  1  0.974900  0.550500  0.799800  1.0
  H  H2041  1  0.474900  0.199500  0.450200  1.0
  H  H2042  1  0.775100  0.050500  0.450200  1.0
  H  H2043  1  0.775100  0.199500  0.799800  1.0
  H  H2044  1  0.474900  0.050500  0.799800  1.0
  H  H2045  1  0.474900  0.699500  0.950200  1.0
  H  H2046  1  0.775100  0.550500  0.950200  1.0
  H  H2047  1  0.775100  0.699500  0.299800  1.0
  H  H2048  1  0.474900  0.550500  0.299800  1.0
  H  H2049  1  0.990100  0.796200  0.034800  1.0
  H  H2050  1  0.759900  0.953800  0.034800  1.0
  H  H2051  1  0.759900  0.796200  0.715200  1.0
  H  H2052  1  0.990100  0.953800  0.715200  1.0
  H  H2053  1  0.990100  0.296200  0.534800  1.0
  H  H2054  1  0.759900  0.453800  0.534800  1.0
  H  H2055  1  0.759900  0.296200  0.215200  1.0
  H  H2056  1  0.990100  0.453800  0.215200  1.0
  H  H2057  1  0.490100  0.796200  0.534800  1.0
  H  H2058  1  0.259900  0.953800  0.534800  1.0
  H  H2059  1  0.259900  0.796200  0.215200  1.0
  H  H2060  1  0.490100  0.953800  0.215200  1.0
  H  H2061  1  0.490100  0.296200  0.034800  1.0
  H  H2062  1  0.259900  0.453800  0.034800  1.0
  H  H2063  1  0.259900  0.296200  0.715200  1.0
  H  H2064  1  0.490100  0.453800  0.715200  1.0
  H  H2065  1  0.009900  0.203800  0.965200  1.0
  H  H2066  1  0.240100  0.046200  0.965200  1.0
  H  H2067  1  0.240100  0.203800  0.284800  1.0
  H  H2068  1  0.009900  0.046200  0.284800  1.0
  H  H2069  1  0.009900  0.703800  0.465200  1.0
  H  H2070  1  0.240100  0.546200  0.465200  1.0
  H  H2071  1  0.240100  0.703800  0.784800  1.0
  H  H2072  1  0.009900  0.546200  0.784800  1.0
  H  H2073  1  0.509900  0.203800  0.465200  1.0
  H  H2074  1  0.740100  0.046200  0.465200  1.0
  H  H2075  1  0.740100  0.203800  0.784800  1.0
  H  H2076  1  0.509900  0.046200  0.784800  1.0
  H  H2077  1  0.509900  0.703800  0.965200  1.0
  H  H2078  1  0.740100  0.546200  0.965200  1.0
  H  H2079  1  0.740100  0.703800  0.284800  1.0
  H  H2080  1  0.509900  0.546200  0.284800  1.0
  H  H2081  1  0.017700  0.819600  0.036400  1.0
  H  H2082  1  0.732300  0.930400  0.036400  1.0
  H  H2083  1  0.732300  0.819600  0.713600  1.0
  H  H2084  1  0.017700  0.930400  0.713600  1.0
  H  H2085  1  0.017700  0.319600  0.536400  1.0
  H  H2086  1  0.732300  0.430400  0.536400  1.0
  H  H2087  1  0.732300  0.319600  0.213600  1.0
  H  H2088  1  0.017700  0.430400  0.213600  1.0
  H  H2089  1  0.517700  0.819600  0.536400  1.0
  H  H2090  1  0.232300  0.930400  0.536400  1.0
  H  H2091  1  0.232300  0.819600  0.213600  1.0
  H  H2092  1  0.517700  0.930400  0.213600  1.0
  H  H2093  1  0.517700  0.319600  0.036400  1.0
  H  H2094  1  0.232300  0.430400  0.036400  1.0
  H  H2095  1  0.232300  0.319600  0.713600  1.0
  H  H2096  1  0.517700  0.430400  0.713600  1.0
  H  H2097  1  0.982300  0.180400  0.963600  1.0
  H  H2098  1  0.267700  0.069600  0.963600  1.0
  H  H2099  1  0.267700  0.180400  0.286400  1.0
  H  H2100  1  0.982300  0.069600  0.286400  1.0
  H  H2101  1  0.982300  0.680400  0.463600  1.0
  H  H2102  1  0.267700  0.569600  0.463600  1.0
  H  H2103  1  0.267700  0.680400  0.786400  1.0
  H  H2104  1  0.982300  0.569600  0.786400  1.0
  H  H2105  1  0.482300  0.180400  0.463600  1.0
  H  H2106  1  0.767700  0.069600  0.463600  1.0
  H  H2107  1  0.767700  0.180400  0.786400  1.0
  H  H2108  1  0.482300  0.069600  0.786400  1.0
  H  H2109  1  0.482300  0.680400  0.963600  1.0
  H  H2110  1  0.767700  0.569600  0.963600  1.0
  H  H2111  1  0.767700  0.680400  0.286400  1.0
  H  H2112  1  0.482300  0.569600  0.286400  1.0
  H  H2113  1  0.070600  0.766400  0.043700  1.0
  H  H2114  1  0.679400  0.983600  0.043700  1.0
  H  H2115  1  0.679400  0.766400  0.706300  1.0
  H  H2116  1  0.070600  0.983600  0.706300  1.0
  H  H2117  1  0.070600  0.266400  0.543700  1.0
  H  H2118  1  0.679400  0.483600  0.543700  1.0
  H  H2119  1  0.679400  0.266400  0.206300  1.0
  H  H2120  1  0.070600  0.483600  0.206300  1.0
  H  H2121  1  0.570600  0.766400  0.543700  1.0
  H  H2122  1  0.179400  0.983600  0.543700  1.0
  H  H2123  1  0.179400  0.766400  0.206300  1.0
  H  H2124  1  0.570600  0.983600  0.206300  1.0
  H  H2125  1  0.570600  0.266400  0.043700  1.0
  H  H2126  1  0.179400  0.483600  0.043700  1.0
  H  H2127  1  0.179400  0.266400  0.706300  1.0
  H  H2128  1  0.570600  0.483600  0.706300  1.0
  H  H2129  1  0.929400  0.233600  0.956300  1.0
  H  H2130  1  0.320600  0.016400  0.956300  1.0
  H  H2131  1  0.320600  0.233600  0.293700  1.0
  H  H2132  1  0.929400  0.016400  0.293700  1.0
  H  H2133  1  0.929400  0.733600  0.456300  1.0
  H  H2134  1  0.320600  0.516400  0.456300  1.0
  H  H2135  1  0.320600  0.733600  0.793700  1.0
  H  H2136  1  0.929400  0.516400  0.793700  1.0
  H  H2137  1  0.429400  0.233600  0.456300  1.0
  H  H2138  1  0.820600  0.016400  0.456300  1.0
  H  H2139  1  0.820600  0.233600  0.793700  1.0
  H  H2140  1  0.429400  0.016400  0.793700  1.0
  H  H2141  1  0.429400  0.733600  0.956300  1.0
  H  H2142  1  0.820600  0.516400  0.956300  1.0
  H  H2143  1  0.820600  0.733600  0.293700  1.0
  H  H2144  1  0.429400  0.516400  0.293700  1.0
  H  H2145  1  0.092300  0.762300  0.026000  1.0
  H  H2146  1  0.657700  0.987700  0.026000  1.0
  H  H2147  1  0.657700  0.762300  0.724000  1.0
  H  H2148  1  0.092300  0.987700  0.724000  1.0
  H  H2149  1  0.092300  0.262300  0.526000  1.0
  H  H2150  1  0.657700  0.487700  0.526000  1.0
  H  H2151  1  0.657700  0.262300  0.224000  1.0
  H  H2152  1  0.092300  0.487700  0.224000  1.0
  H  H2153  1  0.592300  0.762300  0.526000  1.0
  H  H2154  1  0.157700  0.987700  0.526000  1.0
  H  H2155  1  0.157700  0.762300  0.224000  1.0
  H  H2156  1  0.592300  0.987700  0.224000  1.0
  H  H2157  1  0.592300  0.262300  0.026000  1.0
  H  H2158  1  0.157700  0.487700  0.026000  1.0
  H  H2159  1  0.157700  0.262300  0.724000  1.0
  H  H2160  1  0.592300  0.487700  0.724000  1.0
  H  H2161  1  0.907700  0.237700  0.974000  1.0
  H  H2162  1  0.342300  0.012300  0.974000  1.0
  H  H2163  1  0.342300  0.237700  0.276000  1.0
  H  H2164  1  0.907700  0.012300  0.276000  1.0
  H  H2165  1  0.907700  0.737700  0.474000  1.0
  H  H2166  1  0.342300  0.512300  0.474000  1.0
  H  H2167  1  0.342300  0.737700  0.776000  1.0
  H  H2168  1  0.907700  0.512300  0.776000  1.0
  H  H2169  1  0.407700  0.237700  0.474000  1.0
  H  H2170  1  0.842300  0.012300  0.474000  1.0
  H  H2171  1  0.842300  0.237700  0.776000  1.0
  H  H2172  1  0.407700  0.012300  0.776000  1.0
  H  H2173  1  0.407700  0.737700  0.974000  1.0
  H  H2174  1  0.842300  0.512300  0.974000  1.0
  H  H2175  1  0.842300  0.737700  0.276000  1.0
  H  H2176  1  0.407700  0.512300  0.276000  1.0
  H  H2177  1  0.036000  0.761100  0.028800  1.0
  H  H2178  1  0.714000  0.988900  0.028800  1.0
  H  H2179  1  0.714000  0.761100  0.721200  1.0
  H  H2180  1  0.036000  0.988900  0.721200  1.0
  H  H2181  1  0.036000  0.261100  0.528800  1.0
  H  H2182  1  0.714000  0.488900  0.528800  1.0
  H  H2183  1  0.714000  0.261100  0.221200  1.0
  H  H2184  1  0.036000  0.488900  0.221200  1.0
  H  H2185  1  0.536000  0.761100  0.528800  1.0
  H  H2186  1  0.214000  0.988900  0.528800  1.0
  H  H2187  1  0.214000  0.761100  0.221200  1.0
  H  H2188  1  0.536000  0.988900  0.221200  1.0
  H  H2189  1  0.536000  0.261100  0.028800  1.0
  H  H2190  1  0.214000  0.488900  0.028800  1.0
  H  H2191  1  0.214000  0.261100  0.721200  1.0
  H  H2192  1  0.536000  0.488900  0.721200  1.0
  H  H2193  1  0.964000  0.238900  0.971200  1.0
  H  H2194  1  0.286000  0.011100  0.971200  1.0
  H  H2195  1  0.286000  0.238900  0.278800  1.0
  H  H2196  1  0.964000  0.011100  0.278800  1.0
  H  H2197  1  0.964000  0.738900  0.471200  1.0
  H  H2198  1  0.286000  0.511100  0.471200  1.0
  H  H2199  1  0.286000  0.738900  0.778800  1.0
  H  H2200  1  0.964000  0.511100  0.778800  1.0
  H  H2201  1  0.464000  0.238900  0.471200  1.0
  H  H2202  1  0.786000  0.011100  0.471200  1.0
  H  H2203  1  0.786000  0.238900  0.778800  1.0
  H  H2204  1  0.464000  0.011100  0.778800  1.0
  H  H2205  1  0.464000  0.738900  0.971200  1.0
  H  H2206  1  0.786000  0.511100  0.971200  1.0
  H  H2207  1  0.786000  0.738900  0.278800  1.0
  H  H2208  1  0.464000  0.511100  0.278800  1.0
  H  H2209  1  0.284500  0.907900  0.950900  1.0
  H  H2210  1  0.465500  0.842100  0.950900  1.0
  H  H2211  1  0.465500  0.907900  0.799100  1.0
  H  H2212  1  0.284500  0.842100  0.799100  1.0
  H  H2213  1  0.284500  0.407900  0.450900  1.0
  H  H2214  1  0.465500  0.342100  0.450900  1.0
  H  H2215  1  0.465500  0.407900  0.299100  1.0
  H  H2216  1  0.284500  0.342100  0.299100  1.0
  H  H2217  1  0.784500  0.907900  0.450900  1.0
  H  H2218  1  0.965500  0.842100  0.450900  1.0
  H  H2219  1  0.965500  0.907900  0.299100  1.0
  H  H2220  1  0.784500  0.842100  0.299100  1.0
  H  H2221  1  0.784500  0.407900  0.950900  1.0
  H  H2222  1  0.965500  0.342100  0.950900  1.0
  H  H2223  1  0.965500  0.407900  0.799100  1.0
  H  H2224  1  0.784500  0.342100  0.799100  1.0
  H  H2225  1  0.715500  0.092100  0.049100  1.0
  H  H2226  1  0.534500  0.157900  0.049100  1.0
  H  H2227  1  0.534500  0.092100  0.200900  1.0
  H  H2228  1  0.715500  0.157900  0.200900  1.0
  H  H2229  1  0.715500  0.592100  0.549100  1.0
  H  H2230  1  0.534500  0.657900  0.549100  1.0
  H  H2231  1  0.534500  0.592100  0.700900  1.0
  H  H2232  1  0.715500  0.657900  0.700900  1.0
  H  H2233  1  0.215500  0.092100  0.549100  1.0
  H  H2234  1  0.034500  0.157900  0.549100  1.0
  H  H2235  1  0.034500  0.092100  0.700900  1.0
  H  H2236  1  0.215500  0.157900  0.700900  1.0
  H  H2237  1  0.215500  0.592100  0.049100  1.0
  H  H2238  1  0.034500  0.657900  0.049100  1.0
  H  H2239  1  0.034500  0.592100  0.200900  1.0
  H  H2240  1  0.215500  0.657900  0.200900  1.0
  H  H2241  1  0.319700  0.939700  0.939300  1.0
  H  H2242  1  0.430300  0.810300  0.939300  1.0
  H  H2243  1  0.430300  0.939700  0.810700  1.0
  H  H2244  1  0.319700  0.810300  0.810700  1.0
  H  H2245  1  0.319700  0.439700  0.439300  1.0
  H  H2246  1  0.430300  0.310300  0.439300  1.0
  H  H2247  1  0.430300  0.439700  0.310700  1.0
  H  H2248  1  0.319700  0.310300  0.310700  1.0
  H  H2249  1  0.819700  0.939700  0.439300  1.0
  H  H2250  1  0.930300  0.810300  0.439300  1.0
  H  H2251  1  0.930300  0.939700  0.310700  1.0
  H  H2252  1  0.819700  0.810300  0.310700  1.0
  H  H2253  1  0.819700  0.439700  0.939300  1.0
  H  H2254  1  0.930300  0.310300  0.939300  1.0
  H  H2255  1  0.930300  0.439700  0.810700  1.0
  H  H2256  1  0.819700  0.310300  0.810700  1.0
  H  H2257  1  0.680300  0.060300  0.060700  1.0
  H  H2258  1  0.569700  0.189700  0.060700  1.0
  H  H2259  1  0.569700  0.060300  0.189300  1.0
  H  H2260  1  0.680300  0.189700  0.189300  1.0
  H  H2261  1  0.680300  0.560300  0.560700  1.0
  H  H2262  1  0.569700  0.689700  0.560700  1.0
  H  H2263  1  0.569700  0.560300  0.689300  1.0
  H  H2264  1  0.680300  0.689700  0.689300  1.0
  H  H2265  1  0.180300  0.060300  0.560700  1.0
  H  H2266  1  0.069700  0.189700  0.560700  1.0
  H  H2267  1  0.069700  0.060300  0.689300  1.0
  H  H2268  1  0.180300  0.189700  0.689300  1.0
  H  H2269  1  0.180300  0.560300  0.060700  1.0
  H  H2270  1  0.069700  0.689700  0.060700  1.0
  H  H2271  1  0.069700  0.560300  0.189300  1.0
  H  H2272  1  0.180300  0.689700  0.189300  1.0
  H  H2273  1  0.167800  0.917000  0.922600  1.0
  H  H2274  1  0.582200  0.833000  0.922600  1.0
  H  H2275  1  0.582200  0.917000  0.827400  1.0
  H  H2276  1  0.167800  0.833000  0.827400  1.0
  H  H2277  1  0.167800  0.417000  0.422600  1.0
  H  H2278  1  0.582200  0.333000  0.422600  1.0
  H  H2279  1  0.582200  0.417000  0.327400  1.0
  H  H2280  1  0.167800  0.333000  0.327400  1.0
  H  H2281  1  0.667800  0.917000  0.422600  1.0
  H  H2282  1  0.082200  0.833000  0.422600  1.0
  H  H2283  1  0.082200  0.917000  0.327400  1.0
  H  H2284  1  0.667800  0.833000  0.327400  1.0
  H  H2285  1  0.667800  0.417000  0.922600  1.0
  H  H2286  1  0.082200  0.333000  0.922600  1.0
  H  H2287  1  0.082200  0.417000  0.827400  1.0
  H  H2288  1  0.667800  0.333000  0.827400  1.0
  H  H2289  1  0.832200  0.083000  0.077400  1.0
  H  H2290  1  0.417800  0.167000  0.077400  1.0
  H  H2291  1  0.417800  0.083000  0.172600  1.0
  H  H2292  1  0.832200  0.167000  0.172600  1.0
  H  H2293  1  0.832200  0.583000  0.577400  1.0
  H  H2294  1  0.417800  0.667000  0.577400  1.0
  H  H2295  1  0.417800  0.583000  0.672600  1.0
  H  H2296  1  0.832200  0.667000  0.672600  1.0
  H  H2297  1  0.332200  0.083000  0.577400  1.0
  H  H2298  1  0.917800  0.167000  0.577400  1.0
  H  H2299  1  0.917800  0.083000  0.672600  1.0
  H  H2300  1  0.332200  0.167000  0.672600  1.0
  H  H2301  1  0.332200  0.583000  0.077400  1.0
  H  H2302  1  0.917800  0.667000  0.077400  1.0
  H  H2303  1  0.917800  0.583000  0.172600  1.0
  H  H2304  1  0.332200  0.667000  0.172600  1.0
  H  H2305  1  0.316400  0.970700  0.920600  1.0
  H  H2306  1  0.433600  0.779300  0.920600  1.0
  H  H2307  1  0.433600  0.970700  0.829400  1.0
  H  H2308  1  0.316400  0.779300  0.829400  1.0
  H  H2309  1  0.316400  0.470700  0.420600  1.0
  H  H2310  1  0.433600  0.279300  0.420600  1.0
  H  H2311  1  0.433600  0.470700  0.329400  1.0
  H  H2312  1  0.316400  0.279300  0.329400  1.0
  H  H2313  1  0.816400  0.970700  0.420600  1.0
  H  H2314  1  0.933600  0.779300  0.420600  1.0
  H  H2315  1  0.933600  0.970700  0.329400  1.0
  H  H2316  1  0.816400  0.779300  0.329400  1.0
  H  H2317  1  0.816400  0.470700  0.920600  1.0
  H  H2318  1  0.933600  0.279300  0.920600  1.0
  H  H2319  1  0.933600  0.470700  0.829400  1.0
  H  H2320  1  0.816400  0.279300  0.829400  1.0
  H  H2321  1  0.683600  0.029300  0.079400  1.0
  H  H2322  1  0.566400  0.220700  0.079400  1.0
  H  H2323  1  0.566400  0.029300  0.170600  1.0
  H  H2324  1  0.683600  0.220700  0.170600  1.0
  H  H2325  1  0.683600  0.529300  0.579400  1.0
  H  H2326  1  0.566400  0.720700  0.579400  1.0
  H  H2327  1  0.566400  0.529300  0.670600  1.0
  H  H2328  1  0.683600  0.720700  0.670600  1.0
  H  H2329  1  0.183600  0.029300  0.579400  1.0
  H  H2330  1  0.066400  0.220700  0.579400  1.0
  H  H2331  1  0.066400  0.029300  0.670600  1.0
  H  H2332  1  0.183600  0.220700  0.670600  1.0
  H  H2333  1  0.183600  0.529300  0.079400  1.0
  H  H2334  1  0.066400  0.720700  0.079400  1.0
  H  H2335  1  0.066400  0.529300  0.170600  1.0
  H  H2336  1  0.183600  0.720700  0.170600  1.0
  H  H2337  1  0.275700  0.991100  0.900700  1.0
  H  H2338  1  0.474300  0.758900  0.900700  1.0
  H  H2339  1  0.474300  0.991100  0.849300  1.0
  H  H2340  1  0.275700  0.758900  0.849300  1.0
  H  H2341  1  0.275700  0.491100  0.400700  1.0
  H  H2342  1  0.474300  0.258900  0.400700  1.0
  H  H2343  1  0.474300  0.491100  0.349300  1.0
  H  H2344  1  0.275700  0.258900  0.349300  1.0
  H  H2345  1  0.775700  0.991100  0.400700  1.0
  H  H2346  1  0.974300  0.758900  0.400700  1.0
  H  H2347  1  0.974300  0.991100  0.349300  1.0
  H  H2348  1  0.775700  0.758900  0.349300  1.0
  H  H2349  1  0.775700  0.491100  0.900700  1.0
  H  H2350  1  0.974300  0.258900  0.900700  1.0
  H  H2351  1  0.974300  0.491100  0.849300  1.0
  H  H2352  1  0.775700  0.258900  0.849300  1.0
  H  H2353  1  0.724300  0.008900  0.099300  1.0
  H  H2354  1  0.525700  0.241100  0.099300  1.0
  H  H2355  1  0.525700  0.008900  0.150700  1.0
  H  H2356  1  0.724300  0.241100  0.150700  1.0
  H  H2357  1  0.724300  0.508900  0.599300  1.0
  H  H2358  1  0.525700  0.741100  0.599300  1.0
  H  H2359  1  0.525700  0.508900  0.650700  1.0
  H  H2360  1  0.724300  0.741100  0.650700  1.0
  H  H2361  1  0.224300  0.008900  0.599300  1.0
  H  H2362  1  0.025700  0.241100  0.599300  1.0
  H  H2363  1  0.025700  0.008900  0.650700  1.0
  H  H2364  1  0.224300  0.241100  0.650700  1.0
  H  H2365  1  0.224300  0.508900  0.099300  1.0
  H  H2366  1  0.025700  0.741100  0.099300  1.0
  H  H2367  1  0.025700  0.508900  0.150700  1.0
  H  H2368  1  0.224300  0.741100  0.150700  1.0
  H  H2369  1  0.164500  0.948000  0.903900  1.0
  H  H2370  1  0.585500  0.802000  0.903900  1.0
  H  H2371  1  0.585500  0.948000  0.846100  1.0
  H  H2372  1  0.164500  0.802000  0.846100  1.0
  H  H2373  1  0.164500  0.448000  0.403900  1.0
  H  H2374  1  0.585500  0.302000  0.403900  1.0
  H  H2375  1  0.585500  0.448000  0.346100  1.0
  H  H2376  1  0.164500  0.302000  0.346100  1.0
  H  H2377  1  0.664500  0.948000  0.403900  1.0
  H  H2378  1  0.085500  0.802000  0.403900  1.0
  H  H2379  1  0.085500  0.948000  0.346100  1.0
  H  H2380  1  0.664500  0.802000  0.346100  1.0
  H  H2381  1  0.664500  0.448000  0.903900  1.0
  H  H2382  1  0.085500  0.302000  0.903900  1.0
  H  H2383  1  0.085500  0.448000  0.846100  1.0
  H  H2384  1  0.664500  0.302000  0.846100  1.0
  H  H2385  1  0.835500  0.052000  0.096100  1.0
  H  H2386  1  0.414500  0.198000  0.096100  1.0
  H  H2387  1  0.414500  0.052000  0.153900  1.0
  H  H2388  1  0.835500  0.198000  0.153900  1.0
  H  H2389  1  0.835500  0.552000  0.596100  1.0
  H  H2390  1  0.414500  0.698000  0.596100  1.0
  H  H2391  1  0.414500  0.552000  0.653900  1.0
  H  H2392  1  0.835500  0.698000  0.653900  1.0
  H  H2393  1  0.335500  0.052000  0.596100  1.0
  H  H2394  1  0.914500  0.198000  0.596100  1.0
  H  H2395  1  0.914500  0.052000  0.653900  1.0
  H  H2396  1  0.335500  0.198000  0.653900  1.0
  H  H2397  1  0.335500  0.552000  0.096100  1.0
  H  H2398  1  0.914500  0.698000  0.096100  1.0
  H  H2399  1  0.914500  0.552000  0.153900  1.0
  H  H2400  1  0.335500  0.698000  0.153900  1.0
  H  H2401  1  0.126800  0.913500  0.001500  1.0
  H  H2402  1  0.623200  0.836500  0.001500  1.0
  H  H2403  1  0.623200  0.913500  0.748500  1.0
  H  H2404  1  0.126800  0.836500  0.748500  1.0
  H  H2405  1  0.126800  0.413500  0.501500  1.0
  H  H2406  1  0.623200  0.336500  0.501500  1.0
  H  H2407  1  0.623200  0.413500  0.248500  1.0
  H  H2408  1  0.126800  0.336500  0.248500  1.0
  H  H2409  1  0.626800  0.913500  0.501500  1.0
  H  H2410  1  0.123200  0.836500  0.501500  1.0
  H  H2411  1  0.123200  0.913500  0.248500  1.0
  H  H2412  1  0.626800  0.836500  0.248500  1.0
  H  H2413  1  0.626800  0.413500  0.001500  1.0
  H  H2414  1  0.123200  0.336500  0.001500  1.0
  H  H2415  1  0.123200  0.413500  0.748500  1.0
  H  H2416  1  0.626800  0.336500  0.748500  1.0
  H  H2417  1  0.873200  0.086500  0.998500  1.0
  H  H2418  1  0.376800  0.163500  0.998500  1.0
  H  H2419  1  0.376800  0.086500  0.251500  1.0
  H  H2420  1  0.873200  0.163500  0.251500  1.0
  H  H2421  1  0.873200  0.586500  0.498500  1.0
  H  H2422  1  0.376800  0.663500  0.498500  1.0
  H  H2423  1  0.376800  0.586500  0.751500  1.0
  H  H2424  1  0.873200  0.663500  0.751500  1.0
  H  H2425  1  0.373200  0.086500  0.498500  1.0
  H  H2426  1  0.876800  0.163500  0.498500  1.0
  H  H2427  1  0.876800  0.086500  0.751500  1.0
  H  H2428  1  0.373200  0.163500  0.751500  1.0
  H  H2429  1  0.373200  0.586500  0.998500  1.0
  H  H2430  1  0.876800  0.663500  0.998500  1.0
  H  H2431  1  0.876800  0.586500  0.251500  1.0
  H  H2432  1  0.373200  0.663500  0.251500  1.0
  H  H2433  1  0.090600  0.944000  0.014400  1.0
  H  H2434  1  0.659400  0.806000  0.014400  1.0
  H  H2435  1  0.659400  0.944000  0.735600  1.0
  H  H2436  1  0.090600  0.806000  0.735600  1.0
  H  H2437  1  0.090600  0.444000  0.514400  1.0
  H  H2438  1  0.659400  0.306000  0.514400  1.0
  H  H2439  1  0.659400  0.444000  0.235600  1.0
  H  H2440  1  0.090600  0.306000  0.235600  1.0
  H  H2441  1  0.590600  0.944000  0.514400  1.0
  H  H2442  1  0.159400  0.806000  0.514400  1.0
  H  H2443  1  0.159400  0.944000  0.235600  1.0
  H  H2444  1  0.590600  0.806000  0.235600  1.0
  H  H2445  1  0.590600  0.444000  0.014400  1.0
  H  H2446  1  0.159400  0.306000  0.014400  1.0
  H  H2447  1  0.159400  0.444000  0.735600  1.0
  H  H2448  1  0.590600  0.306000  0.735600  1.0
  H  H2449  1  0.909400  0.056000  0.985600  1.0
  H  H2450  1  0.340600  0.194000  0.985600  1.0
  H  H2451  1  0.340600  0.056000  0.264400  1.0
  H  H2452  1  0.909400  0.194000  0.264400  1.0
  H  H2453  1  0.909400  0.556000  0.485600  1.0
  H  H2454  1  0.340600  0.694000  0.485600  1.0
  H  H2455  1  0.340600  0.556000  0.764400  1.0
  H  H2456  1  0.909400  0.694000  0.764400  1.0
  H  H2457  1  0.409400  0.056000  0.485600  1.0
  H  H2458  1  0.840600  0.194000  0.485600  1.0
  H  H2459  1  0.840600  0.056000  0.764400  1.0
  H  H2460  1  0.409400  0.194000  0.764400  1.0
  H  H2461  1  0.409400  0.556000  0.985600  1.0
  H  H2462  1  0.840600  0.694000  0.985600  1.0
  H  H2463  1  0.840600  0.556000  0.264400  1.0
  H  H2464  1  0.409400  0.694000  0.264400  1.0
  H  H2465  1  0.023200  0.913900  0.967200  1.0
  H  H2466  1  0.726800  0.836100  0.967200  1.0
  H  H2467  1  0.726800  0.913900  0.782800  1.0
  H  H2468  1  0.023200  0.836100  0.782800  1.0
  H  H2469  1  0.023200  0.413900  0.467200  1.0
  H  H2470  1  0.726800  0.336100  0.467200  1.0
  H  H2471  1  0.726800  0.413900  0.282800  1.0
  H  H2472  1  0.023200  0.336100  0.282800  1.0
  H  H2473  1  0.523200  0.913900  0.467200  1.0
  H  H2474  1  0.226800  0.836100  0.467200  1.0
  H  H2475  1  0.226800  0.913900  0.282800  1.0
  H  H2476  1  0.523200  0.836100  0.282800  1.0
  H  H2477  1  0.523200  0.413900  0.967200  1.0
  H  H2478  1  0.226800  0.336100  0.967200  1.0
  H  H2479  1  0.226800  0.413900  0.782800  1.0
  H  H2480  1  0.523200  0.336100  0.782800  1.0
  H  H2481  1  0.976800  0.086100  0.032800  1.0
  H  H2482  1  0.273200  0.163900  0.032800  1.0
  H  H2483  1  0.273200  0.086100  0.217200  1.0
  H  H2484  1  0.976800  0.163900  0.217200  1.0
  H  H2485  1  0.976800  0.586100  0.532800  1.0
  H  H2486  1  0.273200  0.663900  0.532800  1.0
  H  H2487  1  0.273200  0.586100  0.717200  1.0
  H  H2488  1  0.976800  0.663900  0.717200  1.0
  H  H2489  1  0.476800  0.086100  0.532800  1.0
  H  H2490  1  0.773200  0.163900  0.532800  1.0
  H  H2491  1  0.773200  0.086100  0.717200  1.0
  H  H2492  1  0.476800  0.163900  0.717200  1.0
  H  H2493  1  0.476800  0.586100  0.032800  1.0
  H  H2494  1  0.773200  0.663900  0.032800  1.0
  H  H2495  1  0.773200  0.586100  0.217200  1.0
  H  H2496  1  0.476800  0.663900  0.217200  1.0
  H  H2497  1  0.027600  0.971300  0.015800  1.0
  H  H2498  1  0.722400  0.778700  0.015800  1.0
  H  H2499  1  0.722400  0.971300  0.734200  1.0
  H  H2500  1  0.027600  0.778700  0.734200  1.0
  H  H2501  1  0.027600  0.471300  0.515800  1.0
  H  H2502  1  0.722400  0.278700  0.515800  1.0
  H  H2503  1  0.722400  0.471300  0.234200  1.0
  H  H2504  1  0.027600  0.278700  0.234200  1.0
  H  H2505  1  0.527600  0.971300  0.515800  1.0
  H  H2506  1  0.222400  0.778700  0.515800  1.0
  H  H2507  1  0.222400  0.971300  0.234200  1.0
  H  H2508  1  0.527600  0.778700  0.234200  1.0
  H  H2509  1  0.527600  0.471300  0.015800  1.0
  H  H2510  1  0.222400  0.278700  0.015800  1.0
  H  H2511  1  0.222400  0.471300  0.734200  1.0
  H  H2512  1  0.527600  0.278700  0.734200  1.0
  H  H2513  1  0.972400  0.028700  0.984200  1.0
  H  H2514  1  0.277600  0.221300  0.984200  1.0
  H  H2515  1  0.277600  0.028700  0.265800  1.0
  H  H2516  1  0.972400  0.221300  0.265800  1.0
  H  H2517  1  0.972400  0.528700  0.484200  1.0
  H  H2518  1  0.277600  0.721300  0.484200  1.0
  H  H2519  1  0.277600  0.528700  0.765800  1.0
  H  H2520  1  0.972400  0.721300  0.765800  1.0
  H  H2521  1  0.472400  0.028700  0.484200  1.0
  H  H2522  1  0.777600  0.221300  0.484200  1.0
  H  H2523  1  0.777600  0.028700  0.765800  1.0
  H  H2524  1  0.472400  0.221300  0.765800  1.0
  H  H2525  1  0.472400  0.528700  0.984200  1.0
  H  H2526  1  0.777600  0.721300  0.984200  1.0
  H  H2527  1  0.777600  0.528700  0.265800  1.0
  H  H2528  1  0.472400  0.721300  0.265800  1.0
  H  H2529  1  0.957700  0.986800  0.005100  1.0
  H  H2530  1  0.792300  0.763200  0.005100  1.0
  H  H2531  1  0.792300  0.986800  0.744900  1.0
  H  H2532  1  0.957700  0.763200  0.744900  1.0
  H  H2533  1  0.957700  0.486800  0.505100  1.0
  H  H2534  1  0.792300  0.263200  0.505100  1.0
  H  H2535  1  0.792300  0.486800  0.244900  1.0
  H  H2536  1  0.957700  0.263200  0.244900  1.0
  H  H2537  1  0.457700  0.986800  0.505100  1.0
  H  H2538  1  0.292300  0.763200  0.505100  1.0
  H  H2539  1  0.292300  0.986800  0.244900  1.0
  H  H2540  1  0.457700  0.763200  0.244900  1.0
  H  H2541  1  0.457700  0.486800  0.005100  1.0
  H  H2542  1  0.292300  0.263200  0.005100  1.0
  H  H2543  1  0.292300  0.486800  0.744900  1.0
  H  H2544  1  0.457700  0.263200  0.744900  1.0
  H  H2545  1  0.042300  0.013200  0.994900  1.0
  H  H2546  1  0.207700  0.236800  0.994900  1.0
  H  H2547  1  0.207700  0.013200  0.255100  1.0
  H  H2548  1  0.042300  0.236800  0.255100  1.0
  H  H2549  1  0.042300  0.513200  0.494900  1.0
  H  H2550  1  0.207700  0.736800  0.494900  1.0
  H  H2551  1  0.207700  0.513200  0.755100  1.0
  H  H2552  1  0.042300  0.736800  0.755100  1.0
  H  H2553  1  0.542300  0.013200  0.494900  1.0
  H  H2554  1  0.707700  0.236800  0.494900  1.0
  H  H2555  1  0.707700  0.013200  0.755100  1.0
  H  H2556  1  0.542300  0.236800  0.755100  1.0
  H  H2557  1  0.542300  0.513200  0.994900  1.0
  H  H2558  1  0.707700  0.736800  0.994900  1.0
  H  H2559  1  0.707700  0.513200  0.255100  1.0
  H  H2560  1  0.542300  0.736800  0.255100  1.0
  H  H2561  1  0.960100  0.941300  0.968600  1.0
  H  H2562  1  0.789900  0.808700  0.968600  1.0
  H  H2563  1  0.789900  0.941300  0.781400  1.0
  H  H2564  1  0.960100  0.808700  0.781400  1.0
  H  H2565  1  0.960100  0.441300  0.468600  1.0
  H  H2566  1  0.789900  0.308700  0.468600  1.0
  H  H2567  1  0.789900  0.441300  0.281400  1.0
  H  H2568  1  0.960100  0.308700  0.281400  1.0
  H  H2569  1  0.460100  0.941300  0.468600  1.0
  H  H2570  1  0.289900  0.808700  0.468600  1.0
  H  H2571  1  0.289900  0.941300  0.281400  1.0
  H  H2572  1  0.460100  0.808700  0.281400  1.0
  H  H2573  1  0.460100  0.441300  0.968600  1.0
  H  H2574  1  0.289900  0.308700  0.968600  1.0
  H  H2575  1  0.289900  0.441300  0.781400  1.0
  H  H2576  1  0.460100  0.308700  0.781400  1.0
  H  H2577  1  0.039900  0.058700  0.031400  1.0
  H  H2578  1  0.210100  0.191300  0.031400  1.0
  H  H2579  1  0.210100  0.058700  0.218600  1.0
  H  H2580  1  0.039900  0.191300  0.218600  1.0
  H  H2581  1  0.039900  0.558700  0.531400  1.0
  H  H2582  1  0.210100  0.691300  0.531400  1.0
  H  H2583  1  0.210100  0.558700  0.718600  1.0
  H  H2584  1  0.039900  0.691300  0.718600  1.0
  H  H2585  1  0.539900  0.058700  0.531400  1.0
  H  H2586  1  0.710100  0.191300  0.531400  1.0
  H  H2587  1  0.710100  0.058700  0.718600  1.0
  H  H2588  1  0.539900  0.191300  0.718600  1.0
  H  H2589  1  0.539900  0.558700  0.031400  1.0
  H  H2590  1  0.710100  0.691300  0.031400  1.0
  H  H2591  1  0.710100  0.558700  0.218600  1.0
  H  H2592  1  0.539900  0.691300  0.218600  1.0
  H  H2593  1  0.113000  0.685000  0.846500  1.0
  H  H2594  1  0.637000  0.065000  0.846500  1.0
  H  H2595  1  0.637000  0.685000  0.903500  1.0
  H  H2596  1  0.113000  0.065000  0.903500  1.0
  H  H2597  1  0.113000  0.185000  0.346500  1.0
  H  H2598  1  0.637000  0.565000  0.346500  1.0
  H  H2599  1  0.637000  0.185000  0.403500  1.0
  H  H2600  1  0.113000  0.565000  0.403500  1.0
  H  H2601  1  0.613000  0.685000  0.346500  1.0
  H  H2602  1  0.137000  0.065000  0.346500  1.0
  H  H2603  1  0.137000  0.685000  0.403500  1.0
  H  H2604  1  0.613000  0.065000  0.403500  1.0
  H  H2605  1  0.613000  0.185000  0.846500  1.0
  H  H2606  1  0.137000  0.565000  0.846500  1.0
  H  H2607  1  0.137000  0.185000  0.903500  1.0
  H  H2608  1  0.613000  0.565000  0.903500  1.0
  H  H2609  1  0.887000  0.315000  0.153500  1.0
  H  H2610  1  0.363000  0.935000  0.153500  1.0
  H  H2611  1  0.363000  0.315000  0.096500  1.0
  H  H2612  1  0.887000  0.935000  0.096500  1.0
  H  H2613  1  0.887000  0.815000  0.653500  1.0
  H  H2614  1  0.363000  0.435000  0.653500  1.0
  H  H2615  1  0.363000  0.815000  0.596500  1.0
  H  H2616  1  0.887000  0.435000  0.596500  1.0
  H  H2617  1  0.387000  0.315000  0.653500  1.0
  H  H2618  1  0.863000  0.935000  0.653500  1.0
  H  H2619  1  0.863000  0.315000  0.596500  1.0
  H  H2620  1  0.387000  0.935000  0.596500  1.0
  H  H2621  1  0.387000  0.815000  0.153500  1.0
  H  H2622  1  0.863000  0.435000  0.153500  1.0
  H  H2623  1  0.863000  0.815000  0.096500  1.0
  H  H2624  1  0.387000  0.435000  0.096500  1.0
  H  H2625  1  0.074000  0.668900  0.824200  1.0
  H  H2626  1  0.676000  0.081100  0.824200  1.0
  H  H2627  1  0.676000  0.668900  0.925800  1.0
  H  H2628  1  0.074000  0.081100  0.925800  1.0
  H  H2629  1  0.074000  0.168900  0.324200  1.0
  H  H2630  1  0.676000  0.581100  0.324200  1.0
  H  H2631  1  0.676000  0.168900  0.425800  1.0
  H  H2632  1  0.074000  0.581100  0.425800  1.0
  H  H2633  1  0.574000  0.668900  0.324200  1.0
  H  H2634  1  0.176000  0.081100  0.324200  1.0
  H  H2635  1  0.176000  0.668900  0.425800  1.0
  H  H2636  1  0.574000  0.081100  0.425800  1.0
  H  H2637  1  0.574000  0.168900  0.824200  1.0
  H  H2638  1  0.176000  0.581100  0.824200  1.0
  H  H2639  1  0.176000  0.168900  0.925800  1.0
  H  H2640  1  0.574000  0.581100  0.925800  1.0
  H  H2641  1  0.926000  0.331100  0.175800  1.0
  H  H2642  1  0.324000  0.918900  0.175800  1.0
  H  H2643  1  0.324000  0.331100  0.074200  1.0
  H  H2644  1  0.926000  0.918900  0.074200  1.0
  H  H2645  1  0.926000  0.831100  0.675800  1.0
  H  H2646  1  0.324000  0.418900  0.675800  1.0
  H  H2647  1  0.324000  0.831100  0.574200  1.0
  H  H2648  1  0.926000  0.418900  0.574200  1.0
  H  H2649  1  0.426000  0.331100  0.675800  1.0
  H  H2650  1  0.824000  0.918900  0.675800  1.0
  H  H2651  1  0.824000  0.331100  0.574200  1.0
  H  H2652  1  0.426000  0.918900  0.574200  1.0
  H  H2653  1  0.426000  0.831100  0.175800  1.0
  H  H2654  1  0.824000  0.418900  0.175800  1.0
  H  H2655  1  0.824000  0.831100  0.074200  1.0
  H  H2656  1  0.426000  0.418900  0.074200  1.0
  H  H2657  1  0.021800  0.737700  0.845100  1.0
  H  H2658  1  0.728200  0.012300  0.845100  1.0
  H  H2659  1  0.728200  0.737700  0.904900  1.0
  H  H2660  1  0.021800  0.012300  0.904900  1.0
  H  H2661  1  0.021800  0.237700  0.345100  1.0
  H  H2662  1  0.728200  0.512300  0.345100  1.0
  H  H2663  1  0.728200  0.237700  0.404900  1.0
  H  H2664  1  0.021800  0.512300  0.404900  1.0
  H  H2665  1  0.521800  0.737700  0.345100  1.0
  H  H2666  1  0.228200  0.012300  0.345100  1.0
  H  H2667  1  0.228200  0.737700  0.404900  1.0
  H  H2668  1  0.521800  0.012300  0.404900  1.0
  H  H2669  1  0.521800  0.237700  0.845100  1.0
  H  H2670  1  0.228200  0.512300  0.845100  1.0
  H  H2671  1  0.228200  0.237700  0.904900  1.0
  H  H2672  1  0.521800  0.512300  0.904900  1.0
  H  H2673  1  0.978200  0.262300  0.154900  1.0
  H  H2674  1  0.271800  0.987700  0.154900  1.0
  H  H2675  1  0.271800  0.262300  0.095100  1.0
  H  H2676  1  0.978200  0.987700  0.095100  1.0
  H  H2677  1  0.978200  0.762300  0.654900  1.0
  H  H2678  1  0.271800  0.487700  0.654900  1.0
  H  H2679  1  0.271800  0.762300  0.595100  1.0
  H  H2680  1  0.978200  0.487700  0.595100  1.0
  H  H2681  1  0.478200  0.262300  0.654900  1.0
  H  H2682  1  0.771800  0.987700  0.654900  1.0
  H  H2683  1  0.771800  0.262300  0.595100  1.0
  H  H2684  1  0.478200  0.987700  0.595100  1.0
  H  H2685  1  0.478200  0.762300  0.154900  1.0
  H  H2686  1  0.771800  0.487700  0.154900  1.0
  H  H2687  1  0.771800  0.762300  0.095100  1.0
  H  H2688  1  0.478200  0.487700  0.095100  1.0
  H  H2689  1  0.012200  0.670300  0.804000  1.0
  H  H2690  1  0.737800  0.079700  0.804000  1.0
  H  H2691  1  0.737800  0.670300  0.946000  1.0
  H  H2692  1  0.012200  0.079700  0.946000  1.0
  H  H2693  1  0.012200  0.170300  0.304000  1.0
  H  H2694  1  0.737800  0.579700  0.304000  1.0
  H  H2695  1  0.737800  0.170300  0.446000  1.0
  H  H2696  1  0.012200  0.579700  0.446000  1.0
  H  H2697  1  0.512200  0.670300  0.304000  1.0
  H  H2698  1  0.237800  0.079700  0.304000  1.0
  H  H2699  1  0.237800  0.670300  0.446000  1.0
  H  H2700  1  0.512200  0.079700  0.446000  1.0
  H  H2701  1  0.512200  0.170300  0.804000  1.0
  H  H2702  1  0.237800  0.579700  0.804000  1.0
  H  H2703  1  0.237800  0.170300  0.946000  1.0
  H  H2704  1  0.512200  0.579700  0.946000  1.0
  H  H2705  1  0.987800  0.329700  0.196000  1.0
  H  H2706  1  0.262200  0.920300  0.196000  1.0
  H  H2707  1  0.262200  0.329700  0.054000  1.0
  H  H2708  1  0.987800  0.920300  0.054000  1.0
  H  H2709  1  0.987800  0.829700  0.696000  1.0
  H  H2710  1  0.262200  0.420300  0.696000  1.0
  H  H2711  1  0.262200  0.829700  0.554000  1.0
  H  H2712  1  0.987800  0.420300  0.554000  1.0
  H  H2713  1  0.487800  0.329700  0.696000  1.0
  H  H2714  1  0.762200  0.920300  0.696000  1.0
  H  H2715  1  0.762200  0.329700  0.554000  1.0
  H  H2716  1  0.487800  0.920300  0.554000  1.0
  H  H2717  1  0.487800  0.829700  0.196000  1.0
  H  H2718  1  0.762200  0.420300  0.196000  1.0
  H  H2719  1  0.762200  0.829700  0.054000  1.0
  H  H2720  1  0.487800  0.420300  0.054000  1.0
  H  H2721  1  0.947200  0.688600  0.792100  1.0
  H  H2722  1  0.802800  0.061400  0.792100  1.0
  H  H2723  1  0.802800  0.688600  0.957900  1.0
  H  H2724  1  0.947200  0.061400  0.957900  1.0
  H  H2725  1  0.947200  0.188600  0.292100  1.0
  H  H2726  1  0.802800  0.561400  0.292100  1.0
  H  H2727  1  0.802800  0.188600  0.457900  1.0
  H  H2728  1  0.947200  0.561400  0.457900  1.0
  H  H2729  1  0.447200  0.688600  0.292100  1.0
  H  H2730  1  0.302800  0.061400  0.292100  1.0
  H  H2731  1  0.302800  0.688600  0.457900  1.0
  H  H2732  1  0.447200  0.061400  0.457900  1.0
  H  H2733  1  0.447200  0.188600  0.792100  1.0
  H  H2734  1  0.302800  0.561400  0.792100  1.0
  H  H2735  1  0.302800  0.188600  0.957900  1.0
  H  H2736  1  0.447200  0.561400  0.957900  1.0
  H  H2737  1  0.052800  0.311400  0.207900  1.0
  H  H2738  1  0.197200  0.938600  0.207900  1.0
  H  H2739  1  0.197200  0.311400  0.042100  1.0
  H  H2740  1  0.052800  0.938600  0.042100  1.0
  H  H2741  1  0.052800  0.811400  0.707900  1.0
  H  H2742  1  0.197200  0.438600  0.707900  1.0
  H  H2743  1  0.197200  0.811400  0.542100  1.0
  H  H2744  1  0.052800  0.438600  0.542100  1.0
  H  H2745  1  0.552800  0.311400  0.707900  1.0
  H  H2746  1  0.697200  0.938600  0.707900  1.0
  H  H2747  1  0.697200  0.311400  0.542100  1.0
  H  H2748  1  0.552800  0.938600  0.542100  1.0
  H  H2749  1  0.552800  0.811400  0.207900  1.0
  H  H2750  1  0.697200  0.438600  0.207900  1.0
  H  H2751  1  0.697200  0.811400  0.042100  1.0
  H  H2752  1  0.552800  0.438600  0.042100  1.0
  H  H2753  1  0.960000  0.739000  0.824800  1.0
  H  H2754  1  0.790000  0.011000  0.824800  1.0
  H  H2755  1  0.790000  0.739000  0.925200  1.0
  H  H2756  1  0.960000  0.011000  0.925200  1.0
  H  H2757  1  0.960000  0.239000  0.324800  1.0
  H  H2758  1  0.790000  0.511000  0.324800  1.0
  H  H2759  1  0.790000  0.239000  0.425200  1.0
  H  H2760  1  0.960000  0.511000  0.425200  1.0
  H  H2761  1  0.460000  0.739000  0.324800  1.0
  H  H2762  1  0.290000  0.011000  0.324800  1.0
  H  H2763  1  0.290000  0.739000  0.425200  1.0
  H  H2764  1  0.460000  0.011000  0.425200  1.0
  H  H2765  1  0.460000  0.239000  0.824800  1.0
  H  H2766  1  0.290000  0.511000  0.824800  1.0
  H  H2767  1  0.290000  0.239000  0.925200  1.0
  H  H2768  1  0.460000  0.511000  0.925200  1.0
  H  H2769  1  0.040000  0.261000  0.175200  1.0
  H  H2770  1  0.210000  0.989000  0.175200  1.0
  H  H2771  1  0.210000  0.261000  0.074800  1.0
  H  H2772  1  0.040000  0.989000  0.074800  1.0
  H  H2773  1  0.040000  0.761000  0.675200  1.0
  H  H2774  1  0.210000  0.489000  0.675200  1.0
  H  H2775  1  0.210000  0.761000  0.574800  1.0
  H  H2776  1  0.040000  0.489000  0.574800  1.0
  H  H2777  1  0.540000  0.261000  0.675200  1.0
  H  H2778  1  0.710000  0.989000  0.675200  1.0
  H  H2779  1  0.710000  0.261000  0.574800  1.0
  H  H2780  1  0.540000  0.989000  0.574800  1.0
  H  H2781  1  0.540000  0.761000  0.175200  1.0
  H  H2782  1  0.710000  0.489000  0.175200  1.0
  H  H2783  1  0.710000  0.761000  0.074800  1.0
  H  H2784  1  0.540000  0.489000  0.074800  1.0
  C  C2785  1  0.348800  0.759990  0.936380  1
  C  C2786  1  0.401200  0.990010  0.936380  1
  C  C2787  1  0.401200  0.759990  0.813620  1
  C  C2788  1  0.348800  0.990010  0.813620  1
  C  C2789  1  0.348800  0.259990  0.436380  1
  C  C2790  1  0.401200  0.490010  0.436380  1
  C  C2791  1  0.401200  0.259990  0.313620  1
  C  C2792  1  0.348800  0.490010  0.313620  1
  C  C2793  1  0.848800  0.759990  0.436380  1
  C  C2794  1  0.901200  0.990010  0.436380  1
  C  C2795  1  0.901200  0.759990  0.313620  1
  C  C2796  1  0.848800  0.990010  0.313620  1
  C  C2797  1  0.848800  0.259990  0.936380  1
  C  C2798  1  0.901200  0.490010  0.936380  1
  C  C2799  1  0.901200  0.259990  0.813620  1
  C  C2800  1  0.848800  0.490010  0.813620  1
  C  C2801  1  0.651200  0.240010  0.063620  1
  C  C2802  1  0.598800  0.009990  0.063620  1
  C  C2803  1  0.598800  0.240010  0.186380  1
  C  C2804  1  0.651200  0.009990  0.186380  1
  C  C2805  1  0.651200  0.740010  0.563620  1
  C  C2806  1  0.598800  0.509990  0.563620  1
  C  C2807  1  0.598800  0.740010  0.686380  1
  C  C2808  1  0.651200  0.509990  0.686380  1
  C  C2809  1  0.151200  0.240010  0.563620  1
  C  C2810  1  0.098800  0.009990  0.563620  1
  C  C2811  1  0.098800  0.240010  0.686380  1
  C  C2812  1  0.151200  0.009990  0.686380  1
  C  C2813  1  0.151200  0.740010  0.063620  1
  C  C2814  1  0.098800  0.509990  0.063620  1
  C  C2815  1  0.098800  0.740010  0.186380  1
  C  C2816  1  0.151200  0.509990  0.186380  1
  C  C2817  1  0.295700  0.746980  0.958690  1
  C  C2818  1  0.454300  0.003020  0.958690  1
  C  C2819  1  0.454300  0.746980  0.791310  1
  C  C2820  1  0.295700  0.003020  0.791310  1
  C  C2821  1  0.295700  0.246980  0.458690  1
  C  C2822  1  0.454300  0.503020  0.458690  1
  C  C2823  1  0.454300  0.246980  0.291310  1
  C  C2824  1  0.295700  0.503020  0.291310  1
  C  C2825  1  0.795700  0.746980  0.458690  1
  C  C2826  1  0.954300  0.003020  0.458690  1
  C  C2827  1  0.954300  0.746980  0.291310  1
  C  C2828  1  0.795700  0.003020  0.291310  1
  C  C2829  1  0.795700  0.246980  0.958690  1
  C  C2830  1  0.954300  0.503020  0.958690  1
  C  C2831  1  0.954300  0.246980  0.791310  1
  C  C2832  1  0.795700  0.503020  0.791310  1
  C  C2833  1  0.704300  0.253020  0.041310  1
  C  C2834  1  0.545700  0.996980  0.041310  1
  C  C2835  1  0.545700  0.253020  0.208690  1
  C  C2836  1  0.704300  0.996980  0.208690  1
  C  C2837  1  0.704300  0.753020  0.541310  1
  C  C2838  1  0.545700  0.496980  0.541310  1
  C  C2839  1  0.545700  0.753020  0.708690  1
  C  C2840  1  0.704300  0.496980  0.708690  1
  C  C2841  1  0.204300  0.253020  0.541310  1
  C  C2842  1  0.045700  0.996980  0.541310  1
  C  C2843  1  0.045700  0.253020  0.708690  1
  C  C2844  1  0.204300  0.996980  0.708690  1
  C  C2845  1  0.204300  0.753020  0.041310  1
  C  C2846  1  0.045700  0.496980  0.041310  1
  C  C2847  1  0.045700  0.753020  0.208690  1
  C  C2848  1  0.204300  0.496980  0.208690  1
  C  C2849  1  0.335400  0.784220  0.960590  1
  C  C2850  1  0.414600  0.965780  0.960590  1
  C  C2851  1  0.414600  0.784220  0.789410  1
  C  C2852  1  0.335400  0.965780  0.789410  1
  C  C2853  1  0.335400  0.284220  0.460590  1
  C  C2854  1  0.414600  0.465780  0.460590  1
  C  C2855  1  0.414600  0.284220  0.289410  1
  C  C2856  1  0.335400  0.465780  0.289410  1
  C  C2857  1  0.835400  0.784220  0.460590  1
  C  C2858  1  0.914600  0.965780  0.460590  1
  C  C2859  1  0.914600  0.784220  0.289410  1
  C  C2860  1  0.835400  0.965780  0.289410  1
  C  C2861  1  0.835400  0.284220  0.960590  1
  C  C2862  1  0.914600  0.465780  0.960590  1
  C  C2863  1  0.914600  0.284220  0.789410  1
  C  C2864  1  0.835400  0.465780  0.789410  1
  C  C2865  1  0.664600  0.215780  0.039410  1
  C  C2866  1  0.585400  0.034220  0.039410  1
  C  C2867  1  0.585400  0.215780  0.210590  1
  C  C2868  1  0.664600  0.034220  0.210590  1
  C  C2869  1  0.664600  0.715780  0.539410  1
  C  C2870  1  0.585400  0.534220  0.539410  1
  C  C2871  1  0.585400  0.715780  0.710590  1
  C  C2872  1  0.664600  0.534220  0.710590  1
  C  C2873  1  0.164600  0.215780  0.539410  1
  C  C2874  1  0.085400  0.034220  0.539410  1
  C  C2875  1  0.085400  0.215780  0.710590  1
  C  C2876  1  0.164600  0.034220  0.710590  1
  C  C2877  1  0.164600  0.715780  0.039410  1
  C  C2878  1  0.085400  0.534220  0.039410  1
  C  C2879  1  0.085400  0.715780  0.210590  1
  C  C2880  1  0.164600  0.534220  0.210590  1
  C  C2881  1  0.034400  0.646640  0.943480  1
  C  C2882  1  0.715600  0.103360  0.943480  1
  C  C2883  1  0.715600  0.646640  0.806520  1
  C  C2884  1  0.034400  0.103360  0.806520  1
  C  C2885  1  0.034400  0.146640  0.443480  1
  C  C2886  1  0.715600  0.603360  0.443480  1
  C  C2887  1  0.715600  0.146640  0.306520  1
  C  C2888  1  0.034400  0.603360  0.306520  1
  C  C2889  1  0.534400  0.646640  0.443480  1
  C  C2890  1  0.215600  0.103360  0.443480  1
  C  C2891  1  0.215600  0.646640  0.306520  1
  C  C2892  1  0.534400  0.103360  0.306520  1
  C  C2893  1  0.534400  0.146640  0.943480  1
  C  C2894  1  0.215600  0.603360  0.943480  1
  C  C2895  1  0.215600  0.146640  0.806520  1
  C  C2896  1  0.534400  0.603360  0.806520  1
  C  C2897  1  0.965600  0.353360  0.056520  1
  C  C2898  1  0.284400  0.896640  0.056520  1
  C  C2899  1  0.284400  0.353360  0.193480  1
  C  C2900  1  0.965600  0.896640  0.193480  1
  C  C2901  1  0.965600  0.853360  0.556520  1
  C  C2902  1  0.284400  0.396640  0.556520  1
  C  C2903  1  0.284400  0.853360  0.693480  1
  C  C2904  1  0.965600  0.396640  0.693480  1
  C  C2905  1  0.465600  0.353360  0.556520  1
  C  C2906  1  0.784400  0.896640  0.556520  1
  C  C2907  1  0.784400  0.353360  0.693480  1
  C  C2908  1  0.465600  0.896640  0.693480  1
  C  C2909  1  0.465600  0.853360  0.056520  1
  C  C2910  1  0.784400  0.396640  0.056520  1
  C  C2911  1  0.784400  0.853360  0.193480  1
  C  C2912  1  0.465600  0.396640  0.193480  1
  C  C2913  1  0.119000  0.654560  0.936370  1
  C  C2914  1  0.631000  0.095440  0.936370  1
  C  C2915  1  0.631000  0.654560  0.813630  1
  C  C2916  1  0.119000  0.095440  0.813630  1
  C  C2917  1  0.119000  0.154560  0.436370  1
  C  C2918  1  0.631000  0.595440  0.436370  1
  C  C2919  1  0.631000  0.154560  0.313630  1
  C  C2920  1  0.119000  0.595440  0.313630  1
  C  C2921  1  0.619000  0.654560  0.436370  1
  C  C2922  1  0.131000  0.095440  0.436370  1
  C  C2923  1  0.131000  0.654560  0.313630  1
  C  C2924  1  0.619000  0.095440  0.313630  1
  C  C2925  1  0.619000  0.154560  0.936370  1
  C  C2926  1  0.131000  0.595440  0.936370  1
  C  C2927  1  0.131000  0.154560  0.813630  1
  C  C2928  1  0.619000  0.595440  0.813630  1
  C  C2929  1  0.881000  0.345440  0.063630  1
  C  C2930  1  0.369000  0.904560  0.063630  1
  C  C2931  1  0.369000  0.345440  0.186370  1
  C  C2932  1  0.881000  0.904560  0.186370  1
  C  C2933  1  0.881000  0.845440  0.563630  1
  C  C2934  1  0.369000  0.404560  0.563630  1
  C  C2935  1  0.369000  0.845440  0.686370  1
  C  C2936  1  0.881000  0.404560  0.686370  1
  C  C2937  1  0.381000  0.345440  0.563630  1
  C  C2938  1  0.869000  0.904560  0.563630  1
  C  C2939  1  0.869000  0.345440  0.686370  1
  C  C2940  1  0.381000  0.904560  0.686370  1
  C  C2941  1  0.381000  0.845440  0.063630  1
  C  C2942  1  0.869000  0.404560  0.063630  1
  C  C2943  1  0.869000  0.845440  0.186370  1
  C  C2944  1  0.381000  0.404560  0.186370  1
  C  C2945  1  0.088300  0.664140  0.963900  1
  C  C2946  1  0.661700  0.085860  0.963900  1
  C  C2947  1  0.661700  0.664140  0.786100  1
  C  C2948  1  0.088300  0.085860  0.786100  1
  C  C2949  1  0.088300  0.164140  0.463900  1
  C  C2950  1  0.661700  0.585860  0.463900  1
  C  C2951  1  0.661700  0.164140  0.286100  1
  C  C2952  1  0.088300  0.585860  0.286100  1
  C  C2953  1  0.588300  0.664140  0.463900  1
  C  C2954  1  0.161700  0.085860  0.463900  1
  C  C2955  1  0.161700  0.664140  0.286100  1
  C  C2956  1  0.588300  0.085860  0.286100  1
  C  C2957  1  0.588300  0.164140  0.963900  1
  C  C2958  1  0.161700  0.585860  0.963900  1
  C  C2959  1  0.161700  0.164140  0.786100  1
  C  C2960  1  0.588300  0.585860  0.786100  1
  C  C2961  1  0.911700  0.335860  0.036100  1
  C  C2962  1  0.338300  0.914140  0.036100  1
  C  C2963  1  0.338300  0.335860  0.213900  1
  C  C2964  1  0.911700  0.914140  0.213900  1
  C  C2965  1  0.911700  0.835860  0.536100  1
  C  C2966  1  0.338300  0.414140  0.536100  1
  C  C2967  1  0.338300  0.835860  0.713900  1
  C  C2968  1  0.911700  0.414140  0.713900  1
  C  C2969  1  0.411700  0.335860  0.536100  1
  C  C2970  1  0.838300  0.914140  0.536100  1
  C  C2971  1  0.838300  0.335860  0.713900  1
  C  C2972  1  0.411700  0.914140  0.713900  1
  C  C2973  1  0.411700  0.835860  0.036100  1
  C  C2974  1  0.838300  0.414140  0.036100  1
  C  C2975  1  0.838300  0.835860  0.213900  1
  C  C2976  1  0.411700  0.414140  0.213900  1
  C  C2977  1  0.114850  0.791700  0.031980  1
  C  C2978  1  0.635150  0.958300  0.031980  1
  C  C2979  1  0.635150  0.791700  0.718020  1
  C  C2980  1  0.114850  0.958300  0.718020  1
  C  C2981  1  0.114850  0.291700  0.531980  1
  C  C2982  1  0.635150  0.458300  0.531980  1
  C  C2983  1  0.635150  0.291700  0.218020  1
  C  C2984  1  0.114850  0.458300  0.218020  1
  C  C2985  1  0.614850  0.791700  0.531980  1
  C  C2986  1  0.135150  0.958300  0.531980  1
  C  C2987  1  0.135150  0.791700  0.218020  1
  C  C2988  1  0.614850  0.958300  0.218020  1
  C  C2989  1  0.614850  0.291700  0.031980  1
  C  C2990  1  0.135150  0.458300  0.031980  1
  C  C2991  1  0.135150  0.291700  0.718020  1
  C  C2992  1  0.614850  0.458300  0.718020  1
  C  C2993  1  0.885150  0.208300  0.968020  1
  C  C2994  1  0.364850  0.041700  0.968020  1
  C  C2995  1  0.364850  0.208300  0.281980  1
  C  C2996  1  0.885150  0.041700  0.281980  1
  C  C2997  1  0.885150  0.708300  0.468020  1
  C  C2998  1  0.364850  0.541700  0.468020  1
  C  C2999  1  0.364850  0.708300  0.781980  1
  C  C3000  1  0.885150  0.541700  0.781980  1
  C  C3001  1  0.385150  0.208300  0.468020  1
  C  C3002  1  0.864850  0.041700  0.468020  1
  C  C3003  1  0.864850  0.208300  0.781980  1
  C  C3004  1  0.385150  0.041700  0.781980  1
  C  C3005  1  0.385150  0.708300  0.968020  1
  C  C3006  1  0.864850  0.541700  0.968020  1
  C  C3007  1  0.864850  0.708300  0.281980  1
  C  C3008  1  0.385150  0.541700  0.281980  1
  C  C3009  1  0.041500  0.813510  0.038220  1
  C  C3010  1  0.708500  0.936490  0.038220  1
  C  C3011  1  0.708500  0.813510  0.711780  1
  C  C3012  1  0.041500  0.936490  0.711780  1
  C  C3013  1  0.041500  0.313510  0.538220  1
  C  C3014  1  0.708500  0.436490  0.538220  1
  C  C3015  1  0.708500  0.313510  0.211780  1
  C  C3016  1  0.041500  0.436490  0.211780  1
  C  C3017  1  0.541500  0.813510  0.538220  1
  C  C3018  1  0.208500  0.936490  0.538220  1
  C  C3019  1  0.208500  0.813510  0.211780  1
  C  C3020  1  0.541500  0.936490  0.211780  1
  C  C3021  1  0.541500  0.313510  0.038220  1
  C  C3022  1  0.208500  0.436490  0.038220  1
  C  C3023  1  0.208500  0.313510  0.711780  1
  C  C3024  1  0.541500  0.436490  0.711780  1
  C  C3025  1  0.958500  0.186490  0.961780  1
  C  C3026  1  0.291500  0.063510  0.961780  1
  C  C3027  1  0.291500  0.186490  0.288220  1
  C  C3028  1  0.958500  0.063510  0.288220  1
  C  C3029  1  0.958500  0.686490  0.461780  1
  C  C3030  1  0.291500  0.563510  0.461780  1
  C  C3031  1  0.291500  0.686490  0.788220  1
  C  C3032  1  0.958500  0.563510  0.788220  1
  C  C3033  1  0.458500  0.186490  0.461780  1
  C  C3034  1  0.791500  0.063510  0.461780  1
  C  C3035  1  0.791500  0.186490  0.788220  1
  C  C3036  1  0.458500  0.063510  0.788220  1
  C  C3037  1  0.458500  0.686490  0.961780  1
  C  C3038  1  0.791500  0.563510  0.961780  1
  C  C3039  1  0.791500  0.686490  0.288220  1
  C  C3040  1  0.458500  0.563510  0.288220  1
  C  C3041  1  0.036600  0.772240  0.034000  1
  C  C3042  1  0.713400  0.977760  0.034000  1
  C  C3043  1  0.713400  0.772240  0.716000  1
  C  C3044  1  0.036600  0.977760  0.716000  1
  C  C3045  1  0.036600  0.272240  0.534000  1
  C  C3046  1  0.713400  0.477760  0.534000  1
  C  C3047  1  0.713400  0.272240  0.216000  1
  C  C3048  1  0.036600  0.477760  0.216000  1
  C  C3049  1  0.536600  0.772240  0.534000  1
  C  C3050  1  0.213400  0.977760  0.534000  1
  C  C3051  1  0.213400  0.772240  0.216000  1
  C  C3052  1  0.536600  0.977760  0.216000  1
  C  C3053  1  0.536600  0.272240  0.034000  1
  C  C3054  1  0.213400  0.477760  0.034000  1
  C  C3055  1  0.213400  0.272240  0.716000  1
  C  C3056  1  0.536600  0.477760  0.716000  1
  C  C3057  1  0.963400  0.227760  0.966000  1
  C  C3058  1  0.286600  0.022240  0.966000  1
  C  C3059  1  0.286600  0.227760  0.284000  1
  C  C3060  1  0.963400  0.022240  0.284000  1
  C  C3061  1  0.963400  0.727760  0.466000  1
  C  C3062  1  0.286600  0.522240  0.466000  1
  C  C3063  1  0.286600  0.727760  0.784000  1
  C  C3064  1  0.963400  0.522240  0.784000  1
  C  C3065  1  0.463400  0.227760  0.466000  1
  C  C3066  1  0.786600  0.022240  0.466000  1
  C  C3067  1  0.786600  0.227760  0.784000  1
  C  C3068  1  0.463400  0.022240  0.784000  1
  C  C3069  1  0.463400  0.727760  0.966000  1
  C  C3070  1  0.786600  0.522240  0.966000  1
  C  C3071  1  0.786600  0.727760  0.284000  1
  C  C3072  1  0.463400  0.522240  0.284000  1
  C  C3073  1  0.187230  0.829010  0.946670  1.0
  C  C3074  1  0.562770  0.920990  0.946670  1.0
  C  C3075  1  0.562770  0.829010  0.803330  1.0
  C  C3076  1  0.187230  0.920990  0.803330  1.0
  C  C3077  1  0.187230  0.329010  0.446670  1.0
  C  C3078  1  0.562770  0.420990  0.446670  1.0
  C  C3079  1  0.562770  0.329010  0.303330  1.0
  C  C3080  1  0.187230  0.420990  0.303330  1.0
  C  C3081  1  0.687230  0.829010  0.446670  1.0
  C  C3082  1  0.062770  0.920990  0.446670  1.0
  C  C3083  1  0.062770  0.829010  0.303330  1.0
  C  C3084  1  0.687230  0.920990  0.303330  1.0
  C  C3085  1  0.687230  0.329010  0.946670  1.0
  C  C3086  1  0.062770  0.420990  0.946670  1.0
  C  C3087  1  0.062770  0.329010  0.803330  1.0
  C  C3088  1  0.687230  0.420990  0.803330  1.0
  C  C3089  1  0.812770  0.170990  0.053330  1.0
  C  C3090  1  0.437230  0.079010  0.053330  1.0
  C  C3091  1  0.437230  0.170990  0.196670  1.0
  C  C3092  1  0.812770  0.079010  0.196670  1.0
  C  C3093  1  0.812770  0.670990  0.553330  1.0
  C  C3094  1  0.437230  0.579010  0.553330  1.0
  C  C3095  1  0.437230  0.670990  0.696670  1.0
  C  C3096  1  0.812770  0.579010  0.696670  1.0
  C  C3097  1  0.312770  0.170990  0.553330  1.0
  C  C3098  1  0.937230  0.079010  0.553330  1.0
  C  C3099  1  0.937230  0.170990  0.696670  1.0
  C  C3100  1  0.312770  0.079010  0.696670  1.0
  C  C3101  1  0.312770  0.670990  0.053330  1.0
  C  C3102  1  0.937230  0.579010  0.053330  1.0
  C  C3103  1  0.937230  0.670990  0.196670  1.0
  C  C3104  1  0.312770  0.579010  0.196670  1.0
  C  C3105  1  0.211000  0.808070  0.939320  1.0
  C  C3106  1  0.539000  0.941930  0.939320  1.0
  C  C3107  1  0.539000  0.808070  0.810680  1.0
  C  C3108  1  0.211000  0.941930  0.810680  1.0
  C  C3109  1  0.211000  0.308070  0.439320  1.0
  C  C3110  1  0.539000  0.441930  0.439320  1.0
  C  C3111  1  0.539000  0.308070  0.310680  1.0
  C  C3112  1  0.211000  0.441930  0.310680  1.0
  C  C3113  1  0.711000  0.808070  0.439320  1.0
  C  C3114  1  0.039000  0.941930  0.439320  1.0
  C  C3115  1  0.039000  0.808070  0.310680  1.0
  C  C3116  1  0.711000  0.941930  0.310680  1.0
  C  C3117  1  0.711000  0.308070  0.939320  1.0
  C  C3118  1  0.039000  0.441930  0.939320  1.0
  C  C3119  1  0.039000  0.308070  0.810680  1.0
  C  C3120  1  0.711000  0.441930  0.810680  1.0
  C  C3121  1  0.789000  0.191930  0.060680  1.0
  C  C3122  1  0.461000  0.058070  0.060680  1.0
  C  C3123  1  0.461000  0.191930  0.189320  1.0
  C  C3124  1  0.789000  0.058070  0.189320  1.0
  C  C3125  1  0.789000  0.691930  0.560680  1.0
  C  C3126  1  0.461000  0.558070  0.560680  1.0
  C  C3127  1  0.461000  0.691930  0.689320  1.0
  C  C3128  1  0.789000  0.558070  0.689320  1.0
  C  C3129  1  0.289000  0.191930  0.560680  1.0
  C  C3130  1  0.961000  0.058070  0.560680  1.0
  C  C3131  1  0.961000  0.191930  0.689320  1.0
  C  C3132  1  0.289000  0.058070  0.689320  1.0
  C  C3133  1  0.289000  0.691930  0.060680  1.0
  C  C3134  1  0.961000  0.558070  0.060680  1.0
  C  C3135  1  0.961000  0.691930  0.189320  1.0
  C  C3136  1  0.289000  0.558070  0.189320  1.0
  C  C3137  1  0.250680  0.798340  0.946550  1.0
  C  C3138  1  0.499320  0.951660  0.946550  1.0
  C  C3139  1  0.499320  0.798340  0.803450  1.0
  C  C3140  1  0.250680  0.951660  0.803450  1.0
  C  C3141  1  0.250680  0.298340  0.446550  1.0
  C  C3142  1  0.499320  0.451660  0.446550  1.0
  C  C3143  1  0.499320  0.298340  0.303450  1.0
  C  C3144  1  0.250680  0.451660  0.303450  1.0
  C  C3145  1  0.750680  0.798340  0.446550  1.0
  C  C3146  1  0.999320  0.951660  0.446550  1.0
  C  C3147  1  0.999320  0.798340  0.303450  1.0
  C  C3148  1  0.750680  0.951660  0.303450  1.0
  C  C3149  1  0.750680  0.298340  0.946550  1.0
  C  C3150  1  0.999320  0.451660  0.946550  1.0
  C  C3151  1  0.999320  0.298340  0.803450  1.0
  C  C3152  1  0.750680  0.451660  0.803450  1.0
  C  C3153  1  0.749320  0.201660  0.053450  1.0
  C  C3154  1  0.500680  0.048340  0.053450  1.0
  C  C3155  1  0.500680  0.201660  0.196550  1.0
  C  C3156  1  0.749320  0.048340  0.196550  1.0
  C  C3157  1  0.749320  0.701660  0.553450  1.0
  C  C3158  1  0.500680  0.548340  0.553450  1.0
  C  C3159  1  0.500680  0.701660  0.696550  1.0
  C  C3160  1  0.749320  0.548340  0.696550  1.0
  C  C3161  1  0.249320  0.201660  0.553450  1.0
  C  C3162  1  0.000680  0.048340  0.553450  1.0
  C  C3163  1  0.000680  0.201660  0.696550  1.0
  C  C3164  1  0.249320  0.048340  0.696550  1.0
  C  C3165  1  0.249320  0.701660  0.053450  1.0
  C  C3166  1  0.000680  0.548340  0.053450  1.0
  C  C3167  1  0.000680  0.701660  0.196550  1.0
  C  C3168  1  0.249320  0.548340  0.196550  1.0
  C  C3169  1  0.269090  0.778420  0.940420  1.0
  C  C3170  1  0.480910  0.971580  0.940420  1.0
  C  C3171  1  0.480910  0.778420  0.809580  1.0
  C  C3172  1  0.269090  0.971580  0.809580  1.0
  C  C3173  1  0.269090  0.278420  0.440420  1.0
  C  C3174  1  0.480910  0.471580  0.440420  1.0
  C  C3175  1  0.480910  0.278420  0.309580  1.0
  C  C3176  1  0.269090  0.471580  0.309580  1.0
  C  C3177  1  0.769090  0.778420  0.440420  1.0
  C  C3178  1  0.980910  0.971580  0.440420  1.0
  C  C3179  1  0.980910  0.778420  0.309580  1.0
  C  C3180  1  0.769090  0.971580  0.309580  1.0
  C  C3181  1  0.769090  0.278420  0.940420  1.0
  C  C3182  1  0.980910  0.471580  0.940420  1.0
  C  C3183  1  0.980910  0.278420  0.809580  1.0
  C  C3184  1  0.769090  0.471580  0.809580  1.0
  C  C3185  1  0.730910  0.221580  0.059580  1.0
  C  C3186  1  0.519090  0.028420  0.059580  1.0
  C  C3187  1  0.519090  0.221580  0.190420  1.0
  C  C3188  1  0.730910  0.028420  0.190420  1.0
  C  C3189  1  0.730910  0.721580  0.559580  1.0
  C  C3190  1  0.519090  0.528420  0.559580  1.0
  C  C3191  1  0.519090  0.721580  0.690420  1.0
  C  C3192  1  0.730910  0.528420  0.690420  1.0
  C  C3193  1  0.230910  0.221580  0.559580  1.0
  C  C3194  1  0.019090  0.028420  0.559580  1.0
  C  C3195  1  0.019090  0.221580  0.690420  1.0
  C  C3196  1  0.230910  0.028420  0.690420  1.0
  C  C3197  1  0.230910  0.721580  0.059580  1.0
  C  C3198  1  0.019090  0.528420  0.059580  1.0
  C  C3199  1  0.019090  0.721580  0.190420  1.0
  C  C3200  1  0.230910  0.528420  0.190420  1.0
  C  C3201  1  0.247830  0.768250  0.927070  1.0
  C  C3202  1  0.502170  0.981750  0.927070  1.0
  C  C3203  1  0.502170  0.768250  0.822930  1.0
  C  C3204  1  0.247830  0.981750  0.822930  1.0
  C  C3205  1  0.247830  0.268250  0.427070  1.0
  C  C3206  1  0.502170  0.481750  0.427070  1.0
  C  C3207  1  0.502170  0.268250  0.322930  1.0
  C  C3208  1  0.247830  0.481750  0.322930  1.0
  C  C3209  1  0.747830  0.768250  0.427070  1.0
  C  C3210  1  0.002170  0.981750  0.427070  1.0
  C  C3211  1  0.002170  0.768250  0.322930  1.0
  C  C3212  1  0.747830  0.981750  0.322930  1.0
  C  C3213  1  0.747830  0.268250  0.927070  1.0
  C  C3214  1  0.002170  0.481750  0.927070  1.0
  C  C3215  1  0.002170  0.268250  0.822930  1.0
  C  C3216  1  0.747830  0.481750  0.822930  1.0
  C  C3217  1  0.752170  0.231750  0.072930  1.0
  C  C3218  1  0.497830  0.018250  0.072930  1.0
  C  C3219  1  0.497830  0.231750  0.177070  1.0
  C  C3220  1  0.752170  0.018250  0.177070  1.0
  C  C3221  1  0.752170  0.731750  0.572930  1.0
  C  C3222  1  0.497830  0.518250  0.572930  1.0
  C  C3223  1  0.497830  0.731750  0.677070  1.0
  C  C3224  1  0.752170  0.518250  0.677070  1.0
  C  C3225  1  0.252170  0.231750  0.572930  1.0
  C  C3226  1  0.997830  0.018250  0.572930  1.0
  C  C3227  1  0.997830  0.231750  0.677070  1.0
  C  C3228  1  0.252170  0.018250  0.677070  1.0
  C  C3229  1  0.252170  0.731750  0.072930  1.0
  C  C3230  1  0.997830  0.518250  0.072930  1.0
  C  C3231  1  0.997830  0.731750  0.177070  1.0
  C  C3232  1  0.252170  0.518250  0.177070  1.0
  C  C3233  1  0.208150  0.777980  0.919850  1.0
  C  C3234  1  0.541850  0.972020  0.919850  1.0
  C  C3235  1  0.541850  0.777980  0.830150  1.0
  C  C3236  1  0.208150  0.972020  0.830150  1.0
  C  C3237  1  0.208150  0.277980  0.419850  1.0
  C  C3238  1  0.541850  0.472020  0.419850  1.0
  C  C3239  1  0.541850  0.277980  0.330150  1.0
  C  C3240  1  0.208150  0.472020  0.330150  1.0
  C  C3241  1  0.708150  0.777980  0.419850  1.0
  C  C3242  1  0.041850  0.972020  0.419850  1.0
  C  C3243  1  0.041850  0.777980  0.330150  1.0
  C  C3244  1  0.708150  0.972020  0.330150  1.0
  C  C3245  1  0.708150  0.277980  0.919850  1.0
  C  C3246  1  0.041850  0.472020  0.919850  1.0
  C  C3247  1  0.041850  0.277980  0.830150  1.0
  C  C3248  1  0.708150  0.472020  0.830150  1.0
  C  C3249  1  0.791850  0.222020  0.080150  1.0
  C  C3250  1  0.458150  0.027980  0.080150  1.0
  C  C3251  1  0.458150  0.222020  0.169850  1.0
  C  C3252  1  0.791850  0.027980  0.169850  1.0
  C  C3253  1  0.791850  0.722020  0.580150  1.0
  C  C3254  1  0.458150  0.527980  0.580150  1.0
  C  C3255  1  0.458150  0.722020  0.669850  1.0
  C  C3256  1  0.791850  0.527980  0.669850  1.0
  C  C3257  1  0.291850  0.222020  0.580150  1.0
  C  C3258  1  0.958150  0.027980  0.580150  1.0
  C  C3259  1  0.958150  0.222020  0.669850  1.0
  C  C3260  1  0.291850  0.027980  0.669850  1.0
  C  C3261  1  0.291850  0.722020  0.080150  1.0
  C  C3262  1  0.958150  0.527980  0.080150  1.0
  C  C3263  1  0.958150  0.722020  0.169850  1.0
  C  C3264  1  0.291850  0.527980  0.169850  1.0
  C  C3265  1  0.189740  0.797890  0.925970  1.0
  C  C3266  1  0.560260  0.952110  0.925970  1.0
  C  C3267  1  0.560260  0.797890  0.824030  1.0
  C  C3268  1  0.189740  0.952110  0.824030  1.0
  C  C3269  1  0.189740  0.297890  0.425970  1.0
  C  C3270  1  0.560260  0.452110  0.425970  1.0
  C  C3271  1  0.560260  0.297890  0.324030  1.0
  C  C3272  1  0.189740  0.452110  0.324030  1.0
  C  C3273  1  0.689740  0.797890  0.425970  1.0
  C  C3274  1  0.060260  0.952110  0.425970  1.0
  C  C3275  1  0.060260  0.797890  0.324030  1.0
  C  C3276  1  0.689740  0.952110  0.324030  1.0
  C  C3277  1  0.689740  0.297890  0.925970  1.0
  C  C3278  1  0.060260  0.452110  0.925970  1.0
  C  C3279  1  0.060260  0.297890  0.824030  1.0
  C  C3280  1  0.689740  0.452110  0.824030  1.0
  C  C3281  1  0.810260  0.202110  0.074030  1.0
  C  C3282  1  0.439740  0.047890  0.074030  1.0
  C  C3283  1  0.439740  0.202110  0.175970  1.0
  C  C3284  1  0.810260  0.047890  0.175970  1.0
  C  C3285  1  0.810260  0.702110  0.574030  1.0
  C  C3286  1  0.439740  0.547890  0.574030  1.0
  C  C3287  1  0.439740  0.702110  0.675970  1.0
  C  C3288  1  0.810260  0.547890  0.675970  1.0
  C  C3289  1  0.310260  0.202110  0.574030  1.0
  C  C3290  1  0.939740  0.047890  0.574030  1.0
  C  C3291  1  0.939740  0.202110  0.675970  1.0
  C  C3292  1  0.310260  0.047890  0.675970  1.0
  C  C3293  1  0.310260  0.702110  0.074030  1.0
  C  C3294  1  0.939740  0.547890  0.074030  1.0
  C  C3295  1  0.939740  0.702110  0.175970  1.0
  C  C3296  1  0.310260  0.547890  0.175970  1.0
  C  C3297  1  0.183100  0.766300  0.905830  1.0
  C  C3298  1  0.566900  0.983700  0.905830  1.0
  C  C3299  1  0.566900  0.766300  0.844170  1.0
  C  C3300  1  0.183100  0.983700  0.844170  1.0
  C  C3301  1  0.183100  0.266300  0.405830  1.0
  C  C3302  1  0.566900  0.483700  0.405830  1.0
  C  C3303  1  0.566900  0.266300  0.344170  1.0
  C  C3304  1  0.183100  0.483700  0.344170  1.0
  C  C3305  1  0.683100  0.766300  0.405830  1.0
  C  C3306  1  0.066900  0.983700  0.405830  1.0
  C  C3307  1  0.066900  0.766300  0.344170  1.0
  C  C3308  1  0.683100  0.983700  0.344170  1.0
  C  C3309  1  0.683100  0.266300  0.905830  1.0
  C  C3310  1  0.066900  0.483700  0.905830  1.0
  C  C3311  1  0.066900  0.266300  0.844170  1.0
  C  C3312  1  0.683100  0.483700  0.844170  1.0
  C  C3313  1  0.816900  0.233700  0.094170  1.0
  C  C3314  1  0.433100  0.016300  0.094170  1.0
  C  C3315  1  0.433100  0.233700  0.155830  1.0
  C  C3316  1  0.816900  0.016300  0.155830  1.0
  C  C3317  1  0.816900  0.733700  0.594170  1.0
  C  C3318  1  0.433100  0.516300  0.594170  1.0
  C  C3319  1  0.433100  0.733700  0.655830  1.0
  C  C3320  1  0.816900  0.516300  0.655830  1.0
  C  C3321  1  0.316900  0.233700  0.594170  1.0
  C  C3322  1  0.933100  0.016300  0.594170  1.0
  C  C3323  1  0.933100  0.233700  0.655830  1.0
  C  C3324  1  0.316900  0.016300  0.655830  1.0
  C  C3325  1  0.316900  0.733700  0.094170  1.0
  C  C3326  1  0.933100  0.516300  0.094170  1.0
  C  C3327  1  0.933100  0.733700  0.155830  1.0
  C  C3328  1  0.316900  0.516300  0.155830  1.0
  C  C3329  1  0.311810  0.767520  0.948930  1.0
  C  C3330  1  0.438190  0.982480  0.948930  1.0
  C  C3331  1  0.438190  0.767520  0.801070  1.0
  C  C3332  1  0.311810  0.982480  0.801070  1.0
  C  C3333  1  0.311810  0.267520  0.448930  1.0
  C  C3334  1  0.438190  0.482480  0.448930  1.0
  C  C3335  1  0.438190  0.267520  0.301070  1.0
  C  C3336  1  0.311810  0.482480  0.301070  1.0
  C  C3337  1  0.811810  0.767520  0.448930  1.0
  C  C3338  1  0.938190  0.982480  0.448930  1.0
  C  C3339  1  0.938190  0.767520  0.301070  1.0
  C  C3340  1  0.811810  0.982480  0.301070  1.0
  C  C3341  1  0.811810  0.267520  0.948930  1.0
  C  C3342  1  0.938190  0.482480  0.948930  1.0
  C  C3343  1  0.938190  0.267520  0.801070  1.0
  C  C3344  1  0.811810  0.482480  0.801070  1.0
  C  C3345  1  0.688190  0.232480  0.051070  1.0
  C  C3346  1  0.561810  0.017520  0.051070  1.0
  C  C3347  1  0.561810  0.232480  0.198930  1.0
  C  C3348  1  0.688190  0.017520  0.198930  1.0
  C  C3349  1  0.688190  0.732480  0.551070  1.0
  C  C3350  1  0.561810  0.517520  0.551070  1.0
  C  C3351  1  0.561810  0.732480  0.698930  1.0
  C  C3352  1  0.688190  0.517520  0.698930  1.0
  C  C3353  1  0.188190  0.232480  0.551070  1.0
  C  C3354  1  0.061810  0.017520  0.551070  1.0
  C  C3355  1  0.061810  0.232480  0.698930  1.0
  C  C3356  1  0.188190  0.017520  0.698930  1.0
  C  C3357  1  0.188190  0.732480  0.051070  1.0
  C  C3358  1  0.061810  0.517520  0.051070  1.0
  C  C3359  1  0.061810  0.732480  0.198930  1.0
  C  C3360  1  0.188190  0.517520  0.198930  1.0
  C  C3361  1  0.298100  0.760130  0.966150  1.0
  C  C3362  1  0.451900  0.989870  0.966150  1.0
  C  C3363  1  0.451900  0.760130  0.783850  1.0
  C  C3364  1  0.298100  0.989870  0.783850  1.0
  C  C3365  1  0.298100  0.260130  0.466150  1.0
  C  C3366  1  0.451900  0.489870  0.466150  1.0
  C  C3367  1  0.451900  0.260130  0.283850  1.0
  C  C3368  1  0.298100  0.489870  0.283850  1.0
  C  C3369  1  0.798100  0.760130  0.466150  1.0
  C  C3370  1  0.951900  0.989870  0.466150  1.0
  C  C3371  1  0.951900  0.760130  0.283850  1.0
  C  C3372  1  0.798100  0.989870  0.283850  1.0
  C  C3373  1  0.798100  0.260130  0.966150  1.0
  C  C3374  1  0.951900  0.489870  0.966150  1.0
  C  C3375  1  0.951900  0.260130  0.783850  1.0
  C  C3376  1  0.798100  0.489870  0.783850  1.0
  C  C3377  1  0.701900  0.239870  0.033850  1.0
  C  C3378  1  0.548100  0.010130  0.033850  1.0
  C  C3379  1  0.548100  0.239870  0.216150  1.0
  C  C3380  1  0.701900  0.010130  0.216150  1.0
  C  C3381  1  0.701900  0.739870  0.533850  1.0
  C  C3382  1  0.548100  0.510130  0.533850  1.0
  C  C3383  1  0.548100  0.739870  0.716150  1.0
  C  C3384  1  0.701900  0.510130  0.716150  1.0
  C  C3385  1  0.201900  0.239870  0.533850  1.0
  C  C3386  1  0.048100  0.010130  0.533850  1.0
  C  C3387  1  0.048100  0.239870  0.716150  1.0
  C  C3388  1  0.201900  0.010130  0.716150  1.0
  C  C3389  1  0.201900  0.739870  0.033850  1.0
  C  C3390  1  0.048100  0.510130  0.033850  1.0
  C  C3391  1  0.048100  0.739870  0.216150  1.0
  C  C3392  1  0.201900  0.510130  0.216150  1.0
  C  C3393  1  0.353230  0.784180  0.950090  1.0
  C  C3394  1  0.396770  0.965820  0.950090  1.0
  C  C3395  1  0.396770  0.784180  0.799910  1.0
  C  C3396  1  0.353230  0.965820  0.799910  1.0
  C  C3397  1  0.353230  0.284180  0.450090  1.0
  C  C3398  1  0.396770  0.465820  0.450090  1.0
  C  C3399  1  0.396770  0.284180  0.299910  1.0
  C  C3400  1  0.353230  0.465820  0.299910  1.0
  C  C3401  1  0.853230  0.784180  0.450090  1.0
  C  C3402  1  0.896770  0.965820  0.450090  1.0
  C  C3403  1  0.896770  0.784180  0.299910  1.0
  C  C3404  1  0.853230  0.965820  0.299910  1.0
  C  C3405  1  0.853230  0.284180  0.950090  1.0
  C  C3406  1  0.896770  0.465820  0.950090  1.0
  C  C3407  1  0.896770  0.284180  0.799910  1.0
  C  C3408  1  0.853230  0.465820  0.799910  1.0
  C  C3409  1  0.646770  0.215820  0.049910  1.0
  C  C3410  1  0.603230  0.034180  0.049910  1.0
  C  C3411  1  0.603230  0.215820  0.200090  1.0
  C  C3412  1  0.646770  0.034180  0.200090  1.0
  C  C3413  1  0.646770  0.715820  0.549910  1.0
  C  C3414  1  0.603230  0.534180  0.549910  1.0
  C  C3415  1  0.603230  0.715820  0.700090  1.0
  C  C3416  1  0.646770  0.534180  0.700090  1.0
  C  C3417  1  0.146770  0.215820  0.549910  1.0
  C  C3418  1  0.103230  0.034180  0.549910  1.0
  C  C3419  1  0.103230  0.215820  0.700090  1.0
  C  C3420  1  0.146770  0.034180  0.700090  1.0
  C  C3421  1  0.146770  0.715820  0.049910  1.0
  C  C3422  1  0.103230  0.534180  0.049910  1.0
  C  C3423  1  0.103230  0.715820  0.200090  1.0
  C  C3424  1  0.146770  0.534180  0.200090  1.0
  C  C3425  1  0.328600  0.746900  0.939400  1.0
  C  C3426  1  0.421400  0.003100  0.939400  1.0
  C  C3427  1  0.421400  0.746900  0.810600  1.0
  C  C3428  1  0.328600  0.003100  0.810600  1.0
  C  C3429  1  0.328600  0.246900  0.439400  1.0
  C  C3430  1  0.421400  0.503100  0.439400  1.0
  C  C3431  1  0.421400  0.246900  0.310600  1.0
  C  C3432  1  0.328600  0.503100  0.310600  1.0
  C  C3433  1  0.828600  0.746900  0.439400  1.0
  C  C3434  1  0.921400  0.003100  0.439400  1.0
  C  C3435  1  0.921400  0.746900  0.310600  1.0
  C  C3436  1  0.828600  0.003100  0.310600  1.0
  C  C3437  1  0.828600  0.246900  0.939400  1.0
  C  C3438  1  0.921400  0.503100  0.939400  1.0
  C  C3439  1  0.921400  0.246900  0.810600  1.0
  C  C3440  1  0.828600  0.503100  0.810600  1.0
  C  C3441  1  0.671400  0.253100  0.060600  1.0
  C  C3442  1  0.578600  0.996900  0.060600  1.0
  C  C3443  1  0.578600  0.253100  0.189400  1.0
  C  C3444  1  0.671400  0.996900  0.189400  1.0
  C  C3445  1  0.671400  0.753100  0.560600  1.0
  C  C3446  1  0.578600  0.496900  0.560600  1.0
  C  C3447  1  0.578600  0.753100  0.689400  1.0
  C  C3448  1  0.671400  0.496900  0.689400  1.0
  C  C3449  1  0.171400  0.253100  0.560600  1.0
  C  C3450  1  0.078600  0.996900  0.560600  1.0
  C  C3451  1  0.078600  0.253100  0.689400  1.0
  C  C3452  1  0.171400  0.996900  0.689400  1.0
  C  C3453  1  0.171400  0.753100  0.060600  1.0
  C  C3454  1  0.078600  0.496900  0.060600  1.0
  C  C3455  1  0.078600  0.753100  0.189400  1.0
  C  C3456  1  0.171400  0.496900  0.189400  1.0
  C  C3457  1  0.094900  0.726950  0.906110  1.0
  C  C3458  1  0.655100  0.023050  0.906110  1.0
  C  C3459  1  0.655100  0.726950  0.843890  1.0
  C  C3460  1  0.094900  0.023050  0.843890  1.0
  C  C3461  1  0.094900  0.226950  0.406110  1.0
  C  C3462  1  0.655100  0.523050  0.406110  1.0
  C  C3463  1  0.655100  0.226950  0.343890  1.0
  C  C3464  1  0.094900  0.523050  0.343890  1.0
  C  C3465  1  0.594900  0.726950  0.406110  1.0
  C  C3466  1  0.155100  0.023050  0.406110  1.0
  C  C3467  1  0.155100  0.726950  0.343890  1.0
  C  C3468  1  0.594900  0.023050  0.343890  1.0
  C  C3469  1  0.594900  0.226950  0.906110  1.0
  C  C3470  1  0.155100  0.523050  0.906110  1.0
  C  C3471  1  0.155100  0.226950  0.843890  1.0
  C  C3472  1  0.594900  0.523050  0.843890  1.0
  C  C3473  1  0.905100  0.273050  0.093890  1.0
  C  C3474  1  0.344900  0.976950  0.093890  1.0
  C  C3475  1  0.344900  0.273050  0.156110  1.0
  C  C3476  1  0.905100  0.976950  0.156110  1.0
  C  C3477  1  0.905100  0.773050  0.593890  1.0
  C  C3478  1  0.344900  0.476950  0.593890  1.0
  C  C3479  1  0.344900  0.773050  0.656110  1.0
  C  C3480  1  0.905100  0.476950  0.656110  1.0
  C  C3481  1  0.405100  0.273050  0.593890  1.0
  C  C3482  1  0.844900  0.976950  0.593890  1.0
  C  C3483  1  0.844900  0.273050  0.656110  1.0
  C  C3484  1  0.405100  0.976950  0.656110  1.0
  C  C3485  1  0.405100  0.773050  0.093890  1.0
  C  C3486  1  0.844900  0.476950  0.093890  1.0
  C  C3487  1  0.844900  0.773050  0.156110  1.0
  C  C3488  1  0.405100  0.476950  0.156110  1.0
  C  C3489  1  0.068670  0.716140  0.919930  1.0
  C  C3490  1  0.681330  0.033860  0.919930  1.0
  C  C3491  1  0.681330  0.716140  0.830070  1.0
  C  C3492  1  0.068670  0.033860  0.830070  1.0
  C  C3493  1  0.068670  0.216140  0.419930  1.0
  C  C3494  1  0.681330  0.533860  0.419930  1.0
  C  C3495  1  0.681330  0.216140  0.330070  1.0
  C  C3496  1  0.068670  0.533860  0.330070  1.0
  C  C3497  1  0.568670  0.716140  0.419930  1.0
  C  C3498  1  0.181330  0.033860  0.419930  1.0
  C  C3499  1  0.181330  0.716140  0.330070  1.0
  C  C3500  1  0.568670  0.033860  0.330070  1.0
  C  C3501  1  0.568670  0.216140  0.919930  1.0
  C  C3502  1  0.181330  0.533860  0.919930  1.0
  C  C3503  1  0.181330  0.216140  0.830070  1.0
  C  C3504  1  0.568670  0.533860  0.830070  1.0
  C  C3505  1  0.931330  0.283860  0.080070  1.0
  C  C3506  1  0.318670  0.966140  0.080070  1.0
  C  C3507  1  0.318670  0.283860  0.169930  1.0
  C  C3508  1  0.931330  0.966140  0.169930  1.0
  C  C3509  1  0.931330  0.783860  0.580070  1.0
  C  C3510  1  0.318670  0.466140  0.580070  1.0
  C  C3511  1  0.318670  0.783860  0.669930  1.0
  C  C3512  1  0.931330  0.466140  0.669930  1.0
  C  C3513  1  0.431330  0.283860  0.580070  1.0
  C  C3514  1  0.818670  0.966140  0.580070  1.0
  C  C3515  1  0.818670  0.283860  0.669930  1.0
  C  C3516  1  0.431330  0.966140  0.669930  1.0
  C  C3517  1  0.431330  0.783860  0.080070  1.0
  C  C3518  1  0.818670  0.466140  0.080070  1.0
  C  C3519  1  0.818670  0.783860  0.169930  1.0
  C  C3520  1  0.431330  0.466140  0.169930  1.0
  C  C3521  1  0.083380  0.695530  0.926020  1.0
  C  C3522  1  0.666620  0.054470  0.926020  1.0
  C  C3523  1  0.666620  0.695530  0.823980  1.0
  C  C3524  1  0.083380  0.054470  0.823980  1.0
  C  C3525  1  0.083380  0.195530  0.426020  1.0
  C  C3526  1  0.666620  0.554470  0.426020  1.0
  C  C3527  1  0.666620  0.195530  0.323980  1.0
  C  C3528  1  0.083380  0.554470  0.323980  1.0
  C  C3529  1  0.583380  0.695530  0.426020  1.0
  C  C3530  1  0.166620  0.054470  0.426020  1.0
  C  C3531  1  0.166620  0.695530  0.323980  1.0
  C  C3532  1  0.583380  0.054470  0.323980  1.0
  C  C3533  1  0.583380  0.195530  0.926020  1.0
  C  C3534  1  0.166620  0.554470  0.926020  1.0
  C  C3535  1  0.166620  0.195530  0.823980  1.0
  C  C3536  1  0.583380  0.554470  0.823980  1.0
  C  C3537  1  0.916620  0.304470  0.073980  1.0
  C  C3538  1  0.333380  0.945530  0.073980  1.0
  C  C3539  1  0.333380  0.304470  0.176020  1.0
  C  C3540  1  0.916620  0.945530  0.176020  1.0
  C  C3541  1  0.916620  0.804470  0.573980  1.0
  C  C3542  1  0.333380  0.445530  0.573980  1.0
  C  C3543  1  0.333380  0.804470  0.676020  1.0
  C  C3544  1  0.916620  0.445530  0.676020  1.0
  C  C3545  1  0.416620  0.304470  0.573980  1.0
  C  C3546  1  0.833380  0.945530  0.573980  1.0
  C  C3547  1  0.833380  0.304470  0.676020  1.0
  C  C3548  1  0.416620  0.945530  0.676020  1.0
  C  C3549  1  0.416620  0.804470  0.073980  1.0
  C  C3550  1  0.833380  0.445530  0.073980  1.0
  C  C3551  1  0.833380  0.804470  0.176020  1.0
  C  C3552  1  0.416620  0.445530  0.176020  1.0
  C  C3553  1  0.061340  0.686550  0.939670  1.0
  C  C3554  1  0.688660  0.063450  0.939670  1.0
  C  C3555  1  0.688660  0.686550  0.810330  1.0
  C  C3556  1  0.061340  0.063450  0.810330  1.0
  C  C3557  1  0.061340  0.186550  0.439670  1.0
  C  C3558  1  0.688660  0.563450  0.439670  1.0
  C  C3559  1  0.688660  0.186550  0.310330  1.0
  C  C3560  1  0.061340  0.563450  0.310330  1.0
  C  C3561  1  0.561340  0.686550  0.439670  1.0
  C  C3562  1  0.188660  0.063450  0.439670  1.0
  C  C3563  1  0.188660  0.686550  0.310330  1.0
  C  C3564  1  0.561340  0.063450  0.310330  1.0
  C  C3565  1  0.561340  0.186550  0.939670  1.0
  C  C3566  1  0.188660  0.563450  0.939670  1.0
  C  C3567  1  0.188660  0.186550  0.810330  1.0
  C  C3568  1  0.561340  0.563450  0.810330  1.0
  C  C3569  1  0.938660  0.313450  0.060330  1.0
  C  C3570  1  0.311340  0.936550  0.060330  1.0
  C  C3571  1  0.311340  0.313450  0.189670  1.0
  C  C3572  1  0.938660  0.936550  0.189670  1.0
  C  C3573  1  0.938660  0.813450  0.560330  1.0
  C  C3574  1  0.311340  0.436550  0.560330  1.0
  C  C3575  1  0.311340  0.813450  0.689670  1.0
  C  C3576  1  0.938660  0.436550  0.689670  1.0
  C  C3577  1  0.438660  0.313450  0.560330  1.0
  C  C3578  1  0.811340  0.936550  0.560330  1.0
  C  C3579  1  0.811340  0.313450  0.689670  1.0
  C  C3580  1  0.438660  0.936550  0.689670  1.0
  C  C3581  1  0.438660  0.813450  0.060330  1.0
  C  C3582  1  0.811340  0.436550  0.060330  1.0
  C  C3583  1  0.811340  0.813450  0.189670  1.0
  C  C3584  1  0.438660  0.436550  0.189670  1.0
  C  C3585  1  0.024600  0.698170  0.947230  1.0
  C  C3586  1  0.725400  0.051830  0.947230  1.0
  C  C3587  1  0.725400  0.698170  0.802770  1.0
  C  C3588  1  0.024600  0.051830  0.802770  1.0
  C  C3589  1  0.024600  0.198170  0.447230  1.0
  C  C3590  1  0.725400  0.551830  0.447230  1.0
  C  C3591  1  0.725400  0.198170  0.302770  1.0
  C  C3592  1  0.024600  0.551830  0.302770  1.0
  C  C3593  1  0.524600  0.698170  0.447230  1.0
  C  C3594  1  0.225400  0.051830  0.447230  1.0
  C  C3595  1  0.225400  0.698170  0.302770  1.0
  C  C3596  1  0.524600  0.051830  0.302770  1.0
  C  C3597  1  0.524600  0.198170  0.947230  1.0
  C  C3598  1  0.225400  0.551830  0.947230  1.0
  C  C3599  1  0.225400  0.198170  0.802770  1.0
  C  C3600  1  0.524600  0.551830  0.802770  1.0
  C  C3601  1  0.975400  0.301830  0.052770  1.0
  C  C3602  1  0.274600  0.948170  0.052770  1.0
  C  C3603  1  0.274600  0.301830  0.197230  1.0
  C  C3604  1  0.975400  0.948170  0.197230  1.0
  C  C3605  1  0.975400  0.801830  0.552770  1.0
  C  C3606  1  0.274600  0.448170  0.552770  1.0
  C  C3607  1  0.274600  0.801830  0.697230  1.0
  C  C3608  1  0.975400  0.448170  0.697230  1.0
  C  C3609  1  0.475400  0.301830  0.552770  1.0
  C  C3610  1  0.774600  0.948170  0.552770  1.0
  C  C3611  1  0.774600  0.301830  0.697230  1.0
  C  C3612  1  0.475400  0.948170  0.697230  1.0
  C  C3613  1  0.475400  0.801830  0.052770  1.0
  C  C3614  1  0.774600  0.448170  0.052770  1.0
  C  C3615  1  0.774600  0.801830  0.197230  1.0
  C  C3616  1  0.475400  0.448170  0.197230  1.0
  C  C3617  1  0.009890  0.718780  0.941140  1.0
  C  C3618  1  0.740110  0.031220  0.941140  1.0
  C  C3619  1  0.740110  0.718780  0.808860  1.0
  C  C3620  1  0.009890  0.031220  0.808860  1.0
  C  C3621  1  0.009890  0.218780  0.441140  1.0
  C  C3622  1  0.740110  0.531220  0.441140  1.0
  C  C3623  1  0.740110  0.218780  0.308860  1.0
  C  C3624  1  0.009890  0.531220  0.308860  1.0
  C  C3625  1  0.509890  0.718780  0.441140  1.0
  C  C3626  1  0.240110  0.031220  0.441140  1.0
  C  C3627  1  0.240110  0.718780  0.308860  1.0
  C  C3628  1  0.509890  0.031220  0.308860  1.0
  C  C3629  1  0.509890  0.218780  0.941140  1.0
  C  C3630  1  0.240110  0.531220  0.941140  1.0
  C  C3631  1  0.240110  0.218780  0.808860  1.0
  C  C3632  1  0.509890  0.531220  0.808860  1.0
  C  C3633  1  0.990110  0.281220  0.058860  1.0
  C  C3634  1  0.259890  0.968780  0.058860  1.0
  C  C3635  1  0.259890  0.281220  0.191140  1.0
  C  C3636  1  0.990110  0.968780  0.191140  1.0
  C  C3637  1  0.990110  0.781220  0.558860  1.0
  C  C3638  1  0.259890  0.468780  0.558860  1.0
  C  C3639  1  0.259890  0.781220  0.691140  1.0
  C  C3640  1  0.990110  0.468780  0.691140  1.0
  C  C3641  1  0.490110  0.281220  0.558860  1.0
  C  C3642  1  0.759890  0.968780  0.558860  1.0
  C  C3643  1  0.759890  0.281220  0.691140  1.0
  C  C3644  1  0.490110  0.968780  0.691140  1.0
  C  C3645  1  0.490110  0.781220  0.058860  1.0
  C  C3646  1  0.759890  0.468780  0.058860  1.0
  C  C3647  1  0.759890  0.781220  0.191140  1.0
  C  C3648  1  0.490110  0.468780  0.191140  1.0
  C  C3649  1  0.031930  0.727760  0.927490  1.0
  C  C3650  1  0.718070  0.022240  0.927490  1.0
  C  C3651  1  0.718070  0.727760  0.822510  1.0
  C  C3652  1  0.031930  0.022240  0.822510  1.0
  C  C3653  1  0.031930  0.227760  0.427490  1.0
  C  C3654  1  0.718070  0.522240  0.427490  1.0
  C  C3655  1  0.718070  0.227760  0.322510  1.0
  C  C3656  1  0.031930  0.522240  0.322510  1.0
  C  C3657  1  0.531930  0.727760  0.427490  1.0
  C  C3658  1  0.218070  0.022240  0.427490  1.0
  C  C3659  1  0.218070  0.727760  0.322510  1.0
  C  C3660  1  0.531930  0.022240  0.322510  1.0
  C  C3661  1  0.531930  0.227760  0.927490  1.0
  C  C3662  1  0.218070  0.522240  0.927490  1.0
  C  C3663  1  0.218070  0.227760  0.822510  1.0
  C  C3664  1  0.531930  0.522240  0.822510  1.0
  C  C3665  1  0.968070  0.272240  0.072510  1.0
  C  C3666  1  0.281930  0.977760  0.072510  1.0
  C  C3667  1  0.281930  0.272240  0.177490  1.0
  C  C3668  1  0.968070  0.977760  0.177490  1.0
  C  C3669  1  0.968070  0.772240  0.572510  1.0
  C  C3670  1  0.281930  0.477760  0.572510  1.0
  C  C3671  1  0.281930  0.772240  0.677490  1.0
  C  C3672  1  0.968070  0.477760  0.677490  1.0
  C  C3673  1  0.468070  0.272240  0.572510  1.0
  C  C3674  1  0.781930  0.977760  0.572510  1.0
  C  C3675  1  0.781930  0.272240  0.677490  1.0
  C  C3676  1  0.468070  0.977760  0.677490  1.0
  C  C3677  1  0.468070  0.772240  0.072510  1.0
  C  C3678  1  0.781930  0.477760  0.072510  1.0
  C  C3679  1  0.781930  0.772240  0.177490  1.0
  C  C3680  1  0.468070  0.477760  0.177490  1.0
  C  C3681  1  0.075610  0.663200  0.945790  1.0
  C  C3682  1  0.674390  0.086800  0.945790  1.0
  C  C3683  1  0.674390  0.663200  0.804210  1.0
  C  C3684  1  0.075610  0.086800  0.804210  1.0
  C  C3685  1  0.075610  0.163200  0.445790  1.0
  C  C3686  1  0.674390  0.586800  0.445790  1.0
  C  C3687  1  0.674390  0.163200  0.304210  1.0
  C  C3688  1  0.075610  0.586800  0.304210  1.0
  C  C3689  1  0.575610  0.663200  0.445790  1.0
  C  C3690  1  0.174390  0.086800  0.445790  1.0
  C  C3691  1  0.174390  0.663200  0.304210  1.0
  C  C3692  1  0.575610  0.086800  0.304210  1.0
  C  C3693  1  0.575610  0.163200  0.945790  1.0
  C  C3694  1  0.174390  0.586800  0.945790  1.0
  C  C3695  1  0.174390  0.163200  0.804210  1.0
  C  C3696  1  0.575610  0.586800  0.804210  1.0
  C  C3697  1  0.924390  0.336800  0.054210  1.0
  C  C3698  1  0.325610  0.913200  0.054210  1.0
  C  C3699  1  0.325610  0.336800  0.195790  1.0
  C  C3700  1  0.924390  0.913200  0.195790  1.0
  C  C3701  1  0.924390  0.836800  0.554210  1.0
  C  C3702  1  0.325610  0.413200  0.554210  1.0
  C  C3703  1  0.325610  0.836800  0.695790  1.0
  C  C3704  1  0.924390  0.413200  0.695790  1.0
  C  C3705  1  0.424390  0.336800  0.554210  1.0
  C  C3706  1  0.825610  0.913200  0.554210  1.0
  C  C3707  1  0.825610  0.336800  0.695790  1.0
  C  C3708  1  0.424390  0.913200  0.695790  1.0
  C  C3709  1  0.424390  0.836800  0.054210  1.0
  C  C3710  1  0.825610  0.413200  0.054210  1.0
  C  C3711  1  0.825610  0.836800  0.195790  1.0
  C  C3712  1  0.424390  0.413200  0.195790  1.0
  C  C3713  1  0.129950  0.661110  0.946580  1.0
  C  C3714  1  0.620050  0.088890  0.946580  1.0
  C  C3715  1  0.620050  0.661110  0.803420  1.0
  C  C3716  1  0.129950  0.088890  0.803420  1.0
  C  C3717  1  0.129950  0.161110  0.446580  1.0
  C  C3718  1  0.620050  0.588890  0.446580  1.0
  C  C3719  1  0.620050  0.161110  0.303420  1.0
  C  C3720  1  0.129950  0.588890  0.303420  1.0
  C  C3721  1  0.629950  0.661110  0.446580  1.0
  C  C3722  1  0.120050  0.088890  0.446580  1.0
  C  C3723  1  0.120050  0.661110  0.303420  1.0
  C  C3724  1  0.629950  0.088890  0.303420  1.0
  C  C3725  1  0.629950  0.161110  0.946580  1.0
  C  C3726  1  0.120050  0.588890  0.946580  1.0
  C  C3727  1  0.120050  0.161110  0.803420  1.0
  C  C3728  1  0.629950  0.588890  0.803420  1.0
  C  C3729  1  0.870050  0.338890  0.053420  1.0
  C  C3730  1  0.379950  0.911110  0.053420  1.0
  C  C3731  1  0.379950  0.338890  0.196580  1.0
  C  C3732  1  0.870050  0.911110  0.196580  1.0
  C  C3733  1  0.870050  0.838890  0.553420  1.0
  C  C3734  1  0.379950  0.411110  0.553420  1.0
  C  C3735  1  0.379950  0.838890  0.696580  1.0
  C  C3736  1  0.870050  0.411110  0.696580  1.0
  C  C3737  1  0.370050  0.338890  0.553420  1.0
  C  C3738  1  0.879950  0.911110  0.553420  1.0
  C  C3739  1  0.879950  0.338890  0.696580  1.0
  C  C3740  1  0.370050  0.911110  0.696580  1.0
  C  C3741  1  0.370050  0.838890  0.053420  1.0
  C  C3742  1  0.879950  0.411110  0.053420  1.0
  C  C3743  1  0.879950  0.838890  0.196580  1.0
  C  C3744  1  0.370050  0.411110  0.196580  1.0
  C  C3745  1  0.055300  0.659110  0.962830  1.0
  C  C3746  1  0.694700  0.090890  0.962830  1.0
  C  C3747  1  0.694700  0.659110  0.787170  1.0
  C  C3748  1  0.055300  0.090890  0.787170  1.0
  C  C3749  1  0.055300  0.159110  0.462830  1.0
  C  C3750  1  0.694700  0.590890  0.462830  1.0
  C  C3751  1  0.694700  0.159110  0.287170  1.0
  C  C3752  1  0.055300  0.590890  0.287170  1.0
  C  C3753  1  0.555300  0.659110  0.462830  1.0
  C  C3754  1  0.194700  0.090890  0.462830  1.0
  C  C3755  1  0.194700  0.659110  0.287170  1.0
  C  C3756  1  0.555300  0.090890  0.287170  1.0
  C  C3757  1  0.555300  0.159110  0.962830  1.0
  C  C3758  1  0.194700  0.590890  0.962830  1.0
  C  C3759  1  0.194700  0.159110  0.787170  1.0
  C  C3760  1  0.555300  0.590890  0.787170  1.0
  C  C3761  1  0.944700  0.340890  0.037170  1.0
  C  C3762  1  0.305300  0.909110  0.037170  1.0
  C  C3763  1  0.305300  0.340890  0.212830  1.0
  C  C3764  1  0.944700  0.909110  0.212830  1.0
  C  C3765  1  0.944700  0.840890  0.537170  1.0
  C  C3766  1  0.305300  0.409110  0.537170  1.0
  C  C3767  1  0.305300  0.840890  0.712830  1.0
  C  C3768  1  0.944700  0.409110  0.712830  1.0
  C  C3769  1  0.444700  0.340890  0.537170  1.0
  C  C3770  1  0.805300  0.909110  0.537170  1.0
  C  C3771  1  0.805300  0.340890  0.712830  1.0
  C  C3772  1  0.444700  0.909110  0.712830  1.0
  C  C3773  1  0.444700  0.840890  0.037170  1.0
  C  C3774  1  0.805300  0.409110  0.037170  1.0
  C  C3775  1  0.805300  0.840890  0.212830  1.0
  C  C3776  1  0.444700  0.409110  0.212830  1.0
  C  C3777  1  0.056300  0.645070  0.934340  1.0
  C  C3778  1  0.693700  0.104930  0.934340  1.0
  C  C3779  1  0.693700  0.645070  0.815660  1.0
  C  C3780  1  0.056300  0.104930  0.815660  1.0
  C  C3781  1  0.056300  0.145070  0.434340  1.0
  C  C3782  1  0.693700  0.604930  0.434340  1.0
  C  C3783  1  0.693700  0.145070  0.315660  1.0
  C  C3784  1  0.056300  0.604930  0.315660  1.0
  C  C3785  1  0.556300  0.645070  0.434340  1.0
  C  C3786  1  0.193700  0.104930  0.434340  1.0
  C  C3787  1  0.193700  0.645070  0.315660  1.0
  C  C3788  1  0.556300  0.104930  0.315660  1.0
  C  C3789  1  0.556300  0.145070  0.934340  1.0
  C  C3790  1  0.193700  0.604930  0.934340  1.0
  C  C3791  1  0.193700  0.145070  0.815660  1.0
  C  C3792  1  0.556300  0.604930  0.815660  1.0
  C  C3793  1  0.943700  0.354930  0.065660  1.0
  C  C3794  1  0.306300  0.895070  0.065660  1.0
  C  C3795  1  0.306300  0.354930  0.184340  1.0
  C  C3796  1  0.943700  0.895070  0.184340  1.0
  C  C3797  1  0.943700  0.854930  0.565660  1.0
  C  C3798  1  0.306300  0.395070  0.565660  1.0
  C  C3799  1  0.306300  0.854930  0.684340  1.0
  C  C3800  1  0.943700  0.395070  0.684340  1.0
  C  C3801  1  0.443700  0.354930  0.565660  1.0
  C  C3802  1  0.806300  0.895070  0.565660  1.0
  C  C3803  1  0.806300  0.354930  0.684340  1.0
  C  C3804  1  0.443700  0.895070  0.684340  1.0
  C  C3805  1  0.443700  0.854930  0.065660  1.0
  C  C3806  1  0.806300  0.395070  0.065660  1.0
  C  C3807  1  0.806300  0.854930  0.184340  1.0
  C  C3808  1  0.443700  0.395070  0.184340  1.0
  C  C3809  1  0.970200  0.731550  0.949230  1.0
  C  C3810  1  0.779800  0.018450  0.949230  1.0
  C  C3811  1  0.779800  0.731550  0.800770  1.0
  C  C3812  1  0.970200  0.018450  0.800770  1.0
  C  C3813  1  0.970200  0.231550  0.449230  1.0
  C  C3814  1  0.779800  0.518450  0.449230  1.0
  C  C3815  1  0.779800  0.231550  0.300770  1.0
  C  C3816  1  0.970200  0.518450  0.300770  1.0
  C  C3817  1  0.470200  0.731550  0.449230  1.0
  C  C3818  1  0.279800  0.018450  0.449230  1.0
  C  C3819  1  0.279800  0.731550  0.300770  1.0
  C  C3820  1  0.470200  0.018450  0.300770  1.0
  C  C3821  1  0.470200  0.231550  0.949230  1.0
  C  C3822  1  0.279800  0.518450  0.949230  1.0
  C  C3823  1  0.279800  0.231550  0.800770  1.0
  C  C3824  1  0.470200  0.518450  0.800770  1.0
  C  C3825  1  0.029800  0.268450  0.050770  1.0
  C  C3826  1  0.220200  0.981550  0.050770  1.0
  C  C3827  1  0.220200  0.268450  0.199230  1.0
  C  C3828  1  0.029800  0.981550  0.199230  1.0
  C  C3829  1  0.029800  0.768450  0.550770  1.0
  C  C3830  1  0.220200  0.481550  0.550770  1.0
  C  C3831  1  0.220200  0.768450  0.699230  1.0
  C  C3832  1  0.029800  0.481550  0.699230  1.0
  C  C3833  1  0.529800  0.268450  0.550770  1.0
  C  C3834  1  0.720200  0.981550  0.550770  1.0
  C  C3835  1  0.720200  0.268450  0.699230  1.0
  C  C3836  1  0.529800  0.981550  0.699230  1.0
  C  C3837  1  0.529800  0.768450  0.050770  1.0
  C  C3838  1  0.720200  0.481550  0.050770  1.0
  C  C3839  1  0.720200  0.768450  0.199230  1.0
  C  C3840  1  0.529800  0.481550  0.199230  1.0
  C  C3841  1  0.968500  0.774940  0.977010  1.0
  C  C3842  1  0.781500  0.975060  0.977010  1.0
  C  C3843  1  0.781500  0.774940  0.772990  1.0
  C  C3844  1  0.968500  0.975060  0.772990  1.0
  C  C3845  1  0.968500  0.274940  0.477010  1.0
  C  C3846  1  0.781500  0.475060  0.477010  1.0
  C  C3847  1  0.781500  0.274940  0.272990  1.0
  C  C3848  1  0.968500  0.475060  0.272990  1.0
  C  C3849  1  0.468500  0.774940  0.477010  1.0
  C  C3850  1  0.281500  0.975060  0.477010  1.0
  C  C3851  1  0.281500  0.774940  0.272990  1.0
  C  C3852  1  0.468500  0.975060  0.272990  1.0
  C  C3853  1  0.468500  0.274940  0.977010  1.0
  C  C3854  1  0.281500  0.475060  0.977010  1.0
  C  C3855  1  0.281500  0.274940  0.772990  1.0
  C  C3856  1  0.468500  0.475060  0.772990  1.0
  C  C3857  1  0.031500  0.225060  0.022990  1.0
  C  C3858  1  0.218500  0.024940  0.022990  1.0
  C  C3859  1  0.218500  0.225060  0.227010  1.0
  C  C3860  1  0.031500  0.024940  0.227010  1.0
  C  C3861  1  0.031500  0.725060  0.522990  1.0
  C  C3862  1  0.218500  0.524940  0.522990  1.0
  C  C3863  1  0.218500  0.725060  0.727010  1.0
  C  C3864  1  0.031500  0.524940  0.727010  1.0
  C  C3865  1  0.531500  0.225060  0.522990  1.0
  C  C3866  1  0.718500  0.024940  0.522990  1.0
  C  C3867  1  0.718500  0.225060  0.727010  1.0
  C  C3868  1  0.531500  0.024940  0.727010  1.0
  C  C3869  1  0.531500  0.725060  0.022990  1.0
  C  C3870  1  0.718500  0.524940  0.022990  1.0
  C  C3871  1  0.718500  0.725060  0.227010  1.0
  C  C3872  1  0.531500  0.524940  0.227010  1.0
  C  C3873  1  0.007090  0.789660  0.986200  1.0
  C  C3874  1  0.742910  0.960340  0.986200  1.0
  C  C3875  1  0.742910  0.789660  0.763800  1.0
  C  C3876  1  0.007090  0.960340  0.763800  1.0
  C  C3877  1  0.007090  0.289660  0.486200  1.0
  C  C3878  1  0.742910  0.460340  0.486200  1.0
  C  C3879  1  0.742910  0.289660  0.263800  1.0
  C  C3880  1  0.007090  0.460340  0.263800  1.0
  C  C3881  1  0.507090  0.789660  0.486200  1.0
  C  C3882  1  0.242910  0.960340  0.486200  1.0
  C  C3883  1  0.242910  0.789660  0.263800  1.0
  C  C3884  1  0.507090  0.960340  0.263800  1.0
  C  C3885  1  0.507090  0.289660  0.986200  1.0
  C  C3886  1  0.242910  0.460340  0.986200  1.0
  C  C3887  1  0.242910  0.289660  0.763800  1.0
  C  C3888  1  0.507090  0.460340  0.763800  1.0
  C  C3889  1  0.992910  0.210340  0.013800  1.0
  C  C3890  1  0.257090  0.039660  0.013800  1.0
  C  C3891  1  0.257090  0.210340  0.236200  1.0
  C  C3892  1  0.992910  0.039660  0.236200  1.0
  C  C3893  1  0.992910  0.710340  0.513800  1.0
  C  C3894  1  0.257090  0.539660  0.513800  1.0
  C  C3895  1  0.257090  0.710340  0.736200  1.0
  C  C3896  1  0.992910  0.539660  0.736200  1.0
  C  C3897  1  0.492910  0.210340  0.513800  1.0
  C  C3898  1  0.757090  0.039660  0.513800  1.0
  C  C3899  1  0.757090  0.210340  0.736200  1.0
  C  C3900  1  0.492910  0.039660  0.736200  1.0
  C  C3901  1  0.492910  0.710340  0.013800  1.0
  C  C3902  1  0.757090  0.539660  0.013800  1.0
  C  C3903  1  0.757090  0.710340  0.236200  1.0
  C  C3904  1  0.492910  0.539660  0.236200  1.0
  C  C3905  1  0.016950  0.785760  0.002510  1.0
  C  C3906  1  0.733050  0.964240  0.002510  1.0
  C  C3907  1  0.733050  0.785760  0.747490  1.0
  C  C3908  1  0.016950  0.964240  0.747490  1.0
  C  C3909  1  0.016950  0.285760  0.502510  1.0
  C  C3910  1  0.733050  0.464240  0.502510  1.0
  C  C3911  1  0.733050  0.285760  0.247490  1.0
  C  C3912  1  0.016950  0.464240  0.247490  1.0
  C  C3913  1  0.516950  0.785760  0.502510  1.0
  C  C3914  1  0.233050  0.964240  0.502510  1.0
  C  C3915  1  0.233050  0.785760  0.247490  1.0
  C  C3916  1  0.516950  0.964240  0.247490  1.0
  C  C3917  1  0.516950  0.285760  0.002510  1.0
  C  C3918  1  0.233050  0.464240  0.002510  1.0
  C  C3919  1  0.233050  0.285760  0.747490  1.0
  C  C3920  1  0.516950  0.464240  0.747490  1.0
  C  C3921  1  0.983050  0.214240  0.997490  1.0
  C  C3922  1  0.266950  0.035760  0.997490  1.0
  C  C3923  1  0.266950  0.214240  0.252510  1.0
  C  C3924  1  0.983050  0.035760  0.252510  1.0
  C  C3925  1  0.983050  0.714240  0.497490  1.0
  C  C3926  1  0.266950  0.535760  0.497490  1.0
  C  C3927  1  0.266950  0.714240  0.752510  1.0
  C  C3928  1  0.983050  0.535760  0.752510  1.0
  C  C3929  1  0.483050  0.214240  0.497490  1.0
  C  C3930  1  0.766950  0.035760  0.497490  1.0
  C  C3931  1  0.766950  0.214240  0.752510  1.0
  C  C3932  1  0.483050  0.035760  0.752510  1.0
  C  C3933  1  0.483050  0.714240  0.997490  1.0
  C  C3934  1  0.766950  0.535760  0.997490  1.0
  C  C3935  1  0.766950  0.714240  0.252510  1.0
  C  C3936  1  0.483050  0.535760  0.252510  1.0
  C  C3937  1  0.053220  0.797560  0.010190  1.0
  C  C3938  1  0.696780  0.952440  0.010190  1.0
  C  C3939  1  0.696780  0.797560  0.739810  1.0
  C  C3940  1  0.053220  0.952440  0.739810  1.0
  C  C3941  1  0.053220  0.297560  0.510190  1.0
  C  C3942  1  0.696780  0.452440  0.510190  1.0
  C  C3943  1  0.696780  0.297560  0.239810  1.0
  C  C3944  1  0.053220  0.452440  0.239810  1.0
  C  C3945  1  0.553220  0.797560  0.510190  1.0
  C  C3946  1  0.196780  0.952440  0.510190  1.0
  C  C3947  1  0.196780  0.797560  0.239810  1.0
  C  C3948  1  0.553220  0.952440  0.239810  1.0
  C  C3949  1  0.553220  0.297560  0.010190  1.0
  C  C3950  1  0.196780  0.452440  0.010190  1.0
  C  C3951  1  0.196780  0.297560  0.739810  1.0
  C  C3952  1  0.553220  0.452440  0.739810  1.0
  C  C3953  1  0.946780  0.202440  0.989810  1.0
  C  C3954  1  0.303220  0.047560  0.989810  1.0
  C  C3955  1  0.303220  0.202440  0.260190  1.0
  C  C3956  1  0.946780  0.047560  0.260190  1.0
  C  C3957  1  0.946780  0.702440  0.489810  1.0
  C  C3958  1  0.303220  0.547560  0.489810  1.0
  C  C3959  1  0.303220  0.702440  0.760190  1.0
  C  C3960  1  0.946780  0.547560  0.760190  1.0
  C  C3961  1  0.446780  0.202440  0.489810  1.0
  C  C3962  1  0.803220  0.047560  0.489810  1.0
  C  C3963  1  0.803220  0.202440  0.760190  1.0
  C  C3964  1  0.446780  0.047560  0.760190  1.0
  C  C3965  1  0.446780  0.702440  0.989810  1.0
  C  C3966  1  0.803220  0.547560  0.989810  1.0
  C  C3967  1  0.803220  0.702440  0.260190  1.0
  C  C3968  1  0.446780  0.547560  0.260190  1.0
  C  C3969  1  0.079630  0.813270  0.001560  1.0
  C  C3970  1  0.670370  0.936730  0.001560  1.0
  C  C3971  1  0.670370  0.813270  0.748440  1.0
  C  C3972  1  0.079630  0.936730  0.748440  1.0
  C  C3973  1  0.079630  0.313270  0.501560  1.0
  C  C3974  1  0.670370  0.436730  0.501560  1.0
  C  C3975  1  0.670370  0.313270  0.248440  1.0
  C  C3976  1  0.079630  0.436730  0.248440  1.0
  C  C3977  1  0.579630  0.813270  0.501560  1.0
  C  C3978  1  0.170370  0.936730  0.501560  1.0
  C  C3979  1  0.170370  0.813270  0.248440  1.0
  C  C3980  1  0.579630  0.936730  0.248440  1.0
  C  C3981  1  0.579630  0.313270  0.001560  1.0
  C  C3982  1  0.170370  0.436730  0.001560  1.0
  C  C3983  1  0.170370  0.313270  0.748440  1.0
  C  C3984  1  0.579630  0.436730  0.748440  1.0
  C  C3985  1  0.920370  0.186730  0.998440  1.0
  C  C3986  1  0.329630  0.063270  0.998440  1.0
  C  C3987  1  0.329630  0.186730  0.251560  1.0
  C  C3988  1  0.920370  0.063270  0.251560  1.0
  C  C3989  1  0.920370  0.686730  0.498440  1.0
  C  C3990  1  0.329630  0.563270  0.498440  1.0
  C  C3991  1  0.329630  0.686730  0.751560  1.0
  C  C3992  1  0.920370  0.563270  0.751560  1.0
  C  C3993  1  0.420370  0.186730  0.498440  1.0
  C  C3994  1  0.829630  0.063270  0.498440  1.0
  C  C3995  1  0.829630  0.186730  0.751560  1.0
  C  C3996  1  0.420370  0.063270  0.751560  1.0
  C  C3997  1  0.420370  0.686730  0.998440  1.0
  C  C3998  1  0.829630  0.563270  0.998440  1.0
  C  C3999  1  0.829630  0.686730  0.251560  1.0
  C  C4000  1  0.420370  0.563270  0.251560  1.0
  C  C4001  1  0.069770  0.817170  0.985250  1.0
  C  C4002  1  0.680230  0.932830  0.985250  1.0
  C  C4003  1  0.680230  0.817170  0.764750  1.0
  C  C4004  1  0.069770  0.932830  0.764750  1.0
  C  C4005  1  0.069770  0.317170  0.485250  1.0
  C  C4006  1  0.680230  0.432830  0.485250  1.0
  C  C4007  1  0.680230  0.317170  0.264750  1.0
  C  C4008  1  0.069770  0.432830  0.264750  1.0
  C  C4009  1  0.569770  0.817170  0.485250  1.0
  C  C4010  1  0.180230  0.932830  0.485250  1.0
  C  C4011  1  0.180230  0.817170  0.264750  1.0
  C  C4012  1  0.569770  0.932830  0.264750  1.0
  C  C4013  1  0.569770  0.317170  0.985250  1.0
  C  C4014  1  0.180230  0.432830  0.985250  1.0
  C  C4015  1  0.180230  0.317170  0.764750  1.0
  C  C4016  1  0.569770  0.432830  0.764750  1.0
  C  C4017  1  0.930230  0.182830  0.014750  1.0
  C  C4018  1  0.319770  0.067170  0.014750  1.0
  C  C4019  1  0.319770  0.182830  0.235250  1.0
  C  C4020  1  0.930230  0.067170  0.235250  1.0
  C  C4021  1  0.930230  0.682830  0.514750  1.0
  C  C4022  1  0.319770  0.567170  0.514750  1.0
  C  C4023  1  0.319770  0.682830  0.735250  1.0
  C  C4024  1  0.930230  0.567170  0.735250  1.0
  C  C4025  1  0.430230  0.182830  0.514750  1.0
  C  C4026  1  0.819770  0.067170  0.514750  1.0
  C  C4027  1  0.819770  0.182830  0.735250  1.0
  C  C4028  1  0.430230  0.067170  0.735250  1.0
  C  C4029  1  0.430230  0.682830  0.014750  1.0
  C  C4030  1  0.819770  0.567170  0.014750  1.0
  C  C4031  1  0.819770  0.682830  0.235250  1.0
  C  C4032  1  0.430230  0.567170  0.235250  1.0
  C  C4033  1  0.033500  0.805370  0.977570  1.0
  C  C4034  1  0.716500  0.944630  0.977570  1.0
  C  C4035  1  0.716500  0.805370  0.772430  1.0
  C  C4036  1  0.033500  0.944630  0.772430  1.0
  C  C4037  1  0.033500  0.305370  0.477570  1.0
  C  C4038  1  0.716500  0.444630  0.477570  1.0
  C  C4039  1  0.716500  0.305370  0.272430  1.0
  C  C4040  1  0.033500  0.444630  0.272430  1.0
  C  C4041  1  0.533500  0.805370  0.477570  1.0
  C  C4042  1  0.216500  0.944630  0.477570  1.0
  C  C4043  1  0.216500  0.805370  0.272430  1.0
  C  C4044  1  0.533500  0.944630  0.272430  1.0
  C  C4045  1  0.533500  0.305370  0.977570  1.0
  C  C4046  1  0.216500  0.444630  0.977570  1.0
  C  C4047  1  0.216500  0.305370  0.772430  1.0
  C  C4048  1  0.533500  0.444630  0.772430  1.0
  C  C4049  1  0.966500  0.194630  0.022430  1.0
  C  C4050  1  0.283500  0.055370  0.022430  1.0
  C  C4051  1  0.283500  0.194630  0.227570  1.0
  C  C4052  1  0.966500  0.055370  0.227570  1.0
  C  C4053  1  0.966500  0.694630  0.522430  1.0
  C  C4054  1  0.283500  0.555370  0.522430  1.0
  C  C4055  1  0.283500  0.694630  0.727570  1.0
  C  C4056  1  0.966500  0.555370  0.727570  1.0
  C  C4057  1  0.466500  0.194630  0.522430  1.0
  C  C4058  1  0.783500  0.055370  0.522430  1.0
  C  C4059  1  0.783500  0.194630  0.727570  1.0
  C  C4060  1  0.466500  0.055370  0.727570  1.0
  C  C4061  1  0.466500  0.694630  0.022430  1.0
  C  C4062  1  0.783500  0.555370  0.022430  1.0
  C  C4063  1  0.783500  0.694630  0.227570  1.0
  C  C4064  1  0.466500  0.555370  0.227570  1.0
  C  C4065  1  0.101400  0.833250  0.975470  1.0
  C  C4066  1  0.648600  0.916750  0.975470  1.0
  C  C4067  1  0.648600  0.833250  0.774530  1.0
  C  C4068  1  0.101400  0.916750  0.774530  1.0
  C  C4069  1  0.101400  0.333250  0.475470  1.0
  C  C4070  1  0.648600  0.416750  0.475470  1.0
  C  C4071  1  0.648600  0.333250  0.274530  1.0
  C  C4072  1  0.101400  0.416750  0.274530  1.0
  C  C4073  1  0.601400  0.833250  0.475470  1.0
  C  C4074  1  0.148600  0.916750  0.475470  1.0
  C  C4075  1  0.148600  0.833250  0.274530  1.0
  C  C4076  1  0.601400  0.916750  0.274530  1.0
  C  C4077  1  0.601400  0.333250  0.975470  1.0
  C  C4078  1  0.148600  0.416750  0.975470  1.0
  C  C4079  1  0.148600  0.333250  0.774530  1.0
  C  C4080  1  0.601400  0.416750  0.774530  1.0
  C  C4081  1  0.898600  0.166750  0.024530  1.0
  C  C4082  1  0.351400  0.083250  0.024530  1.0
  C  C4083  1  0.351400  0.166750  0.225470  1.0
  C  C4084  1  0.898600  0.083250  0.225470  1.0
  C  C4085  1  0.898600  0.666750  0.524530  1.0
  C  C4086  1  0.351400  0.583250  0.524530  1.0
  C  C4087  1  0.351400  0.666750  0.725470  1.0
  C  C4088  1  0.898600  0.583250  0.725470  1.0
  C  C4089  1  0.398600  0.166750  0.524530  1.0
  C  C4090  1  0.851400  0.083250  0.524530  1.0
  C  C4091  1  0.851400  0.166750  0.725470  1.0
  C  C4092  1  0.398600  0.083250  0.725470  1.0
  C  C4093  1  0.398600  0.666750  0.024530  1.0
  C  C4094  1  0.851400  0.583250  0.024530  1.0
  C  C4095  1  0.851400  0.666750  0.225470  1.0
  C  C4096  1  0.398600  0.583250  0.225470  1.0
  C  C4097  1  0.061450  0.793780  0.028420  1.0
  C  C4098  1  0.688550  0.956220  0.028420  1.0
  C  C4099  1  0.688550  0.793780  0.721580  1.0
  C  C4100  1  0.061450  0.956220  0.721580  1.0
  C  C4101  1  0.061450  0.293780  0.528420  1.0
  C  C4102  1  0.688550  0.456220  0.528420  1.0
  C  C4103  1  0.688550  0.293780  0.221580  1.0
  C  C4104  1  0.061450  0.456220  0.221580  1.0
  C  C4105  1  0.561450  0.793780  0.528420  1.0
  C  C4106  1  0.188550  0.956220  0.528420  1.0
  C  C4107  1  0.188550  0.793780  0.221580  1.0
  C  C4108  1  0.561450  0.956220  0.221580  1.0
  C  C4109  1  0.561450  0.293780  0.028420  1.0
  C  C4110  1  0.188550  0.456220  0.028420  1.0
  C  C4111  1  0.188550  0.293780  0.721580  1.0
  C  C4112  1  0.561450  0.456220  0.721580  1.0
  C  C4113  1  0.938550  0.206220  0.971580  1.0
  C  C4114  1  0.311450  0.043780  0.971580  1.0
  C  C4115  1  0.311450  0.206220  0.278420  1.0
  C  C4116  1  0.938550  0.043780  0.278420  1.0
  C  C4117  1  0.938550  0.706220  0.471580  1.0
  C  C4118  1  0.311450  0.543780  0.471580  1.0
  C  C4119  1  0.311450  0.706220  0.778420  1.0
  C  C4120  1  0.938550  0.543780  0.778420  1.0
  C  C4121  1  0.438550  0.206220  0.471580  1.0
  C  C4122  1  0.811450  0.043780  0.471580  1.0
  C  C4123  1  0.811450  0.206220  0.778420  1.0
  C  C4124  1  0.438550  0.043780  0.778420  1.0
  C  C4125  1  0.438550  0.706220  0.971580  1.0
  C  C4126  1  0.811450  0.543780  0.971580  1.0
  C  C4127  1  0.811450  0.706220  0.278420  1.0
  C  C4128  1  0.438550  0.543780  0.278420  1.0
  C  C4129  1  0.107500  0.805310  0.033890  1.0
  C  C4130  1  0.642500  0.944690  0.033890  1.0
  C  C4131  1  0.642500  0.805310  0.716110  1.0
  C  C4132  1  0.107500  0.944690  0.716110  1.0
  C  C4133  1  0.107500  0.305310  0.533890  1.0
  C  C4134  1  0.642500  0.444690  0.533890  1.0
  C  C4135  1  0.642500  0.305310  0.216110  1.0
  C  C4136  1  0.107500  0.444690  0.216110  1.0
  C  C4137  1  0.607500  0.805310  0.533890  1.0
  C  C4138  1  0.142500  0.944690  0.533890  1.0
  C  C4139  1  0.142500  0.805310  0.216110  1.0
  C  C4140  1  0.607500  0.944690  0.216110  1.0
  C  C4141  1  0.607500  0.305310  0.033890  1.0
  C  C4142  1  0.142500  0.444690  0.033890  1.0
  C  C4143  1  0.142500  0.305310  0.716110  1.0
  C  C4144  1  0.607500  0.444690  0.716110  1.0
  C  C4145  1  0.892500  0.194690  0.966110  1.0
  C  C4146  1  0.357500  0.055310  0.966110  1.0
  C  C4147  1  0.357500  0.194690  0.283890  1.0
  C  C4148  1  0.892500  0.055310  0.283890  1.0
  C  C4149  1  0.892500  0.694690  0.466110  1.0
  C  C4150  1  0.357500  0.555310  0.466110  1.0
  C  C4151  1  0.357500  0.694690  0.783890  1.0
  C  C4152  1  0.892500  0.555310  0.783890  1.0
  C  C4153  1  0.392500  0.194690  0.466110  1.0
  C  C4154  1  0.857500  0.055310  0.466110  1.0
  C  C4155  1  0.857500  0.194690  0.783890  1.0
  C  C4156  1  0.392500  0.055310  0.783890  1.0
  C  C4157  1  0.392500  0.694690  0.966110  1.0
  C  C4158  1  0.857500  0.555310  0.966110  1.0
  C  C4159  1  0.857500  0.694690  0.283890  1.0
  C  C4160  1  0.392500  0.555310  0.283890  1.0
  C  C4161  1  0.019800  0.803400  0.038260  1.0
  C  C4162  1  0.730200  0.946600  0.038260  1.0
  C  C4163  1  0.730200  0.803400  0.711740  1.0
  C  C4164  1  0.019800  0.946600  0.711740  1.0
  C  C4165  1  0.019800  0.303400  0.538260  1.0
  C  C4166  1  0.730200  0.446600  0.538260  1.0
  C  C4167  1  0.730200  0.303400  0.211740  1.0
  C  C4168  1  0.019800  0.446600  0.211740  1.0
  C  C4169  1  0.519800  0.803400  0.538260  1.0
  C  C4170  1  0.230200  0.946600  0.538260  1.0
  C  C4171  1  0.230200  0.803400  0.211740  1.0
  C  C4172  1  0.519800  0.946600  0.211740  1.0
  C  C4173  1  0.519800  0.303400  0.038260  1.0
  C  C4174  1  0.230200  0.446600  0.038260  1.0
  C  C4175  1  0.230200  0.303400  0.711740  1.0
  C  C4176  1  0.519800  0.446600  0.711740  1.0
  C  C4177  1  0.980200  0.196600  0.961740  1.0
  C  C4178  1  0.269800  0.053400  0.961740  1.0
  C  C4179  1  0.269800  0.196600  0.288260  1.0
  C  C4180  1  0.980200  0.053400  0.288260  1.0
  C  C4181  1  0.980200  0.696600  0.461740  1.0
  C  C4182  1  0.269800  0.553400  0.461740  1.0
  C  C4183  1  0.269800  0.696600  0.788260  1.0
  C  C4184  1  0.980200  0.553400  0.788260  1.0
  C  C4185  1  0.480200  0.196600  0.461740  1.0
  C  C4186  1  0.769800  0.053400  0.461740  1.0
  C  C4187  1  0.769800  0.196600  0.788260  1.0
  C  C4188  1  0.480200  0.053400  0.788260  1.0
  C  C4189  1  0.480200  0.696600  0.961740  1.0
  C  C4190  1  0.769800  0.553400  0.961740  1.0
  C  C4191  1  0.769800  0.696600  0.288260  1.0
  C  C4192  1  0.480200  0.553400  0.288260  1.0
  C  C4193  1  0.065400  0.768640  0.032070  1.0
  C  C4194  1  0.684600  0.981360  0.032070  1.0
  C  C4195  1  0.684600  0.768640  0.717930  1.0
  C  C4196  1  0.065400  0.981360  0.717930  1.0
  C  C4197  1  0.065400  0.268640  0.532070  1.0
  C  C4198  1  0.684600  0.481360  0.532070  1.0
  C  C4199  1  0.684600  0.268640  0.217930  1.0
  C  C4200  1  0.065400  0.481360  0.217930  1.0
  C  C4201  1  0.565400  0.768640  0.532070  1.0
  C  C4202  1  0.184600  0.981360  0.532070  1.0
  C  C4203  1  0.184600  0.768640  0.217930  1.0
  C  C4204  1  0.565400  0.981360  0.217930  1.0
  C  C4205  1  0.565400  0.268640  0.032070  1.0
  C  C4206  1  0.184600  0.481360  0.032070  1.0
  C  C4207  1  0.184600  0.268640  0.717930  1.0
  C  C4208  1  0.565400  0.481360  0.717930  1.0
  C  C4209  1  0.934600  0.231360  0.967930  1.0
  C  C4210  1  0.315400  0.018640  0.967930  1.0
  C  C4211  1  0.315400  0.231360  0.282070  1.0
  C  C4212  1  0.934600  0.018640  0.282070  1.0
  C  C4213  1  0.934600  0.731360  0.467930  1.0
  C  C4214  1  0.315400  0.518640  0.467930  1.0
  C  C4215  1  0.315400  0.731360  0.782070  1.0
  C  C4216  1  0.934600  0.518640  0.782070  1.0
  C  C4217  1  0.434600  0.231360  0.467930  1.0
  C  C4218  1  0.815400  0.018640  0.467930  1.0
  C  C4219  1  0.815400  0.231360  0.782070  1.0
  C  C4220  1  0.434600  0.018640  0.782070  1.0
  C  C4221  1  0.434600  0.731360  0.967930  1.0
  C  C4222  1  0.815400  0.518640  0.967930  1.0
  C  C4223  1  0.815400  0.731360  0.282070  1.0
  C  C4224  1  0.434600  0.518640  0.282070  1.0
  C  C4225  1  0.195700  0.891150  0.945990  1.0
  C  C4226  1  0.554300  0.858850  0.945990  1.0
  C  C4227  1  0.554300  0.891150  0.804010  1.0
  C  C4228  1  0.195700  0.858850  0.804010  1.0
  C  C4229  1  0.195700  0.391150  0.445990  1.0
  C  C4230  1  0.554300  0.358850  0.445990  1.0
  C  C4231  1  0.554300  0.391150  0.304010  1.0
  C  C4232  1  0.195700  0.358850  0.304010  1.0
  C  C4233  1  0.695700  0.891150  0.445990  1.0
  C  C4234  1  0.054300  0.858850  0.445990  1.0
  C  C4235  1  0.054300  0.891150  0.304010  1.0
  C  C4236  1  0.695700  0.858850  0.304010  1.0
  C  C4237  1  0.695700  0.391150  0.945990  1.0
  C  C4238  1  0.054300  0.358850  0.945990  1.0
  C  C4239  1  0.054300  0.391150  0.804010  1.0
  C  C4240  1  0.695700  0.358850  0.804010  1.0
  C  C4241  1  0.804300  0.108850  0.054010  1.0
  C  C4242  1  0.445700  0.141150  0.054010  1.0
  C  C4243  1  0.445700  0.108850  0.195990  1.0
  C  C4244  1  0.804300  0.141150  0.195990  1.0
  C  C4245  1  0.804300  0.608850  0.554010  1.0
  C  C4246  1  0.445700  0.641150  0.554010  1.0
  C  C4247  1  0.445700  0.608850  0.695990  1.0
  C  C4248  1  0.804300  0.641150  0.695990  1.0
  C  C4249  1  0.304300  0.108850  0.554010  1.0
  C  C4250  1  0.945700  0.141150  0.554010  1.0
  C  C4251  1  0.945700  0.108850  0.695990  1.0
  C  C4252  1  0.304300  0.141150  0.695990  1.0
  C  C4253  1  0.304300  0.608850  0.054010  1.0
  C  C4254  1  0.945700  0.641150  0.054010  1.0
  C  C4255  1  0.945700  0.608850  0.195990  1.0
  C  C4256  1  0.304300  0.641150  0.195990  1.0
  C  C4257  1  0.222820  0.909450  0.937840  1.0
  C  C4258  1  0.527180  0.840550  0.937840  1.0
  C  C4259  1  0.527180  0.909450  0.812160  1.0
  C  C4260  1  0.222820  0.840550  0.812160  1.0
  C  C4261  1  0.222820  0.409450  0.437840  1.0
  C  C4262  1  0.527180  0.340550  0.437840  1.0
  C  C4263  1  0.527180  0.409450  0.312160  1.0
  C  C4264  1  0.222820  0.340550  0.312160  1.0
  C  C4265  1  0.722820  0.909450  0.437840  1.0
  C  C4266  1  0.027180  0.840550  0.437840  1.0
  C  C4267  1  0.027180  0.909450  0.312160  1.0
  C  C4268  1  0.722820  0.840550  0.312160  1.0
  C  C4269  1  0.722820  0.409450  0.937840  1.0
  C  C4270  1  0.027180  0.340550  0.937840  1.0
  C  C4271  1  0.027180  0.409450  0.812160  1.0
  C  C4272  1  0.722820  0.340550  0.812160  1.0
  C  C4273  1  0.777180  0.090550  0.062160  1.0
  C  C4274  1  0.472820  0.159450  0.062160  1.0
  C  C4275  1  0.472820  0.090550  0.187840  1.0
  C  C4276  1  0.777180  0.159450  0.187840  1.0
  C  C4277  1  0.777180  0.590550  0.562160  1.0
  C  C4278  1  0.472820  0.659450  0.562160  1.0
  C  C4279  1  0.472820  0.590550  0.687840  1.0
  C  C4280  1  0.777180  0.659450  0.687840  1.0
  C  C4281  1  0.277180  0.090550  0.562160  1.0
  C  C4282  1  0.972820  0.159450  0.562160  1.0
  C  C4283  1  0.972820  0.090550  0.687840  1.0
  C  C4284  1  0.277180  0.159450  0.687840  1.0
  C  C4285  1  0.277180  0.590550  0.062160  1.0
  C  C4286  1  0.972820  0.659450  0.062160  1.0
  C  C4287  1  0.972820  0.590550  0.187840  1.0
  C  C4288  1  0.277180  0.659450  0.187840  1.0
  C  C4289  1  0.267950  0.916190  0.942800  1.0
  C  C4290  1  0.482050  0.833810  0.942800  1.0
  C  C4291  1  0.482050  0.916190  0.807200  1.0
  C  C4292  1  0.267950  0.833810  0.807200  1.0
  C  C4293  1  0.267950  0.416190  0.442800  1.0
  C  C4294  1  0.482050  0.333810  0.442800  1.0
  C  C4295  1  0.482050  0.416190  0.307200  1.0
  C  C4296  1  0.267950  0.333810  0.307200  1.0
  C  C4297  1  0.767950  0.916190  0.442800  1.0
  C  C4298  1  0.982050  0.833810  0.442800  1.0
  C  C4299  1  0.982050  0.916190  0.307200  1.0
  C  C4300  1  0.767950  0.833810  0.307200  1.0
  C  C4301  1  0.767950  0.416190  0.942800  1.0
  C  C4302  1  0.982050  0.333810  0.942800  1.0
  C  C4303  1  0.982050  0.416190  0.807200  1.0
  C  C4304  1  0.767950  0.333810  0.807200  1.0
  C  C4305  1  0.732050  0.083810  0.057200  1.0
  C  C4306  1  0.517950  0.166190  0.057200  1.0
  C  C4307  1  0.517950  0.083810  0.192800  1.0
  C  C4308  1  0.732050  0.166190  0.192800  1.0
  C  C4309  1  0.732050  0.583810  0.557200  1.0
  C  C4310  1  0.517950  0.666190  0.557200  1.0
  C  C4311  1  0.517950  0.583810  0.692800  1.0
  C  C4312  1  0.732050  0.666190  0.692800  1.0
  C  C4313  1  0.232050  0.083810  0.557200  1.0
  C  C4314  1  0.017950  0.166190  0.557200  1.0
  C  C4315  1  0.017950  0.083810  0.692800  1.0
  C  C4316  1  0.232050  0.166190  0.692800  1.0
  C  C4317  1  0.232050  0.583810  0.057200  1.0
  C  C4318  1  0.017950  0.666190  0.057200  1.0
  C  C4319  1  0.017950  0.583810  0.192800  1.0
  C  C4320  1  0.232050  0.666190  0.192800  1.0
  C  C4321  1  0.288860  0.935060  0.935920  1.0
  C  C4322  1  0.461140  0.814940  0.935920  1.0
  C  C4323  1  0.461140  0.935060  0.814080  1.0
  C  C4324  1  0.288860  0.814940  0.814080  1.0
  C  C4325  1  0.288860  0.435060  0.435920  1.0
  C  C4326  1  0.461140  0.314940  0.435920  1.0
  C  C4327  1  0.461140  0.435060  0.314080  1.0
  C  C4328  1  0.288860  0.314940  0.314080  1.0
  C  C4329  1  0.788860  0.935060  0.435920  1.0
  C  C4330  1  0.961140  0.814940  0.435920  1.0
  C  C4331  1  0.961140  0.935060  0.314080  1.0
  C  C4332  1  0.788860  0.814940  0.314080  1.0
  C  C4333  1  0.788860  0.435060  0.935920  1.0
  C  C4334  1  0.961140  0.314940  0.935920  1.0
  C  C4335  1  0.961140  0.435060  0.814080  1.0
  C  C4336  1  0.788860  0.314940  0.814080  1.0
  C  C4337  1  0.711140  0.064940  0.064080  1.0
  C  C4338  1  0.538860  0.185060  0.064080  1.0
  C  C4339  1  0.538860  0.064940  0.185920  1.0
  C  C4340  1  0.711140  0.185060  0.185920  1.0
  C  C4341  1  0.711140  0.564940  0.564080  1.0
  C  C4342  1  0.538860  0.685060  0.564080  1.0
  C  C4343  1  0.538860  0.564940  0.685920  1.0
  C  C4344  1  0.711140  0.685060  0.685920  1.0
  C  C4345  1  0.211140  0.064940  0.564080  1.0
  C  C4346  1  0.038860  0.185060  0.564080  1.0
  C  C4347  1  0.038860  0.064940  0.685920  1.0
  C  C4348  1  0.211140  0.185060  0.685920  1.0
  C  C4349  1  0.211140  0.564940  0.064080  1.0
  C  C4350  1  0.038860  0.685060  0.064080  1.0
  C  C4351  1  0.038860  0.564940  0.185920  1.0
  C  C4352  1  0.211140  0.685060  0.185920  1.0
  C  C4353  1  0.264680  0.947210  0.924090  1.0
  C  C4354  1  0.485320  0.802790  0.924090  1.0
  C  C4355  1  0.485320  0.947210  0.825910  1.0
  C  C4356  1  0.264680  0.802790  0.825910  1.0
  C  C4357  1  0.264680  0.447210  0.424090  1.0
  C  C4358  1  0.485320  0.302790  0.424090  1.0
  C  C4359  1  0.485320  0.447210  0.325910  1.0
  C  C4360  1  0.264680  0.302790  0.325910  1.0
  C  C4361  1  0.764680  0.947210  0.424090  1.0
  C  C4362  1  0.985320  0.802790  0.424090  1.0
  C  C4363  1  0.985320  0.947210  0.325910  1.0
  C  C4364  1  0.764680  0.802790  0.325910  1.0
  C  C4365  1  0.764680  0.447210  0.924090  1.0
  C  C4366  1  0.985320  0.302790  0.924090  1.0
  C  C4367  1  0.985320  0.447210  0.825910  1.0
  C  C4368  1  0.764680  0.302790  0.825910  1.0
  C  C4369  1  0.735320  0.052790  0.075910  1.0
  C  C4370  1  0.514680  0.197210  0.075910  1.0
  C  C4371  1  0.514680  0.052790  0.174090  1.0
  C  C4372  1  0.735320  0.197210  0.174090  1.0
  C  C4373  1  0.735320  0.552790  0.575910  1.0
  C  C4374  1  0.514680  0.697210  0.575910  1.0
  C  C4375  1  0.514680  0.552790  0.674090  1.0
  C  C4376  1  0.735320  0.697210  0.674090  1.0
  C  C4377  1  0.235320  0.052790  0.575910  1.0
  C  C4378  1  0.014680  0.197210  0.575910  1.0
  C  C4379  1  0.014680  0.052790  0.674090  1.0
  C  C4380  1  0.235320  0.197210  0.674090  1.0
  C  C4381  1  0.235320  0.552790  0.075910  1.0
  C  C4382  1  0.014680  0.697210  0.075910  1.0
  C  C4383  1  0.014680  0.552790  0.174090  1.0
  C  C4384  1  0.235320  0.697210  0.174090  1.0
  C  C4385  1  0.219560  0.940470  0.919140  1.0
  C  C4386  1  0.530440  0.809530  0.919140  1.0
  C  C4387  1  0.530440  0.940470  0.830860  1.0
  C  C4388  1  0.219560  0.809530  0.830860  1.0
  C  C4389  1  0.219560  0.440470  0.419140  1.0
  C  C4390  1  0.530440  0.309530  0.419140  1.0
  C  C4391  1  0.530440  0.440470  0.330860  1.0
  C  C4392  1  0.219560  0.309530  0.330860  1.0
  C  C4393  1  0.719560  0.940470  0.419140  1.0
  C  C4394  1  0.030440  0.809530  0.419140  1.0
  C  C4395  1  0.030440  0.940470  0.330860  1.0
  C  C4396  1  0.719560  0.809530  0.330860  1.0
  C  C4397  1  0.719560  0.440470  0.919140  1.0
  C  C4398  1  0.030440  0.309530  0.919140  1.0
  C  C4399  1  0.030440  0.440470  0.830860  1.0
  C  C4400  1  0.719560  0.309530  0.830860  1.0
  C  C4401  1  0.780440  0.059530  0.080860  1.0
  C  C4402  1  0.469560  0.190470  0.080860  1.0
  C  C4403  1  0.469560  0.059530  0.169140  1.0
  C  C4404  1  0.780440  0.190470  0.169140  1.0
  C  C4405  1  0.780440  0.559530  0.580860  1.0
  C  C4406  1  0.469560  0.690470  0.580860  1.0
  C  C4407  1  0.469560  0.559530  0.669140  1.0
  C  C4408  1  0.780440  0.690470  0.669140  1.0
  C  C4409  1  0.280440  0.059530  0.580860  1.0
  C  C4410  1  0.969560  0.190470  0.580860  1.0
  C  C4411  1  0.969560  0.059530  0.669140  1.0
  C  C4412  1  0.280440  0.190470  0.669140  1.0
  C  C4413  1  0.280440  0.559530  0.080860  1.0
  C  C4414  1  0.969560  0.690470  0.080860  1.0
  C  C4415  1  0.969560  0.559530  0.169140  1.0
  C  C4416  1  0.280440  0.690470  0.169140  1.0
  C  C4417  1  0.198640  0.921600  0.926020  1.0
  C  C4418  1  0.551360  0.828400  0.926020  1.0
  C  C4419  1  0.551360  0.921600  0.823980  1.0
  C  C4420  1  0.198640  0.828400  0.823980  1.0
  C  C4421  1  0.198640  0.421600  0.426020  1.0
  C  C4422  1  0.551360  0.328400  0.426020  1.0
  C  C4423  1  0.551360  0.421600  0.323980  1.0
  C  C4424  1  0.198640  0.328400  0.323980  1.0
  C  C4425  1  0.698640  0.921600  0.426020  1.0
  C  C4426  1  0.051360  0.828400  0.426020  1.0
  C  C4427  1  0.051360  0.921600  0.323980  1.0
  C  C4428  1  0.698640  0.828400  0.323980  1.0
  C  C4429  1  0.698640  0.421600  0.926020  1.0
  C  C4430  1  0.051360  0.328400  0.926020  1.0
  C  C4431  1  0.051360  0.421600  0.823980  1.0
  C  C4432  1  0.698640  0.328400  0.823980  1.0
  C  C4433  1  0.801360  0.078400  0.073980  1.0
  C  C4434  1  0.448640  0.171600  0.073980  1.0
  C  C4435  1  0.448640  0.078400  0.176020  1.0
  C  C4436  1  0.801360  0.171600  0.176020  1.0
  C  C4437  1  0.801360  0.578400  0.573980  1.0
  C  C4438  1  0.448640  0.671600  0.573980  1.0
  C  C4439  1  0.448640  0.578400  0.676020  1.0
  C  C4440  1  0.801360  0.671600  0.676020  1.0
  C  C4441  1  0.301360  0.078400  0.573980  1.0
  C  C4442  1  0.948640  0.171600  0.573980  1.0
  C  C4443  1  0.948640  0.078400  0.676020  1.0
  C  C4444  1  0.301360  0.171600  0.676020  1.0
  C  C4445  1  0.301360  0.578400  0.073980  1.0
  C  C4446  1  0.948640  0.671600  0.073980  1.0
  C  C4447  1  0.948640  0.578400  0.176020  1.0
  C  C4448  1  0.301360  0.671600  0.176020  1.0
  C  C4449  1  0.285580  0.966080  0.917220  1.0
  C  C4450  1  0.464420  0.783920  0.917220  1.0
  C  C4451  1  0.464420  0.966080  0.832780  1.0
  C  C4452  1  0.285580  0.783920  0.832780  1.0
  C  C4453  1  0.285580  0.466080  0.417220  1.0
  C  C4454  1  0.464420  0.283920  0.417220  1.0
  C  C4455  1  0.464420  0.466080  0.332780  1.0
  C  C4456  1  0.285580  0.283920  0.332780  1.0
  C  C4457  1  0.785580  0.966080  0.417220  1.0
  C  C4458  1  0.964420  0.783920  0.417220  1.0
  C  C4459  1  0.964420  0.966080  0.332780  1.0
  C  C4460  1  0.785580  0.783920  0.332780  1.0
  C  C4461  1  0.785580  0.466080  0.917220  1.0
  C  C4462  1  0.964420  0.283920  0.917220  1.0
  C  C4463  1  0.964420  0.466080  0.832780  1.0
  C  C4464  1  0.785580  0.283920  0.832780  1.0
  C  C4465  1  0.714420  0.033920  0.082780  1.0
  C  C4466  1  0.535580  0.216080  0.082780  1.0
  C  C4467  1  0.535580  0.033920  0.167220  1.0
  C  C4468  1  0.714420  0.216080  0.167220  1.0
  C  C4469  1  0.714420  0.533920  0.582780  1.0
  C  C4470  1  0.535580  0.716080  0.582780  1.0
  C  C4471  1  0.535580  0.533920  0.667220  1.0
  C  C4472  1  0.714420  0.716080  0.667220  1.0
  C  C4473  1  0.214420  0.033920  0.582780  1.0
  C  C4474  1  0.035580  0.216080  0.582780  1.0
  C  C4475  1  0.035580  0.033920  0.667220  1.0
  C  C4476  1  0.214420  0.216080  0.667220  1.0
  C  C4477  1  0.214420  0.533920  0.082780  1.0
  C  C4478  1  0.035580  0.716080  0.082780  1.0
  C  C4479  1  0.035580  0.533920  0.167220  1.0
  C  C4480  1  0.214420  0.716080  0.167220  1.0
  C  C4481  1  0.261400  0.978230  0.905400  1.0
  C  C4482  1  0.488600  0.771770  0.905400  1.0
  C  C4483  1  0.488600  0.978230  0.844600  1.0
  C  C4484  1  0.261400  0.771770  0.844600  1.0
  C  C4485  1  0.261400  0.478230  0.405400  1.0
  C  C4486  1  0.488600  0.271770  0.405400  1.0
  C  C4487  1  0.488600  0.478230  0.344600  1.0
  C  C4488  1  0.261400  0.271770  0.344600  1.0
  C  C4489  1  0.761400  0.978230  0.405400  1.0
  C  C4490  1  0.988600  0.771770  0.405400  1.0
  C  C4491  1  0.988600  0.978230  0.344600  1.0
  C  C4492  1  0.761400  0.771770  0.344600  1.0
  C  C4493  1  0.761400  0.478230  0.905400  1.0
  C  C4494  1  0.988600  0.271770  0.905400  1.0
  C  C4495  1  0.988600  0.478230  0.844600  1.0
  C  C4496  1  0.761400  0.271770  0.844600  1.0
  C  C4497  1  0.738600  0.021770  0.094600  1.0
  C  C4498  1  0.511400  0.228230  0.094600  1.0
  C  C4499  1  0.511400  0.021770  0.155400  1.0
  C  C4500  1  0.738600  0.228230  0.155400  1.0
  C  C4501  1  0.738600  0.521770  0.594600  1.0
  C  C4502  1  0.511400  0.728230  0.594600  1.0
  C  C4503  1  0.511400  0.521770  0.655400  1.0
  C  C4504  1  0.738600  0.728230  0.655400  1.0
  C  C4505  1  0.238600  0.021770  0.594600  1.0
  C  C4506  1  0.011400  0.228230  0.594600  1.0
  C  C4507  1  0.011400  0.021770  0.655400  1.0
  C  C4508  1  0.238600  0.228230  0.655400  1.0
  C  C4509  1  0.238600  0.521770  0.094600  1.0
  C  C4510  1  0.011400  0.728230  0.094600  1.0
  C  C4511  1  0.011400  0.521770  0.155400  1.0
  C  C4512  1  0.238600  0.728230  0.155400  1.0
  C  C4513  1  0.216270  0.971480  0.900440  1.0
  C  C4514  1  0.533730  0.778520  0.900440  1.0
  C  C4515  1  0.533730  0.971480  0.849560  1.0
  C  C4516  1  0.216270  0.778520  0.849560  1.0
  C  C4517  1  0.216270  0.471480  0.400440  1.0
  C  C4518  1  0.533730  0.278520  0.400440  1.0
  C  C4519  1  0.533730  0.471480  0.349560  1.0
  C  C4520  1  0.216270  0.278520  0.349560  1.0
  C  C4521  1  0.716270  0.971480  0.400440  1.0
  C  C4522  1  0.033730  0.778520  0.400440  1.0
  C  C4523  1  0.033730  0.971480  0.349560  1.0
  C  C4524  1  0.716270  0.778520  0.349560  1.0
  C  C4525  1  0.716270  0.471480  0.900440  1.0
  C  C4526  1  0.033730  0.278520  0.900440  1.0
  C  C4527  1  0.033730  0.471480  0.849560  1.0
  C  C4528  1  0.716270  0.278520  0.849560  1.0
  C  C4529  1  0.783730  0.028520  0.099560  1.0
  C  C4530  1  0.466270  0.221480  0.099560  1.0
  C  C4531  1  0.466270  0.028520  0.150440  1.0
  C  C4532  1  0.783730  0.221480  0.150440  1.0
  C  C4533  1  0.783730  0.528520  0.599560  1.0
  C  C4534  1  0.466270  0.721480  0.599560  1.0
  C  C4535  1  0.466270  0.528520  0.650440  1.0
  C  C4536  1  0.783730  0.721480  0.650440  1.0
  C  C4537  1  0.283730  0.028520  0.599560  1.0
  C  C4538  1  0.966270  0.221480  0.599560  1.0
  C  C4539  1  0.966270  0.028520  0.650440  1.0
  C  C4540  1  0.283730  0.221480  0.650440  1.0
  C  C4541  1  0.283730  0.528520  0.099560  1.0
  C  C4542  1  0.966270  0.721480  0.099560  1.0
  C  C4543  1  0.966270  0.528520  0.150440  1.0
  C  C4544  1  0.283730  0.721480  0.150440  1.0
  C  C4545  1  0.195370  0.952610  0.907320  1.0
  C  C4546  1  0.554630  0.797390  0.907320  1.0
  C  C4547  1  0.554630  0.952610  0.842680  1.0
  C  C4548  1  0.195370  0.797390  0.842680  1.0
  C  C4549  1  0.195370  0.452610  0.407320  1.0
  C  C4550  1  0.554630  0.297390  0.407320  1.0
  C  C4551  1  0.554630  0.452610  0.342680  1.0
  C  C4552  1  0.195370  0.297390  0.342680  1.0
  C  C4553  1  0.695370  0.952610  0.407320  1.0
  C  C4554  1  0.054630  0.797390  0.407320  1.0
  C  C4555  1  0.054630  0.952610  0.342680  1.0
  C  C4556  1  0.695370  0.797390  0.342680  1.0
  C  C4557  1  0.695370  0.452610  0.907320  1.0
  C  C4558  1  0.054630  0.297390  0.907320  1.0
  C  C4559  1  0.054630  0.452610  0.842680  1.0
  C  C4560  1  0.695370  0.297390  0.842680  1.0
  C  C4561  1  0.804630  0.047390  0.092680  1.0
  C  C4562  1  0.445370  0.202610  0.092680  1.0
  C  C4563  1  0.445370  0.047390  0.157320  1.0
  C  C4564  1  0.804630  0.202610  0.157320  1.0
  C  C4565  1  0.804630  0.547390  0.592680  1.0
  C  C4566  1  0.445370  0.702610  0.592680  1.0
  C  C4567  1  0.445370  0.547390  0.657320  1.0
  C  C4568  1  0.804630  0.702610  0.657320  1.0
  C  C4569  1  0.304630  0.047390  0.592680  1.0
  C  C4570  1  0.945370  0.202610  0.592680  1.0
  C  C4571  1  0.945370  0.047390  0.657320  1.0
  C  C4572  1  0.304630  0.202610  0.657320  1.0
  C  C4573  1  0.304630  0.547390  0.092680  1.0
  C  C4574  1  0.945370  0.702610  0.092680  1.0
  C  C4575  1  0.945370  0.547390  0.157320  1.0
  C  C4576  1  0.304630  0.702610  0.157320  1.0
  C  C4577  1  0.188300  0.985250  0.888620  1.0
  C  C4578  1  0.561700  0.764750  0.888620  1.0
  C  C4579  1  0.561700  0.985250  0.861380  1.0
  C  C4580  1  0.188300  0.764750  0.861380  1.0
  C  C4581  1  0.188300  0.485250  0.388620  1.0
  C  C4582  1  0.561700  0.264750  0.388620  1.0
  C  C4583  1  0.561700  0.485250  0.361380  1.0
  C  C4584  1  0.188300  0.264750  0.361380  1.0
  C  C4585  1  0.688300  0.985250  0.388620  1.0
  C  C4586  1  0.061700  0.764750  0.388620  1.0
  C  C4587  1  0.061700  0.985250  0.361380  1.0
  C  C4588  1  0.688300  0.764750  0.361380  1.0
  C  C4589  1  0.688300  0.485250  0.888620  1.0
  C  C4590  1  0.061700  0.264750  0.888620  1.0
  C  C4591  1  0.061700  0.485250  0.861380  1.0
  C  C4592  1  0.688300  0.264750  0.861380  1.0
  C  C4593  1  0.811700  0.014750  0.111380  1.0
  C  C4594  1  0.438300  0.235250  0.111380  1.0
  C  C4595  1  0.438300  0.014750  0.138620  1.0
  C  C4596  1  0.811700  0.235250  0.138620  1.0
  C  C4597  1  0.811700  0.514750  0.611380  1.0
  C  C4598  1  0.438300  0.735250  0.611380  1.0
  C  C4599  1  0.438300  0.514750  0.638620  1.0
  C  C4600  1  0.811700  0.735250  0.638620  1.0
  C  C4601  1  0.311700  0.014750  0.611380  1.0
  C  C4602  1  0.938300  0.235250  0.611380  1.0
  C  C4603  1  0.938300  0.014750  0.638620  1.0
  C  C4604  1  0.311700  0.235250  0.638620  1.0
  C  C4605  1  0.311700  0.514750  0.111380  1.0
  C  C4606  1  0.938300  0.735250  0.111380  1.0
  C  C4607  1  0.938300  0.514750  0.138620  1.0
  C  C4608  1  0.311700  0.735250  0.138620  1.0
  C  C4609  1  0.106350  0.892510  0.973950  1.0
  C  C4610  1  0.643650  0.857490  0.973950  1.0
  C  C4611  1  0.643650  0.892510  0.776050  1.0
  C  C4612  1  0.106350  0.857490  0.776050  1.0
  C  C4613  1  0.106350  0.392510  0.473950  1.0
  C  C4614  1  0.643650  0.357490  0.473950  1.0
  C  C4615  1  0.643650  0.392510  0.276050  1.0
  C  C4616  1  0.106350  0.357490  0.276050  1.0
  C  C4617  1  0.606350  0.892510  0.473950  1.0
  C  C4618  1  0.143650  0.857490  0.473950  1.0
  C  C4619  1  0.143650  0.892510  0.276050  1.0
  C  C4620  1  0.606350  0.857490  0.276050  1.0
  C  C4621  1  0.606350  0.392510  0.973950  1.0
  C  C4622  1  0.143650  0.357490  0.973950  1.0
  C  C4623  1  0.143650  0.392510  0.776050  1.0
  C  C4624  1  0.606350  0.357490  0.776050  1.0
  C  C4625  1  0.893650  0.107490  0.026050  1.0
  C  C4626  1  0.356350  0.142510  0.026050  1.0
  C  C4627  1  0.356350  0.107490  0.223950  1.0
  C  C4628  1  0.893650  0.142510  0.223950  1.0
  C  C4629  1  0.893650  0.607490  0.526050  1.0
  C  C4630  1  0.356350  0.642510  0.526050  1.0
  C  C4631  1  0.356350  0.607490  0.723950  1.0
  C  C4632  1  0.893650  0.642510  0.723950  1.0
  C  C4633  1  0.393650  0.107490  0.526050  1.0
  C  C4634  1  0.856350  0.142510  0.526050  1.0
  C  C4635  1  0.856350  0.107490  0.723950  1.0
  C  C4636  1  0.393650  0.142510  0.723950  1.0
  C  C4637  1  0.393650  0.607490  0.026050  1.0
  C  C4638  1  0.856350  0.642510  0.026050  1.0
  C  C4639  1  0.856350  0.607490  0.223950  1.0
  C  C4640  1  0.393650  0.642510  0.223950  1.0
  C  C4641  1  0.078370  0.910830  0.983140  1.0
  C  C4642  1  0.671630  0.839170  0.983140  1.0
  C  C4643  1  0.671630  0.910830  0.766860  1.0
  C  C4644  1  0.078370  0.839170  0.766860  1.0
  C  C4645  1  0.078370  0.410830  0.483140  1.0
  C  C4646  1  0.671630  0.339170  0.483140  1.0
  C  C4647  1  0.671630  0.410830  0.266860  1.0
  C  C4648  1  0.078370  0.339170  0.266860  1.0
  C  C4649  1  0.578370  0.910830  0.483140  1.0
  C  C4650  1  0.171630  0.839170  0.483140  1.0
  C  C4651  1  0.171630  0.910830  0.266860  1.0
  C  C4652  1  0.578370  0.839170  0.266860  1.0
  C  C4653  1  0.578370  0.410830  0.983140  1.0
  C  C4654  1  0.171630  0.339170  0.983140  1.0
  C  C4655  1  0.171630  0.410830  0.766860  1.0
  C  C4656  1  0.578370  0.339170  0.766860  1.0
  C  C4657  1  0.921630  0.089170  0.016860  1.0
  C  C4658  1  0.328370  0.160830  0.016860  1.0
  C  C4659  1  0.328370  0.089170  0.233140  1.0
  C  C4660  1  0.921630  0.160830  0.233140  1.0
  C  C4661  1  0.921630  0.589170  0.516860  1.0
  C  C4662  1  0.328370  0.660830  0.516860  1.0
  C  C4663  1  0.328370  0.589170  0.733140  1.0
  C  C4664  1  0.921630  0.660830  0.733140  1.0
  C  C4665  1  0.421630  0.089170  0.516860  1.0
  C  C4666  1  0.828370  0.160830  0.516860  1.0
  C  C4667  1  0.828370  0.089170  0.733140  1.0
  C  C4668  1  0.421630  0.160830  0.733140  1.0
  C  C4669  1  0.421630  0.589170  0.016860  1.0
  C  C4670  1  0.828370  0.660830  0.016860  1.0
  C  C4671  1  0.828370  0.589170  0.233140  1.0
  C  C4672  1  0.421630  0.660830  0.233140  1.0
  C  C4673  1  0.098410  0.919750  0.997180  1.0
  C  C4674  1  0.651590  0.830250  0.997180  1.0
  C  C4675  1  0.651590  0.919750  0.752820  1.0
  C  C4676  1  0.098410  0.830250  0.752820  1.0
  C  C4677  1  0.098410  0.419750  0.497180  1.0
  C  C4678  1  0.651590  0.330250  0.497180  1.0
  C  C4679  1  0.651590  0.419750  0.252820  1.0
  C  C4680  1  0.098410  0.330250  0.252820  1.0
  C  C4681  1  0.598410  0.919750  0.497180  1.0
  C  C4682  1  0.151590  0.830250  0.497180  1.0
  C  C4683  1  0.151590  0.919750  0.252820  1.0
  C  C4684  1  0.598410  0.830250  0.252820  1.0
  C  C4685  1  0.598410  0.419750  0.997180  1.0
  C  C4686  1  0.151590  0.330250  0.997180  1.0
  C  C4687  1  0.151590  0.419750  0.752820  1.0
  C  C4688  1  0.598410  0.330250  0.752820  1.0
  C  C4689  1  0.901590  0.080250  0.002820  1.0
  C  C4690  1  0.348410  0.169750  0.002820  1.0
  C  C4691  1  0.348410  0.080250  0.247180  1.0
  C  C4692  1  0.901590  0.169750  0.247180  1.0
  C  C4693  1  0.901590  0.580250  0.502820  1.0
  C  C4694  1  0.348410  0.669750  0.502820  1.0
  C  C4695  1  0.348410  0.580250  0.747180  1.0
  C  C4696  1  0.901590  0.669750  0.747180  1.0
  C  C4697  1  0.401590  0.080250  0.502820  1.0
  C  C4698  1  0.848410  0.169750  0.502820  1.0
  C  C4699  1  0.848410  0.080250  0.747180  1.0
  C  C4700  1  0.401590  0.169750  0.747180  1.0
  C  C4701  1  0.401590  0.580250  0.002820  1.0
  C  C4702  1  0.848410  0.669750  0.002820  1.0
  C  C4703  1  0.848410  0.580250  0.247180  1.0
  C  C4704  1  0.401590  0.669750  0.247180  1.0
  C  C4705  1  0.076910  0.937880  0.004860  1.0
  C  C4706  1  0.673090  0.812120  0.004860  1.0
  C  C4707  1  0.673090  0.937880  0.745140  1.0
  C  C4708  1  0.076910  0.812120  0.745140  1.0
  C  C4709  1  0.076910  0.437880  0.504860  1.0
  C  C4710  1  0.673090  0.312120  0.504860  1.0
  C  C4711  1  0.673090  0.437880  0.245140  1.0
  C  C4712  1  0.076910  0.312120  0.245140  1.0
  C  C4713  1  0.576910  0.937880  0.504860  1.0
  C  C4714  1  0.173090  0.812120  0.504860  1.0
  C  C4715  1  0.173090  0.937880  0.245140  1.0
  C  C4716  1  0.576910  0.812120  0.245140  1.0
  C  C4717  1  0.576910  0.437880  0.004860  1.0
  C  C4718  1  0.173090  0.312120  0.004860  1.0
  C  C4719  1  0.173090  0.437880  0.745140  1.0
  C  C4720  1  0.576910  0.312120  0.745140  1.0
  C  C4721  1  0.923090  0.062120  0.995140  1.0
  C  C4722  1  0.326910  0.187880  0.995140  1.0
  C  C4723  1  0.326910  0.062120  0.254860  1.0
  C  C4724  1  0.923090  0.187880  0.254860  1.0
  C  C4725  1  0.923090  0.562120  0.495140  1.0
  C  C4726  1  0.326910  0.687880  0.495140  1.0
  C  C4727  1  0.326910  0.562120  0.754860  1.0
  C  C4728  1  0.923090  0.687880  0.754860  1.0
  C  C4729  1  0.423090  0.062120  0.495140  1.0
  C  C4730  1  0.826910  0.187880  0.495140  1.0
  C  C4731  1  0.826910  0.062120  0.754860  1.0
  C  C4732  1  0.423090  0.187880  0.754860  1.0
  C  C4733  1  0.423090  0.562120  0.995140  1.0
  C  C4734  1  0.826910  0.687880  0.995140  1.0
  C  C4735  1  0.826910  0.562120  0.254860  1.0
  C  C4736  1  0.423090  0.687880  0.254860  1.0
  C  C4737  1  0.035390  0.947080  0.998520  1.0
  C  C4738  1  0.714610  0.802920  0.998520  1.0
  C  C4739  1  0.714610  0.947080  0.751480  1.0
  C  C4740  1  0.035390  0.802920  0.751480  1.0
  C  C4741  1  0.035390  0.447080  0.498520  1.0
  C  C4742  1  0.714610  0.302920  0.498520  1.0
  C  C4743  1  0.714610  0.447080  0.251480  1.0
  C  C4744  1  0.035390  0.302920  0.251480  1.0
  C  C4745  1  0.535390  0.947080  0.498520  1.0
  C  C4746  1  0.214610  0.802920  0.498520  1.0
  C  C4747  1  0.214610  0.947080  0.251480  1.0
  C  C4748  1  0.535390  0.802920  0.251480  1.0
  C  C4749  1  0.535390  0.447080  0.998520  1.0
  C  C4750  1  0.214610  0.302920  0.998520  1.0
  C  C4751  1  0.214610  0.447080  0.751480  1.0
  C  C4752  1  0.535390  0.302920  0.751480  1.0
  C  C4753  1  0.964610  0.052920  0.001480  1.0
  C  C4754  1  0.285390  0.197080  0.001480  1.0
  C  C4755  1  0.285390  0.052920  0.248520  1.0
  C  C4756  1  0.964610  0.197080  0.248520  1.0
  C  C4757  1  0.964610  0.552920  0.501480  1.0
  C  C4758  1  0.285390  0.697080  0.501480  1.0
  C  C4759  1  0.285390  0.552920  0.748520  1.0
  C  C4760  1  0.964610  0.697080  0.748520  1.0
  C  C4761  1  0.464610  0.052920  0.501480  1.0
  C  C4762  1  0.785390  0.197080  0.501480  1.0
  C  C4763  1  0.785390  0.052920  0.748520  1.0
  C  C4764  1  0.464610  0.197080  0.748520  1.0
  C  C4765  1  0.464610  0.552920  0.001480  1.0
  C  C4766  1  0.785390  0.697080  0.001480  1.0
  C  C4767  1  0.785390  0.552920  0.248520  1.0
  C  C4768  1  0.464610  0.697080  0.248520  1.0
  C  C4769  1  0.015340  0.938150  0.984490  1.0
  C  C4770  1  0.734660  0.811850  0.984490  1.0
  C  C4771  1  0.734660  0.938150  0.765510  1.0
  C  C4772  1  0.015340  0.811850  0.765510  1.0
  C  C4773  1  0.015340  0.438150  0.484490  1.0
  C  C4774  1  0.734660  0.311850  0.484490  1.0
  C  C4775  1  0.734660  0.438150  0.265510  1.0
  C  C4776  1  0.015340  0.311850  0.265510  1.0
  C  C4777  1  0.515340  0.938150  0.484490  1.0
  C  C4778  1  0.234660  0.811850  0.484490  1.0
  C  C4779  1  0.234660  0.938150  0.265510  1.0
  C  C4780  1  0.515340  0.811850  0.265510  1.0
  C  C4781  1  0.515340  0.438150  0.984490  1.0
  C  C4782  1  0.234660  0.311850  0.984490  1.0
  C  C4783  1  0.234660  0.438150  0.765510  1.0
  C  C4784  1  0.515340  0.311850  0.765510  1.0
  C  C4785  1  0.984660  0.061850  0.015510  1.0
  C  C4786  1  0.265340  0.188150  0.015510  1.0
  C  C4787  1  0.265340  0.061850  0.234490  1.0
  C  C4788  1  0.984660  0.188150  0.234490  1.0
  C  C4789  1  0.984660  0.561850  0.515510  1.0
  C  C4790  1  0.265340  0.688150  0.515510  1.0
  C  C4791  1  0.265340  0.561850  0.734490  1.0
  C  C4792  1  0.984660  0.688150  0.734490  1.0
  C  C4793  1  0.484660  0.061850  0.515510  1.0
  C  C4794  1  0.765340  0.188150  0.515510  1.0
  C  C4795  1  0.765340  0.061850  0.734490  1.0
  C  C4796  1  0.484660  0.188150  0.734490  1.0
  C  C4797  1  0.484660  0.561850  0.015510  1.0
  C  C4798  1  0.765340  0.688150  0.015510  1.0
  C  C4799  1  0.765340  0.561850  0.234490  1.0
  C  C4800  1  0.484660  0.688150  0.234490  1.0
  C  C4801  1  0.036870  0.920030  0.976810  1.0
  C  C4802  1  0.713130  0.829970  0.976810  1.0
  C  C4803  1  0.713130  0.920030  0.773190  1.0
  C  C4804  1  0.036870  0.829970  0.773190  1.0
  C  C4805  1  0.036870  0.420030  0.476810  1.0
  C  C4806  1  0.713130  0.329970  0.476810  1.0
  C  C4807  1  0.713130  0.420030  0.273190  1.0
  C  C4808  1  0.036870  0.329970  0.273190  1.0
  C  C4809  1  0.536870  0.920030  0.476810  1.0
  C  C4810  1  0.213130  0.829970  0.476810  1.0
  C  C4811  1  0.213130  0.920030  0.273190  1.0
  C  C4812  1  0.536870  0.829970  0.273190  1.0
  C  C4813  1  0.536870  0.420030  0.976810  1.0
  C  C4814  1  0.213130  0.329970  0.976810  1.0
  C  C4815  1  0.213130  0.420030  0.773190  1.0
  C  C4816  1  0.536870  0.329970  0.773190  1.0
  C  C4817  1  0.963130  0.079970  0.023190  1.0
  C  C4818  1  0.286870  0.170030  0.023190  1.0
  C  C4819  1  0.286870  0.079970  0.226810  1.0
  C  C4820  1  0.963130  0.170030  0.226810  1.0
  C  C4821  1  0.963130  0.579970  0.523190  1.0
  C  C4822  1  0.286870  0.670030  0.523190  1.0
  C  C4823  1  0.286870  0.579970  0.726810  1.0
  C  C4824  1  0.963130  0.670030  0.726810  1.0
  C  C4825  1  0.463130  0.079970  0.523190  1.0
  C  C4826  1  0.786870  0.170030  0.523190  1.0
  C  C4827  1  0.786870  0.079970  0.726810  1.0
  C  C4828  1  0.463130  0.170030  0.726810  1.0
  C  C4829  1  0.463130  0.579970  0.023190  1.0
  C  C4830  1  0.786870  0.670030  0.023190  1.0
  C  C4831  1  0.786870  0.579970  0.226810  1.0
  C  C4832  1  0.463130  0.670030  0.226810  1.0
  C  C4833  1  0.013890  0.965210  0.006200  1.0
  C  C4834  1  0.736110  0.784790  0.006200  1.0
  C  C4835  1  0.736110  0.965210  0.743800  1.0
  C  C4836  1  0.013890  0.784790  0.743800  1.0
  C  C4837  1  0.013890  0.465210  0.506200  1.0
  C  C4838  1  0.736110  0.284790  0.506200  1.0
  C  C4839  1  0.736110  0.465210  0.243800  1.0
  C  C4840  1  0.013890  0.284790  0.243800  1.0
  C  C4841  1  0.513890  0.965210  0.506200  1.0
  C  C4842  1  0.236110  0.784790  0.506200  1.0
  C  C4843  1  0.236110  0.965210  0.243800  1.0
  C  C4844  1  0.513890  0.784790  0.243800  1.0
  C  C4845  1  0.513890  0.465210  0.006200  1.0
  C  C4846  1  0.236110  0.284790  0.006200  1.0
  C  C4847  1  0.236110  0.465210  0.743800  1.0
  C  C4848  1  0.513890  0.284790  0.743800  1.0
  C  C4849  1  0.986110  0.034790  0.993800  1.0
  C  C4850  1  0.263890  0.215210  0.993800  1.0
  C  C4851  1  0.263890  0.034790  0.256200  1.0
  C  C4852  1  0.986110  0.215210  0.256200  1.0
  C  C4853  1  0.986110  0.534790  0.493800  1.0
  C  C4854  1  0.263890  0.715210  0.493800  1.0
  C  C4855  1  0.263890  0.534790  0.756200  1.0
  C  C4856  1  0.986110  0.715210  0.756200  1.0
  C  C4857  1  0.486110  0.034790  0.493800  1.0
  C  C4858  1  0.763890  0.215210  0.493800  1.0
  C  C4859  1  0.763890  0.034790  0.756200  1.0
  C  C4860  1  0.486110  0.215210  0.756200  1.0
  C  C4861  1  0.486110  0.534790  0.993800  1.0
  C  C4862  1  0.763890  0.715210  0.993800  1.0
  C  C4863  1  0.763890  0.534790  0.256200  1.0
  C  C4864  1  0.486110  0.715210  0.256200  1.0
  C  C4865  1  0.972400  0.974420  0.999870  1.0
  C  C4866  1  0.777600  0.775580  0.999870  1.0
  C  C4867  1  0.777600  0.974420  0.750130  1.0
  C  C4868  1  0.972400  0.775580  0.750130  1.0
  C  C4869  1  0.972400  0.474420  0.499870  1.0
  C  C4870  1  0.777600  0.275580  0.499870  1.0
  C  C4871  1  0.777600  0.474420  0.250130  1.0
  C  C4872  1  0.972400  0.275580  0.250130  1.0
  C  C4873  1  0.472400  0.974420  0.499870  1.0
  C  C4874  1  0.277600  0.775580  0.499870  1.0
  C  C4875  1  0.277600  0.974420  0.250130  1.0
  C  C4876  1  0.472400  0.775580  0.250130  1.0
  C  C4877  1  0.472400  0.474420  0.999870  1.0
  C  C4878  1  0.277600  0.275580  0.999870  1.0
  C  C4879  1  0.277600  0.474420  0.750130  1.0
  C  C4880  1  0.472400  0.275580  0.750130  1.0
  C  C4881  1  0.027600  0.025580  0.000130  1.0
  C  C4882  1  0.222400  0.224420  0.000130  1.0
  C  C4883  1  0.222400  0.025580  0.249870  1.0
  C  C4884  1  0.027600  0.224420  0.249870  1.0
  C  C4885  1  0.027600  0.525580  0.500130  1.0
  C  C4886  1  0.222400  0.724420  0.500130  1.0
  C  C4887  1  0.222400  0.525580  0.749870  1.0
  C  C4888  1  0.027600  0.724420  0.749870  1.0
  C  C4889  1  0.527600  0.025580  0.500130  1.0
  C  C4890  1  0.722400  0.224420  0.500130  1.0
  C  C4891  1  0.722400  0.025580  0.749870  1.0
  C  C4892  1  0.527600  0.224420  0.749870  1.0
  C  C4893  1  0.527600  0.525580  0.000130  1.0
  C  C4894  1  0.722400  0.724420  0.000130  1.0
  C  C4895  1  0.722400  0.525580  0.249870  1.0
  C  C4896  1  0.527600  0.724420  0.249870  1.0
  C  C4897  1  0.952340  0.965490  0.985840  1.0
  C  C4898  1  0.797660  0.784510  0.985840  1.0
  C  C4899  1  0.797660  0.965490  0.764160  1.0
  C  C4900  1  0.952340  0.784510  0.764160  1.0
  C  C4901  1  0.952340  0.465490  0.485840  1.0
  C  C4902  1  0.797660  0.284510  0.485840  1.0
  C  C4903  1  0.797660  0.465490  0.264160  1.0
  C  C4904  1  0.952340  0.284510  0.264160  1.0
  C  C4905  1  0.452340  0.965490  0.485840  1.0
  C  C4906  1  0.297660  0.784510  0.485840  1.0
  C  C4907  1  0.297660  0.965490  0.264160  1.0
  C  C4908  1  0.452340  0.784510  0.264160  1.0
  C  C4909  1  0.452340  0.465490  0.985840  1.0
  C  C4910  1  0.297660  0.284510  0.985840  1.0
  C  C4911  1  0.297660  0.465490  0.764160  1.0
  C  C4912  1  0.452340  0.284510  0.764160  1.0
  C  C4913  1  0.047660  0.034510  0.014160  1.0
  C  C4914  1  0.202340  0.215490  0.014160  1.0
  C  C4915  1  0.202340  0.034510  0.235840  1.0
  C  C4916  1  0.047660  0.215490  0.235840  1.0
  C  C4917  1  0.047660  0.534510  0.514160  1.0
  C  C4918  1  0.202340  0.715490  0.514160  1.0
  C  C4919  1  0.202340  0.534510  0.735840  1.0
  C  C4920  1  0.047660  0.715490  0.735840  1.0
  C  C4921  1  0.547660  0.034510  0.514160  1.0
  C  C4922  1  0.702340  0.215490  0.514160  1.0
  C  C4923  1  0.702340  0.034510  0.735840  1.0
  C  C4924  1  0.547660  0.215490  0.735840  1.0
  C  C4925  1  0.547660  0.534510  0.014160  1.0
  C  C4926  1  0.702340  0.715490  0.014160  1.0
  C  C4927  1  0.702340  0.534510  0.235840  1.0
  C  C4928  1  0.547660  0.715490  0.235840  1.0
  C  C4929  1  0.973810  0.947370  0.978150  1.0
  C  C4930  1  0.776190  0.802630  0.978150  1.0
  C  C4931  1  0.776190  0.947370  0.771850  1.0
  C  C4932  1  0.973810  0.802630  0.771850  1.0
  C  C4933  1  0.973810  0.447370  0.478150  1.0
  C  C4934  1  0.776190  0.302630  0.478150  1.0
  C  C4935  1  0.776190  0.447370  0.271850  1.0
  C  C4936  1  0.973810  0.302630  0.271850  1.0
  C  C4937  1  0.473810  0.947370  0.478150  1.0
  C  C4938  1  0.276190  0.802630  0.478150  1.0
  C  C4939  1  0.276190  0.947370  0.271850  1.0
  C  C4940  1  0.473810  0.802630  0.271850  1.0
  C  C4941  1  0.473810  0.447370  0.978150  1.0
  C  C4942  1  0.276190  0.302630  0.978150  1.0
  C  C4943  1  0.276190  0.447370  0.771850  1.0
  C  C4944  1  0.473810  0.302630  0.771850  1.0
  C  C4945  1  0.026190  0.052630  0.021850  1.0
  C  C4946  1  0.223810  0.197370  0.021850  1.0
  C  C4947  1  0.223810  0.052630  0.228150  1.0
  C  C4948  1  0.026190  0.197370  0.228150  1.0
  C  C4949  1  0.026190  0.552630  0.521850  1.0
  C  C4950  1  0.223810  0.697370  0.521850  1.0
  C  C4951  1  0.223810  0.552630  0.728150  1.0
  C  C4952  1  0.026190  0.697370  0.728150  1.0
  C  C4953  1  0.526190  0.052630  0.521850  1.0
  C  C4954  1  0.723810  0.197370  0.521850  1.0
  C  C4955  1  0.723810  0.052630  0.728150  1.0
  C  C4956  1  0.526190  0.197370  0.728150  1.0
  C  C4957  1  0.526190  0.552630  0.021850  1.0
  C  C4958  1  0.723810  0.697370  0.021850  1.0
  C  C4959  1  0.723810  0.552630  0.228150  1.0
  C  C4960  1  0.526190  0.697370  0.228150  1.0
  C  C4961  1  0.909960  0.977680  0.977670  1.0
  C  C4962  1  0.840040  0.772320  0.977670  1.0
  C  C4963  1  0.840040  0.977680  0.772330  1.0
  C  C4964  1  0.909960  0.772320  0.772330  1.0
  C  C4965  1  0.909960  0.477680  0.477670  1.0
  C  C4966  1  0.840040  0.272320  0.477670  1.0
  C  C4967  1  0.840040  0.477680  0.272330  1.0
  C  C4968  1  0.909960  0.272320  0.272330  1.0
  C  C4969  1  0.409960  0.977680  0.477670  1.0
  C  C4970  1  0.340040  0.772320  0.477670  1.0
  C  C4971  1  0.340040  0.977680  0.272330  1.0
  C  C4972  1  0.409960  0.772320  0.272330  1.0
  C  C4973  1  0.409960  0.477680  0.977670  1.0
  C  C4974  1  0.340040  0.272320  0.977670  1.0
  C  C4975  1  0.340040  0.477680  0.772330  1.0
  C  C4976  1  0.409960  0.272320  0.772330  1.0
  C  C4977  1  0.090040  0.022320  0.022330  1.0
  C  C4978  1  0.159960  0.227680  0.022330  1.0
  C  C4979  1  0.159960  0.022320  0.227670  1.0
  C  C4980  1  0.090040  0.227680  0.227670  1.0
  C  C4981  1  0.090040  0.522320  0.522330  1.0
  C  C4982  1  0.159960  0.727680  0.522330  1.0
  C  C4983  1  0.159960  0.522320  0.727670  1.0
  C  C4984  1  0.090040  0.727680  0.727670  1.0
  C  C4985  1  0.590040  0.022320  0.522330  1.0
  C  C4986  1  0.659960  0.227680  0.522330  1.0
  C  C4987  1  0.659960  0.022320  0.727670  1.0
  C  C4988  1  0.590040  0.227680  0.727670  1.0
  C  C4989  1  0.590040  0.522320  0.022330  1.0
  C  C4990  1  0.659960  0.727680  0.022330  1.0
  C  C4991  1  0.659960  0.522320  0.227670  1.0
  C  C4992  1  0.590040  0.727680  0.227670  1.0
  C  C4993  1  0.098600  0.724850  0.862090  1.0
  C  C4994  1  0.651400  0.025150  0.862090  1.0
  C  C4995  1  0.651400  0.724850  0.887910  1.0
  C  C4996  1  0.098600  0.025150  0.887910  1.0
  C  C4997  1  0.098600  0.224850  0.362090  1.0
  C  C4998  1  0.651400  0.525150  0.362090  1.0
  C  C4999  1  0.651400  0.224850  0.387910  1.0
  C  C5000  1  0.098600  0.525150  0.387910  1.0
  C  C5001  1  0.598600  0.724850  0.362090  1.0
  C  C5002  1  0.151400  0.025150  0.362090  1.0
  C  C5003  1  0.151400  0.724850  0.387910  1.0
  C  C5004  1  0.598600  0.025150  0.387910  1.0
  C  C5005  1  0.598600  0.224850  0.862090  1.0
  C  C5006  1  0.151400  0.525150  0.862090  1.0
  C  C5007  1  0.151400  0.224850  0.887910  1.0
  C  C5008  1  0.598600  0.525150  0.887910  1.0
  C  C5009  1  0.901400  0.275150  0.137910  1.0
  C  C5010  1  0.348600  0.974850  0.137910  1.0
  C  C5011  1  0.348600  0.275150  0.112090  1.0
  C  C5012  1  0.901400  0.974850  0.112090  1.0
  C  C5013  1  0.901400  0.775150  0.637910  1.0
  C  C5014  1  0.348600  0.474850  0.637910  1.0
  C  C5015  1  0.348600  0.775150  0.612090  1.0
  C  C5016  1  0.901400  0.474850  0.612090  1.0
  C  C5017  1  0.401400  0.275150  0.637910  1.0
  C  C5018  1  0.848600  0.974850  0.637910  1.0
  C  C5019  1  0.848600  0.275150  0.612090  1.0
  C  C5020  1  0.401400  0.974850  0.612090  1.0
  C  C5021  1  0.401400  0.775150  0.137910  1.0
  C  C5022  1  0.848600  0.474850  0.137910  1.0
  C  C5023  1  0.848600  0.775150  0.112090  1.0
  C  C5024  1  0.401400  0.474850  0.112090  1.0
  C  C5025  1  0.071060  0.712860  0.847910  1.0
  C  C5026  1  0.678940  0.037140  0.847910  1.0
  C  C5027  1  0.678940  0.712860  0.902090  1.0
  C  C5028  1  0.071060  0.037140  0.902090  1.0
  C  C5029  1  0.071060  0.212860  0.347910  1.0
  C  C5030  1  0.678940  0.537140  0.347910  1.0
  C  C5031  1  0.678940  0.212860  0.402090  1.0
  C  C5032  1  0.071060  0.537140  0.402090  1.0
  C  C5033  1  0.571060  0.712860  0.347910  1.0
  C  C5034  1  0.178940  0.037140  0.347910  1.0
  C  C5035  1  0.178940  0.712860  0.402090  1.0
  C  C5036  1  0.571060  0.037140  0.402090  1.0
  C  C5037  1  0.571060  0.212860  0.847910  1.0
  C  C5038  1  0.178940  0.537140  0.847910  1.0
  C  C5039  1  0.178940  0.212860  0.902090  1.0
  C  C5040  1  0.571060  0.537140  0.902090  1.0
  C  C5041  1  0.928940  0.287140  0.152090  1.0
  C  C5042  1  0.321060  0.962860  0.152090  1.0
  C  C5043  1  0.321060  0.287140  0.097910  1.0
  C  C5044  1  0.928940  0.962860  0.097910  1.0
  C  C5045  1  0.928940  0.787140  0.652090  1.0
  C  C5046  1  0.321060  0.462860  0.652090  1.0
  C  C5047  1  0.321060  0.787140  0.597910  1.0
  C  C5048  1  0.928940  0.462860  0.597910  1.0
  C  C5049  1  0.428940  0.287140  0.652090  1.0
  C  C5050  1  0.821060  0.962860  0.652090  1.0
  C  C5051  1  0.821060  0.287140  0.597910  1.0
  C  C5052  1  0.428940  0.962860  0.597910  1.0
  C  C5053  1  0.428940  0.787140  0.152090  1.0
  C  C5054  1  0.821060  0.462860  0.152090  1.0
  C  C5055  1  0.821060  0.787140  0.097910  1.0
  C  C5056  1  0.428940  0.462860  0.097910  1.0
  C  C5057  1  0.086570  0.692450  0.841710  1.0
  C  C5058  1  0.663430  0.057550  0.841710  1.0
  C  C5059  1  0.663430  0.692450  0.908290  1.0
  C  C5060  1  0.086570  0.057550  0.908290  1.0
  C  C5061  1  0.086570  0.192450  0.341710  1.0
  C  C5062  1  0.663430  0.557550  0.341710  1.0
  C  C5063  1  0.663430  0.192450  0.408290  1.0
  C  C5064  1  0.086570  0.557550  0.408290  1.0
  C  C5065  1  0.586570  0.692450  0.341710  1.0
  C  C5066  1  0.163430  0.057550  0.341710  1.0
  C  C5067  1  0.163430  0.692450  0.408290  1.0
  C  C5068  1  0.586570  0.057550  0.408290  1.0
  C  C5069  1  0.586570  0.192450  0.841710  1.0
  C  C5070  1  0.163430  0.557550  0.841710  1.0
  C  C5071  1  0.163430  0.192450  0.908290  1.0
  C  C5072  1  0.586570  0.557550  0.908290  1.0
  C  C5073  1  0.913430  0.307550  0.158290  1.0
  C  C5074  1  0.336570  0.942450  0.158290  1.0
  C  C5075  1  0.336570  0.307550  0.091710  1.0
  C  C5076  1  0.913430  0.942450  0.091710  1.0
  C  C5077  1  0.913430  0.807550  0.658290  1.0
  C  C5078  1  0.336570  0.442450  0.658290  1.0
  C  C5079  1  0.336570  0.807550  0.591710  1.0
  C  C5080  1  0.913430  0.442450  0.591710  1.0
  C  C5081  1  0.413430  0.307550  0.658290  1.0
  C  C5082  1  0.836570  0.942450  0.658290  1.0
  C  C5083  1  0.836570  0.307550  0.591710  1.0
  C  C5084  1  0.413430  0.942450  0.591710  1.0
  C  C5085  1  0.413430  0.807550  0.158290  1.0
  C  C5086  1  0.836570  0.442450  0.158290  1.0
  C  C5087  1  0.836570  0.807550  0.091710  1.0
  C  C5088  1  0.413430  0.442450  0.091710  1.0
  C  C5089  1  0.063430  0.682890  0.828480  1.0
  C  C5090  1  0.686570  0.067110  0.828480  1.0
  C  C5091  1  0.686570  0.682890  0.921520  1.0
  C  C5092  1  0.063430  0.067110  0.921520  1.0
  C  C5093  1  0.063430  0.182890  0.328480  1.0
  C  C5094  1  0.686570  0.567110  0.328480  1.0
  C  C5095  1  0.686570  0.182890  0.421520  1.0
  C  C5096  1  0.063430  0.567110  0.421520  1.0
  C  C5097  1  0.563430  0.682890  0.328480  1.0
  C  C5098  1  0.186570  0.067110  0.328480  1.0
  C  C5099  1  0.186570  0.682890  0.421520  1.0
  C  C5100  1  0.563430  0.067110  0.421520  1.0
  C  C5101  1  0.563430  0.182890  0.828480  1.0
  C  C5102  1  0.186570  0.567110  0.828480  1.0
  C  C5103  1  0.186570  0.182890  0.921520  1.0
  C  C5104  1  0.563430  0.567110  0.921520  1.0
  C  C5105  1  0.936570  0.317110  0.171520  1.0
  C  C5106  1  0.313430  0.932890  0.171520  1.0
  C  C5107  1  0.313430  0.317110  0.078480  1.0
  C  C5108  1  0.936570  0.932890  0.078480  1.0
  C  C5109  1  0.936570  0.817110  0.671520  1.0
  C  C5110  1  0.313430  0.432890  0.671520  1.0
  C  C5111  1  0.313430  0.817110  0.578480  1.0
  C  C5112  1  0.936570  0.432890  0.578480  1.0
  C  C5113  1  0.436570  0.317110  0.671520  1.0
  C  C5114  1  0.813430  0.932890  0.671520  1.0
  C  C5115  1  0.813430  0.317110  0.578480  1.0
  C  C5116  1  0.436570  0.932890  0.578480  1.0
  C  C5117  1  0.436570  0.817110  0.171520  1.0
  C  C5118  1  0.813430  0.432890  0.171520  1.0
  C  C5119  1  0.813430  0.817110  0.078480  1.0
  C  C5120  1  0.436570  0.432890  0.078480  1.0
  C  C5121  1  0.024780  0.693750  0.821440  1.0
  C  C5122  1  0.725220  0.056250  0.821440  1.0
  C  C5123  1  0.725220  0.693750  0.928560  1.0
  C  C5124  1  0.024780  0.056250  0.928560  1.0
  C  C5125  1  0.024780  0.193750  0.321440  1.0
  C  C5126  1  0.725220  0.556250  0.321440  1.0
  C  C5127  1  0.725220  0.193750  0.428560  1.0
  C  C5128  1  0.024780  0.556250  0.428560  1.0
  C  C5129  1  0.524780  0.693750  0.321440  1.0
  C  C5130  1  0.225220  0.056250  0.321440  1.0
  C  C5131  1  0.225220  0.693750  0.428560  1.0
  C  C5132  1  0.524780  0.056250  0.428560  1.0
  C  C5133  1  0.524780  0.193750  0.821440  1.0
  C  C5134  1  0.225220  0.556250  0.821440  1.0
  C  C5135  1  0.225220  0.193750  0.928560  1.0
  C  C5136  1  0.524780  0.556250  0.928560  1.0
  C  C5137  1  0.975220  0.306250  0.178560  1.0
  C  C5138  1  0.274780  0.943750  0.178560  1.0
  C  C5139  1  0.274780  0.306250  0.071440  1.0
  C  C5140  1  0.975220  0.943750  0.071440  1.0
  C  C5141  1  0.975220  0.806250  0.678560  1.0
  C  C5142  1  0.274780  0.443750  0.678560  1.0
  C  C5143  1  0.274780  0.806250  0.571440  1.0
  C  C5144  1  0.975220  0.443750  0.571440  1.0
  C  C5145  1  0.475220  0.306250  0.678560  1.0
  C  C5146  1  0.774780  0.943750  0.678560  1.0
  C  C5147  1  0.774780  0.306250  0.571440  1.0
  C  C5148  1  0.475220  0.943750  0.571440  1.0
  C  C5149  1  0.475220  0.806250  0.178560  1.0
  C  C5150  1  0.774780  0.443750  0.178560  1.0
  C  C5151  1  0.774780  0.806250  0.071440  1.0
  C  C5152  1  0.475220  0.443750  0.071440  1.0
  C  C5153  1  0.009280  0.714170  0.827640  1.0
  C  C5154  1  0.740720  0.035830  0.827640  1.0
  C  C5155  1  0.740720  0.714170  0.922360  1.0
  C  C5156  1  0.009280  0.035830  0.922360  1.0
  C  C5157  1  0.009280  0.214170  0.327640  1.0
  C  C5158  1  0.740720  0.535830  0.327640  1.0
  C  C5159  1  0.740720  0.214170  0.422360  1.0
  C  C5160  1  0.009280  0.535830  0.422360  1.0
  C  C5161  1  0.509280  0.714170  0.327640  1.0
  C  C5162  1  0.240720  0.035830  0.327640  1.0
  C  C5163  1  0.240720  0.714170  0.422360  1.0
  C  C5164  1  0.509280  0.035830  0.422360  1.0
  C  C5165  1  0.509280  0.214170  0.827640  1.0
  C  C5166  1  0.240720  0.535830  0.827640  1.0
  C  C5167  1  0.240720  0.214170  0.922360  1.0
  C  C5168  1  0.509280  0.535830  0.922360  1.0
  C  C5169  1  0.990720  0.285830  0.172360  1.0
  C  C5170  1  0.259280  0.964170  0.172360  1.0
  C  C5171  1  0.259280  0.285830  0.077640  1.0
  C  C5172  1  0.990720  0.964170  0.077640  1.0
  C  C5173  1  0.990720  0.785830  0.672360  1.0
  C  C5174  1  0.259280  0.464170  0.672360  1.0
  C  C5175  1  0.259280  0.785830  0.577640  1.0
  C  C5176  1  0.990720  0.464170  0.577640  1.0
  C  C5177  1  0.490720  0.285830  0.672360  1.0
  C  C5178  1  0.759280  0.964170  0.672360  1.0
  C  C5179  1  0.759280  0.285830  0.577640  1.0
  C  C5180  1  0.490720  0.964170  0.577640  1.0
  C  C5181  1  0.490720  0.785830  0.172360  1.0
  C  C5182  1  0.759280  0.464170  0.172360  1.0
  C  C5183  1  0.759280  0.785830  0.077640  1.0
  C  C5184  1  0.490720  0.464170  0.077640  1.0
  C  C5185  1  0.032420  0.723720  0.840870  1.0
  C  C5186  1  0.717580  0.026280  0.840870  1.0
  C  C5187  1  0.717580  0.723720  0.909130  1.0
  C  C5188  1  0.032420  0.026280  0.909130  1.0
  C  C5189  1  0.032420  0.223720  0.340870  1.0
  C  C5190  1  0.717580  0.526280  0.340870  1.0
  C  C5191  1  0.717580  0.223720  0.409130  1.0
  C  C5192  1  0.032420  0.526280  0.409130  1.0
  C  C5193  1  0.532420  0.723720  0.340870  1.0
  C  C5194  1  0.217580  0.026280  0.340870  1.0
  C  C5195  1  0.217580  0.723720  0.409130  1.0
  C  C5196  1  0.532420  0.026280  0.409130  1.0
  C  C5197  1  0.532420  0.223720  0.840870  1.0
  C  C5198  1  0.217580  0.526280  0.840870  1.0
  C  C5199  1  0.217580  0.223720  0.909130  1.0
  C  C5200  1  0.532420  0.526280  0.909130  1.0
  C  C5201  1  0.967580  0.276280  0.159130  1.0
  C  C5202  1  0.282420  0.973720  0.159130  1.0
  C  C5203  1  0.282420  0.276280  0.090870  1.0
  C  C5204  1  0.967580  0.973720  0.090870  1.0
  C  C5205  1  0.967580  0.776280  0.659130  1.0
  C  C5206  1  0.282420  0.473720  0.659130  1.0
  C  C5207  1  0.282420  0.776280  0.590870  1.0
  C  C5208  1  0.967580  0.473720  0.590870  1.0
  C  C5209  1  0.467580  0.276280  0.659130  1.0
  C  C5210  1  0.782420  0.973720  0.659130  1.0
  C  C5211  1  0.782420  0.276280  0.590870  1.0
  C  C5212  1  0.467580  0.973720  0.590870  1.0
  C  C5213  1  0.467580  0.776280  0.159130  1.0
  C  C5214  1  0.782420  0.473720  0.159130  1.0
  C  C5215  1  0.782420  0.776280  0.090870  1.0
  C  C5216  1  0.467580  0.473720  0.090870  1.0
  C  C5217  1  0.001620  0.684210  0.808200  1.0
  C  C5218  1  0.748380  0.065790  0.808200  1.0
  C  C5219  1  0.748380  0.684210  0.941800  1.0
  C  C5220  1  0.001620  0.065790  0.941800  1.0
  C  C5221  1  0.001620  0.184210  0.308200  1.0
  C  C5222  1  0.748380  0.565790  0.308200  1.0
  C  C5223  1  0.748380  0.184210  0.441800  1.0
  C  C5224  1  0.001620  0.565790  0.441800  1.0
  C  C5225  1  0.501620  0.684210  0.308200  1.0
  C  C5226  1  0.248380  0.065790  0.308200  1.0
  C  C5227  1  0.248380  0.684210  0.441800  1.0
  C  C5228  1  0.501620  0.065790  0.441800  1.0
  C  C5229  1  0.501620  0.184210  0.808200  1.0
  C  C5230  1  0.248380  0.565790  0.808200  1.0
  C  C5231  1  0.248380  0.184210  0.941800  1.0
  C  C5232  1  0.501620  0.565790  0.941800  1.0
  C  C5233  1  0.998380  0.315790  0.191800  1.0
  C  C5234  1  0.251620  0.934210  0.191800  1.0
  C  C5235  1  0.251620  0.315790  0.058200  1.0
  C  C5236  1  0.998380  0.934210  0.058200  1.0
  C  C5237  1  0.998380  0.815790  0.691800  1.0
  C  C5238  1  0.251620  0.434210  0.691800  1.0
  C  C5239  1  0.251620  0.815790  0.558200  1.0
  C  C5240  1  0.998380  0.434210  0.558200  1.0
  C  C5241  1  0.498380  0.315790  0.691800  1.0
  C  C5242  1  0.751620  0.934210  0.691800  1.0
  C  C5243  1  0.751620  0.315790  0.558200  1.0
  C  C5244  1  0.498380  0.934210  0.558200  1.0
  C  C5245  1  0.498380  0.815790  0.191800  1.0
  C  C5246  1  0.751620  0.434210  0.191800  1.0
  C  C5247  1  0.751620  0.815790  0.058200  1.0
  C  C5248  1  0.498380  0.434210  0.058200  1.0
  C  C5249  1  0.963000  0.695080  0.801170  1.0
  C  C5250  1  0.787000  0.054920  0.801170  1.0
  C  C5251  1  0.787000  0.695080  0.948830  1.0
  C  C5252  1  0.963000  0.054920  0.948830  1.0
  C  C5253  1  0.963000  0.195080  0.301170  1.0
  C  C5254  1  0.787000  0.554920  0.301170  1.0
  C  C5255  1  0.787000  0.195080  0.448830  1.0
  C  C5256  1  0.963000  0.554920  0.448830  1.0
  C  C5257  1  0.463000  0.695080  0.301170  1.0
  C  C5258  1  0.287000  0.054920  0.301170  1.0
  C  C5259  1  0.287000  0.695080  0.448830  1.0
  C  C5260  1  0.463000  0.054920  0.448830  1.0
  C  C5261  1  0.463000  0.195080  0.801170  1.0
  C  C5262  1  0.287000  0.554920  0.801170  1.0
  C  C5263  1  0.287000  0.195080  0.948830  1.0
  C  C5264  1  0.463000  0.554920  0.948830  1.0
  C  C5265  1  0.037000  0.304920  0.198830  1.0
  C  C5266  1  0.213000  0.945080  0.198830  1.0
  C  C5267  1  0.213000  0.304920  0.051170  1.0
  C  C5268  1  0.037000  0.945080  0.051170  1.0
  C  C5269  1  0.037000  0.804920  0.698830  1.0
  C  C5270  1  0.213000  0.445080  0.698830  1.0
  C  C5271  1  0.213000  0.804920  0.551170  1.0
  C  C5272  1  0.037000  0.445080  0.551170  1.0
  C  C5273  1  0.537000  0.304920  0.698830  1.0
  C  C5274  1  0.713000  0.945080  0.698830  1.0
  C  C5275  1  0.713000  0.304920  0.551170  1.0
  C  C5276  1  0.537000  0.945080  0.551170  1.0
  C  C5277  1  0.537000  0.804920  0.198830  1.0
  C  C5278  1  0.713000  0.445080  0.198830  1.0
  C  C5279  1  0.713000  0.804920  0.051170  1.0
  C  C5280  1  0.537000  0.445080  0.051170  1.0
  C  C5281  1  0.947490  0.715500  0.807370  1.0
  C  C5282  1  0.802510  0.034500  0.807370  1.0
  C  C5283  1  0.802510  0.715500  0.942630  1.0
  C  C5284  1  0.947490  0.034500  0.942630  1.0
  C  C5285  1  0.947490  0.215500  0.307370  1.0
  C  C5286  1  0.802510  0.534500  0.307370  1.0
  C  C5287  1  0.802510  0.215500  0.442630  1.0
  C  C5288  1  0.947490  0.534500  0.442630  1.0
  C  C5289  1  0.447490  0.715500  0.307370  1.0
  C  C5290  1  0.302510  0.034500  0.307370  1.0
  C  C5291  1  0.302510  0.715500  0.442630  1.0
  C  C5292  1  0.447490  0.034500  0.442630  1.0
  C  C5293  1  0.447490  0.215500  0.807370  1.0
  C  C5294  1  0.302510  0.534500  0.807370  1.0
  C  C5295  1  0.302510  0.215500  0.942630  1.0
  C  C5296  1  0.447490  0.534500  0.942630  1.0
  C  C5297  1  0.052510  0.284500  0.192630  1.0
  C  C5298  1  0.197490  0.965500  0.192630  1.0
  C  C5299  1  0.197490  0.284500  0.057370  1.0
  C  C5300  1  0.052510  0.965500  0.057370  1.0
  C  C5301  1  0.052510  0.784500  0.692630  1.0
  C  C5302  1  0.197490  0.465500  0.692630  1.0
  C  C5303  1  0.197490  0.784500  0.557370  1.0
  C  C5304  1  0.052510  0.465500  0.557370  1.0
  C  C5305  1  0.552510  0.284500  0.692630  1.0
  C  C5306  1  0.697490  0.965500  0.692630  1.0
  C  C5307  1  0.697490  0.284500  0.557370  1.0
  C  C5308  1  0.552510  0.965500  0.557370  1.0
  C  C5309  1  0.552510  0.784500  0.192630  1.0
  C  C5310  1  0.697490  0.465500  0.192630  1.0
  C  C5311  1  0.697490  0.784500  0.057370  1.0
  C  C5312  1  0.552510  0.465500  0.057370  1.0
  C  C5313  1  0.970640  0.725040  0.820600  1.0
  C  C5314  1  0.779360  0.024960  0.820600  1.0
  C  C5315  1  0.779360  0.725040  0.929400  1.0
  C  C5316  1  0.970640  0.024960  0.929400  1.0
  C  C5317  1  0.970640  0.225040  0.320600  1.0
  C  C5318  1  0.779360  0.524960  0.320600  1.0
  C  C5319  1  0.779360  0.225040  0.429400  1.0
  C  C5320  1  0.970640  0.524960  0.429400  1.0
  C  C5321  1  0.470640  0.725040  0.320600  1.0
  C  C5322  1  0.279360  0.024960  0.320600  1.0
  C  C5323  1  0.279360  0.725040  0.429400  1.0
  C  C5324  1  0.470640  0.024960  0.429400  1.0
  C  C5325  1  0.470640  0.225040  0.820600  1.0
  C  C5326  1  0.279360  0.524960  0.820600  1.0
  C  C5327  1  0.279360  0.225040  0.929400  1.0
  C  C5328  1  0.470640  0.524960  0.929400  1.0
  C  C5329  1  0.029360  0.274960  0.179400  1.0
  C  C5330  1  0.220640  0.975040  0.179400  1.0
  C  C5331  1  0.220640  0.274960  0.070600  1.0
  C  C5332  1  0.029360  0.975040  0.070600  1.0
  C  C5333  1  0.029360  0.774960  0.679400  1.0
  C  C5334  1  0.220640  0.475040  0.679400  1.0
  C  C5335  1  0.220640  0.774960  0.570600  1.0
  C  C5336  1  0.029360  0.475040  0.570600  1.0
  C  C5337  1  0.529360  0.274960  0.679400  1.0
  C  C5338  1  0.720640  0.975040  0.679400  1.0
  C  C5339  1  0.720640  0.274960  0.570600  1.0
  C  C5340  1  0.529360  0.975040  0.570600  1.0
  C  C5341  1  0.529360  0.774960  0.179400  1.0
  C  C5342  1  0.720640  0.475040  0.179400  1.0
  C  C5343  1  0.720640  0.774960  0.070600  1.0
  C  C5344  1  0.529360  0.475040  0.070600  1.0
  C  C5345  1  0.907600  0.729380  0.799360  1.0
  C  C5346  1  0.842400  0.020620  0.799360  1.0
  C  C5347  1  0.842400  0.729380  0.950640  1.0
  C  C5348  1  0.907600  0.020620  0.950640  1.0
  C  C5349  1  0.907600  0.229380  0.299360  1.0
  C  C5350  1  0.842400  0.520620  0.299360  1.0
  C  C5351  1  0.842400  0.229380  0.450640  1.0
  C  C5352  1  0.907600  0.520620  0.450640  1.0
  C  C5353  1  0.407600  0.729380  0.299360  1.0
  C  C5354  1  0.342400  0.020620  0.299360  1.0
  C  C5355  1  0.342400  0.729380  0.450640  1.0
  C  C5356  1  0.407600  0.020620  0.450640  1.0
  C  C5357  1  0.407600  0.229380  0.799360  1.0
  C  C5358  1  0.342400  0.520620  0.799360  1.0
  C  C5359  1  0.342400  0.229380  0.950640  1.0
  C  C5360  1  0.407600  0.520620  0.950640  1.0
  C  C5361  1  0.092400  0.270620  0.200640  1.0
  C  C5362  1  0.157600  0.979380  0.200640  1.0
  C  C5363  1  0.157600  0.270620  0.049360  1.0
  C  C5364  1  0.092400  0.979380  0.049360  1.0
  C  C5365  1  0.092400  0.770620  0.700640  1.0
  C  C5366  1  0.157600  0.479380  0.700640  1.0
  C  C5367  1  0.157600  0.770620  0.549360  1.0
  C  C5368  1  0.092400  0.479380  0.549360  1.0
  C  C5369  1  0.592400  0.270620  0.700640  1.0
  C  C5370  1  0.657600  0.979380  0.700640  1.0
  C  C5371  1  0.657600  0.270620  0.549360  1.0
  C  C5372  1  0.592400  0.979380  0.549360  1.0
  C  C5373  1  0.592400  0.770620  0.200640  1.0
  C  C5374  1  0.657600  0.479380  0.200640  1.0
  C  C5375  1  0.657600  0.770620  0.049360  1.0
  C  C5376  1  0.592400  0.479380  0.049360  1.0
  O  O5377  1  0.206390  0.835710  0.959910  1.0
  O  O5378  1  0.543610  0.914290  0.959910  1.0
  O  O5379  1  0.543610  0.835710  0.790090  1.0
  O  O5380  1  0.206390  0.914290  0.790090  1.0
  O  O5381  1  0.206390  0.335710  0.459910  1.0
  O  O5382  1  0.543610  0.414290  0.459910  1.0
  O  O5383  1  0.543610  0.335710  0.290090  1.0
  O  O5384  1  0.206390  0.414290  0.290090  1.0
  O  O5385  1  0.706390  0.835710  0.459910  1.0
  O  O5386  1  0.043610  0.914290  0.459910  1.0
  O  O5387  1  0.043610  0.835710  0.290090  1.0
  O  O5388  1  0.706390  0.914290  0.290090  1.0
  O  O5389  1  0.706390  0.335710  0.959910  1.0
  O  O5390  1  0.043610  0.414290  0.959910  1.0
  O  O5391  1  0.043610  0.335710  0.790090  1.0
  O  O5392  1  0.706390  0.414290  0.790090  1.0
  O  O5393  1  0.793610  0.164290  0.040090  1.0
  O  O5394  1  0.456390  0.085710  0.040090  1.0
  O  O5395  1  0.456390  0.164290  0.209910  1.0
  O  O5396  1  0.793610  0.085710  0.209910  1.0
  O  O5397  1  0.793610  0.664290  0.540090  1.0
  O  O5398  1  0.456390  0.585710  0.540090  1.0
  O  O5399  1  0.456390  0.664290  0.709910  1.0
  O  O5400  1  0.793610  0.585710  0.709910  1.0
  O  O5401  1  0.293610  0.164290  0.540090  1.0
  O  O5402  1  0.956390  0.085710  0.540090  1.0
  O  O5403  1  0.956390  0.164290  0.709910  1.0
  O  O5404  1  0.293610  0.085710  0.709910  1.0
  O  O5405  1  0.293610  0.664290  0.040090  1.0
  O  O5406  1  0.956390  0.585710  0.040090  1.0
  O  O5407  1  0.956390  0.664290  0.209910  1.0
  O  O5408  1  0.293610  0.585710  0.209910  1.0
  O  O5409  1  0.154130  0.837630  0.938770  1.0
  O  O5410  1  0.595870  0.912370  0.938770  1.0
  O  O5411  1  0.595870  0.837630  0.811230  1.0
  O  O5412  1  0.154130  0.912370  0.811230  1.0
  O  O5413  1  0.154130  0.337630  0.438770  1.0
  O  O5414  1  0.595870  0.412370  0.438770  1.0
  O  O5415  1  0.595870  0.337630  0.311230  1.0
  O  O5416  1  0.154130  0.412370  0.311230  1.0
  O  O5417  1  0.654130  0.837630  0.438770  1.0
  O  O5418  1  0.095870  0.912370  0.438770  1.0
  O  O5419  1  0.095870  0.837630  0.311230  1.0
  O  O5420  1  0.654130  0.912370  0.311230  1.0
  O  O5421  1  0.654130  0.337630  0.938770  1.0
  O  O5422  1  0.095870  0.412370  0.938770  1.0
  O  O5423  1  0.095870  0.337630  0.811230  1.0
  O  O5424  1  0.654130  0.412370  0.811230  1.0
  O  O5425  1  0.845870  0.162370  0.061230  1.0
  O  O5426  1  0.404130  0.087630  0.061230  1.0
  O  O5427  1  0.404130  0.162370  0.188770  1.0
  O  O5428  1  0.845870  0.087630  0.188770  1.0
  O  O5429  1  0.845870  0.662370  0.561230  1.0
  O  O5430  1  0.404130  0.587630  0.561230  1.0
  O  O5431  1  0.404130  0.662370  0.688770  1.0
  O  O5432  1  0.845870  0.587630  0.688770  1.0
  O  O5433  1  0.345870  0.162370  0.561230  1.0
  O  O5434  1  0.904130  0.087630  0.561230  1.0
  O  O5435  1  0.904130  0.162370  0.688770  1.0
  O  O5436  1  0.345870  0.087630  0.688770  1.0
  O  O5437  1  0.345870  0.662370  0.061230  1.0
  O  O5438  1  0.904130  0.587630  0.061230  1.0
  O  O5439  1  0.904130  0.662370  0.188770  1.0
  O  O5440  1  0.345870  0.587630  0.188770  1.0
  O  O5441  1  0.200960  0.747660  0.901000  1.0
  O  O5442  1  0.549040  0.002340  0.901000  1.0
  O  O5443  1  0.549040  0.747660  0.849000  1.0
  O  O5444  1  0.200960  0.002340  0.849000  1.0
  O  O5445  1  0.200960  0.247660  0.401000  1.0
  O  O5446  1  0.549040  0.502340  0.401000  1.0
  O  O5447  1  0.549040  0.247660  0.349000  1.0
  O  O5448  1  0.200960  0.502340  0.349000  1.0
  O  O5449  1  0.700960  0.747660  0.401000  1.0
  O  O5450  1  0.049040  0.002340  0.401000  1.0
  O  O5451  1  0.049040  0.747660  0.349000  1.0
  O  O5452  1  0.700960  0.002340  0.349000  1.0
  O  O5453  1  0.700960  0.247660  0.901000  1.0
  O  O5454  1  0.049040  0.502340  0.901000  1.0
  O  O5455  1  0.049040  0.247660  0.849000  1.0
  O  O5456  1  0.700960  0.502340  0.849000  1.0
  O  O5457  1  0.799040  0.252340  0.099000  1.0
  O  O5458  1  0.450960  0.997660  0.099000  1.0
  O  O5459  1  0.450960  0.252340  0.151000  1.0
  O  O5460  1  0.799040  0.997660  0.151000  1.0
  O  O5461  1  0.799040  0.752340  0.599000  1.0
  O  O5462  1  0.450960  0.497660  0.599000  1.0
  O  O5463  1  0.450960  0.752340  0.651000  1.0
  O  O5464  1  0.799040  0.497660  0.651000  1.0
  O  O5465  1  0.299040  0.252340  0.599000  1.0
  O  O5466  1  0.950960  0.997660  0.599000  1.0
  O  O5467  1  0.950960  0.252340  0.651000  1.0
  O  O5468  1  0.299040  0.997660  0.651000  1.0
  O  O5469  1  0.299040  0.752340  0.099000  1.0
  O  O5470  1  0.950960  0.497660  0.099000  1.0
  O  O5471  1  0.950960  0.752340  0.151000  1.0
  O  O5472  1  0.299040  0.497660  0.151000  1.0
  O  O5473  1  0.147920  0.776440  0.899420  1.0
  O  O5474  1  0.602080  0.973560  0.899420  1.0
  O  O5475  1  0.602080  0.776440  0.850580  1.0
  O  O5476  1  0.147920  0.973560  0.850580  1.0
  O  O5477  1  0.147920  0.276440  0.399420  1.0
  O  O5478  1  0.602080  0.473560  0.399420  1.0
  O  O5479  1  0.602080  0.276440  0.350580  1.0
  O  O5480  1  0.147920  0.473560  0.350580  1.0
  O  O5481  1  0.647920  0.776440  0.399420  1.0
  O  O5482  1  0.102080  0.973560  0.399420  1.0
  O  O5483  1  0.102080  0.776440  0.350580  1.0
  O  O5484  1  0.647920  0.973560  0.350580  1.0
  O  O5485  1  0.647920  0.276440  0.899420  1.0
  O  O5486  1  0.102080  0.473560  0.899420  1.0
  O  O5487  1  0.102080  0.276440  0.850580  1.0
  O  O5488  1  0.647920  0.473560  0.850580  1.0
  O  O5489  1  0.852080  0.223560  0.100580  1.0
  O  O5490  1  0.397920  0.026440  0.100580  1.0
  O  O5491  1  0.397920  0.223560  0.149420  1.0
  O  O5492  1  0.852080  0.026440  0.149420  1.0
  O  O5493  1  0.852080  0.723560  0.600580  1.0
  O  O5494  1  0.397920  0.526440  0.600580  1.0
  O  O5495  1  0.397920  0.723560  0.649420  1.0
  O  O5496  1  0.852080  0.526440  0.649420  1.0
  O  O5497  1  0.352080  0.223560  0.600580  1.0
  O  O5498  1  0.897920  0.026440  0.600580  1.0
  O  O5499  1  0.897920  0.223560  0.649420  1.0
  O  O5500  1  0.352080  0.026440  0.649420  1.0
  O  O5501  1  0.352080  0.723560  0.100580  1.0
  O  O5502  1  0.897920  0.526440  0.100580  1.0
  O  O5503  1  0.897920  0.723560  0.149420  1.0
  O  O5504  1  0.352080  0.526440  0.149420  1.0
  O  O5505  1  0.129940  0.716370  0.899990  1.0
  O  O5506  1  0.620060  0.033630  0.899990  1.0
  O  O5507  1  0.620060  0.716370  0.850010  1.0
  O  O5508  1  0.129940  0.033630  0.850010  1.0
  O  O5509  1  0.129940  0.216370  0.399990  1.0
  O  O5510  1  0.620060  0.533630  0.399990  1.0
  O  O5511  1  0.620060  0.216370  0.350010  1.0
  O  O5512  1  0.129940  0.533630  0.350010  1.0
  O  O5513  1  0.629940  0.716370  0.399990  1.0
  O  O5514  1  0.120060  0.033630  0.399990  1.0
  O  O5515  1  0.120060  0.716370  0.350010  1.0
  O  O5516  1  0.629940  0.033630  0.350010  1.0
  O  O5517  1  0.629940  0.216370  0.899990  1.0
  O  O5518  1  0.120060  0.533630  0.899990  1.0
  O  O5519  1  0.120060  0.216370  0.850010  1.0
  O  O5520  1  0.629940  0.533630  0.850010  1.0
  O  O5521  1  0.870060  0.283630  0.100010  1.0
  O  O5522  1  0.379940  0.966370  0.100010  1.0
  O  O5523  1  0.379940  0.283630  0.149990  1.0
  O  O5524  1  0.870060  0.966370  0.149990  1.0
  O  O5525  1  0.870060  0.783630  0.600010  1.0
  O  O5526  1  0.379940  0.466370  0.600010  1.0
  O  O5527  1  0.379940  0.783630  0.649990  1.0
  O  O5528  1  0.870060  0.466370  0.649990  1.0
  O  O5529  1  0.370060  0.283630  0.600010  1.0
  O  O5530  1  0.879940  0.966370  0.600010  1.0
  O  O5531  1  0.879940  0.283630  0.649990  1.0
  O  O5532  1  0.370060  0.966370  0.649990  1.0
  O  O5533  1  0.370060  0.783630  0.100010  1.0
  O  O5534  1  0.879940  0.466370  0.100010  1.0
  O  O5535  1  0.879940  0.783630  0.149990  1.0
  O  O5536  1  0.370060  0.466370  0.149990  1.0
  O  O5537  1  0.078120  0.745470  0.900920  1.0
  O  O5538  1  0.671880  0.004530  0.900920  1.0
  O  O5539  1  0.671880  0.745470  0.849080  1.0
  O  O5540  1  0.078120  0.004530  0.849080  1.0
  O  O5541  1  0.078120  0.245470  0.400920  1.0
  O  O5542  1  0.671880  0.504530  0.400920  1.0
  O  O5543  1  0.671880  0.245470  0.349080  1.0
  O  O5544  1  0.078120  0.504530  0.349080  1.0
  O  O5545  1  0.578120  0.745470  0.400920  1.0
  O  O5546  1  0.171880  0.004530  0.400920  1.0
  O  O5547  1  0.171880  0.745470  0.349080  1.0
  O  O5548  1  0.578120  0.004530  0.349080  1.0
  O  O5549  1  0.578120  0.245470  0.900920  1.0
  O  O5550  1  0.171880  0.504530  0.900920  1.0
  O  O5551  1  0.171880  0.245470  0.849080  1.0
  O  O5552  1  0.578120  0.504530  0.849080  1.0
  O  O5553  1  0.921880  0.254530  0.099080  1.0
  O  O5554  1  0.328120  0.995470  0.099080  1.0
  O  O5555  1  0.328120  0.254530  0.150920  1.0
  O  O5556  1  0.921880  0.995470  0.150920  1.0
  O  O5557  1  0.921880  0.754530  0.599080  1.0
  O  O5558  1  0.328120  0.495470  0.599080  1.0
  O  O5559  1  0.328120  0.754530  0.650920  1.0
  O  O5560  1  0.921880  0.495470  0.650920  1.0
  O  O5561  1  0.421880  0.254530  0.599080  1.0
  O  O5562  1  0.828120  0.995470  0.599080  1.0
  O  O5563  1  0.828120  0.254530  0.650920  1.0
  O  O5564  1  0.421880  0.995470  0.650920  1.0
  O  O5565  1  0.421880  0.754530  0.099080  1.0
  O  O5566  1  0.828120  0.495470  0.099080  1.0
  O  O5567  1  0.828120  0.754530  0.150920  1.0
  O  O5568  1  0.421880  0.495470  0.150920  1.0
  O  O5569  1  0.957320  0.724240  0.963230  1.0
  O  O5570  1  0.792680  0.025760  0.963230  1.0
  O  O5571  1  0.792680  0.724240  0.786770  1.0
  O  O5572  1  0.957320  0.025760  0.786770  1.0
  O  O5573  1  0.957320  0.224240  0.463230  1.0
  O  O5574  1  0.792680  0.525760  0.463230  1.0
  O  O5575  1  0.792680  0.224240  0.286770  1.0
  O  O5576  1  0.957320  0.525760  0.286770  1.0
  O  O5577  1  0.457320  0.724240  0.463230  1.0
  O  O5578  1  0.292680  0.025760  0.463230  1.0
  O  O5579  1  0.292680  0.724240  0.286770  1.0
  O  O5580  1  0.457320  0.025760  0.286770  1.0
  O  O5581  1  0.457320  0.224240  0.963230  1.0
  O  O5582  1  0.292680  0.525760  0.963230  1.0
  O  O5583  1  0.292680  0.224240  0.786770  1.0
  O  O5584  1  0.457320  0.525760  0.786770  1.0
  O  O5585  1  0.042680  0.275760  0.036770  1.0
  O  O5586  1  0.207320  0.974240  0.036770  1.0
  O  O5587  1  0.207320  0.275760  0.213230  1.0
  O  O5588  1  0.042680  0.974240  0.213230  1.0
  O  O5589  1  0.042680  0.775760  0.536770  1.0
  O  O5590  1  0.207320  0.474240  0.536770  1.0
  O  O5591  1  0.207320  0.775760  0.713230  1.0
  O  O5592  1  0.042680  0.474240  0.713230  1.0
  O  O5593  1  0.542680  0.275760  0.536770  1.0
  O  O5594  1  0.707320  0.974240  0.536770  1.0
  O  O5595  1  0.707320  0.275760  0.713230  1.0
  O  O5596  1  0.542680  0.974240  0.713230  1.0
  O  O5597  1  0.542680  0.775760  0.036770  1.0
  O  O5598  1  0.707320  0.474240  0.036770  1.0
  O  O5599  1  0.707320  0.775760  0.213230  1.0
  O  O5600  1  0.542680  0.474240  0.213230  1.0
  O  O5601  1  0.953230  0.747770  0.941720  1.0
  O  O5602  1  0.796770  0.002230  0.941720  1.0
  O  O5603  1  0.796770  0.747770  0.808280  1.0
  O  O5604  1  0.953230  0.002230  0.808280  1.0
  O  O5605  1  0.953230  0.247770  0.441720  1.0
  O  O5606  1  0.796770  0.502230  0.441720  1.0
  O  O5607  1  0.796770  0.247770  0.308280  1.0
  O  O5608  1  0.953230  0.502230  0.308280  1.0
  O  O5609  1  0.453230  0.747770  0.441720  1.0
  O  O5610  1  0.296770  0.002230  0.441720  1.0
  O  O5611  1  0.296770  0.747770  0.308280  1.0
  O  O5612  1  0.453230  0.002230  0.308280  1.0
  O  O5613  1  0.453230  0.247770  0.941720  1.0
  O  O5614  1  0.296770  0.502230  0.941720  1.0
  O  O5615  1  0.296770  0.247770  0.808280  1.0
  O  O5616  1  0.453230  0.502230  0.808280  1.0
  O  O5617  1  0.046770  0.252230  0.058280  1.0
  O  O5618  1  0.203230  0.997770  0.058280  1.0
  O  O5619  1  0.203230  0.252230  0.191720  1.0
  O  O5620  1  0.046770  0.997770  0.191720  1.0
  O  O5621  1  0.046770  0.752230  0.558280  1.0
  O  O5622  1  0.203230  0.497770  0.558280  1.0
  O  O5623  1  0.203230  0.752230  0.691720  1.0
  O  O5624  1  0.046770  0.497770  0.691720  1.0
  O  O5625  1  0.546770  0.252230  0.558280  1.0
  O  O5626  1  0.703230  0.997770  0.558280  1.0
  O  O5627  1  0.703230  0.252230  0.691720  1.0
  O  O5628  1  0.546770  0.997770  0.691720  1.0
  O  O5629  1  0.546770  0.752230  0.058280  1.0
  O  O5630  1  0.703230  0.497770  0.058280  1.0
  O  O5631  1  0.703230  0.752230  0.191720  1.0
  O  O5632  1  0.546770  0.497770  0.191720  1.0
  O  O5633  1  0.950640  0.759320  0.985290  1.0
  O  O5634  1  0.799360  0.990680  0.985290  1.0
  O  O5635  1  0.799360  0.759320  0.764710  1.0
  O  O5636  1  0.950640  0.990680  0.764710  1.0
  O  O5637  1  0.950640  0.259320  0.485290  1.0
  O  O5638  1  0.799360  0.490680  0.485290  1.0
  O  O5639  1  0.799360  0.259320  0.264710  1.0
  O  O5640  1  0.950640  0.490680  0.264710  1.0
  O  O5641  1  0.450640  0.759320  0.485290  1.0
  O  O5642  1  0.299360  0.990680  0.485290  1.0
  O  O5643  1  0.299360  0.759320  0.264710  1.0
  O  O5644  1  0.450640  0.990680  0.264710  1.0
  O  O5645  1  0.450640  0.259320  0.985290  1.0
  O  O5646  1  0.299360  0.490680  0.985290  1.0
  O  O5647  1  0.299360  0.259320  0.764710  1.0
  O  O5648  1  0.450640  0.490680  0.764710  1.0
  O  O5649  1  0.049360  0.240680  0.014710  1.0
  O  O5650  1  0.200640  0.009320  0.014710  1.0
  O  O5651  1  0.200640  0.240680  0.235290  1.0
  O  O5652  1  0.049360  0.009320  0.235290  1.0
  O  O5653  1  0.049360  0.740680  0.514710  1.0
  O  O5654  1  0.200640  0.509320  0.514710  1.0
  O  O5655  1  0.200640  0.740680  0.735290  1.0
  O  O5656  1  0.049360  0.509320  0.735290  1.0
  O  O5657  1  0.549360  0.240680  0.514710  1.0
  O  O5658  1  0.700640  0.009320  0.514710  1.0
  O  O5659  1  0.700640  0.240680  0.735290  1.0
  O  O5660  1  0.549360  0.009320  0.735290  1.0
  O  O5661  1  0.549360  0.740680  0.014710  1.0
  O  O5662  1  0.700640  0.509320  0.014710  1.0
  O  O5663  1  0.700640  0.740680  0.235290  1.0
  O  O5664  1  0.549360  0.509320  0.235290  1.0
  O  O5665  1  0.955560  0.782930  0.963430  1.0
  O  O5666  1  0.794440  0.967070  0.963430  1.0
  O  O5667  1  0.794440  0.782930  0.786570  1.0
  O  O5668  1  0.955560  0.967070  0.786570  1.0
  O  O5669  1  0.955560  0.282930  0.463430  1.0
  O  O5670  1  0.794440  0.467070  0.463430  1.0
  O  O5671  1  0.794440  0.282930  0.286570  1.0
  O  O5672  1  0.955560  0.467070  0.286570  1.0
  O  O5673  1  0.455560  0.782930  0.463430  1.0
  O  O5674  1  0.294440  0.967070  0.463430  1.0
  O  O5675  1  0.294440  0.782930  0.286570  1.0
  O  O5676  1  0.455560  0.967070  0.286570  1.0
  O  O5677  1  0.455560  0.282930  0.963430  1.0
  O  O5678  1  0.294440  0.467070  0.963430  1.0
  O  O5679  1  0.294440  0.282930  0.786570  1.0
  O  O5680  1  0.455560  0.467070  0.786570  1.0
  O  O5681  1  0.044440  0.217070  0.036570  1.0
  O  O5682  1  0.205560  0.032930  0.036570  1.0
  O  O5683  1  0.205560  0.217070  0.213430  1.0
  O  O5684  1  0.044440  0.032930  0.213430  1.0
  O  O5685  1  0.044440  0.717070  0.536570  1.0
  O  O5686  1  0.205560  0.532930  0.536570  1.0
  O  O5687  1  0.205560  0.717070  0.713430  1.0
  O  O5688  1  0.044440  0.532930  0.713430  1.0
  O  O5689  1  0.544440  0.217070  0.536570  1.0
  O  O5690  1  0.705560  0.032930  0.536570  1.0
  O  O5691  1  0.705560  0.217070  0.713430  1.0
  O  O5692  1  0.544440  0.032930  0.713430  1.0
  O  O5693  1  0.544440  0.717070  0.036570  1.0
  O  O5694  1  0.705560  0.532930  0.036570  1.0
  O  O5695  1  0.705560  0.717070  0.213430  1.0
  O  O5696  1  0.544440  0.532930  0.213430  1.0
  O  O5697  1  0.136590  0.841220  0.982430  1.0
  O  O5698  1  0.613410  0.908780  0.982430  1.0
  O  O5699  1  0.613410  0.841220  0.767570  1.0
  O  O5700  1  0.136590  0.908780  0.767570  1.0
  O  O5701  1  0.136590  0.341220  0.482430  1.0
  O  O5702  1  0.613410  0.408780  0.482430  1.0
  O  O5703  1  0.613410  0.341220  0.267570  1.0
  O  O5704  1  0.136590  0.408780  0.267570  1.0
  O  O5705  1  0.636590  0.841220  0.482430  1.0
  O  O5706  1  0.113410  0.908780  0.482430  1.0
  O  O5707  1  0.113410  0.841220  0.267570  1.0
  O  O5708  1  0.636590  0.908780  0.267570  1.0
  O  O5709  1  0.636590  0.341220  0.982430  1.0
  O  O5710  1  0.113410  0.408780  0.982430  1.0
  O  O5711  1  0.113410  0.341220  0.767570  1.0
  O  O5712  1  0.636590  0.408780  0.767570  1.0
  O  O5713  1  0.863410  0.158780  0.017570  1.0
  O  O5714  1  0.386590  0.091220  0.017570  1.0
  O  O5715  1  0.386590  0.158780  0.232430  1.0
  O  O5716  1  0.863410  0.091220  0.232430  1.0
  O  O5717  1  0.863410  0.658780  0.517570  1.0
  O  O5718  1  0.386590  0.591220  0.517570  1.0
  O  O5719  1  0.386590  0.658780  0.732430  1.0
  O  O5720  1  0.863410  0.591220  0.732430  1.0
  O  O5721  1  0.363410  0.158780  0.517570  1.0
  O  O5722  1  0.886590  0.091220  0.517570  1.0
  O  O5723  1  0.886590  0.158780  0.732430  1.0
  O  O5724  1  0.363410  0.091220  0.732430  1.0
  O  O5725  1  0.363410  0.658780  0.017570  1.0
  O  O5726  1  0.886590  0.591220  0.017570  1.0
  O  O5727  1  0.886590  0.658780  0.232430  1.0
  O  O5728  1  0.363410  0.591220  0.232430  1.0
  O  O5729  1  0.083610  0.838880  0.961360  1.0
  O  O5730  1  0.666390  0.911120  0.961360  1.0
  O  O5731  1  0.666390  0.838880  0.788640  1.0
  O  O5732  1  0.083610  0.911120  0.788640  1.0
  O  O5733  1  0.083610  0.338880  0.461360  1.0
  O  O5734  1  0.666390  0.411120  0.461360  1.0
  O  O5735  1  0.666390  0.338880  0.288640  1.0
  O  O5736  1  0.083610  0.411120  0.288640  1.0
  O  O5737  1  0.583610  0.838880  0.461360  1.0
  O  O5738  1  0.166390  0.911120  0.461360  1.0
  O  O5739  1  0.166390  0.838880  0.288640  1.0
  O  O5740  1  0.583610  0.911120  0.288640  1.0
  O  O5741  1  0.583610  0.338880  0.961360  1.0
  O  O5742  1  0.166390  0.411120  0.961360  1.0
  O  O5743  1  0.166390  0.338880  0.788640  1.0
  O  O5744  1  0.583610  0.411120  0.788640  1.0
  O  O5745  1  0.916390  0.161120  0.038640  1.0
  O  O5746  1  0.333610  0.088880  0.038640  1.0
  O  O5747  1  0.333610  0.161120  0.211360  1.0
  O  O5748  1  0.916390  0.088880  0.211360  1.0
  O  O5749  1  0.916390  0.661120  0.538640  1.0
  O  O5750  1  0.333610  0.588880  0.538640  1.0
  O  O5751  1  0.333610  0.661120  0.711360  1.0
  O  O5752  1  0.916390  0.588880  0.711360  1.0
  O  O5753  1  0.416390  0.161120  0.538640  1.0
  O  O5754  1  0.833610  0.088880  0.538640  1.0
  O  O5755  1  0.833610  0.161120  0.711360  1.0
  O  O5756  1  0.416390  0.088880  0.711360  1.0
  O  O5757  1  0.416390  0.661120  0.038640  1.0
  O  O5758  1  0.833610  0.588880  0.038640  1.0
  O  O5759  1  0.833610  0.661120  0.211360  1.0
  O  O5760  1  0.416390  0.588880  0.211360  1.0
  O  O5761  1  0.215760  0.881730  0.958270  1.0
  O  O5762  1  0.534240  0.868270  0.958270  1.0
  O  O5763  1  0.534240  0.881730  0.791730  1.0
  O  O5764  1  0.215760  0.868270  0.791730  1.0
  O  O5765  1  0.215760  0.381730  0.458270  1.0
  O  O5766  1  0.534240  0.368270  0.458270  1.0
  O  O5767  1  0.534240  0.381730  0.291730  1.0
  O  O5768  1  0.215760  0.368270  0.291730  1.0
  O  O5769  1  0.715760  0.881730  0.458270  1.0
  O  O5770  1  0.034240  0.868270  0.458270  1.0
  O  O5771  1  0.034240  0.881730  0.291730  1.0
  O  O5772  1  0.715760  0.868270  0.291730  1.0
  O  O5773  1  0.715760  0.381730  0.958270  1.0
  O  O5774  1  0.034240  0.368270  0.958270  1.0
  O  O5775  1  0.034240  0.381730  0.791730  1.0
  O  O5776  1  0.715760  0.368270  0.791730  1.0
  O  O5777  1  0.784240  0.118270  0.041730  1.0
  O  O5778  1  0.465760  0.131730  0.041730  1.0
  O  O5779  1  0.465760  0.118270  0.208270  1.0
  O  O5780  1  0.784240  0.131730  0.208270  1.0
  O  O5781  1  0.784240  0.618270  0.541730  1.0
  O  O5782  1  0.465760  0.631730  0.541730  1.0
  O  O5783  1  0.465760  0.618270  0.708270  1.0
  O  O5784  1  0.784240  0.631730  0.708270  1.0
  O  O5785  1  0.284240  0.118270  0.541730  1.0
  O  O5786  1  0.965760  0.131730  0.541730  1.0
  O  O5787  1  0.965760  0.118270  0.708270  1.0
  O  O5788  1  0.284240  0.131730  0.708270  1.0
  O  O5789  1  0.284240  0.618270  0.041730  1.0
  O  O5790  1  0.965760  0.631730  0.041730  1.0
  O  O5791  1  0.965760  0.618270  0.208270  1.0
  O  O5792  1  0.284240  0.631730  0.208270  1.0
  O  O5793  1  0.157530  0.883910  0.939510  1.0
  O  O5794  1  0.592470  0.866090  0.939510  1.0
  O  O5795  1  0.592470  0.883910  0.810490  1.0
  O  O5796  1  0.157530  0.866090  0.810490  1.0
  O  O5797  1  0.157530  0.383910  0.439510  1.0
  O  O5798  1  0.592470  0.366090  0.439510  1.0
  O  O5799  1  0.592470  0.383910  0.310490  1.0
  O  O5800  1  0.157530  0.366090  0.310490  1.0
  O  O5801  1  0.657530  0.883910  0.439510  1.0
  O  O5802  1  0.092470  0.866090  0.439510  1.0
  O  O5803  1  0.092470  0.883910  0.310490  1.0
  O  O5804  1  0.657530  0.866090  0.310490  1.0
  O  O5805  1  0.657530  0.383910  0.939510  1.0
  O  O5806  1  0.092470  0.366090  0.939510  1.0
  O  O5807  1  0.092470  0.383910  0.810490  1.0
  O  O5808  1  0.657530  0.366090  0.810490  1.0
  O  O5809  1  0.842470  0.116090  0.060490  1.0
  O  O5810  1  0.407530  0.133910  0.060490  1.0
  O  O5811  1  0.407530  0.116090  0.189510  1.0
  O  O5812  1  0.842470  0.133910  0.189510  1.0
  O  O5813  1  0.842470  0.616090  0.560490  1.0
  O  O5814  1  0.407530  0.633910  0.560490  1.0
  O  O5815  1  0.407530  0.616090  0.689510  1.0
  O  O5816  1  0.842470  0.633910  0.689510  1.0
  O  O5817  1  0.342470  0.116090  0.560490  1.0
  O  O5818  1  0.907530  0.133910  0.560490  1.0
  O  O5819  1  0.907530  0.116090  0.689510  1.0
  O  O5820  1  0.342470  0.133910  0.689510  1.0
  O  O5821  1  0.342470  0.616090  0.060490  1.0
  O  O5822  1  0.907530  0.633910  0.060490  1.0
  O  O5823  1  0.907530  0.616090  0.189510  1.0
  O  O5824  1  0.342470  0.633910  0.189510  1.0
  O  O5825  1  0.206710  0.002580  0.882390  1.0
  O  O5826  1  0.543290  0.747420  0.882390  1.0
  O  O5827  1  0.543290  0.002580  0.867610  1.0
  O  O5828  1  0.206710  0.747420  0.867610  1.0
  O  O5829  1  0.206710  0.502580  0.382390  1.0
  O  O5830  1  0.543290  0.247420  0.382390  1.0
  O  O5831  1  0.543290  0.502580  0.367610  1.0
  O  O5832  1  0.206710  0.247420  0.367610  1.0
  O  O5833  1  0.706710  0.002580  0.382390  1.0
  O  O5834  1  0.043290  0.747420  0.382390  1.0
  O  O5835  1  0.043290  0.002580  0.367610  1.0
  O  O5836  1  0.706710  0.747420  0.367610  1.0
  O  O5837  1  0.706710  0.502580  0.882390  1.0
  O  O5838  1  0.043290  0.247420  0.882390  1.0
  O  O5839  1  0.043290  0.502580  0.867610  1.0
  O  O5840  1  0.706710  0.247420  0.867610  1.0
  O  O5841  1  0.793290  0.997420  0.117610  1.0
  O  O5842  1  0.456710  0.252580  0.117610  1.0
  O  O5843  1  0.456710  0.997420  0.132390  1.0
  O  O5844  1  0.793290  0.252580  0.132390  1.0
  O  O5845  1  0.793290  0.497420  0.617610  1.0
  O  O5846  1  0.456710  0.752580  0.617610  1.0
  O  O5847  1  0.456710  0.497420  0.632390  1.0
  O  O5848  1  0.793290  0.752580  0.632390  1.0
  O  O5849  1  0.293290  0.997420  0.617610  1.0
  O  O5850  1  0.956710  0.252580  0.617610  1.0
  O  O5851  1  0.956710  0.997420  0.632390  1.0
  O  O5852  1  0.293290  0.252580  0.632390  1.0
  O  O5853  1  0.293290  0.497420  0.117610  1.0
  O  O5854  1  0.956710  0.752580  0.117610  1.0
  O  O5855  1  0.956710  0.497420  0.132390  1.0
  O  O5856  1  0.293290  0.752580  0.132390  1.0
  O  O5857  1  0.148550  0.976270  0.883790  1.0
  O  O5858  1  0.601450  0.773730  0.883790  1.0
  O  O5859  1  0.601450  0.976270  0.866210  1.0
  O  O5860  1  0.148550  0.773730  0.866210  1.0
  O  O5861  1  0.148550  0.476270  0.383790  1.0
  O  O5862  1  0.601450  0.273730  0.383790  1.0
  O  O5863  1  0.601450  0.476270  0.366210  1.0
  O  O5864  1  0.148550  0.273730  0.366210  1.0
  O  O5865  1  0.648550  0.976270  0.383790  1.0
  O  O5866  1  0.101450  0.773730  0.383790  1.0
  O  O5867  1  0.101450  0.976270  0.366210  1.0
  O  O5868  1  0.648550  0.773730  0.366210  1.0
  O  O5869  1  0.648550  0.476270  0.883790  1.0
  O  O5870  1  0.101450  0.273730  0.883790  1.0
  O  O5871  1  0.101450  0.476270  0.866210  1.0
  O  O5872  1  0.648550  0.273730  0.866210  1.0
  O  O5873  1  0.851450  0.023730  0.116210  1.0
  O  O5874  1  0.398550  0.226270  0.116210  1.0
  O  O5875  1  0.398550  0.023730  0.133790  1.0
  O  O5876  1  0.851450  0.226270  0.133790  1.0
  O  O5877  1  0.851450  0.523730  0.616210  1.0
  O  O5878  1  0.398550  0.726270  0.616210  1.0
  O  O5879  1  0.398550  0.523730  0.633790  1.0
  O  O5880  1  0.851450  0.726270  0.633790  1.0
  O  O5881  1  0.351450  0.023730  0.616210  1.0
  O  O5882  1  0.898550  0.226270  0.616210  1.0
  O  O5883  1  0.898550  0.023730  0.633790  1.0
  O  O5884  1  0.351450  0.226270  0.633790  1.0
  O  O5885  1  0.351450  0.523730  0.116210  1.0
  O  O5886  1  0.898550  0.726270  0.116210  1.0
  O  O5887  1  0.898550  0.523730  0.133790  1.0
  O  O5888  1  0.351450  0.726270  0.133790  1.0
  O  O5889  1  0.142920  0.885740  0.980720  1.0
  O  O5890  1  0.607080  0.864260  0.980720  1.0
  O  O5891  1  0.607080  0.885740  0.769280  1.0
  O  O5892  1  0.142920  0.864260  0.769280  1.0
  O  O5893  1  0.142920  0.385740  0.480720  1.0
  O  O5894  1  0.607080  0.364260  0.480720  1.0
  O  O5895  1  0.607080  0.385740  0.269280  1.0
  O  O5896  1  0.142920  0.364260  0.269280  1.0
  O  O5897  1  0.642920  0.885740  0.480720  1.0
  O  O5898  1  0.107080  0.864260  0.480720  1.0
  O  O5899  1  0.107080  0.885740  0.269280  1.0
  O  O5900  1  0.642920  0.864260  0.269280  1.0
  O  O5901  1  0.642920  0.385740  0.980720  1.0
  O  O5902  1  0.107080  0.364260  0.980720  1.0
  O  O5903  1  0.107080  0.385740  0.769280  1.0
  O  O5904  1  0.642920  0.364260  0.769280  1.0
  O  O5905  1  0.857080  0.114260  0.019280  1.0
  O  O5906  1  0.392920  0.135740  0.019280  1.0
  O  O5907  1  0.392920  0.114260  0.230720  1.0
  O  O5908  1  0.857080  0.135740  0.230720  1.0
  O  O5909  1  0.857080  0.614260  0.519280  1.0
  O  O5910  1  0.392920  0.635740  0.519280  1.0
  O  O5911  1  0.392920  0.614260  0.730720  1.0
  O  O5912  1  0.857080  0.635740  0.730720  1.0
  O  O5913  1  0.357080  0.114260  0.519280  1.0
  O  O5914  1  0.892920  0.135740  0.519280  1.0
  O  O5915  1  0.892920  0.114260  0.730720  1.0
  O  O5916  1  0.357080  0.135740  0.730720  1.0
  O  O5917  1  0.357080  0.614260  0.019280  1.0
  O  O5918  1  0.892920  0.635740  0.019280  1.0
  O  O5919  1  0.892920  0.614260  0.230720  1.0
  O  O5920  1  0.357080  0.635740  0.230720  1.0
  O  O5921  1  0.085370  0.884190  0.962050  1.0
  O  O5922  1  0.664630  0.865810  0.962050  1.0
  O  O5923  1  0.664630  0.884190  0.787950  1.0
  O  O5924  1  0.085370  0.865810  0.787950  1.0
  O  O5925  1  0.085370  0.384190  0.462050  1.0
  O  O5926  1  0.664630  0.365810  0.462050  1.0
  O  O5927  1  0.664630  0.384190  0.287950  1.0
  O  O5928  1  0.085370  0.365810  0.287950  1.0
  O  O5929  1  0.585370  0.884190  0.462050  1.0
  O  O5930  1  0.164630  0.865810  0.462050  1.0
  O  O5931  1  0.164630  0.884190  0.287950  1.0
  O  O5932  1  0.585370  0.865810  0.287950  1.0
  O  O5933  1  0.585370  0.384190  0.962050  1.0
  O  O5934  1  0.164630  0.365810  0.962050  1.0
  O  O5935  1  0.164630  0.384190  0.787950  1.0
  O  O5936  1  0.585370  0.365810  0.787950  1.0
  O  O5937  1  0.914630  0.115810  0.037950  1.0
  O  O5938  1  0.335370  0.134190  0.037950  1.0
  O  O5939  1  0.335370  0.115810  0.212050  1.0
  O  O5940  1  0.914630  0.134190  0.212050  1.0
  O  O5941  1  0.914630  0.615810  0.537950  1.0
  O  O5942  1  0.335370  0.634190  0.537950  1.0
  O  O5943  1  0.335370  0.615810  0.712050  1.0
  O  O5944  1  0.914630  0.634190  0.712050  1.0
  O  O5945  1  0.414630  0.115810  0.537950  1.0
  O  O5946  1  0.835370  0.134190  0.537950  1.0
  O  O5947  1  0.835370  0.115810  0.712050  1.0
  O  O5948  1  0.414630  0.134190  0.712050  1.0
  O  O5949  1  0.414630  0.615810  0.037950  1.0
  O  O5950  1  0.835370  0.634190  0.037950  1.0
  O  O5951  1  0.835370  0.615810  0.212050  1.0
  O  O5952  1  0.414630  0.634190  0.212050  1.0
  O  O5953  1  0.895530  0.994860  0.984950  1.0
  O  O5954  1  0.854470  0.755140  0.984950  1.0
  O  O5955  1  0.854470  0.994860  0.765050  1.0
  O  O5956  1  0.895530  0.755140  0.765050  1.0
  O  O5957  1  0.895530  0.494860  0.484950  1.0
  O  O5958  1  0.854470  0.255140  0.484950  1.0
  O  O5959  1  0.854470  0.494860  0.265050  1.0
  O  O5960  1  0.895530  0.255140  0.265050  1.0
  O  O5961  1  0.395530  0.994860  0.484950  1.0
  O  O5962  1  0.354470  0.755140  0.484950  1.0
  O  O5963  1  0.354470  0.994860  0.265050  1.0
  O  O5964  1  0.395530  0.755140  0.265050  1.0
  O  O5965  1  0.395530  0.494860  0.984950  1.0
  O  O5966  1  0.354470  0.255140  0.984950  1.0
  O  O5967  1  0.354470  0.494860  0.765050  1.0
  O  O5968  1  0.395530  0.255140  0.765050  1.0
  O  O5969  1  0.104470  0.005140  0.015050  1.0
  O  O5970  1  0.145530  0.244860  0.015050  1.0
  O  O5971  1  0.145530  0.005140  0.234950  1.0
  O  O5972  1  0.104470  0.244860  0.234950  1.0
  O  O5973  1  0.104470  0.505140  0.515050  1.0
  O  O5974  1  0.145530  0.744860  0.515050  1.0
  O  O5975  1  0.145530  0.505140  0.734950  1.0
  O  O5976  1  0.104470  0.744860  0.734950  1.0
  O  O5977  1  0.604470  0.005140  0.515050  1.0
  O  O5978  1  0.645530  0.244860  0.515050  1.0
  O  O5979  1  0.645530  0.005140  0.734950  1.0
  O  O5980  1  0.604470  0.244860  0.734950  1.0
  O  O5981  1  0.604470  0.505140  0.015050  1.0
  O  O5982  1  0.645530  0.744860  0.015050  1.0
  O  O5983  1  0.645530  0.505140  0.234950  1.0
  O  O5984  1  0.604470  0.744860  0.234950  1.0
  O  O5985  1  0.893620  0.968150  0.965480  1.0
  O  O5986  1  0.856380  0.781850  0.965480  1.0
  O  O5987  1  0.856380  0.968150  0.784520  1.0
  O  O5988  1  0.893620  0.781850  0.784520  1.0
  O  O5989  1  0.893620  0.468150  0.465480  1.0
  O  O5990  1  0.856380  0.281850  0.465480  1.0
  O  O5991  1  0.856380  0.468150  0.284520  1.0
  O  O5992  1  0.893620  0.281850  0.284520  1.0
  O  O5993  1  0.393620  0.968150  0.465480  1.0
  O  O5994  1  0.356380  0.781850  0.465480  1.0
  O  O5995  1  0.356380  0.968150  0.284520  1.0
  O  O5996  1  0.393620  0.781850  0.284520  1.0
  O  O5997  1  0.393620  0.468150  0.965480  1.0
  O  O5998  1  0.356380  0.281850  0.965480  1.0
  O  O5999  1  0.356380  0.468150  0.784520  1.0
  O  O6000  1  0.393620  0.281850  0.784520  1.0
  O  O6001  1  0.106380  0.031850  0.034520  1.0
  O  O6002  1  0.143620  0.218150  0.034520  1.0
  O  O6003  1  0.143620  0.031850  0.215480  1.0
  O  O6004  1  0.106380  0.218150  0.215480  1.0
  O  O6005  1  0.106380  0.531850  0.534520  1.0
  O  O6006  1  0.143620  0.718150  0.534520  1.0
  O  O6007  1  0.143620  0.531850  0.715480  1.0
  O  O6008  1  0.106380  0.718150  0.715480  1.0
  O  O6009  1  0.606380  0.031850  0.534520  1.0
  O  O6010  1  0.643620  0.218150  0.534520  1.0
  O  O6011  1  0.643620  0.031850  0.715480  1.0
  O  O6012  1  0.606380  0.218150  0.715480  1.0
  O  O6013  1  0.606380  0.531850  0.034520  1.0
  O  O6014  1  0.643620  0.718150  0.034520  1.0
  O  O6015  1  0.643620  0.531850  0.215480  1.0
  O  O6016  1  0.606380  0.718150  0.215480  1.0
  O  O6017  1  0.135150  0.715520  0.866690  1.0
  O  O6018  1  0.614850  0.034480  0.866690  1.0
  O  O6019  1  0.614850  0.715520  0.883310  1.0
  O  O6020  1  0.135150  0.034480  0.883310  1.0
  O  O6021  1  0.135150  0.215520  0.366690  1.0
  O  O6022  1  0.614850  0.534480  0.366690  1.0
  O  O6023  1  0.614850  0.215520  0.383310  1.0
  O  O6024  1  0.135150  0.534480  0.383310  1.0
  O  O6025  1  0.635150  0.715520  0.366690  1.0
  O  O6026  1  0.114850  0.034480  0.366690  1.0
  O  O6027  1  0.114850  0.715520  0.383310  1.0
  O  O6028  1  0.635150  0.034480  0.383310  1.0
  O  O6029  1  0.635150  0.215520  0.866690  1.0
  O  O6030  1  0.114850  0.534480  0.866690  1.0
  O  O6031  1  0.114850  0.215520  0.883310  1.0
  O  O6032  1  0.635150  0.534480  0.883310  1.0
  O  O6033  1  0.864850  0.284480  0.133310  1.0
  O  O6034  1  0.385150  0.965520  0.133310  1.0
  O  O6035  1  0.385150  0.284480  0.116690  1.0
  O  O6036  1  0.864850  0.965520  0.116690  1.0
  O  O6037  1  0.864850  0.784480  0.633310  1.0
  O  O6038  1  0.385150  0.465520  0.633310  1.0
  O  O6039  1  0.385150  0.784480  0.616690  1.0
  O  O6040  1  0.864850  0.465520  0.616690  1.0
  O  O6041  1  0.364850  0.284480  0.633310  1.0
  O  O6042  1  0.885150  0.965520  0.633310  1.0
  O  O6043  1  0.885150  0.284480  0.616690  1.0
  O  O6044  1  0.364850  0.965520  0.616690  1.0
  O  O6045  1  0.364850  0.784480  0.133310  1.0
  O  O6046  1  0.885150  0.465520  0.133310  1.0
  O  O6047  1  0.885150  0.784480  0.116690  1.0
  O  O6048  1  0.364850  0.465520  0.116690  1.0
  O  O6049  1  0.078860  0.741630  0.867880  1.0
  O  O6050  1  0.671140  0.008370  0.867880  1.0
  O  O6051  1  0.671140  0.741630  0.882120  1.0
  O  O6052  1  0.078860  0.008370  0.882120  1.0
  O  O6053  1  0.078860  0.241630  0.367880  1.0
  O  O6054  1  0.671140  0.508370  0.367880  1.0
  O  O6055  1  0.671140  0.241630  0.382120  1.0
  O  O6056  1  0.078860  0.508370  0.382120  1.0
  O  O6057  1  0.578860  0.741630  0.367880  1.0
  O  O6058  1  0.171140  0.008370  0.367880  1.0
  O  O6059  1  0.171140  0.741630  0.382120  1.0
  O  O6060  1  0.578860  0.008370  0.382120  1.0
  O  O6061  1  0.578860  0.241630  0.867880  1.0
  O  O6062  1  0.171140  0.508370  0.867880  1.0
  O  O6063  1  0.171140  0.241630  0.882120  1.0
  O  O6064  1  0.578860  0.508370  0.882120  1.0
  O  O6065  1  0.921140  0.258370  0.132120  1.0
  O  O6066  1  0.328860  0.991630  0.132120  1.0
  O  O6067  1  0.328860  0.258370  0.117880  1.0
  O  O6068  1  0.921140  0.991630  0.117880  1.0
  O  O6069  1  0.921140  0.758370  0.632120  1.0
  O  O6070  1  0.328860  0.491630  0.632120  1.0
  O  O6071  1  0.328860  0.758370  0.617880  1.0
  O  O6072  1  0.921140  0.491630  0.617880  1.0
  O  O6073  1  0.421140  0.258370  0.632120  1.0
  O  O6074  1  0.828860  0.991630  0.632120  1.0
  O  O6075  1  0.828860  0.258370  0.617880  1.0
  O  O6076  1  0.421140  0.991630  0.617880  1.0
  O  O6077  1  0.421140  0.758370  0.132120  1.0
  O  O6078  1  0.828860  0.491630  0.132120  1.0
  O  O6079  1  0.828860  0.758370  0.117880  1.0
  O  O6080  1  0.421140  0.491630  0.117880  1.0
  O  O6081  1  0.888630  0.720500  0.786270  1.0
  O  O6082  1  0.861370  0.029500  0.786270  1.0
  O  O6083  1  0.861370  0.720500  0.963730  1.0
  O  O6084  1  0.888630  0.029500  0.963730  1.0
  O  O6085  1  0.888630  0.220500  0.286270  1.0
  O  O6086  1  0.861370  0.529500  0.286270  1.0
  O  O6087  1  0.861370  0.220500  0.463730  1.0
  O  O6088  1  0.888630  0.529500  0.463730  1.0
  O  O6089  1  0.388630  0.720500  0.286270  1.0
  O  O6090  1  0.361370  0.029500  0.286270  1.0
  O  O6091  1  0.361370  0.720500  0.463730  1.0
  O  O6092  1  0.388630  0.029500  0.463730  1.0
  O  O6093  1  0.388630  0.220500  0.786270  1.0
  O  O6094  1  0.361370  0.529500  0.786270  1.0
  O  O6095  1  0.361370  0.220500  0.963730  1.0
  O  O6096  1  0.388630  0.529500  0.963730  1.0
  O  O6097  1  0.111370  0.279500  0.213730  1.0
  O  O6098  1  0.138630  0.970500  0.213730  1.0
  O  O6099  1  0.138630  0.279500  0.036270  1.0
  O  O6100  1  0.111370  0.970500  0.036270  1.0
  O  O6101  1  0.111370  0.779500  0.713730  1.0
  O  O6102  1  0.138630  0.470500  0.713730  1.0
  O  O6103  1  0.138630  0.779500  0.536270  1.0
  O  O6104  1  0.111370  0.470500  0.536270  1.0
  O  O6105  1  0.611370  0.279500  0.713730  1.0
  O  O6106  1  0.638630  0.970500  0.713730  1.0
  O  O6107  1  0.638630  0.279500  0.536270  1.0
  O  O6108  1  0.611370  0.970500  0.536270  1.0
  O  O6109  1  0.611370  0.779500  0.213730  1.0
  O  O6110  1  0.638630  0.470500  0.213730  1.0
  O  O6111  1  0.638630  0.779500  0.036270  1.0
  O  O6112  1  0.611370  0.470500  0.036270  1.0
  O  O6113  1  0.894600  0.746710  0.806070  1.0
  O  O6114  1  0.855400  0.003290  0.806070  1.0
  O  O6115  1  0.855400  0.746710  0.943930  1.0
  O  O6116  1  0.894600  0.003290  0.943930  1.0
  O  O6117  1  0.894600  0.246710  0.306070  1.0
  O  O6118  1  0.855400  0.503290  0.306070  1.0
  O  O6119  1  0.855400  0.246710  0.443930  1.0
  O  O6120  1  0.894600  0.503290  0.443930  1.0
  O  O6121  1  0.394600  0.746710  0.306070  1.0
  O  O6122  1  0.355400  0.003290  0.306070  1.0
  O  O6123  1  0.355400  0.746710  0.443930  1.0
  O  O6124  1  0.394600  0.003290  0.443930  1.0
  O  O6125  1  0.394600  0.246710  0.806070  1.0
  O  O6126  1  0.355400  0.503290  0.806070  1.0
  O  O6127  1  0.355400  0.246710  0.943930  1.0
  O  O6128  1  0.394600  0.503290  0.943930  1.0
  O  O6129  1  0.105400  0.253290  0.193930  1.0
  O  O6130  1  0.144600  0.996710  0.193930  1.0
  O  O6131  1  0.144600  0.253290  0.056070  1.0
  O  O6132  1  0.105400  0.996710  0.056070  1.0
  O  O6133  1  0.105400  0.753290  0.693930  1.0
  O  O6134  1  0.144600  0.496710  0.693930  1.0
  O  O6135  1  0.144600  0.753290  0.556070  1.0
  O  O6136  1  0.105400  0.496710  0.556070  1.0
  O  O6137  1  0.605400  0.253290  0.693930  1.0
  O  O6138  1  0.644600  0.996710  0.693930  1.0
  O  O6139  1  0.644600  0.253290  0.556070  1.0
  O  O6140  1  0.605400  0.996710  0.556070  1.0
  O  O6141  1  0.605400  0.753290  0.193930  1.0
  O  O6142  1  0.644600  0.496710  0.193930  1.0
  O  O6143  1  0.644600  0.753290  0.056070  1.0
  O  O6144  1  0.605400  0.496710  0.056070  1.0
  O  O6145  1  0.232260  0.856790  0.991320  1.0
  O  O6146  1  0.517740  0.893210  0.991320  1.0
  O  O6147  1  0.517740  0.856790  0.758680  1.0
  O  O6148  1  0.232260  0.893210  0.758680  1.0
  O  O6149  1  0.232260  0.356790  0.491320  1.0
  O  O6150  1  0.517740  0.393210  0.491320  1.0
  O  O6151  1  0.517740  0.356790  0.258680  1.0
  O  O6152  1  0.232260  0.393210  0.258680  1.0
  O  O6153  1  0.732260  0.856790  0.491320  1.0
  O  O6154  1  0.017740  0.893210  0.491320  1.0
  O  O6155  1  0.017740  0.856790  0.258680  1.0
  O  O6156  1  0.732260  0.893210  0.258680  1.0
  O  O6157  1  0.732260  0.356790  0.991320  1.0
  O  O6158  1  0.017740  0.393210  0.991320  1.0
  O  O6159  1  0.017740  0.356790  0.758680  1.0
  O  O6160  1  0.732260  0.393210  0.758680  1.0
  O  O6161  1  0.767740  0.143210  0.008680  1.0
  O  O6162  1  0.482260  0.106790  0.008680  1.0
  O  O6163  1  0.482260  0.143210  0.241320  1.0
  O  O6164  1  0.767740  0.106790  0.241320  1.0
  O  O6165  1  0.767740  0.643210  0.508680  1.0
  O  O6166  1  0.482260  0.606790  0.508680  1.0
  O  O6167  1  0.482260  0.643210  0.741320  1.0
  O  O6168  1  0.767740  0.606790  0.741320  1.0
  O  O6169  1  0.267740  0.143210  0.508680  1.0
  O  O6170  1  0.982260  0.106790  0.508680  1.0
  O  O6171  1  0.982260  0.143210  0.741320  1.0
  O  O6172  1  0.267740  0.106790  0.741320  1.0
  O  O6173  1  0.267740  0.643210  0.008680  1.0
  O  O6174  1  0.982260  0.606790  0.008680  1.0
  O  O6175  1  0.982260  0.643210  0.241320  1.0
  O  O6176  1  0.267740  0.606790  0.241320  1.0
  O  O6177  1  0.064350  0.862250  0.929220  1.0
  O  O6178  1  0.685650  0.887750  0.929220  1.0
  O  O6179  1  0.685650  0.862250  0.820780  1.0
  O  O6180  1  0.064350  0.887750  0.820780  1.0
  O  O6181  1  0.064350  0.362250  0.429220  1.0
  O  O6182  1  0.685650  0.387750  0.429220  1.0
  O  O6183  1  0.685650  0.362250  0.320780  1.0
  O  O6184  1  0.064350  0.387750  0.320780  1.0
  O  O6185  1  0.564350  0.862250  0.429220  1.0
  O  O6186  1  0.185650  0.887750  0.429220  1.0
  O  O6187  1  0.185650  0.862250  0.320780  1.0
  O  O6188  1  0.564350  0.887750  0.320780  1.0
  O  O6189  1  0.564350  0.362250  0.929220  1.0
  O  O6190  1  0.185650  0.387750  0.929220  1.0
  O  O6191  1  0.185650  0.362250  0.820780  1.0
  O  O6192  1  0.564350  0.387750  0.820780  1.0
  O  O6193  1  0.935650  0.137750  0.070780  1.0
  O  O6194  1  0.314350  0.112250  0.070780  1.0
  O  O6195  1  0.314350  0.137750  0.179220  1.0
  O  O6196  1  0.935650  0.112250  0.179220  1.0
  O  O6197  1  0.935650  0.637750  0.570780  1.0
  O  O6198  1  0.314350  0.612250  0.570780  1.0
  O  O6199  1  0.314350  0.637750  0.679220  1.0
  O  O6200  1  0.935650  0.612250  0.679220  1.0
  O  O6201  1  0.435650  0.137750  0.570780  1.0
  O  O6202  1  0.814350  0.112250  0.570780  1.0
  O  O6203  1  0.814350  0.137750  0.679220  1.0
  O  O6204  1  0.435650  0.112250  0.679220  1.0
  O  O6205  1  0.435650  0.637750  0.070780  1.0
  O  O6206  1  0.814350  0.612250  0.070780  1.0
  O  O6207  1  0.814350  0.637750  0.179220  1.0
  O  O6208  1  0.435650  0.612250  0.179220  1.0
  O  O6209  1  0.226860  0.703160  0.887560  1.0
  O  O6210  1  0.523140  0.046840  0.887560  1.0
  O  O6211  1  0.523140  0.703160  0.862440  1.0
  O  O6212  1  0.226860  0.046840  0.862440  1.0
  O  O6213  1  0.226860  0.203160  0.387560  1.0
  O  O6214  1  0.523140  0.546840  0.387560  1.0
  O  O6215  1  0.523140  0.203160  0.362440  1.0
  O  O6216  1  0.226860  0.546840  0.362440  1.0
  O  O6217  1  0.726860  0.703160  0.387560  1.0
  O  O6218  1  0.023140  0.046840  0.387560  1.0
  O  O6219  1  0.023140  0.703160  0.362440  1.0
  O  O6220  1  0.726860  0.046840  0.362440  1.0
  O  O6221  1  0.726860  0.203160  0.887560  1.0
  O  O6222  1  0.023140  0.546840  0.887560  1.0
  O  O6223  1  0.023140  0.203160  0.862440  1.0
  O  O6224  1  0.726860  0.546840  0.862440  1.0
  O  O6225  1  0.773140  0.296840  0.112440  1.0
  O  O6226  1  0.476860  0.953160  0.112440  1.0
  O  O6227  1  0.476860  0.296840  0.137560  1.0
  O  O6228  1  0.773140  0.953160  0.137560  1.0
  O  O6229  1  0.773140  0.796840  0.612440  1.0
  O  O6230  1  0.476860  0.453160  0.612440  1.0
  O  O6231  1  0.476860  0.796840  0.637560  1.0
  O  O6232  1  0.773140  0.453160  0.637560  1.0
  O  O6233  1  0.273140  0.296840  0.612440  1.0
  O  O6234  1  0.976860  0.953160  0.612440  1.0
  O  O6235  1  0.976860  0.296840  0.637560  1.0
  O  O6236  1  0.273140  0.953160  0.637560  1.0
  O  O6237  1  0.273140  0.796840  0.112440  1.0
  O  O6238  1  0.976860  0.453160  0.112440  1.0
  O  O6239  1  0.976860  0.796840  0.137560  1.0
  O  O6240  1  0.273140  0.453160  0.137560  1.0
  O  O6241  1  0.054690  0.787190  0.881500  1.0
  O  O6242  1  0.695310  0.962810  0.881500  1.0
  O  O6243  1  0.695310  0.787190  0.868500  1.0
  O  O6244  1  0.054690  0.962810  0.868500  1.0
  O  O6245  1  0.054690  0.287190  0.381500  1.0
  O  O6246  1  0.695310  0.462810  0.381500  1.0
  O  O6247  1  0.695310  0.287190  0.368500  1.0
  O  O6248  1  0.054690  0.462810  0.368500  1.0
  O  O6249  1  0.554690  0.787190  0.381500  1.0
  O  O6250  1  0.195310  0.962810  0.381500  1.0
  O  O6251  1  0.195310  0.787190  0.368500  1.0
  O  O6252  1  0.554690  0.962810  0.368500  1.0
  O  O6253  1  0.554690  0.287190  0.881500  1.0
  O  O6254  1  0.195310  0.462810  0.881500  1.0
  O  O6255  1  0.195310  0.287190  0.868500  1.0
  O  O6256  1  0.554690  0.462810  0.868500  1.0
  O  O6257  1  0.945310  0.212810  0.118500  1.0
  O  O6258  1  0.304690  0.037190  0.118500  1.0
  O  O6259  1  0.304690  0.212810  0.131500  1.0
  O  O6260  1  0.945310  0.037190  0.131500  1.0
  O  O6261  1  0.945310  0.712810  0.618500  1.0
  O  O6262  1  0.304690  0.537190  0.618500  1.0
  O  O6263  1  0.304690  0.712810  0.631500  1.0
  O  O6264  1  0.945310  0.537190  0.631500  1.0
  O  O6265  1  0.445310  0.212810  0.618500  1.0
  O  O6266  1  0.804690  0.037190  0.618500  1.0
  O  O6267  1  0.804690  0.212810  0.631500  1.0
  O  O6268  1  0.445310  0.037190  0.631500  1.0
  O  O6269  1  0.445310  0.712810  0.118500  1.0
  O  O6270  1  0.804690  0.537190  0.118500  1.0
  O  O6271  1  0.804690  0.712810  0.131500  1.0
  O  O6272  1  0.445310  0.537190  0.131500  1.0
  O  O6273  1  0.924000  0.715140  0.996650  1.0
  O  O6274  1  0.826000  0.034860  0.996650  1.0
  O  O6275  1  0.826000  0.715140  0.753350  1.0
  O  O6276  1  0.924000  0.034860  0.753350  1.0
  O  O6277  1  0.924000  0.215140  0.496650  1.0
  O  O6278  1  0.826000  0.534860  0.496650  1.0
  O  O6279  1  0.826000  0.215140  0.253350  1.0
  O  O6280  1  0.924000  0.534860  0.253350  1.0
  O  O6281  1  0.424000  0.715140  0.496650  1.0
  O  O6282  1  0.326000  0.034860  0.496650  1.0
  O  O6283  1  0.326000  0.715140  0.253350  1.0
  O  O6284  1  0.424000  0.034860  0.253350  1.0
  O  O6285  1  0.424000  0.215140  0.996650  1.0
  O  O6286  1  0.326000  0.534860  0.996650  1.0
  O  O6287  1  0.326000  0.215140  0.753350  1.0
  O  O6288  1  0.424000  0.534860  0.753350  1.0
  O  O6289  1  0.076000  0.284860  0.003350  1.0
  O  O6290  1  0.174000  0.965140  0.003350  1.0
  O  O6291  1  0.174000  0.284860  0.246650  1.0
  O  O6292  1  0.076000  0.965140  0.246650  1.0
  O  O6293  1  0.076000  0.784860  0.503350  1.0
  O  O6294  1  0.174000  0.465140  0.503350  1.0
  O  O6295  1  0.174000  0.784860  0.746650  1.0
  O  O6296  1  0.076000  0.465140  0.746650  1.0
  O  O6297  1  0.576000  0.284860  0.503350  1.0
  O  O6298  1  0.674000  0.965140  0.503350  1.0
  O  O6299  1  0.674000  0.284860  0.746650  1.0
  O  O6300  1  0.576000  0.965140  0.746650  1.0
  O  O6301  1  0.576000  0.784860  0.003350  1.0
  O  O6302  1  0.674000  0.465140  0.003350  1.0
  O  O6303  1  0.674000  0.784860  0.246650  1.0
  O  O6304  1  0.576000  0.465140  0.246650  1.0
  O  O6305  1  0.897670  0.789820  0.931740  1.0
  O  O6306  1  0.852330  0.960180  0.931740  1.0
  O  O6307  1  0.852330  0.789820  0.818260  1.0
  O  O6308  1  0.897670  0.960180  0.818260  1.0
  O  O6309  1  0.897670  0.289820  0.431740  1.0
  O  O6310  1  0.852330  0.460180  0.431740  1.0
  O  O6311  1  0.852330  0.289820  0.318260  1.0
  O  O6312  1  0.897670  0.460180  0.318260  1.0
  O  O6313  1  0.397670  0.789820  0.431740  1.0
  O  O6314  1  0.352330  0.960180  0.431740  1.0
  O  O6315  1  0.352330  0.789820  0.318260  1.0
  O  O6316  1  0.397670  0.960180  0.318260  1.0
  O  O6317  1  0.397670  0.289820  0.931740  1.0
  O  O6318  1  0.352330  0.460180  0.931740  1.0
  O  O6319  1  0.352330  0.289820  0.818260  1.0
  O  O6320  1  0.397670  0.460180  0.818260  1.0
  O  O6321  1  0.102330  0.210180  0.068260  1.0
  O  O6322  1  0.147670  0.039820  0.068260  1.0
  O  O6323  1  0.147670  0.210180  0.181740  1.0
  O  O6324  1  0.102330  0.039820  0.181740  1.0
  O  O6325  1  0.102330  0.710180  0.568260  1.0
  O  O6326  1  0.147670  0.539820  0.568260  1.0
  O  O6327  1  0.147670  0.710180  0.681740  1.0
  O  O6328  1  0.102330  0.539820  0.681740  1.0
  O  O6329  1  0.602330  0.210180  0.568260  1.0
  O  O6330  1  0.647670  0.039820  0.568260  1.0
  O  O6331  1  0.647670  0.210180  0.681740  1.0
  O  O6332  1  0.602330  0.039820  0.681740  1.0
  O  O6333  1  0.602330  0.710180  0.068260  1.0
  O  O6334  1  0.647670  0.539820  0.068260  1.0
  O  O6335  1  0.647670  0.710180  0.181740  1.0
  O  O6336  1  0.602330  0.539820  0.181740  1.0
