
#######################################################################
#
#                 Cambridge Crystallographic Data Centre
#                                CCDC 
#
#######################################################################
#
# If this CIF has been generated from an entry in the Cambridge 
# Structural Database, then it will include bibliographic, chemical, 
# crystal, experimental, refinement or atomic coordinate data resulting 
# from the CCDC's data processing and validation procedures.
#
#######################################################################

data_XAJCOC
_chemical_formula_moiety         'C192 H72 Cu24 O156 S24 6-,6(Na1 1+)'
_chemical_name_systematic        
'Hexasodium octadecakis(\m~4~-5-sulfonic acid-1,3-benzenedicarboxylato)-hexakis(5-sulfonate-1,3-benzenedicarboxylato)-tetracosakis(unknown)-tetracosa-copper unknown solvate'
_symmetry_cell_setting           tetragonal
_symmetry_space_group_name_H-M   'I 4/m'
_symmetry_Int_Tables_number      87
_space_group_name_Hall           '-I 4'
loop_
_symmetry_equiv_pos_site_id
_symmetry_equiv_pos_as_xyz
1 x,y,z
2 -x,-y,z
3 -y,x,z
4 y,-x,z
5 1/2+x,1/2+y,1/2+z
6 1/2-x,1/2-y,1/2+z
7 1/2-y,1/2+x,1/2+z
8 1/2+y,1/2-x,1/2+z
9 -x,-y,-z
10 x,y,-z
11 y,-x,-z
12 -y,x,-z
13 1/2-x,1/2-y,1/2-z
14 1/2+x,1/2+y,1/2-z
15 1/2+y,1/2-x,1/2-z
16 1/2-y,1/2+x,1/2-z
_cell_length_a                   29.044(7)
_cell_length_b                   29.044(7)
_cell_length_c                   41.72(2)
_cell_angle_alpha                90
_cell_angle_beta                 90
_cell_angle_gamma                90
_cell_volume                     35193.1
_exptl_crystal_colour            blue
_exptl_crystal_description       block
_cell_formula_units_Z            2
loop_
_atom_site_label
_atom_site_type_symbol
_atom_site_fract_x
_atom_site_fract_y
_atom_site_fract_z
Cu1 Cu 0.05863(3) 0.36196(3) 0.0000
Cu2 Cu 0.04493(3) 0.27189(3) 0.0000
Cu3 Cu 0.20948(2) 0.15268(2) -0.179343(15)
Cu4 Cu 0.15757(2) 0.11543(2) -0.133573(15)
O1 O 0.10431(12) 0.34925(11) -0.03351(8)
O2 O 0.09257(11) 0.27286(10) -0.03333(8)
O3 O 0.20699(12) 0.20773(11) -0.15268(9)
O4 O 0.16041(11) 0.17744(11) -0.11532(8)
O5 O 0.01138(11) 0.36161(10) 0.03322(8)
O6 O -0.00111(11) 0.28485(11) 0.03310(8)
O7 O -0.13050(12) 0.26053(11) 0.15312(9)
O8 O -0.10088(11) 0.21617(12) 0.11356(8)
O9 O 0.14989(12) 0.16874(12) -0.19824(9)
O10 O 0.10623(11) 0.13502(12) -0.16022(9)
O11 O -0.09165(11) 0.20422(13) -0.19896(9)
O12 O -0.05928(11) 0.16276(12) -0.15958(9)
S1 S 0.23878(7) 0.38082(5) -0.11729(6)
O13 O 0.2384(2) 0.37970(19) -0.15214(6)
O14 O 0.28404(10) 0.37147(18) -0.10377(16)
O15 O 0.21750(19) 0.42197(8) -0.10412(17)
S2 S -0.09074(11) 0.43378(6) 0.12451(6)
O16 O -0.04551(14) 0.45444(13) 0.12869(16)
O17 O -0.1187(2) 0.45749(13) 0.10072(12)
O18 O -0.1148(3) 0.42634(12) 0.15463(10)
S3 S 0.03820(7) 0.23856(12) -0.28480(5)
O19 O -0.00240(15) 0.2253(2) -0.30296(9)
O20 O 0.08091(15) 0.2223(2) -0.29905(10)
O21 O 0.0392(2) 0.28739(11) -0.27702(11)
O22 O 0.25073(12) 0.18296(11) -0.21794(10)
O23 O 0.11590(17) 0.08565(17) -0.09559(11)
O24 O 0.06734(18) 0.43554(5) 0.0000
O25 O 0.0345(2) 0.19846(18) 0.0000
C1 C 0.11120(18) 0.30874(16) -0.04329(12)
C2 C 0.14658(10) 0.30205(10) -0.06920(7)
C3 C 0.17308(12) 0.33917(7) -0.07929(8)
H1 H 0.1705 0.3680 -0.0687
C4 C 0.20333(11) 0.33407(8) -0.10487(8)
C5 C 0.20708(10) 0.29185(10) -0.12034(7)
H2 H 0.2278 0.2884 -0.1378
C6 C 0.18058(11) 0.25473(7) -0.11025(8)
C7 C 0.15033(10) 0.25983(8) -0.08467(8)
H3 H 0.1322 0.2345 -0.0778
C8 C 0.18269(18) 0.20977(18) -0.12766(13)
C9 C -0.00698(19) 0.32516(17) 0.04351(11)
C10 C -0.04125(13) 0.32985(10) 0.07017(8)
C11 C -0.05100(13) 0.37329(8) 0.08239(8)
H4 H -0.0375 0.3998 0.0729
C12 C -0.08044(13) 0.37791(6) 0.10847(8)
C13 C -0.10012(12) 0.33908(9) 0.12232(7)
H5 H -0.1202 0.3422 0.1401
C14 C -0.09037(13) 0.29564(7) 0.11009(9)
C15 C -0.06093(14) 0.29103(7) 0.08402(9)
H6 H -0.0543 0.2613 0.0757
C16 C -0.10843(17) 0.25367(17) 0.12707(13)
C17 C 0.11180(17) 0.15736(17) -0.18528(13)
C18 C 0.06907(10) 0.17250(12) -0.20202(7)
C19 C 0.07258(9) 0.19234(14) -0.23224(8)
H7 H 0.1017 0.1942 -0.2426
C20 C 0.03352(12) 0.20950(15) -0.24734(6)
C21 C -0.00904(10) 0.20683(14) -0.23222(8)
H8 H -0.0357 0.2186 -0.2425
C22 C -0.01255(9) 0.18699(13) -0.20200(7)
C23 C 0.02651(12) 0.16982(11) -0.18690(5)
H9 H 0.0241 0.1563 -0.1662
C24 C -0.05869(17) 0.18479(18) -0.18503(13)
Cu1B Cu -0.36196(3) 0.05863(3) 0.0000
Cu1C Cu 0.36196(3) -0.05863(3) 0.0000
Cu1A Cu -0.05863(3) -0.36196(3) 0.0000
Cu2B Cu -0.27189(3) 0.04493(3) 0.0000
Cu2C Cu 0.27189(3) -0.04493(3) 0.0000
Cu2A Cu -0.04493(3) -0.27189(3) 0.0000
Cu3B Cu -0.15268(2) 0.20948(2) -0.179343(15)
Cu3C Cu 0.15268(2) -0.20948(2) -0.179343(15)
Cu3I Cu 0.20948(2) 0.15268(2) 0.179343(15)
Cu3J Cu 0.15268(2) -0.20948(2) 0.179343(15)
Cu3K Cu -0.15268(2) 0.20948(2) 0.179343(15)
Cu3A Cu -0.20948(2) -0.15268(2) -0.179343(15)
Cu3H Cu -0.20948(2) -0.15268(2) 0.179343(15)
Cu4B Cu -0.11543(2) 0.15757(2) -0.133573(15)
Cu4C Cu 0.11543(2) -0.15757(2) -0.133573(15)
Cu4I Cu 0.15757(2) 0.11543(2) 0.133573(15)
Cu4J Cu 0.11543(2) -0.15757(2) 0.133573(15)
Cu4K Cu -0.11543(2) 0.15757(2) 0.133573(15)
Cu4A Cu -0.15757(2) -0.11543(2) -0.133573(15)
Cu4H Cu -0.15757(2) -0.11543(2) 0.133573(15)
O1B O -0.34925(11) 0.10431(12) -0.03351(8)
O1C O 0.34925(11) -0.10431(12) -0.03351(8)
O1I O 0.10431(12) 0.34925(11) 0.03351(8)
O1J O 0.34925(11) -0.10431(12) 0.03351(8)
O1K O -0.34925(11) 0.10431(12) 0.03351(8)
O1A O -0.10431(12) -0.34925(11) -0.03351(8)
O1H O -0.10431(12) -0.34925(11) 0.03351(8)
O2B O -0.27286(10) 0.09257(11) -0.03333(8)
O2C O 0.27286(10) -0.09257(11) -0.03333(8)
O2I O 0.09257(11) 0.27286(10) 0.03333(8)
O2J O 0.27286(10) -0.09257(11) 0.03333(8)
O2K O -0.27286(10) 0.09257(11) 0.03333(8)
O2A O -0.09257(11) -0.27286(10) -0.03333(8)
O2H O -0.09257(11) -0.27286(10) 0.03333(8)
O3B O -0.20773(11) 0.20699(12) -0.15268(9)
O3C O 0.20773(11) -0.20699(12) -0.15268(9)
O3I O 0.20699(12) 0.20773(11) 0.15268(9)
O3J O 0.20773(11) -0.20699(12) 0.15268(9)
O3K O -0.20773(11) 0.20699(12) 0.15268(9)
O3A O -0.20699(12) -0.20773(11) -0.15268(9)
O3H O -0.20699(12) -0.20773(11) 0.15268(9)
O4B O -0.17744(11) 0.16041(11) -0.11532(8)
O4C O 0.17744(11) -0.16041(11) -0.11532(8)
O4I O 0.16041(11) 0.17744(11) 0.11532(8)
O4J O 0.17744(11) -0.16041(11) 0.11532(8)
O4K O -0.17744(11) 0.16041(11) 0.11532(8)
O4A O -0.16041(11) -0.17744(11) -0.11532(8)
O4H O -0.16041(11) -0.17744(11) 0.11532(8)
O5B O -0.36161(10) 0.01138(11) 0.03322(8)
O5C O 0.36161(10) -0.01138(11) 0.03322(8)
O5I O 0.01138(11) 0.36161(10) -0.03322(8)
O5J O 0.36161(10) -0.01138(11) -0.03322(8)
O5K O -0.36161(10) 0.01138(11) -0.03322(8)
O5A O -0.01138(11) -0.36161(10) 0.03322(8)
O5H O -0.01138(11) -0.36161(10) -0.03322(8)
O6B O -0.28485(11) -0.00111(11) 0.03310(8)
O6C O 0.28485(11) 0.00111(11) 0.03310(8)
O6I O -0.00111(11) 0.28485(11) -0.03310(8)
O6J O 0.28485(11) 0.00111(11) -0.03310(8)
O6K O -0.28485(11) -0.00111(11) -0.03310(8)
O6A O 0.00111(11) -0.28485(11) 0.03310(8)
O6H O 0.00111(11) -0.28485(11) -0.03310(8)
O7B O -0.26053(11) -0.13050(12) 0.15312(9)
O7C O 0.26053(11) 0.13050(12) 0.15312(9)
O7I O -0.13050(12) 0.26053(11) -0.15312(9)
O7J O 0.26053(11) 0.13050(12) -0.15312(9)
O7K O -0.26053(11) -0.13050(12) -0.15312(9)
O7A O 0.13050(12) -0.26053(11) 0.15312(9)
O7H O 0.13050(12) -0.26053(11) -0.15312(9)
O8B O -0.21617(12) -0.10088(11) 0.11356(8)
O8C O 0.21617(12) 0.10088(11) 0.11356(8)
O8I O -0.10088(11) 0.21617(12) -0.11356(8)
O8J O 0.21617(12) 0.10088(11) -0.11356(8)
O8K O -0.21617(12) -0.10088(11) -0.11356(8)
O8A O 0.10088(11) -0.21617(12) 0.11356(8)
O8H O 0.10088(11) -0.21617(12) -0.11356(8)
O9B O -0.16874(12) 0.14989(12) -0.19824(9)
O9C O 0.16874(12) -0.14989(12) -0.19824(9)
O9I O 0.14989(12) 0.16874(12) 0.19824(9)
O9J O 0.16874(12) -0.14989(12) 0.19824(9)
O9K O -0.16874(12) 0.14989(12) 0.19824(9)
O9A O -0.14989(12) -0.16874(12) -0.19824(9)
O9H O -0.14989(12) -0.16874(12) 0.19824(9)
O10B O -0.13502(12) 0.10623(11) -0.16022(9)
O10C O 0.13502(12) -0.10623(11) -0.16022(9)
O10I O 0.10623(11) 0.13502(12) 0.16022(9)
O10J O 0.13502(12) -0.10623(11) 0.16022(9)
O10K O -0.13502(12) 0.10623(11) 0.16022(9)
O10A O -0.10623(11) -0.13502(12) -0.16022(9)
O10H O -0.10623(11) -0.13502(12) 0.16022(9)
O11B O -0.20422(13) -0.09165(11) -0.19896(9)
O11C O 0.20422(13) 0.09165(11) -0.19896(9)
O11I O -0.09165(11) 0.20422(13) 0.19896(9)
O11J O 0.20422(13) 0.09165(11) 0.19896(9)
O11K O -0.20422(13) -0.09165(11) 0.19896(9)
O11A O 0.09165(11) -0.20422(13) -0.19896(9)
O11H O 0.09165(11) -0.20422(13) 0.19896(9)
O12B O -0.16276(12) -0.05928(11) -0.15958(9)
O12C O 0.16276(12) 0.05928(11) -0.15958(9)
O12I O -0.05928(11) 0.16276(12) 0.15958(9)
O12J O 0.16276(12) 0.05928(11) 0.15958(9)
O12K O -0.16276(12) -0.05928(11) 0.15958(9)
O12A O 0.05928(11) -0.16276(12) -0.15958(9)
O12H O 0.05928(11) -0.16276(12) 0.15958(9)
S1B S -0.38082(5) 0.23878(7) -0.11729(6)
S1C S 0.38082(5) -0.23878(7) -0.11729(6)
S1I S 0.23878(7) 0.38082(5) 0.11729(6)
S1J S 0.38082(5) -0.23878(7) 0.11729(6)
S1K S -0.38082(5) 0.23878(7) 0.11729(6)
S1A S -0.23878(7) -0.38082(5) -0.11729(6)
S1H S -0.23878(7) -0.38082(5) 0.11729(6)
O13B O -0.37970(19) 0.2384(2) -0.15214(6)
O13C O 0.37970(19) -0.2384(2) -0.15214(6)
O13I O 0.2384(2) 0.37970(19) 0.15214(6)
O13J O 0.37970(19) -0.2384(2) 0.15214(6)
O13K O -0.37970(19) 0.2384(2) 0.15214(6)
O13A O -0.2384(2) -0.37970(19) -0.15214(6)
O13H O -0.2384(2) -0.37970(19) 0.15214(6)
O14B O -0.37147(18) 0.28404(10) -0.10377(16)
O14C O 0.37147(18) -0.28404(10) -0.10377(16)
O14I O 0.28404(10) 0.37147(18) 0.10377(16)
O14J O 0.37147(18) -0.28404(10) 0.10377(16)
O14K O -0.37147(18) 0.28404(10) 0.10377(16)
O14A O -0.28404(10) -0.37147(18) -0.10377(16)
O14H O -0.28404(10) -0.37147(18) 0.10377(16)
O15B O -0.42197(8) 0.21750(19) -0.10412(17)
O15C O 0.42197(8) -0.21750(19) -0.10412(17)
O15I O 0.21750(19) 0.42197(8) 0.10412(17)
O15J O 0.42197(8) -0.21750(19) 0.10412(17)
O15K O -0.42197(8) 0.21750(19) 0.10412(17)
O15A O -0.21750(19) -0.42197(8) -0.10412(17)
O15H O -0.21750(19) -0.42197(8) 0.10412(17)
S2B S -0.43378(6) -0.09074(11) 0.12451(6)
S2C S 0.43378(6) 0.09074(11) 0.12451(6)
S2I S -0.09074(11) 0.43378(6) -0.12451(6)
S2J S 0.43378(6) 0.09074(11) -0.12451(6)
S2K S -0.43378(6) -0.09074(11) -0.12451(6)
S2A S 0.09074(11) -0.43378(6) 0.12451(6)
S2H S 0.09074(11) -0.43378(6) -0.12451(6)
O16B O -0.45444(13) -0.04551(14) 0.12869(16)
O16C O 0.45444(13) 0.04551(14) 0.12869(16)
O16I O -0.04551(14) 0.45444(13) -0.12869(16)
O16J O 0.45444(13) 0.04551(14) -0.12869(16)
O16K O -0.45444(13) -0.04551(14) -0.12869(16)
O16A O 0.04551(14) -0.45444(13) 0.12869(16)
O16H O 0.04551(14) -0.45444(13) -0.12869(16)
O17B O -0.45749(13) -0.1187(2) 0.10072(12)
O17C O 0.45749(13) 0.1187(2) 0.10072(12)
O17I O -0.1187(2) 0.45749(13) -0.10072(12)
O17J O 0.45749(13) 0.1187(2) -0.10072(12)
O17K O -0.45749(13) -0.1187(2) -0.10072(12)
O17A O 0.1187(2) -0.45749(13) 0.10072(12)
O17H O 0.1187(2) -0.45749(13) -0.10072(12)
O18B O -0.42634(12) -0.1148(3) 0.15463(10)
O18C O 0.42634(12) 0.1148(3) 0.15463(10)
O18I O -0.1148(3) 0.42634(12) -0.15463(10)
O18J O 0.42634(12) 0.1148(3) -0.15463(10)
O18K O -0.42634(12) -0.1148(3) -0.15463(10)
O18A O 0.1148(3) -0.42634(12) 0.15463(10)
O18H O 0.1148(3) -0.42634(12) -0.15463(10)
S3B S -0.23856(12) 0.03820(7) -0.28480(5)
S3C S 0.23856(12) -0.03820(7) -0.28480(5)
S3I S 0.03820(7) 0.23856(12) 0.28480(5)
S3J S 0.23856(12) -0.03820(7) 0.28480(5)
S3K S -0.23856(12) 0.03820(7) 0.28480(5)
S3A S -0.03820(7) -0.23856(12) -0.28480(5)
S3H S -0.03820(7) -0.23856(12) 0.28480(5)
O19B O -0.2253(2) -0.00240(15) -0.30296(9)
O19C O 0.2253(2) 0.00240(15) -0.30296(9)
O19I O -0.00240(15) 0.2253(2) 0.30296(9)
O19J O 0.2253(2) 0.00240(15) 0.30296(9)
O19K O -0.2253(2) -0.00240(15) 0.30296(9)
O19A O 0.00240(15) -0.2253(2) -0.30296(9)
O19H O 0.00240(15) -0.2253(2) 0.30296(9)
O20B O -0.2223(2) 0.08091(15) -0.29905(10)
O20C O 0.2223(2) -0.08091(15) -0.29905(10)
O20I O 0.08091(15) 0.2223(2) 0.29905(10)
O20J O 0.2223(2) -0.08091(15) 0.29905(10)
O20K O -0.2223(2) 0.08091(15) 0.29905(10)
O20A O -0.08091(15) -0.2223(2) -0.29905(10)
O20H O -0.08091(15) -0.2223(2) 0.29905(10)
O21B O -0.28739(11) 0.0392(2) -0.27702(11)
O21C O 0.28739(11) -0.0392(2) -0.27702(11)
O21I O 0.0392(2) 0.28739(11) 0.27702(11)
O21J O 0.28739(11) -0.0392(2) 0.27702(11)
O21K O -0.28739(11) 0.0392(2) 0.27702(11)
O21A O -0.0392(2) -0.28739(11) -0.27702(11)
O21H O -0.0392(2) -0.28739(11) 0.27702(11)
O22B O -0.18296(11) 0.25073(12) -0.21794(10)
O22C O 0.18296(11) -0.25073(12) -0.21794(10)
O22I O 0.25073(12) 0.18296(11) 0.21794(10)
O22J O 0.18296(11) -0.25073(12) 0.21794(10)
O22K O -0.18296(11) 0.25073(12) 0.21794(10)
O22A O -0.25073(12) -0.18296(11) -0.21794(10)
O22H O -0.25073(12) -0.18296(11) 0.21794(10)
O23B O -0.08565(17) 0.11590(17) -0.09559(11)
O23C O 0.08565(17) -0.11590(17) -0.09559(11)
O23I O 0.11590(17) 0.08565(17) 0.09559(11)
O23J O 0.08565(17) -0.11590(17) 0.09559(11)
O23K O -0.08565(17) 0.11590(17) 0.09559(11)
O23A O -0.11590(17) -0.08565(17) -0.09559(11)
O23H O -0.11590(17) -0.08565(17) 0.09559(11)
O24B O -0.43554(5) 0.06734(18) 0.0000
O24C O 0.43554(5) -0.06734(18) 0.0000
O24A O -0.06734(18) -0.43554(5) 0.0000
O25B O -0.19846(18) 0.0345(2) 0.0000
O25C O 0.19846(18) -0.0345(2) 0.0000
O25A O -0.0345(2) -0.19846(18) 0.0000
C1B C -0.30874(16) 0.11120(18) -0.04329(12)
C1C C 0.30874(16) -0.11120(18) -0.04329(12)
C1I C 0.11120(18) 0.30874(16) 0.04329(12)
C1J C 0.30874(16) -0.11120(18) 0.04329(12)
C1K C -0.30874(16) 0.11120(18) 0.04329(12)
C1A C -0.11120(18) -0.30874(16) -0.04329(12)
C1H C -0.11120(18) -0.30874(16) 0.04329(12)
C2B C -0.30205(10) 0.14658(10) -0.06920(7)
C2C C 0.30205(10) -0.14658(10) -0.06920(7)
C2I C 0.14658(10) 0.30205(10) 0.06920(7)
C2J C 0.30205(10) -0.14658(10) 0.06920(7)
C2K C -0.30205(10) 0.14658(10) 0.06920(7)
C2A C -0.14658(10) -0.30205(10) -0.06920(7)
C2H C -0.14658(10) -0.30205(10) 0.06920(7)
C3B C -0.33917(7) 0.17308(12) -0.07929(8)
C3C C 0.33917(7) -0.17308(12) -0.07929(8)
C3I C 0.17308(12) 0.33917(7) 0.07929(8)
C3J C 0.33917(7) -0.17308(12) 0.07929(8)
C3K C -0.33917(7) 0.17308(12) 0.07929(8)
C3A C -0.17308(12) -0.33917(7) -0.07929(8)
C3H C -0.17308(12) -0.33917(7) 0.07929(8)
H1B H -0.3680 0.1705 -0.0687
H1C H 0.3680 -0.1705 -0.0687
H1I H 0.1705 0.3680 0.0687
H1J H 0.3680 -0.1705 0.0687
H1K H -0.3680 0.1705 0.0687
H1A H -0.1705 -0.3680 -0.0687
H1H H -0.1705 -0.3680 0.0687
C4B C -0.33407(8) 0.20333(11) -0.10487(8)
C4C C 0.33407(8) -0.20333(11) -0.10487(8)
C4I C 0.20333(11) 0.33407(8) 0.10487(8)
C4J C 0.33407(8) -0.20333(11) 0.10487(8)
C4K C -0.33407(8) 0.20333(11) 0.10487(8)
C4A C -0.20333(11) -0.33407(8) -0.10487(8)
C4H C -0.20333(11) -0.33407(8) 0.10487(8)
C5B C -0.29185(10) 0.20708(10) -0.12034(7)
C5C C 0.29185(10) -0.20708(10) -0.12034(7)
C5I C 0.20708(10) 0.29185(10) 0.12034(7)
C5J C 0.29185(10) -0.20708(10) 0.12034(7)
C5K C -0.29185(10) 0.20708(10) 0.12034(7)
C5A C -0.20708(10) -0.29185(10) -0.12034(7)
C5H C -0.20708(10) -0.29185(10) 0.12034(7)
H2B H -0.2884 0.2278 -0.1378
H2C H 0.2884 -0.2278 -0.1378
H2I H 0.2278 0.2884 0.1378
H2J H 0.2884 -0.2278 0.1378
H2K H -0.2884 0.2278 0.1378
H2A H -0.2278 -0.2884 -0.1378
H2H H -0.2278 -0.2884 0.1378
C6B C -0.25473(7) 0.18058(11) -0.11025(8)
C6C C 0.25473(7) -0.18058(11) -0.11025(8)
C6I C 0.18058(11) 0.25473(7) 0.11025(8)
C6J C 0.25473(7) -0.18058(11) 0.11025(8)
C6K C -0.25473(7) 0.18058(11) 0.11025(8)
C6A C -0.18058(11) -0.25473(7) -0.11025(8)
C6H C -0.18058(11) -0.25473(7) 0.11025(8)
C7B C -0.25983(8) 0.15033(10) -0.08467(8)
C7C C 0.25983(8) -0.15033(10) -0.08467(8)
C7I C 0.15033(10) 0.25983(8) 0.08467(8)
C7J C 0.25983(8) -0.15033(10) 0.08467(8)
C7K C -0.25983(8) 0.15033(10) 0.08467(8)
C7A C -0.15033(10) -0.25983(8) -0.08467(8)
C7H C -0.15033(10) -0.25983(8) 0.08467(8)
H3B H -0.2345 0.1322 -0.0778
H3C H 0.2345 -0.1322 -0.0778
H3I H 0.1322 0.2345 0.0778
H3J H 0.2345 -0.1322 0.0778
H3K H -0.2345 0.1322 0.0778
H3A H -0.1322 -0.2345 -0.0778
H3H H -0.1322 -0.2345 0.0778
C8B C -0.20977(18) 0.18269(18) -0.12766(13)
C8C C 0.20977(18) -0.18269(18) -0.12766(13)
C8I C 0.18269(18) 0.20977(18) 0.12766(13)
C8J C 0.20977(18) -0.18269(18) 0.12766(13)
C8K C -0.20977(18) 0.18269(18) 0.12766(13)
C8A C -0.18269(18) -0.20977(18) -0.12766(13)
C8H C -0.18269(18) -0.20977(18) 0.12766(13)
C9B C -0.32516(17) -0.00698(19) 0.04351(11)
C9C C 0.32516(17) 0.00698(19) 0.04351(11)
C9I C -0.00698(19) 0.32516(17) -0.04351(11)
C9J C 0.32516(17) 0.00698(19) -0.04351(11)
C9K C -0.32516(17) -0.00698(19) -0.04351(11)
C9A C 0.00698(19) -0.32516(17) 0.04351(11)
C9H C 0.00698(19) -0.32516(17) -0.04351(11)
C10B C -0.32985(10) -0.04125(13) 0.07017(8)
C10C C 0.32985(10) 0.04125(13) 0.07017(8)
C10I C -0.04125(13) 0.32985(10) -0.07017(8)
C10J C 0.32985(10) 0.04125(13) -0.07017(8)
C10K C -0.32985(10) -0.04125(13) -0.07017(8)
C10A C 0.04125(13) -0.32985(10) 0.07017(8)
C10H C 0.04125(13) -0.32985(10) -0.07017(8)
C11B C -0.37329(8) -0.05100(13) 0.08239(8)
C11C C 0.37329(8) 0.05100(13) 0.08239(8)
C11I C -0.05100(13) 0.37329(8) -0.08239(8)
C11J C 0.37329(8) 0.05100(13) -0.08239(8)
C11K C -0.37329(8) -0.05100(13) -0.08239(8)
C11A C 0.05100(13) -0.37329(8) 0.08239(8)
C11H C 0.05100(13) -0.37329(8) -0.08239(8)
H4B H -0.3998 -0.0375 0.0729
H4C H 0.3998 0.0375 0.0729
H4I H -0.0375 0.3998 -0.0729
H4J H 0.3998 0.0375 -0.0729
H4K H -0.3998 -0.0375 -0.0729
H4A H 0.0375 -0.3998 0.0729
H4H H 0.0375 -0.3998 -0.0729
C12B C -0.37791(6) -0.08044(13) 0.10847(8)
C12C C 0.37791(6) 0.08044(13) 0.10847(8)
C12I C -0.08044(13) 0.37791(6) -0.10847(8)
C12J C 0.37791(6) 0.08044(13) -0.10847(8)
C12K C -0.37791(6) -0.08044(13) -0.10847(8)
C12A C 0.08044(13) -0.37791(6) 0.10847(8)
C12H C 0.08044(13) -0.37791(6) -0.10847(8)
C13B C -0.33908(9) -0.10012(12) 0.12232(7)
C13C C 0.33908(9) 0.10012(12) 0.12232(7)
C13I C -0.10012(12) 0.33908(9) -0.12232(7)
C13J C 0.33908(9) 0.10012(12) -0.12232(7)
C13K C -0.33908(9) -0.10012(12) -0.12232(7)
C13A C 0.10012(12) -0.33908(9) 0.12232(7)
C13H C 0.10012(12) -0.33908(9) -0.12232(7)
H5B H -0.3422 -0.1202 0.1401
H5C H 0.3422 0.1202 0.1401
H5I H -0.1202 0.3422 -0.1401
H5J H 0.3422 0.1202 -0.1401
H5K H -0.3422 -0.1202 -0.1401
H5A H 0.1202 -0.3422 0.1401
H5H H 0.1202 -0.3422 -0.1401
C14B C -0.29564(7) -0.09037(13) 0.11009(9)
C14C C 0.29564(7) 0.09037(13) 0.11009(9)
C14I C -0.09037(13) 0.29564(7) -0.11009(9)
C14J C 0.29564(7) 0.09037(13) -0.11009(9)
C14K C -0.29564(7) -0.09037(13) -0.11009(9)
C14A C 0.09037(13) -0.29564(7) 0.11009(9)
C14H C 0.09037(13) -0.29564(7) -0.11009(9)
C15B C -0.29103(7) -0.06093(14) 0.08402(9)
C15C C 0.29103(7) 0.06093(14) 0.08402(9)
C15I C -0.06093(14) 0.29103(7) -0.08402(9)
C15J C 0.29103(7) 0.06093(14) -0.08402(9)
C15K C -0.29103(7) -0.06093(14) -0.08402(9)
C15A C 0.06093(14) -0.29103(7) 0.08402(9)
C15H C 0.06093(14) -0.29103(7) -0.08402(9)
H6B H -0.2613 -0.0543 0.0757
H6C H 0.2613 0.0543 0.0757
H6I H -0.0543 0.2613 -0.0757
H6J H 0.2613 0.0543 -0.0757
H6K H -0.2613 -0.0543 -0.0757
H6A H 0.0543 -0.2613 0.0757
H6H H 0.0543 -0.2613 -0.0757
C16B C -0.25367(17) -0.10843(17) 0.12707(13)
C16C C 0.25367(17) 0.10843(17) 0.12707(13)
C16I C -0.10843(17) 0.25367(17) -0.12707(13)
C16J C 0.25367(17) 0.10843(17) -0.12707(13)
C16K C -0.25367(17) -0.10843(17) -0.12707(13)
C16A C 0.10843(17) -0.25367(17) 0.12707(13)
C16H C 0.10843(17) -0.25367(17) -0.12707(13)
C17B C -0.15736(17) 0.11180(17) -0.18528(13)
C17C C 0.15736(17) -0.11180(17) -0.18528(13)
C17I C 0.11180(17) 0.15736(17) 0.18528(13)
C17J C 0.15736(17) -0.11180(17) 0.18528(13)
C17K C -0.15736(17) 0.11180(17) 0.18528(13)
C17A C -0.11180(17) -0.15736(17) -0.18528(13)
C17H C -0.11180(17) -0.15736(17) 0.18528(13)
C18B C -0.17250(12) 0.06907(10) -0.20202(7)
C18C C 0.17250(12) -0.06907(10) -0.20202(7)
C18I C 0.06907(10) 0.17250(12) 0.20202(7)
C18J C 0.17250(12) -0.06907(10) 0.20202(7)
C18K C -0.17250(12) 0.06907(10) 0.20202(7)
C18A C -0.06907(10) -0.17250(12) -0.20202(7)
C18H C -0.06907(10) -0.17250(12) 0.20202(7)
C19B C -0.19234(14) 0.07258(9) -0.23224(8)
C19C C 0.19234(14) -0.07258(9) -0.23224(8)
C19I C 0.07258(9) 0.19234(14) 0.23224(8)
C19J C 0.19234(14) -0.07258(9) 0.23224(8)
C19K C -0.19234(14) 0.07258(9) 0.23224(8)
C19A C -0.07258(9) -0.19234(14) -0.23224(8)
C19H C -0.07258(9) -0.19234(14) 0.23224(8)
H7B H -0.1942 0.1017 -0.2426
H7C H 0.1942 -0.1017 -0.2426
H7I H 0.1017 0.1942 0.2426
H7J H 0.1942 -0.1017 0.2426
H7K H -0.1942 0.1017 0.2426
H7A H -0.1017 -0.1942 -0.2426
H7H H -0.1017 -0.1942 0.2426
C20B C -0.20950(15) 0.03352(12) -0.24734(6)
C20C C 0.20950(15) -0.03352(12) -0.24734(6)
C20I C 0.03352(12) 0.20950(15) 0.24734(6)
C20J C 0.20950(15) -0.03352(12) 0.24734(6)
C20K C -0.20950(15) 0.03352(12) 0.24734(6)
C20A C -0.03352(12) -0.20950(15) -0.24734(6)
C20H C -0.03352(12) -0.20950(15) 0.24734(6)
C21B C -0.20683(14) -0.00904(10) -0.23222(8)
C21C C 0.20683(14) 0.00904(10) -0.23222(8)
C21I C -0.00904(10) 0.20683(14) 0.23222(8)
C21J C 0.20683(14) 0.00904(10) 0.23222(8)
C21K C -0.20683(14) -0.00904(10) 0.23222(8)
C21A C 0.00904(10) -0.20683(14) -0.23222(8)
C21H C 0.00904(10) -0.20683(14) 0.23222(8)
H8B H -0.2186 -0.0357 -0.2425
H8C H 0.2186 0.0357 -0.2425
H8I H -0.0357 0.2186 0.2425
H8J H 0.2186 0.0357 0.2425
H8K H -0.2186 -0.0357 0.2425
H8A H 0.0357 -0.2186 -0.2425
H8H H 0.0357 -0.2186 0.2425
C22B C -0.18699(13) -0.01255(9) -0.20200(7)
C22C C 0.18699(13) 0.01255(9) -0.20200(7)
C22I C -0.01255(9) 0.18699(13) 0.20200(7)
C22J C 0.18699(13) 0.01255(9) 0.20200(7)
C22K C -0.18699(13) -0.01255(9) 0.20200(7)
C22A C 0.01255(9) -0.18699(13) -0.20200(7)
C22H C 0.01255(9) -0.18699(13) 0.20200(7)
C23B C -0.16982(11) 0.02651(12) -0.18690(5)
C23C C 0.16982(11) -0.02651(12) -0.18690(5)
C23I C 0.02651(12) 0.16982(11) 0.18690(5)
C23J C 0.16982(11) -0.02651(12) 0.18690(5)
C23K C -0.16982(11) 0.02651(12) 0.18690(5)
C23A C -0.02651(12) -0.16982(11) -0.18690(5)
C23H C -0.02651(12) -0.16982(11) 0.18690(5)
H9B H -0.1563 0.0241 -0.1662
H9C H 0.1563 -0.0241 -0.1662
H9I H 0.0241 0.1563 0.1662
H9J H 0.1563 -0.0241 0.1662
H9K H -0.1563 0.0241 0.1662
H9A H -0.0241 -0.1563 -0.1662
H9H H -0.0241 -0.1563 0.1662
C24B C -0.18479(18) -0.05869(17) -0.18503(13)
C24C C 0.18479(18) 0.05869(17) -0.18503(13)
C24I C -0.05869(17) 0.18479(18) 0.18503(13)
C24J C 0.18479(18) 0.05869(17) 0.18503(13)
C24K C -0.18479(18) -0.05869(17) 0.18503(13)
C24A C 0.05869(17) -0.18479(18) -0.18503(13)
C24H C 0.05869(17) -0.18479(18) 0.18503(13)
loop_
_geom_bond_atom_site_label_1
_geom_bond_atom_site_label_2
_geom_bond_site_symmetry_1
_geom_bond_site_symmetry_2
Cu1 Cu2 1_555 1_555
Cu2 O2 1_555 1_555
Cu3 Cu4 1_555 1_555
Cu4 O4 1_555 1_555
O1 Cu1 1_555 1_555
O2 C1 1_555 1_555
O3 Cu3 1_555 1_555
O4 C8 1_555 1_555
O5 Cu1 1_555 1_555
O6 Cu2 1_555 1_555
O7 C16 1_555 1_555
O8 C16 1_555 1_555
O9 Cu3 1_555 1_555
O10 Cu4 1_555 1_555
O11 C24 1_555 1_555
O12 C24 1_555 1_555
S1 O13 1_555 1_555
O14 S1 1_555 1_555
O15 S1 1_555 1_555
S2 O16 1_555 1_555
O17 S2 1_555 1_555
O18 S2 1_555 1_555
S3 O19 1_555 1_555
O20 S3 1_555 1_555
O21 S3 1_555 1_555
O22 Cu3 1_555 1_555
O23 Cu4 1_555 1_555
O24 Cu1 1_555 1_555
O25 Cu2 1_555 1_555
C1 O1 1_555 1_555
C2 C1 1_555 1_555
C3 C2 1_555 1_555
H1 C3 1_555 1_555
C4 S1 1_555 1_555
C5 C4 1_555 1_555
H2 C5 1_555 1_555
C6 C5 1_555 1_555
C7 C2 1_555 1_555
H3 C7 1_555 1_555
C8 O3 1_555 1_555
C9 O5 1_555 1_555
C10 C9 1_555 1_555
C11 C10 1_555 1_555
H4 C11 1_555 1_555
C12 S2 1_555 1_555
C13 C12 1_555 1_555
H5 C13 1_555 1_555
C14 C13 1_555 1_555
C15 C10 1_555 1_555
H6 C15 1_555 1_555
C16 C14 1_555 1_555
C17 O9 1_555 1_555
C18 C17 1_555 1_555
C19 C18 1_555 1_555
H7 C19 1_555 1_555
C20 S3 1_555 1_555
C21 C20 1_555 1_555
H8 C21 1_555 1_555
C22 C21 1_555 1_555
C23 C18 1_555 1_555
H9 C23 1_555 1_555
C24 C22 1_555 1_555
Cu1B Cu2B 1_555 1_555
Cu1C Cu2C 1_555 1_555
Cu1A Cu2A 1_555 1_555
Cu2B O2B 1_555 1_555
Cu2C O2C 1_555 1_555
Cu2A O2A 1_555 1_555
Cu3B O11 1_555 1_555
Cu3C Cu4C 1_555 1_555
Cu3I Cu4I 1_555 1_555
Cu3J Cu4J 1_555 1_555
Cu3K O7 1_555 1_555
Cu3A Cu4A 1_555 1_555
Cu3H Cu4H 1_555 1_555
Cu4B O12 1_555 1_555
Cu4C O4C 1_555 1_555
Cu4I O4I 1_555 1_555
Cu4J O4J 1_555 1_555
Cu4K O8 1_555 1_555
Cu4A O4A 1_555 1_555
Cu4H O4H 1_555 1_555
O1B Cu1B 1_555 1_555
O1C Cu1C 1_555 1_555
O1I Cu1 1_555 1_555
O1J Cu1C 1_555 1_555
O1K Cu1B 1_555 1_555
O1A Cu1A 1_555 1_555
O1H Cu1A 1_555 1_555
O2B C1B 1_555 1_555
O2C C1C 1_555 1_555
O2I Cu2 1_555 1_555
O2J Cu2C 1_555 1_555
O2K Cu2B 1_555 1_555
O2A C1A 1_555 1_555
O2H Cu2A 1_555 1_555
O3B Cu3B 1_555 1_555
O3C Cu3C 1_555 1_555
O3I Cu3I 1_555 1_555
O3J Cu3J 1_555 1_555
O3K Cu3K 1_555 1_555
O3A Cu3A 1_555 1_555
O3H Cu3H 1_555 1_555
O4B Cu4B 1_555 1_555
O4C C8C 1_555 1_555
O4I C8I 1_555 1_555
O4J C8J 1_555 1_555
O4K Cu4K 1_555 1_555
O4A C8A 1_555 1_555
O4H C8H 1_555 1_555
O5B Cu1B 1_555 1_555
O5C Cu1C 1_555 1_555
O5I Cu1 1_555 1_555
O5J Cu1C 1_555 1_555
O5K Cu1B 1_555 1_555
O5A Cu1A 1_555 1_555
O5H Cu1A 1_555 1_555
O6B Cu2B 1_555 1_555
O6C Cu2C 1_555 1_555
O6I Cu2 1_555 1_555
O6J Cu2C 1_555 1_555
O6K Cu2B 1_555 1_555
O6A Cu2A 1_555 1_555
O6H Cu2A 1_555 1_555
O7B Cu3H 1_555 1_555
O7C Cu3I 1_555 1_555
O7I Cu3B 1_555 1_555
O7J Cu3 1_555 1_555
O7K Cu3A 1_555 1_555
O7A Cu3J 1_555 1_555
O7H Cu3C 1_555 1_555
O8B Cu4H 1_555 1_555
O8C Cu4I 1_555 1_555
O8I Cu4B 1_555 1_555
O8J Cu4 1_555 1_555
O8K Cu4A 1_555 1_555
O8A Cu4J 1_555 1_555
O8H Cu4C 1_555 1_555
O9B Cu3B 1_555 1_555
O9C Cu3C 1_555 1_555
O9I Cu3I 1_555 1_555
O9J Cu3J 1_555 1_555
O9K Cu3K 1_555 1_555
O9A Cu3A 1_555 1_555
O9H Cu3H 1_555 1_555
O10B Cu4B 1_555 1_555
O10C Cu4C 1_555 1_555
O10I Cu4I 1_555 1_555
O10J Cu4J 1_555 1_555
O10K Cu4K 1_555 1_555
O10A Cu4A 1_555 1_555
O10H Cu4H 1_555 1_555
O11B Cu3A 1_555 1_555
O11C Cu3 1_555 1_555
O11I Cu3K 1_555 1_555
O11J Cu3I 1_555 1_555
O11K Cu3H 1_555 1_555
O11A Cu3C 1_555 1_555
O11H Cu3J 1_555 1_555
O12B Cu4A 1_555 1_555
O12C Cu4 1_555 1_555
O12I Cu4K 1_555 1_555
O12J Cu4I 1_555 1_555
O12K Cu4H 1_555 1_555
O12A Cu4C 1_555 1_555
O12H Cu4J 1_555 1_555
S1B O13B 1_555 1_555
S1C O13C 1_555 1_555
S1I O13I 1_555 1_555
S1J O13J 1_555 1_555
S1K O13K 1_555 1_555
S1A O13A 1_555 1_555
S1H O13H 1_555 1_555
O14B S1B 1_555 1_555
O14C S1C 1_555 1_555
O14I S1I 1_555 1_555
O14J S1J 1_555 1_555
O14K S1K 1_555 1_555
O14A S1A 1_555 1_555
O14H S1H 1_555 1_555
O15B S1B 1_555 1_555
O15C S1C 1_555 1_555
O15I S1I 1_555 1_555
O15J S1J 1_555 1_555
O15K S1K 1_555 1_555
O15A S1A 1_555 1_555
O15H S1H 1_555 1_555
S2B O16B 1_555 1_555
S2C O16C 1_555 1_555
S2I O16I 1_555 1_555
S2J O16J 1_555 1_555
S2K O16K 1_555 1_555
S2A O16A 1_555 1_555
S2H O16H 1_555 1_555
O17B S2B 1_555 1_555
O17C S2C 1_555 1_555
O17I S2I 1_555 1_555
O17J S2J 1_555 1_555
O17K S2K 1_555 1_555
O17A S2A 1_555 1_555
O17H S2H 1_555 1_555
O18B S2B 1_555 1_555
O18C S2C 1_555 1_555
O18I S2I 1_555 1_555
O18J S2J 1_555 1_555
O18K S2K 1_555 1_555
O18A S2A 1_555 1_555
O18H S2H 1_555 1_555
S3B O19B 1_555 1_555
S3C O19C 1_555 1_555
S3I O19I 1_555 1_555
S3J O19J 1_555 1_555
S3K O19K 1_555 1_555
S3A O19A 1_555 1_555
S3H O19H 1_555 1_555
O20B S3B 1_555 1_555
O20C S3C 1_555 1_555
O20I S3I 1_555 1_555
O20J S3J 1_555 1_555
O20K S3K 1_555 1_555
O20A S3A 1_555 1_555
O20H S3H 1_555 1_555
O21B S3B 1_555 1_555
O21C S3C 1_555 1_555
O21I S3I 1_555 1_555
O21J S3J 1_555 1_555
O21K S3K 1_555 1_555
O21A S3A 1_555 1_555
O21H S3H 1_555 1_555
O22B Cu3B 1_555 1_555
O22C Cu3C 1_555 1_555
O22I Cu3I 1_555 1_555
O22J Cu3J 1_555 1_555
O22K Cu3K 1_555 1_555
O22A Cu3A 1_555 1_555
O22H Cu3H 1_555 1_555
O23B Cu4B 1_555 1_555
O23C Cu4C 1_555 1_555
O23I Cu4I 1_555 1_555
O23J Cu4J 1_555 1_555
O23K Cu4K 1_555 1_555
O23A Cu4A 1_555 1_555
O23H Cu4H 1_555 1_555
O24B Cu1B 1_555 1_555
O24C Cu1C 1_555 1_555
O24A Cu1A 1_555 1_555
O25B Cu2B 1_555 1_555
O25C Cu2C 1_555 1_555
O25A Cu2A 1_555 1_555
C1B O1B 1_555 1_555
C1C O1C 1_555 1_555
C1I O1I 1_555 1_555
C1J O1J 1_555 1_555
C1K O1K 1_555 1_555
C1A O1A 1_555 1_555
C1H O1H 1_555 1_555
C2B C1B 1_555 1_555
C2C C1C 1_555 1_555
C2I C1I 1_555 1_555
C2J C1J 1_555 1_555
C2K C1K 1_555 1_555
C2A C1A 1_555 1_555
C2H C1H 1_555 1_555
C3B C2B 1_555 1_555
C3C C2C 1_555 1_555
C3I C2I 1_555 1_555
C3J C2J 1_555 1_555
C3K C2K 1_555 1_555
C3A C2A 1_555 1_555
C3H C2H 1_555 1_555
H1B C3B 1_555 1_555
H1C C3C 1_555 1_555
H1I C3I 1_555 1_555
H1J C3J 1_555 1_555
H1K C3K 1_555 1_555
H1A C3A 1_555 1_555
H1H C3H 1_555 1_555
C4B S1B 1_555 1_555
C4C S1C 1_555 1_555
C4I S1I 1_555 1_555
C4J S1J 1_555 1_555
C4K S1K 1_555 1_555
C4A S1A 1_555 1_555
C4H S1H 1_555 1_555
C5B C4B 1_555 1_555
C5C C4C 1_555 1_555
C5I C4I 1_555 1_555
C5J C4J 1_555 1_555
C5K C4K 1_555 1_555
C5A C4A 1_555 1_555
C5H C4H 1_555 1_555
H2B C5B 1_555 1_555
H2C C5C 1_555 1_555
H2I C5I 1_555 1_555
H2J C5J 1_555 1_555
H2K C5K 1_555 1_555
H2A C5A 1_555 1_555
H2H C5H 1_555 1_555
C6B C5B 1_555 1_555
C6C C5C 1_555 1_555
C6I C5I 1_555 1_555
C6J C5J 1_555 1_555
C6K C5K 1_555 1_555
C6A C5A 1_555 1_555
C6H C5H 1_555 1_555
C7B C2B 1_555 1_555
C7C C2C 1_555 1_555
C7I C2I 1_555 1_555
C7J C2J 1_555 1_555
C7K C2K 1_555 1_555
C7A C2A 1_555 1_555
C7H C2H 1_555 1_555
H3B C7B 1_555 1_555
H3C C7C 1_555 1_555
H3I C7I 1_555 1_555
H3J C7J 1_555 1_555
H3K C7K 1_555 1_555
H3A C7A 1_555 1_555
H3H C7H 1_555 1_555
C8B O3B 1_555 1_555
C8C O3C 1_555 1_555
C8I O3I 1_555 1_555
C8J O3J 1_555 1_555
C8K O3K 1_555 1_555
C8A O3A 1_555 1_555
C8H O3H 1_555 1_555
C9B O5B 1_555 1_555
C9C O5C 1_555 1_555
C9I O5I 1_555 1_555
C9J O5J 1_555 1_555
C9K O5K 1_555 1_555
C9A O5A 1_555 1_555
C9H O5H 1_555 1_555
C10B C9B 1_555 1_555
C10C C9C 1_555 1_555
C10I C9I 1_555 1_555
C10J C9J 1_555 1_555
C10K C9K 1_555 1_555
C10A C9A 1_555 1_555
C10H C9H 1_555 1_555
C11B C10B 1_555 1_555
C11C C10C 1_555 1_555
C11I C10I 1_555 1_555
C11J C10J 1_555 1_555
C11K C10K 1_555 1_555
C11A C10A 1_555 1_555
C11H C10H 1_555 1_555
H4B C11B 1_555 1_555
H4C C11C 1_555 1_555
H4I C11I 1_555 1_555
H4J C11J 1_555 1_555
H4K C11K 1_555 1_555
H4A C11A 1_555 1_555
H4H C11H 1_555 1_555
C12B S2B 1_555 1_555
C12C S2C 1_555 1_555
C12I S2I 1_555 1_555
C12J S2J 1_555 1_555
C12K S2K 1_555 1_555
C12A S2A 1_555 1_555
C12H S2H 1_555 1_555
C13B C12B 1_555 1_555
C13C C12C 1_555 1_555
C13I C12I 1_555 1_555
C13J C12J 1_555 1_555
C13K C12K 1_555 1_555
C13A C12A 1_555 1_555
C13H C12H 1_555 1_555
H5B C13B 1_555 1_555
H5C C13C 1_555 1_555
H5I C13I 1_555 1_555
H5J C13J 1_555 1_555
H5K C13K 1_555 1_555
H5A C13A 1_555 1_555
H5H C13H 1_555 1_555
C14B C13B 1_555 1_555
C14C C13C 1_555 1_555
C14I C13I 1_555 1_555
C14J C13J 1_555 1_555
C14K C13K 1_555 1_555
C14A C13A 1_555 1_555
C14H C13H 1_555 1_555
C15B C10B 1_555 1_555
C15C C10C 1_555 1_555
C15I C10I 1_555 1_555
C15J C10J 1_555 1_555
C15K C10K 1_555 1_555
C15A C10A 1_555 1_555
C15H C10H 1_555 1_555
H6B C15B 1_555 1_555
H6C C15C 1_555 1_555
H6I C15I 1_555 1_555
H6J C15J 1_555 1_555
H6K C15K 1_555 1_555
H6A C15A 1_555 1_555
H6H C15H 1_555 1_555
C16B O7B 1_555 1_555
C16C O7C 1_555 1_555
C16I O7I 1_555 1_555
C16J O7J 1_555 1_555
C16K O7K 1_555 1_555
C16A O7A 1_555 1_555
C16H O7H 1_555 1_555
C17B O9B 1_555 1_555
C17C O9C 1_555 1_555
C17I O9I 1_555 1_555
C17J O9J 1_555 1_555
C17K O9K 1_555 1_555
C17A O9A 1_555 1_555
C17H O9H 1_555 1_555
C18B C17B 1_555 1_555
C18C C17C 1_555 1_555
C18I C17I 1_555 1_555
C18J C17J 1_555 1_555
C18K C17K 1_555 1_555
C18A C17A 1_555 1_555
C18H C17H 1_555 1_555
C19B C18B 1_555 1_555
C19C C18C 1_555 1_555
C19I C18I 1_555 1_555
C19J C18J 1_555 1_555
C19K C18K 1_555 1_555
C19A C18A 1_555 1_555
C19H C18H 1_555 1_555
H7B C19B 1_555 1_555
H7C C19C 1_555 1_555
H7I C19I 1_555 1_555
H7J C19J 1_555 1_555
H7K C19K 1_555 1_555
H7A C19A 1_555 1_555
H7H C19H 1_555 1_555
C20B S3B 1_555 1_555
C20C S3C 1_555 1_555
C20I S3I 1_555 1_555
C20J S3J 1_555 1_555
C20K S3K 1_555 1_555
C20A S3A 1_555 1_555
C20H S3H 1_555 1_555
C21B C20B 1_555 1_555
C21C C20C 1_555 1_555
C21I C20I 1_555 1_555
C21J C20J 1_555 1_555
C21K C20K 1_555 1_555
C21A C20A 1_555 1_555
C21H C20H 1_555 1_555
H8B C21B 1_555 1_555
H8C C21C 1_555 1_555
H8I C21I 1_555 1_555
H8J C21J 1_555 1_555
H8K C21K 1_555 1_555
H8A C21A 1_555 1_555
H8H C21H 1_555 1_555
C22B C21B 1_555 1_555
C22C C21C 1_555 1_555
C22I C21I 1_555 1_555
C22J C21J 1_555 1_555
C22K C21K 1_555 1_555
C22A C21A 1_555 1_555
C22H C21H 1_555 1_555
C23B C18B 1_555 1_555
C23C C18C 1_555 1_555
C23I C18I 1_555 1_555
C23J C18J 1_555 1_555
C23K C18K 1_555 1_555
C23A C18A 1_555 1_555
C23H C18H 1_555 1_555
H9B C23B 1_555 1_555
H9C C23C 1_555 1_555
H9I C23I 1_555 1_555
H9J C23J 1_555 1_555
H9K C23K 1_555 1_555
H9A C23A 1_555 1_555
H9H C23H 1_555 1_555
C24B O11B 1_555 1_555
C24C O11C 1_555 1_555
C24I O11I 1_555 1_555
C24J O11J 1_555 1_555
C24K O11K 1_555 1_555
C24A O11A 1_555 1_555
C24H O11H 1_555 1_555
O6 C9 1_555 1_555
O10 C17 1_555 1_555
C3 C4 1_555 1_555
C6 C7 1_555 1_555
C6 C8 1_555 1_555
C11 C12 1_555 1_555
C14 C15 1_555 1_555
C19 C20 1_555 1_555
C22 C23 1_555 1_555
Cu3B Cu4B 1_555 1_555
Cu3K Cu4K 1_555 1_555
O2I C1I 1_555 1_555
O2J C1J 1_555 1_555
O2K C1K 1_555 1_555
O2H C1H 1_555 1_555
O4B C8B 1_555 1_555
O4K C8K 1_555 1_555
O6B C9B 1_555 1_555
O6C C9C 1_555 1_555
O6I C9I 1_555 1_555
O6J C9J 1_555 1_555
O6K C9K 1_555 1_555
O6A C9A 1_555 1_555
O6H C9H 1_555 1_555
O8B C16B 1_555 1_555
O8C C16C 1_555 1_555
O8I C16I 1_555 1_555
O8J C16J 1_555 1_555
O8K C16K 1_555 1_555
O8A C16A 1_555 1_555
O8H C16H 1_555 1_555
O10B C17B 1_555 1_555
O10C C17C 1_555 1_555
O10I C17I 1_555 1_555
O10J C17J 1_555 1_555
O10K C17K 1_555 1_555
O10A C17A 1_555 1_555
O10H C17H 1_555 1_555
O12B C24B 1_555 1_555
O12C C24C 1_555 1_555
O12I C24I 1_555 1_555
O12J C24J 1_555 1_555
O12K C24K 1_555 1_555
O12A C24A 1_555 1_555
O12H C24H 1_555 1_555
C3B C4B 1_555 1_555
C3C C4C 1_555 1_555
C3I C4I 1_555 1_555
C3J C4J 1_555 1_555
C3K C4K 1_555 1_555
C3A C4A 1_555 1_555
C3H C4H 1_555 1_555
C6B C7B 1_555 1_555
C6B C8B 1_555 1_555
C6C C7C 1_555 1_555
C6C C8C 1_555 1_555
C6I C7I 1_555 1_555
C6I C8I 1_555 1_555
C6J C7J 1_555 1_555
C6J C8J 1_555 1_555
C6K C7K 1_555 1_555
C6K C8K 1_555 1_555
C6A C7A 1_555 1_555
C6A C8A 1_555 1_555
C6H C7H 1_555 1_555
C6H C8H 1_555 1_555
C11B C12B 1_555 1_555
C11C C12C 1_555 1_555
C11I C12I 1_555 1_555
C11J C12J 1_555 1_555
C11K C12K 1_555 1_555
C11A C12A 1_555 1_555
C11H C12H 1_555 1_555
C14B C15B 1_555 1_555
C14B C16B 1_555 1_555
C14C C15C 1_555 1_555
C14C C16C 1_555 1_555
C14I C15I 1_555 1_555
C14I C16I 1_555 1_555
C14J C15J 1_555 1_555
C14J C16J 1_555 1_555
C14K C15K 1_555 1_555
C14K C16K 1_555 1_555
C14A C15A 1_555 1_555
C14A C16A 1_555 1_555
C14H C15H 1_555 1_555
C14H C16H 1_555 1_555
C19B C20B 1_555 1_555
C19C C20C 1_555 1_555
C19I C20I 1_555 1_555
C19J C20J 1_555 1_555
C19K C20K 1_555 1_555
C19A C20A 1_555 1_555
C19H C20H 1_555 1_555
C22B C23B 1_555 1_555
C22B C24B 1_555 1_555
C22C C23C 1_555 1_555
C22C C24C 1_555 1_555
C22I C23I 1_555 1_555
C22I C24I 1_555 1_555
C22J C23J 1_555 1_555
C22J C24J 1_555 1_555
C22K C23K 1_555 1_555
C22K C24K 1_555 1_555
C22A C23A 1_555 1_555
C22A C24A 1_555 1_555
C22H C23H 1_555 1_555
C22H C24H 1_555 1_555

#END
