
#######################################################################
#
#                 Cambridge Crystallographic Data Centre
#                                CCDC 
#
#######################################################################
#
# If this CIF has been generated from an entry in the Cambridge 
# Structural Database, then it will include bibliographic, chemical, 
# crystal, experimental, refinement or atomic coordinate data resulting 
# from the CCDC's data processing and validation procedures.
#
#######################################################################

data_XAJCES
_chemical_name_common            
'tetracosakis(mu!4$-5-t-butyl-1,3-benzenedicarboxylate)-tetracosakis(unknown)-tetracosa-copper unknown solvate'
_chemical_formula_moiety         'C288 H288 Cu24 O120'
_chemical_name_systematic        
'tetracosakis(\m~4~-5-t-butyl-1,3-isophthalato)-tetracosakis(unknown)-tetracosa-copper unknown solvate'
_symmetry_cell_setting           tetragonal
_symmetry_space_group_name_H-M   'I 4/m m m'
_symmetry_Int_Tables_number      139
_space_group_name_Hall           '-I 4 2'
loop_
_symmetry_equiv_pos_site_id
_symmetry_equiv_pos_as_xyz
1 x,y,z
2 -x,-y,z
3 -y,x,z
4 y,-x,z
5 -x,y,-z
6 x,-y,-z
7 y,x,-z
8 -y,-x,-z
9 1/2+x,1/2+y,1/2+z
10 1/2-x,1/2-y,1/2+z
11 1/2-y,1/2+x,1/2+z
12 1/2+y,1/2-x,1/2+z
13 1/2-x,1/2+y,1/2-z
14 1/2+x,1/2-y,1/2-z
15 1/2+y,1/2+x,1/2-z
16 1/2-y,1/2-x,1/2-z
17 -x,-y,-z
18 x,y,-z
19 y,-x,-z
20 -y,x,-z
21 x,-y,z
22 -x,y,z
23 -y,-x,z
24 y,x,z
25 1/2-x,1/2-y,1/2-z
26 1/2+x,1/2+y,1/2-z
27 1/2+y,1/2-x,1/2-z
28 1/2-y,1/2+x,1/2-z
29 1/2+x,1/2-y,1/2+z
30 1/2-x,1/2+y,1/2+z
31 1/2-y,1/2-x,1/2+z
32 1/2+y,1/2+x,1/2+z
_cell_length_a                   29.296(9)
_cell_length_b                   29.296(9)
_cell_length_c                   41.22(2)
_cell_angle_alpha                90
_cell_angle_beta                 90
_cell_angle_gamma                90
_cell_volume                     35377.3
_exptl_crystal_colour            blue
_exptl_crystal_description       prism
_cell_formula_units_Z            2
loop_
_atom_site_label
_atom_site_type_symbol
_atom_site_fract_x
_atom_site_fract_y
_atom_site_fract_z
Cu1 Cu 0.25834(3) 0.0000 0.18132(3)
Cu2 Cu 0.19583(3) 0.0000 0.13454(3)
Cu3 Cu 0.25985(3) 0.25985(3) 0.0000
Cu4 Cu 0.19558(3) 0.19558(3) 0.0000
O1 O 0.28836(13) 0.04661(14) 0.15515(11)
O2 O 0.23407(13) 0.04611(14) 0.11437(10)
O3 O 0.28849(13) 0.22134(14) 0.03326(11)
O4 O 0.23382(14) 0.16726(13) 0.03294(10)
O5 O 0.21910(14) 0.04696(13) 0.20068(10)
O6 O 0.16490(14) 0.04609(15) 0.16084(11)
O7 O 0.3058(2) 0.0000 0.2204(2)
O8 O 0.3120(3) 0.3120(3) 0.0000
O9 O 0.1472(2) 0.0000 0.0940(2)
O10 O 0.1435(3) 0.1435(3) 0.0000
C1 C 0.2698(3) 0.0620(2) 0.12738(19)
C2 C 0.2954(2) 0.1004(2) 0.11152(16)
C3 C 0.3388(2) 0.1151(3) 0.12252(17)
H1 H 0.3542 0.0984 0.1389
C4 C 0.35874(17) 0.1539(2) 0.10938(18)
C5 C 0.3355(2) 0.1747(2) 0.08255(19)
H2 H 0.3498 0.2002 0.0724
C6 C 0.2935(2) 0.1603(2) 0.07028(17)
C7 C 0.2687(3) 0.1853(3) 0.04363(15)
C8 C 0.2734(2) 0.1206(2) 0.08532(16)
H3 H 0.2455 0.1084 0.0774
C9 C 0.1830(2) 0.06107(19) 0.1855(2)
C10 C 0.1576(2) 0.0980(2) 0.20330(17)
C11 C 0.12018(18) 0.12018(18) 0.1876(2)
H4 H 0.1101 0.1101 0.1669
C12 C 0.1717(2) 0.1152(2) 0.2360(2)
H5 H 0.1964 0.1007 0.2468
C13 C 0.1506(2) 0.1506(2) 0.25046(19)
C14 C 0.17104(17) 0.17104(17) 0.28148(19)
C15 C 0.20706(16) 0.20706(16) 0.2730(3)
H6 H 0.2202 0.2202 0.2922
H7 H 0.2306 0.1935 0.2604
C16 C 0.1937(3) 0.1336(2) 0.30191(19)
H8 H 0.2073 0.1473 0.3213
H9 H 0.2175 0.1186 0.2891
H10 H 0.1707 0.1111 0.3084
C17 C 0.40320(15) 0.17238(19) 0.12400(14)
C18 C 0.4400(2) 0.1351(3) 0.1241(3)
H11 H 0.4683 0.1475 0.1332
H12 H 0.4456 0.1249 0.1018
H13 H 0.4296 0.1093 0.1372
C19 C 0.4207(3) 0.2130(3) 0.1041(2)
H14 H 0.4492 0.2243 0.1136
H15 H 0.3978 0.2374 0.1044
H16 H 0.4261 0.2033 0.0817
C20 C 0.3953(3) 0.1881(4) 0.15902(16)
H17 H 0.4239 0.1998 0.1681
H18 H 0.3846 0.1623 0.1721
H19 H 0.3722 0.2123 0.1593
Cu1B Cu 0.0000 0.25834(3) 0.18132(3)
Cu1C Cu 0.0000 -0.25834(3) 0.18132(3)
Cu1F Cu 0.0000 0.25834(3) -0.18132(3)
Cu1E Cu 0.25834(3) 0.0000 -0.18132(3)
Cu1A Cu -0.25834(3) 0.0000 0.18132(3)
Cu1D Cu -0.25834(3) 0.0000 -0.18132(3)
Cu1G Cu 0.0000 -0.25834(3) -0.18132(3)
Cu2B Cu 0.0000 0.19583(3) 0.13454(3)
Cu2C Cu 0.0000 -0.19583(3) 0.13454(3)
Cu2F Cu 0.0000 0.19583(3) -0.13454(3)
Cu2E Cu 0.19583(3) 0.0000 -0.13454(3)
Cu2A Cu -0.19583(3) 0.0000 0.13454(3)
Cu2D Cu -0.19583(3) 0.0000 -0.13454(3)
Cu2G Cu 0.0000 -0.19583(3) -0.13454(3)
Cu3B Cu -0.25985(3) 0.25985(3) 0.0000
Cu3C Cu 0.25985(3) -0.25985(3) 0.0000
Cu3A Cu -0.25985(3) -0.25985(3) 0.0000
Cu4B Cu -0.19558(3) 0.19558(3) 0.0000
Cu4C Cu 0.19558(3) -0.19558(3) 0.0000
Cu4A Cu -0.19558(3) -0.19558(3) 0.0000
O1B O -0.04661(14) 0.28836(13) 0.15515(11)
O1C O 0.04661(14) -0.28836(13) 0.15515(11)
O1F O 0.04661(14) 0.28836(13) -0.15515(11)
O1Q O 0.28836(13) 0.04661(14) -0.15515(11)
O1T O 0.28836(13) -0.04661(14) 0.15515(11)
O1U O -0.28836(13) 0.04661(14) 0.15515(11)
O1W O 0.04661(14) 0.28836(13) 0.15515(11)
O1A O -0.28836(13) -0.04661(14) 0.15515(11)
O1D O -0.28836(13) 0.04661(14) -0.15515(11)
O1E O 0.28836(13) -0.04661(14) -0.15515(11)
O1G O -0.04661(14) -0.28836(13) -0.15515(11)
O1P O -0.28836(13) -0.04661(14) -0.15515(11)
O1R O 0.04661(14) -0.28836(13) -0.15515(11)
O1S O -0.04661(14) 0.28836(13) -0.15515(11)
O1V O -0.04661(14) -0.28836(13) 0.15515(11)
O2B O -0.04611(14) 0.23407(13) 0.11437(10)
O2C O 0.04611(14) -0.23407(13) 0.11437(10)
O2F O 0.04611(14) 0.23407(13) -0.11437(10)
O2Q O 0.23407(13) 0.04611(14) -0.11437(10)
O2T O 0.23407(13) -0.04611(14) 0.11437(10)
O2U O -0.23407(13) 0.04611(14) 0.11437(10)
O2W O 0.04611(14) 0.23407(13) 0.11437(10)
O2A O -0.23407(13) -0.04611(14) 0.11437(10)
O2D O -0.23407(13) 0.04611(14) -0.11437(10)
O2E O 0.23407(13) -0.04611(14) -0.11437(10)
O2G O -0.04611(14) -0.23407(13) -0.11437(10)
O2P O -0.23407(13) -0.04611(14) -0.11437(10)
O2R O 0.04611(14) -0.23407(13) -0.11437(10)
O2S O -0.04611(14) 0.23407(13) -0.11437(10)
O2V O -0.04611(14) -0.23407(13) 0.11437(10)
O3B O -0.22134(14) 0.28849(13) 0.03326(11)
O3C O 0.22134(14) -0.28849(13) 0.03326(11)
O3F O 0.22134(14) 0.28849(13) -0.03326(11)
O3Q O 0.28849(13) 0.22134(14) -0.03326(11)
O3T O 0.28849(13) -0.22134(14) 0.03326(11)
O3U O -0.28849(13) 0.22134(14) 0.03326(11)
O3W O 0.22134(14) 0.28849(13) 0.03326(11)
O3A O -0.28849(13) -0.22134(14) 0.03326(11)
O3D O -0.28849(13) 0.22134(14) -0.03326(11)
O3E O 0.28849(13) -0.22134(14) -0.03326(11)
O3G O -0.22134(14) -0.28849(13) -0.03326(11)
O3P O -0.28849(13) -0.22134(14) -0.03326(11)
O3R O 0.22134(14) -0.28849(13) -0.03326(11)
O3S O -0.22134(14) 0.28849(13) -0.03326(11)
O3V O -0.22134(14) -0.28849(13) 0.03326(11)
O4B O -0.16726(13) 0.23382(14) 0.03294(10)
O4C O 0.16726(13) -0.23382(14) 0.03294(10)
O4F O 0.16726(13) 0.23382(14) -0.03294(10)
O4Q O 0.23382(14) 0.16726(13) -0.03294(10)
O4T O 0.23382(14) -0.16726(13) 0.03294(10)
O4U O -0.23382(14) 0.16726(13) 0.03294(10)
O4W O 0.16726(13) 0.23382(14) 0.03294(10)
O4A O -0.23382(14) -0.16726(13) 0.03294(10)
O4D O -0.23382(14) 0.16726(13) -0.03294(10)
O4E O 0.23382(14) -0.16726(13) -0.03294(10)
O4G O -0.16726(13) -0.23382(14) -0.03294(10)
O4P O -0.23382(14) -0.16726(13) -0.03294(10)
O4R O 0.16726(13) -0.23382(14) -0.03294(10)
O4S O -0.16726(13) 0.23382(14) -0.03294(10)
O4V O -0.16726(13) -0.23382(14) 0.03294(10)
O5W O 0.04696(13) 0.21910(14) 0.20068(10)
O5B O -0.04696(13) 0.21910(14) 0.20068(10)
O5U O -0.21910(14) 0.04696(13) 0.20068(10)
O5C O 0.04696(13) -0.21910(14) 0.20068(10)
O5T O 0.21910(14) -0.04696(13) 0.20068(10)
O5F O 0.04696(13) 0.21910(14) -0.20068(10)
O5Q O 0.21910(14) 0.04696(13) -0.20068(10)
O5A O -0.21910(14) -0.04696(13) 0.20068(10)
O5V O -0.04696(13) -0.21910(14) 0.20068(10)
O5D O -0.21910(14) 0.04696(13) -0.20068(10)
O5S O -0.04696(13) 0.21910(14) -0.20068(10)
O5E O 0.21910(14) -0.04696(13) -0.20068(10)
O5R O 0.04696(13) -0.21910(14) -0.20068(10)
O5G O -0.04696(13) -0.21910(14) -0.20068(10)
O5P O -0.21910(14) -0.04696(13) -0.20068(10)
O6W O 0.04609(15) 0.16490(14) 0.16084(11)
O6B O -0.04609(15) 0.16490(14) 0.16084(11)
O6U O -0.16490(14) 0.04609(15) 0.16084(11)
O6C O 0.04609(15) -0.16490(14) 0.16084(11)
O6T O 0.16490(14) -0.04609(15) 0.16084(11)
O6F O 0.04609(15) 0.16490(14) -0.16084(11)
O6Q O 0.16490(14) 0.04609(15) -0.16084(11)
O6A O -0.16490(14) -0.04609(15) 0.16084(11)
O6V O -0.04609(15) -0.16490(14) 0.16084(11)
O6D O -0.16490(14) 0.04609(15) -0.16084(11)
O6S O -0.04609(15) 0.16490(14) -0.16084(11)
O6E O 0.16490(14) -0.04609(15) -0.16084(11)
O6R O 0.04609(15) -0.16490(14) -0.16084(11)
O6G O -0.04609(15) -0.16490(14) -0.16084(11)
O6P O -0.16490(14) -0.04609(15) -0.16084(11)
O7B O 0.0000 0.3058(2) 0.2204(2)
O7C O 0.0000 -0.3058(2) 0.2204(2)
O7F O 0.0000 0.3058(2) -0.2204(2)
O7E O 0.3058(2) 0.0000 -0.2204(2)
O7A O -0.3058(2) 0.0000 0.2204(2)
O7D O -0.3058(2) 0.0000 -0.2204(2)
O7G O 0.0000 -0.3058(2) -0.2204(2)
O8B O -0.3120(3) 0.3120(3) 0.0000
O8C O 0.3120(3) -0.3120(3) 0.0000
O8A O -0.3120(3) -0.3120(3) 0.0000
O9B O 0.0000 0.1472(2) 0.0940(2)
O9C O 0.0000 -0.1472(2) 0.0940(2)
O9F O 0.0000 0.1472(2) -0.0940(2)
O9E O 0.1472(2) 0.0000 -0.0940(2)
O9A O -0.1472(2) 0.0000 0.0940(2)
O9D O -0.1472(2) 0.0000 -0.0940(2)
O9G O 0.0000 -0.1472(2) -0.0940(2)
O10B O -0.1435(3) 0.1435(3) 0.0000
O10C O 0.1435(3) -0.1435(3) 0.0000
O10A O -0.1435(3) -0.1435(3) 0.0000
C1B C -0.0620(2) 0.2698(3) 0.12738(19)
C1C C 0.0620(2) -0.2698(3) 0.12738(19)
C1F C 0.0620(2) 0.2698(3) -0.12738(19)
C1Q C 0.2698(3) 0.0620(2) -0.12738(19)
C1T C 0.2698(3) -0.0620(2) 0.12738(19)
C1U C -0.2698(3) 0.0620(2) 0.12738(19)
C1W C 0.0620(2) 0.2698(3) 0.12738(19)
C1A C -0.2698(3) -0.0620(2) 0.12738(19)
C1D C -0.2698(3) 0.0620(2) -0.12738(19)
C1E C 0.2698(3) -0.0620(2) -0.12738(19)
C1G C -0.0620(2) -0.2698(3) -0.12738(19)
C1P C -0.2698(3) -0.0620(2) -0.12738(19)
C1R C 0.0620(2) -0.2698(3) -0.12738(19)
C1S C -0.0620(2) 0.2698(3) -0.12738(19)
C1V C -0.0620(2) -0.2698(3) 0.12738(19)
C2B C -0.1004(2) 0.2954(2) 0.11152(16)
C2C C 0.1004(2) -0.2954(2) 0.11152(16)
C2F C 0.1004(2) 0.2954(2) -0.11152(16)
C2Q C 0.2954(2) 0.1004(2) -0.11152(16)
C2T C 0.2954(2) -0.1004(2) 0.11152(16)
C2U C -0.2954(2) 0.1004(2) 0.11152(16)
C2W C 0.1004(2) 0.2954(2) 0.11152(16)
C2A C -0.2954(2) -0.1004(2) 0.11152(16)
C2D C -0.2954(2) 0.1004(2) -0.11152(16)
C2E C 0.2954(2) -0.1004(2) -0.11152(16)
C2G C -0.1004(2) -0.2954(2) -0.11152(16)
C2P C -0.2954(2) -0.1004(2) -0.11152(16)
C2R C 0.1004(2) -0.2954(2) -0.11152(16)
C2S C -0.1004(2) 0.2954(2) -0.11152(16)
C2V C -0.1004(2) -0.2954(2) 0.11152(16)
C3B C -0.1151(3) 0.3388(2) 0.12252(17)
C3C C 0.1151(3) -0.3388(2) 0.12252(17)
C3F C 0.1151(3) 0.3388(2) -0.12252(17)
C3Q C 0.3388(2) 0.1151(3) -0.12252(17)
C3T C 0.3388(2) -0.1151(3) 0.12252(17)
C3U C -0.3388(2) 0.1151(3) 0.12252(17)
C3W C 0.1151(3) 0.3388(2) 0.12252(17)
C3A C -0.3388(2) -0.1151(3) 0.12252(17)
C3D C -0.3388(2) 0.1151(3) -0.12252(17)
C3E C 0.3388(2) -0.1151(3) -0.12252(17)
C3G C -0.1151(3) -0.3388(2) -0.12252(17)
C3P C -0.3388(2) -0.1151(3) -0.12252(17)
C3R C 0.1151(3) -0.3388(2) -0.12252(17)
C3S C -0.1151(3) 0.3388(2) -0.12252(17)
C3V C -0.1151(3) -0.3388(2) 0.12252(17)
H1B H -0.0984 0.3542 0.1389
H1C H 0.0984 -0.3542 0.1389
H1F H 0.0984 0.3542 -0.1389
H1Q H 0.3542 0.0984 -0.1389
H1T H 0.3542 -0.0984 0.1389
H1U H -0.3542 0.0984 0.1389
H1W H 0.0984 0.3542 0.1389
H1A H -0.3542 -0.0984 0.1389
H1D H -0.3542 0.0984 -0.1389
H1E H 0.3542 -0.0984 -0.1389
H1G H -0.0984 -0.3542 -0.1389
H1P H -0.3542 -0.0984 -0.1389
H1R H 0.0984 -0.3542 -0.1389
H1S H -0.0984 0.3542 -0.1389
H1V H -0.0984 -0.3542 0.1389
C4B C -0.1539(2) 0.35874(17) 0.10938(18)
C4C C 0.1539(2) -0.35874(17) 0.10938(18)
C4F C 0.1539(2) 0.35874(17) -0.10938(18)
C4Q C 0.35874(17) 0.1539(2) -0.10938(18)
C4T C 0.35874(17) -0.1539(2) 0.10938(18)
C4U C -0.35874(17) 0.1539(2) 0.10938(18)
C4W C 0.1539(2) 0.35874(17) 0.10938(18)
C4A C -0.35874(17) -0.1539(2) 0.10938(18)
C4D C -0.35874(17) 0.1539(2) -0.10938(18)
C4E C 0.35874(17) -0.1539(2) -0.10938(18)
C4G C -0.1539(2) -0.35874(17) -0.10938(18)
C4P C -0.35874(17) -0.1539(2) -0.10938(18)
C4R C 0.1539(2) -0.35874(17) -0.10938(18)
C4S C -0.1539(2) 0.35874(17) -0.10938(18)
C4V C -0.1539(2) -0.35874(17) 0.10938(18)
C5B C -0.1747(2) 0.3355(2) 0.08255(19)
C5C C 0.1747(2) -0.3355(2) 0.08255(19)
C5F C 0.1747(2) 0.3355(2) -0.08255(19)
C5Q C 0.3355(2) 0.1747(2) -0.08255(19)
C5T C 0.3355(2) -0.1747(2) 0.08255(19)
C5U C -0.3355(2) 0.1747(2) 0.08255(19)
C5W C 0.1747(2) 0.3355(2) 0.08255(19)
C5A C -0.3355(2) -0.1747(2) 0.08255(19)
C5D C -0.3355(2) 0.1747(2) -0.08255(19)
C5E C 0.3355(2) -0.1747(2) -0.08255(19)
C5G C -0.1747(2) -0.3355(2) -0.08255(19)
C5P C -0.3355(2) -0.1747(2) -0.08255(19)
C5R C 0.1747(2) -0.3355(2) -0.08255(19)
C5S C -0.1747(2) 0.3355(2) -0.08255(19)
C5V C -0.1747(2) -0.3355(2) 0.08255(19)
H2B H -0.2002 0.3498 0.0724
H2C H 0.2002 -0.3498 0.0724
H2F H 0.2002 0.3498 -0.0724
H2Q H 0.3498 0.2002 -0.0724
H2T H 0.3498 -0.2002 0.0724
H2U H -0.3498 0.2002 0.0724
H2W H 0.2002 0.3498 0.0724
H2A H -0.3498 -0.2002 0.0724
H2D H -0.3498 0.2002 -0.0724
H2E H 0.3498 -0.2002 -0.0724
H2G H -0.2002 -0.3498 -0.0724
H2P H -0.3498 -0.2002 -0.0724
H2R H 0.2002 -0.3498 -0.0724
H2S H -0.2002 0.3498 -0.0724
H2V H -0.2002 -0.3498 0.0724
C6B C -0.1603(2) 0.2935(2) 0.07028(17)
C6C C 0.1603(2) -0.2935(2) 0.07028(17)
C6F C 0.1603(2) 0.2935(2) -0.07028(17)
C6Q C 0.2935(2) 0.1603(2) -0.07028(17)
C6T C 0.2935(2) -0.1603(2) 0.07028(17)
C6U C -0.2935(2) 0.1603(2) 0.07028(17)
C6W C 0.1603(2) 0.2935(2) 0.07028(17)
C6A C -0.2935(2) -0.1603(2) 0.07028(17)
C6D C -0.2935(2) 0.1603(2) -0.07028(17)
C6E C 0.2935(2) -0.1603(2) -0.07028(17)
C6G C -0.1603(2) -0.2935(2) -0.07028(17)
C6P C -0.2935(2) -0.1603(2) -0.07028(17)
C6R C 0.1603(2) -0.2935(2) -0.07028(17)
C6S C -0.1603(2) 0.2935(2) -0.07028(17)
C6V C -0.1603(2) -0.2935(2) 0.07028(17)
C7B C -0.1853(3) 0.2687(3) 0.04363(15)
C7C C 0.1853(3) -0.2687(3) 0.04363(15)
C7F C 0.1853(3) 0.2687(3) -0.04363(15)
C7Q C 0.2687(3) 0.1853(3) -0.04363(15)
C7T C 0.2687(3) -0.1853(3) 0.04363(15)
C7U C -0.2687(3) 0.1853(3) 0.04363(15)
C7W C 0.1853(3) 0.2687(3) 0.04363(15)
C7A C -0.2687(3) -0.1853(3) 0.04363(15)
C7D C -0.2687(3) 0.1853(3) -0.04363(15)
C7E C 0.2687(3) -0.1853(3) -0.04363(15)
C7G C -0.1853(3) -0.2687(3) -0.04363(15)
C7P C -0.2687(3) -0.1853(3) -0.04363(15)
C7R C 0.1853(3) -0.2687(3) -0.04363(15)
C7S C -0.1853(3) 0.2687(3) -0.04363(15)
C7V C -0.1853(3) -0.2687(3) 0.04363(15)
C8B C -0.1206(2) 0.2734(2) 0.08532(16)
C8C C 0.1206(2) -0.2734(2) 0.08532(16)
C8F C 0.1206(2) 0.2734(2) -0.08532(16)
C8Q C 0.2734(2) 0.1206(2) -0.08532(16)
C8T C 0.2734(2) -0.1206(2) 0.08532(16)
C8U C -0.2734(2) 0.1206(2) 0.08532(16)
C8W C 0.1206(2) 0.2734(2) 0.08532(16)
C8A C -0.2734(2) -0.1206(2) 0.08532(16)
C8D C -0.2734(2) 0.1206(2) -0.08532(16)
C8E C 0.2734(2) -0.1206(2) -0.08532(16)
C8G C -0.1206(2) -0.2734(2) -0.08532(16)
C8P C -0.2734(2) -0.1206(2) -0.08532(16)
C8R C 0.1206(2) -0.2734(2) -0.08532(16)
C8S C -0.1206(2) 0.2734(2) -0.08532(16)
C8V C -0.1206(2) -0.2734(2) 0.08532(16)
H3B H -0.1084 0.2455 0.0774
H3C H 0.1084 -0.2455 0.0774
H3F H 0.1084 0.2455 -0.0774
H3Q H 0.2455 0.1084 -0.0774
H3T H 0.2455 -0.1084 0.0774
H3U H -0.2455 0.1084 0.0774
H3W H 0.1084 0.2455 0.0774
H3A H -0.2455 -0.1084 0.0774
H3D H -0.2455 0.1084 -0.0774
H3E H 0.2455 -0.1084 -0.0774
H3G H -0.1084 -0.2455 -0.0774
H3P H -0.2455 -0.1084 -0.0774
H3R H 0.1084 -0.2455 -0.0774
H3S H -0.1084 0.2455 -0.0774
H3V H -0.1084 -0.2455 0.0774
C9W C 0.06107(19) 0.1830(2) 0.1855(2)
C9B C -0.06107(19) 0.1830(2) 0.1855(2)
C9U C -0.1830(2) 0.06107(19) 0.1855(2)
C9C C 0.06107(19) -0.1830(2) 0.1855(2)
C9T C 0.1830(2) -0.06107(19) 0.1855(2)
C9F C 0.06107(19) 0.1830(2) -0.1855(2)
C9Q C 0.1830(2) 0.06107(19) -0.1855(2)
C9A C -0.1830(2) -0.06107(19) 0.1855(2)
C9V C -0.06107(19) -0.1830(2) 0.1855(2)
C9D C -0.1830(2) 0.06107(19) -0.1855(2)
C9S C -0.06107(19) 0.1830(2) -0.1855(2)
C9E C 0.1830(2) -0.06107(19) -0.1855(2)
C9R C 0.06107(19) -0.1830(2) -0.1855(2)
C9G C -0.06107(19) -0.1830(2) -0.1855(2)
C9P C -0.1830(2) -0.06107(19) -0.1855(2)
C10W C 0.0980(2) 0.1576(2) 0.20330(17)
C10B C -0.0980(2) 0.1576(2) 0.20330(17)
C10U C -0.1576(2) 0.0980(2) 0.20330(17)
C10C C 0.0980(2) -0.1576(2) 0.20330(17)
C10T C 0.1576(2) -0.0980(2) 0.20330(17)
C10F C 0.0980(2) 0.1576(2) -0.20330(17)
C10Q C 0.1576(2) 0.0980(2) -0.20330(17)
C10A C -0.1576(2) -0.0980(2) 0.20330(17)
C10V C -0.0980(2) -0.1576(2) 0.20330(17)
C10D C -0.1576(2) 0.0980(2) -0.20330(17)
C10S C -0.0980(2) 0.1576(2) -0.20330(17)
C10E C 0.1576(2) -0.0980(2) -0.20330(17)
C10R C 0.0980(2) -0.1576(2) -0.20330(17)
C10G C -0.0980(2) -0.1576(2) -0.20330(17)
C10P C -0.1576(2) -0.0980(2) -0.20330(17)
C11B C -0.12018(18) 0.12018(18) 0.1876(2)
C11C C 0.12018(18) -0.12018(18) 0.1876(2)
C11F C 0.12018(18) 0.12018(18) -0.1876(2)
C11A C -0.12018(18) -0.12018(18) 0.1876(2)
C11D C -0.12018(18) 0.12018(18) -0.1876(2)
C11E C 0.12018(18) -0.12018(18) -0.1876(2)
C11G C -0.12018(18) -0.12018(18) -0.1876(2)
H4B H -0.1101 0.1101 0.1669
H4C H 0.1101 -0.1101 0.1669
H4F H 0.1101 0.1101 -0.1669
H4A H -0.1101 -0.1101 0.1669
H4D H -0.1101 0.1101 -0.1669
H4E H 0.1101 -0.1101 -0.1669
H4G H -0.1101 -0.1101 -0.1669
C12W C 0.1152(2) 0.1717(2) 0.2360(2)
C12B C -0.1152(2) 0.1717(2) 0.2360(2)
C12U C -0.1717(2) 0.1152(2) 0.2360(2)
C12C C 0.1152(2) -0.1717(2) 0.2360(2)
C12T C 0.1717(2) -0.1152(2) 0.2360(2)
C12F C 0.1152(2) 0.1717(2) -0.2360(2)
C12Q C 0.1717(2) 0.1152(2) -0.2360(2)
C12A C -0.1717(2) -0.1152(2) 0.2360(2)
C12V C -0.1152(2) -0.1717(2) 0.2360(2)
C12D C -0.1717(2) 0.1152(2) -0.2360(2)
C12S C -0.1152(2) 0.1717(2) -0.2360(2)
C12E C 0.1717(2) -0.1152(2) -0.2360(2)
C12R C 0.1152(2) -0.1717(2) -0.2360(2)
C12G C -0.1152(2) -0.1717(2) -0.2360(2)
C12P C -0.1717(2) -0.1152(2) -0.2360(2)
H5W H 0.1007 0.1964 0.2468
H5B H -0.1007 0.1964 0.2468
H5U H -0.1964 0.1007 0.2468
H5C H 0.1007 -0.1964 0.2468
H5T H 0.1964 -0.1007 0.2468
H5F H 0.1007 0.1964 -0.2468
H5Q H 0.1964 0.1007 -0.2468
H5A H -0.1964 -0.1007 0.2468
H5V H -0.1007 -0.1964 0.2468
H5D H -0.1964 0.1007 -0.2468
H5S H -0.1007 0.1964 -0.2468
H5E H 0.1964 -0.1007 -0.2468
H5R H 0.1007 -0.1964 -0.2468
H5G H -0.1007 -0.1964 -0.2468
H5P H -0.1964 -0.1007 -0.2468
C13B C -0.1506(2) 0.1506(2) 0.25046(19)
C13C C 0.1506(2) -0.1506(2) 0.25046(19)
C13F C 0.1506(2) 0.1506(2) -0.25046(19)
C13A C -0.1506(2) -0.1506(2) 0.25046(19)
C13D C -0.1506(2) 0.1506(2) -0.25046(19)
C13E C 0.1506(2) -0.1506(2) -0.25046(19)
C13G C -0.1506(2) -0.1506(2) -0.25046(19)
C14B C -0.17104(17) 0.17104(17) 0.28148(19)
C14C C 0.17104(17) -0.17104(17) 0.28148(19)
C14F C 0.17104(17) 0.17104(17) -0.28148(19)
C14A C -0.17104(17) -0.17104(17) 0.28148(19)
C14D C -0.17104(17) 0.17104(17) -0.28148(19)
C14E C 0.17104(17) -0.17104(17) -0.28148(19)
C14G C -0.17104(17) -0.17104(17) -0.28148(19)
C15B C -0.20706(16) 0.20706(16) 0.2730(3)
C15C C 0.20706(16) -0.20706(16) 0.2730(3)
C15F C 0.20706(16) 0.20706(16) -0.2730(3)
C15A C -0.20706(16) -0.20706(16) 0.2730(3)
C15D C -0.20706(16) 0.20706(16) -0.2730(3)
C15E C 0.20706(16) -0.20706(16) -0.2730(3)
C15G C -0.20706(16) -0.20706(16) -0.2730(3)
H6B H -0.2202 0.2202 0.2922
H6C H 0.2202 -0.2202 0.2922
H6F H 0.2202 0.2202 -0.2922
H6A H -0.2202 -0.2202 0.2922
H6D H -0.2202 0.2202 -0.2922
H6E H 0.2202 -0.2202 -0.2922
H6G H -0.2202 -0.2202 -0.2922
H7W H 0.1935 0.2306 0.2604
H7B H -0.1935 0.2306 0.2604
H7U H -0.2306 0.1935 0.2604
H7C H 0.1935 -0.2306 0.2604
H7T H 0.2306 -0.1935 0.2604
H7F H 0.1935 0.2306 -0.2604
H7Q H 0.2306 0.1935 -0.2604
H7A H -0.2306 -0.1935 0.2604
H7V H -0.1935 -0.2306 0.2604
H7D H -0.2306 0.1935 -0.2604
H7S H -0.1935 0.2306 -0.2604
H7E H 0.2306 -0.1935 -0.2604
H7R H 0.1935 -0.2306 -0.2604
H7G H -0.1935 -0.2306 -0.2604
H7P H -0.2306 -0.1935 -0.2604
C16W C 0.1336(2) 0.1937(3) 0.30191(19)
C16B C -0.1336(2) 0.1937(3) 0.30191(19)
C16U C -0.1937(3) 0.1336(2) 0.30191(19)
C16C C 0.1336(2) -0.1937(3) 0.30191(19)
C16T C 0.1937(3) -0.1336(2) 0.30191(19)
C16F C 0.1336(2) 0.1937(3) -0.30191(19)
C16Q C 0.1937(3) 0.1336(2) -0.30191(19)
C16A C -0.1937(3) -0.1336(2) 0.30191(19)
C16V C -0.1336(2) -0.1937(3) 0.30191(19)
C16D C -0.1937(3) 0.1336(2) -0.30191(19)
C16S C -0.1336(2) 0.1937(3) -0.30191(19)
C16E C 0.1937(3) -0.1336(2) -0.30191(19)
C16R C 0.1336(2) -0.1937(3) -0.30191(19)
C16G C -0.1336(2) -0.1937(3) -0.30191(19)
C16P C -0.1937(3) -0.1336(2) -0.30191(19)
H8W H 0.1473 0.2073 0.3213
H8B H -0.1473 0.2073 0.3213
H8U H -0.2073 0.1473 0.3213
H8C H 0.1473 -0.2073 0.3213
H8T H 0.2073 -0.1473 0.3213
H8F H 0.1473 0.2073 -0.3213
H8Q H 0.2073 0.1473 -0.3213
H8A H -0.2073 -0.1473 0.3213
H8V H -0.1473 -0.2073 0.3213
H8D H -0.2073 0.1473 -0.3213
H8S H -0.1473 0.2073 -0.3213
H8E H 0.2073 -0.1473 -0.3213
H8R H 0.1473 -0.2073 -0.3213
H8G H -0.1473 -0.2073 -0.3213
H8P H -0.2073 -0.1473 -0.3213
H9W H 0.1186 0.2175 0.2891
H9B H -0.1186 0.2175 0.2891
H9U H -0.2175 0.1186 0.2891
H9C H 0.1186 -0.2175 0.2891
H9T H 0.2175 -0.1186 0.2891
H9F H 0.1186 0.2175 -0.2891
H9Q H 0.2175 0.1186 -0.2891
H9A H -0.2175 -0.1186 0.2891
H9V H -0.1186 -0.2175 0.2891
H9D H -0.2175 0.1186 -0.2891
H9S H -0.1186 0.2175 -0.2891
H9E H 0.2175 -0.1186 -0.2891
H9R H 0.1186 -0.2175 -0.2891
H9G H -0.1186 -0.2175 -0.2891
H9P H -0.2175 -0.1186 -0.2891
H10W H 0.1111 0.1707 0.3084
H10B H -0.1111 0.1707 0.3084
H10U H -0.1707 0.1111 0.3084
H10C H 0.1111 -0.1707 0.3084
H10T H 0.1707 -0.1111 0.3084
H10F H 0.1111 0.1707 -0.3084
H10Q H 0.1707 0.1111 -0.3084
H10A H -0.1707 -0.1111 0.3084
H10V H -0.1111 -0.1707 0.3084
H10D H -0.1707 0.1111 -0.3084
H10S H -0.1111 0.1707 -0.3084
H10E H 0.1707 -0.1111 -0.3084
H10R H 0.1111 -0.1707 -0.3084
H10G H -0.1111 -0.1707 -0.3084
H10P H -0.1707 -0.1111 -0.3084
C17B C -0.17238(19) 0.40320(15) 0.12400(14)
C17C C 0.17238(19) -0.40320(15) 0.12400(14)
C17F C 0.17238(19) 0.40320(15) -0.12400(14)
C17Q C 0.40320(15) 0.17238(19) -0.12400(14)
C17T C 0.40320(15) -0.17238(19) 0.12400(14)
C17U C -0.40320(15) 0.17238(19) 0.12400(14)
C17W C 0.17238(19) 0.40320(15) 0.12400(14)
C17A C -0.40320(15) -0.17238(19) 0.12400(14)
C17D C -0.40320(15) 0.17238(19) -0.12400(14)
C17E C 0.40320(15) -0.17238(19) -0.12400(14)
C17G C -0.17238(19) -0.40320(15) -0.12400(14)
C17P C -0.40320(15) -0.17238(19) -0.12400(14)
C17R C 0.17238(19) -0.40320(15) -0.12400(14)
C17S C -0.17238(19) 0.40320(15) -0.12400(14)
C17V C -0.17238(19) -0.40320(15) 0.12400(14)
C18B C -0.1351(3) 0.4400(2) 0.1241(3)
C18C C 0.1351(3) -0.4400(2) 0.1241(3)
C18F C 0.1351(3) 0.4400(2) -0.1241(3)
C18Q C 0.4400(2) 0.1351(3) -0.1241(3)
C18T C 0.4400(2) -0.1351(3) 0.1241(3)
C18U C -0.4400(2) 0.1351(3) 0.1241(3)
C18W C 0.1351(3) 0.4400(2) 0.1241(3)
C18A C -0.4400(2) -0.1351(3) 0.1241(3)
C18D C -0.4400(2) 0.1351(3) -0.1241(3)
C18E C 0.4400(2) -0.1351(3) -0.1241(3)
C18G C -0.1351(3) -0.4400(2) -0.1241(3)
C18P C -0.4400(2) -0.1351(3) -0.1241(3)
C18R C 0.1351(3) -0.4400(2) -0.1241(3)
C18S C -0.1351(3) 0.4400(2) -0.1241(3)
C18V C -0.1351(3) -0.4400(2) 0.1241(3)
H11B H -0.1475 0.4683 0.1332
H11C H 0.1475 -0.4683 0.1332
H11F H 0.1475 0.4683 -0.1332
H11Q H 0.4683 0.1475 -0.1332
H11T H 0.4683 -0.1475 0.1332
H11U H -0.4683 0.1475 0.1332
H11W H 0.1475 0.4683 0.1332
H11A H -0.4683 -0.1475 0.1332
H11D H -0.4683 0.1475 -0.1332
H11E H 0.4683 -0.1475 -0.1332
H11G H -0.1475 -0.4683 -0.1332
H11P H -0.4683 -0.1475 -0.1332
H11R H 0.1475 -0.4683 -0.1332
H11S H -0.1475 0.4683 -0.1332
H11V H -0.1475 -0.4683 0.1332
H12B H -0.1249 0.4456 0.1018
H12C H 0.1249 -0.4456 0.1018
H12F H 0.1249 0.4456 -0.1018
H12Q H 0.4456 0.1249 -0.1018
H12T H 0.4456 -0.1249 0.1018
H12U H -0.4456 0.1249 0.1018
H12W H 0.1249 0.4456 0.1018
H12A H -0.4456 -0.1249 0.1018
H12D H -0.4456 0.1249 -0.1018
H12E H 0.4456 -0.1249 -0.1018
H12G H -0.1249 -0.4456 -0.1018
H12P H -0.4456 -0.1249 -0.1018
H12R H 0.1249 -0.4456 -0.1018
H12S H -0.1249 0.4456 -0.1018
H12V H -0.1249 -0.4456 0.1018
H13B H -0.1093 0.4296 0.1372
H13C H 0.1093 -0.4296 0.1372
H13F H 0.1093 0.4296 -0.1372
H13Q H 0.4296 0.1093 -0.1372
H13T H 0.4296 -0.1093 0.1372
H13U H -0.4296 0.1093 0.1372
H13W H 0.1093 0.4296 0.1372
H13A H -0.4296 -0.1093 0.1372
H13D H -0.4296 0.1093 -0.1372
H13E H 0.4296 -0.1093 -0.1372
H13G H -0.1093 -0.4296 -0.1372
H13P H -0.4296 -0.1093 -0.1372
H13R H 0.1093 -0.4296 -0.1372
H13S H -0.1093 0.4296 -0.1372
H13V H -0.1093 -0.4296 0.1372
C19B C -0.2130(3) 0.4207(3) 0.1041(2)
C19C C 0.2130(3) -0.4207(3) 0.1041(2)
C19F C 0.2130(3) 0.4207(3) -0.1041(2)
C19Q C 0.4207(3) 0.2130(3) -0.1041(2)
C19T C 0.4207(3) -0.2130(3) 0.1041(2)
C19U C -0.4207(3) 0.2130(3) 0.1041(2)
C19W C 0.2130(3) 0.4207(3) 0.1041(2)
C19A C -0.4207(3) -0.2130(3) 0.1041(2)
C19D C -0.4207(3) 0.2130(3) -0.1041(2)
C19E C 0.4207(3) -0.2130(3) -0.1041(2)
C19G C -0.2130(3) -0.4207(3) -0.1041(2)
C19P C -0.4207(3) -0.2130(3) -0.1041(2)
C19R C 0.2130(3) -0.4207(3) -0.1041(2)
C19S C -0.2130(3) 0.4207(3) -0.1041(2)
C19V C -0.2130(3) -0.4207(3) 0.1041(2)
H14B H -0.2243 0.4492 0.1136
H14C H 0.2243 -0.4492 0.1136
H14F H 0.2243 0.4492 -0.1136
H14Q H 0.4492 0.2243 -0.1136
H14T H 0.4492 -0.2243 0.1136
H14U H -0.4492 0.2243 0.1136
H14W H 0.2243 0.4492 0.1136
H14A H -0.4492 -0.2243 0.1136
H14D H -0.4492 0.2243 -0.1136
H14E H 0.4492 -0.2243 -0.1136
H14G H -0.2243 -0.4492 -0.1136
H14P H -0.4492 -0.2243 -0.1136
H14R H 0.2243 -0.4492 -0.1136
H14S H -0.2243 0.4492 -0.1136
H14V H -0.2243 -0.4492 0.1136
H15B H -0.2374 0.3978 0.1044
H15C H 0.2374 -0.3978 0.1044
H15F H 0.2374 0.3978 -0.1044
H15Q H 0.3978 0.2374 -0.1044
H15T H 0.3978 -0.2374 0.1044
H15U H -0.3978 0.2374 0.1044
H15W H 0.2374 0.3978 0.1044
H15A H -0.3978 -0.2374 0.1044
H15D H -0.3978 0.2374 -0.1044
H15E H 0.3978 -0.2374 -0.1044
H15G H -0.2374 -0.3978 -0.1044
H15P H -0.3978 -0.2374 -0.1044
H15R H 0.2374 -0.3978 -0.1044
H15S H -0.2374 0.3978 -0.1044
H15V H -0.2374 -0.3978 0.1044
H16B H -0.2033 0.4261 0.0817
H16C H 0.2033 -0.4261 0.0817
H16F H 0.2033 0.4261 -0.0817
H16Q H 0.4261 0.2033 -0.0817
H16T H 0.4261 -0.2033 0.0817
H16U H -0.4261 0.2033 0.0817
H16W H 0.2033 0.4261 0.0817
H16A H -0.4261 -0.2033 0.0817
H16D H -0.4261 0.2033 -0.0817
H16E H 0.4261 -0.2033 -0.0817
H16G H -0.2033 -0.4261 -0.0817
H16P H -0.4261 -0.2033 -0.0817
H16R H 0.2033 -0.4261 -0.0817
H16S H -0.2033 0.4261 -0.0817
H16V H -0.2033 -0.4261 0.0817
C20B C -0.1881(4) 0.3953(3) 0.15902(16)
C20C C 0.1881(4) -0.3953(3) 0.15902(16)
C20F C 0.1881(4) 0.3953(3) -0.15902(16)
C20Q C 0.3953(3) 0.1881(4) -0.15902(16)
C20T C 0.3953(3) -0.1881(4) 0.15902(16)
C20U C -0.3953(3) 0.1881(4) 0.15902(16)
C20W C 0.1881(4) 0.3953(3) 0.15902(16)
C20A C -0.3953(3) -0.1881(4) 0.15902(16)
C20D C -0.3953(3) 0.1881(4) -0.15902(16)
C20E C 0.3953(3) -0.1881(4) -0.15902(16)
C20G C -0.1881(4) -0.3953(3) -0.15902(16)
C20P C -0.3953(3) -0.1881(4) -0.15902(16)
C20R C 0.1881(4) -0.3953(3) -0.15902(16)
C20S C -0.1881(4) 0.3953(3) -0.15902(16)
C20V C -0.1881(4) -0.3953(3) 0.15902(16)
H17B H -0.1998 0.4239 0.1681
H17C H 0.1998 -0.4239 0.1681
H17F H 0.1998 0.4239 -0.1681
H17Q H 0.4239 0.1998 -0.1681
H17T H 0.4239 -0.1998 0.1681
H17U H -0.4239 0.1998 0.1681
H17W H 0.1998 0.4239 0.1681
H17A H -0.4239 -0.1998 0.1681
H17D H -0.4239 0.1998 -0.1681
H17E H 0.4239 -0.1998 -0.1681
H17G H -0.1998 -0.4239 -0.1681
H17P H -0.4239 -0.1998 -0.1681
H17R H 0.1998 -0.4239 -0.1681
H17S H -0.1998 0.4239 -0.1681
H17V H -0.1998 -0.4239 0.1681
H18B H -0.1623 0.3846 0.1721
H18C H 0.1623 -0.3846 0.1721
H18F H 0.1623 0.3846 -0.1721
H18Q H 0.3846 0.1623 -0.1721
H18T H 0.3846 -0.1623 0.1721
H18U H -0.3846 0.1623 0.1721
H18W H 0.1623 0.3846 0.1721
H18A H -0.3846 -0.1623 0.1721
H18D H -0.3846 0.1623 -0.1721
H18E H 0.3846 -0.1623 -0.1721
H18G H -0.1623 -0.3846 -0.1721
H18P H -0.3846 -0.1623 -0.1721
H18R H 0.1623 -0.3846 -0.1721
H18S H -0.1623 0.3846 -0.1721
H18V H -0.1623 -0.3846 0.1721
H19B H -0.2123 0.3722 0.1593
H19C H 0.2123 -0.3722 0.1593
H19F H 0.2123 0.3722 -0.1593
H19Q H 0.3722 0.2123 -0.1593
H19T H 0.3722 -0.2123 0.1593
H19U H -0.3722 0.2123 0.1593
H19W H 0.2123 0.3722 0.1593
H19A H -0.3722 -0.2123 0.1593
H19D H -0.3722 0.2123 -0.1593
H19E H 0.3722 -0.2123 -0.1593
H19G H -0.2123 -0.3722 -0.1593
H19P H -0.3722 -0.2123 -0.1593
H19R H 0.2123 -0.3722 -0.1593
H19S H -0.2123 0.3722 -0.1593
H19V H -0.2123 -0.3722 0.1593
C21? C 0.1492(3) 0.1492(3) 0.31151(19)
C22? C 0.1626(2) 0.22265(17) 0.2826(3)
C23? C 0.4252(4) 0.1365(4) 0.1461(4)
C24? C 0.4371(3) 0.1846(6) 0.09700(19)
C25? C 0.3936(3) 0.2154(4) 0.1441(4)
H20? H 0.1629 0.1629 0.3303
H21? H 0.1169 0.1567 0.3117
H22? H 0.1766 0.2354 0.3022
H23? H 0.1297 0.2286 0.2829
H24? H 0.1762 0.2370 0.2634
H25? H 0.4043 0.1291 0.1639
H26? H 0.4538 0.1486 0.1550
H27? H 0.4316 0.1088 0.1335
H28? H 0.4441 0.1573 0.0843
H29? H 0.4652 0.1966 0.1066
H30? H 0.4235 0.2078 0.0828
H31? H 0.3800 0.2388 0.1302
H32? H 0.4222 0.2268 0.1533
H33? H 0.3724 0.2079 0.1617
loop_
_geom_bond_atom_site_label_1
_geom_bond_atom_site_label_2
_geom_bond_site_symmetry_1
_geom_bond_site_symmetry_2
Cu1 Cu2 1_555 1_555
Cu2 O2 1_555 1_555
Cu3 Cu4 1_555 1_555
Cu4 O4 1_555 1_555
O1 Cu1 1_555 1_555
O2 C1 1_555 1_555
O3 Cu3 1_555 1_555
O4 C7 1_555 1_555
O5 Cu1 1_555 1_555
O6 Cu2 1_555 1_555
O7 Cu1 1_555 1_555
O8 Cu3 1_555 1_555
O9 Cu2 1_555 1_555
O10 Cu4 1_555 1_555
C1 O1 1_555 1_555
C2 C1 1_555 1_555
C3 C2 1_555 1_555
H1 C3 1_555 1_555
C4 C3 1_555 1_555
C5 C4 1_555 1_555
H2 C5 1_555 1_555
C6 C5 1_555 1_555
C7 O3 1_555 1_555
C8 C2 1_555 1_555
H3 C8 1_555 1_555
C9 O5 1_555 1_555
C10 C9 1_555 1_555
C11 C10 1_555 1_555
H4 C11 1_555 1_555
C12 C10 1_555 1_555
H5 C12 1_555 1_555
C13 C12 1_555 1_555
C14 C13 1_555 1_555
C15 C14 1_555 1_555
H6 C15 1_555 1_555
H7 C15 1_555 1_555
C16 C14 1_555 1_555
H8 C16 1_555 1_555
H9 C16 1_555 1_555
H10 C16 1_555 1_555
C17 C4 1_555 1_555
C18 C17 1_555 1_555
H11 C18 1_555 1_555
H12 C18 1_555 1_555
H13 C18 1_555 1_555
C19 C17 1_555 1_555
H14 C19 1_555 1_555
H15 C19 1_555 1_555
H16 C19 1_555 1_555
C20 C17 1_555 1_555
H17 C20 1_555 1_555
H18 C20 1_555 1_555
H19 C20 1_555 1_555
Cu1B Cu2B 1_555 1_555
Cu1C Cu2C 1_555 1_555
Cu1F Cu2F 1_555 1_555
Cu1E Cu2E 1_555 1_555
Cu1A Cu2A 1_555 1_555
Cu1D Cu2D 1_555 1_555
Cu1G Cu2G 1_555 1_555
Cu2B O2B 1_555 1_555
Cu2C O2C 1_555 1_555
Cu2F O2F 1_555 1_555
Cu2E O2Q 1_555 1_555
Cu2A O2U 1_555 1_555
Cu2D O2D 1_555 1_555
Cu2G O2G 1_555 1_555
Cu3B Cu4B 1_555 1_555
Cu3C Cu4C 1_555 1_555
Cu3A Cu4A 1_555 1_555
Cu4B O4B 1_555 1_555
Cu4C O4C 1_555 1_555
Cu4A O4A 1_555 1_555
O1B Cu1B 1_555 1_555
O1C Cu1C 1_555 1_555
O1F Cu1F 1_555 1_555
O1Q Cu1E 1_555 1_555
O1T Cu1 1_555 1_555
O1U Cu1A 1_555 1_555
O1W Cu1B 1_555 1_555
O1A Cu1A 1_555 1_555
O1D Cu1D 1_555 1_555
O1E Cu1E 1_555 1_555
O1G Cu1G 1_555 1_555
O1P Cu1D 1_555 1_555
O1R Cu1G 1_555 1_555
O1S Cu1F 1_555 1_555
O1V Cu1C 1_555 1_555
O2B C1B 1_555 1_555
O2C C1C 1_555 1_555
O2F C1F 1_555 1_555
O2Q C1Q 1_555 1_555
O2T Cu2 1_555 1_555
O2U C1U 1_555 1_555
O2W Cu2B 1_555 1_555
O2A Cu2A 1_555 1_555
O2D C1D 1_555 1_555
O2E Cu2E 1_555 1_555
O2G C1G 1_555 1_555
O2P Cu2D 1_555 1_555
O2R Cu2G 1_555 1_555
O2S Cu2F 1_555 1_555
O2V Cu2C 1_555 1_555
O3B Cu3B 1_555 1_555
O3C Cu3C 1_555 1_555
O3F Cu3 1_555 1_555
O3Q Cu3 1_555 1_555
O3T Cu3C 1_555 1_555
O3U Cu3B 1_555 1_555
O3W Cu3 1_555 1_555
O3A Cu3A 1_555 1_555
O3D Cu3B 1_555 1_555
O3E Cu3C 1_555 1_555
O3G Cu3A 1_555 1_555
O3P Cu3A 1_555 1_555
O3R Cu3C 1_555 1_555
O3S Cu3B 1_555 1_555
O3V Cu3A 1_555 1_555
O4B C7B 1_555 1_555
O4C C7C 1_555 1_555
O4F Cu4 1_555 1_555
O4Q Cu4 1_555 1_555
O4T Cu4C 1_555 1_555
O4U Cu4B 1_555 1_555
O4W Cu4 1_555 1_555
O4A C7A 1_555 1_555
O4D Cu4B 1_555 1_555
O4E Cu4C 1_555 1_555
O4G Cu4A 1_555 1_555
O4P Cu4A 1_555 1_555
O4R Cu4C 1_555 1_555
O4S Cu4B 1_555 1_555
O4V Cu4A 1_555 1_555
O5W Cu1B 1_555 1_555
O5B Cu1B 1_555 1_555
O5U Cu1A 1_555 1_555
O5C Cu1C 1_555 1_555
O5T Cu1 1_555 1_555
O5F Cu1F 1_555 1_555
O5Q Cu1E 1_555 1_555
O5A Cu1A 1_555 1_555
O5V Cu1C 1_555 1_555
O5D Cu1D 1_555 1_555
O5S Cu1F 1_555 1_555
O5E Cu1E 1_555 1_555
O5R Cu1G 1_555 1_555
O5G Cu1G 1_555 1_555
O5P Cu1D 1_555 1_555
O6W Cu2B 1_555 1_555
O6B Cu2B 1_555 1_555
O6U Cu2A 1_555 1_555
O6C Cu2C 1_555 1_555
O6T Cu2 1_555 1_555
O6F Cu2F 1_555 1_555
O6Q Cu2E 1_555 1_555
O6A Cu2A 1_555 1_555
O6V Cu2C 1_555 1_555
O6D Cu2D 1_555 1_555
O6S Cu2F 1_555 1_555
O6E Cu2E 1_555 1_555
O6R Cu2G 1_555 1_555
O6G Cu2G 1_555 1_555
O6P Cu2D 1_555 1_555
O7B Cu1B 1_555 1_555
O7C Cu1C 1_555 1_555
O7F Cu1F 1_555 1_555
O7E Cu1E 1_555 1_555
O7A Cu1A 1_555 1_555
O7D Cu1D 1_555 1_555
O7G Cu1G 1_555 1_555
O8B Cu3B 1_555 1_555
O8C Cu3C 1_555 1_555
O8A Cu3A 1_555 1_555
O9B Cu2B 1_555 1_555
O9C Cu2C 1_555 1_555
O9F Cu2F 1_555 1_555
O9E Cu2E 1_555 1_555
O9A Cu2A 1_555 1_555
O9D Cu2D 1_555 1_555
O9G Cu2G 1_555 1_555
O10B Cu4B 1_555 1_555
O10C Cu4C 1_555 1_555
O10A Cu4A 1_555 1_555
C1B O1B 1_555 1_555
C1C O1C 1_555 1_555
C1F O1F 1_555 1_555
C1Q O1Q 1_555 1_555
C1T O1T 1_555 1_555
C1U O1U 1_555 1_555
C1W O1W 1_555 1_555
C1A O1A 1_555 1_555
C1D O1D 1_555 1_555
C1E O1E 1_555 1_555
C1G O1G 1_555 1_555
C1P O1P 1_555 1_555
C1R O1R 1_555 1_555
C1S O1S 1_555 1_555
C1V O1V 1_555 1_555
C2B C1B 1_555 1_555
C2C C1C 1_555 1_555
C2F C1F 1_555 1_555
C2Q C1Q 1_555 1_555
C2T C1T 1_555 1_555
C2U C1U 1_555 1_555
C2W C1W 1_555 1_555
C2A C1A 1_555 1_555
C2D C1D 1_555 1_555
C2E C1E 1_555 1_555
C2G C1G 1_555 1_555
C2P C1P 1_555 1_555
C2R C1R 1_555 1_555
C2S C1S 1_555 1_555
C2V C1V 1_555 1_555
C3B C2B 1_555 1_555
C3C C2C 1_555 1_555
C3F C2F 1_555 1_555
C3Q C2Q 1_555 1_555
C3T C2T 1_555 1_555
C3U C2U 1_555 1_555
C3W C2W 1_555 1_555
C3A C2A 1_555 1_555
C3D C2D 1_555 1_555
C3E C2E 1_555 1_555
C3G C2G 1_555 1_555
C3P C2P 1_555 1_555
C3R C2R 1_555 1_555
C3S C2S 1_555 1_555
C3V C2V 1_555 1_555
H1B C3B 1_555 1_555
H1C C3C 1_555 1_555
H1F C3F 1_555 1_555
H1Q C3Q 1_555 1_555
H1T C3T 1_555 1_555
H1U C3U 1_555 1_555
H1W C3W 1_555 1_555
H1A C3A 1_555 1_555
H1D C3D 1_555 1_555
H1E C3E 1_555 1_555
H1G C3G 1_555 1_555
H1P C3P 1_555 1_555
H1R C3R 1_555 1_555
H1S C3S 1_555 1_555
H1V C3V 1_555 1_555
C4B C3B 1_555 1_555
C4C C3C 1_555 1_555
C4F C3F 1_555 1_555
C4Q C3Q 1_555 1_555
C4T C3T 1_555 1_555
C4U C3U 1_555 1_555
C4W C3W 1_555 1_555
C4A C3A 1_555 1_555
C4D C3D 1_555 1_555
C4E C3E 1_555 1_555
C4G C3G 1_555 1_555
C4P C3P 1_555 1_555
C4R C3R 1_555 1_555
C4S C3S 1_555 1_555
C4V C3V 1_555 1_555
C5B C4B 1_555 1_555
C5C C4C 1_555 1_555
C5F C4F 1_555 1_555
C5Q C4Q 1_555 1_555
C5T C4T 1_555 1_555
C5U C4U 1_555 1_555
C5W C4W 1_555 1_555
C5A C4A 1_555 1_555
C5D C4D 1_555 1_555
C5E C4E 1_555 1_555
C5G C4G 1_555 1_555
C5P C4P 1_555 1_555
C5R C4R 1_555 1_555
C5S C4S 1_555 1_555
C5V C4V 1_555 1_555
H2B C5B 1_555 1_555
H2C C5C 1_555 1_555
H2F C5F 1_555 1_555
H2Q C5Q 1_555 1_555
H2T C5T 1_555 1_555
H2U C5U 1_555 1_555
H2W C5W 1_555 1_555
H2A C5A 1_555 1_555
H2D C5D 1_555 1_555
H2E C5E 1_555 1_555
H2G C5G 1_555 1_555
H2P C5P 1_555 1_555
H2R C5R 1_555 1_555
H2S C5S 1_555 1_555
H2V C5V 1_555 1_555
C6B C5B 1_555 1_555
C6C C5C 1_555 1_555
C6F C5F 1_555 1_555
C6Q C5Q 1_555 1_555
C6T C5T 1_555 1_555
C6U C5U 1_555 1_555
C6W C5W 1_555 1_555
C6A C5A 1_555 1_555
C6D C5D 1_555 1_555
C6E C5E 1_555 1_555
C6G C5G 1_555 1_555
C6P C5P 1_555 1_555
C6R C5R 1_555 1_555
C6S C5S 1_555 1_555
C6V C5V 1_555 1_555
C7B O3B 1_555 1_555
C7C O3C 1_555 1_555
C7F O3F 1_555 1_555
C7Q O3Q 1_555 1_555
C7T O3T 1_555 1_555
C7U O3U 1_555 1_555
C7W O3W 1_555 1_555
C7A O3A 1_555 1_555
C7D O3D 1_555 1_555
C7E O3E 1_555 1_555
C7G O3G 1_555 1_555
C7P O3P 1_555 1_555
C7R O3R 1_555 1_555
C7S O3S 1_555 1_555
C7V O3V 1_555 1_555
C8B C2B 1_555 1_555
C8C C2C 1_555 1_555
C8F C2F 1_555 1_555
C8Q C2Q 1_555 1_555
C8T C2T 1_555 1_555
C8U C2U 1_555 1_555
C8W C2W 1_555 1_555
C8A C2A 1_555 1_555
C8D C2D 1_555 1_555
C8E C2E 1_555 1_555
C8G C2G 1_555 1_555
C8P C2P 1_555 1_555
C8R C2R 1_555 1_555
C8S C2S 1_555 1_555
C8V C2V 1_555 1_555
H3B C8B 1_555 1_555
H3C C8C 1_555 1_555
H3F C8F 1_555 1_555
H3Q C8Q 1_555 1_555
H3T C8T 1_555 1_555
H3U C8U 1_555 1_555
H3W C8W 1_555 1_555
H3A C8A 1_555 1_555
H3D C8D 1_555 1_555
H3E C8E 1_555 1_555
H3G C8G 1_555 1_555
H3P C8P 1_555 1_555
H3R C8R 1_555 1_555
H3S C8S 1_555 1_555
H3V C8V 1_555 1_555
C9W O5W 1_555 1_555
C9B O5B 1_555 1_555
C9U O5U 1_555 1_555
C9C O5C 1_555 1_555
C9T O5T 1_555 1_555
C9F O5F 1_555 1_555
C9Q O5Q 1_555 1_555
C9A O5A 1_555 1_555
C9V O5V 1_555 1_555
C9D O5D 1_555 1_555
C9S O5S 1_555 1_555
C9E O5E 1_555 1_555
C9R O5R 1_555 1_555
C9G O5G 1_555 1_555
C9P O5P 1_555 1_555
C10W C11 1_555 1_555
C10B C9B 1_555 1_555
C10U C9U 1_555 1_555
C10C C9C 1_555 1_555
C10T C9T 1_555 1_555
C10F C9F 1_555 1_555
C10Q C9Q 1_555 1_555
C10A C9A 1_555 1_555
C10V C9V 1_555 1_555
C10D C9D 1_555 1_555
C10S C9S 1_555 1_555
C10E C9E 1_555 1_555
C10R C9R 1_555 1_555
C10G C9G 1_555 1_555
C10P C9P 1_555 1_555
C11B C10B 1_555 1_555
C11C C10C 1_555 1_555
C11F C10F 1_555 1_555
C11A C10A 1_555 1_555
C11D C10D 1_555 1_555
C11E C10E 1_555 1_555
C11G C10G 1_555 1_555
H4B C11B 1_555 1_555
H4C C11C 1_555 1_555
H4F C11F 1_555 1_555
H4A C11A 1_555 1_555
H4D C11D 1_555 1_555
H4E C11E 1_555 1_555
H4G C11G 1_555 1_555
C12W C13 1_555 1_555
C12B C10B 1_555 1_555
C12U C10U 1_555 1_555
C12C C10C 1_555 1_555
C12T C10T 1_555 1_555
C12F C10F 1_555 1_555
C12Q C10Q 1_555 1_555
C12A C10A 1_555 1_555
C12V C10V 1_555 1_555
C12D C10D 1_555 1_555
C12S C10S 1_555 1_555
C12E C10E 1_555 1_555
C12R C10R 1_555 1_555
C12G C10G 1_555 1_555
C12P C10P 1_555 1_555
H5W C12W 1_555 1_555
H5B C12B 1_555 1_555
H5U C12U 1_555 1_555
H5C C12C 1_555 1_555
H5T C12T 1_555 1_555
H5F C12F 1_555 1_555
H5Q C12Q 1_555 1_555
H5A C12A 1_555 1_555
H5V C12V 1_555 1_555
H5D C12D 1_555 1_555
H5S C12S 1_555 1_555
H5E C12E 1_555 1_555
H5R C12R 1_555 1_555
H5G C12G 1_555 1_555
H5P C12P 1_555 1_555
C13B C12B 1_555 1_555
C13C C12C 1_555 1_555
C13F C12F 1_555 1_555
C13A C12A 1_555 1_555
C13D C12D 1_555 1_555
C13E C12E 1_555 1_555
C13G C12G 1_555 1_555
C14B C13B 1_555 1_555
C14C C13C 1_555 1_555
C14F C13F 1_555 1_555
C14A C13A 1_555 1_555
C14D C13D 1_555 1_555
C14E C13E 1_555 1_555
C14G C13G 1_555 1_555
C15B C14B 1_555 1_555
C15C C14C 1_555 1_555
C15F C14F 1_555 1_555
C15A C14A 1_555 1_555
C15D C14D 1_555 1_555
C15E C14E 1_555 1_555
C15G C14G 1_555 1_555
H6B C15B 1_555 1_555
H6C C15C 1_555 1_555
H6F C15F 1_555 1_555
H6A C15A 1_555 1_555
H6D C15D 1_555 1_555
H6E C15E 1_555 1_555
H6G C15G 1_555 1_555
H7W C15 1_555 1_555
H7B C15B 1_555 1_555
H7U C15B 1_555 1_555
H7C C15C 1_555 1_555
H7T C15C 1_555 1_555
H7F C15F 1_555 1_555
H7Q C15F 1_555 1_555
H7A C15A 1_555 1_555
H7V C15A 1_555 1_555
H7D C15D 1_555 1_555
H7S C15D 1_555 1_555
H7E C15E 1_555 1_555
H7R C15E 1_555 1_555
H7G C15G 1_555 1_555
H7P C15G 1_555 1_555
C16W C14 1_555 1_555
C16B C14B 1_555 1_555
C16U C14B 1_555 1_555
C16C C14C 1_555 1_555
C16T C14C 1_555 1_555
C16F C14F 1_555 1_555
C16Q C14F 1_555 1_555
C16A C14A 1_555 1_555
C16V C14A 1_555 1_555
C16D C14D 1_555 1_555
C16S C14D 1_555 1_555
C16E C14E 1_555 1_555
C16R C14E 1_555 1_555
C16G C14G 1_555 1_555
C16P C14G 1_555 1_555
H8W C16W 1_555 1_555
H8B C16B 1_555 1_555
H8U C16U 1_555 1_555
H8C C16C 1_555 1_555
H8T C16T 1_555 1_555
H8F C16F 1_555 1_555
H8Q C16Q 1_555 1_555
H8A C16A 1_555 1_555
H8V C16V 1_555 1_555
H8D C16D 1_555 1_555
H8S C16S 1_555 1_555
H8E C16E 1_555 1_555
H8R C16R 1_555 1_555
H8G C16G 1_555 1_555
H8P C16P 1_555 1_555
H9W C16W 1_555 1_555
H9B C16B 1_555 1_555
H9U C16U 1_555 1_555
H9C C16C 1_555 1_555
H9T C16T 1_555 1_555
H9F C16F 1_555 1_555
H9Q C16Q 1_555 1_555
H9A C16A 1_555 1_555
H9V C16V 1_555 1_555
H9D C16D 1_555 1_555
H9S C16S 1_555 1_555
H9E C16E 1_555 1_555
H9R C16R 1_555 1_555
H9G C16G 1_555 1_555
H9P C16P 1_555 1_555
H10W C16W 1_555 1_555
H10B C16B 1_555 1_555
H10U C16U 1_555 1_555
H10C C16C 1_555 1_555
H10T C16T 1_555 1_555
H10F C16F 1_555 1_555
H10Q C16Q 1_555 1_555
H10A C16A 1_555 1_555
H10V C16V 1_555 1_555
H10D C16D 1_555 1_555
H10S C16S 1_555 1_555
H10E C16E 1_555 1_555
H10R C16R 1_555 1_555
H10G C16G 1_555 1_555
H10P C16P 1_555 1_555
C17B C4B 1_555 1_555
C17C C4C 1_555 1_555
C17F C4F 1_555 1_555
C17Q C4Q 1_555 1_555
C17T C4T 1_555 1_555
C17U C4U 1_555 1_555
C17W C4W 1_555 1_555
C17A C4A 1_555 1_555
C17D C4D 1_555 1_555
C17E C4E 1_555 1_555
C17G C4G 1_555 1_555
C17P C4P 1_555 1_555
C17R C4R 1_555 1_555
C17S C4S 1_555 1_555
C17V C4V 1_555 1_555
C18B C17B 1_555 1_555
C18C C17C 1_555 1_555
C18F C17F 1_555 1_555
C18Q C17Q 1_555 1_555
C18T C17T 1_555 1_555
C18U C17U 1_555 1_555
C18W C17W 1_555 1_555
C18A C17A 1_555 1_555
C18D C17D 1_555 1_555
C18E C17E 1_555 1_555
C18G C17G 1_555 1_555
C18P C17P 1_555 1_555
C18R C17R 1_555 1_555
C18S C17S 1_555 1_555
C18V C17V 1_555 1_555
H11B C18B 1_555 1_555
H11C C18C 1_555 1_555
H11F C18F 1_555 1_555
H11Q C18Q 1_555 1_555
H11T C18T 1_555 1_555
H11U C18U 1_555 1_555
H11W C18W 1_555 1_555
H11A C18A 1_555 1_555
H11D C18D 1_555 1_555
H11E C18E 1_555 1_555
H11G C18G 1_555 1_555
H11P C18P 1_555 1_555
H11R C18R 1_555 1_555
H11S C18S 1_555 1_555
H11V C18V 1_555 1_555
H12B C18B 1_555 1_555
H12C C18C 1_555 1_555
H12F C18F 1_555 1_555
H12Q C18Q 1_555 1_555
H12T C18T 1_555 1_555
H12U C18U 1_555 1_555
H12W C18W 1_555 1_555
H12A C18A 1_555 1_555
H12D C18D 1_555 1_555
H12E C18E 1_555 1_555
H12G C18G 1_555 1_555
H12P C18P 1_555 1_555
H12R C18R 1_555 1_555
H12S C18S 1_555 1_555
H12V C18V 1_555 1_555
H13B C18B 1_555 1_555
H13C C18C 1_555 1_555
H13F C18F 1_555 1_555
H13Q C18Q 1_555 1_555
H13T C18T 1_555 1_555
H13U C18U 1_555 1_555
H13W C18W 1_555 1_555
H13A C18A 1_555 1_555
H13D C18D 1_555 1_555
H13E C18E 1_555 1_555
H13G C18G 1_555 1_555
H13P C18P 1_555 1_555
H13R C18R 1_555 1_555
H13S C18S 1_555 1_555
H13V C18V 1_555 1_555
C19B C17B 1_555 1_555
C19C C17C 1_555 1_555
C19F C17F 1_555 1_555
C19Q C17Q 1_555 1_555
C19T C17T 1_555 1_555
C19U C17U 1_555 1_555
C19W C17W 1_555 1_555
C19A C17A 1_555 1_555
C19D C17D 1_555 1_555
C19E C17E 1_555 1_555
C19G C17G 1_555 1_555
C19P C17P 1_555 1_555
C19R C17R 1_555 1_555
C19S C17S 1_555 1_555
C19V C17V 1_555 1_555
H14B C19B 1_555 1_555
H14C C19C 1_555 1_555
H14F C19F 1_555 1_555
H14Q C19Q 1_555 1_555
H14T C19T 1_555 1_555
H14U C19U 1_555 1_555
H14W C19W 1_555 1_555
H14A C19A 1_555 1_555
H14D C19D 1_555 1_555
H14E C19E 1_555 1_555
H14G C19G 1_555 1_555
H14P C19P 1_555 1_555
H14R C19R 1_555 1_555
H14S C19S 1_555 1_555
H14V C19V 1_555 1_555
H15B C19B 1_555 1_555
H15C C19C 1_555 1_555
H15F C19F 1_555 1_555
H15Q C19Q 1_555 1_555
H15T C19T 1_555 1_555
H15U C19U 1_555 1_555
H15W C19W 1_555 1_555
H15A C19A 1_555 1_555
H15D C19D 1_555 1_555
H15E C19E 1_555 1_555
H15G C19G 1_555 1_555
H15P C19P 1_555 1_555
H15R C19R 1_555 1_555
H15S C19S 1_555 1_555
H15V C19V 1_555 1_555
H16B C19B 1_555 1_555
H16C C19C 1_555 1_555
H16F C19F 1_555 1_555
H16Q C19Q 1_555 1_555
H16T C19T 1_555 1_555
H16U C19U 1_555 1_555
H16W C19W 1_555 1_555
H16A C19A 1_555 1_555
H16D C19D 1_555 1_555
H16E C19E 1_555 1_555
H16G C19G 1_555 1_555
H16P C19P 1_555 1_555
H16R C19R 1_555 1_555
H16S C19S 1_555 1_555
H16V C19V 1_555 1_555
C20B C17B 1_555 1_555
C20C C17C 1_555 1_555
C20F C17F 1_555 1_555
C20Q C17Q 1_555 1_555
C20T C17T 1_555 1_555
C20U C17U 1_555 1_555
C20W C17W 1_555 1_555
C20A C17A 1_555 1_555
C20D C17D 1_555 1_555
C20E C17E 1_555 1_555
C20G C17G 1_555 1_555
C20P C17P 1_555 1_555
C20R C17R 1_555 1_555
C20S C17S 1_555 1_555
C20V C17V 1_555 1_555
H17B C20B 1_555 1_555
H17C C20C 1_555 1_555
H17F C20F 1_555 1_555
H17Q C20Q 1_555 1_555
H17T C20T 1_555 1_555
H17U C20U 1_555 1_555
H17W C20W 1_555 1_555
H17A C20A 1_555 1_555
H17D C20D 1_555 1_555
H17E C20E 1_555 1_555
H17G C20G 1_555 1_555
H17P C20P 1_555 1_555
H17R C20R 1_555 1_555
H17S C20S 1_555 1_555
H17V C20V 1_555 1_555
H18B C20B 1_555 1_555
H18C C20C 1_555 1_555
H18F C20F 1_555 1_555
H18Q C20Q 1_555 1_555
H18T C20T 1_555 1_555
H18U C20U 1_555 1_555
H18W C20W 1_555 1_555
H18A C20A 1_555 1_555
H18D C20D 1_555 1_555
H18E C20E 1_555 1_555
H18G C20G 1_555 1_555
H18P C20P 1_555 1_555
H18R C20R 1_555 1_555
H18S C20S 1_555 1_555
H18V C20V 1_555 1_555
H19B C20B 1_555 1_555
H19C C20C 1_555 1_555
H19F C20F 1_555 1_555
H19Q C20Q 1_555 1_555
H19T C20T 1_555 1_555
H19U C20U 1_555 1_555
H19W C20W 1_555 1_555
H19A C20A 1_555 1_555
H19D C20D 1_555 1_555
H19E C20E 1_555 1_555
H19G C20G 1_555 1_555
H19P C20P 1_555 1_555
H19R C20R 1_555 1_555
H19S C20S 1_555 1_555
H19V C20V 1_555 1_555
O6 C9 1_555 1_555
C6 C7 1_555 1_555
C6 C8 1_555 1_555
O2T C1T 1_555 1_555
O2W C1W 1_555 1_555
O2A C1A 1_555 1_555
O2E C1E 1_555 1_555
O2P C1P 1_555 1_555
O2R C1R 1_555 1_555
O2S C1S 1_555 1_555
O2V C1V 1_555 1_555
O4F C7F 1_555 1_555
O4Q C7Q 1_555 1_555
O4T C7T 1_555 1_555
O4U C7U 1_555 1_555
O4W C7W 1_555 1_555
O4D C7D 1_555 1_555
O4E C7E 1_555 1_555
O4G C7G 1_555 1_555
O4P C7P 1_555 1_555
O4R C7R 1_555 1_555
O4S C7S 1_555 1_555
O4V C7V 1_555 1_555
O6W C9W 1_555 1_555
O6B C9B 1_555 1_555
O6U C9U 1_555 1_555
O6C C9C 1_555 1_555
O6T C9T 1_555 1_555
O6F C9F 1_555 1_555
O6Q C9Q 1_555 1_555
O6A C9A 1_555 1_555
O6V C9V 1_555 1_555
O6D C9D 1_555 1_555
O6S C9S 1_555 1_555
O6E C9E 1_555 1_555
O6R C9R 1_555 1_555
O6G C9G 1_555 1_555
O6P C9P 1_555 1_555
C6B C7B 1_555 1_555
C6B C8B 1_555 1_555
C6C C7C 1_555 1_555
C6C C8C 1_555 1_555
C6F C7F 1_555 1_555
C6F C8F 1_555 1_555
C6Q C7Q 1_555 1_555
C6Q C8Q 1_555 1_555
C6T C7T 1_555 1_555
C6T C8T 1_555 1_555
C6U C7U 1_555 1_555
C6U C8U 1_555 1_555
C6W C7W 1_555 1_555
C6W C8W 1_555 1_555
C6A C7A 1_555 1_555
C6A C8A 1_555 1_555
C6D C7D 1_555 1_555
C6D C8D 1_555 1_555
C6E C7E 1_555 1_555
C6E C8E 1_555 1_555
C6G C7G 1_555 1_555
C6G C8G 1_555 1_555
C6P C7P 1_555 1_555
C6P C8P 1_555 1_555
C6R C7R 1_555 1_555
C6R C8R 1_555 1_555
C6S C7S 1_555 1_555
C6S C8S 1_555 1_555
C6V C7V 1_555 1_555
C6V C8V 1_555 1_555
C9W C10W 1_555 1_555
C10W C12W 1_555 1_555
C10U C11B 1_555 1_555
C10T C11C 1_555 1_555
C10Q C11F 1_555 1_555
C10V C11A 1_555 1_555
C10S C11D 1_555 1_555
C10R C11E 1_555 1_555
C10P C11G 1_555 1_555
C12U C13B 1_555 1_555
C12T C13C 1_555 1_555
C12Q C13F 1_555 1_555
C12V C13A 1_555 1_555
C12S C13D 1_555 1_555
C12R C13E 1_555 1_555
C12P C13G 1_555 1_555

#END
