
#######################################################################
#
#                 Cambridge Crystallographic Data Centre
#                                CCDC 
#
#######################################################################
#
# If this CIF has been generated from an entry in the Cambridge 
# Structural Database, then it will include bibliographic, chemical, 
# crystal, experimental, refinement or atomic coordinate data resulting 
# from the CCDC's data processing and validation procedures.
#
#######################################################################

data_XAJCUI
_chemical_formula_moiety         'C252 H144 Cu24 O120'
_chemical_name_systematic        
'dodecakis(\m~4~-2,7-naphthalenedicarboxylato)-dodecakis(\m~4~-5-t-butyl-1,3-benzenedicarboxylato)-tetracosakis(unknown)-tetracosa-copper unknown solvate'
_symmetry_cell_setting           orthorhombic
_symmetry_space_group_name_H-M   'F d d d'
_symmetry_Int_Tables_number      70
_space_group_name_Hall           '-F 2uv 2vw'
loop_
_symmetry_equiv_pos_site_id
_symmetry_equiv_pos_as_xyz
1 x,y,z
2 3/4-x,3/4-y,z
3 3/4-x,y,3/4-z
4 x,3/4-y,3/4-z
5 x,1/2+y,1/2+z
6 3/4-x,1/4-y,1/2+z
7 3/4-x,1/2+y,1/4-z
8 x,1/4-y,1/4-z
9 1/2+x,y,1/2+z
10 1/4-x,3/4-y,1/2+z
11 1/4-x,y,1/4-z
12 1/2+x,3/4-y,1/4-z
13 1/2+x,1/2+y,z
14 1/4-x,1/4-y,z
15 1/4-x,1/2+y,3/4-z
16 1/2+x,1/4-y,3/4-z
17 -x,-y,-z
18 1/4+x,1/4+y,-z
19 1/4+x,-y,1/4+z
20 -x,1/4+y,1/4+z
21 -x,1/2-y,1/2-z
22 1/4+x,3/4+y,1/2-z
23 1/4+x,1/2-y,3/4+z
24 -x,3/4+y,3/4+z
25 1/2-x,-y,1/2-z
26 3/4+x,1/4+y,1/2-z
27 3/4+x,-y,3/4+z
28 1/2-x,1/4+y,3/4+z
29 1/2-x,1/2-y,-z
30 3/4+x,3/4+y,-z
31 3/4+x,1/2-y,1/4+z
32 1/2-x,3/4+y,1/4+z
_cell_length_a                   28.083(3)
_cell_length_b                   59.645(6)
_cell_length_c                   82.288(8)
_cell_angle_alpha                90
_cell_angle_beta                 90
_cell_angle_gamma                90
_cell_volume                     137833
_exptl_crystal_colour            blue
_exptl_crystal_description       block
_cell_formula_units_Z            8
loop_
_atom_site_label
_atom_site_type_symbol
_atom_site_fract_x
_atom_site_fract_y
_atom_site_fract_z
Cu1 Cu 0.18010(2) 0.860873(12) 0.971816(8)
Cu2 Cu 0.11570(2) 0.861251(11) 0.948619(8)
Cu3 Cu 0.17310(2) 0.729522(12) 0.884082(9)
Cu4 Cu 0.10854(2) 0.761572(11) 0.883420(8)
Cu5 Cu -0.09285(2) 0.737925(12) 0.976064(9)
Cu6 Cu -0.09524(2) 0.766900(12) 0.951855(8)
O1 O 0.20639(13) 0.83571(6) 0.95991(5)
O2 O 0.15413(12) 0.83763(6) 0.93877(4)
O3 O 0.20096(12) 0.74766(6) 0.90100(5)
O4 O 0.14792(13) 0.77644(6) 0.89942(4)
O5 O 0.12994(12) 0.71637(5) 0.89999(5)
O6 O 0.07812(12) 0.74547(6) 0.90092(5)
O7 O -0.04268(12) 0.72424(6) 0.96323(5)
O8 O -0.04677(11) 0.74777(6) 0.94172(4)
O9 O -0.04936(12) 0.75932(6) 0.98529(4)
O10 O -0.04444(11) 0.78293(6) 0.96343(4)
O11 O 0.13659(15) 0.84122(7) 0.98243(5)
O12 O 0.08361(11) 0.83888(6) 0.96136(4)
O13 O 0.21576(12) 0.88173(6) 0.95827(5)
O14 O 0.15753(13) 0.88391(6) 0.93951(4)
O15 O 0.20671(13) 1.00258(7) 0.88239(5)
O16 O 0.14855(13) 0.97627(6) 0.88379(4)
O17 O 0.14292(12) 0.88574(6) 0.98072(4)
O18 O 0.08537(11) 0.88419(6) 0.96205(4)
O19 O -0.10447(12) 0.99486(6) 0.98495(4)
O20 O -0.10638(12) 0.96815(6) 0.96548(4)
O21 O 0.13515(15) 0.71552(6) 0.86669(5)
O22 O 0.07886(12) 0.74163(7) 0.86788(4)
O23 O -0.11137(12) 0.72050(6) 0.78627(4)
O24 O -0.10540(12) 0.74671(6) 0.80607(4)
O25 O 0.23226(13) 0.85679(8) 0.99132(5)
O26 O 0.06435(13) 0.86225(7) 0.92922(4)
O27 O 0.22686(13) 0.70316(6) 0.88756(6)
O28 O 0.05469(14) 0.78719(6) 0.88150(5)
O29 O -0.07600(15) 0.71514(8) 0.99665(5)
O30 O -0.10233(15) 0.78982(7) 0.93174(5)
C1 C 0.18723(19) 0.82901(8) 0.94667(7)
C2 C 0.21100(13) 0.80807(5) 0.93932(5)
C3 C 0.25068(13) 0.79834(6) 0.94655(4)
H1 H 0.2652 0.8053 0.9557
C4 C 0.26909(10) 0.77842(6) 0.94042(5)
C5 C 0.24783(13) 0.76825(5) 0.92707(5)
H2 H 0.2604 0.7546 0.9229
C6 C 0.20815(13) 0.77798(6) 0.91985(4)
C7 C 0.18974(9) 0.79789(6) 0.92597(5)
H3 H 0.1626 0.8045 0.9210
C8 C 0.1831(2) 0.76630(9) 0.90583(6)
C9 C 0.31181(10) 0.76752(6) 0.94893(5)
C10 C 0.2981(2) 0.76013(17) 0.96615(6)
H4 H 0.3256 0.7531 0.9714
H5 H 0.2719 0.7493 0.9656
H6 H 0.2879 0.7732 0.9725
C11 C 0.35323(16) 0.78418(11) 0.95009(13)
H7 H 0.3804 0.7769 0.9554
H8 H 0.3433 0.7973 0.9565
H9 H 0.3625 0.7890 0.9392
C12 C 0.3286(3) 0.74690(12) 0.93940(9)
H10 H 0.3560 0.7402 0.9449
H11 H 0.3377 0.7514 0.9284
H12 H 0.3027 0.7359 0.9388
C13 C 0.0949(2) 0.72695(10) 0.90611(7)
C14 C 0.06867(12) 0.71614(5) 0.91993(4)
C15 C 0.08338(11) 0.69553(5) 0.92602(4)
H13 H 0.1085 0.6876 0.9209
C16 C 0.06134(12) 0.68655(4) 0.93967(4)
C17 C 0.02460(12) 0.69817(5) 0.94723(4)
H14 H 0.0095 0.6920 0.9566
C18 C 0.00989(11) 0.71878(5) 0.94114(4)
C19 C 0.03193(12) 0.72776(4) 0.92749(4)
H15 H 0.0219 0.7418 0.9233
C20 C 0.07561(12) 0.66320(4) 0.94579(5)
C21 C 0.12995(13) 0.66111(10) 0.94658(12)
H16 H 0.1385 0.6462 0.9505
H17 H 0.1427 0.6725 0.9540
H18 H 0.1434 0.6634 0.9357
C22 C 0.0553(3) 0.65911(10) 0.96283(7)
H19 H 0.0643 0.6441 0.9665
H20 H 0.0205 0.6603 0.9625
H21 H 0.0681 0.6703 0.9704
C23 C 0.0563(3) 0.64507(5) 0.93434(9)
H22 H 0.0652 0.6302 0.9385
H23 H 0.0699 0.6472 0.9235
H24 H 0.0216 0.6462 0.9337
C24 C -0.0298(2) 0.73155(10) 0.94923(8)
C25 C -0.0315(2) 0.77494(10) 0.97701(8)
C26 C 0.00709(13) 0.78966(7) 0.98620(6)
C27 C 0.01695(16) 0.78576(7) 1.00251(6)
H25 H -0.0011 0.7750 1.0084
C28 C 0.05322(18) 0.79756(9) 1.01019(3)
C29 C 0.07963(13) 0.81327(8) 1.00156(6)
H26 H 0.1044 0.8213 1.0068
C30 C 0.06977(15) 0.81717(6) 0.98525(6)
C31 C 0.03350(17) 0.80537(8) 0.97757(3)
H27 H 0.0268 0.8080 0.9664
C32 C 0.1014(3) 0.83325(9) 0.97547(8)
C33 C 0.06145(14) 0.79378(7) 1.02842(3)
C34 C 0.1075(2) 0.80531(15) 1.03389(7)
H28 H 0.1127 0.8024 1.0455
H29 H 0.1049 0.8215 1.0320
H30 H 0.1344 0.7994 1.0276
C35 C 0.0198(2) 0.80340(16) 1.03826(5)
H31 H 0.0251 0.8005 1.0498
H32 H -0.0099 0.7962 1.0348
H33 H 0.0177 0.8196 1.0364
C36 C 0.0654(3) 0.76864(8) 1.03207(7)
H34 H 0.0706 0.7664 1.0437
H35 H 0.0923 0.7623 1.0260
H36 H 0.0360 0.7611 1.0288
C37 C 0.1957(2) 0.89115(9) 0.94599(7)
C38 C 0.22282(12) 0.90945(5) 0.93784(4)
C39 C 0.26795(12) 0.91619(6) 0.94280(4)
H37 H 0.2845 0.9079 0.9509
C40 C 0.28886(9) 0.93506(6) 0.93592(4)
H38 H 0.3197 0.9397 0.9393
C41 C 0.26468(8) 0.94721(5) 0.92409(3)
C42 C 0.21956(8) 0.94047(4) 0.91914(3)
C43 C 0.19864(10) 0.92160(5) 0.92602(4)
H39 H 0.1678 0.9170 0.9226
C44 C 0.28558(10) 0.96608(6) 0.91722(4)
H40 H 0.3164 0.9707 0.9206
C45 C 0.26140(12) 0.97823(5) 0.90540(4)
H41 H 0.2757 0.9911 0.9007
C46 C 0.21627(12) 0.97148(6) 0.90044(4)
C47 C 0.19537(10) 0.95261(6) 0.90732(4)
H42 H 0.1645 0.9480 0.9039
C48 C 0.1883(2) 0.98525(10) 0.88862(7)
C49 C 0.10635(19) 0.89251(9) 0.97395(6)
C50 C 0.07837(9) 0.91083(4) 0.98314(4)
C51 C 0.09841(8) 0.91975(5) 0.99718(4)
H43 H 0.1268 0.9135 1.0015
C52 C 0.07691(9) 0.93788(5) 1.00486(3)
H44 H 0.0906 0.9440 1.0144
C53 C 0.03539(7) 0.94708(4) 0.99852(3)
C54 C 0.01534(7) 0.93815(4) 0.98449(2)
C55 C 0.03687(9) 0.92003(4) 0.97681(3)
H45 H 0.0232 0.9139 0.9672
C56 C 0.01389(10) 0.96521(5) 1.00620(3)
H46 H 0.0276 0.9713 1.0158
C57 C -0.02760(10) 0.97442(4) 0.99987(4)
H47 H -0.0423 0.9868 1.0051
C58 C -0.04766(9) 0.96549(5) 0.98584(4)
C59 C -0.02619(9) 0.94737(5) 0.97815(3)
H48 H -0.0399 0.9413 0.9686
C60 C -0.09004(19) 0.97768(10) 0.97767(7)
C61 C 0.0986(2) 0.72485(11) 0.86209(8)
C62 C 0.07106(11) 0.71286(7) 0.84791(4)
C63 C 0.08657(11) 0.69245(7) 0.84171(5)
H49 H 0.1130 0.6850 0.8465
C64 C 0.06343(13) 0.68289(5) 0.82848(5)
H50 H 0.0740 0.6689 0.8242
C65 C 0.02478(11) 0.69375(4) 0.82144(4)
C66 C 0.00928(9) 0.71417(4) 0.82764(3)
C67 C 0.03242(11) 0.72372(5) 0.84087(4)
H51 H 0.0218 0.7377 0.8451
C68 C 0.00162(14) 0.68421(5) 0.80820(4)
H52 H 0.0122 0.6703 0.8040
C69 C -0.03700(14) 0.69508(7) 0.80117(4)
H53 H -0.0528 0.6886 0.7921
C70 C -0.05251(11) 0.71550(7) 0.80737(4)
C71 C -0.02936(10) 0.72504(5) 0.82060(4)
H54 H -0.0400 0.7390 0.8248
C72 C -0.0924(2) 0.72938(10) 0.79936(7)
Cu1A Cu -0.43010(2) 0.889127(12) 0.971816(8)
Cu1B Cu -0.43010(2) 0.860873(12) 0.778184(8)
Cu1C Cu 0.18010(2) 0.889127(12) 0.778184(8)
Cu2A Cu -0.36570(2) 0.888749(11) 0.948619(8)
Cu2B Cu -0.36570(2) 0.861251(11) 0.801381(8)
Cu2C Cu 0.11570(2) 0.888749(11) 0.801381(8)
Cu3A Cu -0.42310(2) 1.020478(12) 0.884082(9)
Cu3B Cu -0.42310(2) 0.729522(12) 0.865918(9)
Cu3C Cu 0.17310(2) 1.020478(12) 0.865918(9)
Cu4A Cu -0.35854(2) 0.988428(11) 0.883420(8)
Cu4B Cu -0.35854(2) 0.761572(11) 0.866580(8)
Cu4C Cu 0.10854(2) 0.988428(11) 0.866580(8)
Cu5A Cu -0.15715(2) 1.012075(12) 0.976064(9)
Cu5B Cu -0.15715(2) 0.737925(12) 0.773936(9)
Cu5C Cu -0.09285(2) 1.012075(12) 0.773936(9)
Cu6A Cu -0.15476(2) 0.983100(12) 0.951855(8)
Cu6B Cu -0.15476(2) 0.766900(12) 0.798145(8)
Cu6C Cu -0.09524(2) 0.983100(12) 0.798145(8)
O1A O -0.45639(13) 0.91429(6) 0.95991(5)
O1B O -0.45639(13) 0.83571(6) 0.79009(5)
O1C O 0.20639(13) 0.91429(6) 0.79009(5)
O2A O -0.40413(12) 0.91237(6) 0.93877(4)
O2B O -0.40413(12) 0.83763(6) 0.81123(4)
O2C O 0.15413(12) 0.91237(6) 0.81123(4)
O3A O -0.45096(12) 1.00234(6) 0.90100(5)
O3B O -0.45096(12) 0.74766(6) 0.84900(5)
O3C O 0.20096(12) 1.00234(6) 0.84900(5)
O4A O -0.39792(13) 0.97356(6) 0.89942(4)
O4B O -0.39792(13) 0.77644(6) 0.85058(4)
O4C O 0.14792(13) 0.97356(6) 0.85058(4)
O5A O -0.37994(12) 1.03363(5) 0.89999(5)
O5B O -0.37994(12) 0.71637(5) 0.85001(5)
O5C O 0.12994(12) 1.03363(5) 0.85001(5)
O6A O -0.32812(12) 1.00453(6) 0.90092(5)
O6B O -0.32812(12) 0.74547(6) 0.84908(5)
O6C O 0.07812(12) 1.00453(6) 0.84908(5)
O7A O -0.20732(12) 1.02576(6) 0.96323(5)
O7B O -0.20732(12) 0.72424(6) 0.78677(5)
O7C O -0.04268(12) 1.02576(6) 0.78677(5)
O8A O -0.20323(11) 1.00223(6) 0.94172(4)
O8B O -0.20323(11) 0.74777(6) 0.80828(4)
O8C O -0.04677(11) 1.00223(6) 0.80828(4)
O9A O -0.20064(12) 0.99068(6) 0.98529(4)
O9B O -0.20064(12) 0.75932(6) 0.76471(4)
O9C O -0.04936(12) 0.99068(6) 0.76471(4)
O10A O -0.20556(11) 0.96707(6) 0.96343(4)
O10B O -0.20556(11) 0.78293(6) 0.78657(4)
O10C O -0.04444(11) 0.96707(6) 0.78657(4)
O11A O -0.38659(15) 0.90878(7) 0.98243(5)
O11B O -0.38659(15) 0.84122(7) 0.76757(5)
O11C O 0.13659(15) 0.90878(7) 0.76757(5)
O12A O -0.33361(11) 0.91112(6) 0.96136(4)
O12B O -0.33361(11) 0.83888(6) 0.78864(4)
O12C O 0.08361(11) 0.91112(6) 0.78864(4)
O13A O -0.46576(12) 0.86827(6) 0.95827(5)
O13B O -0.46576(12) 0.88173(6) 0.79173(5)
O13C O 0.21576(12) 0.86827(6) 0.79173(5)
O14A O -0.40753(13) 0.86609(6) 0.93951(4)
O14B O -0.40753(13) 0.88391(6) 0.81049(4)
O14C O 0.15753(13) 0.86609(6) 0.81049(4)
O15A O -0.45671(13) 0.74742(7) 0.88239(5)
O15B O -0.45671(13) 1.00258(7) 0.86761(5)
O15C O 0.20671(13) 0.74742(7) 0.86761(5)
O16A O -0.39855(13) 0.77373(6) 0.88379(4)
O16B O -0.39855(13) 0.97627(6) 0.86621(4)
O16C O 0.14855(13) 0.77373(6) 0.86621(4)
O17A O -0.39292(12) 0.86426(6) 0.98072(4)
O17B O -0.39292(12) 0.88574(6) 0.76928(4)
O17C O 0.14292(12) 0.86426(6) 0.76928(4)
O18A O -0.33537(11) 0.86581(6) 0.96205(4)
O18B O -0.33537(11) 0.88419(6) 0.78795(4)
O18C O 0.08537(11) 0.86581(6) 0.78795(4)
O19A O -0.14553(12) 0.75514(6) 0.98495(4)
O19B O -0.14553(12) 0.99486(6) 0.76505(4)
O19C O -0.10447(12) 0.75514(6) 0.76505(4)
O20A O -0.14362(12) 0.78185(6) 0.96548(4)
O20B O -0.14362(12) 0.96815(6) 0.78452(4)
O20C O -0.10638(12) 0.78185(6) 0.78452(4)
O21A O -0.38515(15) 1.03448(6) 0.86669(5)
O21B O -0.38515(15) 0.71552(6) 0.88331(5)
O21C O 0.13515(15) 1.03448(6) 0.88331(5)
O22A O -0.32886(12) 1.00837(7) 0.86788(4)
O22B O -0.32886(12) 0.74163(7) 0.88212(4)
O22C O 0.07886(12) 1.00837(7) 0.88212(4)
O23A O -0.13863(12) 1.02950(6) 0.78627(4)
O23B O -0.13863(12) 0.72050(6) 0.96373(4)
O23C O -0.11137(12) 1.02950(6) 0.96373(4)
O24A O -0.14460(12) 1.00329(6) 0.80607(4)
O24B O -0.14460(12) 0.74671(6) 0.94393(4)
O24C O -0.10540(12) 1.00329(6) 0.94393(4)
O25A O -0.48226(13) 0.89321(8) 0.99132(5)
O25B O -0.48226(13) 0.85679(8) 0.75868(5)
O25C O 0.23226(13) 0.89321(8) 0.75868(5)
O26A O -0.31435(13) 0.88775(7) 0.92922(4)
O26B O -0.31435(13) 0.86225(7) 0.82078(4)
O26C O 0.06435(13) 0.88775(7) 0.82078(4)
O27A O -0.47686(13) 1.04684(6) 0.88756(6)
O27B O -0.47686(13) 0.70316(6) 0.86244(6)
O27C O 0.22686(13) 1.04684(6) 0.86244(6)
O28A O -0.30469(14) 0.96281(6) 0.88150(5)
O28B O -0.30469(14) 0.78719(6) 0.86850(5)
O28C O 0.05469(14) 0.96281(6) 0.86850(5)
O29A O -0.17400(15) 1.03486(8) 0.99665(5)
O29B O -0.17400(15) 0.71514(8) 0.75335(5)
O29C O -0.07600(15) 1.03486(8) 0.75335(5)
O30A O -0.14767(15) 0.96018(7) 0.93174(5)
O30B O -0.14767(15) 0.78982(7) 0.81826(5)
O30C O -0.10233(15) 0.96018(7) 0.81826(5)
C1A C -0.43723(19) 0.92099(8) 0.94667(7)
C1B C -0.43723(19) 0.82901(8) 0.80333(7)
C1C C 0.18723(19) 0.92099(8) 0.80333(7)
C2A C -0.46100(13) 0.94193(5) 0.93932(5)
C2B C -0.46100(13) 0.80807(5) 0.81068(5)
C2C C 0.21100(13) 0.94193(5) 0.81068(5)
C3A C -0.50068(13) 0.95166(6) 0.94655(4)
C3B C -0.50068(13) 0.79834(6) 0.80345(4)
C3C C 0.25068(13) 0.95166(6) 0.80345(4)
H1A H -0.5152 0.9447 0.9557
H1B H -0.5152 0.8053 0.7943
H1C H 0.2652 0.9447 0.7943
C4A C -0.51909(10) 0.97158(6) 0.94042(5)
C4B C -0.51909(10) 0.77842(6) 0.80958(5)
C4C C 0.26909(10) 0.97158(6) 0.80958(5)
C5A C -0.49783(13) 0.98175(5) 0.92707(5)
C5B C -0.49783(13) 0.76825(5) 0.82293(5)
C5C C 0.24783(13) 0.98175(5) 0.82293(5)
H2A H -0.5104 0.9954 0.9229
H2B H -0.5104 0.7546 0.8271
H2C H 0.2604 0.9954 0.8271
C6A C -0.45815(13) 0.97202(6) 0.91985(4)
C6B C -0.45815(13) 0.77798(6) 0.83015(4)
C6C C 0.20815(13) 0.97202(6) 0.83015(4)
C7A C -0.43974(9) 0.95211(6) 0.92597(5)
C7B C -0.43974(9) 0.79789(6) 0.82403(5)
C7C C 0.18974(9) 0.95211(6) 0.82403(5)
H3A H -0.4126 0.9455 0.9210
H3B H -0.4126 0.8045 0.8290
H3C H 0.1626 0.9455 0.8290
C8A C -0.4331(2) 0.98370(9) 0.90583(6)
C8B C -0.4331(2) 0.76630(9) 0.84417(6)
C8C C 0.1831(2) 0.98370(9) 0.84417(6)
C9A C -0.56181(10) 0.98248(6) 0.94893(5)
C9B C -0.56181(10) 0.76752(6) 0.80107(5)
C9C C 0.31181(10) 0.98248(6) 0.80107(5)
C10A C -0.5481(2) 0.98987(17) 0.96615(6)
C10B C -0.5481(2) 0.76013(17) 0.78385(6)
C10C C 0.2981(2) 0.98987(17) 0.78385(6)
H4A H -0.5756 0.9969 0.9714
H4B H -0.5756 0.7531 0.7786
H4C H 0.3256 0.9969 0.7786
H5A H -0.5219 1.0007 0.9656
H5B H -0.5219 0.7493 0.7844
H5C H 0.2719 1.0007 0.7844
H6A H -0.5379 0.9768 0.9725
H6B H -0.5379 0.7732 0.7775
H6C H 0.2879 0.9768 0.7775
C11A C -0.60323(16) 0.96582(11) 0.95009(13)
C11B C -0.60323(16) 0.78418(11) 0.79991(13)
C11C C 0.35323(16) 0.96582(11) 0.79991(13)
H7A H -0.6304 0.9731 0.9554
H7B H -0.6304 0.7769 0.7946
H7C H 0.3804 0.9731 0.7946
H8A H -0.5933 0.9527 0.9565
H8B H -0.5933 0.7973 0.7935
H8C H 0.3433 0.9527 0.7935
H9A H -0.6125 0.9610 0.9392
H9B H -0.6125 0.7890 0.8108
H9C H 0.3625 0.9610 0.8108
C12A C -0.5786(3) 1.00310(12) 0.93940(9)
C12B C -0.5786(3) 0.74690(12) 0.81060(9)
C12C C 0.3286(3) 1.00310(12) 0.81060(9)
H10A H -0.6060 1.0098 0.9449
H10B H -0.6060 0.7402 0.8051
H10C H 0.3560 1.0098 0.8051
H11A H -0.5877 0.9986 0.9284
H11B H -0.5877 0.7514 0.8216
H11C H 0.3377 0.9986 0.8216
H12A H -0.5527 1.0141 0.9388
H12B H -0.5527 0.7359 0.8112
H12C H 0.3027 1.0141 0.8112
C13A C -0.3449(2) 1.02305(10) 0.90611(7)
C13B C -0.3449(2) 0.72695(10) 0.84389(7)
C13C C 0.0949(2) 1.02305(10) 0.84389(7)
C14A C -0.31867(12) 1.03386(5) 0.91993(4)
C14B C -0.31867(12) 0.71614(5) 0.83007(4)
C14C C 0.06867(12) 1.03386(5) 0.83007(4)
C15A C -0.33338(11) 1.05447(5) 0.92602(4)
C15B C -0.33338(11) 0.69553(5) 0.82398(4)
C15C C 0.08338(11) 1.05447(5) 0.82398(4)
H13A H -0.3585 1.0624 0.9209
H13B H -0.3585 0.6876 0.8291
H13C H 0.1085 1.0624 0.8291
C16A C -0.31134(12) 1.06345(4) 0.93967(4)
C16B C -0.31134(12) 0.68655(4) 0.81033(4)
C16C C 0.06134(12) 1.06345(4) 0.81033(4)
C17A C -0.27460(12) 1.05183(5) 0.94723(4)
C17B C -0.27460(12) 0.69817(5) 0.80277(4)
C17C C 0.02460(12) 1.05183(5) 0.80277(4)
H14A H -0.2595 1.0580 0.9566
H14B H -0.2595 0.6920 0.7934
H14C H 0.0095 1.0580 0.7934
C18A C -0.25989(11) 1.03122(5) 0.94114(4)
C18B C -0.25989(11) 0.71878(5) 0.80886(4)
C18C C 0.00989(11) 1.03122(5) 0.80886(4)
C19A C -0.28193(12) 1.02224(4) 0.92749(4)
C19B C -0.28193(12) 0.72776(4) 0.82251(4)
C19C C 0.03193(12) 1.02224(4) 0.82251(4)
H15A H -0.2719 1.0082 0.9233
H15B H -0.2719 0.7418 0.8267
H15C H 0.0219 1.0082 0.8267
C20A C -0.32561(12) 1.08680(4) 0.94579(5)
C20B C -0.32561(12) 0.66320(4) 0.80421(5)
C20C C 0.07561(12) 1.08680(4) 0.80421(5)
C21A C -0.37995(13) 1.08889(10) 0.94658(12)
C21B C -0.37995(13) 0.66111(10) 0.80342(12)
C21C C 0.12995(13) 1.08889(10) 0.80342(12)
H16A H -0.3885 1.1038 0.9505
H16B H -0.3885 0.6462 0.7995
H16C H 0.1385 1.1038 0.7995
H17A H -0.3927 1.0775 0.9540
H17B H -0.3927 0.6725 0.7960
H17C H 0.1427 1.0775 0.7960
H18A H -0.3934 1.0866 0.9357
H18B H -0.3934 0.6634 0.8143
H18C H 0.1434 1.0866 0.8143
C22A C -0.3053(3) 1.09089(10) 0.96283(7)
C22B C -0.3053(3) 0.65911(10) 0.78717(7)
C22C C 0.0553(3) 1.09089(10) 0.78717(7)
H19A H -0.3143 1.1059 0.9665
H19B H -0.3143 0.6441 0.7835
H19C H 0.0643 1.1059 0.7835
H20A H -0.2705 1.0897 0.9625
H20B H -0.2705 0.6603 0.7875
H20C H 0.0205 1.0897 0.7875
H21A H -0.3181 1.0797 0.9704
H21B H -0.3181 0.6703 0.7796
H21C H 0.0681 1.0797 0.7796
C23A C -0.3063(3) 1.10493(5) 0.93434(9)
C23B C -0.3063(3) 0.64507(5) 0.81566(9)
C23C C 0.0563(3) 1.10493(5) 0.81566(9)
H22A H -0.3152 1.1198 0.9385
H22B H -0.3152 0.6302 0.8115
H22C H 0.0652 1.1198 0.8115
H23A H -0.3199 1.1028 0.9235
H23B H -0.3199 0.6472 0.8265
H23C H 0.0699 1.1028 0.8265
H24A H -0.2716 1.1038 0.9337
H24B H -0.2716 0.6462 0.8163
H24C H 0.0216 1.1038 0.8163
C24A C -0.2202(2) 1.01845(10) 0.94923(8)
C24B C -0.2202(2) 0.73155(10) 0.80077(8)
C24C C -0.0298(2) 1.01845(10) 0.80077(8)
C25A C -0.2185(2) 0.97506(10) 0.97701(8)
C25B C -0.2185(2) 0.77494(10) 0.77299(8)
C25C C -0.0315(2) 0.97506(10) 0.77299(8)
C26A C -0.25709(13) 0.96034(7) 0.98620(6)
C26B C -0.25709(13) 0.78966(7) 0.76380(6)
C26C C 0.00709(13) 0.96034(7) 0.76380(6)
C27A C -0.26695(16) 0.96424(7) 1.00251(6)
C27B C -0.26695(16) 0.78576(7) 0.74749(6)
C27C C 0.01695(16) 0.96424(7) 0.74749(6)
H25A H -0.2489 0.9750 1.0084
H25B H -0.2489 0.7750 0.7416
H25C H -0.0011 0.9750 0.7416
C28A C -0.30322(18) 0.95244(9) 1.01019(3)
C28B C -0.30322(18) 0.79756(9) 0.73981(3)
C28C C 0.05322(18) 0.95244(9) 0.73981(3)
C29A C -0.32963(13) 0.93673(8) 1.00156(6)
C29B C -0.32963(13) 0.81327(8) 0.74844(6)
C29C C 0.07963(13) 0.93673(8) 0.74844(6)
H26A H -0.3544 0.9287 1.0068
H26B H -0.3544 0.8213 0.7432
H26C H 0.1044 0.9287 0.7432
C30A C -0.31977(15) 0.93283(6) 0.98525(6)
C30B C -0.31977(15) 0.81717(6) 0.76475(6)
C30C C 0.06977(15) 0.93283(6) 0.76475(6)
C31A C -0.28350(17) 0.94463(8) 0.97757(3)
C31B C -0.28350(17) 0.80537(8) 0.77243(3)
C31C C 0.03350(17) 0.94463(8) 0.77243(3)
H27A H -0.2768 0.9420 0.9664
H27B H -0.2768 0.8080 0.7836
H27C H 0.0268 0.9420 0.7836
C32A C -0.3514(3) 0.91675(9) 0.97547(8)
C32B C -0.3514(3) 0.83325(9) 0.77453(8)
C32C C 0.1014(3) 0.91675(9) 0.77453(8)
C33A C -0.31145(14) 0.95622(7) 1.02842(3)
C33B C -0.31145(14) 0.79378(7) 0.72158(3)
C33C C 0.06145(14) 0.95622(7) 0.72158(3)
C34A C -0.3575(2) 0.94469(15) 1.03389(7)
C34B C -0.3575(2) 0.80531(15) 0.71611(7)
C34C C 0.1075(2) 0.94469(15) 0.71611(7)
H28A H -0.3627 0.9476 1.0455
H28B H -0.3627 0.8024 0.7045
H28C H 0.1127 0.9476 0.7045
H29A H -0.3549 0.9285 1.0320
H29B H -0.3549 0.8215 0.7180
H29C H 0.1049 0.9285 0.7180
H30A H -0.3844 0.9506 1.0276
H30B H -0.3844 0.7994 0.7224
H30C H 0.1344 0.9506 0.7224
C35A C -0.2698(2) 0.94660(16) 1.03826(5)
C35B C -0.2698(2) 0.80340(16) 0.71174(5)
C35C C 0.0198(2) 0.94660(16) 0.71174(5)
H31A H -0.2751 0.9495 1.0498
H31B H -0.2751 0.8005 0.7002
H31C H 0.0251 0.9495 0.7002
H32A H -0.2401 0.9538 1.0348
H32B H -0.2401 0.7962 0.7152
H32C H -0.0099 0.9538 0.7152
H33A H -0.2677 0.9304 1.0364
H33B H -0.2677 0.8196 0.7136
H33C H 0.0177 0.9304 0.7136
C36A C -0.3154(3) 0.98136(8) 1.03207(7)
C36B C -0.3154(3) 0.76864(8) 0.71793(7)
C36C C 0.0654(3) 0.98136(8) 0.71793(7)
H34A H -0.3206 0.9836 1.0437
H34B H -0.3206 0.7664 0.7063
H34C H 0.0706 0.9836 0.7063
H35A H -0.3423 0.9877 1.0260
H35B H -0.3423 0.7623 0.7240
H35C H 0.0923 0.9877 0.7240
H36A H -0.2860 0.9889 1.0288
H36B H -0.2860 0.7611 0.7212
H36C H 0.0360 0.9889 0.7212
C37A C -0.4457(2) 0.85885(9) 0.94599(7)
C37B C -0.4457(2) 0.89115(9) 0.80401(7)
C37C C 0.1957(2) 0.85885(9) 0.80401(7)
C38A C -0.47282(12) 0.84055(5) 0.93784(4)
C38B C -0.47282(12) 0.90945(5) 0.81216(4)
C38C C 0.22282(12) 0.84055(5) 0.81216(4)
C39A C -0.51795(12) 0.83381(6) 0.94280(4)
C39B C -0.51795(12) 0.91619(6) 0.80720(4)
C39C C 0.26795(12) 0.83381(6) 0.80720(4)
H37A H -0.5345 0.8421 0.9509
H37B H -0.5345 0.9079 0.7991
H37C H 0.2845 0.8421 0.7991
C40A C -0.53886(9) 0.81494(6) 0.93592(4)
C40B C -0.53886(9) 0.93506(6) 0.81408(4)
C40C C 0.28886(9) 0.81494(6) 0.81408(4)
H38A H -0.5697 0.8103 0.9393
H38B H -0.5697 0.9397 0.8107
H38C H 0.3197 0.8103 0.8107
C41A C -0.51468(8) 0.80279(5) 0.92409(3)
C41B C -0.51468(8) 0.94721(5) 0.82591(3)
C41C C 0.26468(8) 0.80279(5) 0.82591(3)
C42A C -0.46956(8) 0.80953(4) 0.91914(3)
C42B C -0.46956(8) 0.94047(4) 0.83086(3)
C42C C 0.21956(8) 0.80953(4) 0.83086(3)
C43A C -0.44864(10) 0.82840(5) 0.92602(4)
C43B C -0.44864(10) 0.92160(5) 0.82398(4)
C43C C 0.19864(10) 0.82840(5) 0.82398(4)
H39A H -0.4178 0.8330 0.9226
H39B H -0.4178 0.9170 0.8274
H39C H 0.1678 0.8330 0.8274
C44A C -0.53558(10) 0.78392(6) 0.91722(4)
C44B C -0.53558(10) 0.96608(6) 0.83278(4)
C44C C 0.28558(10) 0.78392(6) 0.83278(4)
H40A H -0.5664 0.7793 0.9206
H40B H -0.5664 0.9707 0.8294
H40C H 0.3164 0.7793 0.8294
C45A C -0.51140(12) 0.77177(5) 0.90540(4)
C45B C -0.51140(12) 0.97823(5) 0.84460(4)
C45C C 0.26140(12) 0.77177(5) 0.84460(4)
H41A H -0.5257 0.7589 0.9007
H41B H -0.5257 0.9911 0.8493
H41C H 0.2757 0.7589 0.8493
C46A C -0.46627(12) 0.77852(6) 0.90044(4)
C46B C -0.46627(12) 0.97148(6) 0.84956(4)
C46C C 0.21627(12) 0.77852(6) 0.84956(4)
C47A C -0.44537(10) 0.79739(6) 0.90732(4)
C47B C -0.44537(10) 0.95261(6) 0.84268(4)
C47C C 0.19537(10) 0.79739(6) 0.84268(4)
H42A H -0.4145 0.8020 0.9039
H42B H -0.4145 0.9480 0.8461
H42C H 0.1645 0.8020 0.8461
C48A C -0.4383(2) 0.76475(10) 0.88862(7)
C48B C -0.4383(2) 0.98525(10) 0.86138(7)
C48C C 0.1883(2) 0.76475(10) 0.86138(7)
C49A C -0.35635(19) 0.85749(9) 0.97395(6)
C49B C -0.35635(19) 0.89251(9) 0.77605(6)
C49C C 0.10635(19) 0.85749(9) 0.77605(6)
C50A C -0.32837(9) 0.83917(4) 0.98314(4)
C50B C -0.32837(9) 0.91083(4) 0.76686(4)
C50C C 0.07837(9) 0.83917(4) 0.76686(4)
C51A C -0.34841(8) 0.83025(5) 0.99718(4)
C51B C -0.34841(8) 0.91975(5) 0.75282(4)
C51C C 0.09841(8) 0.83025(5) 0.75282(4)
H43A H -0.3768 0.8365 1.0015
H43B H -0.3768 0.9135 0.7485
H43C H 0.1268 0.8365 0.7485
C52A C -0.32691(9) 0.81212(5) 1.00486(3)
C52B C -0.32691(9) 0.93788(5) 0.74514(3)
C52C C 0.07691(9) 0.81212(5) 0.74514(3)
H44A H -0.3406 0.8060 1.0144
H44B H -0.3406 0.9440 0.7356
H44C H 0.0906 0.8060 0.7356
C53A C -0.28539(7) 0.80292(4) 0.99852(3)
C53B C -0.28539(7) 0.94708(4) 0.75148(3)
C53C C 0.03539(7) 0.80292(4) 0.75148(3)
C54A C -0.26534(7) 0.81185(4) 0.98449(2)
C54B C -0.26534(7) 0.93815(4) 0.76551(2)
C54C C 0.01534(7) 0.81185(4) 0.76551(2)
C55A C -0.28687(9) 0.82997(4) 0.97681(3)
C55B C -0.28687(9) 0.92003(4) 0.77319(3)
C55C C 0.03687(9) 0.82997(4) 0.77319(3)
H45A H -0.2732 0.8361 0.9672
H45B H -0.2732 0.9139 0.7828
H45C H 0.0232 0.8361 0.7828
C56A C -0.26389(10) 0.78479(5) 1.00620(3)
C56B C -0.26389(10) 0.96521(5) 0.74380(3)
C56C C 0.01389(10) 0.78479(5) 0.74380(3)
H46A H -0.2776 0.7787 1.0158
H46B H -0.2776 0.9713 0.7342
H46C H 0.0276 0.7787 0.7342
C57A C -0.22240(10) 0.77558(4) 0.99987(4)
C57B C -0.22240(10) 0.97442(4) 0.75013(4)
C57C C -0.02760(10) 0.77558(4) 0.75013(4)
H47A H -0.2077 0.7632 1.0051
H47B H -0.2077 0.9868 0.7449
H47C H -0.0423 0.7632 0.7449
C58A C -0.20234(9) 0.78451(5) 0.98584(4)
C58B C -0.20234(9) 0.96549(5) 0.76416(4)
C58C C -0.04766(9) 0.78451(5) 0.76416(4)
C59A C -0.22381(9) 0.80263(5) 0.97815(3)
C59B C -0.22381(9) 0.94737(5) 0.77185(3)
C59C C -0.02619(9) 0.80263(5) 0.77185(3)
H48A H -0.2101 0.8087 0.9686
H48B H -0.2101 0.9413 0.7814
H48C H -0.0399 0.8087 0.7814
C60A C -0.15996(19) 0.77232(10) 0.97767(7)
C60B C -0.15996(19) 0.97768(10) 0.77233(7)
C60C C -0.09004(19) 0.77232(10) 0.77233(7)
C61A C -0.3486(2) 1.02515(11) 0.86209(8)
C61B C -0.3486(2) 0.72485(11) 0.88791(8)
C61C C 0.0986(2) 1.02515(11) 0.88791(8)
C62A C -0.32106(11) 1.03714(7) 0.84791(4)
C62B C -0.32106(11) 0.71286(7) 0.90209(4)
C62C C 0.07106(11) 1.03714(7) 0.90209(4)
C63A C -0.33657(11) 1.05755(7) 0.84171(5)
C63B C -0.33657(11) 0.69245(7) 0.90829(5)
C63C C 0.08657(11) 1.05755(7) 0.90829(5)
H49A H -0.3630 1.0650 0.8465
H49B H -0.3630 0.6850 0.9035
H49C H 0.1130 1.0650 0.9035
C64A C -0.31343(13) 1.06711(5) 0.82848(5)
C64B C -0.31343(13) 0.68289(5) 0.92152(5)
C64C C 0.06343(13) 1.06711(5) 0.92152(5)
H50A H -0.3240 1.0811 0.8242
H50B H -0.3240 0.6689 0.9258
H50C H 0.0740 1.0811 0.9258
C65A C -0.27478(11) 1.05625(4) 0.82144(4)
C65B C -0.27478(11) 0.69375(4) 0.92856(4)
C65C C 0.02478(11) 1.05625(4) 0.92856(4)
C66A C -0.25928(9) 1.03583(4) 0.82764(3)
C66B C -0.25928(9) 0.71417(4) 0.92236(3)
C66C C 0.00928(9) 1.03583(4) 0.92236(3)
C67A C -0.28242(11) 1.02628(5) 0.84087(4)
C67B C -0.28242(11) 0.72372(5) 0.90913(4)
C67C C 0.03242(11) 1.02628(5) 0.90913(4)
H51A H -0.2718 1.0123 0.8451
H51B H -0.2718 0.7377 0.9049
H51C H 0.0218 1.0123 0.9049
C68A C -0.25162(14) 1.06579(5) 0.80820(4)
C68B C -0.25162(14) 0.68421(5) 0.94180(4)
C68C C 0.00162(14) 1.06579(5) 0.94180(4)
H52A H -0.2622 1.0797 0.8040
H52B H -0.2622 0.6703 0.9460
H52C H 0.0122 1.0797 0.9460
C69A C -0.21300(14) 1.05492(7) 0.80117(4)
C69B C -0.21300(14) 0.69508(7) 0.94883(4)
C69C C -0.03700(14) 1.05492(7) 0.94883(4)
H53A H -0.1972 1.0614 0.7921
H53B H -0.1972 0.6886 0.9579
H53C H -0.0528 1.0614 0.9579
C70A C -0.19749(11) 1.03450(7) 0.80737(4)
C70B C -0.19749(11) 0.71550(7) 0.94263(4)
C70C C -0.05251(11) 1.03450(7) 0.94263(4)
C71A C -0.22064(10) 1.02496(5) 0.82060(4)
C71B C -0.22064(10) 0.72504(5) 0.92940(4)
C71C C -0.02936(10) 1.02496(5) 0.92940(4)
H54A H -0.2100 1.0110 0.8248
H54B H -0.2100 0.7390 0.9252
H54C H -0.0400 1.0110 0.9252
C72A C -0.1576(2) 1.02062(10) 0.79936(7)
C72B C -0.1576(2) 0.72938(10) 0.95064(7)
C72C C -0.0924(2) 1.02062(10) 0.95064(7)
loop_
_geom_bond_atom_site_label_1
_geom_bond_atom_site_label_2
_geom_bond_site_symmetry_1
_geom_bond_site_symmetry_2
Cu1 Cu2 1_555 1_555
Cu2 O2 1_555 1_555
Cu3 Cu4 1_555 1_555
Cu4 O4 1_555 1_555
Cu5 Cu6 1_555 1_555
Cu6 O8 1_555 1_555
O1 Cu1 1_555 1_555
O2 C1 1_555 1_555
O3 Cu3 1_555 1_555
O4 C8 1_555 1_555
O5 Cu3 1_555 1_555
O6 Cu4 1_555 1_555
O7 Cu5 1_555 1_555
O8 C24 1_555 1_555
O9 Cu5 1_555 1_555
O10 Cu6 1_555 1_555
O11 Cu1 1_555 1_555
O12 Cu2 1_555 1_555
O13 Cu1 1_555 1_555
O14 Cu2 1_555 1_555
O15 C48 1_555 1_555
O16 C48 1_555 1_555
O17 Cu1 1_555 1_555
O18 Cu2 1_555 1_555
O19 C60 1_555 1_555
O20 C60 1_555 1_555
O21 Cu3 1_555 1_555
O22 Cu4 1_555 1_555
O23 C72 1_555 1_555
O24 C72 1_555 1_555
O25 Cu1 1_555 1_555
O26 Cu2 1_555 1_555
O27 Cu3 1_555 1_555
O28 Cu4 1_555 1_555
O29 Cu5 1_555 1_555
O30 Cu6 1_555 1_555
C1 O1 1_555 1_555
C2 C1 1_555 1_555
C3 C2 1_555 1_555
H1 C3 1_555 1_555
C4 C3 1_555 1_555
C5 C4 1_555 1_555
H2 C5 1_555 1_555
C6 C5 1_555 1_555
C7 C2 1_555 1_555
H3 C7 1_555 1_555
C8 O3 1_555 1_555
C9 C4 1_555 1_555
C10 C9 1_555 1_555
H4 C10 1_555 1_555
H5 C10 1_555 1_555
H6 C10 1_555 1_555
C11 C9 1_555 1_555
H7 C11 1_555 1_555
H8 C11 1_555 1_555
H9 C11 1_555 1_555
C12 C9 1_555 1_555
H10 C12 1_555 1_555
H11 C12 1_555 1_555
H12 C12 1_555 1_555
C13 O5 1_555 1_555
C14 C13 1_555 1_555
C15 C14 1_555 1_555
H13 C15 1_555 1_555
C16 C15 1_555 1_555
C17 C16 1_555 1_555
H14 C17 1_555 1_555
C18 C17 1_555 1_555
C19 C14 1_555 1_555
H15 C19 1_555 1_555
C20 C16 1_555 1_555
C21 C20 1_555 1_555
H16 C21 1_555 1_555
H17 C21 1_555 1_555
H18 C21 1_555 1_555
C22 C20 1_555 1_555
H19 C22 1_555 1_555
H20 C22 1_555 1_555
H21 C22 1_555 1_555
C23 C20 1_555 1_555
H22 C23 1_555 1_555
H23 C23 1_555 1_555
H24 C23 1_555 1_555
C24 O7 1_555 1_555
C25 O9 1_555 1_555
C26 C25 1_555 1_555
C27 C26 1_555 1_555
H25 C27 1_555 1_555
C28 C27 1_555 1_555
C29 C28 1_555 1_555
H26 C29 1_555 1_555
C30 C29 1_555 1_555
C31 C26 1_555 1_555
H27 C31 1_555 1_555
C32 O11 1_555 1_555
C33 C28 1_555 1_555
C34 C33 1_555 1_555
H28 C34 1_555 1_555
H29 C34 1_555 1_555
H30 C34 1_555 1_555
C35 C33 1_555 1_555
H31 C35 1_555 1_555
H32 C35 1_555 1_555
H33 C35 1_555 1_555
C36 C33 1_555 1_555
H34 C36 1_555 1_555
H35 C36 1_555 1_555
H36 C36 1_555 1_555
C37 O13 1_555 1_555
C38 C37 1_555 1_555
C39 C38 1_555 1_555
H37 C39 1_555 1_555
C40 C39 1_555 1_555
H38 C40 1_555 1_555
C41 C40 1_555 1_555
C42 C41 1_555 1_555
C43 C38 1_555 1_555
H39 C43 1_555 1_555
C44 C41 1_555 1_555
H40 C44 1_555 1_555
C45 C44 1_555 1_555
H41 C45 1_555 1_555
C46 C45 1_555 1_555
C47 C42 1_555 1_555
H42 C47 1_555 1_555
C48 C46 1_555 1_555
C49 O17 1_555 1_555
C50 C49 1_555 1_555
C51 C50 1_555 1_555
H43 C51 1_555 1_555
C52 C51 1_555 1_555
H44 C52 1_555 1_555
C53 C52 1_555 1_555
C54 C53 1_555 1_555
C55 C50 1_555 1_555
H45 C55 1_555 1_555
C56 C53 1_555 1_555
H46 C56 1_555 1_555
C57 C56 1_555 1_555
H47 C57 1_555 1_555
C58 C57 1_555 1_555
C59 C54 1_555 1_555
H48 C59 1_555 1_555
C60 C58 1_555 1_555
C61 O21 1_555 1_555
C62 C61 1_555 1_555
C63 C62 1_555 1_555
H49 C63 1_555 1_555
C64 C63 1_555 1_555
H50 C64 1_555 1_555
C65 C64 1_555 1_555
C66 C65 1_555 1_555
C67 C62 1_555 1_555
H51 C67 1_555 1_555
C68 C65 1_555 1_555
H52 C68 1_555 1_555
C69 C68 1_555 1_555
H53 C69 1_555 1_555
C70 C69 1_555 1_555
C71 C66 1_555 1_555
H54 C71 1_555 1_555
C72 C70 1_555 1_555
Cu1A Cu2A 1_555 1_555
Cu1B Cu2B 1_555 1_555
Cu1C Cu2C 1_555 1_555
Cu2A O2A 1_555 1_555
Cu2B O2B 1_555 1_555
Cu2C O2C 1_555 1_555
Cu3A Cu4A 1_555 1_555
Cu3B Cu4B 1_555 1_555
Cu3C O15 1_555 1_555
Cu4A O4A 1_555 1_555
Cu4B O4B 1_555 1_555
Cu4C O16 1_555 1_555
Cu5A O19 1_555 1_555
Cu5B O23 1_555 1_555
Cu5C Cu6C 1_555 1_555
Cu6A O20 1_555 1_555
Cu6B O24 1_555 1_555
Cu6C O8C 1_555 1_555
O1A Cu1A 1_555 1_555
O1B Cu1B 1_555 1_555
O1C Cu1C 1_555 1_555
O2A C1A 1_555 1_555
O2B C1B 1_555 1_555
O2C C1C 1_555 1_555
O3A Cu3A 1_555 1_555
O3B Cu3B 1_555 1_555
O3C Cu3C 1_555 1_555
O4A C8A 1_555 1_555
O4B C8B 1_555 1_555
O4C Cu4C 1_555 1_555
O5A Cu3A 1_555 1_555
O5B Cu3B 1_555 1_555
O5C Cu3C 1_555 1_555
O6A Cu4A 1_555 1_555
O6B Cu4B 1_555 1_555
O6C Cu4C 1_555 1_555
O7A Cu5A 1_555 1_555
O7B Cu5B 1_555 1_555
O7C Cu5C 1_555 1_555
O8A Cu6A 1_555 1_555
O8B Cu6B 1_555 1_555
O8C C24C 1_555 1_555
O9A Cu5A 1_555 1_555
O9B Cu5B 1_555 1_555
O9C Cu5C 1_555 1_555
O10A Cu6A 1_555 1_555
O10B Cu6B 1_555 1_555
O10C Cu6C 1_555 1_555
O11A Cu1A 1_555 1_555
O11B Cu1B 1_555 1_555
O11C Cu1C 1_555 1_555
O12A Cu2A 1_555 1_555
O12B Cu2B 1_555 1_555
O12C Cu2C 1_555 1_555
O13A Cu1A 1_555 1_555
O13B Cu1B 1_555 1_555
O13C Cu1C 1_555 1_555
O14A Cu2A 1_555 1_555
O14B Cu2B 1_555 1_555
O14C Cu2C 1_555 1_555
O15A Cu3B 1_555 1_555
O15B Cu3A 1_555 1_555
O15C Cu3 1_555 1_555
O16A Cu4B 1_555 1_555
O16B Cu4A 1_555 1_555
O16C Cu4 1_555 1_555
O17A Cu1A 1_555 1_555
O17B Cu1B 1_555 1_555
O17C Cu1C 1_555 1_555
O18A Cu2A 1_555 1_555
O18B Cu2B 1_555 1_555
O18C Cu2C 1_555 1_555
O19A Cu5 1_555 1_555
O19B Cu5C 1_555 1_555
O19C Cu5B 1_555 1_555
O20A Cu6 1_555 1_555
O20B Cu6C 1_555 1_555
O20C Cu6B 1_555 1_555
O21A Cu3A 1_555 1_555
O21B Cu3B 1_555 1_555
O21C Cu3C 1_555 1_555
O22A Cu4A 1_555 1_555
O22B Cu4B 1_555 1_555
O22C Cu4C 1_555 1_555
O23A Cu5C 1_555 1_555
O23B Cu5 1_555 1_555
O23C Cu5A 1_555 1_555
O24A Cu6C 1_555 1_555
O24B Cu6 1_555 1_555
O24C Cu6A 1_555 1_555
O25A Cu1A 1_555 1_555
O25B Cu1B 1_555 1_555
O25C Cu1C 1_555 1_555
O26A Cu2A 1_555 1_555
O26B Cu2B 1_555 1_555
O26C Cu2C 1_555 1_555
O27A Cu3A 1_555 1_555
O27B Cu3B 1_555 1_555
O27C Cu3C 1_555 1_555
O28A Cu4A 1_555 1_555
O28B Cu4B 1_555 1_555
O28C Cu4C 1_555 1_555
O29A Cu5A 1_555 1_555
O29B Cu5B 1_555 1_555
O29C Cu5C 1_555 1_555
O30A Cu6A 1_555 1_555
O30B Cu6B 1_555 1_555
O30C Cu6C 1_555 1_555
C1A O1A 1_555 1_555
C1B O1B 1_555 1_555
C1C O1C 1_555 1_555
C2A C1A 1_555 1_555
C2B C1B 1_555 1_555
C2C C1C 1_555 1_555
C3A C2A 1_555 1_555
C3B C2B 1_555 1_555
C3C C2C 1_555 1_555
H1A C3A 1_555 1_555
H1B C3B 1_555 1_555
H1C C3C 1_555 1_555
C4A C3A 1_555 1_555
C4B C3B 1_555 1_555
C4C C3C 1_555 1_555
C5A C4A 1_555 1_555
C5B C4B 1_555 1_555
C5C C4C 1_555 1_555
H2A C5A 1_555 1_555
H2B C5B 1_555 1_555
H2C C5C 1_555 1_555
C6A C5A 1_555 1_555
C6B C5B 1_555 1_555
C6C C5C 1_555 1_555
C7A C2A 1_555 1_555
C7B C2B 1_555 1_555
C7C C2C 1_555 1_555
H3A C7A 1_555 1_555
H3B C7B 1_555 1_555
H3C C7C 1_555 1_555
C8A O3A 1_555 1_555
C8B O3B 1_555 1_555
C8C O3C 1_555 1_555
C9A C4A 1_555 1_555
C9B C4B 1_555 1_555
C9C C4C 1_555 1_555
C10A C9A 1_555 1_555
C10B C9B 1_555 1_555
C10C C9C 1_555 1_555
H4A C10A 1_555 1_555
H4B C10B 1_555 1_555
H4C C10C 1_555 1_555
H5A C10A 1_555 1_555
H5B C10B 1_555 1_555
H5C C10C 1_555 1_555
H6A C10A 1_555 1_555
H6B C10B 1_555 1_555
H6C C10C 1_555 1_555
C11A C9A 1_555 1_555
C11B C9B 1_555 1_555
C11C C9C 1_555 1_555
H7A C11A 1_555 1_555
H7B C11B 1_555 1_555
H7C C11C 1_555 1_555
H8A C11A 1_555 1_555
H8B C11B 1_555 1_555
H8C C11C 1_555 1_555
H9A C11A 1_555 1_555
H9B C11B 1_555 1_555
H9C C11C 1_555 1_555
C12A C9A 1_555 1_555
C12B C9B 1_555 1_555
C12C C9C 1_555 1_555
H10A C12A 1_555 1_555
H10B C12B 1_555 1_555
H10C C12C 1_555 1_555
H11A C12A 1_555 1_555
H11B C12B 1_555 1_555
H11C C12C 1_555 1_555
H12A C12A 1_555 1_555
H12B C12B 1_555 1_555
H12C C12C 1_555 1_555
C13A O5A 1_555 1_555
C13B O5B 1_555 1_555
C13C O5C 1_555 1_555
C14A C13A 1_555 1_555
C14B C13B 1_555 1_555
C14C C13C 1_555 1_555
C15A C14A 1_555 1_555
C15B C14B 1_555 1_555
C15C C14C 1_555 1_555
H13A C15A 1_555 1_555
H13B C15B 1_555 1_555
H13C C15C 1_555 1_555
C16A C15A 1_555 1_555
C16B C15B 1_555 1_555
C16C C15C 1_555 1_555
C17A C16A 1_555 1_555
C17B C16B 1_555 1_555
C17C C16C 1_555 1_555
H14A C17A 1_555 1_555
H14B C17B 1_555 1_555
H14C C17C 1_555 1_555
C18A C17A 1_555 1_555
C18B C17B 1_555 1_555
C18C C17C 1_555 1_555
C19A C14A 1_555 1_555
C19B C14B 1_555 1_555
C19C C14C 1_555 1_555
H15A C19A 1_555 1_555
H15B C19B 1_555 1_555
H15C C19C 1_555 1_555
C20A C16A 1_555 1_555
C20B C16B 1_555 1_555
C20C C16C 1_555 1_555
C21A C20A 1_555 1_555
C21B C20B 1_555 1_555
C21C C20C 1_555 1_555
H16A C21A 1_555 1_555
H16B C21B 1_555 1_555
H16C C21C 1_555 1_555
H17A C21A 1_555 1_555
H17B C21B 1_555 1_555
H17C C21C 1_555 1_555
H18A C21A 1_555 1_555
H18B C21B 1_555 1_555
H18C C21C 1_555 1_555
C22A C20A 1_555 1_555
C22B C20B 1_555 1_555
C22C C20C 1_555 1_555
H19A C22A 1_555 1_555
H19B C22B 1_555 1_555
H19C C22C 1_555 1_555
H20A C22A 1_555 1_555
H20B C22B 1_555 1_555
H20C C22C 1_555 1_555
H21A C22A 1_555 1_555
H21B C22B 1_555 1_555
H21C C22C 1_555 1_555
C23A C20A 1_555 1_555
C23B C20B 1_555 1_555
C23C C20C 1_555 1_555
H22A C23A 1_555 1_555
H22B C23B 1_555 1_555
H22C C23C 1_555 1_555
H23A C23A 1_555 1_555
H23B C23B 1_555 1_555
H23C C23C 1_555 1_555
H24A C23A 1_555 1_555
H24B C23B 1_555 1_555
H24C C23C 1_555 1_555
C24A O7A 1_555 1_555
C24B O7B 1_555 1_555
C24C O7C 1_555 1_555
C25A O9A 1_555 1_555
C25B O9B 1_555 1_555
C25C O9C 1_555 1_555
C26A C25A 1_555 1_555
C26B C25B 1_555 1_555
C26C C25C 1_555 1_555
C27A C26A 1_555 1_555
C27B C26B 1_555 1_555
C27C C26C 1_555 1_555
H25A C27A 1_555 1_555
H25B C27B 1_555 1_555
H25C C27C 1_555 1_555
C28A C27A 1_555 1_555
C28B C27B 1_555 1_555
C28C C27C 1_555 1_555
C29A C28A 1_555 1_555
C29B C28B 1_555 1_555
C29C C28C 1_555 1_555
H26A C29A 1_555 1_555
H26B C29B 1_555 1_555
H26C C29C 1_555 1_555
C30A C29A 1_555 1_555
C30B C29B 1_555 1_555
C30C C29C 1_555 1_555
C31A C26A 1_555 1_555
C31B C26B 1_555 1_555
C31C C26C 1_555 1_555
H27A C31A 1_555 1_555
H27B C31B 1_555 1_555
H27C C31C 1_555 1_555
C32A O11A 1_555 1_555
C32B O11B 1_555 1_555
C32C O11C 1_555 1_555
C33A C28A 1_555 1_555
C33B C28B 1_555 1_555
C33C C28C 1_555 1_555
C34A C33A 1_555 1_555
C34B C33B 1_555 1_555
C34C C33C 1_555 1_555
H28A C34A 1_555 1_555
H28B C34B 1_555 1_555
H28C C34C 1_555 1_555
H29A C34A 1_555 1_555
H29B C34B 1_555 1_555
H29C C34C 1_555 1_555
H30A C34A 1_555 1_555
H30B C34B 1_555 1_555
H30C C34C 1_555 1_555
C35A C33A 1_555 1_555
C35B C33B 1_555 1_555
C35C C33C 1_555 1_555
H31A C35A 1_555 1_555
H31B C35B 1_555 1_555
H31C C35C 1_555 1_555
H32A C35A 1_555 1_555
H32B C35B 1_555 1_555
H32C C35C 1_555 1_555
H33A C35A 1_555 1_555
H33B C35B 1_555 1_555
H33C C35C 1_555 1_555
C36A C33A 1_555 1_555
C36B C33B 1_555 1_555
C36C C33C 1_555 1_555
H34A C36A 1_555 1_555
H34B C36B 1_555 1_555
H34C C36C 1_555 1_555
H35A C36A 1_555 1_555
H35B C36B 1_555 1_555
H35C C36C 1_555 1_555
H36A C36A 1_555 1_555
H36B C36B 1_555 1_555
H36C C36C 1_555 1_555
C37A O13A 1_555 1_555
C37B O13B 1_555 1_555
C37C O13C 1_555 1_555
C38A C37A 1_555 1_555
C38B C37B 1_555 1_555
C38C C37C 1_555 1_555
C39A C38A 1_555 1_555
C39B C38B 1_555 1_555
C39C C38C 1_555 1_555
H37A C39A 1_555 1_555
H37B C39B 1_555 1_555
H37C C39C 1_555 1_555
C40A C39A 1_555 1_555
C40B C39B 1_555 1_555
C40C C39C 1_555 1_555
H38A C40A 1_555 1_555
H38B C40B 1_555 1_555
H38C C40C 1_555 1_555
C41A C40A 1_555 1_555
C41B C40B 1_555 1_555
C41C C40C 1_555 1_555
C42A C41A 1_555 1_555
C42B C41B 1_555 1_555
C42C C41C 1_555 1_555
C43A C38A 1_555 1_555
C43B C38B 1_555 1_555
C43C C38C 1_555 1_555
H39A C43A 1_555 1_555
H39B C43B 1_555 1_555
H39C C43C 1_555 1_555
C44A C41A 1_555 1_555
C44B C41B 1_555 1_555
C44C C41C 1_555 1_555
H40A C44A 1_555 1_555
H40B C44B 1_555 1_555
H40C C44C 1_555 1_555
C45A C44A 1_555 1_555
C45B C44B 1_555 1_555
C45C C44C 1_555 1_555
H41A C45A 1_555 1_555
H41B C45B 1_555 1_555
H41C C45C 1_555 1_555
C46A C45A 1_555 1_555
C46B C45B 1_555 1_555
C46C C45C 1_555 1_555
C47A C42A 1_555 1_555
C47B C42B 1_555 1_555
C47C C42C 1_555 1_555
H42A C47A 1_555 1_555
H42B C47B 1_555 1_555
H42C C47C 1_555 1_555
C48A O15A 1_555 1_555
C48B O15B 1_555 1_555
C48C O15C 1_555 1_555
C49A O17A 1_555 1_555
C49B O17B 1_555 1_555
C49C O17C 1_555 1_555
C50A C49A 1_555 1_555
C50B C49B 1_555 1_555
C50C C49C 1_555 1_555
C51A C50A 1_555 1_555
C51B C50B 1_555 1_555
C51C C50C 1_555 1_555
H43A C51A 1_555 1_555
H43B C51B 1_555 1_555
H43C C51C 1_555 1_555
C52A C51A 1_555 1_555
C52B C51B 1_555 1_555
C52C C51C 1_555 1_555
H44A C52A 1_555 1_555
H44B C52B 1_555 1_555
H44C C52C 1_555 1_555
C53A C52A 1_555 1_555
C53B C52B 1_555 1_555
C53C C52C 1_555 1_555
C54A C53A 1_555 1_555
C54B C53B 1_555 1_555
C54C C53C 1_555 1_555
C55A C50A 1_555 1_555
C55B C50B 1_555 1_555
C55C C50C 1_555 1_555
H45A C55A 1_555 1_555
H45B C55B 1_555 1_555
H45C C55C 1_555 1_555
C56A C53A 1_555 1_555
C56B C53B 1_555 1_555
C56C C53C 1_555 1_555
H46A C56A 1_555 1_555
H46B C56B 1_555 1_555
H46C C56C 1_555 1_555
C57A C56A 1_555 1_555
C57B C56B 1_555 1_555
C57C C56C 1_555 1_555
H47A C57A 1_555 1_555
H47B C57B 1_555 1_555
H47C C57C 1_555 1_555
C58A C57A 1_555 1_555
C58B C57B 1_555 1_555
C58C C57C 1_555 1_555
C59A C54A 1_555 1_555
C59B C54B 1_555 1_555
C59C C54C 1_555 1_555
H48A C59A 1_555 1_555
H48B C59B 1_555 1_555
H48C C59C 1_555 1_555
C60A O19A 1_555 1_555
C60B O19B 1_555 1_555
C60C O19C 1_555 1_555
C61A O21A 1_555 1_555
C61B O21B 1_555 1_555
C61C O21C 1_555 1_555
C62A C61A 1_555 1_555
C62B C61B 1_555 1_555
C62C C61C 1_555 1_555
C63A C62A 1_555 1_555
C63B C62B 1_555 1_555
C63C C62C 1_555 1_555
H49A C63A 1_555 1_555
H49B C63B 1_555 1_555
H49C C63C 1_555 1_555
C64A C63A 1_555 1_555
C64B C63B 1_555 1_555
C64C C63C 1_555 1_555
H50A C64A 1_555 1_555
H50B C64B 1_555 1_555
H50C C64C 1_555 1_555
C65A C64A 1_555 1_555
C65B C64B 1_555 1_555
C65C C64C 1_555 1_555
C66A C65A 1_555 1_555
C66B C65B 1_555 1_555
C66C C65C 1_555 1_555
C67A C62A 1_555 1_555
C67B C62B 1_555 1_555
C67C C62C 1_555 1_555
H51A C67A 1_555 1_555
H51B C67B 1_555 1_555
H51C C67C 1_555 1_555
C68A C65A 1_555 1_555
C68B C65B 1_555 1_555
C68C C65C 1_555 1_555
H52A C68A 1_555 1_555
H52B C68B 1_555 1_555
H52C C68C 1_555 1_555
C69A C68A 1_555 1_555
C69B C68B 1_555 1_555
C69C C68C 1_555 1_555
H53A C69A 1_555 1_555
H53B C69B 1_555 1_555
H53C C69C 1_555 1_555
C70A C69A 1_555 1_555
C70B C69B 1_555 1_555
C70C C69C 1_555 1_555
C71A C66A 1_555 1_555
C71B C66B 1_555 1_555
C71C C66C 1_555 1_555
H54A C71A 1_555 1_555
H54B C71B 1_555 1_555
H54C C71C 1_555 1_555
C72A O23A 1_555 1_555
C72B O23B 1_555 1_555
C72C O23C 1_555 1_555
O6 C13 1_555 1_555
O10 C25 1_555 1_555
O12 C32 1_555 1_555
O14 C37 1_555 1_555
O18 C49 1_555 1_555
O22 C61 1_555 1_555
C6 C7 1_555 1_555
C6 C8 1_555 1_555
C18 C19 1_555 1_555
C18 C24 1_555 1_555
C30 C31 1_555 1_555
C30 C32 1_555 1_555
C42 C43 1_555 1_555
C46 C47 1_555 1_555
C54 C55 1_555 1_555
C58 C59 1_555 1_555
C66 C67 1_555 1_555
C70 C71 1_555 1_555
Cu3C Cu4C 1_555 1_555
Cu5A Cu6A 1_555 1_555
Cu5B Cu6B 1_555 1_555
O4C C8C 1_555 1_555
O6A C13A 1_555 1_555
O6B C13B 1_555 1_555
O6C C13C 1_555 1_555
O8A C24A 1_555 1_555
O8B C24B 1_555 1_555
O10A C25A 1_555 1_555
O10B C25B 1_555 1_555
O10C C25C 1_555 1_555
O12A C32A 1_555 1_555
O12B C32B 1_555 1_555
O12C C32C 1_555 1_555
O14A C37A 1_555 1_555
O14B C37B 1_555 1_555
O14C C37C 1_555 1_555
O16A C48A 1_555 1_555
O16B C48B 1_555 1_555
O16C C48C 1_555 1_555
O18A C49A 1_555 1_555
O18B C49B 1_555 1_555
O18C C49C 1_555 1_555
O20A C60A 1_555 1_555
O20B C60B 1_555 1_555
O20C C60C 1_555 1_555
O22A C61A 1_555 1_555
O22B C61B 1_555 1_555
O22C C61C 1_555 1_555
O24A C72A 1_555 1_555
O24B C72B 1_555 1_555
O24C C72C 1_555 1_555
C6A C7A 1_555 1_555
C6A C8A 1_555 1_555
C6B C7B 1_555 1_555
C6B C8B 1_555 1_555
C6C C7C 1_555 1_555
C6C C8C 1_555 1_555
C18A C19A 1_555 1_555
C18A C24A 1_555 1_555
C18B C19B 1_555 1_555
C18B C24B 1_555 1_555
C18C C19C 1_555 1_555
C18C C24C 1_555 1_555
C30A C31A 1_555 1_555
C30A C32A 1_555 1_555
C30B C31B 1_555 1_555
C30B C32B 1_555 1_555
C30C C31C 1_555 1_555
C30C C32C 1_555 1_555
C42A C43A 1_555 1_555
C42B C43B 1_555 1_555
C42C C43C 1_555 1_555
C46A C47A 1_555 1_555
C46A C48A 1_555 1_555
C46B C47B 1_555 1_555
C46B C48B 1_555 1_555
C46C C47C 1_555 1_555
C46C C48C 1_555 1_555
C54A C55A 1_555 1_555
C54B C55B 1_555 1_555
C54C C55C 1_555 1_555
C58A C59A 1_555 1_555
C58A C60A 1_555 1_555
C58B C59B 1_555 1_555
C58B C60B 1_555 1_555
C58C C59C 1_555 1_555
C58C C60C 1_555 1_555
C66A C67A 1_555 1_555
C66B C67B 1_555 1_555
C66C C67C 1_555 1_555
C70A C71A 1_555 1_555
C70A C72A 1_555 1_555
C70B C71B 1_555 1_555
C70B C72B 1_555 1_555
C70C C71C 1_555 1_555
C70C C72C 1_555 1_555

#END
