
#######################################################################
#
#                 Cambridge Crystallographic Data Centre
#                                CCDC 
#
#######################################################################
#
# If this CIF has been generated from an entry in the Cambridge 
# Structural Database, then it will include bibliographic, chemical, 
# crystal, experimental, refinement or atomic coordinate data resulting 
# from the CCDC's data processing and validation procedures.
#
#######################################################################

data_XAJCIW
_chemical_name_common            
'tetracosakis(mu!4$-5-hydroxy-1,3-benzenedicarboxylato)-tetracosakis(unknown)-tetracosa-copper unknown solvate'
_chemical_formula_moiety         'C192 H96 Cu24 O144'
_chemical_name_systematic        
'tetracosakis(\m~4~-5-hydroxyisophthalato)-tetracosakis(unknown)-tetracosa-copper unknown solvate'
_symmetry_cell_setting           tetragonal
_symmetry_space_group_name_H-M   'I 4/m'
_symmetry_Int_Tables_number      87
_space_group_name_Hall           '-I 4'
loop_
_symmetry_equiv_pos_site_id
_symmetry_equiv_pos_as_xyz
1 x,y,z
2 -x,-y,z
3 -y,x,z
4 y,-x,z
5 1/2+x,1/2+y,1/2+z
6 1/2-x,1/2-y,1/2+z
7 1/2-y,1/2+x,1/2+z
8 1/2+y,1/2-x,1/2+z
9 -x,-y,-z
10 x,y,-z
11 y,-x,-z
12 -y,x,-z
13 1/2-x,1/2-y,1/2-z
14 1/2+x,1/2+y,1/2-z
15 1/2+y,1/2-x,1/2-z
16 1/2-y,1/2+x,1/2-z
_cell_length_a                   25.8693(10)
_cell_length_b                   25.8693(10)
_cell_length_c                   39.125(3)
_cell_angle_alpha                90
_cell_angle_beta                 90
_cell_angle_gamma                90
_cell_volume                     26183.3
_exptl_crystal_colour            blue
_exptl_crystal_description       block
_cell_formula_units_Z            2
loop_
_atom_site_label
_atom_site_type_symbol
_atom_site_fract_x
_atom_site_fract_y
_atom_site_fract_z
Cu1 Cu 0.282714(14) 0.070756(13) 0.190667(8)
Cu2 Cu 0.214217(14) 0.053545(13) 0.142399(8)
Cu3 Cu 0.35512(2) -0.211498(19) 0.0000
Cu4 Cu 0.26848(2) -0.15916(2) 0.0000
O1 O 0.32774(9) 0.02753(8) 0.16245(5)
O2 O 0.26946(9) 0.01316(8) 0.12134(5)
O3 O 0.37694(9) -0.16251(8) 0.03534(5)
O4 O 0.30258(9) -0.11819(8) 0.03535(5)
O5 O 0.30108(8) 0.13152(8) 0.16279(5)
O6 O 0.24199(9) 0.11642(8) 0.12186(5)
O7 O 0.32068(8) -0.25276(8) 0.03533(5)
O8 O 0.24655(9) -0.20765(8) 0.03537(5)
O9 O 0.25429(9) 0.00766(8) 0.21125(5)
O10 O 0.19565(8) -0.00668(8) 0.17004(5)
O11 O 0.22545(8) 0.11034(8) 0.21132(5)
O12 O 0.16805(8) 0.09667(8) 0.16976(5)
O13 O 0.48065(14) -0.07673(18) 0.12828(10)
H1 H 0.4845 -0.0569 0.1451
O14 O 0.39205(9) 0.29184(10) 0.12147(7)
H2 H 0.3950 0.3185 0.1093
O15 O 0.22207(13) -0.13285(11) 0.29590(7)
H3 H 0.2420 -0.1089 0.3019
O16 O 0.33583(9) 0.08476(10) 0.23159(6)
O17 O 0.15830(14) 0.03812(12) 0.10245(8)
O18 O 0.42394(12) -0.25735(13) 0.0000
O19 O 0.19934(19) -0.1121(2) 0.0000
C1 C 0.31247(13) 0.00659(11) 0.13510(7)
C2 C 0.34946(13) -0.02980(12) 0.11770(7)
C3 C 0.39941(16) -0.03574(16) 0.13020(10)
H4 H 0.4111 -0.0155 0.1489
C4 C 0.43158(19) -0.0711(2) 0.11525(12)
C5 C 0.41579(17) -0.10032(16) 0.08752(10)
H5 H 0.4388 -0.1241 0.0770
C6 C 0.36614(14) -0.09434(12) 0.07533(8)
C7 C 0.33354(13) -0.05842(11) 0.08999(7)
H6 H 0.2999 -0.0534 0.0809
C8 C 0.34676(14) -0.12768(12) 0.04619(7)
C9 C 0.27791(12) 0.14256(11) 0.13536(7)
C10 C 0.29312(12) 0.19134(11) 0.11752(7)
C11 C 0.33675(12) 0.21936(12) 0.12821(8)
H7 H 0.3573 0.2071 0.1466
C12 C 0.34956(13) 0.26511(13) 0.11175(8)
C13 C 0.31973(13) 0.28286(13) 0.08500(8)
H8 H 0.3287 0.3141 0.0737
C14 C 0.27681(12) 0.25521(12) 0.07455(7)
C15 C 0.26332(12) 0.20926(11) 0.09055(7)
H9 H 0.2340 0.1903 0.0831
C16 C 0.27616(12) -0.24304(13) 0.04613(7)
C17 C 0.21890(13) -0.01809(11) 0.19737(8)
C18 C 0.20109(13) -0.06650(11) 0.21494(8)
C19 C 0.22043(15) -0.07851(13) 0.24748(9)
H10 H 0.2451 -0.0565 0.2580
C20 C 0.20344(16) -0.12278(14) 0.26432(9)
C21 C 0.16928(14) -0.15634(13) 0.24802(8)
H11 H 0.1584 -0.1872 0.2591
C22 C 0.15113(12) -0.14456(11) 0.21546(7)
C23 C 0.16643(12) -0.09917(11) 0.19907(8)
H12 H 0.1531 -0.0908 0.1771
C24 C 0.18247(11) 0.11660(11) 0.19729(7)
Cu1B Cu -0.070756(13) 0.282714(14) 0.190667(8)
Cu1A Cu -0.282714(14) -0.070756(13) 0.190667(8)
Cu1C Cu 0.070756(13) -0.282714(14) 0.190667(8)
Cu1J Cu 0.070756(13) -0.282714(14) -0.190667(8)
Cu1I Cu 0.282714(14) 0.070756(13) -0.190667(8)
Cu1K Cu -0.070756(13) 0.282714(14) -0.190667(8)
Cu1H Cu -0.282714(14) -0.070756(13) -0.190667(8)
Cu2B Cu -0.053545(13) 0.214217(14) 0.142399(8)
Cu2A Cu -0.214217(14) -0.053545(13) 0.142399(8)
Cu2C Cu 0.053545(13) -0.214217(14) 0.142399(8)
Cu2J Cu 0.053545(13) -0.214217(14) -0.142399(8)
Cu2I Cu 0.214217(14) 0.053545(13) -0.142399(8)
Cu2K Cu -0.053545(13) 0.214217(14) -0.142399(8)
Cu2H Cu -0.214217(14) -0.053545(13) -0.142399(8)
Cu3C Cu -0.211498(19) -0.35512(2) 0.0000
Cu3A Cu -0.35512(2) 0.211498(19) 0.0000
Cu3B Cu 0.211498(19) 0.35512(2) 0.0000
Cu4C Cu -0.15916(2) -0.26848(2) 0.0000
Cu4A Cu -0.26848(2) 0.15916(2) 0.0000
Cu4B Cu 0.15916(2) 0.26848(2) 0.0000
O1B O -0.02753(8) 0.32774(9) 0.16245(5)
O1A O -0.32774(9) -0.02753(8) 0.16245(5)
O1C O 0.02753(8) -0.32774(9) 0.16245(5)
O1J O 0.02753(8) -0.32774(9) -0.16245(5)
O1I O 0.32774(9) 0.02753(8) -0.16245(5)
O1K O -0.02753(8) 0.32774(9) -0.16245(5)
O1H O -0.32774(9) -0.02753(8) -0.16245(5)
O2B O -0.01316(8) 0.26946(9) 0.12134(5)
O2A O -0.26946(9) -0.01316(8) 0.12134(5)
O2C O 0.01316(8) -0.26946(9) 0.12134(5)
O2J O 0.01316(8) -0.26946(9) -0.12134(5)
O2I O 0.26946(9) 0.01316(8) -0.12134(5)
O2K O -0.01316(8) 0.26946(9) -0.12134(5)
O2H O -0.26946(9) -0.01316(8) -0.12134(5)
O3I O 0.37694(9) -0.16251(8) -0.03534(5)
O3J O -0.16251(8) -0.37694(9) -0.03534(5)
O3C O -0.16251(8) -0.37694(9) 0.03534(5)
O3H O -0.37694(9) 0.16251(8) -0.03534(5)
O3A O -0.37694(9) 0.16251(8) 0.03534(5)
O3K O 0.16251(8) 0.37694(9) -0.03534(5)
O3B O 0.16251(8) 0.37694(9) 0.03534(5)
O4I O 0.30258(9) -0.11819(8) -0.03535(5)
O4J O -0.11819(8) -0.30258(9) -0.03535(5)
O4C O -0.11819(8) -0.30258(9) 0.03535(5)
O4H O -0.30258(9) 0.11819(8) -0.03535(5)
O4A O -0.30258(9) 0.11819(8) 0.03535(5)
O4K O 0.11819(8) 0.30258(9) -0.03535(5)
O4B O 0.11819(8) 0.30258(9) 0.03535(5)
O5B O -0.13152(8) 0.30108(8) 0.16279(5)
O5A O -0.30108(8) -0.13152(8) 0.16279(5)
O5C O 0.13152(8) -0.30108(8) 0.16279(5)
O5J O 0.13152(8) -0.30108(8) -0.16279(5)
O5I O 0.30108(8) 0.13152(8) -0.16279(5)
O5K O -0.13152(8) 0.30108(8) -0.16279(5)
O5H O -0.30108(8) -0.13152(8) -0.16279(5)
O6B O -0.11642(8) 0.24199(9) 0.12186(5)
O6A O -0.24199(9) -0.11642(8) 0.12186(5)
O6C O 0.11642(8) -0.24199(9) 0.12186(5)
O6J O 0.11642(8) -0.24199(9) -0.12186(5)
O6I O 0.24199(9) 0.11642(8) -0.12186(5)
O6K O -0.11642(8) 0.24199(9) -0.12186(5)
O6H O -0.24199(9) -0.11642(8) -0.12186(5)
O7I O 0.32068(8) -0.25276(8) -0.03533(5)
O7J O -0.25276(8) -0.32068(8) -0.03533(5)
O7C O -0.25276(8) -0.32068(8) 0.03533(5)
O7H O -0.32068(8) 0.25276(8) -0.03533(5)
O7A O -0.32068(8) 0.25276(8) 0.03533(5)
O7K O 0.25276(8) 0.32068(8) -0.03533(5)
O7B O 0.25276(8) 0.32068(8) 0.03533(5)
O8I O 0.24655(9) -0.20765(8) -0.03537(5)
O8J O -0.20765(8) -0.24655(9) -0.03537(5)
O8C O -0.20765(8) -0.24655(9) 0.03537(5)
O8H O -0.24655(9) 0.20765(8) -0.03537(5)
O8A O -0.24655(9) 0.20765(8) 0.03537(5)
O8K O 0.20765(8) 0.24655(9) -0.03537(5)
O8B O 0.20765(8) 0.24655(9) 0.03537(5)
O9B O -0.00766(8) 0.25429(9) 0.21125(5)
O9A O -0.25429(9) -0.00766(8) 0.21125(5)
O9C O 0.00766(8) -0.25429(9) 0.21125(5)
O9J O 0.00766(8) -0.25429(9) -0.21125(5)
O9I O 0.25429(9) 0.00766(8) -0.21125(5)
O9K O -0.00766(8) 0.25429(9) -0.21125(5)
O9H O -0.25429(9) -0.00766(8) -0.21125(5)
O10B O 0.00668(8) 0.19565(8) 0.17004(5)
O10A O -0.19565(8) 0.00668(8) 0.17004(5)
O10C O -0.00668(8) -0.19565(8) 0.17004(5)
O10J O -0.00668(8) -0.19565(8) -0.17004(5)
O10I O 0.19565(8) -0.00668(8) -0.17004(5)
O10K O 0.00668(8) 0.19565(8) -0.17004(5)
O10H O -0.19565(8) 0.00668(8) -0.17004(5)
O11B O -0.11034(8) 0.22545(8) 0.21132(5)
O11A O -0.22545(8) -0.11034(8) 0.21132(5)
O11C O 0.11034(8) -0.22545(8) 0.21132(5)
O11J O 0.11034(8) -0.22545(8) -0.21132(5)
O11I O 0.22545(8) 0.11034(8) -0.21132(5)
O11K O -0.11034(8) 0.22545(8) -0.21132(5)
O11H O -0.22545(8) -0.11034(8) -0.21132(5)
O12B O -0.09667(8) 0.16805(8) 0.16976(5)
O12A O -0.16805(8) -0.09667(8) 0.16976(5)
O12C O 0.09667(8) -0.16805(8) 0.16976(5)
O12J O 0.09667(8) -0.16805(8) -0.16976(5)
O12I O 0.16805(8) 0.09667(8) -0.16976(5)
O12K O -0.09667(8) 0.16805(8) -0.16976(5)
O12H O -0.16805(8) -0.09667(8) -0.16976(5)
O13C O -0.07673(18) -0.48065(14) 0.12828(10)
O13J O -0.07673(18) -0.48065(14) -0.12828(10)
O13H O -0.48065(14) 0.07673(18) -0.12828(10)
O13A O -0.48065(14) 0.07673(18) 0.12828(10)
O13K O 0.07673(18) 0.48065(14) -0.12828(10)
O13B O 0.07673(18) 0.48065(14) 0.12828(10)
O13I O 0.48065(14) -0.07673(18) -0.12828(10)
H1C H -0.0569 -0.4845 0.1451
H1J H -0.0569 -0.4845 -0.1451
H1H H -0.4845 0.0569 -0.1451
H1A H -0.4845 0.0569 0.1451
H1K H 0.0569 0.4845 -0.1451
H1B H 0.0569 0.4845 0.1451
H1I H 0.4845 -0.0569 -0.1451
O14C O 0.29184(10) -0.39205(9) 0.12147(7)
O14J O 0.29184(10) -0.39205(9) -0.12147(7)
O14H O -0.39205(9) -0.29184(10) -0.12147(7)
O14A O -0.39205(9) -0.29184(10) 0.12147(7)
O14B O -0.29184(10) 0.39205(9) 0.12147(7)
O14K O -0.29184(10) 0.39205(9) -0.12147(7)
O14I O 0.39205(9) 0.29184(10) -0.12147(7)
H2C H 0.3185 -0.3950 0.1093
H2J H 0.3185 -0.3950 -0.1093
H2H H -0.3950 -0.3185 -0.1093
H2A H -0.3950 -0.3185 0.1093
H2B H -0.3185 0.3950 0.1093
H2K H -0.3185 0.3950 -0.1093
H2I H 0.3950 0.3185 -0.1093
O15B O 0.13285(11) 0.22207(13) 0.29590(7)
O15A O -0.22207(13) 0.13285(11) 0.29590(7)
O15C O -0.13285(11) -0.22207(13) 0.29590(7)
O15I O 0.22207(13) -0.13285(11) -0.29590(7)
O15K O 0.13285(11) 0.22207(13) -0.29590(7)
O15H O -0.22207(13) 0.13285(11) -0.29590(7)
O15J O -0.13285(11) -0.22207(13) -0.29590(7)
H3B H 0.1089 0.2420 0.3019
H3A H -0.2420 0.1089 0.3019
H3C H -0.1089 -0.2420 0.3019
H3I H 0.2420 -0.1089 -0.3019
H3K H 0.1089 0.2420 -0.3019
H3H H -0.2420 0.1089 -0.3019
H3J H -0.1089 -0.2420 -0.3019
O16B O -0.08476(10) 0.33583(9) 0.23159(6)
O16A O -0.33583(9) -0.08476(10) 0.23159(6)
O16C O 0.08476(10) -0.33583(9) 0.23159(6)
O16J O 0.08476(10) -0.33583(9) -0.23159(6)
O16I O 0.33583(9) 0.08476(10) -0.23159(6)
O16K O -0.08476(10) 0.33583(9) -0.23159(6)
O16H O -0.33583(9) -0.08476(10) -0.23159(6)
O17C O 0.03812(12) -0.15830(14) 0.10245(8)
O17H O -0.15830(14) -0.03812(12) -0.10245(8)
O17K O -0.03812(12) 0.15830(14) -0.10245(8)
O17I O 0.15830(14) 0.03812(12) -0.10245(8)
O17J O 0.03812(12) -0.15830(14) -0.10245(8)
O17A O -0.15830(14) -0.03812(12) 0.10245(8)
O17B O -0.03812(12) 0.15830(14) 0.10245(8)
O18C O -0.25735(13) -0.42394(12) 0.0000
O18A O -0.42394(12) 0.25735(13) 0.0000
O18B O 0.25735(13) 0.42394(12) 0.0000
O19C O -0.1121(2) -0.19934(19) 0.0000
O19A O -0.19934(19) 0.1121(2) 0.0000
O19B O 0.1121(2) 0.19934(19) 0.0000
C1B C -0.00659(11) 0.31247(13) 0.13510(7)
C1A C -0.31247(13) -0.00659(11) 0.13510(7)
C1C C 0.00659(11) -0.31247(13) 0.13510(7)
C1J C 0.00659(11) -0.31247(13) -0.13510(7)
C1I C 0.31247(13) 0.00659(11) -0.13510(7)
C1K C -0.00659(11) 0.31247(13) -0.13510(7)
C1H C -0.31247(13) -0.00659(11) -0.13510(7)
C2C C -0.02980(12) -0.34946(13) 0.11770(7)
C2J C -0.02980(12) -0.34946(13) -0.11770(7)
C2H C -0.34946(13) 0.02980(12) -0.11770(7)
C2A C -0.34946(13) 0.02980(12) 0.11770(7)
C2K C 0.02980(12) 0.34946(13) -0.11770(7)
C2B C 0.02980(12) 0.34946(13) 0.11770(7)
C2I C 0.34946(13) -0.02980(12) -0.11770(7)
C3C C -0.03574(16) -0.39941(16) 0.13020(10)
C3J C -0.03574(16) -0.39941(16) -0.13020(10)
C3H C -0.39941(16) 0.03574(16) -0.13020(10)
C3A C -0.39941(16) 0.03574(16) 0.13020(10)
C3K C 0.03574(16) 0.39941(16) -0.13020(10)
C3B C 0.03574(16) 0.39941(16) 0.13020(10)
C3I C 0.39941(16) -0.03574(16) -0.13020(10)
H4C H -0.0155 -0.4111 0.1489
H4J H -0.0155 -0.4111 -0.1489
H4H H -0.4111 0.0155 -0.1489
H4A H -0.4111 0.0155 0.1489
H4K H 0.0155 0.4111 -0.1489
H4B H 0.0155 0.4111 0.1489
H4I H 0.4111 -0.0155 -0.1489
C4C C -0.0711(2) -0.43158(19) 0.11525(12)
C4J C -0.0711(2) -0.43158(19) -0.11525(12)
C4H C -0.43158(19) 0.0711(2) -0.11525(12)
C4A C -0.43158(19) 0.0711(2) 0.11525(12)
C4K C 0.0711(2) 0.43158(19) -0.11525(12)
C4B C 0.0711(2) 0.43158(19) 0.11525(12)
C4I C 0.43158(19) -0.0711(2) -0.11525(12)
C5C C -0.10032(16) -0.41579(17) 0.08752(10)
C5J C -0.10032(16) -0.41579(17) -0.08752(10)
C5H C -0.41579(17) 0.10032(16) -0.08752(10)
C5A C -0.41579(17) 0.10032(16) 0.08752(10)
C5K C 0.10032(16) 0.41579(17) -0.08752(10)
C5B C 0.10032(16) 0.41579(17) 0.08752(10)
C5I C 0.41579(17) -0.10032(16) -0.08752(10)
H5C H -0.1241 -0.4388 0.0770
H5J H -0.1241 -0.4388 -0.0770
H5H H -0.4388 0.1241 -0.0770
H5A H -0.4388 0.1241 0.0770
H5K H 0.1241 0.4388 -0.0770
H5B H 0.1241 0.4388 0.0770
H5I H 0.4388 -0.1241 -0.0770
C6C C -0.09434(12) -0.36614(14) 0.07533(8)
C6J C -0.09434(12) -0.36614(14) -0.07533(8)
C6H C -0.36614(14) 0.09434(12) -0.07533(8)
C6A C -0.36614(14) 0.09434(12) 0.07533(8)
C6K C 0.09434(12) 0.36614(14) -0.07533(8)
C6B C 0.09434(12) 0.36614(14) 0.07533(8)
C6I C 0.36614(14) -0.09434(12) -0.07533(8)
C7C C -0.05842(11) -0.33354(13) 0.08999(7)
C7J C -0.05842(11) -0.33354(13) -0.08999(7)
C7H C -0.33354(13) 0.05842(11) -0.08999(7)
C7A C -0.33354(13) 0.05842(11) 0.08999(7)
C7K C 0.05842(11) 0.33354(13) -0.08999(7)
C7B C 0.05842(11) 0.33354(13) 0.08999(7)
C7I C 0.33354(13) -0.05842(11) -0.08999(7)
H6C H -0.0534 -0.2999 0.0809
H6J H -0.0534 -0.2999 -0.0809
H6H H -0.2999 0.0534 -0.0809
H6A H -0.2999 0.0534 0.0809
H6K H 0.0534 0.2999 -0.0809
H6B H 0.0534 0.2999 0.0809
H6I H 0.2999 -0.0534 -0.0809
C8I C 0.34676(14) -0.12768(12) -0.04619(7)
C8J C -0.12768(12) -0.34676(14) -0.04619(7)
C8C C -0.12768(12) -0.34676(14) 0.04619(7)
C8H C -0.34676(14) 0.12768(12) -0.04619(7)
C8A C -0.34676(14) 0.12768(12) 0.04619(7)
C8K C 0.12768(12) 0.34676(14) -0.04619(7)
C8B C 0.12768(12) 0.34676(14) 0.04619(7)
C9B C -0.14256(11) 0.27791(12) 0.13536(7)
C9A C -0.27791(12) -0.14256(11) 0.13536(7)
C9C C 0.14256(11) -0.27791(12) 0.13536(7)
C9J C 0.14256(11) -0.27791(12) -0.13536(7)
C9I C 0.27791(12) 0.14256(11) -0.13536(7)
C9K C -0.14256(11) 0.27791(12) -0.13536(7)
C9H C -0.27791(12) -0.14256(11) -0.13536(7)
C10C C 0.19134(11) -0.29312(12) 0.11752(7)
C10J C 0.19134(11) -0.29312(12) -0.11752(7)
C10H C -0.29312(12) -0.19134(11) -0.11752(7)
C10A C -0.29312(12) -0.19134(11) 0.11752(7)
C10B C -0.19134(11) 0.29312(12) 0.11752(7)
C10K C -0.19134(11) 0.29312(12) -0.11752(7)
C10I C 0.29312(12) 0.19134(11) -0.11752(7)
C11C C 0.21936(12) -0.33675(12) 0.12821(8)
C11J C 0.21936(12) -0.33675(12) -0.12821(8)
C11H C -0.33675(12) -0.21936(12) -0.12821(8)
C11A C -0.33675(12) -0.21936(12) 0.12821(8)
C11B C -0.21936(12) 0.33675(12) 0.12821(8)
C11K C -0.21936(12) 0.33675(12) -0.12821(8)
C11I C 0.33675(12) 0.21936(12) -0.12821(8)
H7C H 0.2071 -0.3573 0.1466
H7H H -0.3573 -0.2071 -0.1466
H7A H -0.3573 -0.2071 0.1466
H7B H -0.2071 0.3573 0.1466
H7K H -0.2071 0.3573 -0.1466
H7I H 0.3573 0.2071 -0.1466
H7J H 0.2071 -0.3573 -0.1466
C12C C 0.26511(13) -0.34956(13) 0.11175(8)
C12J C 0.26511(13) -0.34956(13) -0.11175(8)
C12H C -0.34956(13) -0.26511(13) -0.11175(8)
C12A C -0.34956(13) -0.26511(13) 0.11175(8)
C12B C -0.26511(13) 0.34956(13) 0.11175(8)
C12K C -0.26511(13) 0.34956(13) -0.11175(8)
C12I C 0.34956(13) 0.26511(13) -0.11175(8)
C13C C 0.28286(13) -0.31973(13) 0.08500(8)
C13J C 0.28286(13) -0.31973(13) -0.08500(8)
C13H C -0.31973(13) -0.28286(13) -0.08500(8)
C13A C -0.31973(13) -0.28286(13) 0.08500(8)
C13B C -0.28286(13) 0.31973(13) 0.08500(8)
C13K C -0.28286(13) 0.31973(13) -0.08500(8)
C13I C 0.31973(13) 0.28286(13) -0.08500(8)
H8C H 0.3141 -0.3287 0.0737
H8H H -0.3287 -0.3141 -0.0737
H8A H -0.3287 -0.3141 0.0737
H8B H -0.3141 0.3287 0.0737
H8K H -0.3141 0.3287 -0.0737
H8I H 0.3287 0.3141 -0.0737
H8J H 0.3141 -0.3287 -0.0737
C14C C 0.25521(12) -0.27681(12) 0.07455(7)
C14J C 0.25521(12) -0.27681(12) -0.07455(7)
C14H C -0.27681(12) -0.25521(12) -0.07455(7)
C14A C -0.27681(12) -0.25521(12) 0.07455(7)
C14B C -0.25521(12) 0.27681(12) 0.07455(7)
C14K C -0.25521(12) 0.27681(12) -0.07455(7)
C14I C 0.27681(12) 0.25521(12) -0.07455(7)
C15C C 0.20926(11) -0.26332(12) 0.09055(7)
C15H C -0.26332(12) -0.20926(11) -0.09055(7)
C15A C -0.26332(12) -0.20926(11) 0.09055(7)
C15B C -0.20926(11) 0.26332(12) 0.09055(7)
C15K C -0.20926(11) 0.26332(12) -0.09055(7)
C15I C 0.26332(12) 0.20926(11) -0.09055(7)
C15J C 0.20926(11) -0.26332(12) -0.09055(7)
H9C H 0.1903 -0.2340 0.0831
H9H H -0.2340 -0.1903 -0.0831
H9A H -0.2340 -0.1903 0.0831
H9B H -0.1903 0.2340 0.0831
H9K H -0.1903 0.2340 -0.0831
H9I H 0.2340 0.1903 -0.0831
H9J H 0.1903 -0.2340 -0.0831
C16I C 0.27616(12) -0.24304(13) -0.04613(7)
C16J C -0.24304(13) -0.27616(12) -0.04613(7)
C16C C -0.24304(13) -0.27616(12) 0.04613(7)
C16H C -0.27616(12) 0.24304(13) -0.04613(7)
C16A C -0.27616(12) 0.24304(13) 0.04613(7)
C16K C 0.24304(13) 0.27616(12) -0.04613(7)
C16B C 0.24304(13) 0.27616(12) 0.04613(7)
C17B C 0.01809(11) 0.21890(13) 0.19737(8)
C17A C -0.21890(13) 0.01809(11) 0.19737(8)
C17C C -0.01809(11) -0.21890(13) 0.19737(8)
C17J C -0.01809(11) -0.21890(13) -0.19737(8)
C17I C 0.21890(13) -0.01809(11) -0.19737(8)
C17K C 0.01809(11) 0.21890(13) -0.19737(8)
C17H C -0.21890(13) 0.01809(11) -0.19737(8)
C18B C 0.06650(11) 0.20109(13) 0.21494(8)
C18A C -0.20109(13) 0.06650(11) 0.21494(8)
C18C C -0.06650(11) -0.20109(13) 0.21494(8)
C18I C 0.20109(13) -0.06650(11) -0.21494(8)
C18K C 0.06650(11) 0.20109(13) -0.21494(8)
C18H C -0.20109(13) 0.06650(11) -0.21494(8)
C18J C -0.06650(11) -0.20109(13) -0.21494(8)
C19B C 0.07851(13) 0.22043(15) 0.24748(9)
C19A C -0.22043(15) 0.07851(13) 0.24748(9)
C19C C -0.07851(13) -0.22043(15) 0.24748(9)
C19I C 0.22043(15) -0.07851(13) -0.24748(9)
C19K C 0.07851(13) 0.22043(15) -0.24748(9)
C19H C -0.22043(15) 0.07851(13) -0.24748(9)
C19J C -0.07851(13) -0.22043(15) -0.24748(9)
H10J H -0.0565 -0.2451 -0.2580
H10H H -0.2451 0.0565 -0.2580
H10K H 0.0565 0.2451 -0.2580
H10I H 0.2451 -0.0565 -0.2580
H10C H -0.0565 -0.2451 0.2580
H10A H -0.2451 0.0565 0.2580
H10B H 0.0565 0.2451 0.2580
C20B C 0.12278(14) 0.20344(16) 0.26432(9)
C20A C -0.20344(16) 0.12278(14) 0.26432(9)
C20C C -0.12278(14) -0.20344(16) 0.26432(9)
C20I C 0.20344(16) -0.12278(14) -0.26432(9)
C20K C 0.12278(14) 0.20344(16) -0.26432(9)
C20H C -0.20344(16) 0.12278(14) -0.26432(9)
C20J C -0.12278(14) -0.20344(16) -0.26432(9)
C21B C 0.15634(13) 0.16928(14) 0.24802(8)
C21A C -0.16928(14) 0.15634(13) 0.24802(8)
C21C C -0.15634(13) -0.16928(14) 0.24802(8)
C21I C 0.16928(14) -0.15634(13) -0.24802(8)
C21K C 0.15634(13) 0.16928(14) -0.24802(8)
C21H C -0.16928(14) 0.15634(13) -0.24802(8)
C21J C -0.15634(13) -0.16928(14) -0.24802(8)
H11J H -0.1872 -0.1584 -0.2591
H11H H -0.1584 0.1872 -0.2591
H11K H 0.1872 0.1584 -0.2591
H11I H 0.1584 -0.1872 -0.2591
H11C H -0.1872 -0.1584 0.2591
H11A H -0.1584 0.1872 0.2591
H11B H 0.1872 0.1584 0.2591
C22B C 0.14456(11) 0.15113(12) 0.21546(7)
C22A C -0.15113(12) 0.14456(11) 0.21546(7)
C22C C -0.14456(11) -0.15113(12) 0.21546(7)
C22I C 0.15113(12) -0.14456(11) -0.21546(7)
C22K C 0.14456(11) 0.15113(12) -0.21546(7)
C22H C -0.15113(12) 0.14456(11) -0.21546(7)
C22J C -0.14456(11) -0.15113(12) -0.21546(7)
C23J C -0.09917(11) -0.16643(12) -0.19907(8)
C23H C -0.16643(12) 0.09917(11) -0.19907(8)
C23K C 0.09917(11) 0.16643(12) -0.19907(8)
C23I C 0.16643(12) -0.09917(11) -0.19907(8)
C23C C -0.09917(11) -0.16643(12) 0.19907(8)
C23A C -0.16643(12) 0.09917(11) 0.19907(8)
C23B C 0.09917(11) 0.16643(12) 0.19907(8)
H12J H -0.0908 -0.1531 -0.1771
H12H H -0.1531 0.0908 -0.1771
H12K H 0.0908 0.1531 -0.1771
H12I H 0.1531 -0.0908 -0.1771
H12C H -0.0908 -0.1531 0.1771
H12A H -0.1531 0.0908 0.1771
H12B H 0.0908 0.1531 0.1771
C24B C -0.11660(11) 0.18247(11) 0.19729(7)
C24A C -0.18247(11) -0.11660(11) 0.19729(7)
C24C C 0.11660(11) -0.18247(11) 0.19729(7)
C24J C 0.11660(11) -0.18247(11) -0.19729(7)
C24I C 0.18247(11) 0.11660(11) -0.19729(7)
C24K C -0.11660(11) 0.18247(11) -0.19729(7)
C24H C -0.18247(11) -0.11660(11) -0.19729(7)
loop_
_geom_bond_atom_site_label_1
_geom_bond_atom_site_label_2
_geom_bond_site_symmetry_1
_geom_bond_site_symmetry_2
Cu1 Cu2 1_555 1_555
Cu2 O2 1_555 1_555
Cu3 Cu4 1_555 1_555
Cu4 O4 1_555 1_555
O1 Cu1 1_555 1_555
O2 C1 1_555 1_555
O3 Cu3 1_555 1_555
O4 C8 1_555 1_555
O5 Cu1 1_555 1_555
O6 Cu2 1_555 1_555
O7 Cu3 1_555 1_555
O8 Cu4 1_555 1_555
O9 Cu1 1_555 1_555
O10 Cu2 1_555 1_555
O11 Cu1 1_555 1_555
O12 Cu2 1_555 1_555
O13 H1 1_555 1_555
O14 H2 1_555 1_555
O15 H3 1_555 1_555
O16 Cu1 1_555 1_555
O17 Cu2 1_555 1_555
O18 Cu3 1_555 1_555
O19 Cu4 1_555 1_555
C1 O1 1_555 1_555
C2 C1 1_555 1_555
C3 C2 1_555 1_555
H4 C3 1_555 1_555
C4 O13 1_555 1_555
C5 C4 1_555 1_555
H5 C5 1_555 1_555
C6 C5 1_555 1_555
C7 C2 1_555 1_555
H6 C7 1_555 1_555
C8 O3 1_555 1_555
C9 O5 1_555 1_555
C10 C9 1_555 1_555
C11 C10 1_555 1_555
H7 C11 1_555 1_555
C12 O14 1_555 1_555
C13 C12 1_555 1_555
H8 C13 1_555 1_555
C14 C13 1_555 1_555
C15 C10 1_555 1_555
H9 C15 1_555 1_555
C16 O7 1_555 1_555
C17 O9 1_555 1_555
C18 C17 1_555 1_555
C19 C18 1_555 1_555
H10 C19 1_555 1_555
C20 O15 1_555 1_555
C21 C20 1_555 1_555
H11 C21 1_555 1_555
C22 C21 1_555 1_555
C23 C18 1_555 1_555
H12 C23 1_555 1_555
C24 O11 1_555 1_555
Cu1B Cu2B 1_555 1_555
Cu1A Cu2A 1_555 1_555
Cu1C Cu2C 1_555 1_555
Cu1J Cu2J 1_555 1_555
Cu1I Cu2I 1_555 1_555
Cu1K Cu2K 1_555 1_555
Cu1H Cu2H 1_555 1_555
Cu2B O2B 1_555 1_555
Cu2A O2A 1_555 1_555
Cu2C O2C 1_555 1_555
Cu2J O2J 1_555 1_555
Cu2I O2I 1_555 1_555
Cu2K O2K 1_555 1_555
Cu2H O2H 1_555 1_555
Cu3C Cu4C 1_555 1_555
Cu3A Cu4A 1_555 1_555
Cu3B Cu4B 1_555 1_555
Cu4C O4J 1_555 1_555
Cu4A O4H 1_555 1_555
Cu4B O4K 1_555 1_555
O1B Cu1B 1_555 1_555
O1A Cu1A 1_555 1_555
O1C Cu1C 1_555 1_555
O1J Cu1J 1_555 1_555
O1I Cu1I 1_555 1_555
O1K Cu1K 1_555 1_555
O1H Cu1H 1_555 1_555
O2B C1B 1_555 1_555
O2A C1A 1_555 1_555
O2C C1C 1_555 1_555
O2J C1J 1_555 1_555
O2I C1I 1_555 1_555
O2K C1K 1_555 1_555
O2H C1H 1_555 1_555
O3I Cu3 1_555 1_555
O3J Cu3C 1_555 1_555
O3C Cu3C 1_555 1_555
O3H Cu3A 1_555 1_555
O3A Cu3A 1_555 1_555
O3K Cu3B 1_555 1_555
O3B Cu3B 1_555 1_555
O4I Cu4 1_555 1_555
O4J C8J 1_555 1_555
O4C Cu4C 1_555 1_555
O4H C8H 1_555 1_555
O4A Cu4A 1_555 1_555
O4K C8K 1_555 1_555
O4B Cu4B 1_555 1_555
O5B Cu1B 1_555 1_555
O5A Cu1A 1_555 1_555
O5C Cu1C 1_555 1_555
O5J Cu1J 1_555 1_555
O5I Cu1I 1_555 1_555
O5K Cu1K 1_555 1_555
O5H Cu1H 1_555 1_555
O6B Cu2B 1_555 1_555
O6A Cu2A 1_555 1_555
O6C Cu2C 1_555 1_555
O6J Cu2J 1_555 1_555
O6I Cu2I 1_555 1_555
O6K Cu2K 1_555 1_555
O6H Cu2H 1_555 1_555
O7I Cu3 1_555 1_555
O7J Cu3C 1_555 1_555
O7C Cu3C 1_555 1_555
O7H Cu3A 1_555 1_555
O7A Cu3A 1_555 1_555
O7K Cu3B 1_555 1_555
O7B Cu3B 1_555 1_555
O8I Cu4 1_555 1_555
O8J Cu4C 1_555 1_555
O8C Cu4C 1_555 1_555
O8H Cu4A 1_555 1_555
O8A Cu4A 1_555 1_555
O8K Cu4B 1_555 1_555
O8B Cu4B 1_555 1_555
O9B Cu1B 1_555 1_555
O9A Cu1A 1_555 1_555
O9C Cu1C 1_555 1_555
O9J Cu1J 1_555 1_555
O9I Cu1I 1_555 1_555
O9K Cu1K 1_555 1_555
O9H Cu1H 1_555 1_555
O10B Cu2B 1_555 1_555
O10A Cu2A 1_555 1_555
O10C Cu2C 1_555 1_555
O10J Cu2J 1_555 1_555
O10I Cu2I 1_555 1_555
O10K Cu2K 1_555 1_555
O10H Cu2H 1_555 1_555
O11B Cu1B 1_555 1_555
O11A Cu1A 1_555 1_555
O11C Cu1C 1_555 1_555
O11J Cu1J 1_555 1_555
O11I Cu1I 1_555 1_555
O11K Cu1K 1_555 1_555
O11H Cu1H 1_555 1_555
O12B Cu2B 1_555 1_555
O12A Cu2A 1_555 1_555
O12C Cu2C 1_555 1_555
O12J Cu2J 1_555 1_555
O12I Cu2I 1_555 1_555
O12K Cu2K 1_555 1_555
O12H Cu2H 1_555 1_555
O13C H1C 1_555 1_555
O13J H1J 1_555 1_555
O13H H1H 1_555 1_555
O13A H1A 1_555 1_555
O13K H1K 1_555 1_555
O13B H1B 1_555 1_555
O13I H1I 1_555 1_555
O14C H2C 1_555 1_555
O14J H2J 1_555 1_555
O14H H2H 1_555 1_555
O14A H2A 1_555 1_555
O14B H2B 1_555 1_555
O14K H2K 1_555 1_555
O14I H2I 1_555 1_555
O15B H3B 1_555 1_555
O15A H3A 1_555 1_555
O15C H3C 1_555 1_555
O15I H3I 1_555 1_555
O15K H3K 1_555 1_555
O15H H3H 1_555 1_555
O15J H3J 1_555 1_555
O16B Cu1B 1_555 1_555
O16A Cu1A 1_555 1_555
O16C Cu1C 1_555 1_555
O16J Cu1J 1_555 1_555
O16I Cu1I 1_555 1_555
O16K Cu1K 1_555 1_555
O16H Cu1H 1_555 1_555
O17C Cu2C 1_555 1_555
O17H Cu2H 1_555 1_555
O17K Cu2K 1_555 1_555
O17I Cu2I 1_555 1_555
O17J Cu2J 1_555 1_555
O17A Cu2A 1_555 1_555
O17B Cu2B 1_555 1_555
O18C Cu3C 1_555 1_555
O18A Cu3A 1_555 1_555
O18B Cu3B 1_555 1_555
O19C Cu4C 1_555 1_555
O19A Cu4A 1_555 1_555
O19B Cu4B 1_555 1_555
C1B O1B 1_555 1_555
C1A O1A 1_555 1_555
C1C O1C 1_555 1_555
C1J O1J 1_555 1_555
C1I O1I 1_555 1_555
C1K O1K 1_555 1_555
C1H O1H 1_555 1_555
C2C C1C 1_555 1_555
C2J C1J 1_555 1_555
C2H C1H 1_555 1_555
C2A C1A 1_555 1_555
C2K C1K 1_555 1_555
C2B C1B 1_555 1_555
C2I C1I 1_555 1_555
C3C C2C 1_555 1_555
C3J C2J 1_555 1_555
C3H C2H 1_555 1_555
C3A C2A 1_555 1_555
C3K C2K 1_555 1_555
C3B C2B 1_555 1_555
C3I C2I 1_555 1_555
H4C C3C 1_555 1_555
H4J C3J 1_555 1_555
H4H C3H 1_555 1_555
H4A C3A 1_555 1_555
H4K C3K 1_555 1_555
H4B C3B 1_555 1_555
H4I C3I 1_555 1_555
C4C O13C 1_555 1_555
C4J O13J 1_555 1_555
C4H O13H 1_555 1_555
C4A O13A 1_555 1_555
C4K O13K 1_555 1_555
C4B O13B 1_555 1_555
C4I O13I 1_555 1_555
C5C C4C 1_555 1_555
C5J C4J 1_555 1_555
C5H C4H 1_555 1_555
C5A C4A 1_555 1_555
C5K C4K 1_555 1_555
C5B C4B 1_555 1_555
C5I C4I 1_555 1_555
H5C C5C 1_555 1_555
H5J C5J 1_555 1_555
H5H C5H 1_555 1_555
H5A C5A 1_555 1_555
H5K C5K 1_555 1_555
H5B C5B 1_555 1_555
H5I C5I 1_555 1_555
C6C C5C 1_555 1_555
C6J C5J 1_555 1_555
C6H C5H 1_555 1_555
C6A C5A 1_555 1_555
C6K C5K 1_555 1_555
C6B C5B 1_555 1_555
C6I C5I 1_555 1_555
C7C C2C 1_555 1_555
C7J C2J 1_555 1_555
C7H C2H 1_555 1_555
C7A C2A 1_555 1_555
C7K C2K 1_555 1_555
C7B C2B 1_555 1_555
C7I C2I 1_555 1_555
H6C C7C 1_555 1_555
H6J C7J 1_555 1_555
H6H C7H 1_555 1_555
H6A C7A 1_555 1_555
H6K C7K 1_555 1_555
H6B C7B 1_555 1_555
H6I C7I 1_555 1_555
C8I O3I 1_555 1_555
C8J O3J 1_555 1_555
C8C O3C 1_555 1_555
C8H O3H 1_555 1_555
C8A O3A 1_555 1_555
C8K O3K 1_555 1_555
C8B O3B 1_555 1_555
C9B O5B 1_555 1_555
C9A O5A 1_555 1_555
C9C O5C 1_555 1_555
C9J O5J 1_555 1_555
C9I O5I 1_555 1_555
C9K O5K 1_555 1_555
C9H O5H 1_555 1_555
C10C C9C 1_555 1_555
C10J C9J 1_555 1_555
C10H C9H 1_555 1_555
C10A C9A 1_555 1_555
C10B C9B 1_555 1_555
C10K C9K 1_555 1_555
C10I C9I 1_555 1_555
C11C C10C 1_555 1_555
C11J C10J 1_555 1_555
C11H C10H 1_555 1_555
C11A C10A 1_555 1_555
C11B C10B 1_555 1_555
C11K C10K 1_555 1_555
C11I C10I 1_555 1_555
H7C C11C 1_555 1_555
H7H C11H 1_555 1_555
H7A C11A 1_555 1_555
H7B C11B 1_555 1_555
H7K C11K 1_555 1_555
H7I C11I 1_555 1_555
H7J C11J 1_555 1_555
C12C O14C 1_555 1_555
C12J O14J 1_555 1_555
C12H O14H 1_555 1_555
C12A O14A 1_555 1_555
C12B O14B 1_555 1_555
C12K O14K 1_555 1_555
C12I O14I 1_555 1_555
C13C C12C 1_555 1_555
C13J C12J 1_555 1_555
C13H C12H 1_555 1_555
C13A C12A 1_555 1_555
C13B C12B 1_555 1_555
C13K C12K 1_555 1_555
C13I C12I 1_555 1_555
H8C C13C 1_555 1_555
H8H C13H 1_555 1_555
H8A C13A 1_555 1_555
H8B C13B 1_555 1_555
H8K C13K 1_555 1_555
H8I C13I 1_555 1_555
H8J C13J 1_555 1_555
C14C C16 1_555 1_555
C14J C13J 1_555 1_555
C14H C13H 1_555 1_555
C14A C13A 1_555 1_555
C14B C13B 1_555 1_555
C14K C13K 1_555 1_555
C14I C13I 1_555 1_555
C15C C10C 1_555 1_555
C15H C10H 1_555 1_555
C15A C10A 1_555 1_555
C15B C10B 1_555 1_555
C15K C10K 1_555 1_555
C15I C10I 1_555 1_555
C15J C10J 1_555 1_555
H9C C15C 1_555 1_555
H9H C15H 1_555 1_555
H9A C15A 1_555 1_555
H9B C15B 1_555 1_555
H9K C15K 1_555 1_555
H9I C15I 1_555 1_555
H9J C15J 1_555 1_555
C16I O7I 1_555 1_555
C16J O7J 1_555 1_555
C16C O7C 1_555 1_555
C16H O7H 1_555 1_555
C16A O7A 1_555 1_555
C16K O7K 1_555 1_555
C16B C14 1_555 1_555
C17B O9B 1_555 1_555
C17A O9A 1_555 1_555
C17C O9C 1_555 1_555
C17J O9J 1_555 1_555
C17I O9I 1_555 1_555
C17K O9K 1_555 1_555
C17H O9H 1_555 1_555
C18B C17B 1_555 1_555
C18A C17A 1_555 1_555
C18C C17C 1_555 1_555
C18I C17I 1_555 1_555
C18K C17K 1_555 1_555
C18H C17H 1_555 1_555
C18J C17J 1_555 1_555
C19B C18B 1_555 1_555
C19A C18A 1_555 1_555
C19C C18C 1_555 1_555
C19I C18I 1_555 1_555
C19K C18K 1_555 1_555
C19H C18H 1_555 1_555
C19J C18J 1_555 1_555
H10J C19J 1_555 1_555
H10H C19H 1_555 1_555
H10K C19K 1_555 1_555
H10I C19I 1_555 1_555
H10C C19C 1_555 1_555
H10A C19A 1_555 1_555
H10B C19B 1_555 1_555
C20B O15B 1_555 1_555
C20A O15A 1_555 1_555
C20C O15C 1_555 1_555
C20I O15I 1_555 1_555
C20K O15K 1_555 1_555
C20H O15H 1_555 1_555
C20J O15J 1_555 1_555
C21B C20B 1_555 1_555
C21A C20A 1_555 1_555
C21C C20C 1_555 1_555
C21I C20I 1_555 1_555
C21K C20K 1_555 1_555
C21H C20H 1_555 1_555
C21J C20J 1_555 1_555
H11J C21J 1_555 1_555
H11H C21H 1_555 1_555
H11K C21K 1_555 1_555
H11I C21I 1_555 1_555
H11C C21C 1_555 1_555
H11A C21A 1_555 1_555
H11B C21B 1_555 1_555
C22B C24 1_555 1_555
C22A C21A 1_555 1_555
C22C C21C 1_555 1_555
C22I C21I 1_555 1_555
C22K C21K 1_555 1_555
C22H C21H 1_555 1_555
C22J C21J 1_555 1_555
C23J C18J 1_555 1_555
C23H C18H 1_555 1_555
C23K C18K 1_555 1_555
C23I C18I 1_555 1_555
C23C C18C 1_555 1_555
C23A C18A 1_555 1_555
C23B C18B 1_555 1_555
H12J C23J 1_555 1_555
H12H C23H 1_555 1_555
H12K C23K 1_555 1_555
H12I C23I 1_555 1_555
H12C C23C 1_555 1_555
H12A C23A 1_555 1_555
H12B C23B 1_555 1_555
C24B O11B 1_555 1_555
C24A O11A 1_555 1_555
C24C C22 1_555 1_555
C24J O11J 1_555 1_555
C24I O11I 1_555 1_555
C24K O11K 1_555 1_555
C24H O11H 1_555 1_555
O6 C9 1_555 1_555
O8 C16 1_555 1_555
O10 C17 1_555 1_555
O12 C24 1_555 1_555
C3 C4 1_555 1_555
C6 C7 1_555 1_555
C6 C8 1_555 1_555
C11 C12 1_555 1_555
C14 C15 1_555 1_555
C19 C20 1_555 1_555
C22 C23 1_555 1_555
O4I C8I 1_555 1_555
O4C C8C 1_555 1_555
O4A C8A 1_555 1_555
O4B C8B 1_555 1_555
O6B C9B 1_555 1_555
O6A C9A 1_555 1_555
O6C C9C 1_555 1_555
O6J C9J 1_555 1_555
O6I C9I 1_555 1_555
O6K C9K 1_555 1_555
O6H C9H 1_555 1_555
O7B C16B 1_555 1_555
O8I C16I 1_555 1_555
O8J C16J 1_555 1_555
O8C C16C 1_555 1_555
O8H C16H 1_555 1_555
O8A C16A 1_555 1_555
O8K C16K 1_555 1_555
O8B C16B 1_555 1_555
O10B C17B 1_555 1_555
O10A C17A 1_555 1_555
O10C C17C 1_555 1_555
O10J C17J 1_555 1_555
O10I C17I 1_555 1_555
O10K C17K 1_555 1_555
O10H C17H 1_555 1_555
O11C C24C 1_555 1_555
O12B C24B 1_555 1_555
O12A C24A 1_555 1_555
O12C C24C 1_555 1_555
O12J C24J 1_555 1_555
O12I C24I 1_555 1_555
O12K C24K 1_555 1_555
O12H C24H 1_555 1_555
C3C C4C 1_555 1_555
C3J C4J 1_555 1_555
C3H C4H 1_555 1_555
C3A C4A 1_555 1_555
C3K C4K 1_555 1_555
C3B C4B 1_555 1_555
C3I C4I 1_555 1_555
C6C C7C 1_555 1_555
C6C C8C 1_555 1_555
C6J C7J 1_555 1_555
C6J C8J 1_555 1_555
C6H C7H 1_555 1_555
C6H C8H 1_555 1_555
C6A C7A 1_555 1_555
C6A C8A 1_555 1_555
C6K C7K 1_555 1_555
C6K C8K 1_555 1_555
C6B C7B 1_555 1_555
C6B C8B 1_555 1_555
C6I C7I 1_555 1_555
C6I C8I 1_555 1_555
C11C C12C 1_555 1_555
C11J C12J 1_555 1_555
C11H C12H 1_555 1_555
C11A C12A 1_555 1_555
C11B C12B 1_555 1_555
C11K C12K 1_555 1_555
C11I C12I 1_555 1_555
C13C C14C 1_555 1_555
C14C C15C 1_555 1_555
C14J C15J 1_555 1_555
C14J C16I 1_555 1_555
C14H C15H 1_555 1_555
C14H C16J 1_555 1_555
C14A C15A 1_555 1_555
C14A C16C 1_555 1_555
C14B C15B 1_555 1_555
C14B C16A 1_555 1_555
C14K C15K 1_555 1_555
C14K C16H 1_555 1_555
C14I C15I 1_555 1_555
C14I C16K 1_555 1_555
C19B C20B 1_555 1_555
C19A C20A 1_555 1_555
C19C C20C 1_555 1_555
C19I C20I 1_555 1_555
C19K C20K 1_555 1_555
C19H C20H 1_555 1_555
C19J C20J 1_555 1_555
C21B C22B 1_555 1_555
C22B C23B 1_555 1_555
C22A C23A 1_555 1_555
C22A C24B 1_555 1_555
C22C C23C 1_555 1_555
C22C C24A 1_555 1_555
C22I C23I 1_555 1_555
C22I C24J 1_555 1_555
C22K C23K 1_555 1_555
C22K C24I 1_555 1_555
C22H C23H 1_555 1_555
C22H C24K 1_555 1_555
C22J C23J 1_555 1_555
C22J C24H 1_555 1_555

#END
