
#######################################################################
#
#                 Cambridge Crystallographic Data Centre
#                                CCDC 
#
#######################################################################
#
# If this CIF has been generated from an entry in the Cambridge 
# Structural Database, then it will include bibliographic, chemical, 
# crystal, experimental, refinement or atomic coordinate data resulting 
# from the CCDC's data processing and validation procedures.
#
#######################################################################

data_XAJDET
_chemical_formula_moiety         'C108 H76 Cu4 N4 O20'
_chemical_name_systematic        
'tetrakis(\m~4~-4-isopropyl-2,6-bis(2-(4-carboxyphenyl)ethynyl)aniline)-tetrakis(unknown)-tetra-copper unknown solvate'
_symmetry_cell_setting           monoclinic
_symmetry_space_group_name_H-M   'P 21/n'
_symmetry_Int_Tables_number      14
_space_group_name_Hall           '-P 2yn'
loop_
_symmetry_equiv_pos_site_id
_symmetry_equiv_pos_as_xyz
1 x,y,z
2 1/2-x,1/2+y,1/2-z
3 -x,-y,-z
4 1/2+x,1/2-y,1/2+z
_cell_length_a                   18.0347(12)
_cell_length_b                   31.135(2)
_cell_length_c                   27.1691(18)
_cell_angle_alpha                90
_cell_angle_beta                 105.5870(10)
_cell_angle_gamma                90
_cell_volume                     14694.7
_exptl_crystal_colour            green
_exptl_crystal_description       block
_cell_formula_units_Z            8
loop_
_atom_site_label
_atom_site_type_symbol
_atom_site_fract_x
_atom_site_fract_y
_atom_site_fract_z
Cu1 Cu 0.89585(3) 0.06277(2) 0.70087(2)
Cu2 Cu 0.78802(3) 0.10318(2) 0.73137(2)
Cu3 Cu 0.29007(4) 0.27720(3) 0.85775(3)
Cu4 Cu 0.39707(4) 0.23685(3) 0.82742(3)
O1 O 0.81256(19) 0.03140(13) 0.65495(15)
O2 O 0.72034(18) 0.06191(12) 0.68450(13)
O3 O 0.2201(2) 0.24352(14) 0.80331(16)
O4 O 0.3128(2) 0.20229(15) 0.78626(18)
O5 O 0.2932(2) 0.31918(15) 0.80483(18)
O6 O 0.3743(2) 0.28063(15) 0.77291(17)
O7 O 0.8798(2) 0.11017(12) 0.65101(14)
O8 O 0.78228(19) 0.14171(11) 0.67420(13)
O9 O 0.96827(19) 0.09612(14) 0.75176(14)
O10 O 0.87672(19) 0.13530(12) 0.77305(13)
O11 O 0.3792(2) 0.30477(15) 0.90619(17)
O12 O 0.4692(2) 0.27619(16) 0.87216(17)
O13 O 0.2988(2) 0.22950(14) 0.90655(17)
O14 O 0.4008(2) 0.19931(15) 0.88712(18)
O15 O 0.8863(2) 0.02220(13) 0.75528(15)
O16 O 0.8016(2) 0.06029(12) 0.78499(13)
O17 O 0.9867(2) 0.02804(13) 0.68014(14)
O18 O 0.7038(3) 0.13813(17) 0.75908(18)
O19 O 0.2000(3) 0.31076(14) 0.88138(18)
O20 O 0.4859(3) 0.20141(18) 0.8054(2)
N1 N 0.3517(3) 0.05042(18) 0.6437(2)
H1 H 0.3356 0.0657 0.6660
H2 H 0.4011 0.0450 0.6489
N2 N 0.5552(3) 0.3033(2) 0.6086(2)
H3 H 0.5892 0.2824 0.6134
H4 H 0.5267 0.3068 0.6300
N3 N 0.8424(3) 0.28344(19) 0.9119(2)
H5 H 0.7926 0.2864 0.9079
H6 H 0.8594 0.2648 0.8931
N4 N 0.6018(4) 0.03375(18) 0.9511(3)
H7 H 0.6226 0.0277 0.9261
H8 H 0.5605 0.0500 0.9453
C1 C 0.7435(3) 0.03580(18) 0.6574(2)
C2 C 0.68509(19) 0.00723(14) 0.62415(17)
C3 C 0.70874(15) -0.02486(15) 0.59617(19)
H9 H 0.7620 -0.0294 0.5998
C4 C 0.6544(2) -0.05034(13) 0.56286(18)
H10 H 0.6706 -0.0723 0.5437
C5 C 0.57642(19) -0.04373(14) 0.55753(17)
H11 H 0.5393 -0.0611 0.5348
C6 C 0.55277(15) -0.01164(15) 0.58551(19)
C7 C 0.6071(2) 0.01384(13) 0.61882(18)
H12 H 0.5909 0.0358 0.6379
C8 C 0.4717(4) -0.0040(2) 0.5800(3)
C9 C 0.4050(3) 0.0009(2) 0.5738(3)
C10 C 0.32507(16) 0.01095(18) 0.56531(18)
C11 C 0.2724(2) -0.00455(17) 0.52177(16)
H13 H 0.2896 -0.0210 0.4976
C12 C 0.1944(2) 0.00406(12) 0.51362(12)
C13 C 0.16908(17) 0.02818(18) 0.54901(19)
H14 H 0.1158 0.0341 0.5434
C14 C 0.2218(3) 0.04369(17) 0.59256(17)
C15 C 0.2998(2) 0.03507(13) 0.60071(13)
C16 C 0.1951(4) 0.0716(2) 0.6260(2)
C17 C 0.1743(4) 0.0970(2) 0.6523(2)
C18 C 0.1499(2) 0.13027(11) 0.68124(15)
C19 C 0.07240(19) 0.14057(13) 0.67218(14)
H15 H 0.0346 0.1242 0.6485
C20 C 0.05016(15) 0.17478(14) 0.69786(16)
H16 H -0.0028 0.1818 0.6917
C21 C 0.1054(2) 0.19869(12) 0.73258(15)
H17 H 0.0902 0.2221 0.7501
C22 C 0.18291(18) 0.18839(12) 0.74164(14)
C23 C 0.20516(16) 0.15418(13) 0.71597(15)
H18 H 0.2581 0.1471 0.7222
C24 C 0.2435(3) 0.2134(2) 0.7805(2)
C25 C 0.1381(2) -0.01362(15) 0.46507(14)
H19 H 0.1679 -0.0284 0.4438
C26 C 0.0913(3) 0.02314(18) 0.43398(18)
H20 H 0.0557 0.0115 0.4030
H21 H 0.1262 0.0436 0.4244
H22 H 0.0620 0.0378 0.4546
C27 C 0.0824(3) -0.04566(18) 0.4788(2)
H23 H 0.0466 -0.0564 0.4474
H24 H 0.0534 -0.0313 0.4998
H25 H 0.1116 -0.0697 0.4979
C28 C 0.3293(3) 0.3118(2) 0.7719(3)
C29 C 0.3162(2) 0.34261(14) 0.72754(16)
C30 C 0.2555(2) 0.37167(16) 0.71881(18)
H26 H 0.2223 0.3720 0.7407
C31 C 0.2433(2) 0.40019(15) 0.6781(2)
H27 H 0.2019 0.4201 0.6721
C32 C 0.2919(3) 0.39966(15) 0.64603(17)
H28 H 0.2836 0.4191 0.6182
C33 C 0.3525(2) 0.37060(17) 0.65476(17)
C34 C 0.3647(2) 0.34208(14) 0.69551(18)
H29 H 0.4061 0.3222 0.7015
C35 C 0.4017(4) 0.3712(3) 0.6206(3)
C36 C 0.4430(4) 0.3685(3) 0.5930(3)
C37 C 0.4925(3) 0.36379(18) 0.55961(16)
C38 C 0.4833(3) 0.39141(15) 0.51821(17)
H30 H 0.4465 0.4139 0.5132
C39 C 0.5280(2) 0.38606(12) 0.48420(11)
C40 C 0.5819(3) 0.35310(17) 0.49159(15)
H31 H 0.6124 0.3495 0.4683
C41 C 0.5910(3) 0.32549(14) 0.53299(17)
C42 C 0.5463(3) 0.33083(13) 0.56700(12)
C43 C 0.6445(3) 0.2910(2) 0.5389(2)
C44 C 0.6865(4) 0.2611(2) 0.5460(2)
C45 C 0.7360(3) 0.22413(13) 0.55078(17)
C46 C 0.7592(3) 0.21144(14) 0.50818(13)
H32 H 0.7423 0.2269 0.4770
C47 C 0.8073(3) 0.17608(14) 0.51112(13)
H33 H 0.8232 0.1674 0.4820
C48 C 0.8321(3) 0.15341(13) 0.55666(16)
H34 H 0.8649 0.1292 0.5587
C49 C 0.8089(3) 0.16610(14) 0.59927(13)
C50 C 0.7608(3) 0.20146(14) 0.59632(14)
H35 H 0.7449 0.2101 0.6254
C51 C 0.8266(3) 0.13739(17) 0.6460(2)
C52 C 0.5222(2) 0.41485(14) 0.43749(13)
H36 H 0.5572 0.4035 0.4176
C53 C 0.4394(3) 0.41534(19) 0.40321(17)
H37 H 0.4365 0.4340 0.3737
H38 H 0.4048 0.4263 0.4226
H39 H 0.4240 0.3861 0.3914
C54 C 0.5458(4) 0.46096(14) 0.45444(18)
H40 H 0.5420 0.4790 0.4243
H41 H 0.5990 0.4611 0.4760
H42 H 0.5116 0.4723 0.4739
C55 C 0.9462(3) 0.12505(19) 0.7767(2)
C56 C 1.00674(17) 0.14996(12) 0.81399(13)
C57 C 1.0840(2) 0.13956(12) 0.82189(14)
H43 H 1.0983 0.1157 0.8046
C58 C 1.14032(14) 0.16400(15) 0.85508(15)
H44 H 1.1931 0.1569 0.8605
C59 C 1.11937(18) 0.19885(13) 0.88039(14)
H45 H 1.1579 0.2156 0.9031
C60 C 1.0421(2) 0.20925(11) 0.87249(14)
C61 C 0.98579(15) 0.18480(12) 0.83930(14)
H46 H 0.9330 0.1919 0.8339
C62 C 1.0194(4) 0.2443(2) 0.8998(2)
C63 C 0.9987(4) 0.2710(2) 0.9238(3)
C64 C 0.9726(2) 0.30292(12) 0.95312(14)
C65 C 1.02601(14) 0.32724(13) 0.98861(15)
H47 H 1.0795 0.3235 0.9922
C66 C 1.00119(16) 0.35703(9) 1.01882(11)
C67 C 0.92295(19) 0.36250(11) 1.01355(14)
H48 H 0.9060 0.3829 1.0342
C68 C 0.86952(13) 0.33818(13) 0.97806(16)
C69 C 0.89434(19) 0.30839(10) 0.94785(11)
C70 C 0.7878(4) 0.3417(2) 0.9768(3)
C71 C 0.7225(4) 0.3421(2) 0.9741(3)
C72 C 0.64258(18) 0.34324(19) 0.9757(2)
C73 C 0.6233(2) 0.36753(18) 1.01341(18)
H49 H 0.6623 0.3822 1.0382
C74 C 0.5470(2) 0.37039(18) 1.01479(18)
H50 H 0.5338 0.3870 1.0405
C75 C 0.48992(18) 0.34897(19) 0.9785(2)
H51 H 0.4378 0.3509 0.9794
C76 C 0.5092(2) 0.32468(18) 0.94079(18)
C77 C 0.5855(2) 0.32182(18) 0.93941(18)
H52 H 0.5987 0.3052 0.9136
C78 C 0.4477(3) 0.3001(2) 0.9035(3)
C79 C 1.05712(18) 0.38485(12) 1.05864(13)
H53 H 1.0306 0.4120 1.0638
C80 C 1.0832(3) 0.36089(19) 1.10965(12)
H54 H 1.1191 0.3790 1.1347
H55 H 1.1090 0.3341 1.1048
H56 H 1.0383 0.3542 1.1221
C81 C 1.1282(2) 0.3960(2) 1.04049(19)
H57 H 1.1634 0.4137 1.0663
H58 H 1.1123 0.4119 1.0082
H59 H 1.1544 0.3695 1.0353
C82 C 0.3523(6) 0.2013(3) 0.9132(3)
C83 C 0.3572(3) 0.16994(16) 0.95427(19)
C84 C 0.3020(3) 0.16985(17) 0.9814(2)
H60 H 0.2611 0.1901 0.9734
C85 C 0.3064(3) 0.14007(18) 1.0202(2)
H61 H 0.2687 0.1400 1.0388
C86 C 0.3662(3) 0.11039(16) 1.03190(19)
H62 H 0.3693 0.0900 1.0584
C87 C 0.4214(3) 0.11048(17) 1.0048(2)
C88 C 0.4170(3) 0.14026(19) 0.9659(2)
H63 H 0.4547 0.1403 0.9474
C89 C 0.4847(6) 0.0791(3) 1.0183(3)
C90 C 0.5365(6) 0.0550(3) 1.0301(3)
C91 C 0.6020(2) 0.02687(15) 1.03984(19)
C92 C 0.6346(3) 0.01064(16) 1.08851(16)
H64 H 0.6122 0.0171 1.1156
C93 C 0.6999(2) -0.01504(11) 1.09760(14)
C94 C 0.7326(2) -0.02449(15) 1.0580(2)
H65 H 0.7773 -0.0420 1.0642
C95 C 0.7000(3) -0.00826(16) 1.00934(17)
C96 C 0.6347(3) 0.01742(13) 1.00025(13)
C97 C 0.7371(5) -0.0163(3) 0.9706(3)
C98 C 0.7659(5) -0.0239(3) 0.9364(3)
C99 C 0.8047(3) -0.03055(18) 0.89709(19)
C100 C 0.8406(4) -0.06971(16) 0.8947(2)
H66 H 0.8394 -0.0916 0.9189
C101 C 0.8781(3) -0.07685(14) 0.8569(2)
H67 H 0.9026 -0.1036 0.8553
C102 C 0.8797(3) -0.04483(18) 0.82160(19)
H68 H 0.9054 -0.0497 0.7958
C103 C 0.8438(4) -0.00568(16) 0.8240(2)
C104 C 0.8063(3) 0.00146(14) 0.8617(2)
H69 H 0.7818 0.0282 0.8634
C105 C 0.8435(6) 0.0286(3) 0.7850(3)
C106 C 0.7368(3) -0.03325(13) 1.15105(13)
H70 H 0.7165 -0.0173 1.1766
C107 C 0.7176(4) -0.08103(15) 1.1530(2)
H71 H 0.7427 -0.0924 1.1871
H72 H 0.7360 -0.0967 1.1273
H73 H 0.6617 -0.0846 1.1460
C108 C 0.8245(3) -0.0282(2) 1.1646(2)
H74 H 0.8474 -0.0401 1.1987
H75 H 0.8376 0.0024 1.1644
H76 H 0.8447 -0.0435 1.1395
loop_
_geom_bond_atom_site_label_1
_geom_bond_atom_site_label_2
_geom_bond_site_symmetry_1
_geom_bond_site_symmetry_2
Cu1 Cu2 1_555 1_555
Cu2 O2 1_555 1_555
Cu3 Cu4 1_555 1_555
Cu4 O4 1_555 1_555
O1 Cu1 1_555 1_555
O2 C1 1_555 1_555
O3 Cu3 1_555 1_555
O4 C24 1_555 1_555
O5 Cu3 1_555 1_555
O6 Cu4 1_555 1_555
O7 Cu1 1_555 1_555
O8 Cu2 1_555 1_555
O9 Cu1 1_555 1_555
O10 Cu2 1_555 1_555
O11 Cu3 1_555 1_555
O12 Cu4 1_555 1_555
O13 Cu3 1_555 1_555
O14 Cu4 1_555 1_555
O15 Cu1 1_555 1_555
O16 Cu2 1_555 1_555
O17 Cu1 1_555 1_555
O18 Cu2 1_555 1_555
O19 Cu3 1_555 1_555
O20 Cu4 1_555 1_555
N1 H1 1_555 1_555
H2 N1 1_555 1_555
N2 H3 1_555 1_555
H4 N2 1_555 1_555
N3 H5 1_555 1_555
H6 N3 1_555 1_555
N4 H7 1_555 1_555
H8 N4 1_555 1_555
C1 O1 1_555 1_555
C2 C1 1_555 1_555
C3 C2 1_555 1_555
H9 C3 1_555 1_555
C4 C3 1_555 1_555
H10 C4 1_555 1_555
C5 C4 1_555 1_555
H11 C5 1_555 1_555
C6 C5 1_555 1_555
C7 C2 1_555 1_555
H12 C7 1_555 1_555
C8 C6 1_555 1_555
C9 C8 1_555 1_555
C10 C9 1_555 1_555
C11 C10 1_555 1_555
H13 C11 1_555 1_555
C12 C11 1_555 1_555
C13 C12 1_555 1_555
H14 C13 1_555 1_555
C14 C13 1_555 1_555
C15 N1 1_555 1_555
C16 C14 1_555 1_555
C17 C16 1_555 1_555
C18 C17 1_555 1_555
C19 C18 1_555 1_555
H15 C19 1_555 1_555
C20 C19 1_555 1_555
H16 C20 1_555 1_555
C21 C20 1_555 1_555
H17 C21 1_555 1_555
C22 C21 1_555 1_555
C23 C18 1_555 1_555
H18 C23 1_555 1_555
C24 O3 1_555 1_555
C25 C12 1_555 1_555
H19 C25 1_555 1_555
C26 C25 1_555 1_555
H20 C26 1_555 1_555
H21 C26 1_555 1_555
H22 C26 1_555 1_555
C27 C25 1_555 1_555
H23 C27 1_555 1_555
H24 C27 1_555 1_555
H25 C27 1_555 1_555
C28 O5 1_555 1_555
C29 C28 1_555 1_555
C30 C29 1_555 1_555
H26 C30 1_555 1_555
C31 C30 1_555 1_555
H27 C31 1_555 1_555
C32 C31 1_555 1_555
H28 C32 1_555 1_555
C33 C32 1_555 1_555
C34 C29 1_555 1_555
H29 C34 1_555 1_555
C35 C33 1_555 1_555
C36 C35 1_555 1_555
C37 C36 1_555 1_555
C38 C37 1_555 1_555
H30 C38 1_555 1_555
C39 C38 1_555 1_555
C40 C39 1_555 1_555
H31 C40 1_555 1_555
C41 C40 1_555 1_555
C42 N2 1_555 1_555
C43 C41 1_555 1_555
C44 C43 1_555 1_555
C45 C44 1_555 1_555
C46 C45 1_555 1_555
H32 C46 1_555 1_555
C47 C46 1_555 1_555
H33 C47 1_555 1_555
C48 C47 1_555 1_555
H34 C48 1_555 1_555
C49 C48 1_555 1_555
C50 C45 1_555 1_555
H35 C50 1_555 1_555
C51 O7 1_555 1_555
C52 C39 1_555 1_555
H36 C52 1_555 1_555
C53 C52 1_555 1_555
H37 C53 1_555 1_555
H38 C53 1_555 1_555
H39 C53 1_555 1_555
C54 C52 1_555 1_555
H40 C54 1_555 1_555
H41 C54 1_555 1_555
H42 C54 1_555 1_555
C55 O9 1_555 1_555
C56 C55 1_555 1_555
C57 C56 1_555 1_555
H43 C57 1_555 1_555
C58 C57 1_555 1_555
H44 C58 1_555 1_555
C59 C58 1_555 1_555
H45 C59 1_555 1_555
C60 C59 1_555 1_555
C61 C56 1_555 1_555
H46 C61 1_555 1_555
C62 C60 1_555 1_555
C63 C62 1_555 1_555
C64 C63 1_555 1_555
C65 C64 1_555 1_555
H47 C65 1_555 1_555
C66 C65 1_555 1_555
C67 C66 1_555 1_555
H48 C67 1_555 1_555
C68 C67 1_555 1_555
C69 N3 1_555 1_555
C70 C68 1_555 1_555
C71 C70 1_555 1_555
C72 C71 1_555 1_555
C73 C72 1_555 1_555
H49 C73 1_555 1_555
C74 C73 1_555 1_555
H50 C74 1_555 1_555
C75 C74 1_555 1_555
H51 C75 1_555 1_555
C76 C75 1_555 1_555
C77 C72 1_555 1_555
H52 C77 1_555 1_555
C78 O11 1_555 1_555
C79 C66 1_555 1_555
H53 C79 1_555 1_555
C80 C79 1_555 1_555
H54 C80 1_555 1_555
H55 C80 1_555 1_555
H56 C80 1_555 1_555
C81 C79 1_555 1_555
H57 C81 1_555 1_555
H58 C81 1_555 1_555
H59 C81 1_555 1_555
C82 O13 1_555 1_555
C83 C82 1_555 1_555
C84 C83 1_555 1_555
H60 C84 1_555 1_555
C85 C84 1_555 1_555
H61 C85 1_555 1_555
C86 C85 1_555 1_555
H62 C86 1_555 1_555
C87 C86 1_555 1_555
C88 C83 1_555 1_555
H63 C88 1_555 1_555
C89 C87 1_555 1_555
C90 C89 1_555 1_555
C91 C90 1_555 1_555
C92 C91 1_555 1_555
H64 C92 1_555 1_555
C93 C92 1_555 1_555
C94 C93 1_555 1_555
H65 C94 1_555 1_555
C95 C94 1_555 1_555
C96 N4 1_555 1_555
C97 C95 1_555 1_555
C98 C97 1_555 1_555
C99 C98 1_555 1_555
C100 C99 1_555 1_555
H66 C100 1_555 1_555
C101 C100 1_555 1_555
H67 C101 1_555 1_555
C102 C101 1_555 1_555
H68 C102 1_555 1_555
C103 C102 1_555 1_555
C104 C99 1_555 1_555
H69 C104 1_555 1_555
C105 O15 1_555 1_555
C106 C93 1_555 1_555
H70 C106 1_555 1_555
C107 C106 1_555 1_555
H71 C107 1_555 1_555
H72 C107 1_555 1_555
H73 C107 1_555 1_555
C108 C106 1_555 1_555
H74 C108 1_555 1_555
H75 C108 1_555 1_555
H76 C108 1_555 1_555
O6 C28 1_555 1_555
O8 C51 1_555 1_555
O10 C55 1_555 1_555
O12 C78 1_555 1_555
O14 C82 1_555 1_555
O16 C105 1_555 1_555
C6 C7 1_555 1_555
C10 C15 1_555 1_555
C14 C15 1_555 1_555
C22 C23 1_555 1_555
C22 C24 1_555 1_555
C33 C34 1_555 1_555
C37 C42 1_555 1_555
C41 C42 1_555 1_555
C49 C50 1_555 1_555
C49 C51 1_555 1_555
C60 C61 1_555 1_555
C64 C69 1_555 1_555
C68 C69 1_555 1_555
C76 C77 1_555 1_555
C76 C78 1_555 1_555
C87 C88 1_555 1_555
C91 C96 1_555 1_555
C95 C96 1_555 1_555
C103 C104 1_555 1_555
C103 C105 1_555 1_555

#END
