
#######################################################################
#
#                 Cambridge Crystallographic Data Centre
#                                CCDC 
#
#######################################################################
#
# If this CIF has been generated from an entry in the Cambridge 
# Structural Database, then it will include bibliographic, chemical, 
# crystal, experimental, refinement or atomic coordinate data resulting 
# from the CCDC's data processing and validation procedures.
#
#######################################################################

data_XAJDOD
_chemical_formula_moiety         'C192 H96 Cu24 O120'
_chemical_name_systematic        
'tetracosakis(\m~4~-benzene-1,3-dicarboxylato)-tetracosakis(unknown)-tetracosa-copper unknown solvent'
_symmetry_cell_setting           triclinic
_symmetry_space_group_name_H-M   'P -1'
_symmetry_Int_Tables_number      2
_space_group_name_Hall           '-P 1'
loop_
_symmetry_equiv_pos_site_id
_symmetry_equiv_pos_as_xyz
1 x,y,z
2 -x,-y,-z
_cell_length_a                   24.3386(18)
_cell_length_b                   24.4267(18)
_cell_length_c                   25.442(3)
_cell_angle_alpha                112.1900(10)
_cell_angle_beta                 115.5470(10)
_cell_angle_gamma                98.0710(10)
_cell_volume                     11774
_exptl_crystal_colour            blue
_exptl_crystal_description       block
_cell_formula_units_Z            1
loop_
_atom_site_label
_atom_site_type_symbol
_atom_site_fract_x
_atom_site_fract_y
_atom_site_fract_z
Cu1 Cu -0.23091(3) 0.05288(3) -0.06649(3)
Cu2 Cu -0.17570(3) 0.16389(3) -0.05076(3)
Cu3 Cu -0.05271(3) 0.07042(3) -0.38256(3)
Cu4 Cu -0.03839(3) 0.17730(3) -0.28764(3)
Cu5 Cu 0.17786(3) 0.51539(3) -0.31202(3)
Cu6 Cu 0.12820(3) 0.51148(3) -0.23825(3)
Cu7 Cu -0.23886(3) 0.63290(3) -0.36984(3)
Cu8 Cu -0.17828(3) 0.60092(3) -0.27787(3)
Cu9 Cu -0.40903(3) 0.62809(3) -0.05384(3)
Cu10 Cu -0.30330(3) 0.60169(3) -0.03989(3)
Cu11 Cu -0.46829(3) 0.18789(3) -0.42740(3)
Cu12 Cu -0.35038(3) 0.26247(3) -0.32071(3)
O1 O -0.20458(16) 0.01923(17) -0.13168(16)
O2 O -0.15100(17) 0.11466(19) -0.11187(17)
O3 O -0.08157(18) 0.03619(18) -0.33656(18)
O4 O -0.07206(17) 0.12596(19) -0.25760(17)
O5 O -0.0226(2) 0.12614(19) -0.41092(18)
O6 O -0.00850(18) 0.21578(17) -0.32967(19)
O7 O 0.12879(17) 0.42389(17) -0.36522(16)
O8 O 0.08928(17) 0.42062(17) -0.30114(18)
O9 O 0.09677(16) 0.52829(19) -0.36238(17)
O10 O 0.05646(16) 0.52379(19) -0.29987(18)
O11 O -0.18385(16) 0.60715(17) -0.40397(16)
O12 O -0.13644(16) 0.57403(18) -0.32982(18)
O13 O -0.28737(15) 0.65821(15) -0.32688(16)
O14 O -0.23326(17) 0.63527(17) -0.24604(17)
O15 O -0.39660(16) 0.66124(17) -0.10922(16)
O16 O -0.31138(17) 0.6329(2) -0.10129(17)
O17 O -0.40213(17) 0.58895(19) 0.00264(17)
O18 O -0.30951(16) 0.57194(18) 0.01900(17)
O19 O -0.24852(16) 0.49708(16) 0.24524(16)
O20 O -0.20608(16) 0.50171(18) 0.18504(16)
O21 O -0.21738(18) 0.39318(18) 0.24983(19)
O22 O -0.1757(2) 0.39716(18) 0.18781(17)
O23 O -0.24865(18) 0.10822(19) 0.00046(19)
O24 O -0.20693(18) 0.20075(17) 0.00848(18)
O25 O -0.31150(16) 0.04778(18) -0.13735(17)
O26 O -0.26255(17) 0.13934(18) -0.12803(18)
O27 O -0.46932(17) 0.13817(16) -0.38165(18)
O28 O -0.36815(17) 0.20155(17) -0.29325(17)
O29 O -0.45003(16) 0.24708(16) -0.45747(17)
O30 O -0.35087(16) 0.31248(17) -0.36525(19)
O31 O -0.29796(16) 0.54328(16) -0.41727(16)
O32 O -0.24823(17) 0.51939(16) -0.33566(18)
O33 O 0.16574(15) 0.28333(16) 0.29958(16)
O34 O 0.11326(15) 0.31328(17) 0.22599(16)
O35 O -0.14282(16) 0.07317(17) 0.00604(16)
O36 O -0.09840(15) 0.16944(17) 0.02476(16)
O37 O 0.34882(16) 0.29106(18) -0.02562(16)
O38 O 0.25840(16) 0.31120(18) -0.03474(16)
O39 O 0.03801(17) 0.08734(18) -0.31977(18)
O40 O 0.04848(16) 0.17565(18) -0.23865(16)
O41 O -0.14052(18) 0.06850(18) -0.43302(18)
O42 O -0.12954(17) 0.15862(17) -0.35380(18)
O43 O -0.42167(16) 0.14075(16) -0.46248(18)
O44 O -0.32112(17) 0.20664(18) -0.3728(2)
O45 O -0.49511(18) 0.24735(18) -0.37427(19)
O46 O -0.39465(19) 0.30963(17) -0.28403(18)
O47 O -0.45527(17) 0.54237(18) -0.13131(17)
O48 O -0.36606(19) 0.51813(18) -0.11678(18)
O49 O -0.2735(2) -0.0336(2) -0.0707(3)
O50 O -0.1326(2) 0.2492(2) -0.0473(3)
O51 O -0.07078(18) -0.01963(17) -0.4593(2)
O52 O -0.0161(3) 0.2708(2) -0.2094(2)
O53 O 0.22207(15) 0.51748(18) -0.36982(17)
O54 O 0.0849(3) 0.5178(3) -0.1774(3)
O55 O -0.29407(16) 0.65750(17) -0.44535(14)
O56 O -0.1282(3) 0.5742(3) -0.2036(3)
O57 O -0.49697(17) 0.64669(18) -0.0722(2)
O58 O -0.2196(2) 0.5763(3) -0.0374(3)
O59 O -0.57017(18) 0.1242(2) -0.5126(2)
O60 O -0.2520(2) 0.3180(2) -0.2338(2)
C1 C -0.1727(3) 0.0548(3) -0.1411(3)
C2 C -0.1564(2) 0.0227(3) -0.1948(3)
C3 C -0.1726(2) -0.0415(3) -0.2271(3)
H1 H -0.1923 -0.0664 -0.2144
C4 C -0.1616(2) -0.0712(3) -0.2771(3)
H2 H -0.1726 -0.1159 -0.2981
C5 C -0.1339(2) -0.0352(3) -0.2969(3)
H3 H -0.1273 -0.0553 -0.3326
C6 C -0.1167(2) 0.0283(3) -0.2651(2)
C7 C -0.1282(2) 0.0584(3) -0.2139(2)
H4 H -0.1167 0.1031 -0.1924
C8 C -0.0878(2) 0.0677(3) -0.2882(3)
C9 C -0.0068(3) 0.1844(3) -0.3801(3)
C10 C 0.0142(2) 0.22417(18) -0.4077(2)
C11 C 0.0030(2) 0.19479(14) -0.47188(19)
H5 H -0.0171 0.1499 -0.4988
C12 C 0.0212(2) 0.23104(18) -0.49669(16)
H6 H 0.0135 0.2110 -0.5406
C13 C 0.0506(2) 0.29667(18) -0.4573(2)
H7 H 0.0631 0.3214 -0.4743
C14 C 0.0618(2) 0.32605(14) -0.39311(19)
C15 C 0.0436(2) 0.28980(19) -0.36831(16)
H8 H 0.0513 0.3099 -0.3244
C16 C 0.0968(3) 0.3955(3) -0.3497(3)
C17 C 0.0557(2) 0.5314(3) -0.3451(3)
C18 C -0.0022(2) 0.5461(3) -0.3868(3)
C19 C -0.0090(3) 0.5535(3) -0.4390(3)
H9 H 0.0222 0.5486 -0.4516
C20 C -0.0610(3) 0.5683(3) -0.4748(3)
H10 H -0.0657 0.5719 -0.5123
C21 C -0.1044(3) 0.5773(3) -0.4563(3)
H11 H -0.1391 0.5886 -0.4799
C22 C -0.0984(2) 0.5702(2) -0.4024(2)
C23 C -0.0472(2) 0.5539(3) -0.3677(3)
H12 H -0.0433 0.5483 -0.3315
C24 C -0.1430(2) 0.5847(3) -0.3761(3)
C25 C -0.2768(3) 0.6529(2) -0.2762(2)
C26 C -0.3195(2) 0.6724(2) -0.2491(2)
C27 C -0.3651(3) 0.6960(3) -0.2766(3)
H13 H -0.3686 0.7034 -0.3119
C28 C -0.4065(3) 0.7094(3) -0.2530(3)
H14 H -0.4370 0.7274 -0.2710
C29 C -0.4031(3) 0.6965(2) -0.2037(3)
H15 H -0.4324 0.7041 -0.1887
C30 C -0.3568(2) 0.6721(2) -0.1757(2)
C31 C -0.3144(2) 0.6613(2) -0.1979(2)
H16 H -0.2818 0.6461 -0.1780
C32 C -0.3543(3) 0.6528(3) -0.1247(3)
C33 C -0.3564(2) 0.5709(3) 0.0282(2)
C34 C -0.3589(2) 0.5461(2) 0.0732(2)
C35 C -0.4135(3) 0.5357(3) 0.0768(2)
H17 H -0.4500 0.5433 0.0504
C36 C -0.4153(3) 0.5140(3) 0.1191(3)
H18 H -0.4532 0.5068 0.1216
C37 C -0.3632(3) 0.5027(3) 0.1576(3)
H19 H -0.3652 0.4879 0.1866
C38 C -0.3078(2) 0.5126(2) 0.1544(2)
C39 C -0.3064(2) 0.5333(2) 0.1114(2)
H20 H -0.2690 0.5389 0.1077
C40 C -0.2491(3) 0.5028(2) 0.1995(3)
C41 C -0.2065(3) 0.3679(3) 0.2028(3)
C42 C -0.2366(3) 0.2959(3) 0.1627(3)
C43 C -0.2710(3) 0.2619(3) 0.1773(3)
H21 H -0.2784 0.2830 0.2121
C44 C -0.2954(3) 0.1962(3) 0.1410(3)
H22 H -0.3205 0.1719 0.1500
C45 C -0.2826(3) 0.1657(3) 0.0908(3)
H23 H -0.2982 0.1207 0.0665
C46 C -0.2483(3) 0.2005(3) 0.0773(3)
C47 C -0.2252(3) 0.2650(3) 0.1117(3)
H24 H -0.2015 0.2889 0.1012
C48 C -0.2332(3) 0.1664(3) 0.0243(3)
C49 C -0.3105(3) 0.0900(3) -0.1545(3)
C50 C -0.37223(14) 0.08158(18) -0.21338(15)
C51 C -0.43129(19) 0.03515(17) -0.24006(19)
H25 H -0.4331 0.0087 -0.2210
C52 C -0.48765(14) 0.02745(17) -0.2946(2)
H26 H -0.5280 -0.0043 -0.3128
C53 C -0.48496(14) 0.06619(19) -0.32249(16)
H27 H -0.5235 0.0609 -0.3598
C54 C -0.42591(17) 0.11262(17) -0.29581(18)
C55 C -0.36954(13) 0.12031(16) -0.24126(17)
H28 H -0.3292 0.1520 -0.2230
C56 C -0.4191(3) 0.1540(3) -0.3264(3)
C57 C -0.3990(3) 0.2972(2) -0.4224(3)
C58 C -0.3964(3) 0.3405(3) -0.4496(3)
C59 C -0.4447(3) 0.3232(3) -0.5130(3)
H29 H -0.4794 0.2832 -0.5394
C60 C -0.4431(3) 0.3644(3) -0.5393(3)
H30 H -0.4753 0.3515 -0.5842
C61 C -0.3942(3) 0.4241(3) -0.4991(3)
H31 H -0.3945 0.4528 -0.5159
C62 C -0.3454(2) 0.4422(2) -0.4354(3)
C63 C -0.3465(2) 0.4003(3) -0.4104(3)
H32 H -0.3130 0.4125 -0.3664
C64 C -0.2934(2) 0.5066(3) -0.3924(3)
C65 C 0.1197(2) 0.2735(3) 0.2449(3)
C66 C 0.0679(2) 0.2106(3) 0.2009(2)
C67 C 0.0717(3) 0.1619(3) 0.2156(3)
H33 H 0.1093 0.1699 0.2554
C68 C 0.0232(3) 0.1014(3) 0.1749(3)
H34 H 0.0276 0.0690 0.1866
C69 C -0.0316(3) 0.0900(3) 0.1170(3)
H35 H -0.0654 0.0493 0.0887
C70 C -0.0376(2) 0.1382(3) 0.0998(2)
C71 C 0.0122(2) 0.1982(3) 0.1412(2)
H36 H 0.0084 0.2306 0.1293
C72 C -0.0973(2) 0.1260(3) 0.0383(2)
C73 C 0.2858(3) 0.2774(3) -0.0553(2)
C74 C 0.24467(17) 0.21306(16) -0.11721(15)
C75 C 0.27140(13) 0.1686(2) -0.13743(17)
H37 H 0.3163 0.1765 -0.1098
C76 C 0.23236(18) 0.11252(18) -0.19803(19)
H38 H 0.2506 0.0821 -0.2119
C77 C 0.16659(17) 0.10091(16) -0.23842(15)
H39 H 0.1399 0.0626 -0.2798
C78 C 0.13987(13) 0.1454(2) -0.21820(18)
C79 C 0.17891(18) 0.20144(18) -0.15760(19)
H40 H 0.1606 0.2318 -0.1438
C80 C 0.0699(3) 0.1364(3) -0.2622(3)
C81 C -0.1618(3) 0.1083(3) -0.4097(3)
C82 C -0.2333(3) 0.0963(3) -0.4525(3)
C83 C -0.2731(3) 0.0452(3) -0.5180(3)
H41 H -0.2548 0.0188 -0.5381
C84 C -0.3369(3) 0.0342(3) -0.5518(4)
H42 H -0.3633 0.0004 -0.5967
C85 C -0.3657(3) 0.0697(3) -0.5245(4)
H43 H -0.4115 0.0595 -0.5499
C86 C -0.3292(3) 0.1196(3) -0.4609(3)
C87 C -0.2630(3) 0.1340(3) -0.4235(3)
H44 H -0.2373 0.1685 -0.3791
C88 C -0.3588(3) 0.1595(3) -0.4288(3)
C89 C -0.4545(3) 0.2969(3) -0.3162(3)
C90 C -0.4836(2) 0.34006(17) -0.2880(2)
C91 C -0.55104(19) 0.32264(16) -0.31918(18)
H45 H -0.5788 0.2822 -0.3576
C92 C -0.57793(14) 0.3645(2) -0.2942(2)
H46 H -0.6240 0.3526 -0.3155
C93 C -0.5373(2) 0.4237(2) -0.2379(2)
H47 H -0.5557 0.4523 -0.2209
C94 C -0.46987(19) 0.44111(15) -0.20674(16)
C95 C -0.44298(14) 0.39930(19) -0.23174(18)
H48 H -0.3969 0.4112 -0.2104
C96 C -0.4261(3) 0.5066(3) -0.1461(3)
Cu1A Cu 0.23091(3) 0.94712(3) 0.06649(3)
Cu2A Cu 0.17570(3) 0.83611(3) 0.05076(3)
Cu3A Cu 0.05271(3) 0.92958(3) 0.38256(3)
Cu4A Cu 0.03839(3) 0.82270(3) 0.28764(3)
Cu5A Cu -0.17786(3) 0.48461(3) 0.31202(3)
Cu6A Cu -0.12820(3) 0.48852(3) 0.23825(3)
Cu7A Cu 0.23886(3) 0.36710(3) 0.36984(3)
Cu8A Cu 0.17828(3) 0.39908(3) 0.27787(3)
Cu9A Cu 0.40903(3) 0.37191(3) 0.05384(3)
Cu10A Cu 0.30330(3) 0.39831(3) 0.03989(3)
Cu11A Cu 0.46829(3) 0.81211(3) 0.42740(3)
Cu12A Cu 0.35038(3) 0.73753(3) 0.32071(3)
O1A O 0.20458(16) 0.98077(17) 0.13168(16)
O2A O 0.15100(17) 0.88534(19) 0.11187(17)
O3A O 0.08157(18) 0.96381(18) 0.33656(18)
O4A O 0.07206(17) 0.87404(19) 0.25760(17)
O5A O 0.0226(2) 0.87386(19) 0.41092(18)
O6A O 0.00850(18) 0.78422(17) 0.32967(19)
O7A O -0.12879(17) 0.57611(17) 0.36522(16)
O8A O -0.08928(17) 0.57938(17) 0.30114(18)
O9A O -0.09677(16) 0.47171(19) 0.36238(17)
O10A O -0.05646(16) 0.47621(19) 0.29987(18)
O11A O 0.18385(16) 0.39285(17) 0.40397(16)
O12A O 0.13644(16) 0.42597(18) 0.32982(18)
O13A O 0.28737(15) 0.34179(15) 0.32688(16)
O14A O 0.23326(17) 0.36473(17) 0.24604(17)
O15A O 0.39660(16) 0.33876(17) 0.10922(16)
O16A O 0.31138(17) 0.3671(2) 0.10129(17)
O17A O 0.40213(17) 0.41105(19) -0.00264(17)
O18A O 0.30951(16) 0.42806(18) -0.01900(17)
O19A O 0.24852(16) 0.50292(16) -0.24524(16)
O20A O 0.20608(16) 0.49829(18) -0.18504(16)
O21A O 0.21738(18) 0.60682(18) -0.24983(19)
O22A O 0.1757(2) 0.60284(18) -0.18781(17)
O23A O 0.24865(18) 0.89178(19) -0.00046(19)
O24A O 0.20693(18) 0.79925(17) -0.00848(18)
O25A O 0.31150(16) 0.95222(18) 0.13735(17)
O26A O 0.26255(17) 0.86066(18) 0.12803(18)
O27A O 0.46932(17) 0.86183(16) 0.38165(18)
O28A O 0.36815(17) 0.79845(17) 0.29325(17)
O29A O 0.45003(16) 0.75292(16) 0.45747(17)
O30A O 0.35087(16) 0.68752(17) 0.36525(19)
O31A O 0.29796(16) 0.45672(16) 0.41727(16)
O32A O 0.24823(17) 0.48061(16) 0.33566(18)
O33A O -0.16574(15) 0.71667(16) -0.29958(16)
O34A O -0.11326(15) 0.68672(17) -0.22599(16)
O35A O 0.14282(16) 0.92683(17) -0.00604(16)
O36A O 0.09840(15) 0.83056(17) -0.02476(16)
O37A O -0.34882(16) 0.70894(18) 0.02562(16)
O38A O -0.25840(16) 0.68880(18) 0.03474(16)
O39A O -0.03801(17) 0.91266(18) 0.31977(18)
O40A O -0.04848(16) 0.82435(18) 0.23865(16)
O41A O 0.14052(18) 0.93150(18) 0.43302(18)
O42A O 0.12954(17) 0.84138(17) 0.35380(18)
O43A O 0.42167(16) 0.85925(16) 0.46248(18)
O44A O 0.32112(17) 0.79336(18) 0.3728(2)
O45A O 0.49511(18) 0.75265(18) 0.37427(19)
O46A O 0.39465(19) 0.69037(17) 0.28403(18)
O47A O 0.45527(17) 0.45763(18) 0.13131(17)
O48A O 0.36606(19) 0.48187(18) 0.11678(18)
O49A O 0.2735(2) 1.0336(2) 0.0707(3)
O50A O 0.1326(2) 0.7508(2) 0.0473(3)
O51A O 0.07078(18) 1.01963(17) 0.4593(2)
O52A O 0.0161(3) 0.7292(2) 0.2094(2)
O53A O -0.22207(15) 0.48252(18) 0.36982(17)
O54A O -0.0849(3) 0.4822(3) 0.1774(3)
O55A O 0.29407(16) 0.34250(17) 0.44535(14)
O56A O 0.1282(3) 0.4258(3) 0.2036(3)
O57A O 0.49697(17) 0.35331(18) 0.0722(2)
O58A O 0.2196(2) 0.4237(3) 0.0374(3)
O59A O 0.57017(18) 0.8758(2) 0.5126(2)
O60A O 0.2520(2) 0.6820(2) 0.2338(2)
C1A C 0.1727(3) 0.9452(3) 0.1411(3)
C2A C 0.1564(2) 0.9773(3) 0.1948(3)
C3A C 0.1726(2) 1.0415(3) 0.2271(3)
H1A H 0.1923 1.0664 0.2144
C4A C 0.1616(2) 1.0712(3) 0.2771(3)
H2A H 0.1726 1.1159 0.2981
C5A C 0.1339(2) 1.0352(3) 0.2969(3)
H3A H 0.1273 1.0553 0.3326
C6A C 0.1167(2) 0.9717(3) 0.2651(2)
C7A C 0.1282(2) 0.9416(3) 0.2139(2)
H4A H 0.1167 0.8969 0.1924
C8A C 0.0878(2) 0.9323(3) 0.2882(3)
C9A C 0.0068(3) 0.8156(3) 0.3801(3)
C10A C -0.0142(2) 0.77583(18) 0.4077(2)
C11A C -0.0030(2) 0.80521(14) 0.47188(19)
H5A H 0.0171 0.8501 0.4988
C12A C -0.0212(2) 0.76896(18) 0.49669(16)
H6A H -0.0135 0.7890 0.5406
C13A C -0.0506(2) 0.70333(18) 0.4573(2)
H7A H -0.0631 0.6786 0.4743
C14A C -0.0618(2) 0.67395(14) 0.39311(19)
C15A C -0.0436(2) 0.71020(19) 0.36831(16)
H8A H -0.0513 0.6901 0.3244
C16A C -0.0968(3) 0.6045(3) 0.3497(3)
C17A C -0.0557(2) 0.4686(3) 0.3451(3)
C18A C 0.0022(2) 0.4539(3) 0.3868(3)
C19A C 0.0090(3) 0.4465(3) 0.4390(3)
H9A H -0.0222 0.4514 0.4516
C20A C 0.0610(3) 0.4317(3) 0.4748(3)
H10A H 0.0657 0.4281 0.5123
C21A C 0.1044(3) 0.4227(3) 0.4563(3)
H11A H 0.1391 0.4114 0.4799
C22A C 0.0984(2) 0.4298(2) 0.4024(2)
C23A C 0.0472(2) 0.4461(3) 0.3677(3)
H12A H 0.0433 0.4517 0.3315
C24A C 0.1430(2) 0.4153(3) 0.3761(3)
C25A C 0.2768(3) 0.3471(2) 0.2762(2)
C26A C 0.3195(2) 0.3276(2) 0.2491(2)
C27A C 0.3651(3) 0.3040(3) 0.2766(3)
H13A H 0.3686 0.2966 0.3119
C28A C 0.4065(3) 0.2906(3) 0.2530(3)
H14A H 0.4370 0.2726 0.2710
C29A C 0.4031(3) 0.3035(2) 0.2037(3)
H15A H 0.4324 0.2959 0.1887
C30A C 0.3568(2) 0.3279(2) 0.1757(2)
C31A C 0.3144(2) 0.3387(2) 0.1979(2)
H16A H 0.2818 0.3539 0.1780
C32A C 0.3543(3) 0.3472(3) 0.1247(3)
C33A C 0.3564(2) 0.4291(3) -0.0282(2)
C34A C 0.3589(2) 0.4539(2) -0.0732(2)
C35A C 0.4135(3) 0.4643(3) -0.0768(2)
H17A H 0.4500 0.4567 -0.0504
C36A C 0.4153(3) 0.4860(3) -0.1191(3)
H18A H 0.4532 0.4932 -0.1216
C37A C 0.3632(3) 0.4973(3) -0.1576(3)
H19A H 0.3652 0.5121 -0.1866
C38A C 0.3078(2) 0.4874(2) -0.1544(2)
C39A C 0.3064(2) 0.4667(2) -0.1114(2)
H20A H 0.2690 0.4611 -0.1077
C40A C 0.2491(3) 0.4972(2) -0.1995(3)
C41A C 0.2065(3) 0.6321(3) -0.2028(3)
C42A C 0.2366(3) 0.7041(3) -0.1627(3)
C43A C 0.2710(3) 0.7381(3) -0.1773(3)
H21A H 0.2784 0.7170 -0.2121
C44A C 0.2954(3) 0.8038(3) -0.1410(3)
H22A H 0.3205 0.8281 -0.1500
C45A C 0.2826(3) 0.8343(3) -0.0908(3)
H23A H 0.2982 0.8793 -0.0665
C46A C 0.2483(3) 0.7995(3) -0.0773(3)
C47A C 0.2252(3) 0.7350(3) -0.1117(3)
H24A H 0.2015 0.7111 -0.1012
C48A C 0.2332(3) 0.8336(3) -0.0243(3)
C49A C 0.3105(3) 0.9100(3) 0.1545(3)
C50A C 0.37223(14) 0.91842(18) 0.21338(15)
C51A C 0.43129(19) 0.96485(17) 0.24006(19)
H25A H 0.4331 0.9913 0.2210
C52A C 0.48765(14) 0.97255(17) 0.2946(2)
H26A H 0.5280 1.0043 0.3128
C53A C 0.48496(14) 0.93381(19) 0.32249(16)
H27A H 0.5235 0.9391 0.3598
C54A C 0.42591(17) 0.88738(17) 0.29581(18)
C55A C 0.36954(13) 0.87969(16) 0.24126(17)
H28A H 0.3292 0.8480 0.2230
C56A C 0.4191(3) 0.8460(3) 0.3264(3)
C57A C 0.3990(3) 0.7028(2) 0.4224(3)
C58A C 0.3964(3) 0.6595(3) 0.4496(3)
C59A C 0.4447(3) 0.6768(3) 0.5130(3)
H29A H 0.4794 0.7168 0.5394
C60A C 0.4431(3) 0.6356(3) 0.5393(3)
H30A H 0.4753 0.6485 0.5842
C61A C 0.3942(3) 0.5759(3) 0.4991(3)
H31A H 0.3945 0.5472 0.5159
C62A C 0.3454(2) 0.5578(2) 0.4354(3)
C63A C 0.3465(2) 0.5997(3) 0.4104(3)
H32A H 0.3130 0.5875 0.3664
C64A C 0.2934(2) 0.4934(3) 0.3924(3)
C65A C -0.1197(2) 0.7265(3) -0.2449(3)
C66A C -0.0679(2) 0.7894(3) -0.2009(2)
C67A C -0.0717(3) 0.8381(3) -0.2156(3)
H33A H -0.1093 0.8301 -0.2554
C68A C -0.0232(3) 0.8986(3) -0.1749(3)
H34A H -0.0276 0.9310 -0.1866
C69A C 0.0316(3) 0.9100(3) -0.1170(3)
H35A H 0.0654 0.9507 -0.0887
C70A C 0.0376(2) 0.8618(3) -0.0998(2)
C71A C -0.0122(2) 0.8018(3) -0.1412(2)
H36A H -0.0084 0.7694 -0.1293
C72A C 0.0973(2) 0.8740(3) -0.0383(2)
C73A C -0.2858(3) 0.7226(3) 0.0553(2)
C74A C -0.24467(17) 0.78694(16) 0.11721(15)
C75A C -0.27140(13) 0.8314(2) 0.13743(17)
H37A H -0.3163 0.8235 0.1098
C76A C -0.23236(18) 0.88748(18) 0.19803(19)
H38A H -0.2506 0.9179 0.2119
C77A C -0.16659(17) 0.89909(16) 0.23842(15)
H39A H -0.1399 0.9374 0.2798
C78A C -0.13987(13) 0.8546(2) 0.21820(18)
C79A C -0.17891(18) 0.79856(18) 0.15760(19)
H40A H -0.1606 0.7682 0.1438
C80A C -0.0699(3) 0.8636(3) 0.2622(3)
C81A C 0.1618(3) 0.8917(3) 0.4097(3)
C82A C 0.2333(3) 0.9037(3) 0.4525(3)
C83A C 0.2731(3) 0.9548(3) 0.5180(3)
H41A H 0.2548 0.9812 0.5381
C84A C 0.3369(3) 0.9658(3) 0.5518(4)
H42A H 0.3633 0.9996 0.5967
C85A C 0.3657(3) 0.9303(3) 0.5245(4)
H43A H 0.4115 0.9405 0.5499
C86A C 0.3292(3) 0.8804(3) 0.4609(3)
C87A C 0.2630(3) 0.8660(3) 0.4235(3)
H44A H 0.2373 0.8315 0.3791
C88A C 0.3588(3) 0.8405(3) 0.4288(3)
C89A C 0.4545(3) 0.7031(3) 0.3162(3)
C90A C 0.4836(2) 0.65994(17) 0.2880(2)
C91A C 0.55104(19) 0.67736(16) 0.31918(18)
H45A H 0.5788 0.7178 0.3576
C92A C 0.57793(14) 0.6355(2) 0.2942(2)
H46A H 0.6240 0.6474 0.3155
C93A C 0.5373(2) 0.5763(2) 0.2379(2)
H47A H 0.5557 0.5477 0.2209
C94A C 0.46987(19) 0.55889(15) 0.20674(16)
C95A C 0.44298(14) 0.60070(19) 0.23174(18)
H48A H 0.3969 0.5888 0.2104
C96A C 0.4261(3) 0.4934(3) 0.1461(3)
loop_
_geom_bond_atom_site_label_1
_geom_bond_atom_site_label_2
_geom_bond_site_symmetry_1
_geom_bond_site_symmetry_2
Cu1 Cu2 1_555 1_555
Cu2 O2 1_555 1_555
Cu3 Cu4 1_555 1_555
Cu4 O4 1_555 1_555
Cu5 Cu6 1_555 1_555
Cu6 O8 1_555 1_555
Cu7 Cu8 1_555 1_555
Cu8 O12 1_555 1_555
Cu9 Cu10 1_555 1_555
Cu10 O16 1_555 1_555
Cu11 Cu12 1_555 1_555
Cu12 O28 1_555 1_555
O1 Cu1 1_555 1_555
O2 C1 1_555 1_555
O3 Cu3 1_555 1_555
O4 C8 1_555 1_555
O5 Cu3 1_555 1_555
O6 Cu4 1_555 1_555
O7 Cu5 1_555 1_555
O8 C16 1_555 1_555
O9 Cu5 1_555 1_555
O10 Cu6 1_555 1_555
O11 Cu7 1_555 1_555
O12 C24 1_555 1_555
O13 Cu7 1_555 1_555
O14 Cu8 1_555 1_555
O15 Cu9 1_555 1_555
O16 C32 1_555 1_555
O17 Cu9 1_555 1_555
O18 Cu10 1_555 1_555
O19 C40 1_555 1_555
O20 C40 1_555 1_555
O21 C41 1_555 1_555
O22 C41 1_555 1_555
O23 Cu1 1_555 1_555
O24 Cu2 1_555 1_555
O25 Cu1 1_555 1_555
O26 Cu2 1_555 1_555
O27 Cu11 1_555 1_555
O28 C56 1_555 1_555
O29 Cu11 1_555 1_555
O30 Cu12 1_555 1_555
O31 Cu7 1_555 1_555
O32 Cu8 1_555 1_555
O33 C65 1_555 1_555
O34 C65 1_555 1_555
O35 Cu1 1_555 1_555
O36 Cu2 1_555 1_555
O37 C73 1_555 1_555
O38 C73 1_555 1_555
O39 Cu3 1_555 1_555
O40 Cu4 1_555 1_555
O41 Cu3 1_555 1_555
O42 Cu4 1_555 1_555
O43 Cu11 1_555 1_555
O44 Cu12 1_555 1_555
O45 Cu11 1_555 1_555
O46 Cu12 1_555 1_555
O47 Cu9 1_555 1_555
O48 Cu10 1_555 1_555
O49 Cu1 1_555 1_555
O50 Cu2 1_555 1_555
O51 Cu3 1_555 1_555
O52 Cu4 1_555 1_555
O53 Cu5 1_555 1_555
O54 Cu6 1_555 1_555
O55 Cu7 1_555 1_555
O56 Cu8 1_555 1_555
O57 Cu9 1_555 1_555
O58 Cu10 1_555 1_555
O59 Cu11 1_555 1_555
O60 Cu12 1_555 1_555
C1 O1 1_555 1_555
C2 C1 1_555 1_555
C3 C2 1_555 1_555
H1 C3 1_555 1_555
C4 C3 1_555 1_555
H2 C4 1_555 1_555
C5 C4 1_555 1_555
H3 C5 1_555 1_555
C6 C5 1_555 1_555
C7 C2 1_555 1_555
H4 C7 1_555 1_555
C8 O3 1_555 1_555
C9 O5 1_555 1_555
C10 C9 1_555 1_555
C11 C10 1_555 1_555
H5 C11 1_555 1_555
C12 C11 1_555 1_555
H6 C12 1_555 1_555
C13 C12 1_555 1_555
H7 C13 1_555 1_555
C14 C13 1_555 1_555
C15 C10 1_555 1_555
H8 C15 1_555 1_555
C16 O7 1_555 1_555
C17 O9 1_555 1_555
C18 C17 1_555 1_555
C19 C18 1_555 1_555
H9 C19 1_555 1_555
C20 C19 1_555 1_555
H10 C20 1_555 1_555
C21 C20 1_555 1_555
H11 C21 1_555 1_555
C22 C21 1_555 1_555
C23 C18 1_555 1_555
H12 C23 1_555 1_555
C24 O11 1_555 1_555
C25 O13 1_555 1_555
C26 C25 1_555 1_555
C27 C26 1_555 1_555
H13 C27 1_555 1_555
C28 C27 1_555 1_555
H14 C28 1_555 1_555
C29 C28 1_555 1_555
H15 C29 1_555 1_555
C30 C29 1_555 1_555
C31 C26 1_555 1_555
H16 C31 1_555 1_555
C32 O15 1_555 1_555
C33 O17 1_555 1_555
C34 C33 1_555 1_555
C35 C34 1_555 1_555
H17 C35 1_555 1_555
C36 C35 1_555 1_555
H18 C36 1_555 1_555
C37 C36 1_555 1_555
H19 C37 1_555 1_555
C38 C37 1_555 1_555
C39 C34 1_555 1_555
H20 C39 1_555 1_555
C40 C38 1_555 1_555
C41 C42 1_555 1_555
C42 C43 1_555 1_555
C43 H21 1_555 1_555
C44 C43 1_555 1_555
H22 C44 1_555 1_555
C45 C44 1_555 1_555
H23 C45 1_555 1_555
C46 C45 1_555 1_555
C47 C42 1_555 1_555
H24 C47 1_555 1_555
C48 O23 1_555 1_555
C49 O25 1_555 1_555
C50 C49 1_555 1_555
C51 C50 1_555 1_555
H25 C51 1_555 1_555
C52 C51 1_555 1_555
H26 C52 1_555 1_555
C53 C52 1_555 1_555
H27 C53 1_555 1_555
C54 C53 1_555 1_555
C55 C50 1_555 1_555
H28 C55 1_555 1_555
C56 O27 1_555 1_555
C57 O29 1_555 1_555
C58 C57 1_555 1_555
C59 C58 1_555 1_555
H29 C59 1_555 1_555
C60 C59 1_555 1_555
H30 C60 1_555 1_555
C61 C60 1_555 1_555
H31 C61 1_555 1_555
C62 C61 1_555 1_555
C63 C58 1_555 1_555
H32 C63 1_555 1_555
C64 O31 1_555 1_555
C65 C66 1_555 1_555
C66 C67 1_555 1_555
C67 H33 1_555 1_555
C68 C67 1_555 1_555
H34 C68 1_555 1_555
C69 C68 1_555 1_555
H35 C69 1_555 1_555
C70 C69 1_555 1_555
C71 C66 1_555 1_555
H36 C71 1_555 1_555
C72 O35 1_555 1_555
C73 C74 1_555 1_555
C74 C75 1_555 1_555
C75 H37 1_555 1_555
C76 C75 1_555 1_555
H38 C76 1_555 1_555
C77 C76 1_555 1_555
H39 C77 1_555 1_555
C78 C77 1_555 1_555
C79 C74 1_555 1_555
H40 C79 1_555 1_555
C80 O39 1_555 1_555
C81 O41 1_555 1_555
C82 C81 1_555 1_555
C83 C82 1_555 1_555
H41 C83 1_555 1_555
C84 C83 1_555 1_555
H42 C84 1_555 1_555
C85 C84 1_555 1_555
H43 C85 1_555 1_555
C86 C85 1_555 1_555
C87 C82 1_555 1_555
H44 C87 1_555 1_555
C88 O43 1_555 1_555
C89 O45 1_555 1_555
C90 C89 1_555 1_555
C91 C90 1_555 1_555
H45 C91 1_555 1_555
C92 C91 1_555 1_555
H46 C92 1_555 1_555
C93 C92 1_555 1_555
H47 C93 1_555 1_555
C94 C93 1_555 1_555
C95 C90 1_555 1_555
H48 C95 1_555 1_555
C96 O47 1_555 1_555
Cu1A Cu2A 1_555 1_555
Cu2A O2A 1_555 1_555
Cu3A Cu4A 1_555 1_555
Cu4A O4A 1_555 1_555
Cu5A O19 1_555 1_555
Cu6A O20 1_555 1_555
Cu7A O33 1_555 1_555
Cu8A O34 1_555 1_555
Cu9A O37 1_555 1_555
Cu10A O38 1_555 1_555
Cu11A Cu12A 1_555 1_555
Cu12A O28A 1_555 1_555
O1A Cu1A 1_555 1_555
O2A C1A 1_555 1_555
O3A Cu3A 1_555 1_555
O4A C8A 1_555 1_555
O5A Cu3A 1_555 1_555
O6A Cu4A 1_555 1_555
O7A Cu5A 1_555 1_555
O8A Cu6A 1_555 1_555
O9A Cu5A 1_555 1_555
O10A Cu6A 1_555 1_555
O11A Cu7A 1_555 1_555
O12A Cu8A 1_555 1_555
O13A Cu7A 1_555 1_555
O14A Cu8A 1_555 1_555
O15A Cu9A 1_555 1_555
O16A Cu10A 1_555 1_555
O17A Cu9A 1_555 1_555
O18A Cu10A 1_555 1_555
O19A Cu5 1_555 1_555
O20A Cu6 1_555 1_555
O21A Cu5 1_555 1_555
O22A Cu6 1_555 1_555
O23A Cu1A 1_555 1_555
O24A Cu2A 1_555 1_555
O25A Cu1A 1_555 1_555
O26A Cu2A 1_555 1_555
O27A Cu11A 1_555 1_555
O28A C56A 1_555 1_555
O29A Cu11A 1_555 1_555
O30A Cu12A 1_555 1_555
O31A Cu7A 1_555 1_555
O32A Cu8A 1_555 1_555
O33A Cu7 1_555 1_555
O34A Cu8 1_555 1_555
O35A Cu1A 1_555 1_555
O36A Cu2A 1_555 1_555
O37A Cu9 1_555 1_555
O38A Cu10 1_555 1_555
O39A Cu3A 1_555 1_555
O40A Cu4A 1_555 1_555
O41A Cu3A 1_555 1_555
O42A Cu4A 1_555 1_555
O43A Cu11A 1_555 1_555
O44A Cu12A 1_555 1_555
O45A Cu11A 1_555 1_555
O46A Cu12A 1_555 1_555
O47A Cu9A 1_555 1_555
O48A Cu10A 1_555 1_555
O49A Cu1A 1_555 1_555
O50A Cu2A 1_555 1_555
O51A Cu3A 1_555 1_555
O52A Cu4A 1_555 1_555
O53A Cu5A 1_555 1_555
O54A Cu6A 1_555 1_555
O55A Cu7A 1_555 1_555
O56A Cu8A 1_555 1_555
O57A Cu9A 1_555 1_555
O58A Cu10A 1_555 1_555
O59A Cu11A 1_555 1_555
O60A Cu12A 1_555 1_555
C1A O1A 1_555 1_555
C2A C1A 1_555 1_555
C3A C2A 1_555 1_555
H1A C3A 1_555 1_555
C4A C3A 1_555 1_555
H2A C4A 1_555 1_555
C5A C4A 1_555 1_555
H3A C5A 1_555 1_555
C6A C5A 1_555 1_555
C7A C2A 1_555 1_555
H4A C7A 1_555 1_555
C8A O3A 1_555 1_555
C9A O5A 1_555 1_555
C10A C9A 1_555 1_555
C11A C10A 1_555 1_555
H5A C11A 1_555 1_555
C12A C11A 1_555 1_555
H6A C12A 1_555 1_555
C13A C12A 1_555 1_555
H7A C13A 1_555 1_555
C14A C13A 1_555 1_555
C15A C10A 1_555 1_555
H8A C15A 1_555 1_555
C16A O7A 1_555 1_555
C17A O9A 1_555 1_555
C18A C17A 1_555 1_555
C19A C18A 1_555 1_555
H9A C19A 1_555 1_555
C20A C19A 1_555 1_555
H10A C20A 1_555 1_555
C21A C20A 1_555 1_555
H11A C21A 1_555 1_555
C22A C21A 1_555 1_555
C23A C18A 1_555 1_555
H12A C23A 1_555 1_555
C24A O11A 1_555 1_555
C25A O13A 1_555 1_555
C26A C25A 1_555 1_555
C27A C26A 1_555 1_555
H13A C27A 1_555 1_555
C28A C27A 1_555 1_555
H14A C28A 1_555 1_555
C29A C28A 1_555 1_555
H15A C29A 1_555 1_555
C30A C29A 1_555 1_555
C31A C26A 1_555 1_555
H16A C31A 1_555 1_555
C32A O15A 1_555 1_555
C33A O17A 1_555 1_555
C34A C33A 1_555 1_555
C35A C34A 1_555 1_555
H17A C35A 1_555 1_555
C36A C35A 1_555 1_555
H18A C36A 1_555 1_555
C37A C36A 1_555 1_555
H19A C37A 1_555 1_555
C38A C37A 1_555 1_555
C39A C34A 1_555 1_555
H20A C39A 1_555 1_555
C40A O19A 1_555 1_555
C41A O21A 1_555 1_555
C42A C41A 1_555 1_555
C43A C42A 1_555 1_555
H21A C43A 1_555 1_555
C44A C43A 1_555 1_555
H22A C44A 1_555 1_555
C45A C44A 1_555 1_555
H23A C45A 1_555 1_555
C46A C45A 1_555 1_555
C47A C42A 1_555 1_555
H24A C47A 1_555 1_555
C48A O23A 1_555 1_555
C49A O25A 1_555 1_555
C50A C49A 1_555 1_555
C51A C50A 1_555 1_555
H25A C51A 1_555 1_555
C52A C51A 1_555 1_555
H26A C52A 1_555 1_555
C53A C52A 1_555 1_555
H27A C53A 1_555 1_555
C54A C53A 1_555 1_555
C55A C50A 1_555 1_555
H28A C55A 1_555 1_555
C56A O27A 1_555 1_555
C57A O29A 1_555 1_555
C58A C57A 1_555 1_555
C59A C58A 1_555 1_555
H29A C59A 1_555 1_555
C60A C59A 1_555 1_555
H30A C60A 1_555 1_555
C61A C60A 1_555 1_555
H31A C61A 1_555 1_555
C62A C61A 1_555 1_555
C63A C58A 1_555 1_555
H32A C63A 1_555 1_555
C64A O31A 1_555 1_555
C65A O33A 1_555 1_555
C66A C65A 1_555 1_555
C67A C66A 1_555 1_555
H33A C67A 1_555 1_555
C68A C67A 1_555 1_555
H34A C68A 1_555 1_555
C69A C68A 1_555 1_555
H35A C69A 1_555 1_555
C70A C69A 1_555 1_555
C71A C66A 1_555 1_555
H36A C71A 1_555 1_555
C72A O35A 1_555 1_555
C73A O37A 1_555 1_555
C74A C73A 1_555 1_555
C75A C74A 1_555 1_555
H37A C75A 1_555 1_555
C76A C75A 1_555 1_555
H38A C76A 1_555 1_555
C77A C76A 1_555 1_555
H39A C77A 1_555 1_555
C78A C77A 1_555 1_555
C79A C74A 1_555 1_555
H40A C79A 1_555 1_555
C80A O39A 1_555 1_555
C81A O41A 1_555 1_555
C82A C81A 1_555 1_555
C83A C82A 1_555 1_555
H41A C83A 1_555 1_555
C84A C83A 1_555 1_555
H42A C84A 1_555 1_555
C85A C84A 1_555 1_555
H43A C85A 1_555 1_555
C86A C85A 1_555 1_555
C87A C82A 1_555 1_555
H44A C87A 1_555 1_555
C88A O43A 1_555 1_555
C89A O45A 1_555 1_555
C90A C89A 1_555 1_555
C91A C90A 1_555 1_555
H45A C91A 1_555 1_555
C92A C91A 1_555 1_555
H46A C92A 1_555 1_555
C93A C92A 1_555 1_555
H47A C93A 1_555 1_555
C94A C93A 1_555 1_555
C95A C90A 1_555 1_555
H48A C95A 1_555 1_555
C96A O47A 1_555 1_555
O6 C9 1_555 1_555
O10 C17 1_555 1_555
O14 C25 1_555 1_555
O18 C33 1_555 1_555
O21 Cu5A 1_555 1_555
O22 Cu6A 1_555 1_555
O24 C48 1_555 1_555
O26 C49 1_555 1_555
O30 C57 1_555 1_555
O32 C64 1_555 1_555
O36 C72 1_555 1_555
O40 C80 1_555 1_555
O42 C81 1_555 1_555
O44 C88 1_555 1_555
O46 C89 1_555 1_555
O48 C96 1_555 1_555
C6 C7 1_555 1_555
C6 C8 1_555 1_555
C14 C15 1_555 1_555
C14 C16 1_555 1_555
C22 C23 1_555 1_555
C22 C24 1_555 1_555
C30 C31 1_555 1_555
C30 C32 1_555 1_555
C38 C39 1_555 1_555
C46 C47 1_555 1_555
C46 C48 1_555 1_555
C54 C55 1_555 1_555
C54 C56 1_555 1_555
C62 C63 1_555 1_555
C62 C64 1_555 1_555
C70 C71 1_555 1_555
C70 C72 1_555 1_555
C78 C79 1_555 1_555
C78 C80 1_555 1_555
C86 C87 1_555 1_555
C86 C88 1_555 1_555
C94 C95 1_555 1_555
C94 C96 1_555 1_555
Cu5A Cu6A 1_555 1_555
Cu7A Cu8A 1_555 1_555
Cu9A Cu10A 1_555 1_555
O6A C9A 1_555 1_555
O8A C16A 1_555 1_555
O10A C17A 1_555 1_555
O12A C24A 1_555 1_555
O14A C25A 1_555 1_555
O16A C32A 1_555 1_555
O18A C33A 1_555 1_555
O20A C40A 1_555 1_555
O22A C41A 1_555 1_555
O24A C48A 1_555 1_555
O26A C49A 1_555 1_555
O30A C57A 1_555 1_555
O32A C64A 1_555 1_555
O34A C65A 1_555 1_555
O36A C72A 1_555 1_555
O38A C73A 1_555 1_555
O40A C80A 1_555 1_555
O42A C81A 1_555 1_555
O44A C88A 1_555 1_555
O46A C89A 1_555 1_555
O48A C96A 1_555 1_555
C6A C7A 1_555 1_555
C6A C8A 1_555 1_555
C14A C15A 1_555 1_555
C14A C16A 1_555 1_555
C22A C23A 1_555 1_555
C22A C24A 1_555 1_555
C30A C31A 1_555 1_555
C30A C32A 1_555 1_555
C38A C39A 1_555 1_555
C38A C40A 1_555 1_555
C46A C47A 1_555 1_555
C46A C48A 1_555 1_555
C54A C55A 1_555 1_555
C54A C56A 1_555 1_555
C62A C63A 1_555 1_555
C62A C64A 1_555 1_555
C70A C71A 1_555 1_555
C70A C72A 1_555 1_555
C78A C79A 1_555 1_555
C78A C80A 1_555 1_555
C86A C87A 1_555 1_555
C86A C88A 1_555 1_555
C94A C95A 1_555 1_555
C94A C96A 1_555 1_555

#END
