
#######################################################################
#
#                 Cambridge Crystallographic Data Centre
#                                CCDC 
#
#######################################################################
#
# If this CIF has been generated from an entry in the Cambridge 
# Structural Database, then it will include bibliographic, chemical, 
# crystal, experimental, refinement or atomic coordinate data resulting 
# from the CCDC's data processing and validation procedures.
#
#######################################################################

data_XAJDAP
_chemical_formula_moiety         'C192 H98 Cu24 O128'
_chemical_name_systematic        
'octakis(\m~4~-5-hydroxy-1,3-benzenedicarboxylato)-hexadecakis(\m~4~-1,3-benzenedicarboxylato)-tetracosakis(unknown)-tetracosa-copper unknown solvate'
_symmetry_cell_setting           monoclinic
_symmetry_space_group_name_H-M   'C 2/c'
_symmetry_Int_Tables_number      15
_space_group_name_Hall           '-C 2yn'
loop_
_symmetry_equiv_pos_site_id
_symmetry_equiv_pos_as_xyz
1 x,y,z
2 -x,y,1/2-z
3 1/2+x,1/2+y,z
4 1/2-x,1/2+y,1/2-z
5 -x,-y,-z
6 x,-y,1/2+z
7 1/2-x,1/2-y,-z
8 1/2+x,1/2-y,1/2+z
_cell_length_a                   35.49(3)
_cell_length_b                   32.46(2)
_cell_length_c                   35.61(3)
_cell_angle_alpha                90
_cell_angle_beta                 92.420(10)
_cell_angle_gamma                90
_cell_volume                     40986.3
_exptl_crystal_colour            blue
_exptl_crystal_description       cube
_cell_formula_units_Z            4
loop_
_atom_site_label
_atom_site_type_symbol
_atom_site_fract_x
_atom_site_fract_y
_atom_site_fract_z
Cu1 Cu 0.578614(18) 0.51631(2) 0.112974(18)
Cu2 Cu 0.622957(18) 0.57173(2) 0.085446(17)
Cu3 Cu 0.812905(17) 0.62952(2) 0.276310(17)
Cu4 Cu 0.796171(17) 0.65858(2) 0.209627(17)
Cu5 Cu 0.991205(18) 0.85239(2) 0.155523(19)
Cu6 Cu 0.930806(17) 0.82732(2) 0.118149(18)
Cu7 Cu 0.978892(18) 0.54988(2) 0.045274(18)
Cu8 Cu 0.920969(18) 0.59751(2) 0.034980(17)
Cu9 Cu 0.578640(18) 0.82012(2) 0.226300(18)
Cu10 Cu 0.623030(18) 0.80218(2) 0.172110(18)
Cu11 Cu 0.755920(18) 1.05312(2) 0.11836(2)
Cu12 Cu 0.754540(18) 0.97977(2) 0.08829(2)
O1 O 0.61753(11) 0.51042(13) 0.15335(10)
O2 O 0.65484(10) 0.55929(13) 0.13022(11)
O3 O 0.77103(10) 0.59139(12) 0.26472(9)
O4 O 0.75850(10) 0.61502(12) 0.20624(10)
O5 O 0.85185(10) 0.67207(12) 0.27839(10)
O6 O 0.83680(10) 0.69778(12) 0.22151(10)
O7 O 0.97144(11) 0.81921(13) 0.19621(11)
O8 O 0.91879(10) 0.79925(12) 0.16476(10)
O9 O 1.00243(10) 0.88235(12) 0.10937(10)
O10 O 0.95120(10) 0.85907(12) 0.07707(10)
O11 O 0.54619(10) 0.53187(12) 0.06983(11)
O12 O 0.58464(10) 0.57755(12) 0.04477(10)
O13 O 0.55759(11) 0.56274(13) 0.13993(11)
O14 O 0.59519(11) 0.61126(12) 0.11565(10)
O15 O 0.55709(10) 0.76633(12) 0.21383(11)
O16 O 0.59604(10) 0.74996(11) 0.16858(10)
O17 O 0.60847(11) 0.87158(12) 0.22959(11)
O18 O 0.64444(11) 0.85679(13) 0.18083(12)
O19 O 0.72367(11) 1.02790(12) 0.15596(11)
O20 O 0.72576(10) 0.96451(12) 0.13204(11)
O21 O 0.78705(11) 1.06834(12) 0.07647(12)
O22 O 0.78323(11) 1.00614(13) 0.04932(11)
O23 O 0.60487(10) 0.47649(12) 0.08193(10)
O24 O 0.64313(10) 0.52444(13) 0.05905(10)
O25 O 0.84743(10) 0.59459(12) 0.24907(9)
O26 O 0.83486(10) 0.62137(12) 0.19198(10)
O27 O 0.96212(11) 0.54536(13) 0.09663(10)
O28 O 0.90841(10) 0.57948(13) 0.08546(10)
O29 O 0.98573(11) 0.56208(13) -0.00840(10)
O30 O 0.94241(11) 0.61122(13) -0.01400(10)
O31 O 0.54748(10) 0.84559(12) 0.18668(10)
O32 O 0.58421(11) 0.82812(12) 0.13919(10)
O33 O 0.61539(10) 0.79474(12) 0.26071(10)
O34 O 0.65437(10) 0.78055(12) 0.21429(11)
O35 O 0.77591(10) 0.66870(13) 0.29508(10)
O36 O 0.76134(10) 0.69281(12) 0.23718(11)
O37 O 1.01418(11) 0.80287(12) 0.13406(11)
O38 O 0.96100(10) 0.78015(11) 0.10502(11)
O39 O 1.00600(11) 0.59991(12) 0.05936(11)
O40 O 0.95402(10) 0.63926(12) 0.05865(10)
O41 O 0.94478(10) 0.50519(12) 0.02932(11)
O42 O 0.89811(10) 0.54772(13) 0.01214(11)
O43 O 0.71020(11) 1.06467(12) 0.08699(11)
O44 O 0.70850(11) 0.99960(13) 0.06320(11)
O45 O 0.80084(11) 1.03033(12) 0.14493(11)
O46 O 0.80114(10) 0.96922(12) 0.11682(12)
O47 O 0.95914(10) 0.89849(12) 0.17087(11)
O48 O 0.90815(10) 0.87774(13) 0.13606(12)
O49 O 0.53754(13) 0.47328(13) 0.13472(12)
O50 O 0.66182(14) 0.61497(17) 0.06138(14)
O51 O 0.82401(11) 0.60133(14) 0.33069(10)
O52 O 0.77864(13) 0.68421(16) 0.15559(12)
O53 O 1.04112(12) 0.87356(15) 0.18629(13)
O54 O 0.88031(13) 0.80676(16) 0.08639(14)
O55 O 0.53769(11) 0.83190(13) 0.26900(11)
O56 O 0.66248(14) 0.78524(16) 0.13015(13)
O57 O 0.76267(12) 1.11207(12) 0.14718(12)
O58 O 0.75001(16) 0.91936(15) 0.06196(15)
O59 O 1.02677(10) 0.51046(11) 0.05115(10)
O60 O 0.87121(13) 0.63533(16) 0.02666(13)
O64 O 0.9646(3) 0.5094(2) 0.2305(4)
H4 H 0.9814 0.4998 0.2171
O66 O 1.05214(19) 0.5653(3) -0.1299(4)
H6 H 1.0538 0.5720 -0.1525
O67 O 0.6954(4) 0.7569(3) 0.37599(19)
H7 H 0.6769 0.7720 0.3804
O68 O 1.0679(3) 0.9678(2) 0.0077(4)
H8 H 1.0803 0.9718 0.0280
H11 H 0.9151 1.0261 0.2158
H15 H 1.0978 0.6947 0.1069
H16 H 0.8987 0.3810 -0.0237
C1 C 0.64562(15) 0.5342(2) 0.15468(15)
C2 C 0.67182(15) 0.53046(19) 0.18942(15)
C3 C 0.66689(17) 0.5005(2) 0.21578(17)
H17 H 0.6475 0.4806 0.2118
C4 C 0.68985(18) 0.4989(2) 0.24830(17)
H18 H 0.6869 0.4774 0.2660
C5 C 0.71713(16) 0.52911(19) 0.25463(15)
H19 H 0.7319 0.5291 0.2775
C6 C 0.72299(14) 0.55932(17) 0.22780(14)
C7 C 0.69983(14) 0.55965(18) 0.19435(14)
H20 H 0.7036 0.5798 0.1755
C8 C 0.75290(13) 0.59150(17) 0.23344(13)
C9 C 0.85630(15) 0.69546(19) 0.25139(15)
C10 C 0.88941(19) 0.7258(2) 0.25558(17)
C11 C 0.90990(18) 0.7288(2) 0.28802(17)
H21 H 0.9036 0.7124 0.3090
C12 C 0.94065(18) 0.7561(2) 0.29116(17)
H22 H 0.9550 0.7585 0.3142
C13 C 0.94969(19) 0.7793(2) 0.26077(16)
H23 H 0.9702 0.7981 0.2628
C14 C 0.92910(19) 0.7754(2) 0.22697(17)
C15 C 0.89881(18) 0.7491(2) 0.22432(17)
H24 H 0.8843 0.7468 0.2014
C16 C 0.94041(15) 0.80012(18) 0.19353(16)
C17 C 0.98087(16) 0.88034(16) 0.08016(15)
C18 C 0.99152(13) 0.90488(13) 0.04642(14)
C19 C 1.02674(16) 0.92329(15) 0.04505(16)
H25 H 1.0449 0.9194 0.0651
C20 C 1.03553(16) 0.94720(15) 0.01470(18)
C21 C 1.00960(15) 0.95315(14) -0.01461(16)
H26 H 1.0158 0.9697 -0.0355
C22 C 0.97409(14) 0.93475(14) -0.01348(14)
C23 C 0.96521(14) 0.91080(13) 0.01686(14)
H27 H 0.9410 0.8983 0.0176
C24 C 0.55472(15) 0.55771(18) 0.04486(14)
C25 C 0.56910(16) 0.5995(2) 0.13674(15)
C26 C 0.55045(15) 0.63189(18) 0.15866(16)
C27 C 0.51779(19) 0.6233(2) 0.1765(2)
H28 H 0.5065 0.5967 0.1744
C28 C 0.5012(2) 0.6544(2) 0.1979(2)
H29 H 0.4783 0.6490 0.2098
C29 C 0.51745(19) 0.6919(2) 0.2018(2)
H30 H 0.5059 0.7123 0.2166
C30 C 0.55122(16) 0.70113(19) 0.18414(16)
C31 C 0.56662(15) 0.67092(19) 0.16179(15)
H31 H 0.5885 0.6770 0.1484
C32 C 0.56956(15) 0.74193(18) 0.18936(15)
C33 C 0.63347(15) 0.87950(18) 0.20694(17)
C34 C 0.65242(15) 0.92078(18) 0.21143(16)
C35 C 0.64573(16) 0.94600(19) 0.24178(18)
H32 H 0.6296 0.9367 0.2606
C36 C 0.66181(17) 0.9837(2) 0.24512(17)
H33 H 0.6578 1.0000 0.2667
C37 C 0.68437(15) 0.99864(18) 0.21688(16)
H34 H 0.6948 1.0255 0.2188
C38 C 0.69131(14) 0.97459(17) 0.18653(15)
C39 C 0.67529(14) 0.93520(17) 0.18393(16)
H35 H 0.6802 0.9182 0.1630
C40 C 0.71528(14) 0.98999(18) 0.15579(16)
C41 C 0.79420(15) 1.04315(19) 0.05082(17)
C42 C 0.81785(12) 1.05808(19) 0.02001(15)
C43 C 0.82699(15) 1.0986(2) 0.01703(17)
H36 H 0.8179 1.1182 0.0343
C44 C 0.84983(16) 1.1110(2) -0.01178(19)
C45 C 0.86337(14) 1.0843(2) -0.03704(17)
H37 H 0.8789 1.0938 -0.0564
C46 C 0.85432(13) 1.04298(19) -0.03435(14)
C47 C 0.83110(12) 1.0300(2) -0.00515(15)
H38 H 0.8246 1.0018 -0.0030
C48 C 0.63023(15) 0.4891(2) 0.06067(14)
C49 C 0.85344(13) 0.59877(17) 0.21458(14)
C50 C 0.88532(12) 0.57440(14) 0.19926(14)
C51 C 0.90859(14) 0.55240(15) 0.22383(15)
C52 C 0.93979(16) 0.53199(16) 0.20886(18)
C53 C 0.94725(15) 0.53353(15) 0.17128(16)
H41 H 0.9684 0.5195 0.1620
C54 C 0.92326(14) 0.55597(15) 0.14718(14)
C55 C 0.89194(13) 0.57668(13) 0.16111(14)
H42 H 0.8755 0.5920 0.1447
C56 C 0.93141(15) 0.56130(17) 0.10589(15)
C57 C 0.96828(15) 0.58966(18) -0.02579(14)
C58 C 0.98019(12) 0.59752(13) -0.06561(14)
C59 C 1.01197(14) 0.57768(15) -0.07870(15)
H43 H 1.0268 0.5602 -0.0626
C60 C 1.02142(14) 0.58392(16) -0.11568(18)
C61 C 1.00036(15) 0.60896(16) -0.13944(16)
H44 H 1.0074 0.6128 -0.1647
C62 C 0.96850(13) 0.62885(14) -0.12635(14)
C63 C 0.95807(14) 0.62326(14) -0.08903(15)
H45 H 0.9365 0.6367 -0.0799
C64 C 0.55646(15) 0.84632(17) 0.15293(15)
C65 C 0.64559(16) 0.77998(16) 0.24852(16)
C66 C 0.67395(13) 0.76284(14) 0.27572(15)
C67 C 0.67161(15) 0.76912(15) 0.31420(17)
H46 H 0.6522 0.7859 0.3235
C68 C 0.69712(17) 0.75116(16) 0.33821(18)
C69 C 0.72591(16) 0.72646(16) 0.32608(17)
H47 H 0.7435 0.7142 0.3435
C70 C 0.72846(14) 0.71993(15) 0.28693(15)
C71 C 0.70256(14) 0.73818(14) 0.26275(16)
H48 H 0.7042 0.7339 0.2365
C72 C 0.75762(15) 0.6917(2) 0.27266(16)
C73 C 0.99517(16) 0.77669(19) 0.11558(17)
C74 C 1.01511(15) 0.73731(17) 0.10446(11)
C75 C 1.05358(17) 0.73360(19) 0.11104(12)
H49 H 1.0678 0.7559 0.1214
C76 C 1.07092(17) 0.6974(2) 0.10240(12)
C77 C 1.05034(17) 0.6645(2) 0.08716(12)
H50 H 1.0627 0.6395 0.0813
C78 C 1.01184(15) 0.66833(16) 0.08064(11)
C79 C 0.99426(16) 0.70480(17) 0.08930(11)
H51 H 0.9678 0.7076 0.0849
C80 C 0.98854(16) 0.63329(18) 0.06541(14)
C81 C 0.91353(15) 0.51299(18) 0.01327(14)
C82 C 0.89302(14) 0.47852(19) -0.00607(12)
C83 C 0.90803(16) 0.43888(19) -0.00533(14)
H52 H 0.9312 0.4331 0.0080
C84 C 0.88847(18) 0.4086(2) -0.02428(15)
C85 C 0.85505(16) 0.41527(19) -0.04384(14)
H53 H 0.8424 0.3933 -0.0566
C86 C 0.84007(15) 0.45421(19) -0.04471(13)
C87 C 0.85898(15) 0.48612(19) -0.02581(12)
H54 H 0.8487 0.5131 -0.0264
C88 C 0.69553(15) 1.0361(2) 0.06670(17)
C89 C 0.81547(15) 0.99637(18) 0.13802(17)
C90 C 0.85277(14) 0.98700(17) 0.15772(14)
C91 C 0.86992(16) 1.01509(19) 0.18229(15)
H55 H 0.8579 1.0405 0.1874
C92 C 0.90346(19) 1.0063(2) 0.19875(15)
C93 C 0.92234(17) 0.9694(2) 0.19218(15)
H56 H 0.9462 0.9639 0.2043
C94 C 0.90577(15) 0.94096(17) 0.16781(14)
C95 C 0.87098(14) 0.94998(16) 0.15068(13)
H57 H 0.8594 0.9306 0.1339
C96 C 0.92560(15) 0.90314(17) 0.15763(17)
Cu1F Cu 0.921386(18) 0.98369(2) -0.112974(18)
Cu2F Cu 0.877043(18) 0.92827(2) -0.085446(17)
Cu3F Cu 0.687095(17) 0.87048(2) -0.276310(17)
Cu4F Cu 0.703829(17) 0.84142(2) -0.209627(17)
Cu5F Cu 0.508795(18) 0.64761(2) -0.155523(19)
Cu6F Cu 0.569194(17) 0.67268(2) -0.118149(18)
Cu7F Cu 0.521108(18) 0.95012(2) -0.045274(18)
Cu8F Cu 0.579031(18) 0.90249(2) -0.034980(17)
Cu9F Cu 0.921360(18) 0.67988(2) -0.226300(18)
Cu10F Cu 0.876970(18) 0.69782(2) -0.172110(18)
Cu11F Cu 0.744080(18) 0.44688(2) -0.11836(2)
Cu12F Cu 0.745460(18) 0.52023(2) -0.08829(2)
O1F O 0.88247(11) 0.98958(13) -0.15335(10)
O2F O 0.84516(10) 0.94071(13) -0.13022(11)
O3F O 0.72897(10) 0.90861(12) -0.26472(9)
O4F O 0.74150(10) 0.88498(12) -0.20624(10)
O5F O 0.64815(10) 0.82793(12) -0.27839(10)
O6F O 0.66320(10) 0.80222(12) -0.22151(10)
O7F O 0.52856(11) 0.68079(13) -0.19621(11)
O8F O 0.58121(10) 0.70075(12) -0.16476(10)
O9F O 0.49757(10) 0.61765(12) -0.10937(10)
O10F O 0.54880(10) 0.64093(12) -0.07707(10)
O11F O 0.95381(10) 0.96813(12) -0.06983(11)
O12F O 0.91536(10) 0.92245(12) -0.04477(10)
O13F O 0.94241(11) 0.93726(13) -0.13993(11)
O14F O 0.90481(11) 0.88874(12) -0.11565(10)
O15F O 0.94291(10) 0.73367(12) -0.21383(11)
O16F O 0.90396(10) 0.75004(11) -0.16858(10)
O17F O 0.89153(11) 0.62842(12) -0.22959(11)
O18F O 0.85556(11) 0.64321(13) -0.18083(12)
O19F O 0.77633(11) 0.47210(12) -0.15596(11)
O20F O 0.77424(10) 0.53549(12) -0.13204(11)
O21F O 0.71295(11) 0.43166(12) -0.07647(12)
O22F O 0.71677(11) 0.49386(13) -0.04932(11)
O23F O 0.89513(10) 1.02351(12) -0.08193(10)
O24F O 0.85687(10) 0.97556(13) -0.05905(10)
O25F O 0.65257(10) 0.90541(12) -0.24907(9)
O26F O 0.66514(10) 0.87863(12) -0.19198(10)
O27F O 0.53788(11) 0.95464(13) -0.09663(10)
O28F O 0.59159(10) 0.92052(13) -0.08546(10)
O29F O 0.51427(11) 0.93792(13) 0.00840(10)
O30F O 0.55759(11) 0.88878(13) 0.01400(10)
O31F O 0.95252(10) 0.65441(12) -0.18668(10)
O32F O 0.91579(11) 0.67188(12) -0.13919(10)
O33F O 0.88461(10) 0.70526(12) -0.26071(10)
O34F O 0.84563(10) 0.71945(12) -0.21429(11)
O35F O 0.72409(10) 0.83130(13) -0.29508(10)
O36F O 0.73866(10) 0.80719(12) -0.23718(11)
O37F O 0.48582(11) 0.69713(12) -0.13406(11)
O38F O 0.53900(10) 0.71985(11) -0.10502(11)
O39F O 0.49400(11) 0.90009(12) -0.05936(11)
O40F O 0.54598(10) 0.86074(12) -0.05865(10)
O41F O 0.55522(10) 0.99481(12) -0.02932(11)
O42F O 0.60189(10) 0.95228(13) -0.01214(11)
O43F O 0.78980(11) 0.43533(12) -0.08699(11)
O44F O 0.79150(11) 0.50040(13) -0.06320(11)
O45F O 0.69916(11) 0.46967(12) -0.14493(11)
O46F O 0.69886(10) 0.53078(12) -0.11682(12)
O47F O 0.54086(10) 0.60151(12) -0.17087(11)
O48F O 0.59185(10) 0.62226(13) -0.13606(12)
O49F O 0.96246(13) 1.02672(13) -0.13472(12)
O50F O 0.83818(14) 0.88503(17) -0.06138(14)
O51F O 0.67599(11) 0.89867(14) -0.33069(10)
O52F O 0.72136(13) 0.81579(16) -0.15559(12)
O53F O 0.45888(12) 0.62644(15) -0.18629(13)
O54F O 0.61969(13) 0.69324(16) -0.08639(14)
O55F O 0.96231(11) 0.66810(13) -0.26900(11)
O56F O 0.83752(14) 0.71476(16) -0.13015(13)
O57F O 0.73733(12) 0.38793(12) -0.14718(12)
O58F O 0.74999(16) 0.58064(15) -0.06196(15)
O59F O 0.47323(10) 0.98954(11) -0.05115(10)
O60F O 0.62879(13) 0.86467(16) -0.02666(13)
O64F O 0.5354(3) 0.9906(2) -0.2305(4)
H4F H 0.5186 1.0002 -0.2171
O66F O 0.44786(19) 0.9347(3) 0.1299(4)
H6F H 0.4462 0.9280 0.1525
O67F O 0.8046(4) 0.7431(3) -0.37599(19)
H7F H 0.8231 0.7280 -0.3804
O68F O 0.4321(3) 0.5322(2) -0.0077(4)
H8F H 0.4197 0.5282 -0.0280
H11F H 0.5849 0.4739 -0.2158
H15F H 0.4022 0.8053 -0.1069
H16F H 0.6013 1.1190 0.0237
C1F C 0.85438(15) 0.9658(2) -0.15468(15)
C2F C 0.82818(15) 0.96954(19) -0.18942(15)
C3F C 0.83311(17) 0.9995(2) -0.21578(17)
H17F H 0.8525 1.0194 -0.2118
C4F C 0.81015(18) 1.0011(2) -0.24830(17)
H18F H 0.8131 1.0226 -0.2660
C5F C 0.78287(16) 0.97089(19) -0.25463(15)
H19F H 0.7681 0.9709 -0.2775
C6F C 0.77701(14) 0.94068(17) -0.22780(14)
C7F C 0.80017(14) 0.94035(18) -0.19435(14)
H20F H 0.7964 0.9202 -0.1755
C8F C 0.74710(13) 0.90850(17) -0.23344(13)
C9F C 0.64370(15) 0.80454(19) -0.25139(15)
C10F C 0.61059(19) 0.7742(2) -0.25558(17)
C11F C 0.59010(18) 0.7712(2) -0.28802(17)
H21F H 0.5964 0.7876 -0.3090
C12F C 0.55935(18) 0.7439(2) -0.29116(17)
H22F H 0.5450 0.7415 -0.3142
C13F C 0.55031(19) 0.7207(2) -0.26077(16)
H23F H 0.5298 0.7019 -0.2628
C14F C 0.57090(19) 0.7246(2) -0.22697(17)
C15F C 0.60119(18) 0.7509(2) -0.22432(17)
H24F H 0.6157 0.7532 -0.2014
C16F C 0.55959(15) 0.69988(18) -0.19353(16)
C17F C 0.51913(16) 0.61966(16) -0.08016(15)
C18F C 0.50848(13) 0.59512(13) -0.04642(14)
C19F C 0.47326(16) 0.57671(15) -0.04505(16)
H25F H 0.4551 0.5806 -0.0651
C20F C 0.46447(16) 0.55280(15) -0.01470(18)
C21F C 0.49040(15) 0.54685(14) 0.01461(16)
H26F H 0.4842 0.5303 0.0355
C22F C 0.52591(14) 0.56525(14) 0.01348(14)
C23F C 0.53479(14) 0.58920(13) -0.01686(14)
H27F H 0.5590 0.6017 -0.0176
C24F C 0.94528(15) 0.94229(18) -0.04486(14)
C25F C 0.93090(16) 0.9005(2) -0.13674(15)
C26F C 0.94955(15) 0.86811(18) -0.15866(16)
C27F C 0.98221(19) 0.8767(2) -0.1765(2)
H28F H 0.9935 0.9033 -0.1744
C28F C 0.9988(2) 0.8456(2) -0.1979(2)
H29F H 1.0217 0.8510 -0.2098
C29F C 0.98255(19) 0.8081(2) -0.2018(2)
H30F H 0.9941 0.7877 -0.2166
C30F C 0.94878(16) 0.79887(19) -0.18414(16)
C31F C 0.93338(15) 0.82908(19) -0.16179(15)
H31F H 0.9115 0.8230 -0.1484
C32F C 0.93044(15) 0.75807(18) -0.18936(15)
C33F C 0.86653(15) 0.62050(18) -0.20694(17)
C34F C 0.84758(15) 0.57922(18) -0.21143(16)
C35F C 0.85427(16) 0.55400(19) -0.24178(18)
H32F H 0.8704 0.5633 -0.2606
C36F C 0.83819(17) 0.5163(2) -0.24512(17)
H33F H 0.8422 0.5000 -0.2667
C37F C 0.81563(15) 0.50136(18) -0.21688(16)
H34F H 0.8052 0.4745 -0.2188
C38F C 0.80869(14) 0.52541(17) -0.18653(15)
C39F C 0.82471(14) 0.56480(17) -0.18393(16)
H35F H 0.8198 0.5818 -0.1630
C40F C 0.78472(14) 0.51001(18) -0.15579(16)
C41F C 0.70580(15) 0.45685(19) -0.05082(17)
C42F C 0.68215(12) 0.44192(19) -0.02001(15)
C43F C 0.67301(15) 0.4014(2) -0.01703(17)
H36F H 0.6821 0.3818 -0.0343
C44F C 0.65017(16) 0.3890(2) 0.01178(19)
C45F C 0.63663(14) 0.4157(2) 0.03704(17)
H37F H 0.6211 0.4062 0.0564
C46F C 0.64568(13) 0.45702(19) 0.03435(14)
C47F C 0.66890(12) 0.4700(2) 0.00515(15)
H38F H 0.6754 0.4982 0.0030
C48F C 0.86977(15) 1.0109(2) -0.06067(14)
C49F C 0.64656(13) 0.90123(17) -0.21458(14)
C50F C 0.61468(12) 0.92560(14) -0.19926(14)
C51F C 0.59141(14) 0.94760(15) -0.22383(15)
C52F C 0.56021(16) 0.96801(16) -0.20886(18)
C53F C 0.55275(15) 0.96647(15) -0.17128(16)
H41F H 0.5316 0.9805 -0.1620
C54F C 0.57674(14) 0.94403(15) -0.14718(14)
C55F C 0.60806(13) 0.92332(13) -0.16111(14)
H42F H 0.6245 0.9080 -0.1447
C56F C 0.56859(15) 0.93870(17) -0.10589(15)
C57F C 0.53172(15) 0.91034(18) 0.02579(14)
C58F C 0.51981(12) 0.90248(13) 0.06561(14)
C59F C 0.48803(14) 0.92232(15) 0.07870(15)
H43F H 0.4732 0.9398 0.0626
C60F C 0.47858(14) 0.91608(16) 0.11568(18)
C61F C 0.49964(15) 0.89104(16) 0.13944(16)
H44F H 0.4926 0.8872 0.1647
C62F C 0.53150(13) 0.87115(14) 0.12635(14)
C63F C 0.54193(14) 0.87674(14) 0.08903(15)
H45F H 0.5635 0.8633 0.0799
C64F C 0.94354(15) 0.65368(17) -0.15293(15)
C65F C 0.85441(16) 0.72002(16) -0.24852(16)
C66F C 0.82605(13) 0.73716(14) -0.27572(15)
C67F C 0.82839(15) 0.73088(15) -0.31420(17)
H46F H 0.8478 0.7141 -0.3235
C68F C 0.80288(17) 0.74884(16) -0.33821(18)
C69F C 0.77409(16) 0.77354(16) -0.32608(17)
H47F H 0.7565 0.7858 -0.3435
C70F C 0.77154(14) 0.78007(15) -0.28693(15)
C71F C 0.79744(14) 0.76182(14) -0.26275(16)
H48F H 0.7958 0.7661 -0.2365
C72F C 0.74238(15) 0.8083(2) -0.27266(16)
C73F C 0.50483(16) 0.72331(19) -0.11558(17)
C74F C 0.48489(15) 0.76269(17) -0.10446(11)
C75F C 0.44642(17) 0.76640(19) -0.11104(12)
H49F H 0.4322 0.7441 -0.1214
C76F C 0.42908(17) 0.8026(2) -0.10240(12)
C77F C 0.44966(17) 0.8355(2) -0.08716(12)
H50F H 0.4373 0.8605 -0.0813
C78F C 0.48816(15) 0.83167(16) -0.08064(11)
C79F C 0.50574(16) 0.79520(17) -0.08930(11)
H51F H 0.5322 0.7924 -0.0849
C80F C 0.51146(16) 0.86671(18) -0.06541(14)
C81F C 0.58647(15) 0.98701(18) -0.01327(14)
C82F C 0.60698(14) 1.02148(19) 0.00607(12)
C83F C 0.59197(16) 1.06112(19) 0.00533(14)
H52F H 0.5688 1.0669 -0.0080
C84F C 0.61153(18) 1.0914(2) 0.02428(15)
C85F C 0.64495(16) 1.08473(19) 0.04384(14)
H53F H 0.6576 1.1067 0.0566
C86F C 0.65993(15) 1.04579(19) 0.04471(13)
C87F C 0.64102(15) 1.01388(19) 0.02581(12)
H54F H 0.6513 0.9869 0.0264
C88F C 0.80447(15) 0.4639(2) -0.06670(17)
C89F C 0.68453(15) 0.50363(18) -0.13802(17)
C90F C 0.64723(14) 0.51300(17) -0.15772(14)
C91F C 0.63008(16) 0.48491(19) -0.18229(15)
H55F H 0.6421 0.4595 -0.1874
C92F C 0.59654(19) 0.4937(2) -0.19875(15)
C93F C 0.57766(17) 0.5306(2) -0.19218(15)
H56F H 0.5538 0.5361 -0.2043
C94F C 0.59423(15) 0.55904(17) -0.16781(14)
C95F C 0.62902(14) 0.55002(16) -0.15068(13)
H57F H 0.6406 0.5694 -0.1339
C96F C 0.57440(15) 0.59686(17) -0.15763(17)
O61? O 0.6419(3) 0.3481(2) 0.0135(4)
H1? H 0.6282 0.3436 0.0317
O62? O 0.5796(4) 0.4662(4) -0.2229(2)
H2? H 0.5933 0.4452 -0.2245
O63? O 0.8993(4) 0.3684(2) -0.0263(3)
H3? H 0.9199 0.3652 -0.0141
O65? O 1.10871(18) 0.6913(6) 0.1080(3)
H5? H 1.1187 0.7128 0.1172
H9? H 0.6438 0.3601 0.0138
H10? H 1.0601 0.9599 0.0140
H12? H 0.8048 0.7442 -0.3648
H13? H 1.0433 0.5703 -0.1249
H14? H 0.9564 0.5163 0.2256
H39? H 0.8930 0.5315 0.2363
H40? H 0.9183 0.5715 0.2436
loop_
_geom_bond_atom_site_label_1
_geom_bond_atom_site_label_2
_geom_bond_site_symmetry_1
_geom_bond_site_symmetry_2
Cu1 Cu2 1_555 1_555
Cu2 O2 1_555 1_555
Cu3 Cu4 1_555 1_555
Cu4 O4 1_555 1_555
Cu5 Cu6 1_555 1_555
Cu6 O8 1_555 1_555
Cu7 Cu8 1_555 1_555
Cu8 O28 1_555 1_555
Cu9 Cu10 1_555 1_555
Cu10 O16 1_555 1_555
Cu11 Cu12 1_555 1_555
Cu12 O20 1_555 1_555
O1 Cu1 1_555 1_555
O2 C1 1_555 1_555
O3 Cu3 1_555 1_555
O4 C8 1_555 1_555
O5 Cu3 1_555 1_555
O6 Cu4 1_555 1_555
O7 Cu5 1_555 1_555
O8 C16 1_555 1_555
O9 Cu5 1_555 1_555
O10 Cu6 1_555 1_555
O11 Cu1 1_555 1_555
O12 Cu2 1_555 1_555
O13 Cu1 1_555 1_555
O14 Cu2 1_555 1_555
O15 Cu9 1_555 1_555
O16 C32 1_555 1_555
O17 Cu9 1_555 1_555
O18 Cu10 1_555 1_555
O19 Cu11 1_555 1_555
O20 C40 1_555 1_555
O21 Cu11 1_555 1_555
O22 Cu12 1_555 1_555
O23 Cu1 1_555 1_555
O24 Cu2 1_555 1_555
O25 Cu3 1_555 1_555
O26 Cu4 1_555 1_555
O27 Cu7 1_555 1_555
O28 C56 1_555 1_555
O29 Cu7 1_555 1_555
O30 Cu8 1_555 1_555
O31 Cu9 1_555 1_555
O32 Cu10 1_555 1_555
O33 Cu9 1_555 1_555
O34 Cu10 1_555 1_555
O35 Cu3 1_555 1_555
O36 Cu4 1_555 1_555
O37 Cu5 1_555 1_555
O38 Cu6 1_555 1_555
O39 Cu7 1_555 1_555
O40 Cu8 1_555 1_555
O41 Cu7 1_555 1_555
O42 Cu8 1_555 1_555
O43 Cu11 1_555 1_555
O44 Cu12 1_555 1_555
O45 Cu11 1_555 1_555
O46 Cu12 1_555 1_555
O47 Cu5 1_555 1_555
O48 Cu6 1_555 1_555
O49 Cu1 1_555 1_555
O50 Cu2 1_555 1_555
O51 Cu3 1_555 1_555
O52 Cu4 1_555 1_555
O53 Cu5 1_555 1_555
O54 Cu6 1_555 1_555
O55 Cu9 1_555 1_555
O56 Cu10 1_555 1_555
O57 Cu11 1_555 1_555
O58 Cu12 1_555 1_555
O59 Cu7 1_555 1_555
O60 Cu8 1_555 1_555
O64 H4 1_555 1_555
O66 H6 1_555 1_555
O67 H7 1_555 1_555
O68 H8 1_555 1_555
H11 C92 1_555 1_555
H15 C76 1_555 1_555
H16 C84 1_555 1_555
C1 O1 1_555 1_555
C2 C1 1_555 1_555
C3 C2 1_555 1_555
H17 C3 1_555 1_555
C4 C3 1_555 1_555
H18 C4 1_555 1_555
C5 C4 1_555 1_555
H19 C5 1_555 1_555
C6 C5 1_555 1_555
C7 C2 1_555 1_555
H20 C7 1_555 1_555
C8 O3 1_555 1_555
C9 O5 1_555 1_555
C10 C9 1_555 1_555
C11 C10 1_555 1_555
H21 C11 1_555 1_555
C12 C11 1_555 1_555
H22 C12 1_555 1_555
C13 C12 1_555 1_555
H23 C13 1_555 1_555
C14 C13 1_555 1_555
C15 C10 1_555 1_555
H24 C15 1_555 1_555
C16 O7 1_555 1_555
C17 O9 1_555 1_555
C18 C17 1_555 1_555
C19 C18 1_555 1_555
H25 C19 1_555 1_555
C20 O68 1_555 1_555
C21 C20 1_555 1_555
H26 C21 1_555 1_555
C22 C21 1_555 1_555
C23 C18 1_555 1_555
H27 C23 1_555 1_555
C24 O11 1_555 1_555
C25 O13 1_555 1_555
C26 C25 1_555 1_555
C27 C26 1_555 1_555
H28 C27 1_555 1_555
C28 C27 1_555 1_555
H29 C28 1_555 1_555
C29 C28 1_555 1_555
H30 C29 1_555 1_555
C30 C29 1_555 1_555
C31 C26 1_555 1_555
H31 C31 1_555 1_555
C32 O15 1_555 1_555
C33 O17 1_555 1_555
C34 C33 1_555 1_555
C35 C34 1_555 1_555
H32 C35 1_555 1_555
C36 C35 1_555 1_555
H33 C36 1_555 1_555
C37 C36 1_555 1_555
H34 C37 1_555 1_555
C38 C37 1_555 1_555
C39 C34 1_555 1_555
H35 C39 1_555 1_555
C40 O19 1_555 1_555
C41 O21 1_555 1_555
C42 C41 1_555 1_555
C43 C42 1_555 1_555
H36 C43 1_555 1_555
C44 C43 1_555 1_555
C45 C44 1_555 1_555
H37 C45 1_555 1_555
C46 C45 1_555 1_555
C47 C42 1_555 1_555
H38 C47 1_555 1_555
C48 O23 1_555 1_555
C49 O25 1_555 1_555
C50 C49 1_555 1_555
C51 C50 1_555 1_555
C52 O64 1_555 1_555
C53 C52 1_555 1_555
H41 C53 1_555 1_555
C54 C53 1_555 1_555
C55 C50 1_555 1_555
H42 C55 1_555 1_555
C56 O27 1_555 1_555
C57 O29 1_555 1_555
C58 C57 1_555 1_555
C59 C58 1_555 1_555
H43 C59 1_555 1_555
C60 O66 1_555 1_555
C61 C60 1_555 1_555
H44 C61 1_555 1_555
C62 C61 1_555 1_555
C63 C58 1_555 1_555
H45 C63 1_555 1_555
C64 O31 1_555 1_555
C65 O33 1_555 1_555
C66 C65 1_555 1_555
C67 C66 1_555 1_555
H46 C67 1_555 1_555
C68 O67 1_555 1_555
C69 C68 1_555 1_555
H47 C69 1_555 1_555
C70 C69 1_555 1_555
C71 C66 1_555 1_555
H48 C71 1_555 1_555
C72 O35 1_555 1_555
C73 O37 1_555 1_555
C74 C73 1_555 1_555
C75 C74 1_555 1_555
H49 C75 1_555 1_555
C76 C75 1_555 1_555
C77 C76 1_555 1_555
H50 C77 1_555 1_555
C78 C77 1_555 1_555
C79 C74 1_555 1_555
H51 C79 1_555 1_555
C80 O39 1_555 1_555
C81 O41 1_555 1_555
C82 C81 1_555 1_555
C83 C82 1_555 1_555
H52 C83 1_555 1_555
C84 C83 1_555 1_555
C85 C84 1_555 1_555
H53 C85 1_555 1_555
C86 C85 1_555 1_555
C87 C82 1_555 1_555
H54 C87 1_555 1_555
C88 O43 1_555 1_555
C89 O45 1_555 1_555
C90 C89 1_555 1_555
C91 C90 1_555 1_555
H55 C91 1_555 1_555
C92 C91 1_555 1_555
C93 C92 1_555 1_555
H56 C93 1_555 1_555
C94 C93 1_555 1_555
C95 C90 1_555 1_555
H57 C95 1_555 1_555
C96 O47 1_555 1_555
Cu1F Cu2F 1_555 1_555
Cu2F O2F 1_555 1_555
Cu3F Cu4F 1_555 1_555
Cu4F O4F 1_555 1_555
Cu5F Cu6F 1_555 1_555
Cu6F O8F 1_555 1_555
Cu7F Cu8F 1_555 1_555
Cu8F O28F 1_555 1_555
Cu9F Cu10F 1_555 1_555
Cu10F O16F 1_555 1_555
Cu11F Cu12F 1_555 1_555
Cu12F O20F 1_555 1_555
O1F Cu1F 1_555 1_555
O2F C1F 1_555 1_555
O3F Cu3F 1_555 1_555
O4F C8F 1_555 1_555
O5F Cu3F 1_555 1_555
O6F Cu4F 1_555 1_555
O7F Cu5F 1_555 1_555
O8F C16F 1_555 1_555
O9F Cu5F 1_555 1_555
O10F Cu6F 1_555 1_555
O11F Cu1F 1_555 1_555
O12F Cu2F 1_555 1_555
O13F Cu1F 1_555 1_555
O14F Cu2F 1_555 1_555
O15F Cu9F 1_555 1_555
O16F C32F 1_555 1_555
O17F Cu9F 1_555 1_555
O18F Cu10F 1_555 1_555
O19F Cu11F 1_555 1_555
O20F C40F 1_555 1_555
O21F Cu11F 1_555 1_555
O22F Cu12F 1_555 1_555
O23F Cu1F 1_555 1_555
O24F Cu2F 1_555 1_555
O25F Cu3F 1_555 1_555
O26F Cu4F 1_555 1_555
O27F Cu7F 1_555 1_555
O28F C56F 1_555 1_555
O29F Cu7F 1_555 1_555
O30F Cu8F 1_555 1_555
O31F Cu9F 1_555 1_555
O32F Cu10F 1_555 1_555
O33F Cu9F 1_555 1_555
O34F Cu10F 1_555 1_555
O35F Cu3F 1_555 1_555
O36F Cu4F 1_555 1_555
O37F Cu5F 1_555 1_555
O38F Cu6F 1_555 1_555
O39F Cu7F 1_555 1_555
O40F Cu8F 1_555 1_555
O41F Cu7F 1_555 1_555
O42F Cu8F 1_555 1_555
O43F Cu11F 1_555 1_555
O44F Cu12F 1_555 1_555
O45F Cu11F 1_555 1_555
O46F Cu12F 1_555 1_555
O47F Cu5F 1_555 1_555
O48F Cu6F 1_555 1_555
O49F Cu1F 1_555 1_555
O50F Cu2F 1_555 1_555
O51F Cu3F 1_555 1_555
O52F Cu4F 1_555 1_555
O53F Cu5F 1_555 1_555
O54F Cu6F 1_555 1_555
O55F Cu9F 1_555 1_555
O56F Cu10F 1_555 1_555
O57F Cu11F 1_555 1_555
O58F Cu12F 1_555 1_555
O59F Cu7F 1_555 1_555
O60F Cu8F 1_555 1_555
O64F H4F 1_555 1_555
O66F H6F 1_555 1_555
O67F H7F 1_555 1_555
O68F H8F 1_555 1_555
H11F C92F 1_555 1_555
H15F C76F 1_555 1_555
H16F C84F 1_555 1_555
C1F O1F 1_555 1_555
C2F C1F 1_555 1_555
C3F C2F 1_555 1_555
H17F C3F 1_555 1_555
C4F C3F 1_555 1_555
H18F C4F 1_555 1_555
C5F C4F 1_555 1_555
H19F C5F 1_555 1_555
C6F C5F 1_555 1_555
C7F C2F 1_555 1_555
H20F C7F 1_555 1_555
C8F O3F 1_555 1_555
C9F O5F 1_555 1_555
C10F C9F 1_555 1_555
C11F C10F 1_555 1_555
H21F C11F 1_555 1_555
C12F C11F 1_555 1_555
H22F C12F 1_555 1_555
C13F C12F 1_555 1_555
H23F C13F 1_555 1_555
C14F C13F 1_555 1_555
C15F C10F 1_555 1_555
H24F C15F 1_555 1_555
C16F O7F 1_555 1_555
C17F O9F 1_555 1_555
C18F C17F 1_555 1_555
C19F C18F 1_555 1_555
H25F C19F 1_555 1_555
C20F O68F 1_555 1_555
C21F C20F 1_555 1_555
H26F C21F 1_555 1_555
C22F C24 1_555 1_555
C23F C18F 1_555 1_555
H27F C23F 1_555 1_555
C24F C22 1_555 1_555
C25F O13F 1_555 1_555
C26F C25F 1_555 1_555
C27F C26F 1_555 1_555
H28F C27F 1_555 1_555
C28F C27F 1_555 1_555
H29F C28F 1_555 1_555
C29F C28F 1_555 1_555
H30F C29F 1_555 1_555
C30F C29F 1_555 1_555
C31F C26F 1_555 1_555
H31F C31F 1_555 1_555
C32F O15F 1_555 1_555
C33F O17F 1_555 1_555
C34F C33F 1_555 1_555
C35F C34F 1_555 1_555
H32F C35F 1_555 1_555
C36F C35F 1_555 1_555
H33F C36F 1_555 1_555
C37F C36F 1_555 1_555
H34F C37F 1_555 1_555
C38F C37F 1_555 1_555
C39F C34F 1_555 1_555
H35F C39F 1_555 1_555
C40F O19F 1_555 1_555
C41F O21F 1_555 1_555
C42F C41F 1_555 1_555
C43F C42F 1_555 1_555
H36F C43F 1_555 1_555
C44F C43F 1_555 1_555
C45F C44F 1_555 1_555
H37F C45F 1_555 1_555
C46F C48 1_555 1_555
C47F C42F 1_555 1_555
H38F C47F 1_555 1_555
C48F C46 1_555 1_555
C49F O25F 1_555 1_555
C50F C49F 1_555 1_555
C51F C50F 1_555 1_555
C52F O64F 1_555 1_555
C53F C52F 1_555 1_555
H41F C53F 1_555 1_555
C54F C53F 1_555 1_555
C55F C50F 1_555 1_555
H42F C55F 1_555 1_555
C56F O27F 1_555 1_555
C57F O29F 1_555 1_555
C58F C57F 1_555 1_555
C59F C58F 1_555 1_555
H43F C59F 1_555 1_555
C60F O66F 1_555 1_555
C61F C60F 1_555 1_555
H44F C61F 1_555 1_555
C62F C64 1_555 1_555
C63F C58F 1_555 1_555
H45F C63F 1_555 1_555
C64F C62 1_555 1_555
C65F O33F 1_555 1_555
C66F C65F 1_555 1_555
C67F C66F 1_555 1_555
H46F C67F 1_555 1_555
C68F O67F 1_555 1_555
C69F C68F 1_555 1_555
H47F C69F 1_555 1_555
C70F C69F 1_555 1_555
C71F C66F 1_555 1_555
H48F C71F 1_555 1_555
C72F O35F 1_555 1_555
C73F O37F 1_555 1_555
C74F C73F 1_555 1_555
C75F C74F 1_555 1_555
H49F C75F 1_555 1_555
C76F C75F 1_555 1_555
C77F C76F 1_555 1_555
H50F C77F 1_555 1_555
C78F C77F 1_555 1_555
C79F C74F 1_555 1_555
H51F C79F 1_555 1_555
C80F O39F 1_555 1_555
C81F O41F 1_555 1_555
C82F C81F 1_555 1_555
C83F C82F 1_555 1_555
H52F C83F 1_555 1_555
C84F C83F 1_555 1_555
C85F C84F 1_555 1_555
H53F C85F 1_555 1_555
C86F C88 1_555 1_555
C87F C82F 1_555 1_555
H54F C87F 1_555 1_555
C88F C86 1_555 1_555
C89F O45F 1_555 1_555
C90F C89F 1_555 1_555
C91F C90F 1_555 1_555
H55F C91F 1_555 1_555
C92F C91F 1_555 1_555
C93F C92F 1_555 1_555
H56F C93F 1_555 1_555
C94F C93F 1_555 1_555
C95F C90F 1_555 1_555
H57F C95F 1_555 1_555
C96F O47F 1_555 1_555
O6 C9 1_555 1_555
O10 C17 1_555 1_555
O12 C24 1_555 1_555
O14 C25 1_555 1_555
O18 C33 1_555 1_555
O22 C41 1_555 1_555
O24 C48 1_555 1_555
O26 C49 1_555 1_555
O30 C57 1_555 1_555
O32 C64 1_555 1_555
O34 C65 1_555 1_555
O36 C72 1_555 1_555
O38 C73 1_555 1_555
O40 C80 1_555 1_555
O42 C81 1_555 1_555
O44 C88 1_555 1_555
O46 C89 1_555 1_555
O48 C96 1_555 1_555
C6 C7 1_555 1_555
C6 C8 1_555 1_555
C14 C15 1_555 1_555
C14 C16 1_555 1_555
C19 C20 1_555 1_555
C22 C23 1_555 1_555
C30 C31 1_555 1_555
C30 C32 1_555 1_555
C38 C39 1_555 1_555
C38 C40 1_555 1_555
C46 C47 1_555 1_555
C51 C52 1_555 1_555
C54 C55 1_555 1_555
C54 C56 1_555 1_555
C59 C60 1_555 1_555
C62 C63 1_555 1_555
C67 C68 1_555 1_555
C70 C71 1_555 1_555
C70 C72 1_555 1_555
C78 C79 1_555 1_555
C78 C80 1_555 1_555
C86 C87 1_555 1_555
C94 C95 1_555 1_555
C94 C96 1_555 1_555
O6F C9F 1_555 1_555
O10F C17F 1_555 1_555
O11F C24F 1_555 1_555
O12F C24F 1_555 1_555
O14F C25F 1_555 1_555
O18F C33F 1_555 1_555
O22F C41F 1_555 1_555
O23F C48F 1_555 1_555
O24F C48F 1_555 1_555
O26F C49F 1_555 1_555
O30F C57F 1_555 1_555
O31F C64F 1_555 1_555
O32F C64F 1_555 1_555
O34F C65F 1_555 1_555
O36F C72F 1_555 1_555
O38F C73F 1_555 1_555
O40F C80F 1_555 1_555
O42F C81F 1_555 1_555
O43F C88F 1_555 1_555
O44F C88F 1_555 1_555
O46F C89F 1_555 1_555
O48F C96F 1_555 1_555
C6F C7F 1_555 1_555
C6F C8F 1_555 1_555
C14F C15F 1_555 1_555
C14F C16F 1_555 1_555
C19F C20F 1_555 1_555
C21F C22F 1_555 1_555
C22F C23F 1_555 1_555
C30F C31F 1_555 1_555
C30F C32F 1_555 1_555
C38F C39F 1_555 1_555
C38F C40F 1_555 1_555
C45F C46F 1_555 1_555
C46F C47F 1_555 1_555
C51F C52F 1_555 1_555
C54F C55F 1_555 1_555
C54F C56F 1_555 1_555
C59F C60F 1_555 1_555
C61F C62F 1_555 1_555
C62F C63F 1_555 1_555
C67F C68F 1_555 1_555
C70F C71F 1_555 1_555
C70F C72F 1_555 1_555
C78F C79F 1_555 1_555
C78F C80F 1_555 1_555
C85F C86F 1_555 1_555
C86F C87F 1_555 1_555
C94F C95F 1_555 1_555
C94F C96F 1_555 1_555

#END
