# generated using pymatgen
data_Cu12H57(C24O17)4
_symmetry_space_group_name_H-M   'P 1'
_cell_length_a   24.04782579
_cell_length_b   24.04782579
_cell_length_c   35.61000000
_cell_angle_alpha   88.21451292
_cell_angle_beta   88.21451292
_cell_angle_gamma   84.89356050
_symmetry_Int_Tables_number   1
_chemical_formula_structural   Cu12H57(C24O17)4
_chemical_formula_sum   'Cu48 H228 C384 O272'
_cell_volume   20493.16304316
_cell_formula_units_Z   4
loop_
 _symmetry_equiv_pos_site_id
 _symmetry_equiv_pos_as_xyz
  1  'x, y, z'
loop_
 _atom_site_type_symbol
 _atom_site_label
 _atom_site_symmetry_multiplicity
 _atom_site_fract_x
 _atom_site_fract_y
 _atom_site_fract_z
 _atom_site_occupancy
  C  C1  1  0.179820  0.111420  0.845320  1.0
  C  C2  1  0.888580  0.820180  0.654680  1.0
  C  C3  1  0.820180  0.888580  0.154680  1.0
  C  C4  1  0.111420  0.179820  0.345320  1.0
  C  C5  1  0.202280  0.141360  0.810580  1.0
  C  C6  1  0.858640  0.797720  0.689420  1.0
  C  C7  1  0.797720  0.858640  0.189420  1.0
  C  C8  1  0.141360  0.202280  0.310580  1.0
  C  C9  1  0.167390  0.166390  0.784220  1.0
  C  C10  1  0.833610  0.832610  0.715780  1.0
  C  C11  1  0.832610  0.833610  0.215780  1.0
  C  C12  1  0.166390  0.167390  0.284220  1.0
  C  C13  1  0.188750  0.190950  0.751700  1.0
  C  C14  1  0.809050  0.811250  0.748300  1.0
  C  C15  1  0.811250  0.809050  0.248300  1.0
  C  C16  1  0.190950  0.188750  0.251700  1.0
  C  C17  1  0.246240  0.188020  0.745370  1.0
  C  C18  1  0.811980  0.753760  0.754630  1.0
  C  C19  1  0.753760  0.811980  0.254630  1.0
  C  C20  1  0.188020  0.246240  0.245370  1.0
  C  C21  1  0.282310  0.163670  0.772200  1.0
  C  C22  1  0.836330  0.717690  0.727800  1.0
  C  C23  1  0.717690  0.836330  0.227800  1.0
  C  C24  1  0.163670  0.282310  0.272200  1.0
  C  C25  1  0.259480  0.140180  0.805650  1.0
  C  C26  1  0.859820  0.740520  0.694350  1.0
  C  C27  1  0.740520  0.859820  0.194350  1.0
  C  C28  1  0.140180  0.259480  0.305650  1.0
  C  C29  1  0.344400  0.161400  0.766560  1.0
  C  C30  1  0.838600  0.655600  0.733440  1.0
  C  C31  1  0.655600  0.838600  0.233440  1.0
  C  C32  1  0.161400  0.344400  0.266560  1.0
  C  C33  1  0.551760  0.160840  0.748610  1.0
  C  C34  1  0.839160  0.448240  0.751390  1.0
  C  C35  1  0.448240  0.839160  0.251390  1.0
  C  C36  1  0.160840  0.551760  0.248610  1.0
  C  C37  1  0.615210  0.163610  0.744420  1.0
  C  C38  1  0.836390  0.384790  0.755580  1.0
  C  C39  1  0.384790  0.836390  0.255580  1.0
  C  C40  1  0.163610  0.615210  0.244420  1.0
  C  C41  1  0.638700  0.181100  0.711980  1.0
  C  C42  1  0.818900  0.361300  0.788020  1.0
  C  C43  1  0.361300  0.818900  0.288020  1.0
  C  C44  1  0.181100  0.638700  0.211980  1.0
  C  C45  1  0.696750  0.184550  0.708840  1.0
  C  C46  1  0.815450  0.303250  0.791160  1.0
  C  C47  1  0.303250  0.815450  0.291160  1.0
  C  C48  1  0.184550  0.696750  0.208840  1.0
  C  C49  1  0.728990  0.170390  0.739230  1.0
  C  C50  1  0.829610  0.271010  0.760770  1.0
  C  C51  1  0.271010  0.829610  0.260770  1.0
  C  C52  1  0.170390  0.728990  0.239230  1.0
  C  C53  1  0.704500  0.153700  0.773030  1.0
  C  C54  1  0.846300  0.295500  0.726970  1.0
  C  C55  1  0.295500  0.846300  0.226970  1.0
  C  C56  1  0.153700  0.704500  0.273030  1.0
  C  C57  1  0.647910  0.149710  0.775680  1.0
  C  C58  1  0.850290  0.352090  0.724320  1.0
  C  C59  1  0.352090  0.850290  0.224320  1.0
  C  C60  1  0.149710  0.647910  0.275680  1.0
  C  C61  1  0.740530  0.140290  0.806470  1.0
  C  C62  1  0.859710  0.259470  0.693530  1.0
  C  C63  1  0.259470  0.859710  0.193530  1.0
  C  C64  1  0.140290  0.740530  0.306470  1.0
  C  C65  1  0.861210  0.100530  0.919840  1.0
  C  C66  1  0.899470  0.138790  0.580160  1.0
  C  C67  1  0.138790  0.899470  0.080160  1.0
  C  C68  1  0.100530  0.861210  0.419840  1.0
  C  C69  1  0.896400  0.086640  0.953580  1.0
  C  C70  1  0.913360  0.103600  0.546420  1.0
  C  C71  1  0.103600  0.913360  0.046420  1.0
  C  C72  1  0.086640  0.896400  0.453580  1.0
  C  C73  1  0.950030  0.103450  0.954950  1.0
  C  C74  1  0.896550  0.049970  0.545050  1.0
  C  C75  1  0.049970  0.896550  0.045050  1.0
  C  C76  1  0.103450  0.950030  0.454950  1.0
  C  C77  1  0.982730  0.088330  0.985300  1.0
  C  C78  1  0.911670  0.017270  0.514700  1.0
  C  C79  1  0.017270  0.911670  0.014700  1.0
  C  C80  1  0.088330  0.982730  0.485300  1.0
  C  C81  1  0.962750  0.056450  0.014610  1.0
  C  C82  1  0.943550  0.037250  0.485390  1.0
  C  C83  1  0.037250  0.943550  0.985390  1.0
  C  C84  1  0.056450  0.962750  0.514610  1.0
  C  C85  1  0.908840  0.039340  0.013480  1.0
  C  C86  1  0.960660  0.091160  0.486520  1.0
  C  C87  1  0.091160  0.960660  0.986520  1.0
  C  C88  1  0.039340  0.908840  0.513480  1.0
  C  C89  1  0.876010  0.054410  0.983140  1.0
  C  C90  1  0.945590  0.123990  0.516860  1.0
  C  C91  1  0.123990  0.945590  0.016860  1.0
  C  C92  1  0.054410  0.876010  0.483140  1.0
  C  C93  1  0.112430  0.997010  0.955140  1.0
  C  C94  1  0.002990  0.887570  0.544860  1.0
  C  C95  1  0.887570  0.002990  0.044860  1.0
  C  C96  1  0.997010  0.112430  0.455140  1.0
  C  C97  1  0.168600  0.969600  0.863260  1.0
  C  C98  1  0.030400  0.831400  0.636740  1.0
  C  C99  1  0.831400  0.030400  0.136740  1.0
  C  C100  1  0.969600  0.168600  0.363260  1.0
  C  C101  1  0.182340  0.918560  0.841340  1.0
  C  C102  1  0.081440  0.817660  0.658660  1.0
  C  C103  1  0.817660  0.081440  0.158660  1.0
  C  C104  1  0.918560  0.182340  0.341340  1.0
  C  C105  1  0.141090  0.894490  0.823500  1.0
  C  C106  1  0.105510  0.858910  0.676500  1.0
  C  C107  1  0.858910  0.105510  0.176500  1.0
  C  C108  1  0.894490  0.141090  0.323500  1.0
  C  C109  1  0.155600  0.846800  0.802100  1.0
  C  C110  1  0.153200  0.844400  0.697900  1.0
  C  C111  1  0.844400  0.153200  0.197900  1.0
  C  C112  1  0.846800  0.155600  0.302100  1.0
  C  C113  1  0.209350  0.825550  0.798200  1.0
  C  C114  1  0.174450  0.790650  0.701800  1.0
  C  C115  1  0.790650  0.174450  0.201800  1.0
  C  C116  1  0.825550  0.209350  0.298200  1.0
  C  C117  1  0.252350  0.850090  0.815860  1.0
  C  C118  1  0.149910  0.747650  0.684140  1.0
  C  C119  1  0.747650  0.149910  0.184140  1.0
  C  C120  1  0.850090  0.252350  0.315860  1.0
  C  C121  1  0.237540  0.895700  0.838210  1.0
  C  C122  1  0.104300  0.762460  0.661790  1.0
  C  C123  1  0.762460  0.104300  0.161790  1.0
  C  C124  1  0.895700  0.237540  0.338210  1.0
  C  C125  1  0.311490  0.827630  0.810640  1.0
  C  C126  1  0.172370  0.688510  0.689360  1.0
  C  C127  1  0.688510  0.172370  0.189360  1.0
  C  C128  1  0.827630  0.311490  0.310640  1.0
  C  C129  1  0.512970  0.753970  0.793060  1.0
  C  C130  1  0.246030  0.487030  0.706940  1.0
  C  C131  1  0.487030  0.246030  0.206940  1.0
  C  C132  1  0.753970  0.512970  0.293060  1.0
  C  C133  1  0.573200  0.731640  0.788570  1.0
  C  C134  1  0.268360  0.426800  0.711430  1.0
  C  C135  1  0.426800  0.268360  0.211430  1.0
  C  C136  1  0.731640  0.573200  0.288570  1.0
  C  C137  1  0.591730  0.699730  0.758220  1.0
  C  C138  1  0.300270  0.408270  0.741780  1.0
  C  C139  1  0.408270  0.300270  0.241780  1.0
  C  C140  1  0.699730  0.591730  0.258220  1.0
  C  C141  1  0.645510  0.678110  0.754880  1.0
  C  C142  1  0.321890  0.354490  0.745120  1.0
  C  C143  1  0.354490  0.321890  0.245120  1.0
  C  C144  1  0.678110  0.645510  0.254880  1.0
  C  C145  1  0.683010  0.685730  0.783120  1.0
  C  C146  1  0.314270  0.316990  0.716880  1.0
  C  C147  1  0.316990  0.314270  0.216880  1.0
  C  C148  1  0.685730  0.683010  0.283120  1.0
  C  C149  1  0.665900  0.716720  0.813470  1.0
  C  C150  1  0.283280  0.334100  0.686530  1.0
  C  C151  1  0.334100  0.283280  0.186530  1.0
  C  C152  1  0.716720  0.665900  0.313470  1.0
  C  C153  1  0.610490  0.740090  0.816070  1.0
  C  C154  1  0.259910  0.389510  0.683930  1.0
  C  C155  1  0.389510  0.259910  0.183930  1.0
  C  C156  1  0.740090  0.610490  0.316070  1.0
  C  C157  1  0.705270  0.725290  0.844210  1.0
  C  C158  1  0.274710  0.294730  0.655790  1.0
  C  C159  1  0.294730  0.274710  0.155790  1.0
  C  C160  1  0.725290  0.705270  0.344210  1.0
  C  C161  1  0.837350  0.751050  0.949180  1.0
  C  C162  1  0.248950  0.162650  0.550820  1.0
  C  C163  1  0.162650  0.248950  0.050820  1.0
  C  C164  1  0.751050  0.837350  0.449180  1.0
  C  C165  1  0.875930  0.759770  0.979990  1.0
  C  C166  1  0.240230  0.124070  0.520010  1.0
  C  C167  1  0.124070  0.240230  0.020010  1.0
  C  C168  1  0.759770  0.875930  0.479990  1.0
  C  C169  1  0.925590  0.728390  0.982970  1.0
  C  C170  1  0.271610  0.074410  0.517030  1.0
  C  C171  1  0.074410  0.271610  0.017030  1.0
  C  C172  1  0.728390  0.925590  0.482970  1.0
  C  C173  1  0.960830  0.738830  0.011780  1.0
  C  C174  1  0.261170  0.039170  0.488220  1.0
  C  C175  1  0.039170  0.261170  0.988220  1.0
  C  C176  1  0.738830  0.960830  0.511780  1.0
  C  C177  1  0.947670  0.779070  0.037040  1.0
  C  C178  1  0.220930  0.052330  0.462960  1.0
  C  C179  1  0.052330  0.220930  0.962960  1.0
  C  C180  1  0.779070  0.947670  0.537040  1.0
  C  C181  1  0.897300  0.811340  0.034350  1.0
  C  C182  1  0.188660  0.102700  0.465650  1.0
  C  C183  1  0.102700  0.188660  0.965650  1.0
  C  C184  1  0.811340  0.897300  0.534350  1.0
  C  C185  1  0.861100  0.801100  0.005150  1.0
  C  C186  1  0.198900  0.138900  0.494850  1.0
  C  C187  1  0.138900  0.198900  0.994850  1.0
  C  C188  1  0.801100  0.861100  0.505150  1.0
  C  C189  1  0.119330  0.141130  0.939330  1.0
  C  C190  1  0.858870  0.880670  0.560670  1.0
  C  C191  1  0.880670  0.858870  0.060670  1.0
  C  C192  1  0.141130  0.119330  0.439330  1.0
  C  C193  1  0.452210  0.254670  0.785420  1.0
  C  C194  1  0.745330  0.547790  0.714580  1.0
  C  C195  1  0.547790  0.745330  0.214580  1.0
  C  C196  1  0.254670  0.452210  0.285420  1.0
  C  C197  1  0.459720  0.310920  0.800740  1.0
  C  C198  1  0.689080  0.540280  0.699260  1.0
  C  C199  1  0.540280  0.689080  0.199260  1.0
  C  C200  1  0.310920  0.459720  0.300740  1.0
  C  C201  1  0.460990  0.356190  0.776170  1.0
  C  C202  1  0.643810  0.539010  0.723830  1.0
  C  C203  1  0.539010  0.643810  0.223830  1.0
  C  C204  1  0.356190  0.460990  0.276170  1.0
  C  C205  1  0.471780  0.407800  0.791140  1.0
  C  C206  1  0.592200  0.528220  0.708860  1.0
  C  C207  1  0.528220  0.592200  0.208860  1.0
  C  C208  1  0.407800  0.471780  0.291140  1.0
  C  C209  1  0.480780  0.413720  0.828720  1.0
  C  C210  1  0.586280  0.519220  0.671280  1.0
  C  C211  1  0.519220  0.586280  0.171280  1.0
  C  C212  1  0.413720  0.480780  0.328720  1.0
  C  C213  1  0.479230  0.367290  0.852820  1.0
  C  C214  1  0.632710  0.520770  0.647180  1.0
  C  C215  1  0.520770  0.632710  0.147180  1.0
  C  C216  1  0.367290  0.479230  0.352820  1.0
  C  C217  1  0.468620  0.315260  0.838890  1.0
  C  C218  1  0.684740  0.531380  0.661110  1.0
  C  C219  1  0.531380  0.684740  0.161110  1.0
  C  C220  1  0.315260  0.468620  0.338890  1.0
  C  C221  1  0.492710  0.370110  0.894110  1.0
  C  C222  1  0.629890  0.507290  0.605890  1.0
  C  C223  1  0.507290  0.629890  0.105890  1.0
  C  C224  1  0.370110  0.492710  0.394110  1.0
  C  C225  1  0.557940  0.378620  0.025790  1.0
  C  C226  1  0.621380  0.442060  0.474210  1.0
  C  C227  1  0.442060  0.621380  0.974210  1.0
  C  C228  1  0.378620  0.557940  0.525790  1.0
  C  C229  1  0.577710  0.382670  0.065610  1.0
  C  C230  1  0.617330  0.422290  0.434390  1.0
  C  C231  1  0.422290  0.617330  0.934390  1.0
  C  C232  1  0.382670  0.577710  0.565610  1.0
  C  C233  1  0.589650  0.434290  0.078700  1.0
  C  C234  1  0.565710  0.410350  0.421300  1.0
  C  C235  1  0.410350  0.565710  0.921300  1.0
  C  C236  1  0.434290  0.589650  0.578700  1.0
  C  C237  1  0.605340  0.437500  0.115680  1.0
  C  C238  1  0.562500  0.394660  0.384320  1.0
  C  C239  1  0.394660  0.562500  0.884320  1.0
  C  C240  1  0.437500  0.605340  0.615680  1.0
  C  C241  1  0.609320  0.391400  0.139440  1.0
  C  C242  1  0.608600  0.390680  0.360560  1.0
  C  C243  1  0.390680  0.608600  0.860560  1.0
  C  C244  1  0.391400  0.609320  0.639440  1.0
  C  C245  1  0.597350  0.339650  0.126350  1.0
  C  C246  1  0.660350  0.402650  0.373650  1.0
  C  C247  1  0.402650  0.660350  0.873650  1.0
  C  C248  1  0.339650  0.597350  0.626350  1.0
  C  C249  1  0.581330  0.334810  0.089030  1.0
  C  C250  1  0.665190  0.418670  0.410970  1.0
  C  C251  1  0.418670  0.665190  0.910970  1.0
  C  C252  1  0.334810  0.581330  0.589030  1.0
  C  C253  1  0.402780  0.710140  0.847070  1.0
  C  C254  1  0.289860  0.597220  0.652930  1.0
  C  C255  1  0.597220  0.289860  0.152930  1.0
  C  C256  1  0.710140  0.402780  0.347070  1.0
  C  C257  1  0.425570  0.865610  0.751480  1.0
  C  C258  1  0.134390  0.574430  0.748520  1.0
  C  C259  1  0.574430  0.134390  0.248520  1.0
  C  C260  1  0.865610  0.425570  0.251480  1.0
  C  C261  1  0.436790  0.911110  0.724280  1.0
  C  C262  1  0.088890  0.563210  0.775720  1.0
  C  C263  1  0.563210  0.088890  0.275720  1.0
  C  C264  1  0.911110  0.436790  0.224280  1.0
  C  C265  1  0.440730  0.902490  0.685800  1.0
  C  C266  1  0.097510  0.559270  0.814200  1.0
  C  C267  1  0.559270  0.097510  0.314200  1.0
  C  C268  1  0.902490  0.440730  0.185800  1.0
  C  C269  1  0.448280  0.945960  0.661790  1.0
  C  C270  1  0.054040  0.551720  0.838210  1.0
  C  C271  1  0.551720  0.054040  0.338210  1.0
  C  C272  1  0.945960  0.448280  0.161790  1.0
  C  C273  1  0.452370  0.999450  0.673920  1.0
  C  C274  1  0.000550  0.547630  0.826080  1.0
  C  C275  1  0.547630  0.000550  0.326080  1.0
  C  C276  1  0.999450  0.452370  0.173920  1.0
  C  C277  1  0.448390  0.008530  0.713070  1.0
  C  C278  1  0.991470  0.551610  0.786930  1.0
  C  C279  1  0.551610  0.991470  0.286930  1.0
  C  C280  1  0.008530  0.448390  0.213070  1.0
  C  C281  1  0.440740  0.964380  0.737250  1.0
  C  C282  1  0.035620  0.559260  0.762750  1.0
  C  C283  1  0.559260  0.035620  0.262750  1.0
  C  C284  1  0.964380  0.440740  0.237250  1.0
  C  C285  1  0.449320  0.065920  0.727340  1.0
  C  C286  1  0.934080  0.550680  0.772660  1.0
  C  C287  1  0.550680  0.934080  0.272660  1.0
  C  C288  1  0.065920  0.449320  0.227340  1.0
  C  C289  1  0.771860  0.218480  0.884420  1.0
  C  C290  1  0.781520  0.228140  0.615580  1.0
  C  C291  1  0.228140  0.781520  0.115580  1.0
  C  C292  1  0.218480  0.771860  0.384420  1.0
  C  C293  1  0.752420  0.277800  0.895540  1.0
  C  C294  1  0.722200  0.247580  0.604460  1.0
  C  C295  1  0.247580  0.722200  0.104460  1.0
  C  C296  1  0.277800  0.752420  0.395540  1.0
  C  C297  1  0.787180  0.319980  0.888960  1.0
  C  C298  1  0.680020  0.212820  0.611040  1.0
  C  C299  1  0.212820  0.680020  0.111040  1.0
  C  C300  1  0.319980  0.787180  0.388960  1.0
  C  C301  1  0.768320  0.373520  0.897600  1.0
  C  C302  1  0.626480  0.231680  0.602400  1.0
  C  C303  1  0.231680  0.626480  0.102400  1.0
  C  C304  1  0.373520  0.768320  0.397600  1.0
  C  C305  1  0.714840  0.385840  0.912840  1.0
  C  C306  1  0.614160  0.285160  0.587160  1.0
  C  C307  1  0.285160  0.614160  0.087160  1.0
  C  C308  1  0.385840  0.714840  0.412840  1.0
  C  C309  1  0.680170  0.343510  0.919360  1.0
  C  C310  1  0.656490  0.319830  0.580640  1.0
  C  C311  1  0.319830  0.656490  0.080640  1.0
  C  C312  1  0.343510  0.680170  0.419360  1.0
  C  C313  1  0.699060  0.289460  0.910700  1.0
  C  C314  1  0.710540  0.300940  0.589300  1.0
  C  C315  1  0.300940  0.710540  0.089300  1.0
  C  C316  1  0.289460  0.699060  0.410700  1.0
  C  C317  1  0.621830  0.355250  0.934590  1.0
  C  C318  1  0.644750  0.378170  0.565410  1.0
  C  C319  1  0.378170  0.644750  0.065410  1.0
  C  C320  1  0.355250  0.621830  0.434590  1.0
  C  C321  1  0.426520  0.400540  0.986730  1.0
  C  C322  1  0.599460  0.573480  0.513270  1.0
  C  C323  1  0.573480  0.599460  0.013270  1.0
  C  C324  1  0.400540  0.426520  0.486730  1.0
  C  C325  1  0.371540  0.414500  0.006070  1.0
  C  C326  1  0.585500  0.628460  0.493930  1.0
  C  C327  1  0.628460  0.585500  0.993930  1.0
  C  C328  1  0.414500  0.371540  0.506070  1.0
  C  C329  1  0.346910  0.469150  0.005330  1.0
  C  C330  1  0.530850  0.653090  0.494670  1.0
  C  C331  1  0.653090  0.530850  0.994670  1.0
  C  C332  1  0.469150  0.346910  0.505330  1.0
  C  C333  1  0.297070  0.479870  0.024280  1.0
  C  C334  1  0.520130  0.702930  0.475720  1.0
  C  C335  1  0.702930  0.520130  0.975720  1.0
  C  C336  1  0.479870  0.297070  0.524280  1.0
  C  C337  1  0.270320  0.439780  0.043840  1.0
  C  C338  1  0.560220  0.729680  0.456160  1.0
  C  C339  1  0.729680  0.560220  0.956160  1.0
  C  C340  1  0.439780  0.270320  0.543840  1.0
  C  C341  1  0.294280  0.385860  0.044710  1.0
  C  C342  1  0.614140  0.705720  0.455290  1.0
  C  C343  1  0.705720  0.614140  0.955290  1.0
  C  C344  1  0.385860  0.294280  0.544710  1.0
  C  C345  1  0.345100  0.372860  0.025810  1.0
  C  C346  1  0.627140  0.654900  0.474190  1.0
  C  C347  1  0.654900  0.627140  0.974190  1.0
  C  C348  1  0.372860  0.345100  0.525810  1.0
  C  C349  1  0.731630  0.659430  0.933300  1.0
  C  C350  1  0.340570  0.268370  0.566700  1.0
  C  C351  1  0.268370  0.340570  0.066700  1.0
  C  C352  1  0.659430  0.731630  0.433300  1.0
  C  C353  1  0.811840  0.819100  0.861980  1.0
  C  C354  1  0.180900  0.188160  0.638020  1.0
  C  C355  1  0.188160  0.180900  0.138020  1.0
  C  C356  1  0.819100  0.811840  0.361980  1.0
  C  C357  1  0.839770  0.865770  0.842280  1.0
  C  C358  1  0.134230  0.160230  0.657720  1.0
  C  C359  1  0.160230  0.134230  0.157720  1.0
  C  C360  1  0.865770  0.839770  0.342280  1.0
  C  C361  1  0.885010  0.854830  0.817710  1.0
  C  C362  1  0.145170  0.114990  0.682290  1.0
  C  C363  1  0.114990  0.145170  0.182290  1.0
  C  C364  1  0.854830  0.885010  0.317710  1.0
  C  C365  1  0.909760  0.897160  0.801250  1.0
  C  C366  1  0.102840  0.090240  0.698750  1.0
  C  C367  1  0.090240  0.102840  0.198750  1.0
  C  C368  1  0.897160  0.909760  0.301250  1.0
  C  C369  1  0.891740  0.952940  0.807820  1.0
  C  C370  1  0.047060  0.108260  0.692180  1.0
  C  C371  1  0.108260  0.047060  0.192180  1.0
  C  C372  1  0.952940  0.891740  0.307820  1.0
  C  C373  1  0.846730  0.964810  0.832190  1.0
  C  C374  1  0.035190  0.153270  0.667810  1.0
  C  C375  1  0.153270  0.035190  0.167810  1.0
  C  C376  1  0.964810  0.846730  0.332190  1.0
  C  C377  1  0.820960  0.921000  0.849320  1.0
  C  C378  1  0.079000  0.179040  0.650680  1.0
  C  C379  1  0.179040  0.079000  0.150680  1.0
  C  C380  1  0.921000  0.820960  0.349320  1.0
  C  C381  1  0.828740  0.022460  0.842370  1.0
  C  C382  1  0.977540  0.171260  0.657630  1.0
  C  C383  1  0.171260  0.977540  0.157630  1.0
  C  C384  1  0.022460  0.828740  0.342370  1.0
  Cu  Cu385  1  0.094924  0.062304  0.887026  1.0
  Cu  Cu386  1  0.937696  0.905076  0.612974  1.0
  Cu  Cu387  1  0.905076  0.937696  0.112974  1.0
  Cu  Cu388  1  0.062304  0.094924  0.387026  1.0
  Cu  Cu389  1  0.194687  0.051227  0.914554  1.0
  Cu  Cu390  1  0.948773  0.805313  0.585446  1.0
  Cu  Cu391  1  0.805313  0.948773  0.085446  1.0
  Cu  Cu392  1  0.051227  0.194687  0.414554  1.0
  Cu  Cu393  1  0.442425  0.183385  0.723690  1.0
  Cu  Cu394  1  0.816615  0.557575  0.776310  1.0
  Cu  Cu395  1  0.557575  0.816615  0.276310  1.0
  Cu  Cu396  1  0.183385  0.442425  0.223690  1.0
  Cu  Cu397  1  0.454751  0.137591  0.790373  1.0
  Cu  Cu398  1  0.862409  0.545249  0.709627  1.0
  Cu  Cu399  1  0.545249  0.862409  0.209627  1.0
  Cu  Cu400  1  0.137591  0.454751  0.290373  1.0
  Cu  Cu401  1  0.843595  0.138815  0.844477  1.0
  Cu  Cu402  1  0.861185  0.156405  0.655523  1.0
  Cu  Cu403  1  0.156405  0.861185  0.155523  1.0
  Cu  Cu404  1  0.138815  0.843595  0.344477  1.0
  Cu  Cu405  1  0.758126  0.103486  0.881851  1.0
  Cu  Cu406  1  0.896514  0.241874  0.618149  1.0
  Cu  Cu407  1  0.241874  0.896514  0.118149  1.0
  Cu  Cu408  1  0.103486  0.758126  0.381851  1.0
  Cu  Cu409  1  0.528772  0.429012  0.954726  1.0
  Cu  Cu410  1  0.570988  0.471228  0.545274  1.0
  Cu  Cu411  1  0.471228  0.570988  0.045274  1.0
  Cu  Cu412  1  0.429012  0.528772  0.454726  1.0
  Cu  Cu413  1  0.518479  0.323459  0.965020  1.0
  Cu  Cu414  1  0.676541  0.481521  0.534980  1.0
  Cu  Cu415  1  0.481521  0.676541  0.034980  1.0
  Cu  Cu416  1  0.323459  0.518479  0.465020  1.0
  Cu  Cu417  1  0.398760  0.758520  0.773700  1.0
  Cu  Cu418  1  0.241480  0.601240  0.726300  1.0
  Cu  Cu419  1  0.601240  0.241480  0.226300  1.0
  Cu  Cu420  1  0.758520  0.398760  0.273700  1.0
  Cu  Cu421  1  0.425210  0.820850  0.827890  1.0
  Cu  Cu422  1  0.179150  0.574790  0.672110  1.0
  Cu  Cu423  1  0.574790  0.179150  0.172110  1.0
  Cu  Cu424  1  0.820850  0.425210  0.327890  1.0
  Cu  Cu425  1  0.809040  0.702800  0.881640  1.0
  Cu  Cu426  1  0.297200  0.190960  0.618360  1.0
  Cu  Cu427  1  0.190960  0.297200  0.118360  1.0
  Cu  Cu428  1  0.702800  0.809040  0.381640  1.0
  Cu  Cu429  1  0.734310  0.774770  0.911710  1.0
  Cu  Cu430  1  0.225230  0.265690  0.588290  1.0
  Cu  Cu431  1  0.265690  0.225230  0.088290  1.0
  Cu  Cu432  1  0.774770  0.734310  0.411710  1.0
  H  H433  1  0.971800  0.284600  0.968300  1
  H  H434  1  0.715400  0.028200  0.531700  1
  H  H435  1  0.028200  0.715400  0.031700  1
  H  H436  1  0.284600  0.971800  0.468300  1
  H  H437  1  0.038500  0.148100  0.224500  1
  H  H438  1  0.851900  0.961500  0.275500  1
  H  H439  1  0.961500  0.851900  0.775500  1
  H  H440  1  0.148100  0.038500  0.724500  1
  H  H441  1  0.285100  0.554700  0.014100  1
  H  H442  1  0.445300  0.714900  0.485900  1
  H  H443  1  0.714900  0.445300  0.985900  1
  H  H444  1  0.554700  0.285100  0.514100  1
  H  H445  1  0.831500  0.405900  0.882800  1
  H  H446  1  0.594100  0.168500  0.617200  1
  H  H447  1  0.168500  0.594100  0.117200  1
  H  H448  1  0.405900  0.831500  0.382800  1
  H  H449  1  0.003900  0.283700  0.986200  1
  H  H450  1  0.716300  0.996100  0.513800  1
  H  H451  1  0.996100  0.716300  0.013800  1
  H  H452  1  0.283700  0.003900  0.486200  1
  H  H453  1  0.020000  0.100200  0.986000  1
  H  H454  1  0.899800  0.980000  0.514000  1
  H  H455  1  0.980000  0.899800  0.014000  1
  H  H456  1  0.100200  0.020000  0.486000  1
  H  H457  1  0.549000  0.060600  0.364800  1
  H  H458  1  0.939400  0.451000  0.135200  1
  H  H459  1  0.451000  0.939400  0.635200  1
  H  H460  1  0.060600  0.549000  0.864800  1
  H  H461  1  0.613600  0.473000  0.124900  1
  H  H462  1  0.527000  0.386400  0.375100  1
  H  H463  1  0.386400  0.527000  0.875100  1
  H  H464  1  0.473000  0.613600  0.624900  1
  H  H465  1  0.472700  0.440100  0.774400  1
  H  H466  1  0.559900  0.527300  0.725600  1
  H  H467  1  0.527300  0.559900  0.225600  1
  H  H468  1  0.440100  0.472700  0.274400  1
  H  H469  1  0.424500  0.361500  0.763700  1
  H  H470  1  0.638500  0.575500  0.736300  1
  H  H471  1  0.575500  0.638500  0.236300  1
  H  H472  1  0.361500  0.424500  0.263700  1
  H  H473  1  0.489800  0.346800  0.756400  1
  H  H474  1  0.653200  0.510200  0.743600  1
  H  H475  1  0.510200  0.653200  0.243600  1
  H  H476  1  0.346800  0.489800  0.256400  1
  H  H477  1  0.481200  0.481600  0.782900  1.0
  H  H478  1  0.518400  0.518800  0.717100  1.0
  H  H479  1  0.518800  0.518400  0.217100  1.0
  H  H480  1  0.481600  0.481200  0.282900  1.0
  H  H481  1  0.625800  0.481800  0.152500  1.0
  H  H482  1  0.518200  0.374200  0.347500  1.0
  H  H483  1  0.374200  0.518200  0.847500  1.0
  H  H484  1  0.481800  0.625800  0.652500  1.0
  H  H485  1  0.448900  0.904900  0.619600  1.0
  H  H486  1  0.095100  0.551100  0.880400  1.0
  H  H487  1  0.551100  0.095100  0.380400  1.0
  H  H488  1  0.904900  0.448900  0.119600  1.0
  H  H489  1  0.052100  0.108500  0.972000  1.0
  H  H490  1  0.891500  0.947900  0.528000  1.0
  H  H491  1  0.947900  0.891500  0.028000  1.0
  H  H492  1  0.108500  0.052100  0.472000  1.0
  H  H493  1  0.941200  0.889000  0.784200  1.0
  H  H494  1  0.111000  0.058800  0.715800  1.0
  H  H495  1  0.058800  0.111000  0.215800  1.0
  H  H496  1  0.889000  0.941200  0.284200  1.0
  H  H497  1  0.792500  0.403100  0.893100  1.0
  H  H498  1  0.596900  0.207500  0.606900  1.0
  H  H499  1  0.207500  0.596900  0.106900  1.0
  H  H500  1  0.403100  0.792500  0.393100  1.0
  H  H501  1  0.279700  0.517700  0.023700  1.0
  H  H502  1  0.482300  0.720300  0.476300  1.0
  H  H503  1  0.720300  0.482300  0.976300  1.0
  H  H504  1  0.517700  0.279700  0.523700  1.0
  H  H505  1  0.128100  0.166900  0.788200  1.0
  H  H506  1  0.833100  0.871900  0.711800  1.0
  H  H507  1  0.871900  0.833100  0.211800  1.0
  H  H508  1  0.166900  0.128100  0.288200  1.0
  H  H509  1  0.164300  0.209500  0.734000  1.0
  H  H510  1  0.790500  0.835700  0.766000  1.0
  H  H511  1  0.835700  0.790500  0.266000  1.0
  H  H512  1  0.209500  0.164300  0.234000  1.0
  H  H513  1  0.261000  0.202800  0.722500  1.0
  H  H514  1  0.797200  0.739000  0.777500  1.0
  H  H515  1  0.739000  0.797200  0.277500  1.0
  H  H516  1  0.202800  0.261000  0.222500  1.0
  H  H517  1  0.283400  0.123800  0.824500  1.0
  H  H518  1  0.876200  0.716600  0.675500  1.0
  H  H519  1  0.716600  0.876200  0.175500  1.0
  H  H520  1  0.123800  0.283400  0.324500  1.0
  H  H521  1  0.616000  0.191200  0.691000  1.0
  H  H522  1  0.808800  0.384000  0.809000  1.0
  H  H523  1  0.384000  0.808800  0.309000  1.0
  H  H524  1  0.191200  0.616000  0.191000  1.0
  H  H525  1  0.713500  0.196500  0.685800  1.0
  H  H526  1  0.803500  0.286500  0.814200  1.0
  H  H527  1  0.286500  0.803500  0.314200  1.0
  H  H528  1  0.196500  0.713500  0.185800  1.0
  H  H529  1  0.768300  0.172100  0.737200  1.0
  H  H530  1  0.827900  0.231700  0.762800  1.0
  H  H531  1  0.231700  0.827900  0.262800  1.0
  H  H532  1  0.172100  0.768300  0.237200  1.0
  H  H533  1  0.631100  0.137500  0.798600  1.0
  H  H534  1  0.862500  0.368900  0.701400  1.0
  H  H535  1  0.368900  0.862500  0.201400  1.0
  H  H536  1  0.137500  0.631100  0.298600  1.0
  H  H537  1  0.964300  0.125500  0.934900  1.0
  H  H538  1  0.874500  0.035700  0.565100  1.0
  H  H539  1  0.035700  0.874500  0.065100  1.0
  H  H540  1  0.125500  0.964300  0.434900  1.0
  H  H541  1  0.985500  0.046100  0.035500  1.0
  H  H542  1  0.953900  0.014500  0.464500  1.0
  H  H543  1  0.014500  0.953900  0.964500  1.0
  H  H544  1  0.046100  0.985500  0.535500  1.0
  H  H545  1  0.839300  0.042700  0.982400  1.0
  H  H546  1  0.957300  0.160700  0.517600  1.0
  H  H547  1  0.160700  0.957300  0.017600  1.0
  H  H548  1  0.042700  0.839300  0.482400  1.0
  H  H549  1  0.103200  0.909800  0.825600  1.0
  H  H550  1  0.090200  0.896800  0.674400  1.0
  H  H551  1  0.896800  0.090200  0.174400  1.0
  H  H552  1  0.909800  0.103200  0.325600  1.0
  H  H553  1  0.127300  0.829300  0.790200  1.0
  H  H554  1  0.170700  0.872700  0.709800  1.0
  H  H555  1  0.872700  0.170700  0.209800  1.0
  H  H556  1  0.829300  0.127300  0.290200  1.0
  H  H557  1  0.218200  0.793600  0.783400  1.0
  H  H558  1  0.206400  0.781800  0.716600  1.0
  H  H559  1  0.781800  0.206400  0.216600  1.0
  H  H560  1  0.793600  0.218200  0.283400  1.0
  H  H561  1  0.265500  0.911500  0.851600  1.0
  H  H562  1  0.088500  0.734500  0.648400  1.0
  H  H563  1  0.734500  0.088500  0.148400  1.0
  H  H564  1  0.911500  0.265500  0.351600  1.0
  H  H565  1  0.566300  0.692900  0.739400  1.0
  H  H566  1  0.307100  0.433700  0.760600  1.0
  H  H567  1  0.433700  0.307100  0.260600  1.0
  H  H568  1  0.692900  0.566300  0.239400  1.0
  H  H569  1  0.657800  0.657800  0.733300  1.0
  H  H570  1  0.342200  0.342200  0.766700  1.0
  H  H571  1  0.342200  0.342200  0.266700  1.0
  H  H572  1  0.657800  0.657800  0.233300  1.0
  H  H573  1  0.720300  0.669300  0.781200  1.0
  H  H574  1  0.330700  0.279700  0.718800  1.0
  H  H575  1  0.279700  0.330700  0.218800  1.0
  H  H576  1  0.669300  0.720300  0.281200  1.0
  H  H577  1  0.598400  0.762000  0.837000  1.0
  H  H578  1  0.238000  0.401600  0.663000  1.0
  H  H579  1  0.401600  0.238000  0.163000  1.0
  H  H580  1  0.762000  0.598400  0.337000  1.0
  H  H581  1  0.936100  0.699700  0.965700  1.0
  H  H582  1  0.300300  0.063900  0.534300  1.0
  H  H583  1  0.063900  0.300300  0.034300  1.0
  H  H584  1  0.699700  0.936100  0.465700  1.0
  H  H585  1  0.972700  0.785100  0.056400  1.0
  H  H586  1  0.214900  0.027300  0.443600  1.0
  H  H587  1  0.027300  0.214900  0.943600  1.0
  H  H588  1  0.785100  0.972700  0.556400  1.0
  H  H589  1  0.826400  0.822800  0.003000  1.0
  H  H590  1  0.177200  0.173600  0.497000  1.0
  H  H591  1  0.173600  0.177200  0.997000  1.0
  H  H592  1  0.822800  0.826400  0.503000  1.0
  H  H593  1  0.487900  0.448900  0.838000  1.0
  H  H594  1  0.551100  0.512100  0.662000  1.0
  H  H595  1  0.512100  0.551100  0.162000  1.0
  H  H596  1  0.448900  0.487900  0.338000  1.0
  H  H597  1  0.467500  0.283500  0.855300  1.0
  H  H598  1  0.716500  0.532500  0.644700  1.0
  H  H599  1  0.532500  0.716500  0.144700  1.0
  H  H600  1  0.283500  0.467500  0.355300  1.0
  H  H601  1  0.587000  0.466600  0.062600  1.0
  H  H602  1  0.533400  0.413000  0.437400  1.0
  H  H603  1  0.413000  0.533400  0.937400  1.0
  H  H604  1  0.466600  0.587000  0.562600  1.0
  H  H605  1  0.620200  0.394600  0.164700  1.0
  H  H606  1  0.605400  0.379800  0.335300  1.0
  H  H607  1  0.379800  0.605400  0.835300  1.0
  H  H608  1  0.394600  0.620200  0.664700  1.0
  H  H609  1  0.573200  0.299800  0.079900  1.0
  H  H610  1  0.700200  0.426800  0.420100  1.0
  H  H611  1  0.426800  0.700200  0.920100  1.0
  H  H612  1  0.299800  0.573200  0.579900  1.0
  H  H613  1  0.438100  0.866300  0.676500  1.0
  H  H614  1  0.133700  0.561900  0.823500  1.0
  H  H615  1  0.561900  0.133700  0.323500  1.0
  H  H616  1  0.866300  0.438100  0.176500  1.0
  H  H617  1  0.457700  0.029300  0.656500  1.0
  H  H618  1  0.970700  0.542300  0.843500  1.0
  H  H619  1  0.542300  0.970700  0.343500  1.0
  H  H620  1  0.029300  0.457700  0.156500  1.0
  H  H621  1  0.438100  0.970300  0.763500  1.0
  H  H622  1  0.029700  0.561900  0.736500  1.0
  H  H623  1  0.561900  0.029700  0.236500  1.0
  H  H624  1  0.970300  0.438100  0.263500  1.0
  H  H625  1  0.823700  0.311900  0.878600  1.0
  H  H626  1  0.688100  0.176300  0.621400  1.0
  H  H627  1  0.176300  0.688100  0.121400  1.0
  H  H628  1  0.311900  0.823700  0.378600  1.0
  H  H629  1  0.702200  0.423200  0.918700  1.0
  H  H630  1  0.576800  0.297800  0.581300  1.0
  H  H631  1  0.297800  0.576800  0.081300  1.0
  H  H632  1  0.423200  0.702200  0.418700  1.0
  H  H633  1  0.675400  0.260200  0.915100  1.0
  H  H634  1  0.739800  0.324600  0.584900  1.0
  H  H635  1  0.324600  0.739800  0.084900  1.0
  H  H636  1  0.260200  0.675400  0.415100  1.0
  H  H637  1  0.364300  0.498100  0.992000  1.0
  H  H638  1  0.501900  0.635700  0.508000  1.0
  H  H639  1  0.635700  0.501900  0.008000  1.0
  H  H640  1  0.498100  0.364300  0.492000  1.0
  H  H641  1  0.235700  0.449100  0.056600  1.0
  H  H642  1  0.550900  0.764300  0.443400  1.0
  H  H643  1  0.764300  0.550900  0.943400  1.0
  H  H644  1  0.449100  0.235700  0.556600  1.0
  H  H645  1  0.361800  0.335600  0.026400  1.0
  H  H646  1  0.664400  0.638200  0.473600  1.0
  H  H647  1  0.638200  0.664400  0.973600  1.0
  H  H648  1  0.335600  0.361800  0.526400  1.0
  H  H649  1  0.898400  0.817400  0.812600  1.0
  H  H650  1  0.182600  0.101600  0.687400  1.0
  H  H651  1  0.101600  0.182600  0.187400  1.0
  H  H652  1  0.817400  0.898400  0.312600  1.0
  H  H653  1  0.910100  0.982300  0.795700  1.0
  H  H654  1  0.017700  0.089900  0.704300  1.0
  H  H655  1  0.089900  0.017700  0.204300  1.0
  H  H656  1  0.982300  0.910100  0.295700  1.0
  H  H657  1  0.790000  0.928800  0.866100  1.0
  H  H658  1  0.071200  0.210000  0.633900  1.0
  H  H659  1  0.210000  0.071200  0.133900  1.0
  H  H660  1  0.928800  0.790000  0.366100  1.0
  O  O661  1  0.990000  0.293800  0.986500  1
  O  O662  1  0.706200  0.010000  0.513500  1
  O  O663  1  0.010000  0.706200  0.013500  1
  O  O664  1  0.293800  0.990000  0.486500  1
  O  O665  1  0.045800  0.113400  0.222900  1
  O  O666  1  0.886600  0.954200  0.277100  1
  O  O667  1  0.954200  0.886600  0.777100  1
  O  O668  1  0.113400  0.045800  0.722900  1
  O  O669  1  0.267700  0.530900  0.026300  1
  O  O670  1  0.469100  0.732300  0.473700  1
  O  O671  1  0.732300  0.469100  0.973700  1
  O  O672  1  0.530900  0.267700  0.526300  1
  O  O673  1  0.800010  0.417410  0.892000  1
  O  O674  1  0.582590  0.199990  0.608000  1
  O  O675  1  0.199990  0.582590  0.108000  1
  O  O676  1  0.417410  0.800010  0.392000  1
  O  O677  1  0.127950  0.107110  0.846650  1.0
  O  O678  1  0.892890  0.872050  0.653350  1.0
  O  O679  1  0.872050  0.892890  0.153350  1.0
  O  O680  1  0.107110  0.127950  0.346650  1.0
  O  O681  1  0.214130  0.095550  0.869780  1.0
  O  O682  1  0.904450  0.785870  0.630220  1.0
  O  O683  1  0.785870  0.904450  0.130220  1.0
  O  O684  1  0.095550  0.214130  0.369780  1.0
  O  O685  1  0.362420  0.179640  0.735280  1.0
  O  O686  1  0.820360  0.637580  0.764720  1.0
  O  O687  1  0.637580  0.820360  0.264720  1.0
  O  O688  1  0.179640  0.362420  0.235280  1.0
  O  O689  1  0.373520  0.143480  0.793760  1.0
  O  O690  1  0.856520  0.626480  0.706240  1.0
  O  O691  1  0.626480  0.856520  0.206240  1.0
  O  O692  1  0.143480  0.373520  0.293760  1.0
  O  O693  1  0.523920  0.179780  0.721610  1.0
  O  O694  1  0.820220  0.476080  0.778390  1.0
  O  O695  1  0.476080  0.820220  0.278390  1.0
  O  O696  1  0.179780  0.523920  0.221610  1.0
  O  O697  1  0.534580  0.139020  0.778490  1.0
  O  O698  1  0.860980  0.465420  0.721510  1.0
  O  O699  1  0.465420  0.860980  0.221510  1.0
  O  O700  1  0.139020  0.534580  0.278490  1.0
  O  O701  1  0.790650  0.152230  0.803790  1.0
  O  O702  1  0.847770  0.209350  0.696210  1.0
  O  O703  1  0.209350  0.847770  0.196210  1.0
  O  O704  1  0.152230  0.790650  0.303790  1.0
  O  O705  1  0.718040  0.119540  0.835240  1.0
  O  O706  1  0.880460  0.281960  0.664760  1.0
  O  O707  1  0.281960  0.880460  0.164760  1.0
  O  O708  1  0.119540  0.718040  0.335240  1.0
  O  O709  1  0.884780  0.120080  0.890630  1.0
  O  O710  1  0.879920  0.115220  0.609370  1.0
  O  O711  1  0.115220  0.879920  0.109370  1.0
  O  O712  1  0.120080  0.884780  0.390630  1.0
  O  O713  1  0.810270  0.092130  0.922930  1.0
  O  O714  1  0.907870  0.189730  0.577070  1.0
  O  O715  1  0.189730  0.907870  0.077070  1.0
  O  O716  1  0.092130  0.810270  0.422930  1.0
  O  O717  1  0.078060  0.014320  0.930170  1.0
  O  O718  1  0.985680  0.921940  0.569830  1.0
  O  O719  1  0.921940  0.985680  0.069830  1.0
  O  O720  1  0.014320  0.078060  0.430170  1.0
  O  O721  1  0.162190  0.007090  0.955230  1.0
  O  O722  1  0.992910  0.837810  0.544770  1.0
  O  O723  1  0.837810  0.992910  0.044770  1.0
  O  O724  1  0.007090  0.162190  0.455230  1.0
  O  O725  1  0.120330  0.994850  0.860070  1.0
  O  O726  1  0.005150  0.879670  0.639930  1.0
  O  O727  1  0.879670  0.005150  0.139930  1.0
  O  O728  1  0.994850  0.120330  0.360070  1.0
  O  O729  1  0.206450  0.983930  0.884350  1.0
  O  O730  1  0.016070  0.793550  0.615650  1.0
  O  O731  1  0.793550  0.016070  0.115650  1.0
  O  O732  1  0.983930  0.206450  0.384350  1.0
  O  O733  1  0.323420  0.790760  0.786170  1.0
  O  O734  1  0.209240  0.676580  0.713830  1.0
  O  O735  1  0.676580  0.209240  0.213830  1.0
  O  O736  1  0.790760  0.323420  0.286170  1.0
  O  O737  1  0.346000  0.846080  0.831420  1.0
  O  O738  1  0.153920  0.654000  0.668580  1.0
  O  O739  1  0.654000  0.153920  0.168580  1.0
  O  O740  1  0.846080  0.346000  0.331420  1.0
  O  O741  1  0.480050  0.736890  0.770410  1.0
  O  O742  1  0.263110  0.519950  0.729590  1.0
  O  O743  1  0.519950  0.263110  0.229590  1.0
  O  O744  1  0.736890  0.480050  0.270410  1.0
  O  O745  1  0.501230  0.787650  0.819170  1.0
  O  O746  1  0.212350  0.498770  0.680830  1.0
  O  O747  1  0.498770  0.212350  0.180830  1.0
  O  O748  1  0.787650  0.501230  0.319170  1.0
  O  O749  1  0.751570  0.695770  0.844040  1.0
  O  O750  1  0.304230  0.248430  0.655960  1.0
  O  O751  1  0.248430  0.304230  0.155960  1.0
  O  O752  1  0.695770  0.751570  0.344040  1.0
  O  O753  1  0.690270  0.761250  0.867960  1.0
  O  O754  1  0.238750  0.309730  0.632040  1.0
  O  O755  1  0.309730  0.238750  0.132040  1.0
  O  O756  1  0.761250  0.690270  0.367960  1.0
  O  O757  1  0.855390  0.718710  0.923530  1.0
  O  O758  1  0.281290  0.144610  0.576470  1.0
  O  O759  1  0.144610  0.281290  0.076470  1.0
  O  O760  1  0.718710  0.855390  0.423530  1.0
  O  O761  1  0.789370  0.777090  0.950680  1.0
  O  O762  1  0.222910  0.210630  0.549320  1.0
  O  O763  1  0.210630  0.222910  0.049320  1.0
  O  O764  1  0.777090  0.789370  0.450680  1.0
  O  O765  1  0.081360  0.128380  0.918070  1.0
  O  O766  1  0.871620  0.918640  0.581930  1.0
  O  O767  1  0.918640  0.871620  0.081930  1.0
  O  O768  1  0.128380  0.081360  0.418070  1.0
  O  O769  1  0.167570  0.118690  0.940950  1.0
  O  O770  1  0.881310  0.832430  0.559050  1.0
  O  O771  1  0.832430  0.881310  0.059050  1.0
  O  O772  1  0.118690  0.167570  0.440950  1.0
  O  O773  1  0.442020  0.252840  0.750930  1.0
  O  O774  1  0.747160  0.557980  0.749070  1.0
  O  O775  1  0.557980  0.747160  0.249070  1.0
  O  O776  1  0.252840  0.442020  0.250930  1.0
  O  O777  1  0.456230  0.213490  0.808020  1.0
  O  O778  1  0.786510  0.543770  0.691980  1.0
  O  O779  1  0.543770  0.786510  0.191980  1.0
  O  O780  1  0.213490  0.456230  0.308020  1.0
  O  O781  1  0.507480  0.416760  0.903370  1.0
  O  O782  1  0.583240  0.492520  0.596630  1.0
  O  O783  1  0.492520  0.583240  0.096630  1.0
  O  O784  1  0.416760  0.507480  0.403370  1.0
  O  O785  1  0.487890  0.328930  0.914540  1.0
  O  O786  1  0.671070  0.512110  0.585460  1.0
  O  O787  1  0.512110  0.671070  0.085460  1.0
  O  O788  1  0.328930  0.487890  0.414540  1.0
  O  O789  1  0.547810  0.423650  0.008400  1.0
  O  O790  1  0.576350  0.452190  0.491600  1.0
  O  O791  1  0.452190  0.576350  0.991600  1.0
  O  O792  1  0.423650  0.547810  0.508400  1.0
  O  O793  1  0.553630  0.331190  0.014000  1.0
  O  O794  1  0.668810  0.446370  0.486000  1.0
  O  O795  1  0.446370  0.668810  0.986000  1.0
  O  O796  1  0.331190  0.553630  0.514000  1.0
  O  O797  1  0.393070  0.701890  0.813320  1.0
  O  O798  1  0.298110  0.606930  0.686680  1.0
  O  O799  1  0.606930  0.298110  0.186680  1.0
  O  O800  1  0.701890  0.393070  0.313320  1.0
  O  O801  1  0.412330  0.756090  0.860810  1.0
  O  O802  1  0.243910  0.587670  0.639190  1.0
  O  O803  1  0.587670  0.243910  0.139190  1.0
  O  O804  1  0.756090  0.412330  0.360810  1.0
  O  O805  1  0.410130  0.820650  0.739290  1.0
  O  O806  1  0.179350  0.589870  0.760710  1.0
  O  O807  1  0.589870  0.179350  0.260710  1.0
  O  O808  1  0.820650  0.410130  0.239290  1.0
  O  O809  1  0.434920  0.873820  0.785710  1.0
  O  O810  1  0.126180  0.565080  0.714290  1.0
  O  O811  1  0.565080  0.126180  0.214290  1.0
  O  O812  1  0.873820  0.434920  0.285710  1.0
  O  O813  1  0.444610  0.107210  0.704920  1.0
  O  O814  1  0.892790  0.555390  0.795080  1.0
  O  O815  1  0.555390  0.892790  0.295080  1.0
  O  O816  1  0.107210  0.444610  0.204920  1.0
  O  O817  1  0.454150  0.068530  0.762820  1.0
  O  O818  1  0.931470  0.545850  0.737180  1.0
  O  O819  1  0.545850  0.931470  0.237180  1.0
  O  O820  1  0.068530  0.454150  0.262820  1.0
  O  O821  1  0.817050  0.211310  0.865940  1.0
  O  O822  1  0.788690  0.182950  0.634060  1.0
  O  O823  1  0.182950  0.788690  0.134060  1.0
  O  O824  1  0.211310  0.817050  0.365940  1.0
  O  O825  1  0.741150  0.180850  0.894980  1.0
  O  O826  1  0.819150  0.258850  0.605020  1.0
  O  O827  1  0.258850  0.819150  0.105020  1.0
  O  O828  1  0.180850  0.741150  0.394980  1.0
  O  O829  1  0.605910  0.406090  0.940640  1.0
  O  O830  1  0.593910  0.394090  0.559360  1.0
  O  O831  1  0.394090  0.593910  0.059360  1.0
  O  O832  1  0.406090  0.605910  0.440640  1.0
  O  O833  1  0.593280  0.314760  0.941350  1.0
  O  O834  1  0.685240  0.406720  0.558650  1.0
  O  O835  1  0.406720  0.685240  0.058650  1.0
  O  O836  1  0.314760  0.593280  0.441350  1.0
  O  O837  1  0.449970  0.439590  0.970680  1.0
  O  O838  1  0.560410  0.550030  0.529320  1.0
  O  O839  1  0.550030  0.560410  0.029320  1.0
  O  O840  1  0.439590  0.449970  0.470680  1.0
  O  O841  1  0.445830  0.350390  0.987860  1.0
  O  O842  1  0.649610  0.554170  0.512140  1.0
  O  O843  1  0.554170  0.649610  0.012140  1.0
  O  O844  1  0.350390  0.445830  0.487860  1.0
  O  O845  1  0.774870  0.645530  0.913010  1.0
  O  O846  1  0.354470  0.225130  0.586990  1.0
  O  O847  1  0.225130  0.354470  0.086990  1.0
  O  O848  1  0.645530  0.774870  0.413010  1.0
  O  O849  1  0.708100  0.708900  0.936800  1.0
  O  O850  1  0.291100  0.291900  0.563200  1.0
  O  O851  1  0.291900  0.291100  0.063200  1.0
  O  O852  1  0.708900  0.708100  0.436800  1.0
  O  O853  1  0.831170  0.770510  0.855070  1.0
  O  O854  1  0.229490  0.168830  0.644930  1.0
  O  O855  1  0.168830  0.229490  0.144930  1.0
  O  O856  1  0.770510  0.831170  0.355070  1.0
  O  O857  1  0.770360  0.831920  0.883180  1.0
  O  O858  1  0.168080  0.229640  0.616820  1.0
  O  O859  1  0.229640  0.168080  0.116820  1.0
  O  O860  1  0.831920  0.770360  0.383180  1.0
  O  O861  1  0.857630  0.060650  0.829130  1.0
  O  O862  1  0.939350  0.142370  0.670870  1.0
  O  O863  1  0.142370  0.939350  0.170870  1.0
  O  O864  1  0.060650  0.857630  0.329130  1.0
  O  O865  1  0.785890  0.030410  0.863940  1.0
  O  O866  1  0.969590  0.214110  0.636060  1.0
  O  O867  1  0.214110  0.969590  0.136060  1.0
  O  O868  1  0.030410  0.785890  0.363940  1.0
  O  O869  1  0.010820  0.064260  0.865280  1.0
  O  O870  1  0.935740  0.989180  0.634720  1.0
  O  O871  1  0.989180  0.935740  0.134720  1.0
  O  O872  1  0.064260  0.010820  0.365280  1.0
  O  O873  1  0.276790  0.046850  0.938620  1.0
  O  O874  1  0.953150  0.723210  0.561380  1.0
  O  O875  1  0.723210  0.953150  0.061380  1.0
  O  O876  1  0.046850  0.276790  0.438620  1.0
  O  O877  1  0.425340  0.222680  0.669310  1.0
  O  O878  1  0.777320  0.574660  0.830690  1.0
  O  O879  1  0.574660  0.777320  0.330690  1.0
  O  O880  1  0.222680  0.425340  0.169310  1.0
  O  O881  1  0.462850  0.094430  0.844410  1.0
  O  O882  1  0.905570  0.537150  0.655590  1.0
  O  O883  1  0.537150  0.905570  0.155590  1.0
  O  O884  1  0.094430  0.462850  0.344410  1.0
  O  O885  1  0.914680  0.167560  0.813710  1.0
  O  O886  1  0.832440  0.085320  0.686290  1.0
  O  O887  1  0.085320  0.832440  0.186290  1.0
  O  O888  1  0.167560  0.914680  0.313710  1.0
  O  O889  1  0.687070  0.073550  0.913610  1.0
  O  O890  1  0.926450  0.312930  0.586390  1.0
  O  O891  1  0.312930  0.926450  0.086390  1.0
  O  O892  1  0.073550  0.687070  0.413610  1.0
  O  O893  1  0.369590  0.705790  0.731000  1.0
  O  O894  1  0.294210  0.630410  0.769000  1.0
  O  O895  1  0.630410  0.294210  0.269000  1.0
  O  O896  1  0.705790  0.369590  0.231000  1.0
  O  O897  1  0.447720  0.877240  0.869850  1.0
  O  O898  1  0.122760  0.552280  0.630150  1.0
  O  O899  1  0.552280  0.122760  0.130150  1.0
  O  O900  1  0.877240  0.447720  0.369850  1.0
  O  O901  1  0.874740  0.650600  0.852820  1.0
  O  O902  1  0.349400  0.125260  0.647180  1.0
  O  O903  1  0.125260  0.349400  0.147180  1.0
  O  O904  1  0.650600  0.874740  0.352820  1.0
  O  O905  1  0.669370  0.830650  0.938040  1.0
  O  O906  1  0.169350  0.330630  0.561960  1.0
  O  O907  1  0.330630  0.169350  0.061960  1.0
  O  O908  1  0.830650  0.669370  0.438040  1.0
  O  O909  1  0.537230  0.516310  0.948850  1.0
  O  O910  1  0.483690  0.462770  0.551150  1.0
  O  O911  1  0.462770  0.483690  0.051150  1.0
  O  O912  1  0.516310  0.537230  0.448850  1.0
  O  O913  1  0.506540  0.235880  0.973340  1.0
  O  O914  1  0.764120  0.493460  0.526660  1.0
  O  O915  1  0.493460  0.764120  0.026660  1.0
  O  O916  1  0.235880  0.506540  0.473340  1.0
  O  O917  1  0.474000  0.455200  0.769500  1.0
  O  O918  1  0.544800  0.526000  0.730500  1.0
  O  O919  1  0.526000  0.544800  0.230500  1.0
  O  O920  1  0.455200  0.474000  0.269500  1.0
  O  O921  1  0.617440  0.486840  0.129900  1.0
  O  O922  1  0.513160  0.382560  0.370100  1.0
  O  O923  1  0.382560  0.513160  0.870100  1.0
  O  O924  1  0.486840  0.617440  0.629900  1.0
  O  O925  1  0.452300  0.938500  0.624010  1.0
  O  O926  1  0.061500  0.547700  0.875990  1.0
  O  O927  1  0.547700  0.061500  0.375990  1.0
  O  O928  1  0.938500  0.452300  0.124010  1.0
  O  O929  1  0.035700  0.100100  0.992300  1.0
  O  O930  1  0.899900  0.964300  0.507700  1.0
  O  O931  1  0.964300  0.899900  0.007700  1.0
  O  O932  1  0.100100  0.035700  0.492300  1.0
