
#######################################################################
#
#                 Cambridge Crystallographic Data Centre
#                                CCDC 
#
#######################################################################
#
# If this CIF has been generated from an entry in the Cambridge 
# Structural Database, then it will include bibliographic, chemical, 
# crystal, experimental, refinement or atomic coordinate data resulting 
# from the CCDC's data processing and validation procedures.
#
#######################################################################

data_XAJDIX
_chemical_formula_moiety         'C168 H84 Cu12 N12 O60'
_chemical_name_systematic        
'dodecakis(\m~4~-9H-3,6-dicarboxycarboline)-dodecakis(unknown)-dodeca-copper unknown solvate'
_symmetry_cell_setting           triclinic
_symmetry_space_group_name_H-M   'P -1'
_symmetry_Int_Tables_number      2
_space_group_name_Hall           '-P 1'
loop_
_symmetry_equiv_pos_site_id
_symmetry_equiv_pos_as_xyz
1 x,y,z
2 -x,-y,-z
_cell_length_a                   20.014(6)
_cell_length_b                   20.977(7)
_cell_length_c                   22.605(7)
_cell_angle_alpha                117.518(4)
_cell_angle_beta                 92.930(4)
_cell_angle_gamma                110.470(4)
_cell_volume                     7622.45
_exptl_crystal_colour            green
_exptl_crystal_description       block
_cell_formula_units_Z            1
loop_
_atom_site_label
_atom_site_type_symbol
_atom_site_fract_x
_atom_site_fract_y
_atom_site_fract_z
Cu1 Cu 0.65983(4) 0.47450(4) 0.37411(4)
Cu2 Cu 0.74934(4) 0.61663(4) 0.40514(4)
Cu3 Cu 0.63693(4) 1.00825(5) 0.21334(4)
Cu4 Cu 0.73610(4) 0.99906(4) 0.28384(4)
Cu5 Cu 1.18419(5) 0.78369(4) 0.10839(4)
Cu6 Cu 1.12800(5) 0.84063(4) 0.21001(4)
O1 O 0.5881(2) 0.4801(2) 0.3166(2)
O2 O 0.6648(2) 0.6028(3) 0.3448(2)
O3 O 0.5779(2) 0.8967(2) 0.1823(2)
O4 O 0.6649(2) 0.8895(2) 0.2447(2)
O5 O 0.6822(2) 0.9742(2) 0.1369(2)
O6 O 0.7691(2) 0.9666(3) 0.1996(2)
O7 O 1.0940(2) 0.7580(2) 0.0443(2)
O8 O 1.0570(2) 0.8274(2) 0.1365(2)
O9 O 1.1322(2) 0.6847(2) 0.1062(2)
O10 O 1.0710(2) 0.7296(2) 0.1829(2)
O11 O 0.7056(2) 0.4395(2) 0.2983(2)
O12 O 0.7806(2) 0.5603(3) 0.3242(2)
O13 O 0.6268(2) 0.5295(2) 0.4547(2)
O14 O 0.7060(2) 0.6521(2) 0.4827(2)
O15 O 0.7740(2) 1.1079(2) 0.8754(2)
O16 O 0.8083(2) 1.0571(2) 0.7775(2)
O17 O 0.7344(2) 1.1857(2) 0.8187(2)
O18 O 0.7920(2) 1.1530(2) 0.7320(2)
O19 O 0.6007(2) 1.0361(2) 0.2970(2)
O20 O 0.6890(2) 1.0303(2) 0.3592(2)
O21 O 0.7453(3) 0.4913(3) 0.4357(2)
O22 O 0.8223(2) 0.6114(2) 0.4604(2)
O23 O 1.2915(2) 0.8819(2) 0.7472(2)
O24 O 1.2043(2) 0.8897(2) 0.6858(2)
O25 O 0.6011(2) 0.3552(2) 0.3569(2)
O26 O 0.8170(3) 0.7357(3) 0.4244(3)
O27 O 0.5503(2) 1.0188(3) 0.1608(2)
O28 O 0.8233(3) 0.9865(3) 0.3357(2)
O29 O 1.2392(3) 0.7386(2) 0.0276(2)
O30 O 1.0712(3) 0.8913(3) 0.2875(2)
N1 N 0.4076(3) 0.5511(3) 0.1340(3)
H1 H 0.3632 0.5170 0.1067
N2 N 0.8248(3) 0.7843(3) -0.0896(3)
H2 H 0.8084 0.7625 -0.1344
N3 N 0.9034(3) 0.3717(3) 0.0856(3)
H3 H 0.8971 0.3238 0.0541
N4 N 0.5845(3) 0.7407(3) 0.7475(3)
H4 H 0.5547 0.7207 0.7679
N5 N 0.4978(3) 1.1157(3) 0.5741(3)
H5 H 0.4551 1.1180 0.5788
N6 N 1.0342(3) 0.5366(3) 0.6104(3)
H6 H 1.0388 0.4995 0.6161
C1 C 0.6074(4) 0.5405(4) 0.3119(3)
C2 C 0.5502(4) 0.5403(4) 0.2646(3)
C3 C 0.4824(4) 0.4771(4) 0.2299(3)
H7 H 0.4709 0.4337 0.2371
C4 C 0.4306(4) 0.4740(4) 0.1851(4)
H8 H 0.3838 0.4300 0.1622
C5 C 0.4496(4) 0.5392(4) 0.1744(4)
C6 C 0.5165(4) 0.6047(4) 0.2096(3)
C7 C 0.5687(4) 0.6063(4) 0.2555(3)
H9 H 0.6152 0.6506 0.2796
C8 C 0.5165(4) 0.6614(4) 0.1912(4)
C9 C 0.4473(4) 0.6276(4) 0.1435(4)
C10 C 0.4299(4) 0.6659(4) 0.1160(3)
H10 H 0.3838 0.6415 0.0836
C11 C 0.4777(4) 0.7386(4) 0.1344(3)
H11 H 0.4648 0.7664 0.1158
C12 C 0.5677(4) 0.7381(3) 0.2096(3)
H12 H 0.6145 0.7624 0.2408
C13 C 0.5488(4) 0.7761(3) 0.1818(3)
C14 C 0.6020(4) 0.8610(4) 0.2055(3)
C15 C 0.7355(4) 0.9565(4) 0.1450(4)
C16 C 0.7616(4) 0.9148(4) 0.0775(3)
C17 C 0.7225(4) 0.8932(4) 0.0151(4)
H13 H 0.6826 0.9072 0.0130
C18 C 0.7399(4) 0.8510(4) -0.0456(4)
H14 H 0.7147 0.8378 -0.0892
C19 C 0.7966(4) 0.8295(4) -0.0385(3)
C20 C 0.8377(4) 0.8529(4) 0.0249(3)
C21 C 0.8210(4) 0.8974(3) 0.0862(3)
H15 H 0.8484 0.9144 0.1304
C22 C 0.8949(4) 0.8238(4) 0.0132(4)
C23 C 0.8828(4) 0.7798(4) -0.0578(4)
C24 C 0.9239(4) 0.7393(4) -0.0880(4)
H16 H 0.9144 0.7098 -0.1368
C25 C 0.9792(4) 0.7420(4) -0.0466(4)
H17 H 1.0078 0.7139 -0.0673
C26 C 0.9944(4) 0.7872(4) 0.0277(4)
C27 C 0.9470(4) 0.8239(3) 0.0543(4)
H18 H 0.9517 0.8495 0.1027
C28 C 1.0501(4) 0.7894(4) 0.0716(4)
C29 C 1.0852(4) 0.6756(4) 0.1390(3)
C30 C 1.0426(3) 0.5932(3) 0.1270(3)
C31 C 1.0500(3) 0.5283(4) 0.0741(3)
H19 H 1.0852 0.5376 0.0490
C32 C 1.0088(4) 0.4521(4) 0.0572(3)
H20 H 1.0149 0.4087 0.0216
C33 C 0.9570(4) 0.4414(4) 0.0952(3)
C34 C 0.9495(4) 0.5065(4) 0.1506(3)
C35 C 0.9931(4) 0.5817(4) 0.1639(3)
H21 H 0.9883 0.6261 0.1995
C36 C 0.8856(3) 0.4704(3) 0.1720(3)
C37 C 0.8615(4) 0.3880(4) 0.1323(3)
C38 C 0.8014(4) 0.3392(4) 0.1392(3)
H22 H 0.7833 0.2834 0.1096
C39 C 0.7655(3) 0.3703(4) 0.1899(3)
H23 H 0.7240 0.3365 0.1959
C40 C 0.7935(4) 0.4548(4) 0.2321(3)
C41 C 0.8514(3) 0.5027(4) 0.2222(3)
H24 H 0.8686 0.5586 0.2498
C42 C 0.7540(4) 0.4847(4) 0.2876(3)
C43 C 0.6553(4) 0.6040(4) 0.4941(3)
C44 C 0.6328(3) 0.6393(4) 0.5587(3)
C45 C 0.5806(4) 0.5893(4) 0.5740(3)
H25 H 0.5596 0.5340 0.5412
C46 C 0.5565(3) 0.6150(4) 0.6350(3)
H26 H 0.5188 0.5796 0.6432
C47 C 0.5930(4) 0.6980(4) 0.6835(3)
C48 C 0.6481(3) 0.7486(3) 0.6681(3)
C49 C 0.6679(3) 0.7210(4) 0.6067(3)
H27 H 0.7041 0.7560 0.5971
C50 C 0.6723(4) 0.8297(4) 0.7292(3)
C51 C 0.6293(4) 0.8194(4) 0.7753(3)
C52 C 0.6373(4) 0.8830(4) 0.8380(3)
H28 H 0.6108 0.8756 0.8697
C53 C 0.6865(4) 0.9602(4) 0.8540(3)
H29 H 0.6928 1.0055 0.8964
C54 C 0.7269(3) 0.9690(4) 0.8048(3)
C55 C 0.7188(3) 0.9037(3) 0.7417(3)
H30 H 0.7441 0.9099 0.7089
C56 C 0.7710(4) 1.0515(4) 0.8210(4)
C57 C 0.7355(4) 1.1618(4) 0.7557(4)
C58 C 0.6726(2) 1.1502(3) 0.7093(2)
C59 C 0.6130(3) 1.1601(3) 0.73468(17)
H31 H 0.6133 1.1739 0.7811
C60 C 0.5528(2) 1.1499(3) 0.6921(2)
H32 H 0.5120 1.1566 0.7094
C61 C 0.5523(2) 1.1297(3) 0.6242(2)
C62 C 0.6120(3) 1.1197(3) 0.59882(17)
C63 C 0.6722(2) 1.1300(2) 0.6414(2)
H33 H 0.7130 1.1232 0.6241
C64 C 0.5923(3) 1.0970(3) 0.52610(18)
C65 C 0.5234(3) 1.0971(3) 0.5145(2)
C66 C 0.4897(2) 1.0784(3) 0.4499(3)
H34 H 0.4426 1.0785 0.4419
C67 C 0.5248(3) 1.0596(2) 0.39675(18)
H35 H 0.5017 1.0469 0.3525
C68 C 0.5936(3) 1.0595(2) 0.4083(2)
C69 C 0.62734(19) 1.0782(2) 0.4730(2)
H36 H 0.6744 1.0781 0.4809
C70 C 0.6298(4) 1.0400(3) 0.3504(3)
C71 C 0.8057(4) 0.5485(4) 0.4630(3)
C72 C 0.8655(4) 0.5447(4) 0.5044(3)
C73 C 0.8496(4) 0.4736(4) 0.5026(4)
H37 H 0.8021 0.4310 0.4786
C74 C 0.9050(4) 0.4646(4) 0.5369(4)
H38 H 0.8946 0.4156 0.5347
C75 C 0.9767(4) 0.5302(4) 0.5749(4)
C76 C 0.9869(4) 0.6044(4) 0.5772(3)
C77 C 0.9308(3) 0.6089(4) 0.5395(3)
H39 H 0.9394 0.6562 0.5391
C78 C 1.06148(19) 0.6569(3) 0.6196(2)
C79 C 1.0860(2) 0.61180(19) 0.6368(2)
C80 C 1.1576(3) 0.6447(3) 0.6762(2)
H40 H 1.1744 0.6139 0.6880
C81 C 1.20466(19) 0.7227(3) 0.6984(2)
H41 H 1.2536 0.7453 0.7253
C82 C 1.1801(2) 0.76783(18) 0.6812(2)
C83 C 1.1085(3) 0.7349(3) 0.6418(2)
H42 H 1.0918 0.7657 0.6301
C84 C 1.2282(4) 0.8521(4) 0.7069(3)
Cu1A Cu 1.34017(4) 1.52550(4) 0.62589(4)
Cu2A Cu 1.25066(4) 1.38337(4) 0.59486(4)
Cu3A Cu 1.36307(4) 0.99175(5) 0.78666(4)
Cu4A Cu 1.26390(4) 1.00094(4) 0.71616(4)
Cu5A Cu 0.81581(5) 1.21631(4) 0.89161(4)
Cu6A Cu 0.87200(5) 1.15937(4) 0.78999(4)
O1A O 1.4119(2) 1.5199(2) 0.6834(2)
O2A O 1.3352(2) 1.3972(3) 0.6552(2)
O3A O 1.4221(2) 1.1033(2) 0.8177(2)
O4A O 1.3351(2) 1.1105(2) 0.7553(2)
O5A O 1.3178(2) 1.0258(2) 0.8631(2)
O6A O 1.2309(2) 1.0334(3) 0.8004(2)
O7A O 0.9060(2) 1.2420(2) 0.9557(2)
O8A O 0.9430(2) 1.1726(2) 0.8635(2)
O9A O 0.8678(2) 1.3153(2) 0.8938(2)
O10A O 0.9290(2) 1.2704(2) 0.8171(2)
O11A O 1.2944(2) 1.5605(2) 0.7017(2)
O12A O 1.2194(2) 1.4397(3) 0.6758(2)
O13A O 1.3732(2) 1.4705(2) 0.5453(2)
O14A O 1.2940(2) 1.3479(2) 0.5173(2)
O15A O 1.2260(2) 0.8921(2) 0.1246(2)
O16A O 1.1917(2) 0.9429(2) 0.2225(2)
O17A O 1.2656(2) 0.8143(2) 0.1813(2)
O18A O 1.2080(2) 0.8470(2) 0.2680(2)
O19A O 1.3993(2) 0.9639(2) 0.7030(2)
O20A O 1.3110(2) 0.9697(2) 0.6408(2)
O21A O 1.2547(3) 1.5087(3) 0.5643(2)
O22A O 1.1777(2) 1.3886(2) 0.5396(2)
O23A O 0.7085(2) 1.1181(2) 0.2528(2)
O24A O 0.7957(2) 1.1103(2) 0.3142(2)
O25A O 1.3989(2) 1.6448(2) 0.6431(2)
O26A O 1.1830(3) 1.2643(3) 0.5756(3)
O27A O 1.4497(2) 0.9812(3) 0.8392(2)
O28A O 1.1767(3) 1.0135(3) 0.6643(2)
O29A O 0.7608(3) 1.2614(2) 0.9724(2)
O30A O 0.9288(3) 1.1087(3) 0.7125(2)
N1A N 1.5924(3) 1.4489(3) 0.8660(3)
H1A H 1.6368 1.4830 0.8933
N2A N 1.1752(3) 1.2157(3) 1.0896(3)
H2A H 1.1916 1.2375 1.1344
N3A N 1.0966(3) 1.6283(3) 0.9144(3)
H3A H 1.1029 1.6762 0.9459
N4A N 1.4155(3) 1.2593(3) 0.2525(3)
H4A H 1.4453 1.2793 0.2321
N5A N 1.5022(3) 0.8843(3) 0.4259(3)
H5A H 1.5449 0.8820 0.4212
N6A N 0.9658(3) 1.4634(3) 0.3896(3)
H6A H 0.9612 1.5005 0.3839
C1A C 1.3926(4) 1.4595(4) 0.6881(3)
C2A C 1.4498(4) 1.4597(4) 0.7354(3)
C3A C 1.5176(4) 1.5229(4) 0.7701(3)
H7A H 1.5291 1.5663 0.7629
C4A C 1.5694(4) 1.5260(4) 0.8149(4)
H8A H 1.6162 1.5700 0.8378
C5A C 1.5504(4) 1.4608(4) 0.8256(4)
C6A C 1.4835(4) 1.3953(4) 0.7904(3)
C7A C 1.4313(4) 1.3937(4) 0.7445(3)
H9A H 1.3848 1.3494 0.7204
C8A C 1.4835(4) 1.3386(4) 0.8088(4)
C9A C 1.5527(4) 1.3724(4) 0.8565(4)
C10A C 1.5701(4) 1.3341(4) 0.8840(3)
H10A H 1.6162 1.3585 0.9164
C11A C 1.5223(4) 1.2614(4) 0.8656(3)
H11A H 1.5352 1.2336 0.8842
C12A C 1.4323(4) 1.2619(3) 0.7904(3)
H12A H 1.3855 1.2376 0.7592
C13A C 1.4512(4) 1.2239(3) 0.8182(3)
C14A C 1.3980(4) 1.1390(4) 0.7945(3)
C15A C 1.2645(4) 1.0435(4) 0.8550(4)
C16A C 1.2384(4) 1.0852(4) 0.9225(3)
C17A C 1.2775(4) 1.1068(4) 0.9849(4)
H13A H 1.3174 1.0928 0.9870
C18A C 1.2601(4) 1.1490(4) 1.0456(4)
H14A H 1.2853 1.1622 1.0892
C19A C 1.2034(4) 1.1705(4) 1.0385(3)
C20A C 1.1623(4) 1.1471(4) 0.9751(3)
C21A C 1.1790(4) 1.1026(3) 0.9138(3)
H15A H 1.1516 1.0856 0.8696
C22A C 1.1051(4) 1.1762(4) 0.9868(4)
C23A C 1.1172(4) 1.2202(4) 1.0578(4)
C24A C 1.0761(4) 1.2607(4) 1.0880(4)
H16A H 1.0856 1.2902 1.1368
C25A C 1.0208(4) 1.2580(4) 1.0466(4)
H17A H 0.9922 1.2861 1.0673
C26A C 1.0056(4) 1.2128(4) 0.9723(4)
C27A C 1.0530(4) 1.1761(3) 0.9457(4)
H18A H 1.0483 1.1505 0.8973
C28A C 0.9499(4) 1.2106(4) 0.9284(4)
C29A C 0.9148(4) 1.3244(4) 0.8610(3)
C30A C 0.9574(3) 1.4068(3) 0.8730(3)
C31A C 0.9500(3) 1.4717(4) 0.9259(3)
H19A H 0.9148 1.4624 0.9510
C32A C 0.9912(4) 1.5479(4) 0.9428(3)
H20A H 0.9851 1.5913 0.9784
C33A C 1.0430(4) 1.5586(4) 0.9048(3)
C34A C 1.0505(4) 1.4935(4) 0.8494(3)
C35A C 1.0069(4) 1.4183(4) 0.8361(3)
H21A H 1.0117 1.3739 0.8005
C36A C 1.1144(3) 1.5296(3) 0.8280(3)
C37A C 1.1385(4) 1.6120(4) 0.8677(3)
C38A C 1.1986(4) 1.6608(4) 0.8608(3)
H22A H 1.2167 1.7166 0.8904
C39A C 1.2345(3) 1.6297(4) 0.8101(3)
H23A H 1.2760 1.6635 0.8041
C40A C 1.2065(4) 1.5452(4) 0.7679(3)
C41A C 1.1486(3) 1.4973(4) 0.7778(3)
H24A H 1.1314 1.4414 0.7502
C42A C 1.2460(4) 1.5153(4) 0.7124(3)
C43A C 1.3447(4) 1.3960(4) 0.5059(3)
C44A C 1.3672(3) 1.3607(4) 0.4413(3)
C45A C 1.4194(4) 1.4107(4) 0.4260(3)
H25A H 1.4404 1.4660 0.4588
C46A C 1.4435(3) 1.3850(4) 0.3650(3)
H26A H 1.4812 1.4204 0.3568
C47A C 1.4070(4) 1.3020(4) 0.3165(3)
C48A C 1.3519(3) 1.2514(3) 0.3319(3)
C49A C 1.3321(3) 1.2790(4) 0.3933(3)
H27A H 1.2959 1.2440 0.4029
C50A C 1.3277(4) 1.1703(4) 0.2708(3)
C51A C 1.3707(4) 1.1806(4) 0.2247(3)
C52A C 1.3627(4) 1.1170(4) 0.1620(3)
H28A H 1.3892 1.1244 0.1303
C53A C 1.3135(4) 1.0398(4) 0.1460(3)
H29A H 1.3072 0.9945 0.1036
C54A C 1.2731(3) 1.0310(4) 0.1952(3)
C55A C 1.2812(3) 1.0963(3) 0.2583(3)
H30A H 1.2559 1.0901 0.2911
C56A C 1.2290(4) 0.9485(4) 0.1790(4)
C57A C 1.2645(4) 0.8382(4) 0.2443(4)
C58A C 1.3274(2) 0.8498(3) 0.2907(2)
C59A C 1.3870(3) 0.8399(3) 0.26532(17)
H31A H 1.3867 0.8261 0.2189
C60A C 1.4472(2) 0.8501(3) 0.3079(2)
H32A H 1.4880 0.8434 0.2906
C61A C 1.4477(2) 0.8703(3) 0.3758(2)
C62A C 1.3880(3) 0.8803(3) 0.40118(17)
C63A C 1.3278(2) 0.8700(2) 0.3586(2)
H33A H 1.2870 0.8768 0.3759
C64A C 1.4077(3) 0.9030(3) 0.47390(18)
C65A C 1.4766(3) 0.9029(3) 0.4855(2)
C66A C 1.5103(2) 0.9216(3) 0.5501(3)
H34A H 1.5574 0.9215 0.5581
C67A C 1.4752(3) 0.9404(2) 0.60325(18)
H35A H 1.4983 0.9531 0.6475
C68A C 1.4064(3) 0.9405(2) 0.5917(2)
C69A C 1.37266(19) 0.9218(2) 0.5270(2)
H36A H 1.3256 0.9219 0.5191
C70A C 1.3702(4) 0.9600(3) 0.6496(3)
C71A C 1.1943(4) 1.4515(4) 0.5370(3)
C72A C 1.1345(4) 1.4553(4) 0.4956(3)
C73A C 1.1504(4) 1.5264(4) 0.4974(4)
H37A H 1.1979 1.5690 0.5214
C74A C 1.0950(4) 1.5354(4) 0.4631(4)
H38A H 1.1054 1.5844 0.4653
C75A C 1.0233(4) 1.4698(4) 0.4251(4)
C76A C 1.0131(4) 1.3956(4) 0.4228(3)
C77A C 1.0692(3) 1.3911(4) 0.4605(3)
H39A H 1.0606 1.3438 0.4609
C78A C 0.93852(19) 1.3431(3) 0.3804(2)
C79A C 0.9140(2) 1.38820(19) 0.3632(2)
C80A C 0.8424(3) 1.3553(3) 0.3238(2)
H40A H 0.8256 1.3861 0.3120
C81A C 0.79534(19) 1.2773(3) 0.3016(2)
H41A H 0.7464 1.2547 0.2747
C82A C 0.8199(2) 1.23217(18) 0.3188(2)
C83A C 0.8915(3) 1.2651(3) 0.3582(2)
H42A H 0.9082 1.2343 0.3699
C84A C 0.7718(4) 1.1479(4) 0.2931(3)
loop_
_geom_bond_atom_site_label_1
_geom_bond_atom_site_label_2
_geom_bond_site_symmetry_1
_geom_bond_site_symmetry_2
Cu1 Cu2 1_555 1_555
Cu2 O2 1_555 1_555
Cu3 Cu4 1_555 1_555
Cu4 O4 1_555 1_555
Cu5 Cu6 1_555 1_555
Cu6 O8 1_555 1_555
O1 Cu1 1_555 1_555
O2 C1 1_555 1_555
O3 Cu3 1_555 1_555
O4 C14 1_555 1_555
O5 Cu3 1_555 1_555
O6 Cu4 1_555 1_555
O7 Cu5 1_555 1_555
O8 C28 1_555 1_555
O9 Cu5 1_555 1_555
O10 Cu6 1_555 1_555
O11 Cu1 1_555 1_555
O12 Cu2 1_555 1_555
O13 Cu1 1_555 1_555
O14 Cu2 1_555 1_555
O15 C56 1_555 1_555
O16 C56 1_555 1_555
O17 C57 1_555 1_555
O18 C57 1_555 1_555
O19 Cu3 1_555 1_555
O20 Cu4 1_555 1_555
O21 Cu1 1_555 1_555
O22 Cu2 1_555 1_555
O23 C84 1_555 1_555
O24 C84 1_555 1_555
O25 Cu1 1_555 1_555
O26 Cu2 1_555 1_555
O27 Cu3 1_555 1_555
O28 Cu4 1_555 1_555
O29 Cu5 1_555 1_555
O30 Cu6 1_555 1_555
N1 H1 1_555 1_555
N2 H2 1_555 1_555
N3 H3 1_555 1_555
N4 H4 1_555 1_555
N5 H5 1_555 1_555
N6 H6 1_555 1_555
C1 O1 1_555 1_555
C2 C1 1_555 1_555
C3 C2 1_555 1_555
H7 C3 1_555 1_555
C4 C3 1_555 1_555
H8 C4 1_555 1_555
C5 N1 1_555 1_555
C6 C5 1_555 1_555
C7 C2 1_555 1_555
H9 C7 1_555 1_555
C8 C6 1_555 1_555
C9 N1 1_555 1_555
C10 C9 1_555 1_555
H10 C10 1_555 1_555
C11 C10 1_555 1_555
H11 C11 1_555 1_555
C12 C8 1_555 1_555
H12 C12 1_555 1_555
C13 C11 1_555 1_555
C14 O3 1_555 1_555
C15 O5 1_555 1_555
C16 C15 1_555 1_555
C17 C16 1_555 1_555
H13 C17 1_555 1_555
C18 C17 1_555 1_555
H14 C18 1_555 1_555
C19 N2 1_555 1_555
C20 C19 1_555 1_555
C21 C16 1_555 1_555
H15 C21 1_555 1_555
C22 C20 1_555 1_555
C23 N2 1_555 1_555
C24 C23 1_555 1_555
H16 C24 1_555 1_555
C25 C24 1_555 1_555
H17 C25 1_555 1_555
C26 C25 1_555 1_555
C27 C22 1_555 1_555
H18 C27 1_555 1_555
C28 O7 1_555 1_555
C29 O9 1_555 1_555
C30 C29 1_555 1_555
C31 C30 1_555 1_555
H19 C31 1_555 1_555
C32 C31 1_555 1_555
H20 C32 1_555 1_555
C33 N3 1_555 1_555
C34 C33 1_555 1_555
C35 C30 1_555 1_555
H21 C35 1_555 1_555
C36 C34 1_555 1_555
C37 N3 1_555 1_555
C38 C37 1_555 1_555
H22 C38 1_555 1_555
C39 C38 1_555 1_555
H23 C39 1_555 1_555
C40 C39 1_555 1_555
C41 C36 1_555 1_555
H24 C41 1_555 1_555
C42 O11 1_555 1_555
C43 O13 1_555 1_555
C44 C43 1_555 1_555
C45 C44 1_555 1_555
H25 C45 1_555 1_555
C46 C45 1_555 1_555
H26 C46 1_555 1_555
C47 N4 1_555 1_555
C48 C47 1_555 1_555
C49 C44 1_555 1_555
H27 C49 1_555 1_555
C50 C48 1_555 1_555
C51 N4 1_555 1_555
C52 C51 1_555 1_555
H28 C52 1_555 1_555
C53 C52 1_555 1_555
H29 C53 1_555 1_555
C54 C53 1_555 1_555
C55 C50 1_555 1_555
H30 C55 1_555 1_555
C56 C54 1_555 1_555
C57 C58 1_555 1_555
C58 C59 1_555 1_555
C59 H31 1_555 1_555
C60 C59 1_555 1_555
H32 C60 1_555 1_555
C61 N5 1_555 1_555
C62 C61 1_555 1_555
C63 C58 1_555 1_555
H33 C63 1_555 1_555
C64 C62 1_555 1_555
C65 N5 1_555 1_555
C66 C65 1_555 1_555
H34 C66 1_555 1_555
C67 C66 1_555 1_555
H35 C67 1_555 1_555
C68 C67 1_555 1_555
C69 C64 1_555 1_555
H36 C69 1_555 1_555
C70 O19 1_555 1_555
C71 O21 1_555 1_555
C72 C71 1_555 1_555
C73 C72 1_555 1_555
H37 C73 1_555 1_555
C74 C73 1_555 1_555
H38 C74 1_555 1_555
C75 N6 1_555 1_555
C76 C75 1_555 1_555
C77 C72 1_555 1_555
H39 C77 1_555 1_555
C78 C76 1_555 1_555
C79 N6 1_555 1_555
C80 C79 1_555 1_555
H40 C80 1_555 1_555
C81 C80 1_555 1_555
H41 C81 1_555 1_555
C82 C81 1_555 1_555
C83 C78 1_555 1_555
H42 C83 1_555 1_555
C84 C82 1_555 1_555
Cu1A Cu2A 1_555 1_555
Cu2A O2A 1_555 1_555
Cu3A O23 1_555 1_555
Cu4A O24 1_555 1_555
Cu5A O15 1_555 1_555
Cu6A O16 1_555 1_555
O1A Cu1A 1_555 1_555
O2A C1A 1_555 1_555
O3A Cu3A 1_555 1_555
O4A Cu4A 1_555 1_555
O5A Cu3A 1_555 1_555
O6A Cu4A 1_555 1_555
O7A Cu5A 1_555 1_555
O8A Cu6A 1_555 1_555
O9A Cu5A 1_555 1_555
O10A Cu6A 1_555 1_555
O11A Cu1A 1_555 1_555
O12A Cu2A 1_555 1_555
O13A Cu1A 1_555 1_555
O14A Cu2A 1_555 1_555
O15A Cu5 1_555 1_555
O16A Cu6 1_555 1_555
O17A Cu5 1_555 1_555
O18A Cu6 1_555 1_555
O19A Cu3A 1_555 1_555
O20A Cu4A 1_555 1_555
O21A Cu1A 1_555 1_555
O22A Cu2A 1_555 1_555
O23A Cu3 1_555 1_555
O24A Cu4 1_555 1_555
O25A Cu1A 1_555 1_555
O26A Cu2A 1_555 1_555
O27A Cu3A 1_555 1_555
O28A Cu4A 1_555 1_555
O29A Cu5A 1_555 1_555
O30A Cu6A 1_555 1_555
N1A H1A 1_555 1_555
N2A H2A 1_555 1_555
N3A H3A 1_555 1_555
N4A H4A 1_555 1_555
N5A H5A 1_555 1_555
N6A H6A 1_555 1_555
C1A O1A 1_555 1_555
C2A C1A 1_555 1_555
C3A C2A 1_555 1_555
H7A C3A 1_555 1_555
C4A C3A 1_555 1_555
H8A C4A 1_555 1_555
C5A N1A 1_555 1_555
C6A C5A 1_555 1_555
C7A C2A 1_555 1_555
H9A C7A 1_555 1_555
C8A C6A 1_555 1_555
C9A N1A 1_555 1_555
C10A C9A 1_555 1_555
H10A C10A 1_555 1_555
C11A C10A 1_555 1_555
H11A C11A 1_555 1_555
C12A C8A 1_555 1_555
H12A C12A 1_555 1_555
C13A C11A 1_555 1_555
C14A O3A 1_555 1_555
C15A O5A 1_555 1_555
C16A C15A 1_555 1_555
C17A C16A 1_555 1_555
H13A C17A 1_555 1_555
C18A C17A 1_555 1_555
H14A C18A 1_555 1_555
C19A N2A 1_555 1_555
C20A C19A 1_555 1_555
C21A C16A 1_555 1_555
H15A C21A 1_555 1_555
C22A C20A 1_555 1_555
C23A N2A 1_555 1_555
C24A C23A 1_555 1_555
H16A C24A 1_555 1_555
C25A C24A 1_555 1_555
H17A C25A 1_555 1_555
C26A C25A 1_555 1_555
C27A C22A 1_555 1_555
H18A C27A 1_555 1_555
C28A O7A 1_555 1_555
C29A O9A 1_555 1_555
C30A C29A 1_555 1_555
C31A C30A 1_555 1_555
H19A C31A 1_555 1_555
C32A C31A 1_555 1_555
H20A C32A 1_555 1_555
C33A N3A 1_555 1_555
C34A C33A 1_555 1_555
C35A C30A 1_555 1_555
H21A C35A 1_555 1_555
C36A C34A 1_555 1_555
C37A N3A 1_555 1_555
C38A C37A 1_555 1_555
H22A C38A 1_555 1_555
C39A C38A 1_555 1_555
H23A C39A 1_555 1_555
C40A C39A 1_555 1_555
C41A C36A 1_555 1_555
H24A C41A 1_555 1_555
C42A O11A 1_555 1_555
C43A O13A 1_555 1_555
C44A C43A 1_555 1_555
C45A C44A 1_555 1_555
H25A C45A 1_555 1_555
C46A C45A 1_555 1_555
H26A C46A 1_555 1_555
C47A N4A 1_555 1_555
C48A C47A 1_555 1_555
C49A C44A 1_555 1_555
H27A C49A 1_555 1_555
C50A C48A 1_555 1_555
C51A N4A 1_555 1_555
C52A C51A 1_555 1_555
H28A C52A 1_555 1_555
C53A C52A 1_555 1_555
H29A C53A 1_555 1_555
C54A C53A 1_555 1_555
C55A C50A 1_555 1_555
H30A C55A 1_555 1_555
C56A O15A 1_555 1_555
C57A O17A 1_555 1_555
C58A C57A 1_555 1_555
C59A C58A 1_555 1_555
H31A C59A 1_555 1_555
C60A C59A 1_555 1_555
H32A C60A 1_555 1_555
C61A N5A 1_555 1_555
C62A C61A 1_555 1_555
C63A C58A 1_555 1_555
H33A C63A 1_555 1_555
C64A C62A 1_555 1_555
C65A N5A 1_555 1_555
C66A C65A 1_555 1_555
H34A C66A 1_555 1_555
C67A C66A 1_555 1_555
H35A C67A 1_555 1_555
C68A C67A 1_555 1_555
C69A C64A 1_555 1_555
H36A C69A 1_555 1_555
C70A O19A 1_555 1_555
C71A O21A 1_555 1_555
C72A C71A 1_555 1_555
C73A C72A 1_555 1_555
H37A C73A 1_555 1_555
C74A C73A 1_555 1_555
H38A C74A 1_555 1_555
C75A N6A 1_555 1_555
C76A C75A 1_555 1_555
C77A C72A 1_555 1_555
H39A C77A 1_555 1_555
C78A C76A 1_555 1_555
C79A N6A 1_555 1_555
C80A C79A 1_555 1_555
H40A C80A 1_555 1_555
C81A C80A 1_555 1_555
H41A C81A 1_555 1_555
C82A C81A 1_555 1_555
C83A C78A 1_555 1_555
H42A C83A 1_555 1_555
C84A O23A 1_555 1_555
O6 C15 1_555 1_555
O10 C29 1_555 1_555
O12 C42 1_555 1_555
O14 C43 1_555 1_555
O17 Cu5A 1_555 1_555
O18 Cu6A 1_555 1_555
O20 C70 1_555 1_555
O22 C71 1_555 1_555
C4 C5 1_555 1_555
C6 C7 1_555 1_555
C8 C9 1_555 1_555
C12 C13 1_555 1_555
C13 C14 1_555 1_555
C18 C19 1_555 1_555
C20 C21 1_555 1_555
C22 C23 1_555 1_555
C26 C27 1_555 1_555
C26 C28 1_555 1_555
C32 C33 1_555 1_555
C34 C35 1_555 1_555
C36 C37 1_555 1_555
C40 C41 1_555 1_555
C40 C42 1_555 1_555
C46 C47 1_555 1_555
C48 C49 1_555 1_555
C50 C51 1_555 1_555
C54 C55 1_555 1_555
C60 C61 1_555 1_555
C62 C63 1_555 1_555
C64 C65 1_555 1_555
C68 C69 1_555 1_555
C68 C70 1_555 1_555
C74 C75 1_555 1_555
C76 C77 1_555 1_555
C78 C79 1_555 1_555
C82 C83 1_555 1_555
Cu3A Cu4A 1_555 1_555
Cu5A Cu6A 1_555 1_555
O4A C14A 1_555 1_555
O6A C15A 1_555 1_555
O8A C28A 1_555 1_555
O10A C29A 1_555 1_555
O12A C42A 1_555 1_555
O14A C43A 1_555 1_555
O16A C56A 1_555 1_555
O18A C57A 1_555 1_555
O20A C70A 1_555 1_555
O22A C71A 1_555 1_555
O24A C84A 1_555 1_555
C4A C5A 1_555 1_555
C6A C7A 1_555 1_555
C8A C9A 1_555 1_555
C12A C13A 1_555 1_555
C13A C14A 1_555 1_555
C18A C19A 1_555 1_555
C20A C21A 1_555 1_555
C22A C23A 1_555 1_555
C26A C27A 1_555 1_555
C26A C28A 1_555 1_555
C32A C33A 1_555 1_555
C34A C35A 1_555 1_555
C36A C37A 1_555 1_555
C40A C41A 1_555 1_555
C40A C42A 1_555 1_555
C46A C47A 1_555 1_555
C48A C49A 1_555 1_555
C50A C51A 1_555 1_555
C54A C55A 1_555 1_555
C54A C56A 1_555 1_555
C60A C61A 1_555 1_555
C62A C63A 1_555 1_555
C64A C65A 1_555 1_555
C68A C69A 1_555 1_555
C68A C70A 1_555 1_555
C74A C75A 1_555 1_555
C76A C77A 1_555 1_555
C78A C79A 1_555 1_555
C82A C83A 1_555 1_555
C82A C84A 1_555 1_555

#END
