
#######################################################################
#
#                 Cambridge Crystallographic Data Centre
#                                CCDC 
#
#######################################################################
#
# If this CIF has been generated from an entry in the Cambridge 
# Structural Database, then it will include bibliographic, chemical, 
# crystal, experimental, refinement or atomic coordinate data resulting 
# from the CCDC's data processing and validation procedures.
#
#######################################################################

data_XAMYAM
_chemical_formula_moiety         
'C90 H120 N30 Pd6 12+,2(C16 H10),12(N1 O3 1-),17.3(H2 O1)'
_chemical_name_systematic        
"bis(\m~3~-2,4,6-tris(4'-Pyridyl)-1,3,5-triazine)-tris(\m~2~-2,2',6,6'-tetramethyl-4,4'-bipyridyl)-hexakis(ethylene-1,2-diamine)-hexa-palladium(ii) bis(pyrene) clathrate dodecanitrate hydrate"
_symmetry_cell_setting           orthorhombic
_symmetry_space_group_name_H-M   'C 2 2 21'
_symmetry_Int_Tables_number      20
_space_group_name_Hall           'C 2n 2'
loop_
_symmetry_equiv_pos_site_id
_symmetry_equiv_pos_as_xyz
1 x,y,z
2 -x,-y,1/2+z
3 -x,y,1/2-z
4 x,-y,-z
5 1/2+x,1/2+y,z
6 1/2-x,1/2-y,1/2+z
7 1/2-x,1/2+y,1/2-z
8 1/2+x,1/2-y,-z
_cell_length_a                   20.4596(14)
_cell_length_b                   35.453(3)
_cell_length_c                   53.544(6)
_cell_angle_alpha                90
_cell_angle_beta                 90
_cell_angle_gamma                90
_cell_volume                     38838.4
_exptl_crystal_colour            'dark red'
_exptl_crystal_description       plate
_cell_formula_units_Z            8
_exptl_crystal_recrystallization_method ethanol/water
loop_
_atom_site_label
_atom_site_type_symbol
_atom_site_fract_x
_atom_site_fract_y
_atom_site_fract_z
C46 C 1.527(2) 0.5797(8) 0.9645(7)
H57 H 1.5384 0.6060 0.9636
C47 C 1.5763(18) 0.5529(9) 0.9653(7)
H58 H 1.6212 0.5608 0.9650
C48 C 1.5612(14) 0.5144(8) 0.9664(5)
C49 C 1.6105(12) 0.4856(11) 0.9669(7)
H59 H 1.6557 0.4927 0.9668
C50 C 1.5947(14) 0.4488(10) 0.9677(7)
H60 H 1.6289 0.4303 0.9678
C51 C 1.5278(16) 0.4365(8) 0.9683(5)
C52 C 1.510(2) 0.3985(7) 0.9693(6)
H61 H 1.5430 0.3794 0.9695
C53 C 1.445(2) 0.3878(8) 0.9700(7)
H62 H 1.4337 0.3616 0.9705
C54 C 1.3957(19) 0.4147(10) 0.9700(7)
H63 H 1.3508 0.4068 0.9706
C55 C 1.4109(14) 0.4532(9) 0.9690(5)
C56 C 1.3616(12) 0.4820(12) 0.9692(7)
H64 H 1.3163 0.4749 0.9700
C57 C 1.3773(14) 0.5186(11) 0.9681(8)
H65 H 1.3429 0.5370 0.9682
C58 C 1.4442(15) 0.5312(8) 0.9667(6)
C59 C 1.462(2) 0.5692(8) 0.9651(7)
H66 H 1.4287 0.5882 0.9645
C60 C 1.4944(13) 0.5033(7) 0.9670(4)
C61 C 1.4776(13) 0.4643(7) 0.9681(4)
C62 C 1.3237(12) 0.4842(12) 0.7794(6)
H67 H 1.2775 0.4887 0.7787
C63 C 1.3662(14) 0.5145(10) 0.7812(5)
H68 H 1.3491 0.5397 0.7818
C64 C 1.4339(13) 0.5088(8) 0.7820(4)
C65 C 1.4798(17) 0.5393(7) 0.7836(5)
H69 H 1.4639 0.5647 0.7843
C66 C 1.5446(16) 0.5331(7) 0.7840(5)
H70 H 1.5739 0.5542 0.7849
C67 C 1.5712(12) 0.4956(8) 0.7832(4)
C68 C 1.6383(12) 0.4881(11) 0.7838(6)
H71 H 1.6686 0.5087 0.7847
C69 C 1.6617(12) 0.4516(12) 0.7831(6)
H72 H 1.7080 0.4472 0.7834
C70 C 1.6193(15) 0.4213(10) 0.7820(5)
H73 H 1.6364 0.3960 0.7817
C71 C 1.5515(14) 0.4270(7) 0.7814(4)
C72 C 1.5056(18) 0.3964(7) 0.7805(5)
H74 H 1.5215 0.3709 0.7804
C73 C 1.4412(17) 0.4026(8) 0.7797(6)
H75 H 1.4120 0.3814 0.7791
C74 C 1.4141(13) 0.4402(8) 0.7798(5)
C75 C 1.3471(13) 0.4476(11) 0.7786(6)
H76 H 1.3168 0.4270 0.7772
C76 C 1.4583(12) 0.4713(7) 0.7812(3)
C77 C 1.5271(12) 0.4645(7) 0.7819(3)
O1 O 1.766(2) 0.5293(13) 0.8350(7)
O2 O 1.803(3) 0.4846(17) 0.8140(9)
O3 O 1.344(2) 0.6659(13) 0.8591(7)
O4 O 0.309(3) 0.3749(16) 0.5714(9)
O5 O 0.806(2) 0.1482(13) 0.7654(7)
O6 O 1.828(2) 0.4249(12) 0.8911(6)
O7 O 1.2440(19) 0.4464(11) 0.9120(6)
O8 O 0.842(3) 0.2807(14) 0.7613(10)
O9 O 1.3171(17) 0.6122(10) 0.8460(6)
O10 O 0.713(2) 0.7380(11) 0.6696(6)
O11 O 1.637(3) 0.3310(17) 0.7360(8)
O12 O 1.349(2) 0.3570(12) 0.8180(7)
O13 O 1.344(4) 0.654(2) 0.8205(11)
O14 O 1.3178(17) 0.3278(10) 0.8641(7)
O15 O 1.0996(18) 0.5863(11) 0.9015(6)
O16 O 1.8579(19) 0.4950(11) 0.8680(7)
O17 O 1.002(3) 0.4301(14) 0.7941(7)
O18 O 1.531(3) 0.6628(16) 0.9139(8)
O19 O 1.052(3) 0.5362(14) 0.8895(8)
O20 O 1.777(3) 0.6536(14) 0.8546(9)
O21 O 1.775(2) 0.4252(13) 0.9312(7)
O22 O 1.963(2) 0.4888(13) 0.8300(7)
O23 O 1.770(3) 0.7164(17) 0.8824(9)
O24 O 1.419(2) 0.3516(12) 0.8411(6)
O25 O 1.166(3) 0.7624(15) 0.9501(7)
O26 O 0.205(4) 0.378(2) 0.8879(13)
O27 O 1.060(2) 0.7588(13) 0.9014(7)
O28 O 0.972(3) 0.3284(16) 0.7939(8)
O29 O 0.255(3) 0.2791(14) 0.8318(7)
O30 O 0.273(3) 0.1177(15) 0.8164(7)
O31 O 1.775(3) 0.6675(19) 0.9008(11)
O32 O 1.887(4) 0.396(2) 0.9124(13)
Pd4 Pd 1.42393(9) 0.29125(4) 0.90684(7)
Pd5 Pd 1.22400(9) 0.64214(5) 0.90642(7)
Pd6 Pd 1.85065(8) 0.56676(5) 0.90651(7)
N16 N 1.4356(7) 0.4875(3) 0.9061(3)
N17 N 1.7548(8) 0.5491(4) 0.9091(4)
N18 N 1.5130(6) 0.5377(3) 0.9067(3)
N19 N 1.5495(7) 0.4743(4) 0.9067(3)
N20 N 1.4477(9) 0.3478(5) 0.9068(5)
N21 N 1.2984(7) 0.6051(5) 0.9085(5)
C78 C 1.2797(9) 0.5631(6) 0.9068(6)
H77 H 1.2367 0.5546 0.9068
C79 C 1.3317(9) 0.5400(5) 0.9051(5)
H78 H 1.3237 0.5143 0.9032
C80 C 1.3991(8) 0.5522(5) 0.9061(5)
C81 C 1.4087(8) 0.5909(4) 0.9064(5)
H79 H 1.4509 0.6004 0.9053
C82 C 1.3571(8) 0.6153(5) 0.9082(5)
H80 H 1.3662 0.6410 0.9093
C83 C 1.5079(11) 0.3571(6) 0.9086(5)
H81 H 1.5411 0.3396 0.9114
C84 C 1.5206(9) 0.3993(5) 0.9059(5)
H82 H 1.5630 0.4077 0.9031
C85 C 1.4722(8) 0.4242(4) 0.9075(5)
C86 C 1.4086(9) 0.4092(4) 0.9061(5)
H83 H 1.3736 0.4257 0.9044
C87 C 1.3954(10) 0.3695(5) 0.9073(5)
H84 H 1.3533 0.3598 0.9084
C88 C 1.7027(8) 0.5775(6) 0.9065(5)
H85 H 1.7108 0.6032 0.9049
C89 C 1.6414(9) 0.5622(5) 0.9066(5)
H86 H 1.6056 0.5784 0.9069
C90 C 1.6300(8) 0.5218(5) 0.9063(4)
C91 C 1.6792(7) 0.5006(6) 0.9068(5)
H87 H 1.6730 0.4747 0.9053
C92 C 1.7414(9) 0.5141(5) 0.9093(5)
H88 H 1.7753 0.4969 0.9113
C93 C 1.4551(9) 0.5247(5) 0.9069(4)
C94 C 1.4787(8) 0.4657(4) 0.9075(4)
C95 C 1.5562(8) 0.5092(5) 0.9067(4)
N22 N 1.2438(12) 0.6616(6) 0.9406(6)
C96 C 1.3086(10) 0.7138(7) 0.9163(6)
H89 H 1.2751 0.7120 0.9038
H90 H 1.3487 0.7036 0.9099
H91 H 1.3151 0.7398 0.9208
C97 C 1.2899(12) 0.6936(7) 0.9373(7)
C98 C 1.3134(13) 0.7003(6) 0.9645(7)
H92 H 1.3383 0.7219 0.9669
C99 C 1.3025(12) 0.6782(6) 0.9860(7)
C100 C 1.2484(13) 0.6526(6) 0.9883(7)
H93 H 1.2312 0.6429 1.0031
C101 C 1.2252(12) 0.6445(5) 0.9620(7)
C102 C 1.1800(16) 0.6095(7) 0.9600(8)
H94 H 1.1657 0.6066 0.9430
H95 H 1.1427 0.6128 0.9706
H96 H 1.2036 0.5873 0.9650
N23 N 1.3845(12) 0.2966(7) 0.9423(6)
C103 C 1.2694(13) 0.2937(7) 0.9202(6)
H97 H 1.2905 0.2863 0.9049
H98 H 1.2481 0.3175 0.9178
H99 H 1.2375 0.2750 0.9247
C104 C 1.3185(12) 0.2970(5) 0.9402(7)
C105 C 1.2944(14) 0.3063(7) 0.9644(8)
H100 H 1.2495 0.3100 0.9651
C106 C 1.3277(11) 0.6888(6) 1.0119(7)
C107 C 1.3967(12) 0.7001(6) 1.0179(8)
H101 H 1.4241 0.7044 1.0043
C108 C 1.4255(14) 0.2949(9) 0.9575(9)
C109 C 1.4932(14) 0.2841(7) 0.9564(8)
H102 H 1.5047 0.2781 0.9395
H103 H 1.5001 0.2624 0.9668
H104 H 1.5198 0.3046 0.9622
N24 N 1.4061(13) 0.2414(7) 0.9036(7)
H105 H 1.4199 0.2290 0.9173
H106 H 1.3626 0.2381 0.9023
C110 C 1.4427(16) 0.2235(6) 0.8784(7)
H107 H 1.4891 0.2204 0.8814
H108 H 1.4241 0.1991 0.8742
C111 C 1.431(2) 0.2497(8) 0.8590(7)
H109 H 1.3853 0.2533 0.8556
H110 H 1.4540 0.2429 0.8437
N25 N 1.4624(12) 0.2845(4) 0.8718(7)
H111 H 1.4546 0.3052 0.8626
H112 H 1.5060 0.2813 0.8728
N26 N 1.1989(10) 0.6245(8) 0.8767(7)
H113 H 1.2335 0.6166 0.8678
H114 H 1.1707 0.6051 0.8785
C112 C 1.1627(19) 0.6614(10) 0.8632(6)
H115 H 1.1926 0.6824 0.8613
H116 H 1.1447 0.6547 0.8470
C113 C 1.1125(14) 0.6697(9) 0.8807(7)
H117 H 1.0849 0.6479 0.8838
H118 H 1.0857 0.6907 0.8752
N27 N 1.1529(9) 0.6799(5) 0.9036(6)
H119 H 1.1278 0.6794 0.9174
H120 H 1.1698 0.7032 0.9020
N28 N 1.8662(11) 0.5423(6) 0.9420(6)
C114 C 1.9170(9) 0.4901(6) 0.9168(6)
H121 H 1.9123 0.5084 0.9037
H122 H 1.8889 0.4690 0.9135
H123 H 1.9615 0.4817 0.9176
C115 C 1.8988(12) 0.5073(6) 0.9408(8)
C116 C 1.8919(10) 0.4933(8) 0.9644(8)
H124 H 1.9049 0.4682 0.9655
C117 C 1.8682(11) 0.5084(4) 0.9893(7)
C118 C 1.8496(12) 0.5480(6) 0.9841(7)
H125 H 1.8346 0.5621 0.9976
C119 C 1.8521(11) 0.5663(6) 0.9611(7)
C120 C 1.8209(12) 0.6034(5) 0.9560(7)
H126 H 1.8159 0.6170 0.9714
H127 H 1.7788 0.5995 0.9486
H128 H 1.8480 0.6176 0.9448
N29 N 1.9429(10) 0.5847(5) 0.9057(6)
H129 H 1.9533 0.5971 0.9198
H130 H 1.9709 0.5654 0.9035
C121 C 1.9434(12) 0.6133(9) 0.8813(7)
H131 H 1.9304 0.6384 0.8865
H132 H 1.9872 0.6148 0.8745
C122 C 1.9003(13) 0.6000(11) 0.8630(6)
H133 H 1.9177 0.5780 0.8546
H134 H 1.8904 0.6194 0.8508
N30 N 1.8401(9) 0.5901(6) 0.8790(6)
H135 H 1.8132 0.5761 0.8694
H136 H 1.8190 0.6118 0.8824
Pd4C Pd 1.42393(9) 0.70875(4) 1.09316(7)
Pd5C Pd 1.22400(9) 0.35786(5) 1.09358(7)
Pd6C Pd 1.85065(8) 0.43324(5) 1.09349(7)
N16C N 1.4356(7) 0.5125(3) 1.0939(3)
N17C N 1.7548(8) 0.4509(4) 1.0909(4)
N18C N 1.5130(6) 0.4623(3) 1.0933(3)
N19C N 1.5495(7) 0.5257(4) 1.0933(3)
N20C N 1.4477(9) 0.6522(5) 1.0932(5)
N21C N 1.2984(7) 0.3949(5) 1.0915(5)
C78C C 1.2797(9) 0.4369(6) 1.0932(6)
H77C H 1.2367 0.4454 1.0932
C79C C 1.3317(9) 0.4600(5) 1.0949(5)
H78C H 1.3237 0.4857 1.0968
C80C C 1.3991(8) 0.4478(5) 1.0939(5)
C81C C 1.4087(8) 0.4091(4) 1.0936(5)
H79C H 1.4509 0.3996 1.0947
C82C C 1.3571(8) 0.3847(5) 1.0918(5)
H80C H 1.3662 0.3590 1.0907
C83C C 1.5079(11) 0.6429(6) 1.0914(5)
H81C H 1.5411 0.6604 1.0886
C84C C 1.5206(9) 0.6007(5) 1.0941(5)
H82C H 1.5630 0.5923 1.0969
C85C C 1.4722(8) 0.5758(4) 1.0925(5)
C86C C 1.4086(9) 0.5908(4) 1.0939(5)
H83C H 1.3736 0.5743 1.0956
C87C C 1.3954(10) 0.6305(5) 1.0927(5)
H84C H 1.3533 0.6402 1.0916
C88C C 1.7027(8) 0.4225(6) 1.0935(5)
H85C H 1.7108 0.3968 1.0951
C89C C 1.6414(9) 0.4378(5) 1.0934(5)
H86C H 1.6056 0.4216 1.0931
C90C C 1.6300(8) 0.4782(5) 1.0937(4)
C91C C 1.6792(7) 0.4994(6) 1.0932(5)
H87C H 1.6730 0.5253 1.0947
C92C C 1.7414(9) 0.4859(5) 1.0907(5)
H88C H 1.7753 0.5031 1.0887
C93C C 1.4551(9) 0.4753(5) 1.0931(4)
C94C C 1.4787(8) 0.5343(4) 1.0925(4)
C95C C 1.5562(8) 0.4908(5) 1.0933(4)
N22C N 1.2438(12) 0.3384(6) 1.0594(6)
C96C C 1.3086(10) 0.2862(7) 1.0837(6)
H89C H 1.2751 0.2880 1.0962
H90C H 1.3487 0.2964 1.0901
H91C H 1.3151 0.2602 1.0792
C97C C 1.2899(12) 0.3064(7) 1.0627(7)
C98C C 1.3134(13) 0.2997(6) 1.0355(7)
H92C H 1.3383 0.2781 1.0331
C99C C 1.3025(12) 0.3218(6) 1.0140(7)
C100C C 1.2484(13) 0.3474(6) 1.0117(7)
H93C H 1.2312 0.3571 0.9969
C101C C 1.2252(12) 0.3555(5) 1.0380(7)
C102C C 1.1800(16) 0.3905(7) 1.0400(8)
H94C H 1.1657 0.3934 1.0570
H95C H 1.1427 0.3872 1.0294
H96C H 1.2036 0.4127 1.0350
N23C N 1.3845(12) 0.7034(7) 1.0577(6)
C103C C 1.2694(13) 0.7063(7) 1.0798(6)
H97C H 1.2905 0.7137 1.0951
H98C H 1.2481 0.6825 1.0822
H99C H 1.2375 0.7250 1.0753
C104C C 1.3185(12) 0.7030(5) 1.0598(7)
C105C C 1.2944(14) 0.6937(7) 1.0356(8)
H100C H 1.2495 0.6900 1.0349
C106C C 1.3277(11) 0.3112(6) 0.9881(7)
C107C C 1.3967(12) 0.2999(6) 0.9821(8)
H101C H 1.4241 0.2956 0.9957
C108C C 1.4255(14) 0.7051(9) 1.0425(9)
C109C C 1.4932(14) 0.7159(7) 1.0436(8)
H102C H 1.5047 0.7219 1.0605
H103C H 1.5001 0.7376 1.0332
H104C H 1.5198 0.6954 1.0378
N24C N 1.4061(13) 0.7586(7) 1.0964(7)
H105C H 1.4199 0.7710 1.0827
H106C H 1.3626 0.7619 1.0977
C110C C 1.4427(16) 0.7765(6) 1.1216(7)
H107C H 1.4891 0.7796 1.1186
H108C H 1.4241 0.8009 1.1258
C111C C 1.431(2) 0.7503(8) 1.1410(7)
H109C H 1.3853 0.7467 1.1444
H110C H 1.4540 0.7571 1.1563
N25C N 1.4624(12) 0.7155(4) 1.1282(7)
H111C H 1.4546 0.6948 1.1374
H112C H 1.5060 0.7187 1.1272
N26C N 1.1989(10) 0.3755(8) 1.1233(7)
H113C H 1.2335 0.3834 1.1322
H114C H 1.1707 0.3949 1.1215
C112C C 1.1627(19) 0.3386(10) 1.1368(6)
H115C H 1.1926 0.3176 1.1387
H116C H 1.1447 0.3453 1.1530
C113C C 1.1125(14) 0.3303(9) 1.1193(7)
H117C H 1.0849 0.3521 1.1162
H118C H 1.0857 0.3093 1.1248
N27C N 1.1529(9) 0.3201(5) 1.0964(6)
H119C H 1.1278 0.3206 1.0826
H120C H 1.1698 0.2968 1.0980
N28C N 1.8662(11) 0.4577(6) 1.0580(6)
C114C C 1.9170(9) 0.5099(6) 1.0832(6)
H121C H 1.9123 0.4916 1.0963
H122C H 1.8889 0.5310 1.0865
H123C H 1.9615 0.5183 1.0824
C115C C 1.8988(12) 0.4927(6) 1.0592(8)
C116C C 1.8919(10) 0.5067(8) 1.0356(8)
H124C H 1.9049 0.5318 1.0345
C117C C 1.8682(11) 0.4916(4) 1.0107(7)
C118C C 1.8496(12) 0.4520(6) 1.0159(7)
H125C H 1.8346 0.4379 1.0024
C119C C 1.8521(11) 0.4337(6) 1.0389(7)
C120C C 1.8209(12) 0.3966(5) 1.0440(7)
H126C H 1.8159 0.3830 1.0286
H127C H 1.7788 0.4005 1.0514
H128C H 1.8480 0.3824 1.0552
N29C N 1.9429(10) 0.4153(5) 1.0943(6)
H129C H 1.9533 0.4029 1.0802
H130C H 1.9709 0.4346 1.0965
C121C C 1.9434(12) 0.3867(9) 1.1187(7)
H131C H 1.9304 0.3616 1.1135
H132C H 1.9872 0.3852 1.1255
C122C C 1.9003(13) 0.4000(11) 1.1370(6)
H133C H 1.9177 0.4220 1.1454
H134C H 1.8904 0.3806 1.1492
N30C N 1.8401(9) 0.4099(6) 1.1210(6)
H135C H 1.8132 0.4239 1.1306
H136C H 1.8190 0.3882 1.1176
Pd1 Pd 1.76142(10) 0.34853(6) 0.84714(6)
Pd2 Pd 1.14190(9) 0.44485(6) 0.84696(6)
Pd3 Pd 1.59594(11) 0.70643(5) 0.84703(6)
N1 N 1.6886(8) 0.3891(3) 0.8489(4)
N2 N 1.5709(8) 0.6495(4) 0.8491(4)
N3 N 1.2354(8) 0.4623(5) 0.8474(4)
N4 N 1.5662(7) 0.5098(3) 0.8466(3)
N5 N 1.4497(7) 0.5285(3) 0.8458(3)
N6 N 1.4809(6) 0.4630(4) 0.8473(3)
C1 C 1.7082(9) 0.4227(5) 0.8487(5)
H1 H 1.7526 0.4281 0.8495
C2 C 1.6609(9) 0.4530(4) 0.8470(5)
H2 H 1.6737 0.4781 0.8459
C3 C 1.5936(8) 0.4422(5) 0.8470(4)
C4 C 1.5696(9) 0.4024(5) 0.8455(4)
H3 H 1.5264 0.3944 0.8446
C5 C 1.6271(10) 0.3792(4) 0.8458(5)
H4 H 1.6199 0.3536 0.8434
C6 C 1.5108(10) 0.6408(5) 0.8483(5)
H5 H 1.4800 0.6601 0.8481
C7 C 1.4877(11) 0.6010(5) 0.8476(5)
H6 H 1.4438 0.5942 0.8483
C8 C 1.5372(10) 0.5759(4) 0.8458(4)
C9 C 1.5992(11) 0.5840(5) 0.8463(5)
H7 H 1.6310 0.5653 0.8451
C10 C 1.6167(9) 0.6242(5) 0.8488(5)
H8 H 1.6603 0.6314 0.8501
C11 C 1.2803(8) 0.4339(5) 0.8486(5)
H9 H 1.2675 0.4090 0.8511
C12 C 1.3477(8) 0.4438(6) 0.8458(5)
H10 H 1.3788 0.4253 0.8427
C13 C 1.3655(8) 0.4804(6) 0.8478(4)
C14 C 1.3197(10) 0.5140(7) 0.8457(5)
H11 H 1.3316 0.5392 0.8442
C15 C 1.2518(9) 0.4986(6) 0.8466(5)
H12 H 1.2178 0.5160 0.8465
C16 C 1.5451(8) 0.4730(4) 0.8457(4)
C17 C 1.5146(7) 0.5340(4) 0.8460(4)
C18 C 1.4371(8) 0.4898(4) 0.8463(4)
N7 N 1.5608(8) 0.7078(4) 0.8111(4)
C19 C 1.6721(12) 0.6904(11) 0.8015(7)
H13 H 1.6742 0.6967 0.8189
H14 H 1.7019 0.7061 0.7924
H15 H 1.6838 0.6644 0.7993
C20 C 1.5968(11) 0.6974(5) 0.7911(6)
C21 C 1.5739(13) 0.6955(5) 0.7686(6)
H16 H 1.5987 0.6841 0.7561
C22 C 1.5129(12) 0.7103(7) 0.7626(5)
C23 C 1.4793(14) 0.7210(6) 0.7847(7)
H17 H 1.4373 0.7301 0.7820
C24 C 1.4966(13) 0.7203(6) 0.8080(6)
C25 C 1.4556(15) 0.7293(10) 0.8259(6)
H18 H 1.4149 0.7373 0.8188
H19 H 1.4737 0.7494 0.8357
H20 H 1.4483 0.7077 0.8364
N8 N 1.6203(19) 0.7584(6) 0.8487(5)
H21 H 1.6506 0.7635 0.8370
H22 H 1.5852 0.7730 0.8458
C26 C 1.650(2) 0.7671(9) 0.8771(6)
H23 H 1.6975 0.7652 0.8769
H24 H 1.6384 0.7924 0.8823
C27 C 1.624(3) 0.7406(10) 0.8937(6)
H25 H 1.5781 0.7455 0.8968
H26 H 1.6475 0.7407 0.9094
N9 N 1.6334(17) 0.7033(7) 0.8799(6)
H27 H 1.6139 0.6846 0.8886
H28 H 1.6763 0.6979 0.8788
N10 N 1.7821(9) 0.3660(6) 0.8113(5)
C28 C 1.6948(13) 0.3255(10) 0.7995(6)
H29 H 1.6987 0.3209 0.8171
H30 H 1.6971 0.3020 0.7907
H31 H 1.6536 0.3374 0.7961
C29 C 1.7467(10) 0.3495(6) 0.7915(6)
C30 C 1.7545(9) 0.3637(7) 0.7668(6)
H32 H 1.7241 0.3568 0.7548
C31 C 1.8024(12) 0.3859(6) 0.7604(6)
C32 C 1.8419(10) 0.4025(10) 0.7880(7)
H33 H 1.8723 0.4219 0.7871
C33 C 1.8289(12) 0.3883(8) 0.8075(7)
C34 C 1.8705(12) 0.4069(11) 0.8252(7)
H34 H 1.9031 0.4212 0.8165
H35 H 1.8913 0.3883 0.8356
H36 H 1.8448 0.4235 0.8354
N11 N 1.8273(12) 0.3102(11) 0.8474(6)
H37 H 1.8139 0.2906 0.8380
H38 H 1.8641 0.3194 0.8405
C35 C 1.839(2) 0.2989(16) 0.8689(10)
C36 C 1.819(2) 0.3113(8) 0.8985(8)
N12 N 1.7448(16) 0.3336(5) 0.8827(5)
H39 H 1.7327 0.3542 0.8914
H40 H 1.7113 0.3172 0.8831
N13 N 1.1498(11) 0.4301(5) 0.8125(5)
C37 C 1.1466(17) 0.4899(6) 0.7991(6)
H41 H 1.1385 0.4900 0.8168
H42 H 1.1115 0.5026 0.7907
H43 H 1.1870 0.5028 0.7958
C38 C 1.1509(10) 0.4526(6) 0.7906(7)
C39 C 1.1655(13) 0.4429(5) 0.7681(6)
H44 H 1.1664 0.4603 0.7551
C40 C 1.8195(10) 0.4038(7) 0.7359(6)
C41 C 1.8196(12) 0.3790(7) 0.7159(7)
H45 H 1.8097 0.3539 0.7190
C42 C 1.1680(13) 0.3883(7) 0.8062(7)
C43 C 1.1747(12) 0.3625(8) 0.8303(6)
H46 H 1.1809 0.3368 0.8253
H47 H 1.1358 0.3645 0.8402
H48 H 1.2116 0.3707 0.8400
N14 N 1.0469(16) 0.4252(13) 0.8532(7)
H49 H 1.0201 0.4309 0.8404
H50 H 1.0461 0.4002 0.8560
C44 C 1.0281(18) 0.4498(16) 0.8790(9)
H51 H 1.0245 0.4764 0.8752
H52 H 0.9869 0.4411 0.8859
C45 C 1.080(2) 0.4433(14) 0.8961(6)
H53 H 1.0874 0.4166 0.8989
H54 H 1.0729 0.4560 0.9119
N15 N 1.1340(14) 0.4614(9) 0.8807(6)
H55 H 1.1723 0.4571 0.8885
H56 H 1.1275 0.4865 0.8807
Pd1B Pd 1.23858(10) 0.34853(6) 0.65286(6)
Pd2B Pd 1.85810(9) 0.44485(6) 0.65304(6)
Pd3B Pd 1.40406(11) 0.70643(5) 0.65297(6)
N1B N 1.3114(8) 0.3891(3) 0.6511(4)
N2B N 1.4291(8) 0.6495(4) 0.6509(4)
N3B N 1.7646(8) 0.4623(5) 0.6526(4)
N4B N 1.4338(7) 0.5098(3) 0.6534(3)
N5B N 1.5503(7) 0.5285(3) 0.6542(3)
N6B N 1.5191(6) 0.4630(4) 0.6527(3)
C1B C 1.2918(9) 0.4227(5) 0.6513(5)
H1B H 1.2474 0.4281 0.6505
C2B C 1.3391(9) 0.4530(4) 0.6530(5)
H2B H 1.3263 0.4781 0.6541
C3B C 1.4064(8) 0.4422(5) 0.6530(4)
C4B C 1.4304(9) 0.4024(5) 0.6545(4)
H3B H 1.4736 0.3944 0.6554
C5B C 1.3729(10) 0.3792(4) 0.6542(5)
H4B H 1.3801 0.3536 0.6566
C6B C 1.4892(10) 0.6408(5) 0.6517(5)
H5B H 1.5200 0.6601 0.6519
C7B C 1.5123(11) 0.6010(5) 0.6524(5)
H6B H 1.5562 0.5942 0.6517
C8B C 1.4628(10) 0.5759(4) 0.6542(4)
C9B C 1.4008(11) 0.5840(5) 0.6537(5)
H7B H 1.3690 0.5653 0.6549
C10B C 1.3833(9) 0.6242(5) 0.6512(5)
H8B H 1.3397 0.6314 0.6499
C11B C 1.7197(8) 0.4339(5) 0.6514(5)
H9B H 1.7325 0.4090 0.6489
C12B C 1.6523(8) 0.4438(6) 0.6542(5)
H10B H 1.6212 0.4253 0.6573
C13B C 1.6345(8) 0.4804(6) 0.6522(4)
C14B C 1.6803(10) 0.5140(7) 0.6543(5)
H11B H 1.6684 0.5392 0.6558
C15B C 1.7482(9) 0.4986(6) 0.6534(5)
H12B H 1.7822 0.5160 0.6535
C16B C 1.4549(8) 0.4730(4) 0.6543(4)
C17B C 1.4854(7) 0.5340(4) 0.6540(4)
C18B C 1.5629(8) 0.4898(4) 0.6537(4)
N7B N 1.4392(8) 0.7078(4) 0.6889(4)
C19B C 1.3279(12) 0.6904(11) 0.6985(7)
H13B H 1.3258 0.6967 0.6811
H14B H 1.2981 0.7061 0.7076
H15B H 1.3162 0.6644 0.7007
C20B C 1.4032(11) 0.6974(5) 0.7089(6)
C21B C 1.4261(13) 0.6955(5) 0.7314(6)
H16B H 1.4013 0.6841 0.7439
C22B C 1.4871(12) 0.7103(7) 0.7374(5)
C23B C 1.5207(14) 0.7210(6) 0.7153(7)
H17B H 1.5627 0.7301 0.7180
C24B C 1.5034(13) 0.7203(6) 0.6920(6)
C25B C 1.5444(15) 0.7293(10) 0.6741(6)
H18B H 1.5851 0.7373 0.6812
H19B H 1.5263 0.7494 0.6643
H20B H 1.5517 0.7077 0.6636
N8B N 1.3797(19) 0.7584(6) 0.6513(5)
H21B H 1.3494 0.7635 0.6630
H22B H 1.4148 0.7730 0.6542
C26B C 1.350(2) 0.7671(9) 0.6229(6)
H23B H 1.3025 0.7652 0.6231
H24B H 1.3616 0.7924 0.6177
C27B C 1.376(3) 0.7406(10) 0.6063(6)
H25B H 1.4219 0.7455 0.6032
H26B H 1.3525 0.7407 0.5906
N9B N 1.3666(17) 0.7033(7) 0.6201(6)
H27B H 1.3861 0.6846 0.6114
H28B H 1.3237 0.6979 0.6212
N10B N 1.2179(9) 0.3660(6) 0.6887(5)
C28B C 1.3052(13) 0.3255(10) 0.7005(6)
H29B H 1.3013 0.3209 0.6829
H30B H 1.3029 0.3020 0.7093
H31B H 1.3464 0.3374 0.7039
C29B C 1.2533(10) 0.3495(6) 0.7085(6)
C30B C 1.2455(9) 0.3637(7) 0.7332(6)
H32B H 1.2759 0.3568 0.7452
C31B C 1.1976(12) 0.3859(6) 0.7396(6)
C32B C 1.1581(10) 0.4025(10) 0.7120(7)
H33B H 1.1277 0.4219 0.7129
C33B C 1.1711(12) 0.3883(8) 0.6925(7)
C34B C 1.1295(12) 0.4069(11) 0.6748(7)
H34B H 1.0969 0.4212 0.6835
H35B H 1.1087 0.3883 0.6644
H36B H 1.1552 0.4235 0.6646
N11B N 1.1727(12) 0.3102(11) 0.6526(6)
H37B H 1.1861 0.2906 0.6620
H38B H 1.1359 0.3194 0.6595
C35B C 1.161(2) 0.2989(16) 0.6311(10)
C36B C 1.181(2) 0.3113(8) 0.6015(8)
N12B N 1.2552(16) 0.3336(5) 0.6173(5)
H39B H 1.2673 0.3542 0.6086
H40B H 1.2887 0.3172 0.6169
N13B N 1.8502(11) 0.4301(5) 0.6875(5)
C37B C 1.8534(17) 0.4899(6) 0.7009(6)
H41B H 1.8615 0.4900 0.6832
H42B H 1.8885 0.5026 0.7093
H43B H 1.8130 0.5028 0.7042
C38B C 1.8491(10) 0.4526(6) 0.7094(7)
C39B C 1.8345(13) 0.4429(5) 0.7319(6)
H44B H 1.8336 0.4603 0.7449
C40B C 1.1805(10) 0.4038(7) 0.7641(6)
C41B C 1.1804(12) 0.3790(7) 0.7841(7)
H45B H 1.1903 0.3539 0.7810
C42B C 1.8320(13) 0.3883(7) 0.6938(7)
C43B C 1.8253(12) 0.3625(8) 0.6697(6)
H46B H 1.8191 0.3368 0.6747
H47B H 1.8642 0.3645 0.6598
H48B H 1.7884 0.3707 0.6600
N14B N 1.9531(16) 0.4252(13) 0.6468(7)
H49B H 1.9799 0.4309 0.6596
H50B H 1.9539 0.4002 0.6440
C44B C 1.9719(18) 0.4498(16) 0.6210(9)
H51B H 1.9755 0.4764 0.6248
H52B H 2.0131 0.4411 0.6141
C45B C 1.920(2) 0.4433(14) 0.6039(6)
H53B H 1.9126 0.4166 0.6011
H54B H 1.9271 0.4560 0.5881
N15B N 1.8660(14) 0.4614(9) 0.6193(6)
H55B H 1.8277 0.4571 0.6115
H56B H 1.8725 0.4865 0.6193
loop_
_geom_bond_atom_site_label_1
_geom_bond_atom_site_label_2
_geom_bond_site_symmetry_1
_geom_bond_site_symmetry_2
Pd1 N1 1_555 1_555
Pd2 N3 1_555 1_555
Pd3 N2 1_555 1_555
N1 C1 1_555 1_555
N2 C6 1_555 1_555
N3 C11 1_555 1_555
N4 C16 1_555 1_555
N5 C17 1_555 1_555
N6 C16 1_555 1_555
C1 H1 1_555 1_555
C2 C1 1_555 1_555
H2 C2 1_555 1_555
C3 C2 1_555 1_555
C4 C3 1_555 1_555
H3 C4 1_555 1_555
C5 N1 1_555 1_555
H4 C5 1_555 1_555
C6 H5 1_555 1_555
C7 C6 1_555 1_555
H6 C7 1_555 1_555
C8 C7 1_555 1_555
C9 C8 1_555 1_555
H7 C9 1_555 1_555
C10 N2 1_555 1_555
H8 C10 1_555 1_555
C11 H9 1_555 1_555
C12 C11 1_555 1_555
H10 C12 1_555 1_555
C13 C12 1_555 1_555
C14 C13 1_555 1_555
H11 C14 1_555 1_555
C15 N3 1_555 1_555
H12 C15 1_555 1_555
C16 C3 1_555 1_555
C17 N4 1_555 1_555
C18 N5 1_555 1_555
N7 Pd3 1_555 1_555
C19 H13 1_555 1_555
H14 C19 1_555 1_555
H15 C19 1_555 1_555
C20 N7 1_555 1_555
C21 C20 1_555 1_555
H16 C21 1_555 1_555
C22 C21 1_555 1_555
C23 C22 1_555 1_555
H17 C23 1_555 1_555
C24 N7 1_555 1_555
C25 C24 1_555 1_555
H18 C25 1_555 1_555
H19 C25 1_555 1_555
H20 C25 1_555 1_555
N8 Pd3 1_555 1_555
H21 N8 1_555 1_555
H22 N8 1_555 1_555
C26 N8 1_555 1_555
H23 C26 1_555 1_555
H24 C26 1_555 1_555
C27 C26 1_555 1_555
H25 C27 1_555 1_555
H26 C27 1_555 1_555
N9 Pd3 1_555 1_555
H27 N9 1_555 1_555
H28 N9 1_555 1_555
N10 Pd1 1_555 1_555
C28 H29 1_555 1_555
H30 C28 1_555 1_555
H31 C28 1_555 1_555
C29 N10 1_555 1_555
C30 C29 1_555 1_555
H32 C30 1_555 1_555
C31 C30 1_555 1_555
C32 C31 1_555 1_555
H33 C32 1_555 1_555
C33 N10 1_555 1_555
C34 C33 1_555 1_555
H34 C34 1_555 1_555
H35 C34 1_555 1_555
H36 C34 1_555 1_555
N11 Pd1 1_555 1_555
H37 N11 1_555 1_555
H38 N11 1_555 1_555
C35 N11 1_555 1_555
C36 C35 1_555 1_555
N12 Pd1 1_555 1_555
H39 N12 1_555 1_555
H40 N12 1_555 1_555
N13 Pd2 1_555 1_555
C37 H41 1_555 1_555
H42 C37 1_555 1_555
H43 C37 1_555 1_555
C38 N13 1_555 1_555
C39 C38 1_555 1_555
H44 C39 1_555 1_555
C40 C31 1_555 1_555
C41 C40 1_555 1_555
H45 C41 1_555 1_555
C42 N13 1_555 1_555
C43 C42 1_555 1_555
H46 C43 1_555 1_555
H47 C43 1_555 1_555
H48 C43 1_555 1_555
N14 Pd2 1_555 1_555
H49 N14 1_555 1_555
H50 N14 1_555 1_555
C44 N14 1_555 1_555
H51 C44 1_555 1_555
H52 C44 1_555 1_555
C45 C44 1_555 1_555
H53 C45 1_555 1_555
H54 C45 1_555 1_555
N15 Pd2 1_555 1_555
H55 N15 1_555 1_555
H56 N15 1_555 1_555
C46 H57 1_555 1_555
C47 C46 1_555 1_555
H58 C47 1_555 1_555
C48 C47 1_555 1_555
C49 C48 1_555 1_555
H59 C49 1_555 1_555
C50 C49 1_555 1_555
H60 C50 1_555 1_555
C51 C50 1_555 1_555
C52 C51 1_555 1_555
H61 C52 1_555 1_555
C53 C52 1_555 1_555
H62 C53 1_555 1_555
C54 C53 1_555 1_555
H63 C54 1_555 1_555
C55 C54 1_555 1_555
C56 C55 1_555 1_555
H64 C56 1_555 1_555
C57 C56 1_555 1_555
H65 C57 1_555 1_555
C58 C57 1_555 1_555
C59 C46 1_555 1_555
H66 C59 1_555 1_555
C60 C48 1_555 1_555
C61 C51 1_555 1_555
C62 H67 1_555 1_555
C63 C62 1_555 1_555
H68 C63 1_555 1_555
C64 C63 1_555 1_555
C65 C64 1_555 1_555
H69 C65 1_555 1_555
C66 C65 1_555 1_555
H70 C66 1_555 1_555
C67 C66 1_555 1_555
C68 C67 1_555 1_555
H71 C68 1_555 1_555
C69 C68 1_555 1_555
H72 C69 1_555 1_555
C70 C69 1_555 1_555
H73 C70 1_555 1_555
C71 C70 1_555 1_555
C72 C71 1_555 1_555
H74 C72 1_555 1_555
C73 C72 1_555 1_555
H75 C73 1_555 1_555
C74 C73 1_555 1_555
C75 C62 1_555 1_555
H76 C75 1_555 1_555
C76 C64 1_555 1_555
C77 C67 1_555 1_555
Pd4 N20 1_555 1_555
Pd5 N21 1_555 1_555
Pd6 N17 1_555 1_555
N16 C93 1_555 1_555
N17 C88 1_555 1_555
N18 C93 1_555 1_555
N19 C94 1_555 1_555
N20 C83 1_555 1_555
N21 C78 1_555 1_555
C78 H77 1_555 1_555
C79 C78 1_555 1_555
H78 C79 1_555 1_555
C80 C79 1_555 1_555
C81 C80 1_555 1_555
H79 C81 1_555 1_555
C82 N21 1_555 1_555
H80 C82 1_555 1_555
C83 H81 1_555 1_555
C84 C83 1_555 1_555
H82 C84 1_555 1_555
C85 C84 1_555 1_555
C86 C85 1_555 1_555
H83 C86 1_555 1_555
C87 N20 1_555 1_555
H84 C87 1_555 1_555
C88 H85 1_555 1_555
C89 C88 1_555 1_555
H86 C89 1_555 1_555
C90 C89 1_555 1_555
C91 C90 1_555 1_555
H87 C91 1_555 1_555
C92 N17 1_555 1_555
H88 C92 1_555 1_555
C93 C80 1_555 1_555
C94 N16 1_555 1_555
C95 N18 1_555 1_555
N22 Pd5 1_555 1_555
C96 H89 1_555 1_555
H90 C96 1_555 1_555
H91 C96 1_555 1_555
C97 N22 1_555 1_555
C98 C97 1_555 1_555
H92 C98 1_555 1_555
C99 C98 1_555 1_555
C100 C99 1_555 1_555
H93 C100 1_555 1_555
C101 N22 1_555 1_555
C102 C101 1_555 1_555
H94 C102 1_555 1_555
H95 C102 1_555 1_555
H96 C102 1_555 1_555
N23 Pd4 1_555 1_555
C103 H97 1_555 1_555
H98 C103 1_555 1_555
H99 C103 1_555 1_555
C104 N23 1_555 1_555
C105 C104 1_555 1_555
H100 C105 1_555 1_555
C106 C99 1_555 1_555
C107 C106 1_555 1_555
H101 C107 1_555 1_555
C108 N23 1_555 1_555
C109 C108 1_555 1_555
H102 C109 1_555 1_555
H103 C109 1_555 1_555
H104 C109 1_555 1_555
N24 Pd4 1_555 1_555
H105 N24 1_555 1_555
H106 N24 1_555 1_555
C110 N24 1_555 1_555
H107 C110 1_555 1_555
H108 C110 1_555 1_555
C111 C110 1_555 1_555
H109 C111 1_555 1_555
H110 C111 1_555 1_555
N25 Pd4 1_555 1_555
H111 N25 1_555 1_555
H112 N25 1_555 1_555
N26 Pd5 1_555 1_555
H113 N26 1_555 1_555
H114 N26 1_555 1_555
C112 N26 1_555 1_555
H115 C112 1_555 1_555
H116 C112 1_555 1_555
C113 C112 1_555 1_555
H117 C113 1_555 1_555
H118 C113 1_555 1_555
N27 Pd5 1_555 1_555
H119 N27 1_555 1_555
H120 N27 1_555 1_555
N28 Pd6 1_555 1_555
C114 H121 1_555 1_555
H122 C114 1_555 1_555
H123 C114 1_555 1_555
C115 N28 1_555 1_555
C116 C115 1_555 1_555
H124 C116 1_555 1_555
C117 C116 1_555 1_555
C118 C117 1_555 1_555
H125 C118 1_555 1_555
C119 N28 1_555 1_555
C120 C119 1_555 1_555
H126 C120 1_555 1_555
H127 C120 1_555 1_555
H128 C120 1_555 1_555
N29 Pd6 1_555 1_555
H129 N29 1_555 1_555
H130 N29 1_555 1_555
C121 N29 1_555 1_555
H131 C121 1_555 1_555
H132 C121 1_555 1_555
C122 C121 1_555 1_555
H133 C122 1_555 1_555
H134 C122 1_555 1_555
N30 Pd6 1_555 1_555
H135 N30 1_555 1_555
H136 N30 1_555 1_555
Pd1B N1B 1_555 1_555
Pd2B N3B 1_555 1_555
Pd3B N2B 1_555 1_555
N1B C1B 1_555 1_555
N2B C6B 1_555 1_555
N3B C11B 1_555 1_555
N4B C16B 1_555 1_555
N5B C17B 1_555 1_555
N6B C16B 1_555 1_555
C1B H1B 1_555 1_555
C2B C1B 1_555 1_555
H2B C2B 1_555 1_555
C3B C2B 1_555 1_555
C4B C3B 1_555 1_555
H3B C4B 1_555 1_555
C5B N1B 1_555 1_555
H4B C5B 1_555 1_555
C6B H5B 1_555 1_555
C7B C6B 1_555 1_555
H6B C7B 1_555 1_555
C8B C7B 1_555 1_555
C9B C8B 1_555 1_555
H7B C9B 1_555 1_555
C10B N2B 1_555 1_555
H8B C10B 1_555 1_555
C11B H9B 1_555 1_555
C12B C11B 1_555 1_555
H10B C12B 1_555 1_555
C13B C12B 1_555 1_555
C14B C13B 1_555 1_555
H11B C14B 1_555 1_555
C15B N3B 1_555 1_555
H12B C15B 1_555 1_555
C16B C3B 1_555 1_555
C17B N4B 1_555 1_555
C18B N5B 1_555 1_555
N7B Pd3B 1_555 1_555
C19B H13B 1_555 1_555
H14B C19B 1_555 1_555
H15B C19B 1_555 1_555
C20B N7B 1_555 1_555
C21B C20B 1_555 1_555
H16B C21B 1_555 1_555
C22B C22 1_555 1_555
C23B C22B 1_555 1_555
H17B C23B 1_555 1_555
C24B N7B 1_555 1_555
C25B C24B 1_555 1_555
H18B C25B 1_555 1_555
H19B C25B 1_555 1_555
H20B C25B 1_555 1_555
N8B Pd3B 1_555 1_555
H21B N8B 1_555 1_555
H22B N8B 1_555 1_555
C26B N8B 1_555 1_555
H23B C26B 1_555 1_555
H24B C26B 1_555 1_555
C27B C26B 1_555 1_555
H25B C27B 1_555 1_555
H26B C27B 1_555 1_555
N9B Pd3B 1_555 1_555
H27B N9B 1_555 1_555
H28B N9B 1_555 1_555
N10B Pd1B 1_555 1_555
C28B H29B 1_555 1_555
H30B C28B 1_555 1_555
H31B C28B 1_555 1_555
C29B N10B 1_555 1_555
C30B C29B 1_555 1_555
H32B C30B 1_555 1_555
C31B C30B 1_555 1_555
C32B C31B 1_555 1_555
H33B C32B 1_555 1_555
C33B N10B 1_555 1_555
C34B C33B 1_555 1_555
H34B C34B 1_555 1_555
H35B C34B 1_555 1_555
H36B C34B 1_555 1_555
N11B Pd1B 1_555 1_555
H37B N11B 1_555 1_555
H38B N11B 1_555 1_555
C35B N11B 1_555 1_555
C36B C35B 1_555 1_555
N12B Pd1B 1_555 1_555
H39B N12B 1_555 1_555
H40B N12B 1_555 1_555
N13B Pd2B 1_555 1_555
C37B H41B 1_555 1_555
H42B C37B 1_555 1_555
H43B C37B 1_555 1_555
C38B N13B 1_555 1_555
C39B C40 1_555 1_555
H44B C39B 1_555 1_555
C40B C39 1_555 1_555
C41B C42 1_555 1_555
H45B C41B 1_555 1_555
C42B C41 1_555 1_555
C43B C42B 1_555 1_555
H46B C43B 1_555 1_555
H47B C43B 1_555 1_555
H48B C43B 1_555 1_555
N14B Pd2B 1_555 1_555
H49B N14B 1_555 1_555
H50B N14B 1_555 1_555
C44B N14B 1_555 1_555
H51B C44B 1_555 1_555
H52B C44B 1_555 1_555
C45B C44B 1_555 1_555
H53B C45B 1_555 1_555
H54B C45B 1_555 1_555
N15B Pd2B 1_555 1_555
H55B N15B 1_555 1_555
H56B N15B 1_555 1_555
Pd4C N20C 1_555 1_555
Pd5C N21C 1_555 1_555
Pd6C N17C 1_555 1_555
N16C C93C 1_555 1_555
N17C C88C 1_555 1_555
N18C C93C 1_555 1_555
N19C C94C 1_555 1_555
N20C C83C 1_555 1_555
N21C C78C 1_555 1_555
C78C H77C 1_555 1_555
C79C C78C 1_555 1_555
H78C C79C 1_555 1_555
C80C C79C 1_555 1_555
C81C C80C 1_555 1_555
H79C C81C 1_555 1_555
C82C N21C 1_555 1_555
H80C C82C 1_555 1_555
C83C H81C 1_555 1_555
C84C C83C 1_555 1_555
H82C C84C 1_555 1_555
C85C C84C 1_555 1_555
C86C C85C 1_555 1_555
H83C C86C 1_555 1_555
C87C N20C 1_555 1_555
H84C C87C 1_555 1_555
C88C H85C 1_555 1_555
C89C C88C 1_555 1_555
H86C C89C 1_555 1_555
C90C C89C 1_555 1_555
C91C C90C 1_555 1_555
H87C C91C 1_555 1_555
C92C N17C 1_555 1_555
H88C C92C 1_555 1_555
C93C C80C 1_555 1_555
C94C N16C 1_555 1_555
C95C N18C 1_555 1_555
N22C Pd5C 1_555 1_555
C96C H89C 1_555 1_555
H90C C96C 1_555 1_555
H91C C96C 1_555 1_555
C97C N22C 1_555 1_555
C98C C97C 1_555 1_555
H92C C98C 1_555 1_555
C99C C98C 1_555 1_555
C100C C99C 1_555 1_555
H93C C100C 1_555 1_555
C101C N22C 1_555 1_555
C102C C101C 1_555 1_555
H94C C102C 1_555 1_555
H95C C102C 1_555 1_555
H96C C102C 1_555 1_555
N23C Pd4C 1_555 1_555
C103C H97C 1_555 1_555
H98C C103C 1_555 1_555
H99C C103C 1_555 1_555
C104C N23C 1_555 1_555
C105C C106 1_555 1_555
H100C C105C 1_555 1_555
C106C C105 1_555 1_555
C107C C108 1_555 1_555
H101C C107C 1_555 1_555
C108C C107 1_555 1_555
C109C C108C 1_555 1_555
H102C C109C 1_555 1_555
H103C C109C 1_555 1_555
H104C C109C 1_555 1_555
N24C Pd4C 1_555 1_555
H105C N24C 1_555 1_555
H106C N24C 1_555 1_555
C110C N24C 1_555 1_555
H107C C110C 1_555 1_555
H108C C110C 1_555 1_555
C111C C110C 1_555 1_555
H109C C111C 1_555 1_555
H110C C111C 1_555 1_555
N25C Pd4C 1_555 1_555
H111C N25C 1_555 1_555
H112C N25C 1_555 1_555
N26C Pd5C 1_555 1_555
H113C N26C 1_555 1_555
H114C N26C 1_555 1_555
C112C N26C 1_555 1_555
H115C C112C 1_555 1_555
H116C C112C 1_555 1_555
C113C C112C 1_555 1_555
H117C C113C 1_555 1_555
H118C C113C 1_555 1_555
N27C Pd5C 1_555 1_555
H119C N27C 1_555 1_555
H120C N27C 1_555 1_555
N28C Pd6C 1_555 1_555
C114C H121C 1_555 1_555
H122C C114C 1_555 1_555
H123C C114C 1_555 1_555
C115C N28C 1_555 1_555
C116C C115C 1_555 1_555
H124C C116C 1_555 1_555
C117C C117 1_555 1_555
C118C C117C 1_555 1_555
H125C C118C 1_555 1_555
C119C N28C 1_555 1_555
C120C C119C 1_555 1_555
H126C C120C 1_555 1_555
H127C C120C 1_555 1_555
H128C C120C 1_555 1_555
N29C Pd6C 1_555 1_555
H129C N29C 1_555 1_555
H130C N29C 1_555 1_555
C121C N29C 1_555 1_555
H131C C121C 1_555 1_555
H132C C121C 1_555 1_555
C122C C121C 1_555 1_555
H133C C122C 1_555 1_555
H134C C122C 1_555 1_555
N30C Pd6C 1_555 1_555
H135C N30C 1_555 1_555
H136C N30C 1_555 1_555
N6 C18 1_555 1_555
C4 C5 1_555 1_555
C8 C17 1_555 1_555
C9 C10 1_555 1_555
C13 C18 1_555 1_555
C14 C15 1_555 1_555
C19 C20 1_555 1_555
C23 C24 1_555 1_555
C27 N9 1_555 1_555
C28 C29 1_555 1_555
C32 C33 1_555 1_555
C36 N12 1_555 1_555
C37 C38 1_555 1_555
C45 N15 1_555 1_555
C55 C61 1_555 1_555
C58 C59 1_555 1_555
C58 C60 1_555 1_555
C60 C61 1_555 1_555
C71 C77 1_555 1_555
C74 C75 1_555 1_555
C74 C76 1_555 1_555
C76 C77 1_555 1_555
N19 C95 1_555 1_555
C81 C82 1_555 1_555
C85 C94 1_555 1_555
C86 C87 1_555 1_555
C90 C95 1_555 1_555
C91 C92 1_555 1_555
C96 C97 1_555 1_555
C100 C101 1_555 1_555
C103 C104 1_555 1_555
C111 N25 1_555 1_555
C113 N27 1_555 1_555
C114 C115 1_555 1_555
C118 C119 1_555 1_555
C122 N30 1_555 1_555
N6B C18B 1_555 1_555
C4B C5B 1_555 1_555
C8B C17B 1_555 1_555
C9B C10B 1_555 1_555
C13B C18B 1_555 1_555
C14B C15B 1_555 1_555
C19B C20B 1_555 1_555
C21B C22B 1_555 1_555
C23B C24B 1_555 1_555
C27B N9B 1_555 1_555
C28B C29B 1_555 1_555
C31B C40B 1_555 1_555
C32B C33B 1_555 1_555
C36B N12B 1_555 1_555
N13B C42B 1_555 1_555
C37B C38B 1_555 1_555
C38B C39B 1_555 1_555
C40B C41B 1_555 1_555
C45B N15B 1_555 1_555
N19C C95C 1_555 1_555
C81C C82C 1_555 1_555
C85C C94C 1_555 1_555
C86C C87C 1_555 1_555
C90C C95C 1_555 1_555
C91C C92C 1_555 1_555
C96C C97C 1_555 1_555
C99C C106C 1_555 1_555
C100C C101C 1_555 1_555
N23C C108C 1_555 1_555
C103C C104C 1_555 1_555
C104C C105C 1_555 1_555
C106C C107C 1_555 1_555
C111C N25C 1_555 1_555
C113C N27C 1_555 1_555
C114C C115C 1_555 1_555
C116C C117C 1_555 1_555
C118C C119C 1_555 1_555
C122C N30C 1_555 1_555

#END
