# generated using pymatgen
data_H78Pd3C77(N3O4)5
_symmetry_space_group_name_H-M   'P 1'
_cell_length_a   20.45960000
_cell_length_b   35.45300000
_cell_length_c   53.54400000
_cell_angle_alpha   90.00000000
_cell_angle_beta   90.00000000
_cell_angle_gamma   90.00000000
_symmetry_Int_Tables_number   1
_chemical_formula_structural   H78Pd3C77(N3O4)5
_chemical_formula_sum   'H1248 Pd48 C1232 N240 O320'
_cell_volume   38838.36522055
_cell_formula_units_Z   16
loop_
 _symmetry_equiv_pos_site_id
 _symmetry_equiv_pos_as_xyz
  1  'x, y, z'
loop_
 _atom_site_type_symbol
 _atom_site_label
 _atom_site_symmetry_multiplicity
 _atom_site_fract_x
 _atom_site_fract_y
 _atom_site_fract_z
 _atom_site_occupancy
  H  H1  1  0.538400  0.606000  0.963600  1
  H  H2  1  0.461600  0.394000  0.463600  1
  H  H3  1  0.461600  0.606000  0.536400  1
  H  H4  1  0.538400  0.394000  0.036400  1
  H  H5  1  0.038400  0.106000  0.963600  1
  H  H6  1  0.961600  0.894000  0.463600  1
  H  H7  1  0.961600  0.106000  0.536400  1
  H  H8  1  0.038400  0.894000  0.036400  1
  H  H9  1  0.621200  0.560800  0.965000  1
  H  H10  1  0.378800  0.439200  0.465000  1
  H  H11  1  0.378800  0.560800  0.535000  1
  H  H12  1  0.621200  0.439200  0.035000  1
  H  H13  1  0.121200  0.060800  0.965000  1
  H  H14  1  0.878800  0.939200  0.465000  1
  H  H15  1  0.878800  0.060800  0.535000  1
  H  H16  1  0.121200  0.939200  0.035000  1
  H  H17  1  0.655700  0.492700  0.966800  1
  H  H18  1  0.344300  0.507300  0.466800  1
  H  H19  1  0.344300  0.492700  0.533200  1
  H  H20  1  0.655700  0.507300  0.033200  1
  H  H21  1  0.155700  0.992700  0.966800  1
  H  H22  1  0.844300  0.007300  0.466800  1
  H  H23  1  0.844300  0.992700  0.533200  1
  H  H24  1  0.155700  0.007300  0.033200  1
  H  H25  1  0.628900  0.430300  0.967800  1
  H  H26  1  0.371100  0.569700  0.467800  1
  H  H27  1  0.371100  0.430300  0.532200  1
  H  H28  1  0.628900  0.569700  0.032200  1
  H  H29  1  0.128900  0.930300  0.967800  1
  H  H30  1  0.871100  0.069700  0.467800  1
  H  H31  1  0.871100  0.930300  0.532200  1
  H  H32  1  0.128900  0.069700  0.032200  1
  H  H33  1  0.543000  0.379400  0.969500  1
  H  H34  1  0.457000  0.620600  0.469500  1
  H  H35  1  0.457000  0.379400  0.530500  1
  H  H36  1  0.543000  0.620600  0.030500  1
  H  H37  1  0.043000  0.879400  0.969500  1
  H  H38  1  0.957000  0.120600  0.469500  1
  H  H39  1  0.957000  0.879400  0.530500  1
  H  H40  1  0.043000  0.120600  0.030500  1
  H  H41  1  0.433700  0.361600  0.970500  1
  H  H42  1  0.566300  0.638400  0.470500  1
  H  H43  1  0.566300  0.361600  0.529500  1
  H  H44  1  0.433700  0.638400  0.029500  1
  H  H45  1  0.933700  0.861600  0.970500  1
  H  H46  1  0.066300  0.138400  0.470500  1
  H  H47  1  0.066300  0.861600  0.529500  1
  H  H48  1  0.933700  0.138400  0.029500  1
  H  H49  1  0.350800  0.406800  0.970600  1
  H  H50  1  0.649200  0.593200  0.470600  1
  H  H51  1  0.649200  0.406800  0.529400  1
  H  H52  1  0.350800  0.593200  0.029400  1
  H  H53  1  0.850800  0.906800  0.970600  1
  H  H54  1  0.149200  0.093200  0.470600  1
  H  H55  1  0.149200  0.906800  0.529400  1
  H  H56  1  0.850800  0.093200  0.029400  1
  H  H57  1  0.316300  0.474900  0.970000  1
  H  H58  1  0.683700  0.525100  0.470000  1
  H  H59  1  0.683700  0.474900  0.530000  1
  H  H60  1  0.316300  0.525100  0.030000  1
  H  H61  1  0.816300  0.974900  0.970000  1
  H  H62  1  0.183700  0.025100  0.470000  1
  H  H63  1  0.183700  0.974900  0.530000  1
  H  H64  1  0.816300  0.025100  0.030000  1
  H  H65  1  0.342900  0.537000  0.968200  1
  H  H66  1  0.657100  0.463000  0.468200  1
  H  H67  1  0.657100  0.537000  0.531800  1
  H  H68  1  0.342900  0.463000  0.031800  1
  H  H69  1  0.842900  0.037000  0.968200  1
  H  H70  1  0.157100  0.963000  0.468200  1
  H  H71  1  0.157100  0.037000  0.531800  1
  H  H72  1  0.842900  0.963000  0.031800  1
  H  H73  1  0.428700  0.588200  0.964500  1
  H  H74  1  0.571300  0.411800  0.464500  1
  H  H75  1  0.571300  0.588200  0.535500  1
  H  H76  1  0.428700  0.411800  0.035500  1
  H  H77  1  0.928700  0.088200  0.964500  1
  H  H78  1  0.071300  0.911800  0.464500  1
  H  H79  1  0.071300  0.088200  0.535500  1
  H  H80  1  0.928700  0.911800  0.035500  1
  H  H81  1  0.277500  0.488700  0.778700  1
  H  H82  1  0.722500  0.511300  0.278700  1
  H  H83  1  0.722500  0.488700  0.721300  1
  H  H84  1  0.277500  0.511300  0.221300  1
  H  H85  1  0.777500  0.988700  0.778700  1
  H  H86  1  0.222500  0.011300  0.278700  1
  H  H87  1  0.222500  0.988700  0.721300  1
  H  H88  1  0.777500  0.011300  0.221300  1
  H  H89  1  0.349100  0.539700  0.781800  1
  H  H90  1  0.650900  0.460300  0.281800  1
  H  H91  1  0.650900  0.539700  0.718200  1
  H  H92  1  0.349100  0.460300  0.218200  1
  H  H93  1  0.849100  0.039700  0.781800  1
  H  H94  1  0.150900  0.960300  0.281800  1
  H  H95  1  0.150900  0.039700  0.718200  1
  H  H96  1  0.849100  0.960300  0.218200  1
  H  H97  1  0.463900  0.564700  0.784300  1
  H  H98  1  0.536100  0.435300  0.284300  1
  H  H99  1  0.536100  0.564700  0.715700  1
  H  H100  1  0.463900  0.435300  0.215700  1
  H  H101  1  0.963900  0.064700  0.784300  1
  H  H102  1  0.036100  0.935300  0.284300  1
  H  H103  1  0.036100  0.064700  0.715700  1
  H  H104  1  0.963900  0.935300  0.215700  1
  H  H105  1  0.573900  0.554200  0.784900  1
  H  H106  1  0.426100  0.445800  0.284900  1
  H  H107  1  0.426100  0.554200  0.715100  1
  H  H108  1  0.573900  0.445800  0.215100  1
  H  H109  1  0.073900  0.054200  0.784900  1
  H  H110  1  0.926100  0.945800  0.284900  1
  H  H111  1  0.926100  0.054200  0.715100  1
  H  H112  1  0.073900  0.945800  0.215100  1
  H  H113  1  0.668600  0.508700  0.784700  1
  H  H114  1  0.331400  0.491300  0.284700  1
  H  H115  1  0.331400  0.508700  0.715300  1
  H  H116  1  0.668600  0.491300  0.215300  1
  H  H117  1  0.168600  0.008700  0.784700  1
  H  H118  1  0.831400  0.991300  0.284700  1
  H  H119  1  0.831400  0.008700  0.715300  1
  H  H120  1  0.168600  0.991300  0.215300  1
  H  H121  1  0.708000  0.447200  0.783400  1
  H  H122  1  0.292000  0.552800  0.283400  1
  H  H123  1  0.292000  0.447200  0.716600  1
  H  H124  1  0.708000  0.552800  0.216600  1
  H  H125  1  0.208000  0.947200  0.783400  1
  H  H126  1  0.792000  0.052800  0.283400  1
  H  H127  1  0.792000  0.947200  0.716600  1
  H  H128  1  0.208000  0.052800  0.216600  1
  H  H129  1  0.636400  0.396000  0.781700  1
  H  H130  1  0.363600  0.604000  0.281700  1
  H  H131  1  0.363600  0.396000  0.718300  1
  H  H132  1  0.636400  0.604000  0.218300  1
  H  H133  1  0.136400  0.896000  0.781700  1
  H  H134  1  0.863600  0.104000  0.281700  1
  H  H135  1  0.863600  0.896000  0.718300  1
  H  H136  1  0.136400  0.104000  0.218300  1
  H  H137  1  0.521500  0.370900  0.780400  1
  H  H138  1  0.478500  0.629100  0.280400  1
  H  H139  1  0.478500  0.370900  0.719600  1
  H  H140  1  0.521500  0.629100  0.219600  1
  H  H141  1  0.021500  0.870900  0.780400  1
  H  H142  1  0.978500  0.129100  0.280400  1
  H  H143  1  0.978500  0.870900  0.719600  1
  H  H144  1  0.021500  0.129100  0.219600  1
  H  H145  1  0.412000  0.381400  0.779100  1
  H  H146  1  0.588000  0.618600  0.279100  1
  H  H147  1  0.588000  0.381400  0.720900  1
  H  H148  1  0.412000  0.618600  0.220900  1
  H  H149  1  0.912000  0.881400  0.779100  1
  H  H150  1  0.088000  0.118600  0.279100  1
  H  H151  1  0.088000  0.881400  0.720900  1
  H  H152  1  0.912000  0.118600  0.220900  1
  H  H153  1  0.316800  0.427000  0.777200  1
  H  H154  1  0.683200  0.573000  0.277200  1
  H  H155  1  0.683200  0.427000  0.722800  1
  H  H156  1  0.316800  0.573000  0.222800  1
  H  H157  1  0.816800  0.927000  0.777200  1
  H  H158  1  0.183200  0.073000  0.277200  1
  H  H159  1  0.183200  0.927000  0.722800  1
  H  H160  1  0.816800  0.073000  0.222800  1
  H  H161  1  0.708000  0.479200  0.966200  1
  H  H162  1  0.292000  0.520800  0.466200  1
  H  H163  1  0.292000  0.479200  0.533800  1
  H  H164  1  0.708000  0.520800  0.033800  1
  H  H165  1  0.208000  0.979200  0.966200  1
  H  H166  1  0.792000  0.020800  0.466200  1
  H  H167  1  0.792000  0.979200  0.533800  1
  H  H168  1  0.208000  0.020800  0.033800  1
  H  H169  1  0.630400  0.430800  0.966900  1
  H  H170  1  0.369600  0.569200  0.466900  1
  H  H171  1  0.369600  0.430800  0.533100  1
  H  H172  1  0.630400  0.569200  0.033100  1
  H  H173  1  0.130400  0.930800  0.966900  1
  H  H174  1  0.869600  0.069200  0.466900  1
  H  H175  1  0.869600  0.930800  0.533100  1
  H  H176  1  0.130400  0.069200  0.033100  1
  H  H177  1  0.512800  0.410200  0.967600  1
  H  H178  1  0.487200  0.589800  0.467600  1
  H  H179  1  0.487200  0.410200  0.532400  1
  H  H180  1  0.512800  0.589800  0.032400  1
  H  H181  1  0.012800  0.910200  0.967600  1
  H  H182  1  0.987200  0.089800  0.467600  1
  H  H183  1  0.987200  0.910200  0.532400  1
  H  H184  1  0.012800  0.089800  0.032400  1
  H  H185  1  0.404300  0.425000  0.967800  1
  H  H186  1  0.595700  0.575000  0.467800  1
  H  H187  1  0.595700  0.425000  0.532200  1
  H  H188  1  0.404300  0.575000  0.032200  1
  H  H189  1  0.904300  0.925000  0.967800  1
  H  H190  1  0.095700  0.075000  0.467800  1
  H  H191  1  0.095700  0.925000  0.532200  1
  H  H192  1  0.904300  0.075000  0.032200  1
  H  H193  1  0.315200  0.474100  0.968800  1
  H  H194  1  0.684800  0.525900  0.468800  1
  H  H195  1  0.684800  0.474100  0.531200  1
  H  H196  1  0.315200  0.525900  0.031200  1
  H  H197  1  0.815200  0.974100  0.968800  1
  H  H198  1  0.184800  0.025900  0.468800  1
  H  H199  1  0.184800  0.974100  0.531200  1
  H  H200  1  0.815200  0.025900  0.031200  1
  H  H201  1  0.283100  0.537000  0.969700  1
  H  H202  1  0.716900  0.463000  0.469700  1
  H  H203  1  0.716900  0.537000  0.530300  1
  H  H204  1  0.283100  0.463000  0.030300  1
  H  H205  1  0.783100  0.037000  0.969700  1
  H  H206  1  0.216900  0.963000  0.469700  1
  H  H207  1  0.216900  0.037000  0.530300  1
  H  H208  1  0.783100  0.963000  0.030300  1
  H  H209  1  0.360600  0.585300  0.970500  1
  H  H210  1  0.639400  0.414700  0.470500  1
  H  H211  1  0.639400  0.585300  0.529500  1
  H  H212  1  0.360600  0.414700  0.029500  1
  H  H213  1  0.860600  0.085300  0.970500  1
  H  H214  1  0.139400  0.914700  0.470500  1
  H  H215  1  0.139400  0.085300  0.529500  1
  H  H216  1  0.860600  0.914700  0.029500  1
  H  H217  1  0.478200  0.605900  0.971000  1
  H  H218  1  0.521800  0.394100  0.471000  1
  H  H219  1  0.521800  0.605900  0.529000  1
  H  H220  1  0.478200  0.394100  0.029000  1
  H  H221  1  0.978200  0.105900  0.971000  1
  H  H222  1  0.021800  0.894100  0.471000  1
  H  H223  1  0.021800  0.105900  0.529000  1
  H  H224  1  0.978200  0.894100  0.029000  1
  H  H225  1  0.586200  0.591200  0.970100  1
  H  H226  1  0.413800  0.408800  0.470100  1
  H  H227  1  0.413800  0.591200  0.529900  1
  H  H228  1  0.586200  0.408800  0.029900  1
  H  H229  1  0.086200  0.091200  0.970100  1
  H  H230  1  0.913800  0.908800  0.470100  1
  H  H231  1  0.913800  0.091200  0.529900  1
  H  H232  1  0.086200  0.908800  0.029900  1
  H  H233  1  0.676000  0.542200  0.967000  1
  H  H234  1  0.324000  0.457800  0.467000  1
  H  H235  1  0.324000  0.542200  0.533000  1
  H  H236  1  0.676000  0.457800  0.033000  1
  H  H237  1  0.176000  0.042200  0.967000  1
  H  H238  1  0.824000  0.957800  0.467000  1
  H  H239  1  0.824000  0.042200  0.533000  1
  H  H240  1  0.176000  0.957800  0.033000  1
  H  H241  1  0.398300  0.421100  0.784400  1
  H  H242  1  0.601700  0.578900  0.284400  1
  H  H243  1  0.601700  0.421100  0.715600  1
  H  H244  1  0.398300  0.578900  0.215600  1
  H  H245  1  0.898300  0.921100  0.784400  1
  H  H246  1  0.101700  0.078900  0.284400  1
  H  H247  1  0.101700  0.921100  0.715600  1
  H  H248  1  0.898300  0.078900  0.215600  1
  H  H249  1  0.350600  0.480900  0.783500  1
  H  H250  1  0.649400  0.519100  0.283500  1
  H  H251  1  0.649400  0.480900  0.716500  1
  H  H252  1  0.350600  0.519100  0.216500  1
  H  H253  1  0.850600  0.980900  0.783500  1
  H  H254  1  0.149400  0.019100  0.283500  1
  H  H255  1  0.149400  0.980900  0.716500  1
  H  H256  1  0.850600  0.019100  0.216500  1
  H  H257  1  0.362700  0.551400  0.782100  1
  H  H258  1  0.637300  0.448600  0.282100  1
  H  H259  1  0.637300  0.551400  0.717900  1
  H  H260  1  0.362700  0.448600  0.217900  1
  H  H261  1  0.862700  0.051400  0.782100  1
  H  H262  1  0.137300  0.948600  0.282100  1
  H  H263  1  0.137300  0.051400  0.717900  1
  H  H264  1  0.862700  0.948600  0.217900  1
  H  H265  1  0.427900  0.603600  0.780600  1
  H  H266  1  0.572100  0.396400  0.280600  1
  H  H267  1  0.572100  0.603600  0.719400  1
  H  H268  1  0.427900  0.396400  0.219400  1
  H  H269  1  0.927900  0.103600  0.780600  1
  H  H270  1  0.072100  0.896400  0.280600  1
  H  H271  1  0.072100  0.103600  0.719400  1
  H  H272  1  0.927900  0.896400  0.219400  1
  H  H273  1  0.540700  0.632300  0.780400  1
  H  H274  1  0.459300  0.367700  0.280400  1
  H  H275  1  0.459300  0.632300  0.719600  1
  H  H276  1  0.540700  0.367700  0.219600  1
  H  H277  1  0.040700  0.132300  0.780400  1
  H  H278  1  0.959300  0.867700  0.280400  1
  H  H279  1  0.959300  0.132300  0.719600  1
  H  H280  1  0.040700  0.867700  0.219600  1
  H  H281  1  0.653600  0.625400  0.781200  1
  H  H282  1  0.346400  0.374600  0.281200  1
  H  H283  1  0.346400  0.625400  0.718800  1
  H  H284  1  0.653600  0.374600  0.218800  1
  H  H285  1  0.153600  0.125400  0.781200  1
  H  H286  1  0.846400  0.874600  0.281200  1
  H  H287  1  0.846400  0.125400  0.718800  1
  H  H288  1  0.153600  0.874600  0.218800  1
  H  H289  1  0.701300  0.565700  0.783700  1
  H  H290  1  0.298700  0.434300  0.283700  1
  H  H291  1  0.298700  0.565700  0.716300  1
  H  H292  1  0.701300  0.434300  0.216300  1
  H  H293  1  0.201300  0.065700  0.783700  1
  H  H294  1  0.798700  0.934300  0.283700  1
  H  H295  1  0.798700  0.065700  0.716300  1
  H  H296  1  0.201300  0.934300  0.216300  1
  H  H297  1  0.689200  0.495200  0.786200  1
  H  H298  1  0.310800  0.504800  0.286200  1
  H  H299  1  0.310800  0.495200  0.713800  1
  H  H300  1  0.689200  0.504800  0.213800  1
  H  H301  1  0.189200  0.995200  0.786200  1
  H  H302  1  0.810800  0.004800  0.286200  1
  H  H303  1  0.810800  0.995200  0.713800  1
  H  H304  1  0.189200  0.004800  0.213800  1
  H  H305  1  0.624300  0.443300  0.787000  1
  H  H306  1  0.375700  0.556700  0.287000  1
  H  H307  1  0.375700  0.443300  0.713000  1
  H  H308  1  0.624300  0.556700  0.213000  1
  H  H309  1  0.124300  0.943300  0.787000  1
  H  H310  1  0.875700  0.056700  0.287000  1
  H  H311  1  0.875700  0.943300  0.713000  1
  H  H312  1  0.124300  0.056700  0.213000  1
  H  H313  1  0.511500  0.414000  0.785100  1
  H  H314  1  0.488500  0.586000  0.285100  1
  H  H315  1  0.488500  0.414000  0.714900  1
  H  H316  1  0.511500  0.586000  0.214900  1
  H  H317  1  0.011500  0.914000  0.785100  1
  H  H318  1  0.988500  0.086000  0.285100  1
  H  H319  1  0.988500  0.914000  0.714900  1
  H  H320  1  0.011500  0.086000  0.214900  1
  H  H321  1  0.236700  0.554600  0.906800  1.0
  H  H322  1  0.763300  0.445400  0.406800  1.0
  H  H323  1  0.763300  0.554600  0.593200  1.0
  H  H324  1  0.236700  0.445400  0.093200  1.0
  H  H325  1  0.736700  0.054600  0.906800  1.0
  H  H326  1  0.263300  0.945400  0.406800  1.0
  H  H327  1  0.263300  0.054600  0.593200  1.0
  H  H328  1  0.736700  0.945400  0.093200  1.0
  H  H329  1  0.323700  0.514300  0.903200  1.0
  H  H330  1  0.676300  0.485700  0.403200  1.0
  H  H331  1  0.676300  0.514300  0.596800  1.0
  H  H332  1  0.323700  0.485700  0.096800  1.0
  H  H333  1  0.823700  0.014300  0.903200  1.0
  H  H334  1  0.176300  0.985700  0.403200  1.0
  H  H335  1  0.176300  0.014300  0.596800  1.0
  H  H336  1  0.823700  0.985700  0.096800  1.0
  H  H337  1  0.450900  0.600400  0.905300  1.0
  H  H338  1  0.549100  0.399600  0.405300  1.0
  H  H339  1  0.549100  0.600400  0.594700  1.0
  H  H340  1  0.450900  0.399600  0.094700  1.0
  H  H341  1  0.950900  0.100400  0.905300  1.0
  H  H342  1  0.049100  0.899600  0.405300  1.0
  H  H343  1  0.049100  0.100400  0.594700  1.0
  H  H344  1  0.950900  0.899600  0.094700  1.0
  H  H345  1  0.366200  0.641000  0.909300  1.0
  H  H346  1  0.633800  0.359000  0.409300  1.0
  H  H347  1  0.633800  0.641000  0.590700  1.0
  H  H348  1  0.366200  0.359000  0.090700  1.0
  H  H349  1  0.866200  0.141000  0.909300  1.0
  H  H350  1  0.133800  0.859000  0.409300  1.0
  H  H351  1  0.133800  0.141000  0.590700  1.0
  H  H352  1  0.866200  0.859000  0.090700  1.0
  H  H353  1  0.541100  0.339600  0.911400  1.0
  H  H354  1  0.458900  0.660400  0.411400  1.0
  H  H355  1  0.458900  0.339600  0.588600  1.0
  H  H356  1  0.541100  0.660400  0.088600  1.0
  H  H357  1  0.041100  0.839600  0.911400  1.0
  H  H358  1  0.958900  0.160400  0.411400  1.0
  H  H359  1  0.958900  0.839600  0.588600  1.0
  H  H360  1  0.041100  0.160400  0.088600  1.0
  H  H361  1  0.563000  0.407700  0.903100  1.0
  H  H362  1  0.437000  0.592300  0.403100  1.0
  H  H363  1  0.437000  0.407700  0.596900  1.0
  H  H364  1  0.563000  0.592300  0.096900  1.0
  H  H365  1  0.063000  0.907700  0.903100  1.0
  H  H366  1  0.937000  0.092300  0.403100  1.0
  H  H367  1  0.937000  0.907700  0.596900  1.0
  H  H368  1  0.063000  0.092300  0.096900  1.0
  H  H369  1  0.373600  0.425700  0.904400  1.0
  H  H370  1  0.626400  0.574300  0.404400  1.0
  H  H371  1  0.626400  0.425700  0.595600  1.0
  H  H372  1  0.373600  0.574300  0.095600  1.0
  H  H373  1  0.873600  0.925700  0.904400  1.0
  H  H374  1  0.126400  0.074300  0.404400  1.0
  H  H375  1  0.126400  0.925700  0.595600  1.0
  H  H376  1  0.873600  0.074300  0.095600  1.0
  H  H377  1  0.353300  0.359800  0.908400  1.0
  H  H378  1  0.646700  0.640200  0.408400  1.0
  H  H379  1  0.646700  0.359800  0.591600  1.0
  H  H380  1  0.353300  0.640200  0.091600  1.0
  H  H381  1  0.853300  0.859800  0.908400  1.0
  H  H382  1  0.146700  0.140200  0.408400  1.0
  H  H383  1  0.146700  0.859800  0.591600  1.0
  H  H384  1  0.853300  0.140200  0.091600  1.0
  H  H385  1  0.710800  0.603200  0.904900  1.0
  H  H386  1  0.289200  0.396800  0.404900  1.0
  H  H387  1  0.289200  0.603200  0.595100  1.0
  H  H388  1  0.710800  0.396800  0.095100  1.0
  H  H389  1  0.210800  0.103200  0.904900  1.0
  H  H390  1  0.789200  0.896800  0.404900  1.0
  H  H391  1  0.789200  0.103200  0.595100  1.0
  H  H392  1  0.210800  0.896800  0.095100  1.0
  H  H393  1  0.605600  0.578400  0.906900  1.0
  H  H394  1  0.394400  0.421600  0.406900  1.0
  H  H395  1  0.394400  0.578400  0.593100  1.0
  H  H396  1  0.605600  0.421600  0.093100  1.0
  H  H397  1  0.105600  0.078400  0.906900  1.0
  H  H398  1  0.894400  0.921600  0.406900  1.0
  H  H399  1  0.894400  0.078400  0.593100  1.0
  H  H400  1  0.105600  0.921600  0.093100  1.0
  H  H401  1  0.673000  0.474700  0.905300  1.0
  H  H402  1  0.327000  0.525300  0.405300  1.0
  H  H403  1  0.327000  0.474700  0.594700  1.0
  H  H404  1  0.673000  0.525300  0.094700  1.0
  H  H405  1  0.173000  0.974700  0.905300  1.0
  H  H406  1  0.827000  0.025300  0.405300  1.0
  H  H407  1  0.827000  0.974700  0.594700  1.0
  H  H408  1  0.173000  0.025300  0.094700  1.0
  H  H409  1  0.775300  0.496900  0.911300  1.0
  H  H410  1  0.224700  0.503100  0.411300  1.0
  H  H411  1  0.224700  0.496900  0.588700  1.0
  H  H412  1  0.775300  0.503100  0.088700  1.0
  H  H413  1  0.275300  0.996900  0.911300  1.0
  H  H414  1  0.724700  0.003100  0.411300  1.0
  H  H415  1  0.724700  0.996900  0.588700  1.0
  H  H416  1  0.275300  0.003100  0.088700  1.0
  H  H417  1  0.275100  0.712000  0.903800  1.0
  H  H418  1  0.724900  0.288000  0.403800  1.0
  H  H419  1  0.724900  0.712000  0.596200  1.0
  H  H420  1  0.275100  0.288000  0.096200  1.0
  H  H421  1  0.775100  0.212000  0.903800  1.0
  H  H422  1  0.224900  0.788000  0.403800  1.0
  H  H423  1  0.224900  0.212000  0.596200  1.0
  H  H424  1  0.775100  0.788000  0.096200  1.0
  H  H425  1  0.348700  0.703600  0.909900  1.0
  H  H426  1  0.651300  0.296400  0.409900  1.0
  H  H427  1  0.651300  0.703600  0.590100  1.0
  H  H428  1  0.348700  0.296400  0.090100  1.0
  H  H429  1  0.848700  0.203600  0.909900  1.0
  H  H430  1  0.151300  0.796400  0.409900  1.0
  H  H431  1  0.151300  0.203600  0.590100  1.0
  H  H432  1  0.848700  0.796400  0.090100  1.0
  H  H433  1  0.315100  0.739800  0.920800  1.0
  H  H434  1  0.684900  0.260200  0.420800  1.0
  H  H435  1  0.684900  0.739800  0.579200  1.0
  H  H436  1  0.315100  0.260200  0.079200  1.0
  H  H437  1  0.815100  0.239800  0.920800  1.0
  H  H438  1  0.184900  0.760200  0.420800  1.0
  H  H439  1  0.184900  0.239800  0.579200  1.0
  H  H440  1  0.815100  0.760200  0.079200  1.0
  H  H441  1  0.338300  0.721900  0.966900  1.0
  H  H442  1  0.661700  0.278100  0.466900  1.0
  H  H443  1  0.661700  0.721900  0.533100  1.0
  H  H444  1  0.338300  0.278100  0.033100  1.0
  H  H445  1  0.838300  0.221900  0.966900  1.0
  H  H446  1  0.161700  0.778100  0.466900  1.0
  H  H447  1  0.161700  0.221900  0.533100  1.0
  H  H448  1  0.838300  0.778100  0.033100  1.0
  H  H449  1  0.231200  0.642900  0.003100  1.0
  H  H450  1  0.768800  0.357100  0.503100  1.0
  H  H451  1  0.768800  0.642900  0.496900  1.0
  H  H452  1  0.231200  0.357100  0.996900  1.0
  H  H453  1  0.731200  0.142900  0.003100  1.0
  H  H454  1  0.268800  0.857100  0.503100  1.0
  H  H455  1  0.268800  0.142900  0.496900  1.0
  H  H456  1  0.731200  0.857100  0.996900  1.0
  H  H457  1  0.165700  0.606600  0.943000  1.0
  H  H458  1  0.834300  0.393400  0.443000  1.0
  H  H459  1  0.834300  0.606600  0.557000  1.0
  H  H460  1  0.165700  0.393400  0.057000  1.0
  H  H461  1  0.665700  0.106600  0.943000  1.0
  H  H462  1  0.334300  0.893400  0.443000  1.0
  H  H463  1  0.334300  0.106600  0.557000  1.0
  H  H464  1  0.665700  0.893400  0.057000  1.0
  H  H465  1  0.142700  0.612800  0.970600  1.0
  H  H466  1  0.857300  0.387200  0.470600  1.0
  H  H467  1  0.857300  0.612800  0.529400  1.0
  H  H468  1  0.142700  0.387200  0.029400  1.0
  H  H469  1  0.642700  0.112800  0.970600  1.0
  H  H470  1  0.357300  0.887200  0.470600  1.0
  H  H471  1  0.357300  0.112800  0.529400  1.0
  H  H472  1  0.642700  0.887200  0.029400  1.0
  H  H473  1  0.203600  0.587300  0.965000  1.0
  H  H474  1  0.796400  0.412700  0.465000  1.0
  H  H475  1  0.796400  0.587300  0.535000  1.0
  H  H476  1  0.203600  0.412700  0.035000  1.0
  H  H477  1  0.703600  0.087300  0.965000  1.0
  H  H478  1  0.296400  0.912700  0.465000  1.0
  H  H479  1  0.296400  0.087300  0.535000  1.0
  H  H480  1  0.703600  0.912700  0.035000  1.0
  H  H481  1  0.290500  0.286300  0.904900  1.0
  H  H482  1  0.709500  0.713700  0.404900  1.0
  H  H483  1  0.709500  0.286300  0.595100  1.0
  H  H484  1  0.290500  0.713700  0.095100  1.0
  H  H485  1  0.790500  0.786300  0.904900  1.0
  H  H486  1  0.209500  0.213700  0.404900  1.0
  H  H487  1  0.209500  0.786300  0.595100  1.0
  H  H488  1  0.790500  0.213700  0.095100  1.0
  H  H489  1  0.248100  0.317500  0.917800  1.0
  H  H490  1  0.751900  0.682500  0.417800  1.0
  H  H491  1  0.751900  0.317500  0.582200  1.0
  H  H492  1  0.248100  0.682500  0.082200  1.0
  H  H493  1  0.748100  0.817500  0.917800  1.0
  H  H494  1  0.251900  0.182500  0.417800  1.0
  H  H495  1  0.251900  0.817500  0.582200  1.0
  H  H496  1  0.748100  0.182500  0.082200  1.0
  H  H497  1  0.237500  0.275000  0.924700  1.0
  H  H498  1  0.762500  0.725000  0.424700  1.0
  H  H499  1  0.762500  0.275000  0.575300  1.0
  H  H500  1  0.237500  0.725000  0.075300  1.0
  H  H501  1  0.737500  0.775000  0.924700  1.0
  H  H502  1  0.262500  0.225000  0.424700  1.0
  H  H503  1  0.262500  0.775000  0.575300  1.0
  H  H504  1  0.737500  0.225000  0.075300  1.0
  H  H505  1  0.249500  0.310000  0.965100  1.0
  H  H506  1  0.750500  0.690000  0.465100  1.0
  H  H507  1  0.750500  0.310000  0.534900  1.0
  H  H508  1  0.249500  0.690000  0.034900  1.0
  H  H509  1  0.749500  0.810000  0.965100  1.0
  H  H510  1  0.250500  0.190000  0.465100  1.0
  H  H511  1  0.250500  0.810000  0.534900  1.0
  H  H512  1  0.749500  0.190000  0.034900  1.0
  H  H513  1  0.424100  0.704400  0.004300  1.0
  H  H514  1  0.575900  0.295600  0.504300  1.0
  H  H515  1  0.575900  0.704400  0.495700  1.0
  H  H516  1  0.424100  0.295600  0.995700  1.0
  H  H517  1  0.924100  0.204400  0.004300  1.0
  H  H518  1  0.075900  0.795600  0.504300  1.0
  H  H519  1  0.075900  0.204400  0.495700  1.0
  H  H520  1  0.924100  0.795600  0.995700  1.0
  H  H521  1  0.504700  0.278100  0.939500  1.0
  H  H522  1  0.495300  0.721900  0.439500  1.0
  H  H523  1  0.495300  0.278100  0.560500  1.0
  H  H524  1  0.504700  0.721900  0.060500  1.0
  H  H525  1  0.004700  0.778100  0.939500  1.0
  H  H526  1  0.995300  0.221900  0.439500  1.0
  H  H527  1  0.995300  0.778100  0.560500  1.0
  H  H528  1  0.004700  0.221900  0.060500  1.0
  H  H529  1  0.500100  0.262400  0.966800  1.0
  H  H530  1  0.499900  0.737600  0.466800  1.0
  H  H531  1  0.499900  0.262400  0.533200  1.0
  H  H532  1  0.500100  0.737600  0.033200  1.0
  H  H533  1  0.000100  0.762400  0.966800  1.0
  H  H534  1  0.999900  0.237600  0.466800  1.0
  H  H535  1  0.999900  0.762400  0.533200  1.0
  H  H536  1  0.000100  0.237600  0.033200  1.0
  H  H537  1  0.519800  0.304600  0.962200  1.0
  H  H538  1  0.480200  0.695400  0.462200  1.0
  H  H539  1  0.480200  0.304600  0.537800  1.0
  H  H540  1  0.519800  0.695400  0.037800  1.0
  H  H541  1  0.019800  0.804600  0.962200  1.0
  H  H542  1  0.980200  0.195400  0.462200  1.0
  H  H543  1  0.980200  0.804600  0.537800  1.0
  H  H544  1  0.019800  0.195400  0.037800  1.0
  H  H545  1  0.419900  0.229000  0.917300  1.0
  H  H546  1  0.580100  0.771000  0.417300  1.0
  H  H547  1  0.580100  0.229000  0.582700  1.0
  H  H548  1  0.419900  0.771000  0.082700  1.0
  H  H549  1  0.919900  0.729000  0.917300  1.0
  H  H550  1  0.080100  0.271000  0.417300  1.0
  H  H551  1  0.080100  0.729000  0.582700  1.0
  H  H552  1  0.919900  0.271000  0.082700  1.0
  H  H553  1  0.362600  0.238100  0.902300  1.0
  H  H554  1  0.637400  0.761900  0.402300  1.0
  H  H555  1  0.637400  0.238100  0.597700  1.0
  H  H556  1  0.362600  0.761900  0.097700  1.0
  H  H557  1  0.862600  0.738100  0.902300  1.0
  H  H558  1  0.137400  0.261900  0.402300  1.0
  H  H559  1  0.137400  0.738100  0.597700  1.0
  H  H560  1  0.862600  0.261900  0.097700  1.0
  H  H561  1  0.489100  0.220400  0.881400  1.0
  H  H562  1  0.510900  0.779600  0.381400  1.0
  H  H563  1  0.510900  0.220400  0.618600  1.0
  H  H564  1  0.489100  0.779600  0.118600  1.0
  H  H565  1  0.989100  0.720400  0.881400  1.0
  H  H566  1  0.010900  0.279600  0.381400  1.0
  H  H567  1  0.010900  0.720400  0.618600  1.0
  H  H568  1  0.989100  0.279600  0.118600  1.0
  H  H569  1  0.424100  0.199100  0.874200  1.0
  H  H570  1  0.575900  0.800900  0.374200  1.0
  H  H571  1  0.575900  0.199100  0.625800  1.0
  H  H572  1  0.424100  0.800900  0.125800  1.0
  H  H573  1  0.924100  0.699100  0.874200  1.0
  H  H574  1  0.075900  0.300900  0.374200  1.0
  H  H575  1  0.075900  0.699100  0.625800  1.0
  H  H576  1  0.924100  0.300900  0.125800  1.0
  H  H577  1  0.385300  0.253300  0.855600  1.0
  H  H578  1  0.614700  0.746700  0.355600  1.0
  H  H579  1  0.614700  0.253300  0.644400  1.0
  H  H580  1  0.385300  0.746700  0.144400  1.0
  H  H581  1  0.885300  0.753300  0.855600  1.0
  H  H582  1  0.114700  0.246700  0.355600  1.0
  H  H583  1  0.114700  0.753300  0.644400  1.0
  H  H584  1  0.885300  0.246700  0.144400  1.0
  H  H585  1  0.454000  0.242900  0.843700  1.0
  H  H586  1  0.546000  0.757100  0.343700  1.0
  H  H587  1  0.546000  0.242900  0.656300  1.0
  H  H588  1  0.454000  0.757100  0.156300  1.0
  H  H589  1  0.954000  0.742900  0.843700  1.0
  H  H590  1  0.046000  0.257100  0.343700  1.0
  H  H591  1  0.046000  0.742900  0.656300  1.0
  H  H592  1  0.954000  0.257100  0.156300  1.0
  H  H593  1  0.454600  0.305200  0.862600  1.0
  H  H594  1  0.545400  0.694800  0.362600  1.0
  H  H595  1  0.545400  0.305200  0.637400  1.0
  H  H596  1  0.454600  0.694800  0.137400  1.0
  H  H597  1  0.954600  0.805200  0.862600  1.0
  H  H598  1  0.045400  0.194800  0.362600  1.0
  H  H599  1  0.045400  0.805200  0.637400  1.0
  H  H600  1  0.954600  0.194800  0.137400  1.0
  H  H601  1  0.506000  0.281300  0.872800  1.0
  H  H602  1  0.494000  0.718700  0.372800  1.0
  H  H603  1  0.494000  0.281300  0.627200  1.0
  H  H604  1  0.506000  0.718700  0.127200  1.0
  H  H605  1  0.006000  0.781300  0.872800  1.0
  H  H606  1  0.994000  0.218700  0.372800  1.0
  H  H607  1  0.994000  0.781300  0.627200  1.0
  H  H608  1  0.006000  0.218700  0.127200  1.0
  H  H609  1  0.233500  0.616600  0.867800  1.0
  H  H610  1  0.766500  0.383400  0.367800  1.0
  H  H611  1  0.766500  0.616600  0.632200  1.0
  H  H612  1  0.233500  0.383400  0.132200  1.0
  H  H613  1  0.733500  0.116600  0.867800  1.0
  H  H614  1  0.266500  0.883400  0.367800  1.0
  H  H615  1  0.266500  0.116600  0.632200  1.0
  H  H616  1  0.733500  0.883400  0.132200  1.0
  H  H617  1  0.170700  0.605100  0.878500  1.0
  H  H618  1  0.829300  0.394900  0.378500  1.0
  H  H619  1  0.829300  0.605100  0.621500  1.0
  H  H620  1  0.170700  0.394900  0.121500  1.0
  H  H621  1  0.670700  0.105100  0.878500  1.0
  H  H622  1  0.329300  0.894900  0.378500  1.0
  H  H623  1  0.329300  0.105100  0.621500  1.0
  H  H624  1  0.670700  0.894900  0.121500  1.0
  H  H625  1  0.192600  0.682400  0.861300  1.0
  H  H626  1  0.807400  0.317600  0.361300  1.0
  H  H627  1  0.807400  0.682400  0.638700  1.0
  H  H628  1  0.192600  0.317600  0.138700  1.0
  H  H629  1  0.692600  0.182400  0.861300  1.0
  H  H630  1  0.307400  0.817600  0.361300  1.0
  H  H631  1  0.307400  0.182400  0.638700  1.0
  H  H632  1  0.692600  0.817600  0.138700  1.0
  H  H633  1  0.144700  0.654700  0.847000  1.0
  H  H634  1  0.855300  0.345300  0.347000  1.0
  H  H635  1  0.855300  0.654700  0.653000  1.0
  H  H636  1  0.144700  0.345300  0.153000  1.0
  H  H637  1  0.644700  0.154700  0.847000  1.0
  H  H638  1  0.355300  0.845300  0.347000  1.0
  H  H639  1  0.355300  0.154700  0.653000  1.0
  H  H640  1  0.644700  0.845300  0.153000  1.0
  H  H641  1  0.084900  0.647900  0.883800  1.0
  H  H642  1  0.915100  0.352100  0.383800  1.0
  H  H643  1  0.915100  0.647900  0.616200  1.0
  H  H644  1  0.084900  0.352100  0.116200  1.0
  H  H645  1  0.584900  0.147900  0.883800  1.0
  H  H646  1  0.415100  0.852100  0.383800  1.0
  H  H647  1  0.415100  0.147900  0.616200  1.0
  H  H648  1  0.584900  0.852100  0.116200  1.0
  H  H649  1  0.085700  0.690700  0.875200  1.0
  H  H650  1  0.914300  0.309300  0.375200  1.0
  H  H651  1  0.914300  0.690700  0.624800  1.0
  H  H652  1  0.085700  0.309300  0.124800  1.0
  H  H653  1  0.585700  0.190700  0.875200  1.0
  H  H654  1  0.414300  0.809300  0.375200  1.0
  H  H655  1  0.414300  0.190700  0.624800  1.0
  H  H656  1  0.585700  0.809300  0.124800  1.0
  H  H657  1  0.127800  0.679400  0.917400  1.0
  H  H658  1  0.872200  0.320600  0.417400  1.0
  H  H659  1  0.872200  0.679400  0.582600  1.0
  H  H660  1  0.127800  0.320600  0.082600  1.0
  H  H661  1  0.627800  0.179400  0.917400  1.0
  H  H662  1  0.372200  0.820600  0.417400  1.0
  H  H663  1  0.372200  0.179400  0.582600  1.0
  H  H664  1  0.627800  0.820600  0.082600  1.0
  H  H665  1  0.169800  0.703200  0.902000  1.0
  H  H666  1  0.830200  0.296800  0.402000  1.0
  H  H667  1  0.830200  0.703200  0.598000  1.0
  H  H668  1  0.169800  0.296800  0.098000  1.0
  H  H669  1  0.669800  0.203200  0.902000  1.0
  H  H670  1  0.330200  0.796800  0.402000  1.0
  H  H671  1  0.330200  0.203200  0.598000  1.0
  H  H672  1  0.669800  0.796800  0.098000  1.0
  H  H673  1  0.912300  0.508400  0.903700  1.0
  H  H674  1  0.087700  0.491600  0.403700  1.0
  H  H675  1  0.087700  0.508400  0.596300  1.0
  H  H676  1  0.912300  0.491600  0.096300  1.0
  H  H677  1  0.412300  0.008400  0.903700  1.0
  H  H678  1  0.587700  0.991600  0.403700  1.0
  H  H679  1  0.587700  0.008400  0.596300  1.0
  H  H680  1  0.412300  0.991600  0.096300  1.0
  H  H681  1  0.888900  0.469000  0.913500  1.0
  H  H682  1  0.111100  0.531000  0.413500  1.0
  H  H683  1  0.111100  0.469000  0.586500  1.0
  H  H684  1  0.888900  0.531000  0.086500  1.0
  H  H685  1  0.388900  0.969000  0.913500  1.0
  H  H686  1  0.611100  0.031000  0.413500  1.0
  H  H687  1  0.611100  0.969000  0.586500  1.0
  H  H688  1  0.388900  0.031000  0.086500  1.0
  H  H689  1  0.961500  0.481700  0.917600  1.0
  H  H690  1  0.038500  0.518300  0.417600  1.0
  H  H691  1  0.038500  0.481700  0.582400  1.0
  H  H692  1  0.961500  0.518300  0.082400  1.0
  H  H693  1  0.461500  0.981700  0.917600  1.0
  H  H694  1  0.538500  0.018300  0.417600  1.0
  H  H695  1  0.538500  0.981700  0.582400  1.0
  H  H696  1  0.461500  0.018300  0.082400  1.0
  H  H697  1  0.904900  0.468200  0.965500  1.0
  H  H698  1  0.095100  0.531800  0.465500  1.0
  H  H699  1  0.095100  0.468200  0.534500  1.0
  H  H700  1  0.904900  0.531800  0.034500  1.0
  H  H701  1  0.404900  0.968200  0.965500  1.0
  H  H702  1  0.595100  0.031800  0.465500  1.0
  H  H703  1  0.595100  0.968200  0.534500  1.0
  H  H704  1  0.404900  0.031800  0.034500  1.0
  H  H705  1  0.834600  0.562100  0.997600  1.0
  H  H706  1  0.165400  0.437900  0.497600  1.0
  H  H707  1  0.165400  0.562100  0.502400  1.0
  H  H708  1  0.834600  0.437900  0.002400  1.0
  H  H709  1  0.334600  0.062100  0.997600  1.0
  H  H710  1  0.665400  0.937900  0.497600  1.0
  H  H711  1  0.665400  0.062100  0.502400  1.0
  H  H712  1  0.334600  0.937900  0.002400  1.0
  H  H713  1  0.815900  0.617000  0.971400  1.0
  H  H714  1  0.184100  0.383000  0.471400  1.0
  H  H715  1  0.184100  0.617000  0.528600  1.0
  H  H716  1  0.815900  0.383000  0.028600  1.0
  H  H717  1  0.315900  0.117000  0.971400  1.0
  H  H718  1  0.684100  0.883000  0.471400  1.0
  H  H719  1  0.684100  0.117000  0.528600  1.0
  H  H720  1  0.315900  0.883000  0.028600  1.0
  H  H721  1  0.778800  0.599500  0.948600  1.0
  H  H722  1  0.221200  0.400500  0.448600  1.0
  H  H723  1  0.221200  0.599500  0.551400  1.0
  H  H724  1  0.778800  0.400500  0.051400  1.0
  H  H725  1  0.278800  0.099500  0.948600  1.0
  H  H726  1  0.721200  0.900500  0.448600  1.0
  H  H727  1  0.721200  0.099500  0.551400  1.0
  H  H728  1  0.278800  0.900500  0.051400  1.0
  H  H729  1  0.848000  0.617600  0.944800  1.0
  H  H730  1  0.152000  0.382400  0.444800  1.0
  H  H731  1  0.152000  0.617600  0.555200  1.0
  H  H732  1  0.848000  0.382400  0.055200  1.0
  H  H733  1  0.348000  0.117600  0.944800  1.0
  H  H734  1  0.652000  0.882400  0.444800  1.0
  H  H735  1  0.652000  0.117600  0.555200  1.0
  H  H736  1  0.348000  0.882400  0.055200  1.0
  H  H737  1  0.953300  0.597100  0.919800  1.0
  H  H738  1  0.046700  0.402900  0.419800  1.0
  H  H739  1  0.046700  0.597100  0.580200  1.0
  H  H740  1  0.953300  0.402900  0.080200  1.0
  H  H741  1  0.453300  0.097100  0.919800  1.0
  H  H742  1  0.546700  0.902900  0.419800  1.0
  H  H743  1  0.546700  0.097100  0.580200  1.0
  H  H744  1  0.453300  0.902900  0.080200  1.0
  H  H745  1  0.970900  0.565400  0.903500  1.0
  H  H746  1  0.029100  0.434600  0.403500  1.0
  H  H747  1  0.029100  0.565400  0.596500  1.0
  H  H748  1  0.970900  0.434600  0.096500  1.0
  H  H749  1  0.470900  0.065400  0.903500  1.0
  H  H750  1  0.529100  0.934600  0.403500  1.0
  H  H751  1  0.529100  0.065400  0.596500  1.0
  H  H752  1  0.470900  0.934600  0.096500  1.0
  H  H753  1  0.930400  0.638400  0.886500  1.0
  H  H754  1  0.069600  0.361600  0.386500  1.0
  H  H755  1  0.069600  0.638400  0.613500  1.0
  H  H756  1  0.930400  0.361600  0.113500  1.0
  H  H757  1  0.430400  0.138400  0.886500  1.0
  H  H758  1  0.569600  0.861600  0.386500  1.0
  H  H759  1  0.569600  0.138400  0.613500  1.0
  H  H760  1  0.430400  0.861600  0.113500  1.0
  H  H761  1  0.987200  0.614800  0.874500  1.0
  H  H762  1  0.012800  0.385200  0.374500  1.0
  H  H763  1  0.012800  0.614800  0.625500  1.0
  H  H764  1  0.987200  0.385200  0.125500  1.0
  H  H765  1  0.487200  0.114800  0.874500  1.0
  H  H766  1  0.512800  0.885200  0.374500  1.0
  H  H767  1  0.512800  0.114800  0.625500  1.0
  H  H768  1  0.487200  0.885200  0.125500  1.0
  H  H769  1  0.917700  0.578000  0.854600  1.0
  H  H770  1  0.082300  0.422000  0.354600  1.0
  H  H771  1  0.082300  0.578000  0.645400  1.0
  H  H772  1  0.917700  0.422000  0.145400  1.0
  H  H773  1  0.417700  0.078000  0.854600  1.0
  H  H774  1  0.582300  0.922000  0.354600  1.0
  H  H775  1  0.582300  0.078000  0.645400  1.0
  H  H776  1  0.417700  0.922000  0.145400  1.0
  H  H777  1  0.890400  0.619400  0.850800  1.0
  H  H778  1  0.109600  0.380600  0.350800  1.0
  H  H779  1  0.109600  0.619400  0.649200  1.0
  H  H780  1  0.890400  0.380600  0.149200  1.0
  H  H781  1  0.390400  0.119400  0.850800  1.0
  H  H782  1  0.609600  0.880600  0.350800  1.0
  H  H783  1  0.609600  0.119400  0.649200  1.0
  H  H784  1  0.390400  0.880600  0.149200  1.0
  H  H785  1  0.813200  0.576100  0.869400  1.0
  H  H786  1  0.186800  0.423900  0.369400  1.0
  H  H787  1  0.186800  0.576100  0.630600  1.0
  H  H788  1  0.813200  0.423900  0.130600  1.0
  H  H789  1  0.313200  0.076100  0.869400  1.0
  H  H790  1  0.686800  0.923900  0.369400  1.0
  H  H791  1  0.686800  0.076100  0.630600  1.0
  H  H792  1  0.313200  0.923900  0.130600  1.0
  H  H793  1  0.819000  0.611800  0.882400  1.0
  H  H794  1  0.181000  0.388200  0.382400  1.0
  H  H795  1  0.181000  0.611800  0.617600  1.0
  H  H796  1  0.819000  0.388200  0.117600  1.0
  H  H797  1  0.319000  0.111800  0.882400  1.0
  H  H798  1  0.681000  0.888200  0.382400  1.0
  H  H799  1  0.681000  0.111800  0.617600  1.0
  H  H800  1  0.319000  0.888200  0.117600  1.0
  H  H801  1  0.752600  0.428100  0.849500  1.0
  H  H802  1  0.247400  0.571900  0.349500  1.0
  H  H803  1  0.247400  0.428100  0.650500  1.0
  H  H804  1  0.752600  0.571900  0.150500  1.0
  H  H805  1  0.252600  0.928100  0.849500  1.0
  H  H806  1  0.747400  0.071900  0.349500  1.0
  H  H807  1  0.747400  0.928100  0.650500  1.0
  H  H808  1  0.252600  0.071900  0.150500  1.0
  H  H809  1  0.673700  0.478100  0.845900  1.0
  H  H810  1  0.326300  0.521900  0.345900  1.0
  H  H811  1  0.326300  0.478100  0.654100  1.0
  H  H812  1  0.673700  0.521900  0.154100  1.0
  H  H813  1  0.173700  0.978100  0.845900  1.0
  H  H814  1  0.826300  0.021900  0.345900  1.0
  H  H815  1  0.826300  0.978100  0.654100  1.0
  H  H816  1  0.173700  0.021900  0.154100  1.0
  H  H817  1  0.526400  0.394400  0.844600  1.0
  H  H818  1  0.473600  0.605600  0.344600  1.0
  H  H819  1  0.473600  0.394400  0.655400  1.0
  H  H820  1  0.526400  0.605600  0.155400  1.0
  H  H821  1  0.026400  0.894400  0.844600  1.0
  H  H822  1  0.973600  0.105600  0.344600  1.0
  H  H823  1  0.973600  0.894400  0.655400  1.0
  H  H824  1  0.026400  0.105600  0.155400  1.0
  H  H825  1  0.619900  0.353600  0.843400  1.0
  H  H826  1  0.380100  0.646400  0.343400  1.0
  H  H827  1  0.380100  0.353600  0.656600  1.0
  H  H828  1  0.619900  0.646400  0.156600  1.0
  H  H829  1  0.119900  0.853600  0.843400  1.0
  H  H830  1  0.880100  0.146400  0.343400  1.0
  H  H831  1  0.880100  0.853600  0.656600  1.0
  H  H832  1  0.119900  0.146400  0.156600  1.0
  H  H833  1  0.480000  0.660100  0.848100  1.0
  H  H834  1  0.520000  0.339900  0.348100  1.0
  H  H835  1  0.520000  0.660100  0.651900  1.0
  H  H836  1  0.480000  0.339900  0.151900  1.0
  H  H837  1  0.980000  0.160100  0.848100  1.0
  H  H838  1  0.020000  0.839900  0.348100  1.0
  H  H839  1  0.020000  0.160100  0.651900  1.0
  H  H840  1  0.980000  0.839900  0.151900  1.0
  H  H841  1  0.443800  0.594200  0.848300  1.0
  H  H842  1  0.556200  0.405800  0.348300  1.0
  H  H843  1  0.556200  0.594200  0.651700  1.0
  H  H844  1  0.443800  0.405800  0.151700  1.0
  H  H845  1  0.943800  0.094200  0.848300  1.0
  H  H846  1  0.056200  0.905800  0.348300  1.0
  H  H847  1  0.056200  0.094200  0.651700  1.0
  H  H848  1  0.943800  0.905800  0.151700  1.0
  H  H849  1  0.631000  0.565300  0.845100  1.0
  H  H850  1  0.369000  0.434700  0.345100  1.0
  H  H851  1  0.369000  0.565300  0.654900  1.0
  H  H852  1  0.631000  0.434700  0.154900  1.0
  H  H853  1  0.131000  0.065300  0.845100  1.0
  H  H854  1  0.869000  0.934700  0.345100  1.0
  H  H855  1  0.869000  0.065300  0.654900  1.0
  H  H856  1  0.131000  0.934700  0.154900  1.0
  H  H857  1  0.660300  0.631400  0.850100  1.0
  H  H858  1  0.339700  0.368600  0.350100  1.0
  H  H859  1  0.339700  0.631400  0.649900  1.0
  H  H860  1  0.660300  0.368600  0.149900  1.0
  H  H861  1  0.160300  0.131400  0.850100  1.0
  H  H862  1  0.839700  0.868600  0.350100  1.0
  H  H863  1  0.839700  0.131400  0.649900  1.0
  H  H864  1  0.160300  0.868600  0.149900  1.0
  H  H865  1  0.267500  0.409000  0.851100  1.0
  H  H866  1  0.732500  0.591000  0.351100  1.0
  H  H867  1  0.732500  0.409000  0.648900  1.0
  H  H868  1  0.267500  0.591000  0.148900  1.0
  H  H869  1  0.767500  0.909000  0.851100  1.0
  H  H870  1  0.232500  0.091000  0.351100  1.0
  H  H871  1  0.232500  0.909000  0.648900  1.0
  H  H872  1  0.767500  0.091000  0.148900  1.0
  H  H873  1  0.378800  0.425300  0.842700  1.0
  H  H874  1  0.621200  0.574700  0.342700  1.0
  H  H875  1  0.621200  0.425300  0.657300  1.0
  H  H876  1  0.378800  0.574700  0.157300  1.0
  H  H877  1  0.878800  0.925300  0.842700  1.0
  H  H878  1  0.121200  0.074700  0.342700  1.0
  H  H879  1  0.121200  0.925300  0.657300  1.0
  H  H880  1  0.878800  0.074700  0.157300  1.0
  H  H881  1  0.331600  0.539200  0.844200  1.0
  H  H882  1  0.668400  0.460800  0.344200  1.0
  H  H883  1  0.668400  0.539200  0.655800  1.0
  H  H884  1  0.331600  0.460800  0.155800  1.0
  H  H885  1  0.831600  0.039200  0.844200  1.0
  H  H886  1  0.168400  0.960800  0.344200  1.0
  H  H887  1  0.168400  0.039200  0.655800  1.0
  H  H888  1  0.831600  0.960800  0.155800  1.0
  H  H889  1  0.217800  0.516000  0.846500  1.0
  H  H890  1  0.782200  0.484000  0.346500  1.0
  H  H891  1  0.782200  0.516000  0.653500  1.0
  H  H892  1  0.217800  0.484000  0.153500  1.0
  H  H893  1  0.717800  0.016000  0.846500  1.0
  H  H894  1  0.282200  0.984000  0.346500  1.0
  H  H895  1  0.282200  0.016000  0.653500  1.0
  H  H896  1  0.717800  0.984000  0.153500  1.0
  H  H897  1  0.674200  0.696700  0.818900  1.0
  H  H898  1  0.325800  0.303300  0.318900  1.0
  H  H899  1  0.325800  0.696700  0.681100  1.0
  H  H900  1  0.674200  0.303300  0.181100  1.0
  H  H901  1  0.174200  0.196700  0.818900  1.0
  H  H902  1  0.825800  0.803300  0.318900  1.0
  H  H903  1  0.825800  0.196700  0.681100  1.0
  H  H904  1  0.174200  0.803300  0.181100  1.0
  H  H905  1  0.701900  0.706100  0.792400  1.0
  H  H906  1  0.298100  0.293900  0.292400  1.0
  H  H907  1  0.298100  0.706100  0.707600  1.0
  H  H908  1  0.701900  0.293900  0.207600  1.0
  H  H909  1  0.201900  0.206100  0.792400  1.0
  H  H910  1  0.798100  0.793900  0.292400  1.0
  H  H911  1  0.798100  0.206100  0.707600  1.0
  H  H912  1  0.201900  0.793900  0.207600  1.0
  H  H913  1  0.683800  0.664400  0.799300  1.0
  H  H914  1  0.316200  0.335600  0.299300  1.0
  H  H915  1  0.316200  0.664400  0.700700  1.0
  H  H916  1  0.683800  0.335600  0.200700  1.0
  H  H917  1  0.183800  0.164400  0.799300  1.0
  H  H918  1  0.816200  0.835600  0.299300  1.0
  H  H919  1  0.816200  0.164400  0.700700  1.0
  H  H920  1  0.183800  0.835600  0.200700  1.0
  H  H921  1  0.598700  0.684100  0.756100  1.0
  H  H922  1  0.401300  0.315900  0.256100  1.0
  H  H923  1  0.401300  0.684100  0.743900  1.0
  H  H924  1  0.598700  0.315900  0.243900  1.0
  H  H925  1  0.098700  0.184100  0.756100  1.0
  H  H926  1  0.901300  0.815900  0.256100  1.0
  H  H927  1  0.901300  0.184100  0.743900  1.0
  H  H928  1  0.098700  0.815900  0.243900  1.0
  H  H929  1  0.437300  0.730100  0.782000  1.0
  H  H930  1  0.562700  0.269900  0.282000  1.0
  H  H931  1  0.562700  0.730100  0.718000  1.0
  H  H932  1  0.437300  0.269900  0.218000  1.0
  H  H933  1  0.937300  0.230100  0.782000  1.0
  H  H934  1  0.062700  0.769900  0.282000  1.0
  H  H935  1  0.062700  0.230100  0.718000  1.0
  H  H936  1  0.937300  0.769900  0.218000  1.0
  H  H937  1  0.414900  0.737300  0.818800  1.0
  H  H938  1  0.585100  0.262700  0.318800  1.0
  H  H939  1  0.585100  0.737300  0.681200  1.0
  H  H940  1  0.414900  0.262700  0.181200  1.0
  H  H941  1  0.914900  0.237300  0.818800  1.0
  H  H942  1  0.085100  0.762700  0.318800  1.0
  H  H943  1  0.085100  0.237300  0.681200  1.0
  H  H944  1  0.914900  0.762700  0.181200  1.0
  H  H945  1  0.473700  0.749400  0.835700  1.0
  H  H946  1  0.526300  0.250600  0.335700  1.0
  H  H947  1  0.526300  0.749400  0.664300  1.0
  H  H948  1  0.473700  0.250600  0.164300  1.0
  H  H949  1  0.973700  0.249400  0.835700  1.0
  H  H950  1  0.026300  0.750600  0.335700  1.0
  H  H951  1  0.026300  0.249400  0.664300  1.0
  H  H952  1  0.973700  0.750600  0.164300  1.0
  H  H953  1  0.448300  0.707700  0.836400  1.0
  H  H954  1  0.551700  0.292300  0.336400  1.0
  H  H955  1  0.551700  0.707700  0.663600  1.0
  H  H956  1  0.448300  0.292300  0.163600  1.0
  H  H957  1  0.948300  0.207700  0.836400  1.0
  H  H958  1  0.051700  0.792300  0.336400  1.0
  H  H959  1  0.051700  0.207700  0.663600  1.0
  H  H960  1  0.948300  0.792300  0.163600  1.0
  H  H961  1  0.650600  0.763500  0.837000  1.0
  H  H962  1  0.349400  0.236500  0.337000  1.0
  H  H963  1  0.349400  0.763500  0.663000  1.0
  H  H964  1  0.650600  0.236500  0.163000  1.0
  H  H965  1  0.150600  0.263500  0.837000  1.0
  H  H966  1  0.849400  0.736500  0.337000  1.0
  H  H967  1  0.849400  0.263500  0.663000  1.0
  H  H968  1  0.150600  0.736500  0.163000  1.0
  H  H969  1  0.585200  0.773000  0.845800  1.0
  H  H970  1  0.414800  0.227000  0.345800  1.0
  H  H971  1  0.414800  0.773000  0.654200  1.0
  H  H972  1  0.585200  0.227000  0.154200  1.0
  H  H973  1  0.085200  0.273000  0.845800  1.0
  H  H974  1  0.914800  0.727000  0.345800  1.0
  H  H975  1  0.914800  0.273000  0.654200  1.0
  H  H976  1  0.085200  0.727000  0.154200  1.0
  H  H977  1  0.697500  0.765200  0.876900  1.0
  H  H978  1  0.302500  0.234800  0.376900  1.0
  H  H979  1  0.302500  0.765200  0.623100  1.0
  H  H980  1  0.697500  0.234800  0.123100  1.0
  H  H981  1  0.197500  0.265200  0.876900  1.0
  H  H982  1  0.802500  0.734800  0.376900  1.0
  H  H983  1  0.802500  0.265200  0.623100  1.0
  H  H984  1  0.197500  0.734800  0.123100  1.0
  H  H985  1  0.638400  0.792400  0.882300  1.0
  H  H986  1  0.361600  0.207600  0.382300  1.0
  H  H987  1  0.361600  0.792400  0.617700  1.0
  H  H988  1  0.638400  0.207600  0.117700  1.0
  H  H989  1  0.138400  0.292400  0.882300  1.0
  H  H990  1  0.861600  0.707600  0.382300  1.0
  H  H991  1  0.861600  0.292400  0.617700  1.0
  H  H992  1  0.138400  0.707600  0.117700  1.0
  H  H993  1  0.578100  0.745500  0.896800  1.0
  H  H994  1  0.421900  0.254500  0.396800  1.0
  H  H995  1  0.421900  0.745500  0.603200  1.0
  H  H996  1  0.578100  0.254500  0.103200  1.0
  H  H997  1  0.078100  0.245500  0.896800  1.0
  H  H998  1  0.921900  0.754500  0.396800  1.0
  H  H999  1  0.921900  0.245500  0.603200  1.0
  H  H1000  1  0.078100  0.754500  0.103200  1.0
  H  H1001  1  0.647500  0.740700  0.909400  1.0
  H  H1002  1  0.352500  0.259300  0.409400  1.0
  H  H1003  1  0.352500  0.740700  0.590600  1.0
  H  H1004  1  0.647500  0.259300  0.090600  1.0
  H  H1005  1  0.147500  0.240700  0.909400  1.0
  H  H1006  1  0.852500  0.759300  0.409400  1.0
  H  H1007  1  0.852500  0.240700  0.590600  1.0
  H  H1008  1  0.147500  0.759300  0.090600  1.0
  H  H1009  1  0.613900  0.684600  0.888600  1.0
  H  H1010  1  0.386100  0.315400  0.388600  1.0
  H  H1011  1  0.386100  0.684600  0.611400  1.0
  H  H1012  1  0.613900  0.315400  0.111400  1.0
  H  H1013  1  0.113900  0.184600  0.888600  1.0
  H  H1014  1  0.886100  0.815400  0.388600  1.0
  H  H1015  1  0.886100  0.184600  0.611400  1.0
  H  H1016  1  0.113900  0.815400  0.111400  1.0
  H  H1017  1  0.676300  0.697900  0.878800  1.0
  H  H1018  1  0.323700  0.302100  0.378800  1.0
  H  H1019  1  0.323700  0.697900  0.621200  1.0
  H  H1020  1  0.676300  0.302100  0.121200  1.0
  H  H1021  1  0.176300  0.197900  0.878800  1.0
  H  H1022  1  0.823700  0.802100  0.378800  1.0
  H  H1023  1  0.823700  0.197900  0.621200  1.0
  H  H1024  1  0.176300  0.802100  0.121200  1.0
  H  H1025  1  0.698700  0.320900  0.817100  1.0
  H  H1026  1  0.301300  0.679100  0.317100  1.0
  H  H1027  1  0.301300  0.320900  0.682900  1.0
  H  H1028  1  0.698700  0.679100  0.182900  1.0
  H  H1029  1  0.198700  0.820900  0.817100  1.0
  H  H1030  1  0.801300  0.179100  0.317100  1.0
  H  H1031  1  0.801300  0.820900  0.682900  1.0
  H  H1032  1  0.198700  0.179100  0.182900  1.0
  H  H1033  1  0.697100  0.302000  0.790700  1.0
  H  H1034  1  0.302900  0.698000  0.290700  1.0
  H  H1035  1  0.302900  0.302000  0.709300  1.0
  H  H1036  1  0.697100  0.698000  0.209300  1.0
  H  H1037  1  0.197100  0.802000  0.790700  1.0
  H  H1038  1  0.802900  0.198000  0.290700  1.0
  H  H1039  1  0.802900  0.802000  0.709300  1.0
  H  H1040  1  0.197100  0.198000  0.209300  1.0
  H  H1041  1  0.653600  0.337400  0.796100  1.0
  H  H1042  1  0.346400  0.662600  0.296100  1.0
  H  H1043  1  0.346400  0.337400  0.703900  1.0
  H  H1044  1  0.653600  0.662600  0.203900  1.0
  H  H1045  1  0.153600  0.837400  0.796100  1.0
  H  H1046  1  0.846400  0.162600  0.296100  1.0
  H  H1047  1  0.846400  0.837400  0.703900  1.0
  H  H1048  1  0.153600  0.162600  0.203900  1.0
  H  H1049  1  0.724100  0.356800  0.754800  1.0
  H  H1050  1  0.275900  0.643200  0.254800  1.0
  H  H1051  1  0.275900  0.356800  0.745200  1.0
  H  H1052  1  0.724100  0.643200  0.245200  1.0
  H  H1053  1  0.224100  0.856800  0.754800  1.0
  H  H1054  1  0.775900  0.143200  0.254800  1.0
  H  H1055  1  0.775900  0.856800  0.745200  1.0
  H  H1056  1  0.224100  0.143200  0.245200  1.0
  H  H1057  1  0.872300  0.421900  0.787100  1.0
  H  H1058  1  0.127700  0.578100  0.287100  1.0
  H  H1059  1  0.127700  0.421900  0.712900  1.0
  H  H1060  1  0.872300  0.578100  0.212900  1.0
  H  H1061  1  0.372300  0.921900  0.787100  1.0
  H  H1062  1  0.627700  0.078100  0.287100  1.0
  H  H1063  1  0.627700  0.921900  0.712900  1.0
  H  H1064  1  0.372300  0.078100  0.212900  1.0
  H  H1065  1  0.903100  0.421200  0.816500  1.0
  H  H1066  1  0.096900  0.578800  0.316500  1.0
  H  H1067  1  0.096900  0.421200  0.683500  1.0
  H  H1068  1  0.903100  0.578800  0.183500  1.0
  H  H1069  1  0.403100  0.921200  0.816500  1.0
  H  H1070  1  0.596900  0.078800  0.316500  1.0
  H  H1071  1  0.596900  0.921200  0.683500  1.0
  H  H1072  1  0.403100  0.078800  0.183500  1.0
  H  H1073  1  0.891300  0.388300  0.835600  1.0
  H  H1074  1  0.108700  0.611700  0.335600  1.0
  H  H1075  1  0.108700  0.388300  0.664400  1.0
  H  H1076  1  0.891300  0.611700  0.164400  1.0
  H  H1077  1  0.391300  0.888300  0.835600  1.0
  H  H1078  1  0.608700  0.111700  0.335600  1.0
  H  H1079  1  0.608700  0.888300  0.664400  1.0
  H  H1080  1  0.391300  0.111700  0.164400  1.0
  H  H1081  1  0.844800  0.423500  0.835400  1.0
  H  H1082  1  0.155200  0.576500  0.335400  1.0
  H  H1083  1  0.155200  0.423500  0.664600  1.0
  H  H1084  1  0.844800  0.576500  0.164600  1.0
  H  H1085  1  0.344800  0.923500  0.835400  1.0
  H  H1086  1  0.655200  0.076500  0.335400  1.0
  H  H1087  1  0.655200  0.923500  0.664600  1.0
  H  H1088  1  0.344800  0.076500  0.164600  1.0
  H  H1089  1  0.813900  0.290600  0.838000  1.0
  H  H1090  1  0.186100  0.709400  0.338000  1.0
  H  H1091  1  0.186100  0.290600  0.662000  1.0
  H  H1092  1  0.813900  0.709400  0.162000  1.0
  H  H1093  1  0.313900  0.790600  0.838000  1.0
  H  H1094  1  0.686100  0.209400  0.338000  1.0
  H  H1095  1  0.686100  0.790600  0.662000  1.0
  H  H1096  1  0.313900  0.209400  0.162000  1.0
  H  H1097  1  0.864100  0.319400  0.840500  1.0
  H  H1098  1  0.135900  0.680600  0.340500  1.0
  H  H1099  1  0.135900  0.319400  0.659500  1.0
  H  H1100  1  0.864100  0.680600  0.159500  1.0
  H  H1101  1  0.364100  0.819400  0.840500  1.0
  H  H1102  1  0.635900  0.180600  0.340500  1.0
  H  H1103  1  0.635900  0.819400  0.659500  1.0
  H  H1104  1  0.364100  0.180600  0.159500  1.0
  H  H1105  1  0.732700  0.354200  0.891400  1.0
  H  H1106  1  0.267300  0.645800  0.391400  1.0
  H  H1107  1  0.267300  0.354200  0.608600  1.0
  H  H1108  1  0.732700  0.645800  0.108600  1.0
  H  H1109  1  0.232700  0.854200  0.891400  1.0
  H  H1110  1  0.767300  0.145800  0.391400  1.0
  H  H1111  1  0.767300  0.854200  0.608600  1.0
  H  H1112  1  0.232700  0.145800  0.108600  1.0
  H  H1113  1  0.711300  0.317200  0.883100  1.0
  H  H1114  1  0.288700  0.682800  0.383100  1.0
  H  H1115  1  0.288700  0.317200  0.616900  1.0
  H  H1116  1  0.711300  0.682800  0.116900  1.0
  H  H1117  1  0.211300  0.817200  0.883100  1.0
  H  H1118  1  0.788700  0.182800  0.383100  1.0
  H  H1119  1  0.788700  0.817200  0.616900  1.0
  H  H1120  1  0.211300  0.182800  0.116900  1.0
  H  H1121  1  0.138500  0.490000  0.816800  1.0
  H  H1122  1  0.861500  0.510000  0.316800  1.0
  H  H1123  1  0.861500  0.490000  0.683200  1.0
  H  H1124  1  0.138500  0.510000  0.183200  1.0
  H  H1125  1  0.638500  0.990000  0.816800  1.0
  H  H1126  1  0.361500  0.010000  0.316800  1.0
  H  H1127  1  0.361500  0.990000  0.683200  1.0
  H  H1128  1  0.638500  0.010000  0.183200  1.0
  H  H1129  1  0.111500  0.502600  0.790700  1.0
  H  H1130  1  0.888500  0.497400  0.290700  1.0
  H  H1131  1  0.888500  0.502600  0.709300  1.0
  H  H1132  1  0.111500  0.497400  0.209300  1.0
  H  H1133  1  0.611500  0.002600  0.790700  1.0
  H  H1134  1  0.388500  0.997400  0.290700  1.0
  H  H1135  1  0.388500  0.002600  0.709300  1.0
  H  H1136  1  0.611500  0.997400  0.209300  1.0
  H  H1137  1  0.187000  0.502800  0.795800  1.0
  H  H1138  1  0.813000  0.497200  0.295800  1.0
  H  H1139  1  0.813000  0.502800  0.704200  1.0
  H  H1140  1  0.187000  0.497200  0.204200  1.0
  H  H1141  1  0.687000  0.002800  0.795800  1.0
  H  H1142  1  0.313000  0.997200  0.295800  1.0
  H  H1143  1  0.313000  0.002800  0.704200  1.0
  H  H1144  1  0.687000  0.997200  0.204200  1.0
  H  H1145  1  0.166400  0.460300  0.755100  1.0
  H  H1146  1  0.833600  0.539700  0.255100  1.0
  H  H1147  1  0.833600  0.460300  0.744900  1.0
  H  H1148  1  0.166400  0.539700  0.244900  1.0
  H  H1149  1  0.666400  0.960300  0.755100  1.0
  H  H1150  1  0.333600  0.039700  0.255100  1.0
  H  H1151  1  0.333600  0.960300  0.744900  1.0
  H  H1152  1  0.666400  0.039700  0.244900  1.0
  H  H1153  1  0.809700  0.353900  0.719000  1.0
  H  H1154  1  0.190300  0.646100  0.219000  1.0
  H  H1155  1  0.190300  0.353900  0.781000  1.0
  H  H1156  1  0.809700  0.646100  0.281000  1.0
  H  H1157  1  0.309700  0.853900  0.719000  1.0
  H  H1158  1  0.690300  0.146100  0.219000  1.0
  H  H1159  1  0.690300  0.853900  0.781000  1.0
  H  H1160  1  0.309700  0.146100  0.281000  1.0
  H  H1161  1  0.180900  0.336800  0.825300  1.0
  H  H1162  1  0.819100  0.663200  0.325300  1.0
  H  H1163  1  0.819100  0.336800  0.674700  1.0
  H  H1164  1  0.180900  0.663200  0.174700  1.0
  H  H1165  1  0.680900  0.836800  0.825300  1.0
  H  H1166  1  0.319100  0.163200  0.325300  1.0
  H  H1167  1  0.319100  0.836800  0.674700  1.0
  H  H1168  1  0.680900  0.163200  0.174700  1.0
  H  H1169  1  0.135800  0.364500  0.840200  1.0
  H  H1170  1  0.864200  0.635500  0.340200  1.0
  H  H1171  1  0.864200  0.364500  0.659800  1.0
  H  H1172  1  0.135800  0.635500  0.159800  1.0
  H  H1173  1  0.635800  0.864500  0.840200  1.0
  H  H1174  1  0.364200  0.135500  0.340200  1.0
  H  H1175  1  0.364200  0.864500  0.659800  1.0
  H  H1176  1  0.635800  0.135500  0.159800  1.0
  H  H1177  1  0.211600  0.370700  0.840000  1.0
  H  H1178  1  0.788400  0.629300  0.340000  1.0
  H  H1179  1  0.788400  0.370700  0.660000  1.0
  H  H1180  1  0.211600  0.629300  0.160000  1.0
  H  H1181  1  0.711600  0.870700  0.840000  1.0
  H  H1182  1  0.288400  0.129300  0.340000  1.0
  H  H1183  1  0.288400  0.870700  0.660000  1.0
  H  H1184  1  0.711600  0.129300  0.160000  1.0
  H  H1185  1  0.020100  0.430900  0.840400  1.0
  H  H1186  1  0.979900  0.569100  0.340400  1.0
  H  H1187  1  0.979900  0.430900  0.659600  1.0
  H  H1188  1  0.020100  0.569100  0.159600  1.0
  H  H1189  1  0.520100  0.930900  0.840400  1.0
  H  H1190  1  0.479900  0.069100  0.340400  1.0
  H  H1191  1  0.479900  0.930900  0.659600  1.0
  H  H1192  1  0.520100  0.069100  0.159600  1.0
  H  H1193  1  0.046100  0.400200  0.856000  1.0
  H  H1194  1  0.953900  0.599800  0.356000  1.0
  H  H1195  1  0.953900  0.400200  0.644000  1.0
  H  H1196  1  0.046100  0.599800  0.144000  1.0
  H  H1197  1  0.546100  0.900200  0.856000  1.0
  H  H1198  1  0.453900  0.099800  0.356000  1.0
  H  H1199  1  0.453900  0.900200  0.644000  1.0
  H  H1200  1  0.546100  0.099800  0.144000  1.0
  H  H1201  1  0.024500  0.476400  0.875200  1.0
  H  H1202  1  0.975500  0.523600  0.375200  1.0
  H  H1203  1  0.975500  0.476400  0.624800  1.0
  H  H1204  1  0.024500  0.523600  0.124800  1.0
  H  H1205  1  0.524500  0.976400  0.875200  1.0
  H  H1206  1  0.475500  0.023600  0.375200  1.0
  H  H1207  1  0.475500  0.976400  0.624800  1.0
  H  H1208  1  0.524500  0.023600  0.124800  1.0
  H  H1209  1  0.986900  0.441100  0.885900  1.0
  H  H1210  1  0.013100  0.558900  0.385900  1.0
  H  H1211  1  0.013100  0.441100  0.614100  1.0
  H  H1212  1  0.986900  0.558900  0.114100  1.0
  H  H1213  1  0.486900  0.941100  0.885900  1.0
  H  H1214  1  0.513100  0.058900  0.385900  1.0
  H  H1215  1  0.513100  0.941100  0.614100  1.0
  H  H1216  1  0.486900  0.058900  0.114100  1.0
  H  H1217  1  0.087400  0.416600  0.898900  1.0
  H  H1218  1  0.912600  0.583400  0.398900  1.0
  H  H1219  1  0.912600  0.416600  0.601100  1.0
  H  H1220  1  0.087400  0.583400  0.101100  1.0
  H  H1221  1  0.587400  0.916600  0.898900  1.0
  H  H1222  1  0.412600  0.083400  0.398900  1.0
  H  H1223  1  0.412600  0.916600  0.601100  1.0
  H  H1224  1  0.587400  0.083400  0.101100  1.0
  H  H1225  1  0.072900  0.456000  0.911900  1.0
  H  H1226  1  0.927100  0.544000  0.411900  1.0
  H  H1227  1  0.927100  0.456000  0.588100  1.0
  H  H1228  1  0.072900  0.544000  0.088100  1.0
  H  H1229  1  0.572900  0.956000  0.911900  1.0
  H  H1230  1  0.427100  0.044000  0.411900  1.0
  H  H1231  1  0.427100  0.956000  0.588100  1.0
  H  H1232  1  0.572900  0.044000  0.088100  1.0
  H  H1233  1  0.172300  0.457100  0.888500  1.0
  H  H1234  1  0.827700  0.542900  0.388500  1.0
  H  H1235  1  0.827700  0.457100  0.611500  1.0
  H  H1236  1  0.172300  0.542900  0.111500  1.0
  H  H1237  1  0.672300  0.957100  0.888500  1.0
  H  H1238  1  0.327700  0.042900  0.388500  1.0
  H  H1239  1  0.327700  0.957100  0.611500  1.0
  H  H1240  1  0.672300  0.042900  0.111500  1.0
  H  H1241  1  0.127500  0.486500  0.880700  1.0
  H  H1242  1  0.872500  0.513500  0.380700  1.0
  H  H1243  1  0.872500  0.486500  0.619300  1.0
  H  H1244  1  0.127500  0.513500  0.119300  1.0
  H  H1245  1  0.627500  0.986500  0.880700  1.0
  H  H1246  1  0.372500  0.013500  0.380700  1.0
  H  H1247  1  0.372500  0.986500  0.619300  1.0
  H  H1248  1  0.627500  0.013500  0.119300  1.0
  Pd  Pd1249  1  0.423930  0.291250  0.906840  1.0
  Pd  Pd1250  1  0.576070  0.708750  0.406840  1.0
  Pd  Pd1251  1  0.576070  0.291250  0.593160  1.0
  Pd  Pd1252  1  0.423930  0.708750  0.093160  1.0
  Pd  Pd1253  1  0.923930  0.791250  0.906840  1.0
  Pd  Pd1254  1  0.076070  0.208750  0.406840  1.0
  Pd  Pd1255  1  0.076070  0.791250  0.593160  1.0
  Pd  Pd1256  1  0.923930  0.208750  0.093160  1.0
  Pd  Pd1257  1  0.224000  0.642140  0.906420  1.0
  Pd  Pd1258  1  0.776000  0.357860  0.406420  1.0
  Pd  Pd1259  1  0.776000  0.642140  0.593580  1.0
  Pd  Pd1260  1  0.224000  0.357860  0.093580  1.0
  Pd  Pd1261  1  0.724000  0.142140  0.906420  1.0
  Pd  Pd1262  1  0.276000  0.857860  0.406420  1.0
  Pd  Pd1263  1  0.276000  0.142140  0.593580  1.0
  Pd  Pd1264  1  0.724000  0.857860  0.093580  1.0
  Pd  Pd1265  1  0.850650  0.566760  0.906510  1.0
  Pd  Pd1266  1  0.149350  0.433240  0.406510  1.0
  Pd  Pd1267  1  0.149350  0.566760  0.593490  1.0
  Pd  Pd1268  1  0.850650  0.433240  0.093490  1.0
  Pd  Pd1269  1  0.350650  0.066760  0.906510  1.0
  Pd  Pd1270  1  0.649350  0.933240  0.406510  1.0
  Pd  Pd1271  1  0.649350  0.066760  0.593490  1.0
  Pd  Pd1272  1  0.350650  0.933240  0.093490  1.0
  Pd  Pd1273  1  0.761420  0.348530  0.847140  1.0
  Pd  Pd1274  1  0.238580  0.651470  0.347140  1.0
  Pd  Pd1275  1  0.238580  0.348530  0.652860  1.0
  Pd  Pd1276  1  0.761420  0.651470  0.152860  1.0
  Pd  Pd1277  1  0.261420  0.848530  0.847140  1.0
  Pd  Pd1278  1  0.738580  0.151470  0.347140  1.0
  Pd  Pd1279  1  0.738580  0.848530  0.652860  1.0
  Pd  Pd1280  1  0.261420  0.151470  0.152860  1.0
  Pd  Pd1281  1  0.141900  0.444850  0.846960  1.0
  Pd  Pd1282  1  0.858100  0.555150  0.346960  1.0
  Pd  Pd1283  1  0.858100  0.444850  0.653040  1.0
  Pd  Pd1284  1  0.141900  0.555150  0.153040  1.0
  Pd  Pd1285  1  0.641900  0.944850  0.846960  1.0
  Pd  Pd1286  1  0.358100  0.055150  0.346960  1.0
  Pd  Pd1287  1  0.358100  0.944850  0.653040  1.0
  Pd  Pd1288  1  0.641900  0.055150  0.153040  1.0
  Pd  Pd1289  1  0.595940  0.706430  0.847030  1.0
  Pd  Pd1290  1  0.404060  0.293570  0.347030  1.0
  Pd  Pd1291  1  0.404060  0.706430  0.652970  1.0
  Pd  Pd1292  1  0.595940  0.293570  0.152970  1.0
  Pd  Pd1293  1  0.095940  0.206430  0.847030  1.0
  Pd  Pd1294  1  0.904060  0.793570  0.347030  1.0
  Pd  Pd1295  1  0.904060  0.206430  0.652970  1.0
  Pd  Pd1296  1  0.095940  0.793570  0.152970  1.0
  C  C1297  1  0.527000  0.579700  0.964500  1
  C  C1298  1  0.473000  0.420300  0.464500  1
  C  C1299  1  0.473000  0.579700  0.535500  1
  C  C1300  1  0.527000  0.420300  0.035500  1
  C  C1301  1  0.027000  0.079700  0.964500  1
  C  C1302  1  0.973000  0.920300  0.464500  1
  C  C1303  1  0.973000  0.079700  0.535500  1
  C  C1304  1  0.027000  0.920300  0.035500  1
  C  C1305  1  0.576300  0.552900  0.965300  1
  C  C1306  1  0.423700  0.447100  0.465300  1
  C  C1307  1  0.423700  0.552900  0.534700  1
  C  C1308  1  0.576300  0.447100  0.034700  1
  C  C1309  1  0.076300  0.052900  0.965300  1
  C  C1310  1  0.923700  0.947100  0.465300  1
  C  C1311  1  0.923700  0.052900  0.534700  1
  C  C1312  1  0.076300  0.947100  0.034700  1
  C  C1313  1  0.561200  0.514400  0.966400  1
  C  C1314  1  0.438800  0.485600  0.466400  1
  C  C1315  1  0.438800  0.514400  0.533600  1
  C  C1316  1  0.561200  0.485600  0.033600  1
  C  C1317  1  0.061200  0.014400  0.966400  1
  C  C1318  1  0.938800  0.985600  0.466400  1
  C  C1319  1  0.938800  0.014400  0.533600  1
  C  C1320  1  0.061200  0.985600  0.033600  1
  C  C1321  1  0.610500  0.485600  0.966900  1
  C  C1322  1  0.389500  0.514400  0.466900  1
  C  C1323  1  0.389500  0.485600  0.533100  1
  C  C1324  1  0.610500  0.514400  0.033100  1
  C  C1325  1  0.110500  0.985600  0.966900  1
  C  C1326  1  0.889500  0.014400  0.466900  1
  C  C1327  1  0.889500  0.985600  0.533100  1
  C  C1328  1  0.110500  0.014400  0.033100  1
  C  C1329  1  0.594700  0.448800  0.967700  1
  C  C1330  1  0.405300  0.551200  0.467700  1
  C  C1331  1  0.405300  0.448800  0.532300  1
  C  C1332  1  0.594700  0.551200  0.032300  1
  C  C1333  1  0.094700  0.948800  0.967700  1
  C  C1334  1  0.905300  0.051200  0.467700  1
  C  C1335  1  0.905300  0.948800  0.532300  1
  C  C1336  1  0.094700  0.051200  0.032300  1
  C  C1337  1  0.527800  0.436500  0.968300  1
  C  C1338  1  0.472200  0.563500  0.468300  1
  C  C1339  1  0.472200  0.436500  0.531700  1
  C  C1340  1  0.527800  0.563500  0.031700  1
  C  C1341  1  0.027800  0.936500  0.968300  1
  C  C1342  1  0.972200  0.063500  0.468300  1
  C  C1343  1  0.972200  0.936500  0.531700  1
  C  C1344  1  0.027800  0.063500  0.031700  1
  C  C1345  1  0.510000  0.398500  0.969300  1
  C  C1346  1  0.490000  0.601500  0.469300  1
  C  C1347  1  0.490000  0.398500  0.530700  1
  C  C1348  1  0.510000  0.601500  0.030700  1
  C  C1349  1  0.010000  0.898500  0.969300  1
  C  C1350  1  0.990000  0.101500  0.469300  1
  C  C1351  1  0.990000  0.898500  0.530700  1
  C  C1352  1  0.010000  0.101500  0.030700  1
  C  C1353  1  0.445000  0.387800  0.970000  1
  C  C1354  1  0.555000  0.612200  0.470000  1
  C  C1355  1  0.555000  0.387800  0.530000  1
  C  C1356  1  0.445000  0.612200  0.030000  1
  C  C1357  1  0.945000  0.887800  0.970000  1
  C  C1358  1  0.055000  0.112200  0.470000  1
  C  C1359  1  0.055000  0.887800  0.530000  1
  C  C1360  1  0.945000  0.112200  0.030000  1
  C  C1361  1  0.395700  0.414700  0.970000  1
  C  C1362  1  0.604300  0.585300  0.470000  1
  C  C1363  1  0.604300  0.414700  0.530000  1
  C  C1364  1  0.395700  0.585300  0.030000  1
  C  C1365  1  0.895700  0.914700  0.970000  1
  C  C1366  1  0.104300  0.085300  0.470000  1
  C  C1367  1  0.104300  0.914700  0.530000  1
  C  C1368  1  0.895700  0.085300  0.030000  1
  C  C1369  1  0.410900  0.453200  0.969000  1
  C  C1370  1  0.589100  0.546800  0.469000  1
  C  C1371  1  0.589100  0.453200  0.531000  1
  C  C1372  1  0.410900  0.546800  0.031000  1
  C  C1373  1  0.910900  0.953200  0.969000  1
  C  C1374  1  0.089100  0.046800  0.469000  1
  C  C1375  1  0.089100  0.953200  0.531000  1
  C  C1376  1  0.910900  0.046800  0.031000  1
  C  C1377  1  0.361600  0.482000  0.969200  1
  C  C1378  1  0.638400  0.518000  0.469200  1
  C  C1379  1  0.638400  0.482000  0.530800  1
  C  C1380  1  0.361600  0.518000  0.030800  1
  C  C1381  1  0.861600  0.982000  0.969200  1
  C  C1382  1  0.138400  0.018000  0.469200  1
  C  C1383  1  0.138400  0.982000  0.530800  1
  C  C1384  1  0.861600  0.018000  0.030800  1
  C  C1385  1  0.377300  0.518600  0.968100  1
  C  C1386  1  0.622700  0.481400  0.468100  1
  C  C1387  1  0.622700  0.518600  0.531900  1
  C  C1388  1  0.377300  0.481400  0.031900  1
  C  C1389  1  0.877300  0.018600  0.968100  1
  C  C1390  1  0.122700  0.981400  0.468100  1
  C  C1391  1  0.122700  0.018600  0.531900  1
  C  C1392  1  0.877300  0.981400  0.031900  1
  C  C1393  1  0.444200  0.531200  0.966700  1
  C  C1394  1  0.555800  0.468800  0.466700  1
  C  C1395  1  0.555800  0.531200  0.533300  1
  C  C1396  1  0.444200  0.468800  0.033300  1
  C  C1397  1  0.944200  0.031200  0.966700  1
  C  C1398  1  0.055800  0.968800  0.466700  1
  C  C1399  1  0.055800  0.031200  0.533300  1
  C  C1400  1  0.944200  0.968800  0.033300  1
  C  C1401  1  0.462000  0.569200  0.965100  1
  C  C1402  1  0.538000  0.430800  0.465100  1
  C  C1403  1  0.538000  0.569200  0.534900  1
  C  C1404  1  0.462000  0.430800  0.034900  1
  C  C1405  1  0.962000  0.069200  0.965100  1
  C  C1406  1  0.038000  0.930800  0.465100  1
  C  C1407  1  0.038000  0.069200  0.534900  1
  C  C1408  1  0.962000  0.930800  0.034900  1
  C  C1409  1  0.494400  0.503300  0.967000  1
  C  C1410  1  0.505600  0.496700  0.467000  1
  C  C1411  1  0.505600  0.503300  0.533000  1
  C  C1412  1  0.494400  0.496700  0.033000  1
  C  C1413  1  0.994400  0.003300  0.967000  1
  C  C1414  1  0.005600  0.996700  0.467000  1
  C  C1415  1  0.005600  0.003300  0.533000  1
  C  C1416  1  0.994400  0.996700  0.033000  1
  C  C1417  1  0.477600  0.464300  0.968100  1
  C  C1418  1  0.522400  0.535700  0.468100  1
  C  C1419  1  0.522400  0.464300  0.531900  1
  C  C1420  1  0.477600  0.535700  0.031900  1
  C  C1421  1  0.977600  0.964300  0.968100  1
  C  C1422  1  0.022400  0.035700  0.468100  1
  C  C1423  1  0.022400  0.964300  0.531900  1
  C  C1424  1  0.977600  0.035700  0.031900  1
  C  C1425  1  0.323700  0.484200  0.779400  1
  C  C1426  1  0.676300  0.515800  0.279400  1
  C  C1427  1  0.676300  0.484200  0.720600  1
  C  C1428  1  0.323700  0.515800  0.220600  1
  C  C1429  1  0.823700  0.984200  0.779400  1
  C  C1430  1  0.176300  0.015800  0.279400  1
  C  C1431  1  0.176300  0.984200  0.720600  1
  C  C1432  1  0.823700  0.015800  0.220600  1
  C  C1433  1  0.366200  0.514500  0.781200  1
  C  C1434  1  0.633800  0.485500  0.281200  1
  C  C1435  1  0.633800  0.514500  0.718800  1
  C  C1436  1  0.366200  0.485500  0.218800  1
  C  C1437  1  0.866200  0.014500  0.781200  1
  C  C1438  1  0.133800  0.985500  0.281200  1
  C  C1439  1  0.133800  0.014500  0.718800  1
  C  C1440  1  0.866200  0.985500  0.218800  1
  C  C1441  1  0.433900  0.508800  0.782000  1
  C  C1442  1  0.566100  0.491200  0.282000  1
  C  C1443  1  0.566100  0.508800  0.718000  1
  C  C1444  1  0.433900  0.491200  0.218000  1
  C  C1445  1  0.933900  0.008800  0.782000  1
  C  C1446  1  0.066100  0.991200  0.282000  1
  C  C1447  1  0.066100  0.008800  0.718000  1
  C  C1448  1  0.933900  0.991200  0.218000  1
  C  C1449  1  0.479800  0.539300  0.783600  1
  C  C1450  1  0.520200  0.460700  0.283600  1
  C  C1451  1  0.520200  0.539300  0.716400  1
  C  C1452  1  0.479800  0.460700  0.216400  1
  C  C1453  1  0.979800  0.039300  0.783600  1
  C  C1454  1  0.020200  0.960700  0.283600  1
  C  C1455  1  0.020200  0.039300  0.716400  1
  C  C1456  1  0.979800  0.960700  0.216400  1
  C  C1457  1  0.544600  0.533100  0.784000  1
  C  C1458  1  0.455400  0.466900  0.284000  1
  C  C1459  1  0.455400  0.533100  0.716000  1
  C  C1460  1  0.544600  0.466900  0.216000  1
  C  C1461  1  0.044600  0.033100  0.784000  1
  C  C1462  1  0.955400  0.966900  0.284000  1
  C  C1463  1  0.955400  0.033100  0.716000  1
  C  C1464  1  0.044600  0.966900  0.216000  1
  C  C1465  1  0.571200  0.495600  0.783200  1
  C  C1466  1  0.428800  0.504400  0.283200  1
  C  C1467  1  0.428800  0.495600  0.716800  1
  C  C1468  1  0.571200  0.504400  0.216800  1
  C  C1469  1  0.071200  0.995600  0.783200  1
  C  C1470  1  0.928800  0.004400  0.283200  1
  C  C1471  1  0.928800  0.995600  0.716800  1
  C  C1472  1  0.071200  0.004400  0.216800  1
  C  C1473  1  0.638300  0.488100  0.783800  1
  C  C1474  1  0.361700  0.511900  0.283800  1
  C  C1475  1  0.361700  0.488100  0.716200  1
  C  C1476  1  0.638300  0.511900  0.216200  1
  C  C1477  1  0.138300  0.988100  0.783800  1
  C  C1478  1  0.861700  0.011900  0.283800  1
  C  C1479  1  0.861700  0.988100  0.716200  1
  C  C1480  1  0.138300  0.011900  0.216200  1
  C  C1481  1  0.661700  0.451600  0.783100  1
  C  C1482  1  0.338300  0.548400  0.283100  1
  C  C1483  1  0.338300  0.451600  0.716900  1
  C  C1484  1  0.661700  0.548400  0.216900  1
  C  C1485  1  0.161700  0.951600  0.783100  1
  C  C1486  1  0.838300  0.048400  0.283100  1
  C  C1487  1  0.838300  0.951600  0.716900  1
  C  C1488  1  0.161700  0.048400  0.216900  1
  C  C1489  1  0.619300  0.421300  0.782000  1
  C  C1490  1  0.380700  0.578700  0.282000  1
  C  C1491  1  0.380700  0.421300  0.718000  1
  C  C1492  1  0.619300  0.578700  0.218000  1
  C  C1493  1  0.119300  0.921300  0.782000  1
  C  C1494  1  0.880700  0.078700  0.282000  1
  C  C1495  1  0.880700  0.921300  0.718000  1
  C  C1496  1  0.119300  0.078700  0.218000  1
  C  C1497  1  0.551500  0.427000  0.781400  1
  C  C1498  1  0.448500  0.573000  0.281400  1
  C  C1499  1  0.448500  0.427000  0.718600  1
  C  C1500  1  0.551500  0.573000  0.218600  1
  C  C1501  1  0.051500  0.927000  0.781400  1
  C  C1502  1  0.948500  0.073000  0.281400  1
  C  C1503  1  0.948500  0.927000  0.718600  1
  C  C1504  1  0.051500  0.073000  0.218600  1
  C  C1505  1  0.505600  0.396400  0.780500  1
  C  C1506  1  0.494400  0.603600  0.280500  1
  C  C1507  1  0.494400  0.396400  0.719500  1
  C  C1508  1  0.505600  0.603600  0.219500  1
  C  C1509  1  0.005600  0.896400  0.780500  1
  C  C1510  1  0.994400  0.103600  0.280500  1
  C  C1511  1  0.994400  0.896400  0.719500  1
  C  C1512  1  0.005600  0.103600  0.219500  1
  C  C1513  1  0.441200  0.402600  0.779700  1
  C  C1514  1  0.558800  0.597400  0.279700  1
  C  C1515  1  0.558800  0.402600  0.720300  1
  C  C1516  1  0.441200  0.597400  0.220300  1
  C  C1517  1  0.941200  0.902600  0.779700  1
  C  C1518  1  0.058800  0.097400  0.279700  1
  C  C1519  1  0.058800  0.902600  0.720300  1
  C  C1520  1  0.941200  0.097400  0.220300  1
  C  C1521  1  0.414100  0.440200  0.779800  1
  C  C1522  1  0.585900  0.559800  0.279800  1
  C  C1523  1  0.585900  0.440200  0.720200  1
  C  C1524  1  0.414100  0.559800  0.220200  1
  C  C1525  1  0.914100  0.940200  0.779800  1
  C  C1526  1  0.085900  0.059800  0.279800  1
  C  C1527  1  0.085900  0.940200  0.720200  1
  C  C1528  1  0.914100  0.059800  0.220200  1
  C  C1529  1  0.347100  0.447600  0.778600  1
  C  C1530  1  0.652900  0.552400  0.278600  1
  C  C1531  1  0.652900  0.447600  0.721400  1
  C  C1532  1  0.347100  0.552400  0.221400  1
  C  C1533  1  0.847100  0.947600  0.778600  1
  C  C1534  1  0.152900  0.052400  0.278600  1
  C  C1535  1  0.152900  0.947600  0.721400  1
  C  C1536  1  0.847100  0.052400  0.221400  1
  C  C1537  1  0.458300  0.471300  0.781200  1
  C  C1538  1  0.541700  0.528700  0.281200  1
  C  C1539  1  0.541700  0.471300  0.718800  1
  C  C1540  1  0.458300  0.528700  0.218800  1
  C  C1541  1  0.958300  0.971300  0.781200  1
  C  C1542  1  0.041700  0.028700  0.281200  1
  C  C1543  1  0.041700  0.971300  0.718800  1
  C  C1544  1  0.958300  0.028700  0.218800  1
  C  C1545  1  0.527100  0.464500  0.781900  1
  C  C1546  1  0.472900  0.535500  0.281900  1
  C  C1547  1  0.472900  0.464500  0.718100  1
  C  C1548  1  0.527100  0.535500  0.218100  1
  C  C1549  1  0.027100  0.964500  0.781900  1
  C  C1550  1  0.972900  0.035500  0.281900  1
  C  C1551  1  0.972900  0.964500  0.718100  1
  C  C1552  1  0.027100  0.035500  0.218100  1
  C  C1553  1  0.668500  0.483700  0.967900  1
  C  C1554  1  0.331500  0.516300  0.467900  1
  C  C1555  1  0.331500  0.483700  0.532100  1
  C  C1556  1  0.668500  0.516300  0.032100  1
  C  C1557  1  0.168500  0.983700  0.967900  1
  C  C1558  1  0.831500  0.016300  0.467900  1
  C  C1559  1  0.831500  0.983700  0.532100  1
  C  C1560  1  0.168500  0.016300  0.032100  1
  C  C1561  1  0.616300  0.456700  0.967100  1
  C  C1562  1  0.383700  0.543300  0.467100  1
  C  C1563  1  0.383700  0.456700  0.532900  1
  C  C1564  1  0.616300  0.543300  0.032900  1
  C  C1565  1  0.116300  0.956700  0.967100  1
  C  C1566  1  0.883700  0.043300  0.467100  1
  C  C1567  1  0.883700  0.956700  0.532900  1
  C  C1568  1  0.116300  0.043300  0.032900  1
  C  C1569  1  0.549400  0.465000  0.967700  1
  C  C1570  1  0.450600  0.535000  0.467700  1
  C  C1571  1  0.450600  0.465000  0.532300  1
  C  C1572  1  0.549400  0.535000  0.032300  1
  C  C1573  1  0.049400  0.965000  0.967700  1
  C  C1574  1  0.950600  0.035000  0.467700  1
  C  C1575  1  0.950600  0.965000  0.532300  1
  C  C1576  1  0.049400  0.035000  0.032300  1
  C  C1577  1  0.500000  0.436300  0.967700  1
  C  C1578  1  0.500000  0.563700  0.467700  1
  C  C1579  1  0.500000  0.436300  0.532300  1
  C  C1580  1  0.500000  0.563700  0.032300  1
  C  C1581  1  0.000000  0.936300  0.967700  1
  C  C1582  1  0.000000  0.063700  0.467700  1
  C  C1583  1  0.000000  0.936300  0.532300  1
  C  C1584  1  0.000000  0.063700  0.032300  1
  C  C1585  1  0.436000  0.445000  0.968000  1
  C  C1586  1  0.564000  0.555000  0.468000  1
  C  C1587  1  0.564000  0.445000  0.532000  1
  C  C1588  1  0.436000  0.555000  0.032000  1
  C  C1589  1  0.936000  0.945000  0.968000  1
  C  C1590  1  0.064000  0.055000  0.468000  1
  C  C1591  1  0.064000  0.945000  0.532000  1
  C  C1592  1  0.936000  0.055000  0.032000  1
  C  C1593  1  0.414000  0.483500  0.968500  1
  C  C1594  1  0.586000  0.516500  0.468500  1
  C  C1595  1  0.586000  0.483500  0.531500  1
  C  C1596  1  0.414000  0.516500  0.031500  1
  C  C1597  1  0.914000  0.983500  0.968500  1
  C  C1598  1  0.086000  0.016500  0.468500  1
  C  C1599  1  0.086000  0.983500  0.531500  1
  C  C1600  1  0.914000  0.016500  0.031500  1
  C  C1601  1  0.347800  0.493500  0.968900  1
  C  C1602  1  0.652200  0.506500  0.468900  1
  C  C1603  1  0.652200  0.493500  0.531100  1
  C  C1604  1  0.347800  0.506500  0.031100  1
  C  C1605  1  0.847800  0.993500  0.968900  1
  C  C1606  1  0.152200  0.006500  0.468900  1
  C  C1607  1  0.152200  0.993500  0.531100  1
  C  C1608  1  0.847800  0.006500  0.031100  1
  C  C1609  1  0.328800  0.530800  0.969600  1
  C  C1610  1  0.671200  0.469200  0.469600  1
  C  C1611  1  0.671200  0.530800  0.530400  1
  C  C1612  1  0.328800  0.469200  0.030400  1
  C  C1613  1  0.828800  0.030800  0.969600  1
  C  C1614  1  0.171200  0.969200  0.469600  1
  C  C1615  1  0.171200  0.030800  0.530400  1
  C  C1616  1  0.828800  0.969200  0.030400  1
  C  C1617  1  0.374700  0.559500  0.970000  1
  C  C1618  1  0.625300  0.440500  0.470000  1
  C  C1619  1  0.625300  0.559500  0.530000  1
  C  C1620  1  0.374700  0.440500  0.030000  1
  C  C1621  1  0.874700  0.059500  0.970000  1
  C  C1622  1  0.125300  0.940500  0.470000  1
  C  C1623  1  0.125300  0.059500  0.530000  1
  C  C1624  1  0.874700  0.940500  0.030000  1
  C  C1625  1  0.441600  0.551100  0.969600  1
  C  C1626  1  0.558400  0.448900  0.469600  1
  C  C1627  1  0.558400  0.551100  0.530400  1
  C  C1628  1  0.441600  0.448900  0.030400  1
  C  C1629  1  0.941600  0.051100  0.969600  1
  C  C1630  1  0.058400  0.948900  0.469600  1
  C  C1631  1  0.058400  0.051100  0.530400  1
  C  C1632  1  0.941600  0.948900  0.030400  1
  C  C1633  1  0.491000  0.579900  0.970200  1
  C  C1634  1  0.509000  0.420100  0.470200  1
  C  C1635  1  0.509000  0.579900  0.529800  1
  C  C1636  1  0.491000  0.420100  0.029800  1
  C  C1637  1  0.991000  0.079900  0.970200  1
  C  C1638  1  0.009000  0.920100  0.470200  1
  C  C1639  1  0.009000  0.079900  0.529800  1
  C  C1640  1  0.991000  0.920100  0.029800  1
  C  C1641  1  0.554600  0.571200  0.969600  1
  C  C1642  1  0.445400  0.428800  0.469600  1
  C  C1643  1  0.445400  0.571200  0.530400  1
  C  C1644  1  0.554600  0.428800  0.030400  1
  C  C1645  1  0.054600  0.071200  0.969600  1
  C  C1646  1  0.945400  0.928800  0.469600  1
  C  C1647  1  0.945400  0.071200  0.530400  1
  C  C1648  1  0.054600  0.928800  0.030400  1
  C  C1649  1  0.577300  0.532700  0.968300  1
  C  C1650  1  0.422700  0.467300  0.468300  1
  C  C1651  1  0.422700  0.532700  0.531700  1
  C  C1652  1  0.577300  0.467300  0.031700  1
  C  C1653  1  0.077300  0.032700  0.968300  1
  C  C1654  1  0.922700  0.967300  0.468300  1
  C  C1655  1  0.922700  0.032700  0.531700  1
  C  C1656  1  0.077300  0.967300  0.031700  1
  C  C1657  1  0.643400  0.522800  0.967300  1
  C  C1658  1  0.356600  0.477200  0.467300  1
  C  C1659  1  0.356600  0.522800  0.532700  1
  C  C1660  1  0.643400  0.477200  0.032700  1
  C  C1661  1  0.143400  0.022800  0.967300  1
  C  C1662  1  0.856600  0.977200  0.467300  1
  C  C1663  1  0.856600  0.022800  0.532700  1
  C  C1664  1  0.143400  0.977200  0.032700  1
  C  C1665  1  0.529500  0.503400  0.968200  1
  C  C1666  1  0.470500  0.496600  0.468200  1
  C  C1667  1  0.470500  0.503400  0.531800  1
  C  C1668  1  0.529500  0.496600  0.031800  1
  C  C1669  1  0.029500  0.003400  0.968200  1
  C  C1670  1  0.970500  0.996600  0.468200  1
  C  C1671  1  0.970500  0.003400  0.531800  1
  C  C1672  1  0.029500  0.996600  0.031800  1
  C  C1673  1  0.461600  0.512800  0.968700  1
  C  C1674  1  0.538400  0.487200  0.468700  1
  C  C1675  1  0.538400  0.512800  0.531300  1
  C  C1676  1  0.461600  0.487200  0.031300  1
  C  C1677  1  0.961600  0.012800  0.968700  1
  C  C1678  1  0.038400  0.987200  0.468700  1
  C  C1679  1  0.038400  0.012800  0.531300  1
  C  C1680  1  0.961600  0.987200  0.031300  1
  C  C1681  1  0.426000  0.443000  0.784300  1
  C  C1682  1  0.574000  0.557000  0.284300  1
  C  C1683  1  0.574000  0.443000  0.715700  1
  C  C1684  1  0.426000  0.557000  0.215700  1
  C  C1685  1  0.926000  0.943000  0.784300  1
  C  C1686  1  0.074000  0.057000  0.284300  1
  C  C1687  1  0.074000  0.943000  0.715700  1
  C  C1688  1  0.926000  0.057000  0.215700  1
  C  C1689  1  0.397400  0.478500  0.783600  1
  C  C1690  1  0.602600  0.521500  0.283600  1
  C  C1691  1  0.602600  0.478500  0.716400  1
  C  C1692  1  0.397400  0.521500  0.216400  1
  C  C1693  1  0.897400  0.978500  0.783600  1
  C  C1694  1  0.102600  0.021500  0.283600  1
  C  C1695  1  0.102600  0.978500  0.716400  1
  C  C1696  1  0.897400  0.021500  0.216400  1
  C  C1697  1  0.436300  0.511000  0.783100  1
  C  C1698  1  0.563700  0.489000  0.283100  1
  C  C1699  1  0.563700  0.511000  0.716900  1
  C  C1700  1  0.436300  0.489000  0.216900  1
  C  C1701  1  0.936300  0.011000  0.783100  1
  C  C1702  1  0.063700  0.989000  0.283100  1
  C  C1703  1  0.063700  0.011000  0.716900  1
  C  C1704  1  0.936300  0.989000  0.216900  1
  C  C1705  1  0.409300  0.548400  0.782200  1
  C  C1706  1  0.590700  0.451600  0.282200  1
  C  C1707  1  0.590700  0.548400  0.717800  1
  C  C1708  1  0.409300  0.451600  0.217800  1
  C  C1709  1  0.909300  0.048400  0.782200  1
  C  C1710  1  0.090700  0.951600  0.282200  1
  C  C1711  1  0.090700  0.048400  0.717800  1
  C  C1712  1  0.909300  0.951600  0.217800  1
  C  C1713  1  0.447800  0.579100  0.781400  1
  C  C1714  1  0.552200  0.420900  0.281400  1
  C  C1715  1  0.552200  0.579100  0.718600  1
  C  C1716  1  0.447800  0.420900  0.218600  1
  C  C1717  1  0.947800  0.079100  0.781400  1
  C  C1718  1  0.052200  0.920900  0.281400  1
  C  C1719  1  0.052200  0.079100  0.718600  1
  C  C1720  1  0.947800  0.920900  0.218600  1
  C  C1721  1  0.517800  0.576100  0.781800  1
  C  C1722  1  0.482200  0.423900  0.281800  1
  C  C1723  1  0.482200  0.576100  0.718200  1
  C  C1724  1  0.517800  0.423900  0.218200  1
  C  C1725  1  0.017800  0.076100  0.781800  1
  C  C1726  1  0.982200  0.923900  0.281800  1
  C  C1727  1  0.982200  0.076100  0.718200  1
  C  C1728  1  0.017800  0.923900  0.218200  1
  C  C1729  1  0.559000  0.607500  0.781200  1
  C  C1730  1  0.441000  0.392500  0.281200  1
  C  C1731  1  0.441000  0.607500  0.718800  1
  C  C1732  1  0.559000  0.392500  0.218800  1
  C  C1733  1  0.059000  0.107500  0.781200  1
  C  C1734  1  0.941000  0.892500  0.281200  1
  C  C1735  1  0.941000  0.107500  0.718800  1
  C  C1736  1  0.059000  0.892500  0.218800  1
  C  C1737  1  0.626000  0.603400  0.781800  1
  C  C1738  1  0.374000  0.396600  0.281800  1
  C  C1739  1  0.374000  0.603400  0.718200  1
  C  C1740  1  0.626000  0.396600  0.218200  1
  C  C1741  1  0.126000  0.103400  0.781800  1
  C  C1742  1  0.874000  0.896600  0.281800  1
  C  C1743  1  0.874000  0.103400  0.718200  1
  C  C1744  1  0.126000  0.896600  0.218200  1
  C  C1745  1  0.654500  0.568000  0.783200  1
  C  C1746  1  0.345500  0.432000  0.283200  1
  C  C1747  1  0.345500  0.568000  0.716800  1
  C  C1748  1  0.654500  0.432000  0.216800  1
  C  C1749  1  0.154500  0.068000  0.783200  1
  C  C1750  1  0.845500  0.932000  0.283200  1
  C  C1751  1  0.845500  0.068000  0.716800  1
  C  C1752  1  0.154500  0.932000  0.216800  1
  C  C1753  1  0.615500  0.535600  0.783800  1
  C  C1754  1  0.384500  0.464400  0.283800  1
  C  C1755  1  0.384500  0.535600  0.716200  1
  C  C1756  1  0.615500  0.464400  0.216200  1
  C  C1757  1  0.115500  0.035600  0.783800  1
  C  C1758  1  0.884500  0.964400  0.283800  1
  C  C1759  1  0.884500  0.035600  0.716200  1
  C  C1760  1  0.115500  0.964400  0.216200  1
  C  C1761  1  0.642600  0.498300  0.785400  1
  C  C1762  1  0.357400  0.501700  0.285400  1
  C  C1763  1  0.357400  0.498300  0.714600  1
  C  C1764  1  0.642600  0.501700  0.214600  1
  C  C1765  1  0.142600  0.998300  0.785400  1
  C  C1766  1  0.857400  0.001700  0.285400  1
  C  C1767  1  0.857400  0.998300  0.714600  1
  C  C1768  1  0.142600  0.001700  0.214600  1
  C  C1769  1  0.604400  0.467700  0.785900  1
  C  C1770  1  0.395600  0.532300  0.285900  1
  C  C1771  1  0.395600  0.467700  0.714100  1
  C  C1772  1  0.604400  0.532300  0.214100  1
  C  C1773  1  0.104400  0.967700  0.785900  1
  C  C1774  1  0.895600  0.032300  0.285900  1
  C  C1775  1  0.895600  0.967700  0.714100  1
  C  C1776  1  0.104400  0.032300  0.214100  1
  C  C1777  1  0.534100  0.470300  0.784700  1
  C  C1778  1  0.465900  0.529700  0.284700  1
  C  C1779  1  0.465900  0.470300  0.715300  1
  C  C1780  1  0.534100  0.529700  0.215300  1
  C  C1781  1  0.034100  0.970300  0.784700  1
  C  C1782  1  0.965900  0.029700  0.284700  1
  C  C1783  1  0.965900  0.970300  0.715300  1
  C  C1784  1  0.034100  0.029700  0.215300  1
  C  C1785  1  0.493000  0.438800  0.784700  1
  C  C1786  1  0.507000  0.561200  0.284700  1
  C  C1787  1  0.507000  0.438800  0.715300  1
  C  C1788  1  0.493000  0.561200  0.215300  1
  C  C1789  1  0.993000  0.938800  0.784700  1
  C  C1790  1  0.007000  0.061200  0.284700  1
  C  C1791  1  0.007000  0.938800  0.715300  1
  C  C1792  1  0.993000  0.061200  0.215300  1
  C  C1793  1  0.505500  0.507000  0.783600  1
  C  C1794  1  0.494500  0.493000  0.283600  1
  C  C1795  1  0.494500  0.507000  0.716400  1
  C  C1796  1  0.505500  0.493000  0.216400  1
  C  C1797  1  0.005500  0.007000  0.783600  1
  C  C1798  1  0.994500  0.993000  0.283600  1
  C  C1799  1  0.994500  0.007000  0.716400  1
  C  C1800  1  0.005500  0.993000  0.216400  1
  C  C1801  1  0.546400  0.539600  0.783100  1
  C  C1802  1  0.453600  0.460400  0.283100  1
  C  C1803  1  0.453600  0.539600  0.716900  1
  C  C1804  1  0.546400  0.460400  0.216900  1
  C  C1805  1  0.046400  0.039600  0.783100  1
  C  C1806  1  0.953600  0.960400  0.283100  1
  C  C1807  1  0.953600  0.039600  0.716900  1
  C  C1808  1  0.046400  0.960400  0.216900  1
  C  C1809  1  0.279700  0.563100  0.906800  1.0
  C  C1810  1  0.720300  0.436900  0.406800  1.0
  C  C1811  1  0.720300  0.563100  0.593200  1.0
  C  C1812  1  0.279700  0.436900  0.093200  1.0
  C  C1813  1  0.779700  0.063100  0.906800  1.0
  C  C1814  1  0.220300  0.936900  0.406800  1.0
  C  C1815  1  0.220300  0.063100  0.593200  1.0
  C  C1816  1  0.779700  0.936900  0.093200  1.0
  C  C1817  1  0.331700  0.540000  0.905100  1.0
  C  C1818  1  0.668300  0.460000  0.405100  1.0
  C  C1819  1  0.668300  0.540000  0.594900  1.0
  C  C1820  1  0.331700  0.460000  0.094900  1.0
  C  C1821  1  0.831700  0.040000  0.905100  1.0
  C  C1822  1  0.168300  0.960000  0.405100  1.0
  C  C1823  1  0.168300  0.040000  0.594900  1.0
  C  C1824  1  0.831700  0.960000  0.094900  1.0
  C  C1825  1  0.399100  0.552200  0.906100  1.0
  C  C1826  1  0.600900  0.447800  0.406100  1.0
  C  C1827  1  0.600900  0.552200  0.593900  1.0
  C  C1828  1  0.399100  0.447800  0.093900  1.0
  C  C1829  1  0.899100  0.052200  0.906100  1.0
  C  C1830  1  0.100900  0.947800  0.406100  1.0
  C  C1831  1  0.100900  0.052200  0.593900  1.0
  C  C1832  1  0.899100  0.947800  0.093900  1.0
  C  C1833  1  0.408700  0.590900  0.906400  1.0
  C  C1834  1  0.591300  0.409100  0.406400  1.0
  C  C1835  1  0.591300  0.590900  0.593600  1.0
  C  C1836  1  0.408700  0.409100  0.093600  1.0
  C  C1837  1  0.908700  0.090900  0.906400  1.0
  C  C1838  1  0.091300  0.909100  0.406400  1.0
  C  C1839  1  0.091300  0.090900  0.593600  1.0
  C  C1840  1  0.908700  0.909100  0.093600  1.0
  C  C1841  1  0.357100  0.615300  0.908200  1.0
  C  C1842  1  0.642900  0.384700  0.408200  1.0
  C  C1843  1  0.642900  0.615300  0.591800  1.0
  C  C1844  1  0.357100  0.384700  0.091800  1.0
  C  C1845  1  0.857100  0.115300  0.908200  1.0
  C  C1846  1  0.142900  0.884700  0.408200  1.0
  C  C1847  1  0.142900  0.115300  0.591800  1.0
  C  C1848  1  0.857100  0.884700  0.091800  1.0
  C  C1849  1  0.507900  0.357100  0.908600  1.0
  C  C1850  1  0.492100  0.642900  0.408600  1.0
  C  C1851  1  0.492100  0.357100  0.591400  1.0
  C  C1852  1  0.507900  0.642900  0.091400  1.0
  C  C1853  1  0.007900  0.857100  0.908600  1.0
  C  C1854  1  0.992100  0.142900  0.408600  1.0
  C  C1855  1  0.992100  0.857100  0.591400  1.0
  C  C1856  1  0.007900  0.142900  0.091400  1.0
  C  C1857  1  0.520600  0.399300  0.905900  1.0
  C  C1858  1  0.479400  0.600700  0.405900  1.0
  C  C1859  1  0.479400  0.399300  0.594100  1.0
  C  C1860  1  0.520600  0.600700  0.094100  1.0
  C  C1861  1  0.020600  0.899300  0.905900  1.0
  C  C1862  1  0.979400  0.100700  0.405900  1.0
  C  C1863  1  0.979400  0.899300  0.594100  1.0
  C  C1864  1  0.020600  0.100700  0.094100  1.0
  C  C1865  1  0.472200  0.424200  0.907500  1.0
  C  C1866  1  0.527800  0.575800  0.407500  1.0
  C  C1867  1  0.527800  0.424200  0.592500  1.0
  C  C1868  1  0.472200  0.575800  0.092500  1.0
  C  C1869  1  0.972200  0.924200  0.907500  1.0
  C  C1870  1  0.027800  0.075800  0.407500  1.0
  C  C1871  1  0.027800  0.924200  0.592500  1.0
  C  C1872  1  0.972200  0.075800  0.092500  1.0
  C  C1873  1  0.408600  0.409200  0.906100  1.0
  C  C1874  1  0.591400  0.590800  0.406100  1.0
  C  C1875  1  0.591400  0.409200  0.593900  1.0
  C  C1876  1  0.408600  0.590800  0.093900  1.0
  C  C1877  1  0.908600  0.909200  0.906100  1.0
  C  C1878  1  0.091400  0.090800  0.406100  1.0
  C  C1879  1  0.091400  0.909200  0.593900  1.0
  C  C1880  1  0.908600  0.090800  0.093900  1.0
  C  C1881  1  0.395400  0.369500  0.907300  1.0
  C  C1882  1  0.604600  0.630500  0.407300  1.0
  C  C1883  1  0.604600  0.369500  0.592700  1.0
  C  C1884  1  0.395400  0.630500  0.092700  1.0
  C  C1885  1  0.895400  0.869500  0.907300  1.0
  C  C1886  1  0.104600  0.130500  0.407300  1.0
  C  C1887  1  0.104600  0.869500  0.592700  1.0
  C  C1888  1  0.895400  0.130500  0.092700  1.0
  C  C1889  1  0.702700  0.577500  0.906500  1.0
  C  C1890  1  0.297300  0.422500  0.406500  1.0
  C  C1891  1  0.297300  0.577500  0.593500  1.0
  C  C1892  1  0.702700  0.422500  0.093500  1.0
  C  C1893  1  0.202700  0.077500  0.906500  1.0
  C  C1894  1  0.797300  0.922500  0.406500  1.0
  C  C1895  1  0.797300  0.077500  0.593500  1.0
  C  C1896  1  0.202700  0.922500  0.093500  1.0
  C  C1897  1  0.641400  0.562200  0.906600  1.0
  C  C1898  1  0.358600  0.437800  0.406600  1.0
  C  C1899  1  0.358600  0.562200  0.593400  1.0
  C  C1900  1  0.641400  0.437800  0.093400  1.0
  C  C1901  1  0.141400  0.062200  0.906600  1.0
  C  C1902  1  0.858600  0.937800  0.406600  1.0
  C  C1903  1  0.858600  0.062200  0.593400  1.0
  C  C1904  1  0.141400  0.937800  0.093400  1.0
  C  C1905  1  0.630000  0.521800  0.906300  1.0
  C  C1906  1  0.370000  0.478200  0.406300  1.0
  C  C1907  1  0.370000  0.521800  0.593700  1.0
  C  C1908  1  0.630000  0.478200  0.093700  1.0
  C  C1909  1  0.130000  0.021800  0.906300  1.0
  C  C1910  1  0.870000  0.978200  0.406300  1.0
  C  C1911  1  0.870000  0.021800  0.593700  1.0
  C  C1912  1  0.130000  0.978200  0.093700  1.0
  C  C1913  1  0.679200  0.500600  0.906800  1.0
  C  C1914  1  0.320800  0.499400  0.406800  1.0
  C  C1915  1  0.320800  0.500600  0.593200  1.0
  C  C1916  1  0.679200  0.499400  0.093200  1.0
  C  C1917  1  0.179200  0.000600  0.906800  1.0
  C  C1918  1  0.820800  0.999400  0.406800  1.0
  C  C1919  1  0.820800  0.000600  0.593200  1.0
  C  C1920  1  0.179200  0.999400  0.093200  1.0
  C  C1921  1  0.741400  0.514100  0.909300  1.0
  C  C1922  1  0.258600  0.485900  0.409300  1.0
  C  C1923  1  0.258600  0.514100  0.590700  1.0
  C  C1924  1  0.741400  0.485900  0.090700  1.0
  C  C1925  1  0.241400  0.014100  0.909300  1.0
  C  C1926  1  0.758600  0.985900  0.409300  1.0
  C  C1927  1  0.758600  0.014100  0.590700  1.0
  C  C1928  1  0.241400  0.985900  0.090700  1.0
  C  C1929  1  0.455100  0.524700  0.906900  1.0
  C  C1930  1  0.544900  0.475300  0.406900  1.0
  C  C1931  1  0.544900  0.524700  0.593100  1.0
  C  C1932  1  0.455100  0.475300  0.093100  1.0
  C  C1933  1  0.955100  0.024700  0.906900  1.0
  C  C1934  1  0.044900  0.975300  0.406900  1.0
  C  C1935  1  0.044900  0.024700  0.593100  1.0
  C  C1936  1  0.955100  0.975300  0.093100  1.0
  C  C1937  1  0.478700  0.465700  0.907500  1.0
  C  C1938  1  0.521300  0.534300  0.407500  1.0
  C  C1939  1  0.521300  0.465700  0.592500  1.0
  C  C1940  1  0.478700  0.534300  0.092500  1.0
  C  C1941  1  0.978700  0.965700  0.907500  1.0
  C  C1942  1  0.021300  0.034300  0.407500  1.0
  C  C1943  1  0.021300  0.965700  0.592500  1.0
  C  C1944  1  0.978700  0.034300  0.092500  1.0
  C  C1945  1  0.556200  0.509200  0.906700  1.0
  C  C1946  1  0.443800  0.490800  0.406700  1.0
  C  C1947  1  0.443800  0.509200  0.593300  1.0
  C  C1948  1  0.556200  0.490800  0.093300  1.0
  C  C1949  1  0.056200  0.009200  0.906700  1.0
  C  C1950  1  0.943800  0.990800  0.406700  1.0
  C  C1951  1  0.943800  0.009200  0.593300  1.0
  C  C1952  1  0.056200  0.990800  0.093300  1.0
  C  C1953  1  0.308600  0.713800  0.916300  1.0
  C  C1954  1  0.691400  0.286200  0.416300  1.0
  C  C1955  1  0.691400  0.713800  0.583700  1.0
  C  C1956  1  0.308600  0.286200  0.083700  1.0
  C  C1957  1  0.808600  0.213800  0.916300  1.0
  C  C1958  1  0.191400  0.786200  0.416300  1.0
  C  C1959  1  0.191400  0.213800  0.583700  1.0
  C  C1960  1  0.808600  0.786200  0.083700  1.0
  C  C1961  1  0.289900  0.693600  0.937300  1.0
  C  C1962  1  0.710100  0.306400  0.437300  1.0
  C  C1963  1  0.710100  0.693600  0.562700  1.0
  C  C1964  1  0.289900  0.306400  0.062700  1.0
  C  C1965  1  0.789900  0.193600  0.937300  1.0
  C  C1966  1  0.210100  0.806400  0.437300  1.0
  C  C1967  1  0.210100  0.193600  0.562700  1.0
  C  C1968  1  0.789900  0.806400  0.062700  1.0
  C  C1969  1  0.313400  0.700300  0.964500  1.0
  C  C1970  1  0.686600  0.299700  0.464500  1.0
  C  C1971  1  0.686600  0.700300  0.535500  1.0
  C  C1972  1  0.313400  0.299700  0.035500  1.0
  C  C1973  1  0.813400  0.200300  0.964500  1.0
  C  C1974  1  0.186600  0.799700  0.464500  1.0
  C  C1975  1  0.186600  0.200300  0.535500  1.0
  C  C1976  1  0.813400  0.799700  0.035500  1.0
  C  C1977  1  0.302500  0.678200  0.986000  1.0
  C  C1978  1  0.697500  0.321800  0.486000  1.0
  C  C1979  1  0.697500  0.678200  0.514000  1.0
  C  C1980  1  0.302500  0.321800  0.014000  1.0
  C  C1981  1  0.802500  0.178200  0.986000  1.0
  C  C1982  1  0.197500  0.821800  0.486000  1.0
  C  C1983  1  0.197500  0.178200  0.514000  1.0
  C  C1984  1  0.802500  0.821800  0.014000  1.0
  C  C1985  1  0.248400  0.652600  0.988300  1.0
  C  C1986  1  0.751600  0.347400  0.488300  1.0
  C  C1987  1  0.751600  0.652600  0.511700  1.0
  C  C1988  1  0.248400  0.347400  0.011700  1.0
  C  C1989  1  0.748400  0.152600  0.988300  1.0
  C  C1990  1  0.251600  0.847400  0.488300  1.0
  C  C1991  1  0.251600  0.152600  0.511700  1.0
  C  C1992  1  0.748400  0.847400  0.011700  1.0
  C  C1993  1  0.225200  0.644500  0.962000  1.0
  C  C1994  1  0.774800  0.355500  0.462000  1.0
  C  C1995  1  0.774800  0.644500  0.538000  1.0
  C  C1996  1  0.225200  0.355500  0.038000  1.0
  C  C1997  1  0.725200  0.144500  0.962000  1.0
  C  C1998  1  0.274800  0.855500  0.462000  1.0
  C  C1999  1  0.274800  0.144500  0.538000  1.0
  C  C2000  1  0.725200  0.855500  0.038000  1.0
  C  C2001  1  0.180000  0.609500  0.960000  1.0
  C  C2002  1  0.820000  0.390500  0.460000  1.0
  C  C2003  1  0.820000  0.609500  0.540000  1.0
  C  C2004  1  0.180000  0.390500  0.040000  1.0
  C  C2005  1  0.680000  0.109500  0.960000  1.0
  C  C2006  1  0.320000  0.890500  0.460000  1.0
  C  C2007  1  0.320000  0.109500  0.540000  1.0
  C  C2008  1  0.680000  0.890500  0.040000  1.0
  C  C2009  1  0.269400  0.293700  0.920200  1.0
  C  C2010  1  0.730600  0.706300  0.420200  1.0
  C  C2011  1  0.730600  0.293700  0.579800  1.0
  C  C2012  1  0.269400  0.706300  0.079800  1.0
  C  C2013  1  0.769400  0.793700  0.920200  1.0
  C  C2014  1  0.230600  0.206300  0.420200  1.0
  C  C2015  1  0.230600  0.793700  0.579800  1.0
  C  C2016  1  0.769400  0.206300  0.079800  1.0
  C  C2017  1  0.318500  0.297000  0.940200  1.0
  C  C2018  1  0.681500  0.703000  0.440200  1.0
  C  C2019  1  0.681500  0.297000  0.559800  1.0
  C  C2020  1  0.318500  0.703000  0.059800  1.0
  C  C2021  1  0.818500  0.797000  0.940200  1.0
  C  C2022  1  0.181500  0.203000  0.440200  1.0
  C  C2023  1  0.181500  0.797000  0.559800  1.0
  C  C2024  1  0.818500  0.203000  0.059800  1.0
  C  C2025  1  0.294400  0.306300  0.964400  1.0
  C  C2026  1  0.705600  0.693700  0.464400  1.0
  C  C2027  1  0.705600  0.306300  0.535600  1.0
  C  C2028  1  0.294400  0.693700  0.035600  1.0
  C  C2029  1  0.794400  0.806300  0.964400  1.0
  C  C2030  1  0.205600  0.193700  0.464400  1.0
  C  C2031  1  0.205600  0.806300  0.535600  1.0
  C  C2032  1  0.794400  0.193700  0.035600  1.0
  C  C2033  1  0.327700  0.688800  0.011900  1.0
  C  C2034  1  0.672300  0.311200  0.511900  1.0
  C  C2035  1  0.672300  0.688800  0.488100  1.0
  C  C2036  1  0.327700  0.311200  0.988100  1.0
  C  C2037  1  0.827700  0.188800  0.011900  1.0
  C  C2038  1  0.172300  0.811200  0.511900  1.0
  C  C2039  1  0.172300  0.188800  0.488100  1.0
  C  C2040  1  0.827700  0.811200  0.988100  1.0
  C  C2041  1  0.396700  0.700100  0.017900  1.0
  C  C2042  1  0.603300  0.299900  0.517900  1.0
  C  C2043  1  0.603300  0.700100  0.482100  1.0
  C  C2044  1  0.396700  0.299900  0.982100  1.0
  C  C2045  1  0.896700  0.200100  0.017900  1.0
  C  C2046  1  0.103300  0.799900  0.517900  1.0
  C  C2047  1  0.103300  0.200100  0.482100  1.0
  C  C2048  1  0.896700  0.799900  0.982100  1.0
  C  C2049  1  0.425500  0.294900  0.957500  1.0
  C  C2050  1  0.574500  0.705100  0.457500  1.0
  C  C2051  1  0.574500  0.294900  0.542500  1.0
  C  C2052  1  0.425500  0.705100  0.042500  1.0
  C  C2053  1  0.925500  0.794900  0.957500  1.0
  C  C2054  1  0.074500  0.205100  0.457500  1.0
  C  C2055  1  0.074500  0.794900  0.542500  1.0
  C  C2056  1  0.925500  0.205100  0.042500  1.0
  C  C2057  1  0.493200  0.284100  0.956400  1.0
  C  C2058  1  0.506800  0.715900  0.456400  1.0
  C  C2059  1  0.506800  0.284100  0.543600  1.0
  C  C2060  1  0.493200  0.715900  0.043600  1.0
  C  C2061  1  0.993200  0.784100  0.956400  1.0
  C  C2062  1  0.006800  0.215900  0.456400  1.0
  C  C2063  1  0.006800  0.784100  0.543600  1.0
  C  C2064  1  0.993200  0.215900  0.043600  1.0
  C  C2065  1  0.442700  0.223500  0.878400  1.0
  C  C2066  1  0.557300  0.776500  0.378400  1.0
  C  C2067  1  0.557300  0.223500  0.621600  1.0
  C  C2068  1  0.442700  0.776500  0.121600  1.0
  C  C2069  1  0.942700  0.723500  0.878400  1.0
  C  C2070  1  0.057300  0.276500  0.378400  1.0
  C  C2071  1  0.057300  0.723500  0.621600  1.0
  C  C2072  1  0.942700  0.276500  0.121600  1.0
  C  C2073  1  0.431000  0.249700  0.859000  1.0
  C  C2074  1  0.569000  0.750300  0.359000  1.0
  C  C2075  1  0.569000  0.249700  0.641000  1.0
  C  C2076  1  0.431000  0.750300  0.141000  1.0
  C  C2077  1  0.931000  0.749700  0.859000  1.0
  C  C2078  1  0.069000  0.250300  0.359000  1.0
  C  C2079  1  0.069000  0.749700  0.641000  1.0
  C  C2080  1  0.931000  0.250300  0.141000  1.0
  C  C2081  1  0.162700  0.661400  0.863200  1.0
  C  C2082  1  0.837300  0.338600  0.363200  1.0
  C  C2083  1  0.837300  0.661400  0.636800  1.0
  C  C2084  1  0.162700  0.338600  0.136800  1.0
  C  C2085  1  0.662700  0.161400  0.863200  1.0
  C  C2086  1  0.337300  0.838600  0.363200  1.0
  C  C2087  1  0.337300  0.161400  0.636800  1.0
  C  C2088  1  0.662700  0.838600  0.136800  1.0
  C  C2089  1  0.112500  0.669700  0.880700  1.0
  C  C2090  1  0.887500  0.330300  0.380700  1.0
  C  C2091  1  0.887500  0.669700  0.619300  1.0
  C  C2092  1  0.112500  0.330300  0.119300  1.0
  C  C2093  1  0.612500  0.169700  0.880700  1.0
  C  C2094  1  0.387500  0.830300  0.380700  1.0
  C  C2095  1  0.387500  0.169700  0.619300  1.0
  C  C2096  1  0.612500  0.830300  0.119300  1.0
  C  C2097  1  0.917000  0.490100  0.916800  1.0
  C  C2098  1  0.083000  0.509900  0.416800  1.0
  C  C2099  1  0.083000  0.490100  0.583200  1.0
  C  C2100  1  0.917000  0.509900  0.083200  1.0
  C  C2101  1  0.417000  0.990100  0.916800  1.0
  C  C2102  1  0.583000  0.009900  0.416800  1.0
  C  C2103  1  0.583000  0.990100  0.583200  1.0
  C  C2104  1  0.417000  0.009900  0.083200  1.0
  C  C2105  1  0.898800  0.507300  0.940800  1.0
  C  C2106  1  0.101200  0.492700  0.440800  1.0
  C  C2107  1  0.101200  0.507300  0.559200  1.0
  C  C2108  1  0.898800  0.492700  0.059200  1.0
  C  C2109  1  0.398800  0.007300  0.940800  1.0
  C  C2110  1  0.601200  0.992700  0.440800  1.0
  C  C2111  1  0.601200  0.007300  0.559200  1.0
  C  C2112  1  0.398800  0.992700  0.059200  1.0
  C  C2113  1  0.891900  0.493300  0.964400  1.0
  C  C2114  1  0.108100  0.506700  0.464400  1.0
  C  C2115  1  0.108100  0.493300  0.535600  1.0
  C  C2116  1  0.891900  0.506700  0.035600  1.0
  C  C2117  1  0.391900  0.993300  0.964400  1.0
  C  C2118  1  0.608100  0.006700  0.464400  1.0
  C  C2119  1  0.608100  0.993300  0.535600  1.0
  C  C2120  1  0.391900  0.006700  0.035600  1.0
  C  C2121  1  0.868200  0.508400  0.989300  1.0
  C  C2122  1  0.131800  0.491600  0.489300  1.0
  C  C2123  1  0.131800  0.508400  0.510700  1.0
  C  C2124  1  0.868200  0.491600  0.010700  1.0
  C  C2125  1  0.368200  0.008400  0.989300  1.0
  C  C2126  1  0.631800  0.991600  0.489300  1.0
  C  C2127  1  0.631800  0.008400  0.510700  1.0
  C  C2128  1  0.368200  0.991600  0.010700  1.0
  C  C2129  1  0.849600  0.548000  0.984100  1.0
  C  C2130  1  0.150400  0.452000  0.484100  1.0
  C  C2131  1  0.150400  0.548000  0.515900  1.0
  C  C2132  1  0.849600  0.452000  0.015900  1.0
  C  C2133  1  0.349600  0.048000  0.984100  1.0
  C  C2134  1  0.650400  0.952000  0.484100  1.0
  C  C2135  1  0.650400  0.048000  0.515900  1.0
  C  C2136  1  0.349600  0.952000  0.015900  1.0
  C  C2137  1  0.852100  0.566300  0.961100  1.0
  C  C2138  1  0.147900  0.433700  0.461100  1.0
  C  C2139  1  0.147900  0.566300  0.538900  1.0
  C  C2140  1  0.852100  0.433700  0.038900  1.0
  C  C2141  1  0.352100  0.066300  0.961100  1.0
  C  C2142  1  0.647900  0.933700  0.461100  1.0
  C  C2143  1  0.647900  0.066300  0.538900  1.0
  C  C2144  1  0.352100  0.933700  0.038900  1.0
  C  C2145  1  0.820900  0.603400  0.956000  1.0
  C  C2146  1  0.179100  0.396600  0.456000  1.0
  C  C2147  1  0.179100  0.603400  0.544000  1.0
  C  C2148  1  0.820900  0.396600  0.044000  1.0
  C  C2149  1  0.320900  0.103400  0.956000  1.0
  C  C2150  1  0.679100  0.896600  0.456000  1.0
  C  C2151  1  0.679100  0.103400  0.544000  1.0
  C  C2152  1  0.320900  0.896600  0.044000  1.0
  C  C2153  1  0.943400  0.613300  0.881300  1.0
  C  C2154  1  0.056600  0.386700  0.381300  1.0
  C  C2155  1  0.056600  0.613300  0.618700  1.0
  C  C2156  1  0.943400  0.386700  0.118700  1.0
  C  C2157  1  0.443400  0.113300  0.881300  1.0
  C  C2158  1  0.556600  0.886700  0.381300  1.0
  C  C2159  1  0.556600  0.113300  0.618700  1.0
  C  C2160  1  0.443400  0.886700  0.118700  1.0
  C  C2161  1  0.900300  0.600000  0.863000  1.0
  C  C2162  1  0.099700  0.400000  0.363000  1.0
  C  C2163  1  0.099700  0.600000  0.637000  1.0
  C  C2164  1  0.900300  0.400000  0.137000  1.0
  C  C2165  1  0.400300  0.100000  0.863000  1.0
  C  C2166  1  0.599700  0.900000  0.363000  1.0
  C  C2167  1  0.599700  0.100000  0.637000  1.0
  C  C2168  1  0.400300  0.900000  0.137000  1.0
  C  C2169  1  0.708200  0.422700  0.848700  1.0
  C  C2170  1  0.291800  0.577300  0.348700  1.0
  C  C2171  1  0.291800  0.422700  0.651300  1.0
  C  C2172  1  0.708200  0.577300  0.151300  1.0
  C  C2173  1  0.208200  0.922700  0.848700  1.0
  C  C2174  1  0.791800  0.077300  0.348700  1.0
  C  C2175  1  0.791800  0.922700  0.651300  1.0
  C  C2176  1  0.208200  0.077300  0.151300  1.0
  C  C2177  1  0.660900  0.453000  0.847000  1.0
  C  C2178  1  0.339100  0.547000  0.347000  1.0
  C  C2179  1  0.339100  0.453000  0.653000  1.0
  C  C2180  1  0.660900  0.547000  0.153000  1.0
  C  C2181  1  0.160900  0.953000  0.847000  1.0
  C  C2182  1  0.839100  0.047000  0.347000  1.0
  C  C2183  1  0.839100  0.953000  0.653000  1.0
  C  C2184  1  0.160900  0.047000  0.153000  1.0
  C  C2185  1  0.593600  0.442200  0.847000  1.0
  C  C2186  1  0.406400  0.557800  0.347000  1.0
  C  C2187  1  0.406400  0.442200  0.653000  1.0
  C  C2188  1  0.593600  0.557800  0.153000  1.0
  C  C2189  1  0.093600  0.942200  0.847000  1.0
  C  C2190  1  0.906400  0.057800  0.347000  1.0
  C  C2191  1  0.906400  0.942200  0.653000  1.0
  C  C2192  1  0.093600  0.057800  0.153000  1.0
  C  C2193  1  0.569600  0.402400  0.845500  1.0
  C  C2194  1  0.430400  0.597600  0.345500  1.0
  C  C2195  1  0.430400  0.402400  0.654500  1.0
  C  C2196  1  0.569600  0.597600  0.154500  1.0
  C  C2197  1  0.069600  0.902400  0.845500  1.0
  C  C2198  1  0.930400  0.097600  0.345500  1.0
  C  C2199  1  0.930400  0.902400  0.654500  1.0
  C  C2200  1  0.069600  0.097600  0.154500  1.0
  C  C2201  1  0.627100  0.379200  0.845800  1.0
  C  C2202  1  0.372900  0.620800  0.345800  1.0
  C  C2203  1  0.372900  0.379200  0.654200  1.0
  C  C2204  1  0.627100  0.620800  0.154200  1.0
  C  C2205  1  0.127100  0.879200  0.845800  1.0
  C  C2206  1  0.872900  0.120800  0.345800  1.0
  C  C2207  1  0.872900  0.879200  0.654200  1.0
  C  C2208  1  0.127100  0.120800  0.154200  1.0
  C  C2209  1  0.510800  0.640800  0.848300  1.0
  C  C2210  1  0.489200  0.359200  0.348300  1.0
  C  C2211  1  0.489200  0.640800  0.651700  1.0
  C  C2212  1  0.510800  0.359200  0.151700  1.0
  C  C2213  1  0.010800  0.140800  0.848300  1.0
  C  C2214  1  0.989200  0.859200  0.348300  1.0
  C  C2215  1  0.989200  0.140800  0.651700  1.0
  C  C2216  1  0.010800  0.859200  0.151700  1.0
  C  C2217  1  0.487700  0.601000  0.847600  1.0
  C  C2218  1  0.512300  0.399000  0.347600  1.0
  C  C2219  1  0.512300  0.601000  0.652400  1.0
  C  C2220  1  0.487700  0.399000  0.152400  1.0
  C  C2221  1  0.987700  0.101000  0.847600  1.0
  C  C2222  1  0.012300  0.899000  0.347600  1.0
  C  C2223  1  0.012300  0.101000  0.652400  1.0
  C  C2224  1  0.987700  0.899000  0.152400  1.0
  C  C2225  1  0.537200  0.575900  0.845800  1.0
  C  C2226  1  0.462800  0.424100  0.345800  1.0
  C  C2227  1  0.462800  0.575900  0.654200  1.0
  C  C2228  1  0.537200  0.424100  0.154200  1.0
  C  C2229  1  0.037200  0.075900  0.845800  1.0
  C  C2230  1  0.962800  0.924100  0.345800  1.0
  C  C2231  1  0.962800  0.075900  0.654200  1.0
  C  C2232  1  0.037200  0.924100  0.154200  1.0
  C  C2233  1  0.599200  0.584000  0.846300  1.0
  C  C2234  1  0.400800  0.416000  0.346300  1.0
  C  C2235  1  0.400800  0.584000  0.653700  1.0
  C  C2236  1  0.599200  0.416000  0.153700  1.0
  C  C2237  1  0.099200  0.084000  0.846300  1.0
  C  C2238  1  0.900800  0.916000  0.346300  1.0
  C  C2239  1  0.900800  0.084000  0.653700  1.0
  C  C2240  1  0.099200  0.916000  0.153700  1.0
  C  C2241  1  0.616700  0.624200  0.848800  1.0
  C  C2242  1  0.383300  0.375800  0.348800  1.0
  C  C2243  1  0.383300  0.624200  0.651200  1.0
  C  C2244  1  0.616700  0.375800  0.151200  1.0
  C  C2245  1  0.116700  0.124200  0.848800  1.0
  C  C2246  1  0.883300  0.875800  0.348800  1.0
  C  C2247  1  0.883300  0.124200  0.651200  1.0
  C  C2248  1  0.116700  0.875800  0.151200  1.0
  C  C2249  1  0.280300  0.433900  0.848600  1.0
  C  C2250  1  0.719700  0.566100  0.348600  1.0
  C  C2251  1  0.719700  0.433900  0.651400  1.0
  C  C2252  1  0.280300  0.566100  0.151400  1.0
  C  C2253  1  0.780300  0.933900  0.848600  1.0
  C  C2254  1  0.219700  0.066100  0.348600  1.0
  C  C2255  1  0.219700  0.933900  0.651400  1.0
  C  C2256  1  0.780300  0.066100  0.151400  1.0
  C  C2257  1  0.347700  0.443800  0.845800  1.0
  C  C2258  1  0.652300  0.556200  0.345800  1.0
  C  C2259  1  0.652300  0.443800  0.654200  1.0
  C  C2260  1  0.347700  0.556200  0.154200  1.0
  C  C2261  1  0.847700  0.943800  0.845800  1.0
  C  C2262  1  0.152300  0.056200  0.345800  1.0
  C  C2263  1  0.152300  0.943800  0.654200  1.0
  C  C2264  1  0.847700  0.056200  0.154200  1.0
  C  C2265  1  0.365500  0.480400  0.847800  1.0
  C  C2266  1  0.634500  0.519600  0.347800  1.0
  C  C2267  1  0.634500  0.480400  0.652200  1.0
  C  C2268  1  0.365500  0.519600  0.152200  1.0
  C  C2269  1  0.865500  0.980400  0.847800  1.0
  C  C2270  1  0.134500  0.019600  0.347800  1.0
  C  C2271  1  0.134500  0.980400  0.652200  1.0
  C  C2272  1  0.865500  0.019600  0.152200  1.0
  C  C2273  1  0.319700  0.514000  0.845700  1.0
  C  C2274  1  0.680300  0.486000  0.345700  1.0
  C  C2275  1  0.680300  0.514000  0.654300  1.0
  C  C2276  1  0.319700  0.486000  0.154300  1.0
  C  C2277  1  0.819700  0.014000  0.845700  1.0
  C  C2278  1  0.180300  0.986000  0.345700  1.0
  C  C2279  1  0.180300  0.014000  0.654300  1.0
  C  C2280  1  0.819700  0.986000  0.154300  1.0
  C  C2281  1  0.251800  0.498600  0.846600  1.0
  C  C2282  1  0.748200  0.501400  0.346600  1.0
  C  C2283  1  0.748200  0.498600  0.653400  1.0
  C  C2284  1  0.251800  0.501400  0.153400  1.0
  C  C2285  1  0.751800  0.998600  0.846600  1.0
  C  C2286  1  0.248200  0.001400  0.346600  1.0
  C  C2287  1  0.248200  0.998600  0.653400  1.0
  C  C2288  1  0.751800  0.001400  0.153400  1.0
  C  C2289  1  0.545100  0.473000  0.845700  1.0
  C  C2290  1  0.454900  0.527000  0.345700  1.0
  C  C2291  1  0.454900  0.473000  0.654300  1.0
  C  C2292  1  0.545100  0.527000  0.154300  1.0
  C  C2293  1  0.045100  0.973000  0.845700  1.0
  C  C2294  1  0.954900  0.027000  0.345700  1.0
  C  C2295  1  0.954900  0.973000  0.654300  1.0
  C  C2296  1  0.045100  0.027000  0.154300  1.0
  C  C2297  1  0.514600  0.534000  0.846000  1.0
  C  C2298  1  0.485400  0.466000  0.346000  1.0
  C  C2299  1  0.485400  0.534000  0.654000  1.0
  C  C2300  1  0.514600  0.466000  0.154000  1.0
  C  C2301  1  0.014600  0.034000  0.846000  1.0
  C  C2302  1  0.985400  0.966000  0.346000  1.0
  C  C2303  1  0.985400  0.034000  0.654000  1.0
  C  C2304  1  0.014600  0.966000  0.154000  1.0
  C  C2305  1  0.437100  0.489800  0.846300  1.0
  C  C2306  1  0.562900  0.510200  0.346300  1.0
  C  C2307  1  0.562900  0.489800  0.653700  1.0
  C  C2308  1  0.437100  0.510200  0.153700  1.0
  C  C2309  1  0.937100  0.989800  0.846300  1.0
  C  C2310  1  0.062900  0.010200  0.346300  1.0
  C  C2311  1  0.062900  0.989800  0.653700  1.0
  C  C2312  1  0.937100  0.010200  0.153700  1.0
  C  C2313  1  0.672100  0.690400  0.801500  1.0
  C  C2314  1  0.327900  0.309600  0.301500  1.0
  C  C2315  1  0.327900  0.690400  0.698500  1.0
  C  C2316  1  0.672100  0.309600  0.198500  1.0
  C  C2317  1  0.172100  0.190400  0.801500  1.0
  C  C2318  1  0.827900  0.809600  0.301500  1.0
  C  C2319  1  0.827900  0.190400  0.698500  1.0
  C  C2320  1  0.172100  0.809600  0.198500  1.0
  C  C2321  1  0.596800  0.697400  0.791100  1.0
  C  C2322  1  0.403200  0.302600  0.291100  1.0
  C  C2323  1  0.403200  0.697400  0.708900  1.0
  C  C2324  1  0.596800  0.302600  0.208900  1.0
  C  C2325  1  0.096800  0.197400  0.791100  1.0
  C  C2326  1  0.903200  0.802600  0.291100  1.0
  C  C2327  1  0.903200  0.197400  0.708900  1.0
  C  C2328  1  0.096800  0.802600  0.208900  1.0
  C  C2329  1  0.573900  0.695500  0.768600  1.0
  C  C2330  1  0.426100  0.304500  0.268600  1.0
  C  C2331  1  0.426100  0.695500  0.731400  1.0
  C  C2332  1  0.573900  0.304500  0.231400  1.0
  C  C2333  1  0.073900  0.195500  0.768600  1.0
  C  C2334  1  0.926100  0.804500  0.268600  1.0
  C  C2335  1  0.926100  0.195500  0.731400  1.0
  C  C2336  1  0.073900  0.804500  0.231400  1.0
  C  C2337  1  0.512900  0.710300  0.762600  1.0
  C  C2338  1  0.487100  0.289700  0.262600  1.0
  C  C2339  1  0.487100  0.710300  0.737400  1.0
  C  C2340  1  0.512900  0.289700  0.237400  1.0
  C  C2341  1  0.012900  0.210300  0.762600  1.0
  C  C2342  1  0.987100  0.789700  0.262600  1.0
  C  C2343  1  0.987100  0.210300  0.737400  1.0
  C  C2344  1  0.012900  0.789700  0.237400  1.0
  C  C2345  1  0.479300  0.721000  0.784700  1.0
  C  C2346  1  0.520700  0.279000  0.284700  1.0
  C  C2347  1  0.520700  0.721000  0.715300  1.0
  C  C2348  1  0.479300  0.279000  0.215300  1.0
  C  C2349  1  0.979300  0.221000  0.784700  1.0
  C  C2350  1  0.020700  0.779000  0.284700  1.0
  C  C2351  1  0.020700  0.221000  0.715300  1.0
  C  C2352  1  0.979300  0.779000  0.215300  1.0
  C  C2353  1  0.496600  0.720300  0.808000  1.0
  C  C2354  1  0.503400  0.279700  0.308000  1.0
  C  C2355  1  0.503400  0.720300  0.692000  1.0
  C  C2356  1  0.496600  0.279700  0.192000  1.0
  C  C2357  1  0.996600  0.220300  0.808000  1.0
  C  C2358  1  0.003400  0.779700  0.308000  1.0
  C  C2359  1  0.003400  0.220300  0.692000  1.0
  C  C2360  1  0.996600  0.779700  0.192000  1.0
  C  C2361  1  0.455600  0.729300  0.825900  1.0
  C  C2362  1  0.544400  0.270700  0.325900  1.0
  C  C2363  1  0.544400  0.729300  0.674100  1.0
  C  C2364  1  0.455600  0.270700  0.174100  1.0
  C  C2365  1  0.955600  0.229300  0.825900  1.0
  C  C2366  1  0.044400  0.770700  0.325900  1.0
  C  C2367  1  0.044400  0.229300  0.674100  1.0
  C  C2368  1  0.955600  0.770700  0.174100  1.0
  C  C2369  1  0.650000  0.767100  0.877100  1.0
  C  C2370  1  0.350000  0.232900  0.377100  1.0
  C  C2371  1  0.350000  0.767100  0.622900  1.0
  C  C2372  1  0.650000  0.232900  0.122900  1.0
  C  C2373  1  0.150000  0.267100  0.877100  1.0
  C  C2374  1  0.850000  0.732900  0.377100  1.0
  C  C2375  1  0.850000  0.267100  0.622900  1.0
  C  C2376  1  0.150000  0.732900  0.122900  1.0
  C  C2377  1  0.624000  0.740600  0.893700  1.0
  C  C2378  1  0.376000  0.259400  0.393700  1.0
  C  C2379  1  0.376000  0.740600  0.606300  1.0
  C  C2380  1  0.624000  0.259400  0.106300  1.0
  C  C2381  1  0.124000  0.240600  0.893700  1.0
  C  C2382  1  0.876000  0.759400  0.393700  1.0
  C  C2383  1  0.876000  0.240600  0.606300  1.0
  C  C2384  1  0.124000  0.759400  0.106300  1.0
  C  C2385  1  0.694800  0.325500  0.799500  1.0
  C  C2386  1  0.305200  0.674500  0.299500  1.0
  C  C2387  1  0.305200  0.325500  0.700500  1.0
  C  C2388  1  0.694800  0.674500  0.200500  1.0
  C  C2389  1  0.194800  0.825500  0.799500  1.0
  C  C2390  1  0.805200  0.174500  0.299500  1.0
  C  C2391  1  0.805200  0.825500  0.700500  1.0
  C  C2392  1  0.194800  0.174500  0.200500  1.0
  C  C2393  1  0.746700  0.349500  0.791500  1.0
  C  C2394  1  0.253300  0.650500  0.291500  1.0
  C  C2395  1  0.253300  0.349500  0.708500  1.0
  C  C2396  1  0.746700  0.650500  0.208500  1.0
  C  C2397  1  0.246700  0.849500  0.791500  1.0
  C  C2398  1  0.753300  0.150500  0.291500  1.0
  C  C2399  1  0.753300  0.849500  0.708500  1.0
  C  C2400  1  0.246700  0.150500  0.208500  1.0
  C  C2401  1  0.754500  0.363700  0.766800  1.0
  C  C2402  1  0.245500  0.636300  0.266800  1.0
  C  C2403  1  0.245500  0.363700  0.733200  1.0
  C  C2404  1  0.754500  0.636300  0.233200  1.0
  C  C2405  1  0.254500  0.863700  0.766800  1.0
  C  C2406  1  0.745500  0.136300  0.266800  1.0
  C  C2407  1  0.745500  0.863700  0.733200  1.0
  C  C2408  1  0.254500  0.136300  0.233200  1.0
  C  C2409  1  0.802400  0.385900  0.760400  1.0
  C  C2410  1  0.197600  0.614100  0.260400  1.0
  C  C2411  1  0.197600  0.385900  0.739600  1.0
  C  C2412  1  0.802400  0.614100  0.239600  1.0
  C  C2413  1  0.302400  0.885900  0.760400  1.0
  C  C2414  1  0.697600  0.114100  0.260400  1.0
  C  C2415  1  0.697600  0.885900  0.739600  1.0
  C  C2416  1  0.302400  0.114100  0.239600  1.0
  C  C2417  1  0.841900  0.402500  0.788000  1.0
  C  C2418  1  0.158100  0.597500  0.288000  1.0
  C  C2419  1  0.158100  0.402500  0.712000  1.0
  C  C2420  1  0.841900  0.597500  0.212000  1.0
  C  C2421  1  0.341900  0.902500  0.788000  1.0
  C  C2422  1  0.658100  0.097500  0.288000  1.0
  C  C2423  1  0.658100  0.902500  0.712000  1.0
  C  C2424  1  0.341900  0.097500  0.212000  1.0
  C  C2425  1  0.828900  0.388300  0.807500  1.0
  C  C2426  1  0.171100  0.611700  0.307500  1.0
  C  C2427  1  0.171100  0.388300  0.692500  1.0
  C  C2428  1  0.828900  0.611700  0.192500  1.0
  C  C2429  1  0.328900  0.888300  0.807500  1.0
  C  C2430  1  0.671100  0.111700  0.307500  1.0
  C  C2431  1  0.671100  0.888300  0.692500  1.0
  C  C2432  1  0.328900  0.111700  0.192500  1.0
  C  C2433  1  0.870500  0.406900  0.825200  1.0
  C  C2434  1  0.129500  0.593100  0.325200  1.0
  C  C2435  1  0.129500  0.406900  0.674800  1.0
  C  C2436  1  0.870500  0.593100  0.174800  1.0
  C  C2437  1  0.370500  0.906900  0.825200  1.0
  C  C2438  1  0.629500  0.093100  0.325200  1.0
  C  C2439  1  0.629500  0.906900  0.674800  1.0
  C  C2440  1  0.370500  0.093100  0.174800  1.0
  C  C2441  1  0.839000  0.298900  0.868900  1.0
  C  C2442  1  0.161000  0.701100  0.368900  1.0
  C  C2443  1  0.161000  0.298900  0.631100  1.0
  C  C2444  1  0.839000  0.701100  0.131100  1.0
  C  C2445  1  0.339000  0.798900  0.868900  1.0
  C  C2446  1  0.661000  0.201100  0.368900  1.0
  C  C2447  1  0.661000  0.798900  0.631100  1.0
  C  C2448  1  0.339000  0.201100  0.131100  1.0
  C  C2449  1  0.819000  0.311300  0.898500  1.0
  C  C2450  1  0.181000  0.688700  0.398500  1.0
  C  C2451  1  0.181000  0.311300  0.601500  1.0
  C  C2452  1  0.819000  0.688700  0.101500  1.0
  C  C2453  1  0.319000  0.811300  0.898500  1.0
  C  C2454  1  0.681000  0.188700  0.398500  1.0
  C  C2455  1  0.681000  0.811300  0.601500  1.0
  C  C2456  1  0.319000  0.188700  0.101500  1.0
  C  C2457  1  0.146600  0.489900  0.799100  1.0
  C  C2458  1  0.853400  0.510100  0.299100  1.0
  C  C2459  1  0.853400  0.489900  0.700900  1.0
  C  C2460  1  0.146600  0.510100  0.200900  1.0
  C  C2461  1  0.646600  0.989900  0.799100  1.0
  C  C2462  1  0.353400  0.010100  0.299100  1.0
  C  C2463  1  0.353400  0.989900  0.700900  1.0
  C  C2464  1  0.646600  0.010100  0.200900  1.0
  C  C2465  1  0.150900  0.452600  0.790600  1.0
  C  C2466  1  0.849100  0.547400  0.290600  1.0
  C  C2467  1  0.849100  0.452600  0.709400  1.0
  C  C2468  1  0.150900  0.547400  0.209400  1.0
  C  C2469  1  0.650900  0.952600  0.790600  1.0
  C  C2470  1  0.349100  0.047400  0.290600  1.0
  C  C2471  1  0.349100  0.952600  0.709400  1.0
  C  C2472  1  0.650900  0.047400  0.209400  1.0
  C  C2473  1  0.165500  0.442900  0.768100  1.0
  C  C2474  1  0.834500  0.557100  0.268100  1.0
  C  C2475  1  0.834500  0.442900  0.731900  1.0
  C  C2476  1  0.165500  0.557100  0.231900  1.0
  C  C2477  1  0.665500  0.942900  0.768100  1.0
  C  C2478  1  0.334500  0.057100  0.268100  1.0
  C  C2479  1  0.334500  0.942900  0.731900  1.0
  C  C2480  1  0.665500  0.057100  0.231900  1.0
  C  C2481  1  0.819500  0.403800  0.735900  1.0
  C  C2482  1  0.180500  0.596200  0.235900  1.0
  C  C2483  1  0.180500  0.403800  0.764100  1.0
  C  C2484  1  0.819500  0.596200  0.264100  1.0
  C  C2485  1  0.319500  0.903800  0.735900  1.0
  C  C2486  1  0.680500  0.096200  0.235900  1.0
  C  C2487  1  0.680500  0.903800  0.764100  1.0
  C  C2488  1  0.319500  0.096200  0.264100  1.0
  C  C2489  1  0.819600  0.379000  0.715900  1.0
  C  C2490  1  0.180400  0.621000  0.215900  1.0
  C  C2491  1  0.180400  0.379000  0.784100  1.0
  C  C2492  1  0.819600  0.621000  0.284100  1.0
  C  C2493  1  0.319600  0.879000  0.715900  1.0
  C  C2494  1  0.680400  0.121000  0.215900  1.0
  C  C2495  1  0.680400  0.879000  0.784100  1.0
  C  C2496  1  0.319600  0.121000  0.284100  1.0
  C  C2497  1  0.168000  0.388300  0.806200  1.0
  C  C2498  1  0.832000  0.611700  0.306200  1.0
  C  C2499  1  0.832000  0.388300  0.693800  1.0
  C  C2500  1  0.168000  0.611700  0.193800  1.0
  C  C2501  1  0.668000  0.888300  0.806200  1.0
  C  C2502  1  0.332000  0.111700  0.306200  1.0
  C  C2503  1  0.332000  0.888300  0.693800  1.0
  C  C2504  1  0.668000  0.111700  0.193800  1.0
  C  C2505  1  0.174700  0.362500  0.830300  1.0
  C  C2506  1  0.825300  0.637500  0.330300  1.0
  C  C2507  1  0.825300  0.362500  0.669700  1.0
  C  C2508  1  0.174700  0.637500  0.169700  1.0
  C  C2509  1  0.674700  0.862500  0.830300  1.0
  C  C2510  1  0.325300  0.137500  0.330300  1.0
  C  C2511  1  0.325300  0.862500  0.669700  1.0
  C  C2512  1  0.674700  0.137500  0.169700  1.0
  C  C2513  1  0.028100  0.449800  0.879000  1.0
  C  C2514  1  0.971900  0.550200  0.379000  1.0
  C  C2515  1  0.971900  0.449800  0.621000  1.0
  C  C2516  1  0.028100  0.550200  0.121000  1.0
  C  C2517  1  0.528100  0.949800  0.879000  1.0
  C  C2518  1  0.471900  0.050200  0.379000  1.0
  C  C2519  1  0.471900  0.949800  0.621000  1.0
  C  C2520  1  0.528100  0.050200  0.121000  1.0
  C  C2521  1  0.080000  0.443300  0.896100  1.0
  C  C2522  1  0.920000  0.556700  0.396100  1.0
  C  C2523  1  0.920000  0.443300  0.603900  1.0
  C  C2524  1  0.080000  0.556700  0.103900  1.0
  C  C2525  1  0.580000  0.943300  0.896100  1.0
  C  C2526  1  0.420000  0.056700  0.396100  1.0
  C  C2527  1  0.420000  0.943300  0.603900  1.0
  C  C2528  1  0.580000  0.056700  0.103900  1.0
  N  N2529  1  0.435600  0.487500  0.906100  1.0
  N  N2530  1  0.564400  0.512500  0.406100  1.0
  N  N2531  1  0.564400  0.487500  0.593900  1.0
  N  N2532  1  0.435600  0.512500  0.093900  1.0
  N  N2533  1  0.935600  0.987500  0.906100  1.0
  N  N2534  1  0.064400  0.012500  0.406100  1.0
  N  N2535  1  0.064400  0.987500  0.593900  1.0
  N  N2536  1  0.935600  0.012500  0.093900  1.0
  N  N2537  1  0.754800  0.549100  0.909100  1.0
  N  N2538  1  0.245200  0.450900  0.409100  1.0
  N  N2539  1  0.245200  0.549100  0.590900  1.0
  N  N2540  1  0.754800  0.450900  0.090900  1.0
  N  N2541  1  0.254800  0.049100  0.909100  1.0
  N  N2542  1  0.745200  0.950900  0.409100  1.0
  N  N2543  1  0.745200  0.049100  0.590900  1.0
  N  N2544  1  0.254800  0.950900  0.090900  1.0
  N  N2545  1  0.513000  0.537700  0.906700  1.0
  N  N2546  1  0.487000  0.462300  0.406700  1.0
  N  N2547  1  0.487000  0.537700  0.593300  1.0
  N  N2548  1  0.513000  0.462300  0.093300  1.0
  N  N2549  1  0.013000  0.037700  0.906700  1.0
  N  N2550  1  0.987000  0.962300  0.406700  1.0
  N  N2551  1  0.987000  0.037700  0.593300  1.0
  N  N2552  1  0.013000  0.962300  0.093300  1.0
  N  N2553  1  0.549500  0.474300  0.906700  1.0
  N  N2554  1  0.450500  0.525700  0.406700  1.0
  N  N2555  1  0.450500  0.474300  0.593300  1.0
  N  N2556  1  0.549500  0.525700  0.093300  1.0
  N  N2557  1  0.049500  0.974300  0.906700  1.0
  N  N2558  1  0.950500  0.025700  0.406700  1.0
  N  N2559  1  0.950500  0.974300  0.593300  1.0
  N  N2560  1  0.049500  0.025700  0.093300  1.0
  N  N2561  1  0.447700  0.347800  0.906800  1.0
  N  N2562  1  0.552300  0.652200  0.406800  1.0
  N  N2563  1  0.552300  0.347800  0.593200  1.0
  N  N2564  1  0.447700  0.652200  0.093200  1.0
  N  N2565  1  0.947700  0.847800  0.906800  1.0
  N  N2566  1  0.052300  0.152200  0.406800  1.0
  N  N2567  1  0.052300  0.847800  0.593200  1.0
  N  N2568  1  0.947700  0.152200  0.093200  1.0
  N  N2569  1  0.298400  0.605100  0.908500  1.0
  N  N2570  1  0.701600  0.394900  0.408500  1.0
  N  N2571  1  0.701600  0.605100  0.591500  1.0
  N  N2572  1  0.298400  0.394900  0.091500  1.0
  N  N2573  1  0.798400  0.105100  0.908500  1.0
  N  N2574  1  0.201600  0.894900  0.408500  1.0
  N  N2575  1  0.201600  0.105100  0.591500  1.0
  N  N2576  1  0.798400  0.894900  0.091500  1.0
  N  N2577  1  0.243800  0.661600  0.940600  1.0
  N  N2578  1  0.756200  0.338400  0.440600  1.0
  N  N2579  1  0.756200  0.661600  0.559400  1.0
  N  N2580  1  0.243800  0.338400  0.059400  1.0
  N  N2581  1  0.743800  0.161600  0.940600  1.0
  N  N2582  1  0.256200  0.838400  0.440600  1.0
  N  N2583  1  0.256200  0.161600  0.559400  1.0
  N  N2584  1  0.743800  0.838400  0.059400  1.0
  N  N2585  1  0.384500  0.296600  0.942300  1.0
  N  N2586  1  0.615500  0.703400  0.442300  1.0
  N  N2587  1  0.615500  0.296600  0.557700  1.0
  N  N2588  1  0.384500  0.703400  0.057700  1.0
  N  N2589  1  0.884500  0.796600  0.942300  1.0
  N  N2590  1  0.115500  0.203400  0.442300  1.0
  N  N2591  1  0.115500  0.796600  0.557700  1.0
  N  N2592  1  0.884500  0.203400  0.057700  1.0
  N  N2593  1  0.406100  0.241400  0.903600  1.0
  N  N2594  1  0.593900  0.758600  0.403600  1.0
  N  N2595  1  0.593900  0.241400  0.596400  1.0
  N  N2596  1  0.406100  0.758600  0.096400  1.0
  N  N2597  1  0.906100  0.741400  0.903600  1.0
  N  N2598  1  0.093900  0.258600  0.403600  1.0
  N  N2599  1  0.093900  0.741400  0.596400  1.0
  N  N2600  1  0.906100  0.258600  0.096400  1.0
  N  N2601  1  0.462400  0.284500  0.871800  1.0
  N  N2602  1  0.537600  0.715500  0.371800  1.0
  N  N2603  1  0.537600  0.284500  0.628200  1.0
  N  N2604  1  0.462400  0.715500  0.128200  1.0
  N  N2605  1  0.962400  0.784500  0.871800  1.0
  N  N2606  1  0.037600  0.215500  0.371800  1.0
  N  N2607  1  0.037600  0.784500  0.628200  1.0
  N  N2608  1  0.962400  0.215500  0.128200  1.0
  N  N2609  1  0.198900  0.624500  0.876700  1.0
  N  N2610  1  0.801100  0.375500  0.376700  1.0
  N  N2611  1  0.801100  0.624500  0.623300  1.0
  N  N2612  1  0.198900  0.375500  0.123300  1.0
  N  N2613  1  0.698900  0.124500  0.876700  1.0
  N  N2614  1  0.301100  0.875500  0.376700  1.0
  N  N2615  1  0.301100  0.124500  0.623300  1.0
  N  N2616  1  0.698900  0.875500  0.123300  1.0
  N  N2617  1  0.152900  0.679900  0.903600  1.0
  N  N2618  1  0.847100  0.320100  0.403600  1.0
  N  N2619  1  0.847100  0.679900  0.596400  1.0
  N  N2620  1  0.152900  0.320100  0.096400  1.0
  N  N2621  1  0.652900  0.179900  0.903600  1.0
  N  N2622  1  0.347100  0.820100  0.403600  1.0
  N  N2623  1  0.347100  0.179900  0.596400  1.0
  N  N2624  1  0.652900  0.820100  0.096400  1.0
  N  N2625  1  0.866200  0.542300  0.942000  1.0
  N  N2626  1  0.133800  0.457700  0.442000  1.0
  N  N2627  1  0.133800  0.542300  0.558000  1.0
  N  N2628  1  0.866200  0.457700  0.058000  1.0
  N  N2629  1  0.366200  0.042300  0.942000  1.0
  N  N2630  1  0.633800  0.957700  0.442000  1.0
  N  N2631  1  0.633800  0.042300  0.558000  1.0
  N  N2632  1  0.366200  0.957700  0.058000  1.0
  N  N2633  1  0.942900  0.584700  0.905700  1.0
  N  N2634  1  0.057100  0.415300  0.405700  1.0
  N  N2635  1  0.057100  0.584700  0.594300  1.0
  N  N2636  1  0.942900  0.415300  0.094300  1.0
  N  N2637  1  0.442900  0.084700  0.905700  1.0
  N  N2638  1  0.557100  0.915300  0.405700  1.0
  N  N2639  1  0.557100  0.084700  0.594300  1.0
  N  N2640  1  0.442900  0.915300  0.094300  1.0
  N  N2641  1  0.840100  0.590100  0.879000  1.0
  N  N2642  1  0.159900  0.409900  0.379000  1.0
  N  N2643  1  0.159900  0.590100  0.621000  1.0
  N  N2644  1  0.840100  0.409900  0.121000  1.0
  N  N2645  1  0.340100  0.090100  0.879000  1.0
  N  N2646  1  0.659900  0.909900  0.379000  1.0
  N  N2647  1  0.659900  0.090100  0.621000  1.0
  N  N2648  1  0.340100  0.909900  0.121000  1.0
  N  N2649  1  0.688600  0.389100  0.848900  1.0
  N  N2650  1  0.311400  0.610900  0.348900  1.0
  N  N2651  1  0.311400  0.389100  0.651100  1.0
  N  N2652  1  0.688600  0.610900  0.151100  1.0
  N  N2653  1  0.188600  0.889100  0.848900  1.0
  N  N2654  1  0.811400  0.110900  0.348900  1.0
  N  N2655  1  0.811400  0.889100  0.651100  1.0
  N  N2656  1  0.188600  0.110900  0.151100  1.0
  N  N2657  1  0.570900  0.649500  0.849100  1.0
  N  N2658  1  0.429100  0.350500  0.349100  1.0
  N  N2659  1  0.429100  0.649500  0.650900  1.0
  N  N2660  1  0.570900  0.350500  0.150900  1.0
  N  N2661  1  0.070900  0.149500  0.849100  1.0
  N  N2662  1  0.929100  0.850500  0.349100  1.0
  N  N2663  1  0.929100  0.149500  0.650900  1.0
  N  N2664  1  0.070900  0.850500  0.150900  1.0
  N  N2665  1  0.235400  0.462300  0.847400  1.0
  N  N2666  1  0.764600  0.537700  0.347400  1.0
  N  N2667  1  0.764600  0.462300  0.652600  1.0
  N  N2668  1  0.235400  0.537700  0.152600  1.0
  N  N2669  1  0.735400  0.962300  0.847400  1.0
  N  N2670  1  0.264600  0.037700  0.347400  1.0
  N  N2671  1  0.264600  0.962300  0.652600  1.0
  N  N2672  1  0.735400  0.037700  0.152600  1.0
  N  N2673  1  0.566200  0.509800  0.846600  1.0
  N  N2674  1  0.433800  0.490200  0.346600  1.0
  N  N2675  1  0.433800  0.509800  0.653400  1.0
  N  N2676  1  0.566200  0.490200  0.153400  1.0
  N  N2677  1  0.066200  0.009800  0.846600  1.0
  N  N2678  1  0.933800  0.990200  0.346600  1.0
  N  N2679  1  0.933800  0.009800  0.653400  1.0
  N  N2680  1  0.066200  0.990200  0.153400  1.0
  N  N2681  1  0.449700  0.528500  0.845800  1.0
  N  N2682  1  0.550300  0.471500  0.345800  1.0
  N  N2683  1  0.550300  0.528500  0.654200  1.0
  N  N2684  1  0.449700  0.471500  0.154200  1.0
  N  N2685  1  0.949700  0.028500  0.845800  1.0
  N  N2686  1  0.050300  0.971500  0.345800  1.0
  N  N2687  1  0.050300  0.028500  0.654200  1.0
  N  N2688  1  0.949700  0.971500  0.154200  1.0
  N  N2689  1  0.480900  0.463000  0.847300  1.0
  N  N2690  1  0.519100  0.537000  0.347300  1.0
  N  N2691  1  0.519100  0.463000  0.652700  1.0
  N  N2692  1  0.480900  0.537000  0.152700  1.0
  N  N2693  1  0.980900  0.963000  0.847300  1.0
  N  N2694  1  0.019100  0.037000  0.347300  1.0
  N  N2695  1  0.019100  0.963000  0.652700  1.0
  N  N2696  1  0.980900  0.037000  0.152700  1.0
  N  N2697  1  0.560800  0.707800  0.811100  1.0
  N  N2698  1  0.439200  0.292200  0.311100  1.0
  N  N2699  1  0.439200  0.707800  0.688900  1.0
  N  N2700  1  0.560800  0.292200  0.188900  1.0
  N  N2701  1  0.060800  0.207800  0.811100  1.0
  N  N2702  1  0.939200  0.792200  0.311100  1.0
  N  N2703  1  0.939200  0.207800  0.688900  1.0
  N  N2704  1  0.060800  0.792200  0.188900  1.0
  N  N2705  1  0.620300  0.758400  0.848700  1.0
  N  N2706  1  0.379700  0.241600  0.348700  1.0
  N  N2707  1  0.379700  0.758400  0.651300  1.0
  N  N2708  1  0.620300  0.241600  0.151300  1.0
  N  N2709  1  0.120300  0.258400  0.848700  1.0
  N  N2710  1  0.879700  0.741600  0.348700  1.0
  N  N2711  1  0.879700  0.258400  0.651300  1.0
  N  N2712  1  0.120300  0.741600  0.151300  1.0
  N  N2713  1  0.633400  0.703300  0.879900  1.0
  N  N2714  1  0.366600  0.296700  0.379900  1.0
  N  N2715  1  0.366600  0.703300  0.620100  1.0
  N  N2716  1  0.633400  0.296700  0.120100  1.0
  N  N2717  1  0.133400  0.203300  0.879900  1.0
  N  N2718  1  0.866600  0.796700  0.379900  1.0
  N  N2719  1  0.866600  0.203300  0.620100  1.0
  N  N2720  1  0.133400  0.796700  0.120100  1.0
  N  N2721  1  0.782100  0.366000  0.811300  1.0
  N  N2722  1  0.217900  0.634000  0.311300  1.0
  N  N2723  1  0.217900  0.366000  0.688700  1.0
  N  N2724  1  0.782100  0.634000  0.188700  1.0
  N  N2725  1  0.282100  0.866000  0.811300  1.0
  N  N2726  1  0.717900  0.134000  0.311300  1.0
  N  N2727  1  0.717900  0.866000  0.688700  1.0
  N  N2728  1  0.282100  0.134000  0.188700  1.0
  N  N2729  1  0.827300  0.310200  0.847400  1.0
  N  N2730  1  0.172700  0.689800  0.347400  1.0
  N  N2731  1  0.172700  0.310200  0.652600  1.0
  N  N2732  1  0.827300  0.689800  0.152600  1.0
  N  N2733  1  0.327300  0.810200  0.847400  1.0
  N  N2734  1  0.672700  0.189800  0.347400  1.0
  N  N2735  1  0.672700  0.810200  0.652600  1.0
  N  N2736  1  0.327300  0.189800  0.152600  1.0
  N  N2737  1  0.744800  0.333600  0.882700  1.0
  N  N2738  1  0.255200  0.666400  0.382700  1.0
  N  N2739  1  0.255200  0.333600  0.617300  1.0
  N  N2740  1  0.744800  0.666400  0.117300  1.0
  N  N2741  1  0.244800  0.833600  0.882700  1.0
  N  N2742  1  0.755200  0.166400  0.382700  1.0
  N  N2743  1  0.755200  0.833600  0.617300  1.0
  N  N2744  1  0.244800  0.166400  0.117300  1.0
  N  N2745  1  0.149800  0.430100  0.812500  1.0
  N  N2746  1  0.850200  0.569900  0.312500  1.0
  N  N2747  1  0.850200  0.430100  0.687500  1.0
  N  N2748  1  0.149800  0.569900  0.187500  1.0
  N  N2749  1  0.649800  0.930100  0.812500  1.0
  N  N2750  1  0.350200  0.069900  0.312500  1.0
  N  N2751  1  0.350200  0.930100  0.687500  1.0
  N  N2752  1  0.649800  0.069900  0.187500  1.0
  N  N2753  1  0.046900  0.425200  0.853200  1.0
  N  N2754  1  0.953100  0.574800  0.353200  1.0
  N  N2755  1  0.953100  0.425200  0.646800  1.0
  N  N2756  1  0.046900  0.574800  0.146800  1.0
  N  N2757  1  0.546900  0.925200  0.853200  1.0
  N  N2758  1  0.453100  0.074800  0.353200  1.0
  N  N2759  1  0.453100  0.925200  0.646800  1.0
  N  N2760  1  0.546900  0.074800  0.146800  1.0
  N  N2761  1  0.134000  0.461400  0.880700  1.0
  N  N2762  1  0.866000  0.538600  0.380700  1.0
  N  N2763  1  0.866000  0.461400  0.619300  1.0
  N  N2764  1  0.134000  0.538600  0.119300  1.0
  N  N2765  1  0.634000  0.961400  0.880700  1.0
  N  N2766  1  0.366000  0.038600  0.380700  1.0
  N  N2767  1  0.366000  0.961400  0.619300  1.0
  N  N2768  1  0.634000  0.038600  0.119300  1.0
  O  O2769  1  0.766000  0.529300  0.835000  1
  O  O2770  1  0.234000  0.470700  0.335000  1
  O  O2771  1  0.234000  0.529300  0.665000  1
  O  O2772  1  0.766000  0.470700  0.165000  1
  O  O2773  1  0.266000  0.029300  0.835000  1
  O  O2774  1  0.734000  0.970700  0.335000  1
  O  O2775  1  0.734000  0.029300  0.665000  1
  O  O2776  1  0.266000  0.970700  0.165000  1
  O  O2777  1  0.803000  0.484600  0.814000  1
  O  O2778  1  0.197000  0.515400  0.314000  1
  O  O2779  1  0.197000  0.484600  0.686000  1
  O  O2780  1  0.803000  0.515400  0.186000  1
  O  O2781  1  0.303000  0.984600  0.814000  1
  O  O2782  1  0.697000  0.015400  0.314000  1
  O  O2783  1  0.697000  0.984600  0.686000  1
  O  O2784  1  0.303000  0.015400  0.186000  1
  O  O2785  1  0.344000  0.665900  0.859100  1
  O  O2786  1  0.656000  0.334100  0.359100  1
  O  O2787  1  0.656000  0.665900  0.640900  1
  O  O2788  1  0.344000  0.334100  0.140900  1
  O  O2789  1  0.844000  0.165900  0.859100  1
  O  O2790  1  0.156000  0.834100  0.359100  1
  O  O2791  1  0.156000  0.165900  0.640900  1
  O  O2792  1  0.844000  0.834100  0.140900  1
  O  O2793  1  0.309000  0.374900  0.571400  1
  O  O2794  1  0.691000  0.625100  0.071400  1
  O  O2795  1  0.691000  0.374900  0.928600  1
  O  O2796  1  0.309000  0.625100  0.428600  1
  O  O2797  1  0.809000  0.874900  0.571400  1
  O  O2798  1  0.191000  0.125100  0.071400  1
  O  O2799  1  0.191000  0.874900  0.928600  1
  O  O2800  1  0.809000  0.125100  0.428600  1
  O  O2801  1  0.806000  0.148200  0.765400  1
  O  O2802  1  0.194000  0.851800  0.265400  1
  O  O2803  1  0.194000  0.148200  0.734600  1
  O  O2804  1  0.806000  0.851800  0.234600  1
  O  O2805  1  0.306000  0.648200  0.765400  1
  O  O2806  1  0.694000  0.351800  0.265400  1
  O  O2807  1  0.694000  0.648200  0.734600  1
  O  O2808  1  0.306000  0.351800  0.234600  1
  O  O2809  1  0.828000  0.424900  0.891100  1
  O  O2810  1  0.172000  0.575100  0.391100  1
  O  O2811  1  0.172000  0.424900  0.608900  1
  O  O2812  1  0.828000  0.575100  0.108900  1
  O  O2813  1  0.328000  0.924900  0.891100  1
  O  O2814  1  0.672000  0.075100  0.391100  1
  O  O2815  1  0.672000  0.924900  0.608900  1
  O  O2816  1  0.328000  0.075100  0.108900  1
  O  O2817  1  0.244000  0.446400  0.912000  1
  O  O2818  1  0.756000  0.553600  0.412000  1
  O  O2819  1  0.756000  0.446400  0.588000  1
  O  O2820  1  0.244000  0.553600  0.088000  1
  O  O2821  1  0.744000  0.946400  0.912000  1
  O  O2822  1  0.256000  0.053600  0.412000  1
  O  O2823  1  0.256000  0.946400  0.588000  1
  O  O2824  1  0.744000  0.053600  0.088000  1
  O  O2825  1  0.842000  0.280700  0.761300  1
  O  O2826  1  0.158000  0.719300  0.261300  1
  O  O2827  1  0.158000  0.280700  0.738700  1
  O  O2828  1  0.842000  0.719300  0.238700  1
  O  O2829  1  0.342000  0.780700  0.761300  1
  O  O2830  1  0.658000  0.219300  0.261300  1
  O  O2831  1  0.658000  0.780700  0.738700  1
  O  O2832  1  0.342000  0.219300  0.238700  1
  O  O2833  1  0.317100  0.612200  0.846000  1
  O  O2834  1  0.682900  0.387800  0.346000  1
  O  O2835  1  0.682900  0.612200  0.654000  1
  O  O2836  1  0.317100  0.387800  0.154000  1
  O  O2837  1  0.817100  0.112200  0.846000  1
  O  O2838  1  0.182900  0.887800  0.346000  1
  O  O2839  1  0.182900  0.112200  0.654000  1
  O  O2840  1  0.817100  0.887800  0.154000  1
  O  O2841  1  0.713000  0.738000  0.669600  1
  O  O2842  1  0.287000  0.262000  0.169600  1
  O  O2843  1  0.287000  0.738000  0.830400  1
  O  O2844  1  0.713000  0.262000  0.330400  1
  O  O2845  1  0.213000  0.238000  0.669600  1
  O  O2846  1  0.787000  0.762000  0.169600  1
  O  O2847  1  0.787000  0.238000  0.830400  1
  O  O2848  1  0.213000  0.762000  0.330400  1
  O  O2849  1  0.637000  0.331000  0.736000  1
  O  O2850  1  0.363000  0.669000  0.236000  1
  O  O2851  1  0.363000  0.331000  0.764000  1
  O  O2852  1  0.637000  0.669000  0.264000  1
  O  O2853  1  0.137000  0.831000  0.736000  1
  O  O2854  1  0.863000  0.169000  0.236000  1
  O  O2855  1  0.863000  0.831000  0.764000  1
  O  O2856  1  0.137000  0.169000  0.264000  1
  O  O2857  1  0.349000  0.357000  0.818000  1
  O  O2858  1  0.651000  0.643000  0.318000  1
  O  O2859  1  0.651000  0.357000  0.682000  1
  O  O2860  1  0.349000  0.643000  0.182000  1
  O  O2861  1  0.849000  0.857000  0.818000  1
  O  O2862  1  0.151000  0.143000  0.318000  1
  O  O2863  1  0.151000  0.857000  0.682000  1
  O  O2864  1  0.849000  0.143000  0.182000  1
  O  O2865  1  0.344000  0.654000  0.820500  1
  O  O2866  1  0.656000  0.346000  0.320500  1
  O  O2867  1  0.656000  0.654000  0.679500  1
  O  O2868  1  0.344000  0.346000  0.179500  1
  O  O2869  1  0.844000  0.154000  0.820500  1
  O  O2870  1  0.156000  0.846000  0.320500  1
  O  O2871  1  0.156000  0.154000  0.679500  1
  O  O2872  1  0.844000  0.846000  0.179500  1
  O  O2873  1  0.317800  0.327800  0.864100  1
  O  O2874  1  0.682200  0.672200  0.364100  1
  O  O2875  1  0.682200  0.327800  0.635900  1
  O  O2876  1  0.317800  0.672200  0.135900  1
  O  O2877  1  0.817800  0.827800  0.864100  1
  O  O2878  1  0.182200  0.172200  0.364100  1
  O  O2879  1  0.182200  0.827800  0.635900  1
  O  O2880  1  0.817800  0.172200  0.135900  1
  O  O2881  1  0.099600  0.586300  0.901500  1
  O  O2882  1  0.900400  0.413700  0.401500  1
  O  O2883  1  0.900400  0.586300  0.598500  1
  O  O2884  1  0.099600  0.413700  0.098500  1
  O  O2885  1  0.599600  0.086300  0.901500  1
  O  O2886  1  0.400400  0.913700  0.401500  1
  O  O2887  1  0.400400  0.086300  0.598500  1
  O  O2888  1  0.599600  0.913700  0.098500  1
  O  O2889  1  0.857900  0.495000  0.868000  1
  O  O2890  1  0.142100  0.505000  0.368000  1
  O  O2891  1  0.142100  0.495000  0.632000  1
  O  O2892  1  0.857900  0.505000  0.132000  1
  O  O2893  1  0.357900  0.995000  0.868000  1
  O  O2894  1  0.642100  0.005000  0.368000  1
  O  O2895  1  0.642100  0.995000  0.632000  1
  O  O2896  1  0.357900  0.005000  0.132000  1
  O  O2897  1  0.002000  0.430100  0.794100  1
  O  O2898  1  0.998000  0.569900  0.294100  1
  O  O2899  1  0.998000  0.430100  0.705900  1
  O  O2900  1  0.002000  0.569900  0.205900  1
  O  O2901  1  0.502000  0.930100  0.794100  1
  O  O2902  1  0.498000  0.069900  0.294100  1
  O  O2903  1  0.498000  0.930100  0.705900  1
  O  O2904  1  0.502000  0.069900  0.205900  1
  O  O2905  1  0.531000  0.662800  0.913900  1
  O  O2906  1  0.469000  0.337200  0.413900  1
  O  O2907  1  0.469000  0.662800  0.586100  1
  O  O2908  1  0.531000  0.337200  0.086100  1
  O  O2909  1  0.031000  0.162800  0.913900  1
  O  O2910  1  0.969000  0.837200  0.413900  1
  O  O2911  1  0.969000  0.162800  0.586100  1
  O  O2912  1  0.031000  0.837200  0.086100  1
  O  O2913  1  0.052000  0.536200  0.889500  1
  O  O2914  1  0.948000  0.463800  0.389500  1
  O  O2915  1  0.948000  0.536200  0.610500  1
  O  O2916  1  0.052000  0.463800  0.110500  1
  O  O2917  1  0.552000  0.036200  0.889500  1
  O  O2918  1  0.448000  0.963800  0.389500  1
  O  O2919  1  0.448000  0.036200  0.610500  1
  O  O2920  1  0.552000  0.963800  0.110500  1
  O  O2921  1  0.777000  0.653600  0.854600  1
  O  O2922  1  0.223000  0.346400  0.354600  1
  O  O2923  1  0.223000  0.653600  0.645400  1
  O  O2924  1  0.777000  0.346400  0.145400  1
  O  O2925  1  0.277000  0.153600  0.854600  1
  O  O2926  1  0.723000  0.846400  0.354600  1
  O  O2927  1  0.723000  0.153600  0.645400  1
  O  O2928  1  0.277000  0.846400  0.145400  1
  O  O2929  1  0.775000  0.425200  0.931200  1
  O  O2930  1  0.225000  0.574800  0.431200  1
  O  O2931  1  0.225000  0.425200  0.568800  1
  O  O2932  1  0.775000  0.574800  0.068800  1
  O  O2933  1  0.275000  0.925200  0.931200  1
  O  O2934  1  0.725000  0.074800  0.431200  1
  O  O2935  1  0.725000  0.925200  0.568800  1
  O  O2936  1  0.275000  0.074800  0.068800  1
  O  O2937  1  0.963000  0.488800  0.830000  1
  O  O2938  1  0.037000  0.511200  0.330000  1
  O  O2939  1  0.037000  0.488800  0.670000  1
  O  O2940  1  0.963000  0.511200  0.170000  1
  O  O2941  1  0.463000  0.988800  0.830000  1
  O  O2942  1  0.537000  0.011200  0.330000  1
  O  O2943  1  0.537000  0.988800  0.670000  1
  O  O2944  1  0.463000  0.011200  0.170000  1
  O  O2945  1  0.770000  0.716400  0.882400  1
  O  O2946  1  0.230000  0.283600  0.382400  1
  O  O2947  1  0.230000  0.716400  0.617600  1
  O  O2948  1  0.770000  0.283600  0.117600  1
  O  O2949  1  0.270000  0.216400  0.882400  1
  O  O2950  1  0.730000  0.783600  0.382400  1
  O  O2951  1  0.730000  0.216400  0.617600  1
  O  O2952  1  0.270000  0.783600  0.117600  1
  O  O2953  1  0.419000  0.351600  0.841100  1
  O  O2954  1  0.581000  0.648400  0.341100  1
  O  O2955  1  0.581000  0.351600  0.658900  1
  O  O2956  1  0.419000  0.648400  0.158900  1
  O  O2957  1  0.919000  0.851600  0.841100  1
  O  O2958  1  0.081000  0.148400  0.341100  1
  O  O2959  1  0.081000  0.851600  0.658900  1
  O  O2960  1  0.919000  0.148400  0.158900  1
  O  O2961  1  0.166000  0.762400  0.950100  1
  O  O2962  1  0.834000  0.237600  0.450100  1
  O  O2963  1  0.834000  0.762400  0.549900  1
  O  O2964  1  0.166000  0.237600  0.049900  1
  O  O2965  1  0.666000  0.262400  0.950100  1
  O  O2966  1  0.334000  0.737600  0.450100  1
  O  O2967  1  0.334000  0.262400  0.549900  1
  O  O2968  1  0.666000  0.737600  0.049900  1
  O  O2969  1  0.205000  0.378000  0.887900  1
  O  O2970  1  0.795000  0.622000  0.387900  1
  O  O2971  1  0.795000  0.378000  0.612100  1
  O  O2972  1  0.205000  0.622000  0.112100  1
  O  O2973  1  0.705000  0.878000  0.887900  1
  O  O2974  1  0.295000  0.122000  0.387900  1
  O  O2975  1  0.295000  0.878000  0.612100  1
  O  O2976  1  0.705000  0.122000  0.112100  1
  O  O2977  1  0.060000  0.758800  0.901400  1
  O  O2978  1  0.940000  0.241200  0.401400  1
  O  O2979  1  0.940000  0.758800  0.598600  1
  O  O2980  1  0.060000  0.241200  0.098600  1
  O  O2981  1  0.560000  0.258800  0.901400  1
  O  O2982  1  0.440000  0.741200  0.401400  1
  O  O2983  1  0.440000  0.258800  0.598600  1
  O  O2984  1  0.560000  0.741200  0.098600  1
  O  O2985  1  0.972000  0.328400  0.793900  1
  O  O2986  1  0.028000  0.671600  0.293900  1
  O  O2987  1  0.028000  0.328400  0.706100  1
  O  O2988  1  0.972000  0.671600  0.206100  1
  O  O2989  1  0.472000  0.828400  0.793900  1
  O  O2990  1  0.528000  0.171600  0.293900  1
  O  O2991  1  0.528000  0.828400  0.706100  1
  O  O2992  1  0.472000  0.171600  0.206100  1
  O  O2993  1  0.255000  0.279100  0.831800  1
  O  O2994  1  0.745000  0.720900  0.331800  1
  O  O2995  1  0.745000  0.279100  0.668200  1
  O  O2996  1  0.255000  0.720900  0.168200  1
  O  O2997  1  0.755000  0.779100  0.831800  1
  O  O2998  1  0.245000  0.220900  0.331800  1
  O  O2999  1  0.245000  0.779100  0.668200  1
  O  O3000  1  0.755000  0.220900  0.168200  1
  O  O3001  1  0.273000  0.117700  0.816400  1
  O  O3002  1  0.727000  0.882300  0.316400  1
  O  O3003  1  0.727000  0.117700  0.683600  1
  O  O3004  1  0.273000  0.882300  0.183600  1
  O  O3005  1  0.773000  0.617700  0.816400  1
  O  O3006  1  0.227000  0.382300  0.316400  1
  O  O3007  1  0.227000  0.617700  0.683600  1
  O  O3008  1  0.773000  0.382300  0.183600  1
  O  O3009  1  0.775000  0.667500  0.900800  1
  O  O3010  1  0.225000  0.332500  0.400800  1
  O  O3011  1  0.225000  0.667500  0.599200  1
  O  O3012  1  0.775000  0.332500  0.099200  1
  O  O3013  1  0.275000  0.167500  0.900800  1
  O  O3014  1  0.725000  0.832500  0.400800  1
  O  O3015  1  0.725000  0.167500  0.599200  1
  O  O3016  1  0.275000  0.832500  0.099200  1
  O  O3017  1  0.887000  0.396000  0.912400  1
  O  O3018  1  0.113000  0.604000  0.412400  1
  O  O3019  1  0.113000  0.396000  0.587600  1
  O  O3020  1  0.887000  0.604000  0.087600  1
  O  O3021  1  0.387000  0.896000  0.912400  1
  O  O3022  1  0.613000  0.104000  0.412400  1
  O  O3023  1  0.613000  0.896000  0.587600  1
  O  O3024  1  0.387000  0.104000  0.087600  1
  O  O3025  1  0.827000  0.504100  0.848400  1
  O  O3026  1  0.173000  0.495900  0.348400  1
  O  O3027  1  0.173000  0.504100  0.651600  1
  O  O3028  1  0.827000  0.495900  0.151600  1
  O  O3029  1  0.327000  0.004100  0.848400  1
  O  O3030  1  0.673000  0.995900  0.348400  1
  O  O3031  1  0.673000  0.004100  0.651600  1
  O  O3032  1  0.327000  0.995900  0.151600  1
  O  O3033  1  0.339000  0.336600  0.843300  1
  O  O3034  1  0.661000  0.663400  0.343300  1
  O  O3035  1  0.661000  0.336600  0.656700  1
  O  O3036  1  0.339000  0.663400  0.156700  1
  O  O3037  1  0.839000  0.836600  0.843300  1
  O  O3038  1  0.161000  0.163400  0.343300  1
  O  O3039  1  0.161000  0.836600  0.656700  1
  O  O3040  1  0.839000  0.163400  0.156700  1
  O  O3041  1  0.382000  0.687900  0.881600  1
  O  O3042  1  0.618000  0.312100  0.381600  1
  O  O3043  1  0.618000  0.687900  0.618400  1
  O  O3044  1  0.382000  0.312100  0.118400  1
  O  O3045  1  0.882000  0.187900  0.881600  1
  O  O3046  1  0.118000  0.812100  0.381600  1
  O  O3047  1  0.118000  0.187900  0.618400  1
  O  O3048  1  0.882000  0.812100  0.118400  1
  O  O3049  1  0.872000  0.291100  0.792100  1
  O  O3050  1  0.128000  0.708900  0.292100  1
  O  O3051  1  0.128000  0.291100  0.707900  1
  O  O3052  1  0.872000  0.708900  0.207900  1
  O  O3053  1  0.372000  0.791100  0.792100  1
  O  O3054  1  0.628000  0.208900  0.292100  1
  O  O3055  1  0.628000  0.791100  0.707900  1
  O  O3056  1  0.372000  0.208900  0.207900  1
  O  O3057  1  0.094000  0.551000  0.917300  1
  O  O3058  1  0.906000  0.449000  0.417300  1
  O  O3059  1  0.906000  0.551000  0.582700  1
  O  O3060  1  0.094000  0.449000  0.082700  1
  O  O3061  1  0.594000  0.051000  0.917300  1
  O  O3062  1  0.406000  0.949000  0.417300  1
  O  O3063  1  0.406000  0.051000  0.582700  1
  O  O3064  1  0.594000  0.949000  0.082700  1
  O  O3065  1  0.301100  0.393800  0.592200  1
  O  O3066  1  0.698900  0.606200  0.092200  1
  O  O3067  1  0.698900  0.393800  0.907800  1
  O  O3068  1  0.301100  0.606200  0.407800  1
  O  O3069  1  0.801100  0.893800  0.592200  1
  O  O3070  1  0.198900  0.106200  0.092200  1
  O  O3071  1  0.198900  0.893800  0.907800  1
  O  O3072  1  0.801100  0.106200  0.407800  1
  O  O3073  1  0.749700  0.658200  0.876200  1
  O  O3074  1  0.250300  0.341800  0.376200  1
  O  O3075  1  0.250300  0.658200  0.623800  1
  O  O3076  1  0.749700  0.341800  0.123800  1
  O  O3077  1  0.249700  0.158200  0.876200  1
  O  O3078  1  0.750300  0.841800  0.376200  1
  O  O3079  1  0.750300  0.158200  0.623800  1
  O  O3080  1  0.249700  0.841800  0.123800  1
  O  O3081  1  0.826000  0.285700  0.737200  1
  O  O3082  1  0.174000  0.714300  0.237200  1
  O  O3083  1  0.174000  0.285700  0.762800  1
  O  O3084  1  0.826000  0.714300  0.262800  1
  O  O3085  1  0.326000  0.785700  0.737200  1
  O  O3086  1  0.674000  0.214300  0.237200  1
  O  O3087  1  0.674000  0.785700  0.762800  1
  O  O3088  1  0.326000  0.214300  0.262800  1
