
#######################################################################
#
#                 Cambridge Crystallographic Data Centre
#                                CCDC 
#
#######################################################################
#
# If this CIF has been generated from an entry in the Cambridge 
# Structural Database, then it will include bibliographic, chemical, 
# crystal, experimental, refinement or atomic coordinate data resulting 
# from the CCDC's data processing and validation procedures.
#
#######################################################################

data_XAVGUY
_chemical_formula_moiety         
'24(Cu1 2+),24(C11 H6 O5 2-),12(C1 H4 O1),12(H2 O1)'
_chemical_name_systematic        
tetracosakis(\m~4~-5-(Prop-2-ynyloxy)isophthalato)-dodeca-aqua-dodecakis(methanol)-tetracosa-copper
_symmetry_cell_setting           cubic
_symmetry_space_group_name_H-M   'P a -3'
_symmetry_Int_Tables_number      205
_space_group_name_Hall           '-P 2ac 2ab 3'
loop_
_symmetry_equiv_pos_site_id
_symmetry_equiv_pos_as_xyz
1 x,y,z
2 z,x,y
3 y,z,x
4 1/2-y,-z,1/2+x
5 1/2+z,1/2-x,-y
6 -y,1/2+z,1/2-x
7 1/2-z,-x,1/2+y
8 -z,1/2+x,1/2-y
9 1/2+y,1/2-z,-x
10 1/2-x,-y,1/2+z
11 1/2+x,1/2-y,-z
12 -x,1/2+y,1/2-z
13 -x,-y,-z
14 -z,-x,-y
15 -y,-z,-x
16 1/2+y,z,1/2-x
17 1/2-z,1/2+x,y
18 y,1/2-z,1/2+x
19 1/2+z,x,1/2-y
20 z,1/2-x,1/2+y
21 1/2-y,1/2+z,x
22 1/2+x,y,1/2-z
23 1/2-x,1/2+y,z
24 x,1/2-y,1/2+z
_cell_length_a                   34.4828(16)
_cell_length_b                   34.4828(16)
_cell_length_c                   34.4828(16)
_cell_angle_alpha                90
_cell_angle_beta                 90
_cell_angle_gamma                90
_cell_volume                     41002.2
_exptl_crystal_colour            blue
_exptl_crystal_description       prism
_cell_formula_units_Z            4
loop_
_atom_site_label
_atom_site_type_symbol
_atom_site_fract_x
_atom_site_fract_y
_atom_site_fract_z
Cu1 Cu 0.87614(9) 0.48984(8) 0.19473(8)
Cu2 Cu 0.83694(10) 0.48831(9) 0.25917(9)
Cu3 Cu 0.87783(10) 0.68289(9) 0.06756(9)
Cu4 Cu 0.83782(10) 0.74345(9) 0.08927(9)
O1 O 0.8496(5) 0.5388(5) 0.1829(5)
O2 O 0.8161(5) 0.5364(5) 0.2417(5)
O3 O 0.8467(5) 0.6541(5) 0.1055(5)
O4 O 0.8134(4) 0.7083(4) 0.1270(4)
O5 O 0.7422(7) 0.6647(7) 0.2390(7)
O6 O 0.8816(5) 0.5139(5) 0.2823(5)
O7 O 0.9159(5) 0.5180(5) 0.2246(5)
O8 O 0.9038(4) 0.7164(4) 0.0324(4)
O9 O 0.8676(5) 0.7700(5) 0.0505(5)
O10 O 0.9753(12) 0.5675(10) 0.3778(16)
O11 O 0.8361(5) 0.6747(5) 0.0311(5)
O12 O 0.8035(5) 0.7271(5) 0.0553(5)
O13 O 0.8795(5) 0.7550(5) 0.1260(5)
O14 O 0.9116(5) 0.7011(5) 0.1069(5)
O15 O 0.6898(6) 0.7313(8) -0.0336(9)
O16 O 0.8332(5) 0.4644(5) 0.1735(5)
O17 O 0.7985(4) 0.4608(4) 0.2294(5)
O18 O 0.8962(5) 0.4394(5) 0.2131(5)
O19 O 0.8598(7) 0.4381(7) 0.2689(7)
O20 O 0.6790(9) 0.3815(9) 0.1938(9)
O21 O 0.9125(6) 0.4900(7) 0.1384(7)
O22 O 0.8029(5) 0.4948(6) 0.3119(6)
O23 O 0.9140(7) 0.6313(7) 0.0514(7)
O24 O 0.8016(6) 0.7928(5) 0.1058(6)
C1 C 0.8295(5) 0.5513(5) 0.2125(5)
C2 C 0.8110(5) 0.5935(6) 0.2024(5)
C3 C 0.8234(5) 0.6123(4) 0.1695(5)
H1 H 0.8416 0.6003 0.1526
C4 C 0.8092(5) 0.6485(5) 0.1613(5)
C5 C 0.7825(6) 0.6651(8) 0.1867(6)
H2 H 0.7722 0.6901 0.1817
C6 C 0.7710(6) 0.6444(6) 0.2200(6)
C7 C 0.7843(6) 0.6080(6) 0.2293(6)
H3 H 0.7763 0.5941 0.2517
C8 C 0.8296(5) 0.6758(5) 0.1300(5)
C9 C 0.7258(10) 0.6427(12) 0.2698(10)
H4 H 0.7211 0.6159 0.2607
H5 H 0.7004 0.6541 0.2769
C10 C 0.7503(15) 0.6414(15) 0.3041(9)
C11 C 0.771(3) 0.636(4) 0.328(3)
H6 H 0.7895 0.6316 0.3478
C12 C 0.9056(5) 0.5291(5) 0.2611(5)
C13 C 0.9408(6) 0.5451(6) 0.2776(7)
C14 C 0.9440(15) 0.5473(11) 0.3176(9)
H7 H 0.9246 0.5347 0.3325
C15 C 0.9735(11) 0.5664(9) 0.3378(16)
C16 C 1.0023(11) 0.5851(9) 0.3172(7)
H8 H 1.0230 0.5986 0.3294
C17 C 0.9988(6) 0.5826(6) 0.2771(6)
C18 C 0.9698(5) 0.5638(5) 0.2563(6)
H9 H 0.9697 0.5638 0.2287
C19 C 0.8895(7) 0.7511(7) 0.0274(7)
C20 C 1.0139(13) 0.5727(8) 0.391(2)
H10 H 1.0320 0.5598 0.3729
H11 H 1.0167 0.5599 0.4168
C21 C 0.8081(7) 0.6994(7) 0.0265(7)
C22 C 0.7806(6) 0.6907(5) -0.0046(6)
C23 C 0.7879(6) 0.6627(5) -0.0329(5)
H12 H 0.8114 0.6484 -0.0321
C24 C 0.7613(5) 0.6556(6) -0.0620(6)
C25 C 0.7272(6) 0.6769(6) -0.0626(6)
H13 H 0.7086 0.6726 -0.0824
C26 C 0.7199(6) 0.7048(6) -0.0341(6)
C27 C 0.7467(5) 0.7125(5) -0.0046(6)
H14 H 0.7419 0.7318 0.0145
C28 C 0.9054(7) 0.7278(7) 0.1261(7)
C29 C 0.8049(5) 0.4543(5) 0.1929(5)
C30 C 0.7709(6) 0.4327(6) 0.1714(5)
C31 C 0.7769(6) 0.4206(5) 0.1333(5)
H15 H 0.7994 0.4276 0.1191
C32 C 0.7478(5) 0.3977(5) 0.1176(6)
C33 C 0.7136(6) 0.3860(6) 0.1367(6)
H16 H 0.6947 0.3701 0.1245
C34 C 0.7094(7) 0.3992(7) 0.1747(7)
C35 C 0.7378(7) 0.4222(7) 0.1918(8)
H17 H 0.7346 0.4308 0.2178
C36 C 0.8819(5) 0.4248(5) 0.2415(5)
C37 C 0.7954(17) 0.5355(8) 0.3200(18)
H18 H 0.8161 0.5458 0.3365
H19 H 0.7704 0.5380 0.3333
H20 H 0.7946 0.5500 0.2956
C38 C 0.7685(11) 0.7847(15) 0.1304(13)
H21 H 0.7611 0.7574 0.1277
H22 H 0.7467 0.8012 0.1228
H23 H 0.7754 0.7899 0.1575
C39 C 0.6072(8) 0.7788(7) -0.0476(8)
H24 H 0.5920 0.8018 -0.0478
C40 C 0.6319(16) 0.3520(13) 0.1521(14)
C41 C 0.6567(8) 0.3473(7) 0.1861(8)
H25 H 0.6404 0.3413 0.2090
H26 H 0.6745 0.3252 0.1819
C42 C 0.615(5) 0.364(3) 0.127(4)
H27 H 0.6014 0.3739 0.1058
C43 C 0.6249(6) 0.7520(8) -0.0475(8)
C44 C 0.6525(9) 0.7203(7) -0.0468(18)
H28 H 0.6424 0.6996 -0.0297
H29 H 0.6548 0.7094 -0.0732
C45 C 1.0384(15) 0.6421(10) 0.3973(17)
H30 H 1.0501 0.6670 0.3995
C46 C 1.0247(8) 0.6133(9) 0.3948(8)
Cu1H Cu 0.98984(8) 0.30527(8) 0.12386(9)
Cu1G Cu 0.80527(8) 0.37614(9) 0.01016(8)
Cu1L Cu 1.12386(9) 0.51016(8) -0.19473(8)
Cu1T Cu 1.01016(8) 0.69473(8) -0.12386(9)
Cu1S Cu 1.19473(8) 0.62386(9) -0.01016(8)
Cu2H Cu 0.98831(9) 0.24083(9) 0.16306(10)
Cu2G Cu 0.74083(9) 0.33694(10) 0.01169(9)
Cu2L Cu 1.16306(10) 0.51169(9) -0.25917(9)
Cu2T Cu 1.01169(9) 0.75917(9) -0.16306(10)
Cu2S Cu 1.25917(9) 0.66306(10) -0.01169(9)
Cu3T Cu 0.81711(9) 0.56756(9) -0.12217(10)
Cu3S Cu 1.06756(9) 0.62217(10) 0.18289(9)
Cu3H Cu 1.18289(9) 0.43244(9) 0.12217(10)
Cu3L Cu 1.12217(10) 0.31711(9) -0.06756(9)
Cu3G Cu 0.93244(9) 0.37783(10) -0.18289(9)
Cu4T Cu 0.75655(9) 0.58927(9) -0.16218(10)
Cu4S Cu 1.08927(9) 0.66218(10) 0.24345(9)
Cu4H Cu 1.24345(9) 0.41073(9) 0.16218(10)
Cu4L Cu 1.16218(10) 0.25655(9) -0.08927(9)
Cu4G Cu 0.91073(9) 0.33782(10) -0.24345(9)
O1H O 1.0388(5) 0.3171(5) 0.1504(5)
O1G O 0.8171(5) 0.3496(5) -0.0388(5)
O1L O 1.1504(5) 0.4612(5) -0.1829(5)
O1T O 0.9612(5) 0.6829(5) -0.1504(5)
O1S O 1.1829(5) 0.6504(5) 0.0388(5)
O2H O 1.0364(5) 0.2583(5) 0.1839(5)
O2G O 0.7583(5) 0.3161(5) -0.0364(5)
O2L O 1.1839(5) 0.4636(5) -0.2417(5)
O2T O 0.9636(5) 0.7417(5) -0.1839(5)
O2S O 1.2417(5) 0.6839(5) 0.0364(5)
O3T O 0.8459(5) 0.6055(5) -0.1533(5)
O3S O 1.1055(5) 0.6533(5) 0.1541(5)
O3H O 1.1541(5) 0.3945(5) 0.1533(5)
O3L O 1.1533(5) 0.3459(5) -0.1055(5)
O3G O 0.8945(5) 0.3467(5) -0.1541(5)
O4T O 0.7917(4) 0.6270(4) -0.1866(4)
O4S O 1.1270(4) 0.6866(4) 0.2083(4)
O4H O 1.2083(4) 0.3730(4) 0.1866(4)
O4L O 1.1866(4) 0.2917(4) -0.1270(4)
O4G O 0.8730(4) 0.3134(4) -0.2083(4)
O5S O 1.2390(7) 0.7578(7) 0.1647(7)
O5T O 0.8353(7) 0.7390(7) -0.2578(7)
O5L O 1.2578(7) 0.3353(7) -0.2390(7)
O5G O 0.7610(7) 0.2422(7) -0.1647(7)
O5H O 1.1647(7) 0.2610(7) 0.2578(7)
O6H O 1.0139(5) 0.2177(5) 0.1184(5)
O6G O 0.7177(5) 0.3816(5) -0.0139(5)
O6L O 1.1184(5) 0.4861(5) -0.2823(5)
O6T O 0.9861(5) 0.7823(5) -0.1184(5)
O6S O 1.2823(5) 0.6184(5) 0.0139(5)
O7H O 1.0180(5) 0.2754(5) 0.0841(5)
O7G O 0.7754(5) 0.4159(5) -0.0180(5)
O7L O 1.0841(5) 0.4820(5) -0.2246(5)
O7T O 0.9820(5) 0.7246(5) -0.0841(5)
O7S O 1.2246(5) 0.5841(5) 0.0180(5)
O8T O 0.7836(4) 0.5324(4) -0.0962(4)
O8S O 1.0324(4) 0.5962(4) 0.2164(4)
O8H O 1.2164(4) 0.4676(4) 0.0962(4)
O8L O 1.0962(4) 0.2836(4) -0.0324(4)
O8G O 0.9676(4) 0.4038(4) -0.2164(4)
O9T O 0.7300(5) 0.5505(5) -0.1324(5)
O9S O 1.0505(5) 0.6324(5) 0.2700(5)
O9H O 1.2700(5) 0.4495(5) 0.1324(5)
O9L O 1.1324(5) 0.2300(5) -0.0505(5)
O9G O 0.9495(5) 0.3676(5) -0.2700(5)
O10G O 0.6222(16) 0.4753(12) -0.0675(10)
O10L O 1.0247(12) 0.4325(10) -0.3778(16)
O10S O 1.3778(16) 0.5247(12) 0.0675(10)
O10T O 0.9325(10) 0.8778(16) -0.0247(12)
O10H O 1.0675(10) 0.1222(16) 0.0247(12)
O11T O 0.8253(5) 0.5311(5) -0.1639(5)
O11S O 1.0311(5) 0.6639(5) 0.1747(5)
O11H O 1.1747(5) 0.4689(5) 0.1639(5)
O11L O 1.1639(5) 0.3253(5) -0.0311(5)
O11G O 0.9689(5) 0.3361(5) -0.1747(5)
O12T O 0.7729(5) 0.5553(5) -0.1965(5)
O12S O 1.0553(5) 0.6965(5) 0.2271(5)
O12H O 1.2271(5) 0.4447(5) 0.1965(5)
O12L O 1.1965(5) 0.2729(5) -0.0553(5)
O12G O 0.9447(5) 0.3035(5) -0.2271(5)
O13T O 0.7450(5) 0.6260(5) -0.1205(5)
O13S O 1.1260(5) 0.6205(5) 0.2550(5)
O13H O 1.2550(5) 0.3740(5) 0.1205(5)
O13L O 1.1205(5) 0.2450(5) -0.1260(5)
O13G O 0.8740(5) 0.3795(5) -0.2550(5)
O14T O 0.7989(5) 0.6069(5) -0.0884(5)
O14S O 1.1069(5) 0.5884(5) 0.2011(5)
O14H O 1.2011(5) 0.3931(5) 0.0884(5)
O14L O 1.0884(5) 0.2989(5) -0.1069(5)
O14G O 0.8931(5) 0.4116(5) -0.2011(5)
O15T O 0.7687(8) 0.4664(9) -0.3102(6)
O15G O 1.0336(9) 0.1898(6) -0.2313(8)
O15L O 1.3102(6) 0.2687(8) 0.0336(9)
O15H O 1.2313(8) 0.5336(9) 0.3102(6)
O15S O 0.9664(9) 0.8102(6) 0.2313(8)
O16H O 0.9644(5) 0.3265(5) 0.1668(5)
O16G O 0.8265(5) 0.3332(5) 0.0356(5)
O16L O 1.1668(5) 0.5356(5) -0.1735(5)
O16T O 1.0356(5) 0.6735(5) -0.1668(5)
O16S O 1.1735(5) 0.6668(5) -0.0356(5)
O17H O 0.9608(4) 0.2706(5) 0.2015(4)
O17G O 0.7706(5) 0.2985(4) 0.0392(4)
O17L O 1.2015(4) 0.5392(4) -0.2294(5)
O17T O 1.0392(4) 0.7294(5) -0.2015(4)
O17S O 1.2294(5) 0.7015(4) -0.0392(4)
O18H O 0.9394(5) 0.2869(5) 0.1038(5)
O18G O 0.7869(5) 0.3962(5) 0.0606(5)
O18L O 1.1038(5) 0.5606(5) -0.2131(5)
O18T O 1.0606(5) 0.7131(5) -0.1038(5)
O18S O 1.2131(5) 0.6038(5) -0.0606(5)
O19H O 0.9381(7) 0.2311(7) 0.1402(7)
O19G O 0.7311(7) 0.3598(7) 0.0619(7)
O19L O 1.1402(7) 0.5619(7) -0.2689(7)
O19T O 1.0619(7) 0.7689(7) -0.1402(7)
O19S O 1.2689(7) 0.6402(7) -0.0619(7)
O20L O 1.3210(9) 0.6185(9) -0.1938(9)
O20S O 1.1938(9) 0.8210(9) -0.1185(9)
O20T O 1.1185(9) 0.6938(9) -0.3210(9)
O20G O 0.8062(9) 0.1790(9) 0.1185(9)
O20H O 0.8815(9) 0.3062(9) 0.3210(9)
O21G O 0.8616(7) 0.4125(6) 0.0100(7)
O21L O 1.0875(6) 0.5100(7) -0.1384(7)
O21S O 1.1384(7) 0.5875(6) -0.0100(7)
O21T O 1.0100(7) 0.6384(7) -0.0875(6)
O21H O 0.9900(7) 0.3616(7) 0.0875(6)
O22H O 0.9948(6) 0.1881(6) 0.1971(5)
O22G O 0.6881(6) 0.3029(5) 0.0052(6)
O22T O 1.0052(6) 0.8119(6) -0.1971(5)
O22S O 1.3119(6) 0.6971(5) -0.0052(6)
O22L O 1.1971(5) 0.5052(6) -0.3119(6)
O23G O 0.9486(7) 0.4140(7) -0.1313(7)
O23L O 1.0860(7) 0.3687(7) -0.0514(7)
O23H O 1.1313(7) 0.4486(7) 0.0860(7)
O23S O 1.0514(7) 0.5860(7) 0.1313(7)
O23T O 0.8687(7) 0.5514(7) -0.0860(7)
O24T O 0.7072(5) 0.6058(6) -0.1984(6)
O24S O 1.1058(6) 0.6984(6) 0.2928(5)
O24H O 1.2928(5) 0.3942(6) 0.1984(6)
O24L O 1.1984(6) 0.2072(5) -0.1058(6)
O24G O 0.8942(6) 0.3016(6) -0.2928(5)
C1H C 1.0513(5) 0.2875(5) 0.1705(5)
C1G C 0.7875(5) 0.3295(5) -0.0513(5)
C1L C 1.1705(5) 0.4487(5) -0.2125(5)
C1T C 0.9487(5) 0.7125(5) -0.1705(5)
C1S C 1.2125(5) 0.6705(5) 0.0513(5)
C2S C 1.2024(5) 0.6890(5) 0.0935(6)
C2T C 0.9065(6) 0.7024(5) -0.1890(5)
C2L C 1.1890(5) 0.4065(6) -0.2024(5)
C2G C 0.7976(5) 0.3110(5) -0.0935(6)
C2H C 1.0935(6) 0.2976(5) 0.1890(5)
C3S C 1.1695(5) 0.6766(5) 0.1123(4)
C3T C 0.8877(4) 0.6695(5) -0.1766(5)
C3L C 1.1766(5) 0.3877(4) -0.1695(5)
C3G C 0.8305(5) 0.3234(5) -0.1123(4)
C3H C 1.1123(4) 0.3305(5) 0.1766(5)
H1S H 1.1526 0.6584 0.1003
H1T H 0.8997 0.6526 -0.1584
H1L H 1.1584 0.3997 -0.1526
H1G H 0.8474 0.3416 -0.1003
H1H H 1.1003 0.3474 0.1584
C4S C 1.1613(5) 0.6908(5) 0.1485(5)
C4T C 0.8515(5) 0.6613(5) -0.1908(5)
C4L C 1.1908(5) 0.3515(5) -0.1613(5)
C4G C 0.8387(5) 0.3092(5) -0.1485(5)
C4H C 1.1485(5) 0.3387(5) 0.1908(5)
C5S C 1.1867(6) 0.7175(6) 0.1651(8)
C5T C 0.8349(8) 0.6867(6) -0.2175(6)
C5L C 1.2175(6) 0.3349(8) -0.1867(6)
C5G C 0.8133(6) 0.2825(6) -0.1651(8)
C5H C 1.1651(8) 0.3133(6) 0.2175(6)
H2S H 1.1817 0.7278 0.1901
H2T H 0.8099 0.6817 -0.2278
H2L H 1.2278 0.3099 -0.1817
H2G H 0.8183 0.2722 -0.1901
H2H H 1.1901 0.3183 0.2278
C6S C 1.2200(6) 0.7290(6) 0.1444(6)
C6T C 0.8556(6) 0.7200(6) -0.2290(6)
C6L C 1.2290(6) 0.3556(6) -0.2200(6)
C6G C 0.7800(6) 0.2710(6) -0.1444(6)
C6H C 1.1444(6) 0.2800(6) 0.2290(6)
C7S C 1.2293(6) 0.7157(6) 0.1080(6)
C7T C 0.8920(6) 0.7293(6) -0.2157(6)
C7L C 1.2157(6) 0.3920(6) -0.2293(6)
C7G C 0.7707(6) 0.2843(6) -0.1080(6)
C7H C 1.1080(6) 0.2707(6) 0.2157(6)
H3S H 1.2517 0.7237 0.0941
H3T H 0.9059 0.7517 -0.2237
H3L H 1.2237 0.4059 -0.2517
H3G H 0.7483 0.2763 -0.0941
H3H H 1.0941 0.2483 0.2237
C8T C 0.8242(5) 0.6300(5) -0.1704(5)
C8S C 1.1300(5) 0.6704(5) 0.1758(5)
C8H C 1.1758(5) 0.3700(5) 0.1704(5)
C8L C 1.1704(5) 0.3242(5) -0.1300(5)
C8G C 0.8700(5) 0.3296(5) -0.1758(5)
C9S C 1.2698(10) 0.7742(10) 0.1427(12)
C9T C 0.8573(12) 0.7698(10) -0.2742(10)
C9L C 1.2742(10) 0.3573(12) -0.2698(10)
C9G C 0.7302(10) 0.2258(10) -0.1427(12)
C9H C 1.1427(12) 0.2302(10) 0.2742(10)
H4S H 1.2607 0.7789 0.1159
H4T H 0.8841 0.7607 -0.2789
H4L H 1.2789 0.3841 -0.2607
H4G H 0.7393 0.2211 -0.1159
H4H H 1.1159 0.2393 0.2789
H5S H 1.2769 0.7996 0.1541
H5T H 0.8459 0.7769 -0.2996
H5L H 1.2996 0.3459 -0.2769
H5G H 0.7231 0.2004 -0.1541
H5H H 1.1541 0.2231 0.2996
C10S C 1.3041(9) 0.7497(15) 0.1414(15)
C10T C 0.8586(15) 0.8041(9) -0.2497(15)
C10L C 1.2497(15) 0.3586(15) -0.3041(9)
C10G C 0.6959(9) 0.2503(15) -0.1414(15)
C10H C 1.1414(15) 0.1959(9) 0.2497(15)
C11S C 1.328(3) 0.729(3) 0.136(4)
C11T C 0.864(4) 0.828(3) -0.229(3)
C11L C 1.229(3) 0.364(4) -0.328(3)
C11G C 0.672(3) 0.271(3) -0.136(4)
C11H C 1.136(4) 0.172(3) 0.229(3)
H6S H 1.3478 0.7105 0.1316
H6T H 0.8684 0.8478 -0.2105
H6L H 1.2105 0.3684 -0.3478
H6G H 0.6522 0.2895 -0.1316
H6H H 1.1316 0.1522 0.2105
C12H C 1.0291(5) 0.2389(5) 0.0944(5)
C12G C 0.7389(5) 0.4056(5) -0.0291(5)
C12L C 1.0944(5) 0.4709(5) -0.2611(5)
C12T C 0.9709(5) 0.7611(5) -0.0944(5)
C12S C 1.2611(5) 0.5944(5) 0.0291(5)
C13G C 0.7224(7) 0.4408(6) -0.0451(6)
C13L C 1.0592(6) 0.4549(6) -0.2776(7)
C13S C 1.2776(7) 0.5592(6) 0.0451(6)
C13T C 0.9549(6) 0.7776(7) -0.0592(6)
C13H C 1.0451(6) 0.2224(7) 0.0592(6)
C14G C 0.6824(9) 0.4440(15) -0.0473(11)
C14L C 1.0560(15) 0.4527(11) -0.3176(9)
C14S C 1.3176(9) 0.5560(15) 0.0473(11)
C14T C 0.9527(11) 0.8176(9) -0.0560(15)
C14H C 1.0473(11) 0.1824(9) 0.0560(15)
H7G H 0.6675 0.4246 -0.0347
H7S H 1.3325 0.5754 0.0347
H7T H 0.9653 0.8325 -0.0754
H7L H 1.0754 0.4653 -0.3325
H7H H 1.0347 0.1675 0.0754
C15G C 0.6622(16) 0.4735(11) -0.0664(9)
C15L C 1.0265(11) 0.4336(9) -0.3378(16)
C15S C 1.3378(16) 0.5265(11) 0.0664(9)
C15T C 0.9336(9) 0.8378(16) -0.0265(11)
C15H C 1.0664(9) 0.1622(16) 0.0265(11)
C16G C 0.6828(7) 0.5023(11) -0.0851(9)
C16L C 0.9977(11) 0.4149(9) -0.3172(7)
C16S C 1.3172(7) 0.4977(11) 0.0851(9)
C16T C 0.9149(9) 0.8172(7) 0.0023(11)
C16H C 1.0851(9) 0.1828(7) -0.0023(11)
H8G H 0.6706 0.5230 -0.0986
H8S H 1.3294 0.4770 0.0986
H8T H 0.9014 0.8294 0.0230
H8L H 0.9770 0.4014 -0.3294
H8H H 1.0986 0.1706 -0.0230
C17G C 0.7229(6) 0.4988(6) -0.0826(6)
C17L C 1.0012(6) 0.4174(6) -0.2771(6)
C17S C 1.2771(6) 0.5012(6) 0.0826(6)
C17T C 0.9174(6) 0.7771(6) -0.0012(6)
C17H C 1.0826(6) 0.2229(6) 0.0012(6)
C18G C 0.7437(6) 0.4698(5) -0.0638(5)
C18S C 1.2563(6) 0.5302(5) 0.0638(5)
C18T C 0.9362(5) 0.7563(6) -0.0302(5)
C18L C 1.0302(5) 0.4362(5) -0.2563(6)
C18H C 1.0638(5) 0.2437(6) 0.0302(5)
H9G H 0.7713 0.4697 -0.0638
H9S H 1.2287 0.5303 0.0638
H9T H 0.9362 0.7287 -0.0303
H9L H 1.0303 0.4362 -0.2287
H9H H 1.0638 0.2713 0.0303
C19T C 0.7489(7) 0.5274(7) -0.1105(7)
C19S C 1.0274(7) 0.6105(7) 0.2511(7)
C19H C 1.2511(7) 0.4726(7) 0.1105(7)
C19L C 1.1105(7) 0.2489(7) -0.0274(7)
C19G C 0.9726(7) 0.3895(7) -0.2511(7)
C20G C 0.609(2) 0.5139(13) -0.0727(8)
C20L C 0.9861(13) 0.4273(8) -0.391(2)
C20S C 1.391(2) 0.4861(13) 0.0727(8)
C20T C 0.9273(8) 0.891(2) 0.0139(13)
C20H C 1.0727(8) 0.109(2) -0.0139(13)
H10G H 0.6271 0.5320 -0.0598
H10L H 0.9680 0.4402 -0.3729
H10S H 1.3729 0.4680 0.0598
H10T H 0.9402 0.8729 0.0320
H10H H 1.0598 0.1271 -0.0320
H11G H 0.5832 0.5167 -0.0599
H11L H 0.9833 0.4401 -0.4168
H11S H 1.4168 0.4833 0.0599
H11T H 0.9401 0.9168 0.0167
H11H H 1.0599 0.0832 -0.0167
C21T C 0.8006(7) 0.5265(7) -0.1919(7)
C21S C 1.0265(7) 0.6919(7) 0.1994(7)
C21H C 1.1994(7) 0.4735(7) 0.1919(7)
C21L C 1.1919(7) 0.3006(7) -0.0265(7)
C21G C 0.9735(7) 0.3081(7) -0.1994(7)
C22S C 0.9954(6) 0.7194(6) 0.1907(5)
C22H C 1.1907(5) 0.5046(6) 0.2194(6)
C22L C 1.2194(6) 0.3093(5) 0.0046(6)
C22G C 1.0046(6) 0.2806(6) -0.1907(5)
C22T C 0.8093(5) 0.4954(6) -0.2194(6)
C23S C 0.9671(5) 0.7121(6) 0.1627(5)
C23H C 1.1627(5) 0.5329(5) 0.2121(6)
C23L C 1.2121(6) 0.3373(5) 0.0329(5)
C23G C 1.0329(5) 0.2879(6) -0.1627(5)
C23T C 0.8373(5) 0.4671(5) -0.2121(6)
H12T H 0.8516 0.4679 -0.1886
H12G H 1.0321 0.3114 -0.1484
H12L H 1.1886 0.3516 0.0321
H12H H 1.1484 0.5321 0.1886
H12S H 0.9679 0.6886 0.1484
C24S C 0.9380(6) 0.7387(5) 0.1556(6)
C24H C 1.1556(6) 0.5620(6) 0.2387(5)
C24L C 1.2387(5) 0.3444(6) 0.0620(6)
C24G C 1.0620(6) 0.2613(5) -0.1556(6)
C24T C 0.8444(6) 0.4380(6) -0.2387(5)
C25T C 0.8231(6) 0.4374(6) -0.2728(6)
C25G C 1.0626(6) 0.2272(6) -0.1769(6)
C25L C 1.2728(6) 0.3231(6) 0.0626(6)
C25H C 1.1769(6) 0.5626(6) 0.2728(6)
C25S C 0.9374(6) 0.7728(6) 0.1769(6)
H13T H 0.8274 0.4176 -0.2914
H13G H 1.0824 0.2086 -0.1726
H13L H 1.2914 0.3274 0.0824
H13H H 1.1726 0.5824 0.2914
H13S H 0.9176 0.7914 0.1726
C26T C 0.7952(6) 0.4659(6) -0.2801(6)
C26G C 1.0341(6) 0.2199(6) -0.2048(6)
C26L C 1.2801(6) 0.2952(6) 0.0341(6)
C26H C 1.2048(6) 0.5341(6) 0.2801(6)
C26S C 0.9659(6) 0.7801(6) 0.2048(6)
C27T C 0.7875(5) 0.4954(6) -0.2533(5)
C27G C 1.0046(6) 0.2467(5) -0.2125(5)
C27L C 1.2533(5) 0.2875(5) 0.0046(6)
C27H C 1.2125(5) 0.5046(6) 0.2533(5)
C27S C 0.9954(6) 0.7533(5) 0.2125(5)
H14T H 0.7682 0.5145 -0.2581
H14G H 0.9855 0.2419 -0.2318
H14L H 1.2581 0.2682 -0.0145
H14H H 1.2318 0.4855 0.2581
H14S H 1.0145 0.7581 0.2318
C28T C 0.7722(7) 0.6261(7) -0.0946(7)
C28S C 1.1261(7) 0.5946(7) 0.2278(7)
C28H C 1.2278(7) 0.3739(7) 0.0946(7)
C28L C 1.0946(7) 0.2722(7) -0.1261(7)
C28G C 0.8739(7) 0.4054(7) -0.2278(7)
C29H C 0.9543(5) 0.3071(5) 0.1951(5)
C29G C 0.8071(5) 0.3049(5) 0.0457(5)
C29L C 1.1951(5) 0.5457(5) -0.1929(5)
C29T C 1.0457(5) 0.6929(5) -0.1951(5)
C29S C 1.1929(5) 0.6951(5) -0.0457(5)
C30H C 0.9327(6) 0.3286(5) 0.2291(6)
C30G C 0.8286(5) 0.2709(6) 0.0673(6)
C30T C 1.0673(6) 0.6714(5) -0.2291(6)
C30S C 1.1714(5) 0.7291(6) -0.0673(6)
C30L C 1.2291(6) 0.5673(6) -0.1714(5)
C31H C 0.9206(5) 0.3667(5) 0.2231(6)
C31G C 0.8667(5) 0.2769(6) 0.0794(5)
C31T C 1.0794(5) 0.6333(5) -0.2231(6)
C31S C 1.1333(5) 0.7231(6) -0.0794(5)
C31L C 1.2231(6) 0.5794(5) -0.1333(5)
H15L H 1.2006 0.5724 -0.1191
H15S H 1.1191 0.7006 -0.0724
H15T H 1.0724 0.6191 -0.2006
H15G H 0.8809 0.2994 0.0724
H15H H 0.9276 0.3809 0.2006
C32H C 0.8977(5) 0.3824(6) 0.2522(5)
C32G C 0.8824(6) 0.2478(5) 0.1023(5)
C32T C 1.1023(5) 0.6176(6) -0.2522(5)
C32S C 1.1176(6) 0.7522(5) -0.1023(5)
C32L C 1.2522(5) 0.6023(5) -0.1176(6)
C33L C 1.2864(6) 0.6140(6) -0.1367(6)
C33S C 1.1367(6) 0.7864(6) -0.1140(6)
C33T C 1.1140(6) 0.6367(6) -0.2864(6)
C33G C 0.8633(6) 0.2136(6) 0.1140(6)
C33H C 0.8860(6) 0.3633(6) 0.2864(6)
H16L H 1.3053 0.6299 -0.1245
H16S H 1.1245 0.8053 -0.1299
H16T H 1.1299 0.6245 -0.3053
H16G H 0.8755 0.1947 0.1299
H16H H 0.8701 0.3755 0.3053
C34L C 1.2906(7) 0.6008(7) -0.1747(7)
C34S C 1.1747(7) 0.7906(7) -0.1008(7)
C34T C 1.1008(7) 0.6747(7) -0.2906(7)
C34G C 0.8253(7) 0.2094(7) 0.1008(7)
C34H C 0.8992(7) 0.3253(7) 0.2906(7)
C35L C 1.2622(7) 0.5778(7) -0.1918(8)
C35S C 1.1918(8) 0.7622(7) -0.0778(7)
C35T C 1.0778(7) 0.6918(8) -0.2622(7)
C35G C 0.8082(8) 0.2378(7) 0.0778(7)
C35H C 0.9222(7) 0.3082(8) 0.2622(7)
H17L H 1.2654 0.5692 -0.2178
H17S H 1.2178 0.7654 -0.0692
H17T H 1.0692 0.7178 -0.2654
H17G H 0.7822 0.2346 0.0692
H17H H 0.9308 0.2822 0.2654
C36H C 0.9248(5) 0.2585(5) 0.1181(5)
C36G C 0.7585(5) 0.3819(5) 0.0752(5)
C36L C 1.1181(5) 0.5752(5) -0.2415(5)
C36T C 1.0752(5) 0.7415(5) -0.1181(5)
C36S C 1.2415(5) 0.6181(5) -0.0752(5)
C37H C 1.0355(8) 0.1800(18) 0.2046(17)
C37G C 0.6800(18) 0.2954(17) -0.0355(8)
C37T C 0.9645(8) 0.8200(18) -0.2046(17)
C37S C 1.3200(18) 0.7046(17) 0.0355(8)
C37L C 1.2046(17) 0.4645(8) -0.3200(18)
H18H H 1.0458 0.1635 0.1839
H18G H 0.6635 0.3161 -0.0458
H18T H 0.9542 0.8365 -0.1839
H18S H 1.3365 0.6839 0.0458
H18L H 1.1839 0.4542 -0.3365
H19H H 1.0380 0.1667 0.2296
H19G H 0.6667 0.2704 -0.0380
H19T H 0.9620 0.8333 -0.2296
H19S H 1.3333 0.7296 0.0380
H19L H 1.2296 0.4620 -0.3333
H20H H 1.0500 0.2044 0.2054
H20G H 0.7044 0.2946 -0.0500
H20T H 0.9500 0.7956 -0.2054
H20S H 1.2956 0.7054 0.0500
H20L H 1.2054 0.4500 -0.2956
C38T C 0.7153(15) 0.6304(13) -0.2315(11)
C38S C 1.1304(13) 0.7315(11) 0.2847(15)
C38H C 1.2847(15) 0.3696(13) 0.2315(11)
C38L C 1.2315(11) 0.2153(15) -0.1304(13)
C38G C 0.8696(13) 0.2685(11) -0.2847(15)
H21T H 0.7426 0.6277 -0.2389
H21S H 1.1277 0.7389 0.2574
H21H H 1.2574 0.3723 0.2389
H21L H 1.2389 0.2426 -0.1277
H21G H 0.8723 0.2611 -0.2574
H22T H 0.6988 0.6228 -0.2533
H22S H 1.1228 0.7533 0.3012
H22H H 1.3012 0.3772 0.2533
H22L H 1.2533 0.1988 -0.1228
H22G H 0.8772 0.2467 -0.3012
H23T H 0.7101 0.6575 -0.2246
H23S H 1.1575 0.7246 0.2899
H23H H 1.2899 0.3425 0.2246
H23L H 1.2246 0.2101 -0.1575
H23G H 0.8425 0.2754 -0.2899
C39T C 0.7212(7) 0.4524(8) -0.3928(8)
C39G C 1.0476(8) 0.1072(8) -0.2788(7)
C39L C 1.3928(8) 0.2212(7) 0.0476(8)
C39H C 1.2788(7) 0.5476(8) 0.3928(8)
C39S C 0.9524(8) 0.8928(8) 0.2788(7)
H24T H 0.6982 0.4522 -0.4080
H24G H 1.0478 0.0920 -0.3018
H24L H 1.4080 0.1982 0.0478
H24H H 1.3018 0.5478 0.4080
H24S H 0.9522 0.9080 0.3018
C40L C 1.3681(16) 0.6480(13) -0.1521(14)
C40S C 1.1521(14) 0.8681(16) -0.1480(13)
C40T C 1.1480(13) 0.6521(14) -0.3681(16)
C40G C 0.8479(14) 0.1319(16) 0.1480(13)
C40H C 0.8520(13) 0.3479(14) 0.3681(16)
C41L C 1.3433(8) 0.6527(7) -0.1861(8)
C41S C 1.1861(8) 0.8433(8) -0.1527(7)
C41T C 1.1527(7) 0.6861(8) -0.3433(8)
C41G C 0.8139(8) 0.1567(8) 0.1527(7)
C41H C 0.8473(7) 0.3139(8) 0.3433(8)
H25L H 1.3596 0.6587 -0.2090
H25S H 1.2090 0.8596 -0.1587
H25T H 1.1587 0.7090 -0.3596
H25G H 0.7910 0.1404 0.1587
H25H H 0.8413 0.2910 0.3596
H26L H 1.3255 0.6748 -0.1819
H26S H 1.1819 0.8255 -0.1748
H26T H 1.1748 0.6819 -0.3255
H26G H 0.8181 0.1745 0.1748
H26H H 0.8252 0.3181 0.3255
C42L C 1.385(5) 0.636(3) -0.127(4)
C42S C 1.127(4) 0.885(5) -0.136(3)
C42T C 1.136(3) 0.627(4) -0.385(5)
C42G C 0.873(4) 0.115(5) 0.136(3)
C42H C 0.864(3) 0.373(4) 0.385(5)
H27L H 1.3986 0.6261 -0.1058
H27S H 1.1058 0.8986 -0.1261
H27T H 1.1261 0.6058 -0.3986
H27G H 0.8942 0.1014 0.1261
H27H H 0.8739 0.3942 0.3986
C43T C 0.7480(8) 0.4525(8) -0.3751(6)
C43G C 1.0475(8) 0.1249(6) -0.2520(8)
C43L C 1.3751(6) 0.2480(8) 0.0475(8)
C43H C 1.2520(8) 0.5475(8) 0.3751(6)
C43S C 0.9525(8) 0.8751(6) 0.2520(8)
C44T C 0.7797(7) 0.4532(18) -0.3475(9)
C44G C 1.0468(18) 0.1525(9) -0.2203(7)
C44L C 1.3475(9) 0.2797(7) 0.0468(18)
C44H C 1.2203(7) 0.5468(18) 0.3475(9)
C44S C 0.9532(18) 0.8475(9) 0.2203(7)
H28T H 0.8004 0.4703 -0.3576
H28G H 1.0297 0.1424 -0.1996
H28L H 1.3576 0.3004 0.0297
H28H H 1.1996 0.5297 0.3576
H28S H 0.9703 0.8576 0.1996
H29T H 0.7906 0.4268 -0.3452
H29G H 1.0732 0.1548 -0.2094
H29L H 1.3452 0.2906 0.0732
H29H H 1.2094 0.5732 0.3452
H29S H 0.9268 0.8452 0.2094
C45G C 0.6027(17) 0.5384(15) -0.1421(10)
C45L C 0.9616(15) 0.3579(10) -0.3973(17)
C45S C 1.3973(17) 0.4616(15) 0.1421(10)
C45T C 0.8579(10) 0.8973(17) 0.0384(15)
C45H C 1.1421(10) 0.1027(17) -0.0384(15)
H30G H 0.6005 0.5501 -0.1670
H30L H 0.9499 0.3330 -0.3995
H30S H 1.3995 0.4499 0.1670
H30T H 0.8330 0.8995 0.0501
H30H H 1.1670 0.1005 -0.0501
C46G C 0.6052(8) 0.5247(8) -0.1133(9)
C46L C 0.9753(8) 0.3867(9) -0.3948(8)
C46S C 1.3948(8) 0.4753(8) 0.1133(9)
C46T C 0.8867(9) 0.8948(8) 0.0247(8)
C46H C 1.1133(9) 0.1052(8) -0.0247(8)
loop_
_geom_bond_atom_site_label_1
_geom_bond_atom_site_label_2
_geom_bond_site_symmetry_1
_geom_bond_site_symmetry_2
Cu1 O1 1_555 1_555
Cu2 O2 1_555 1_555
Cu3 O3 1_555 1_555
Cu4 O4 1_555 1_555
O1 C1 1_555 1_555
O2 C1 1_555 1_555
O3 C8 1_555 1_555
O4 C8 1_555 1_555
O5 C6 1_555 1_555
O6 Cu2 1_555 1_555
O7 Cu1 1_555 1_555
O8 Cu3 1_555 1_555
O9 Cu4 1_555 1_555
O10 C15 1_555 1_555
O11 Cu3 1_555 1_555
O12 Cu4 1_555 1_555
O13 Cu4 1_555 1_555
O14 Cu3 1_555 1_555
O15 C26 1_555 1_555
O16 Cu1 1_555 1_555
O17 Cu2 1_555 1_555
O18 Cu1 1_555 1_555
O19 Cu2 1_555 1_555
O20 C34 1_555 1_555
O21 Cu1 1_555 1_555
O22 Cu2 1_555 1_555
O23 Cu3 1_555 1_555
O24 Cu4 1_555 1_555
C1 C2 1_555 1_555
C2 C3 1_555 1_555
C3 H1 1_555 1_555
C4 C3 1_555 1_555
C5 C4 1_555 1_555
H2 C5 1_555 1_555
C6 C5 1_555 1_555
C7 C2 1_555 1_555
H3 C7 1_555 1_555
C8 C4 1_555 1_555
C9 O5 1_555 1_555
H4 C9 1_555 1_555
H5 C9 1_555 1_555
C10 C9 1_555 1_555
C11 C10 1_555 1_555
H6 C11 1_555 1_555
C12 O6 1_555 1_555
C13 C12 1_555 1_555
C14 C13 1_555 1_555
H7 C14 1_555 1_555
C15 C14 1_555 1_555
C16 C15 1_555 1_555
H8 C16 1_555 1_555
C17 C16 1_555 1_555
C18 C13 1_555 1_555
H9 C18 1_555 1_555
C19 O8 1_555 1_555
C20 O10 1_555 1_555
H10 C20 1_555 1_555
H11 C20 1_555 1_555
C21 O11 1_555 1_555
C22 C21 1_555 1_555
C23 C22 1_555 1_555
H12 C23 1_555 1_555
C24 C23 1_555 1_555
C25 C24 1_555 1_555
H13 C25 1_555 1_555
C26 C25 1_555 1_555
C27 C22 1_555 1_555
H14 C27 1_555 1_555
C28 O13 1_555 1_555
C29 O16 1_555 1_555
C30 C29 1_555 1_555
C31 C30 1_555 1_555
H15 C31 1_555 1_555
C32 C31 1_555 1_555
C33 C32 1_555 1_555
H16 C33 1_555 1_555
C34 C33 1_555 1_555
C35 C30 1_555 1_555
H17 C35 1_555 1_555
C36 O18 1_555 1_555
C37 O22 1_555 1_555
H18 C37 1_555 1_555
H19 C37 1_555 1_555
H20 C37 1_555 1_555
C38 O24 1_555 1_555
H21 C38 1_555 1_555
H22 C38 1_555 1_555
H23 C38 1_555 1_555
C39 H24 1_555 1_555
C40 C41 1_555 1_555
C41 O20 1_555 1_555
H25 C41 1_555 1_555
H26 C41 1_555 1_555
C42 C40 1_555 1_555
H27 C42 1_555 1_555
C43 C39 1_555 1_555
C44 O15 1_555 1_555
H28 C44 1_555 1_555
H29 C44 1_555 1_555
C45 H30 1_555 1_555
C46 C20 1_555 1_555
Cu1H O1H 1_555 1_555
Cu1G O1G 1_555 1_555
Cu1L O1L 1_555 1_555
Cu1T O1T 1_555 1_555
Cu1S O1S 1_555 1_555
Cu2H O2H 1_555 1_555
Cu2G O2G 1_555 1_555
Cu2L O2L 1_555 1_555
Cu2T O2T 1_555 1_555
Cu2S O2S 1_555 1_555
Cu3T O3T 1_555 1_555
Cu3S O3S 1_555 1_555
Cu3H O3H 1_555 1_555
Cu3L O3L 1_555 1_555
Cu3G O3G 1_555 1_555
Cu4T O4T 1_555 1_555
Cu4S O4S 1_555 1_555
Cu4H O4H 1_555 1_555
Cu4L O4L 1_555 1_555
Cu4G O4G 1_555 1_555
O1H C1H 1_555 1_555
O1G C1G 1_555 1_555
O1L C1L 1_555 1_555
O1T C1T 1_555 1_555
O1S C1S 1_555 1_555
O2H C1H 1_555 1_555
O2G C1G 1_555 1_555
O2L C1L 1_555 1_555
O2T C1T 1_555 1_555
O2S C1S 1_555 1_555
O3T C8T 1_555 1_555
O3S C8S 1_555 1_555
O3H C8H 1_555 1_555
O3L C8L 1_555 1_555
O3G C8G 1_555 1_555
O4T C8T 1_555 1_555
O4S C8S 1_555 1_555
O4H C8H 1_555 1_555
O4L C8L 1_555 1_555
O4G C8G 1_555 1_555
O5S C6S 1_555 1_555
O5T C6T 1_555 1_555
O5L C6L 1_555 1_555
O5G C6G 1_555 1_555
O5H C6H 1_555 1_555
O6H Cu2H 1_555 1_555
O6G Cu2G 1_555 1_555
O6L Cu2L 1_555 1_555
O6T Cu2T 1_555 1_555
O6S Cu2S 1_555 1_555
O7H Cu1H 1_555 1_555
O7G Cu1G 1_555 1_555
O7L Cu1L 1_555 1_555
O7T Cu1T 1_555 1_555
O7S Cu1S 1_555 1_555
O8T Cu3T 1_555 1_555
O8S Cu3S 1_555 1_555
O8H Cu3H 1_555 1_555
O8L Cu3L 1_555 1_555
O8G Cu3G 1_555 1_555
O9T Cu4T 1_555 1_555
O9S Cu4S 1_555 1_555
O9H Cu4H 1_555 1_555
O9L Cu4L 1_555 1_555
O9G Cu4G 1_555 1_555
O10G C15G 1_555 1_555
O10L C15L 1_555 1_555
O10S C15S 1_555 1_555
O10T C15T 1_555 1_555
O10H C15H 1_555 1_555
O11T Cu3T 1_555 1_555
O11S Cu3S 1_555 1_555
O11H Cu3H 1_555 1_555
O11L Cu3L 1_555 1_555
O11G Cu3G 1_555 1_555
O12T Cu4T 1_555 1_555
O12S Cu4S 1_555 1_555
O12H Cu4H 1_555 1_555
O12L Cu4L 1_555 1_555
O12G Cu4G 1_555 1_555
O13T Cu4T 1_555 1_555
O13S Cu4S 1_555 1_555
O13H Cu4H 1_555 1_555
O13L Cu4L 1_555 1_555
O13G Cu4G 1_555 1_555
O14T Cu3T 1_555 1_555
O14S Cu3S 1_555 1_555
O14H Cu3H 1_555 1_555
O14L Cu3L 1_555 1_555
O14G Cu3G 1_555 1_555
O15T C26T 1_555 1_555
O15G C26G 1_555 1_555
O15L C26L 1_555 1_555
O15H C26H 1_555 1_555
O15S C26S 1_555 1_555
O16H Cu1H 1_555 1_555
O16G Cu1G 1_555 1_555
O16L Cu1L 1_555 1_555
O16T Cu1T 1_555 1_555
O16S Cu1S 1_555 1_555
O17H Cu2H 1_555 1_555
O17G Cu2G 1_555 1_555
O17L Cu2L 1_555 1_555
O17T Cu2T 1_555 1_555
O17S Cu2S 1_555 1_555
O18H Cu1H 1_555 1_555
O18G Cu1G 1_555 1_555
O18L Cu1L 1_555 1_555
O18T Cu1T 1_555 1_555
O18S Cu1S 1_555 1_555
O19H Cu2H 1_555 1_555
O19G Cu2G 1_555 1_555
O19L Cu2L 1_555 1_555
O19T Cu2T 1_555 1_555
O19S Cu2S 1_555 1_555
O20L C34L 1_555 1_555
O20S C34S 1_555 1_555
O20T C34T 1_555 1_555
O20G C34G 1_555 1_555
O20H C34H 1_555 1_555
O21G Cu1G 1_555 1_555
O21L Cu1L 1_555 1_555
O21S Cu1S 1_555 1_555
O21T Cu1T 1_555 1_555
O21H Cu1H 1_555 1_555
O22H Cu2H 1_555 1_555
O22G Cu2G 1_555 1_555
O22T Cu2T 1_555 1_555
O22S Cu2S 1_555 1_555
O22L Cu2L 1_555 1_555
O23G Cu3G 1_555 1_555
O23L Cu3L 1_555 1_555
O23H Cu3H 1_555 1_555
O23S Cu3S 1_555 1_555
O23T Cu3T 1_555 1_555
O24T Cu4T 1_555 1_555
O24S Cu4S 1_555 1_555
O24H Cu4H 1_555 1_555
O24L Cu4L 1_555 1_555
O24G Cu4G 1_555 1_555
C1H C2H 1_555 1_555
C1G C2G 1_555 1_555
C1L C2L 1_555 1_555
C1T C2T 1_555 1_555
C1S C2S 1_555 1_555
C2S C3S 1_555 1_555
C2T C3T 1_555 1_555
C2L C3L 1_555 1_555
C2G C3G 1_555 1_555
C2H C3H 1_555 1_555
C3S H1S 1_555 1_555
C3T H1T 1_555 1_555
C3L H1L 1_555 1_555
C3G H1G 1_555 1_555
C3H H1H 1_555 1_555
C4S C3S 1_555 1_555
C4T C3T 1_555 1_555
C4L C3L 1_555 1_555
C4G C3G 1_555 1_555
C4H C3H 1_555 1_555
C5S C4S 1_555 1_555
C5T C4T 1_555 1_555
C5L C4L 1_555 1_555
C5G C4G 1_555 1_555
C5H C4H 1_555 1_555
H2S C5S 1_555 1_555
H2T C5T 1_555 1_555
H2L C5L 1_555 1_555
H2G C5G 1_555 1_555
H2H C5H 1_555 1_555
C6S C5S 1_555 1_555
C6T C5T 1_555 1_555
C6L C5L 1_555 1_555
C6G C5G 1_555 1_555
C6H C5H 1_555 1_555
C7S C2S 1_555 1_555
C7T C2T 1_555 1_555
C7L C2L 1_555 1_555
C7G C2G 1_555 1_555
C7H C2H 1_555 1_555
H3S C7S 1_555 1_555
H3T C7T 1_555 1_555
H3L C7L 1_555 1_555
H3G C7G 1_555 1_555
H3H C7H 1_555 1_555
C8T C4T 1_555 1_555
C8S C4S 1_555 1_555
C8H C4H 1_555 1_555
C8L C4L 1_555 1_555
C8G C4G 1_555 1_555
C9S O5S 1_555 1_555
C9T O5T 1_555 1_555
C9L O5L 1_555 1_555
C9G O5G 1_555 1_555
C9H O5H 1_555 1_555
H4S C9S 1_555 1_555
H4T C9T 1_555 1_555
H4L C9L 1_555 1_555
H4G C9G 1_555 1_555
H4H C9H 1_555 1_555
H5S C9S 1_555 1_555
H5T C9T 1_555 1_555
H5L C9L 1_555 1_555
H5G C9G 1_555 1_555
H5H C9H 1_555 1_555
C10S C9S 1_555 1_555
C10T C9T 1_555 1_555
C10L C9L 1_555 1_555
C10G C9G 1_555 1_555
C10H C9H 1_555 1_555
C11S C10S 1_555 1_555
C11T C10T 1_555 1_555
C11L C10L 1_555 1_555
C11G C10G 1_555 1_555
C11H C10H 1_555 1_555
H6S C11S 1_555 1_555
H6T C11T 1_555 1_555
H6L C11L 1_555 1_555
H6G C11G 1_555 1_555
H6H C11H 1_555 1_555
C12H O6H 1_555 1_555
C12G O6G 1_555 1_555
C12L O6L 1_555 1_555
C12T O6T 1_555 1_555
C12S O6S 1_555 1_555
C13G C12G 1_555 1_555
C13L C12L 1_555 1_555
C13S C12S 1_555 1_555
C13T C12T 1_555 1_555
C13H C12H 1_555 1_555
C14G C13G 1_555 1_555
C14L C13L 1_555 1_555
C14S C13S 1_555 1_555
C14T C13T 1_555 1_555
C14H C13H 1_555 1_555
H7G C14G 1_555 1_555
H7S C14S 1_555 1_555
H7T C14T 1_555 1_555
H7L C14L 1_555 1_555
H7H C14H 1_555 1_555
C15G C14G 1_555 1_555
C15L C14L 1_555 1_555
C15S C14S 1_555 1_555
C15T C14T 1_555 1_555
C15H C14H 1_555 1_555
C16G C15G 1_555 1_555
C16L C15L 1_555 1_555
C16S C15S 1_555 1_555
C16T C15T 1_555 1_555
C16H C15H 1_555 1_555
H8G C16G 1_555 1_555
H8S C16S 1_555 1_555
H8T C16T 1_555 1_555
H8L C16L 1_555 1_555
H8H C16H 1_555 1_555
C17G C16G 1_555 1_555
C17L C16L 1_555 1_555
C17S C16S 1_555 1_555
C17T C19 1_555 1_555
C17H C16H 1_555 1_555
C18G C13G 1_555 1_555
C18S C13S 1_555 1_555
C18T C13T 1_555 1_555
C18L C13L 1_555 1_555
C18H C13H 1_555 1_555
H9G C18G 1_555 1_555
H9S C18S 1_555 1_555
H9T C18T 1_555 1_555
H9L C18L 1_555 1_555
H9H C18H 1_555 1_555
C19T O8T 1_555 1_555
C19S C17 1_555 1_555
C19H O8H 1_555 1_555
C19L O8L 1_555 1_555
C19G O8G 1_555 1_555
C20G O10G 1_555 1_555
C20L O10L 1_555 1_555
C20S O10S 1_555 1_555
C20T O10T 1_555 1_555
C20H O10H 1_555 1_555
H10G C20G 1_555 1_555
H10L C20L 1_555 1_555
H10S C20S 1_555 1_555
H10T C20T 1_555 1_555
H10H C20H 1_555 1_555
H11G C20G 1_555 1_555
H11L C20L 1_555 1_555
H11S C20S 1_555 1_555
H11T C20T 1_555 1_555
H11H C20H 1_555 1_555
C21T O11T 1_555 1_555
C21S O11S 1_555 1_555
C21H O11H 1_555 1_555
C21L O11L 1_555 1_555
C21G O11G 1_555 1_555
C22S C21S 1_555 1_555
C22H C21H 1_555 1_555
C22L C21L 1_555 1_555
C22G C21G 1_555 1_555
C22T C21T 1_555 1_555
C23S C22S 1_555 1_555
C23H C22H 1_555 1_555
C23L C22L 1_555 1_555
C23G C22G 1_555 1_555
C23T C22T 1_555 1_555
H12T C23T 1_555 1_555
H12G C23G 1_555 1_555
H12L C23L 1_555 1_555
H12H C23H 1_555 1_555
H12S C23S 1_555 1_555
C24S C28 1_555 1_555
C24H C23H 1_555 1_555
C24L C23L 1_555 1_555
C24G C23G 1_555 1_555
C24T C23T 1_555 1_555
C25T C24T 1_555 1_555
C25G C24G 1_555 1_555
C25L C24L 1_555 1_555
C25H C24H 1_555 1_555
C25S C24S 1_555 1_555
H13T C25T 1_555 1_555
H13G C25G 1_555 1_555
H13L C25L 1_555 1_555
H13H C25H 1_555 1_555
H13S C25S 1_555 1_555
C26T C25T 1_555 1_555
C26G C25G 1_555 1_555
C26L C25L 1_555 1_555
C26H C25H 1_555 1_555
C26S C25S 1_555 1_555
C27T C22T 1_555 1_555
C27G C22G 1_555 1_555
C27L C22L 1_555 1_555
C27H C22H 1_555 1_555
C27S C22S 1_555 1_555
H14T C27T 1_555 1_555
H14G C27G 1_555 1_555
H14L C27L 1_555 1_555
H14H C27H 1_555 1_555
H14S C27S 1_555 1_555
C28T C24 1_555 1_555
C28S O13S 1_555 1_555
C28H O13H 1_555 1_555
C28L O13L 1_555 1_555
C28G O13G 1_555 1_555
C29H O16H 1_555 1_555
C29G O16G 1_555 1_555
C29L O16L 1_555 1_555
C29T O16T 1_555 1_555
C29S O16S 1_555 1_555
C30H C29H 1_555 1_555
C30G C29G 1_555 1_555
C30T C29T 1_555 1_555
C30S C29S 1_555 1_555
C30L C29L 1_555 1_555
C31H C30H 1_555 1_555
C31G C30G 1_555 1_555
C31T C30T 1_555 1_555
C31S C30S 1_555 1_555
C31L C30L 1_555 1_555
H15L C31L 1_555 1_555
H15S C31S 1_555 1_555
H15T C31T 1_555 1_555
H15G C31G 1_555 1_555
H15H C31H 1_555 1_555
C32H C36 1_555 1_555
C32G C31G 1_555 1_555
C32T C31T 1_555 1_555
C32S C31S 1_555 1_555
C32L C31L 1_555 1_555
C33L C32L 1_555 1_555
C33S C32S 1_555 1_555
C33T C32T 1_555 1_555
C33G C32G 1_555 1_555
C33H C32H 1_555 1_555
H16L C33L 1_555 1_555
H16S C33S 1_555 1_555
H16T C33T 1_555 1_555
H16G C33G 1_555 1_555
H16H C33H 1_555 1_555
C34L C33L 1_555 1_555
C34S C33S 1_555 1_555
C34T C33T 1_555 1_555
C34G C33G 1_555 1_555
C34H C33H 1_555 1_555
C35L C30L 1_555 1_555
C35S C30S 1_555 1_555
C35T C30T 1_555 1_555
C35G C30G 1_555 1_555
C35H C30H 1_555 1_555
H17L C35L 1_555 1_555
H17S C35S 1_555 1_555
H17T C35T 1_555 1_555
H17G C35G 1_555 1_555
H17H C35H 1_555 1_555
C36H O18H 1_555 1_555
C36G C32 1_555 1_555
C36L O18L 1_555 1_555
C36T O18T 1_555 1_555
C36S O18S 1_555 1_555
C37H O22H 1_555 1_555
C37G O22G 1_555 1_555
C37T O22T 1_555 1_555
C37S O22S 1_555 1_555
C37L O22L 1_555 1_555
H18H C37H 1_555 1_555
H18G C37G 1_555 1_555
H18T C37T 1_555 1_555
H18S C37S 1_555 1_555
H18L C37L 1_555 1_555
H19H C37H 1_555 1_555
H19G C37G 1_555 1_555
H19T C37T 1_555 1_555
H19S C37S 1_555 1_555
H19L C37L 1_555 1_555
H20H C37H 1_555 1_555
H20G C37G 1_555 1_555
H20T C37T 1_555 1_555
H20S C37S 1_555 1_555
H20L C37L 1_555 1_555
C38T O24T 1_555 1_555
C38S O24S 1_555 1_555
C38H O24H 1_555 1_555
C38L O24L 1_555 1_555
C38G O24G 1_555 1_555
H21T C38T 1_555 1_555
H21S C38S 1_555 1_555
H21H C38H 1_555 1_555
H21L C38L 1_555 1_555
H21G C38G 1_555 1_555
H22T C38T 1_555 1_555
H22S C38S 1_555 1_555
H22H C38H 1_555 1_555
H22L C38L 1_555 1_555
H22G C38G 1_555 1_555
H23T C38T 1_555 1_555
H23S C38S 1_555 1_555
H23H C38H 1_555 1_555
H23L C38L 1_555 1_555
H23G C38G 1_555 1_555
C39T H24T 1_555 1_555
C39G H24G 1_555 1_555
C39L H24L 1_555 1_555
C39H H24H 1_555 1_555
C39S H24S 1_555 1_555
C40L C41L 1_555 1_555
C40S C41S 1_555 1_555
C40T C41T 1_555 1_555
C40G C41G 1_555 1_555
C40H C41H 1_555 1_555
C41L O20L 1_555 1_555
C41S O20S 1_555 1_555
C41T O20T 1_555 1_555
C41G O20G 1_555 1_555
C41H O20H 1_555 1_555
H25L C41L 1_555 1_555
H25S C41S 1_555 1_555
H25T C41T 1_555 1_555
H25G C41G 1_555 1_555
H25H C41H 1_555 1_555
H26L C41L 1_555 1_555
H26S C41S 1_555 1_555
H26T C41T 1_555 1_555
H26G C41G 1_555 1_555
H26H C41H 1_555 1_555
C42L C40L 1_555 1_555
C42S C40S 1_555 1_555
C42T C40T 1_555 1_555
C42G C40G 1_555 1_555
C42H C40H 1_555 1_555
H27L C42L 1_555 1_555
H27S C42S 1_555 1_555
H27T C42T 1_555 1_555
H27G C42G 1_555 1_555
H27H C42H 1_555 1_555
C43T C39T 1_555 1_555
C43G C39G 1_555 1_555
C43L C39L 1_555 1_555
C43H C39H 1_555 1_555
C43S C39S 1_555 1_555
C44T O15T 1_555 1_555
C44G O15G 1_555 1_555
C44L O15L 1_555 1_555
C44H O15H 1_555 1_555
C44S O15S 1_555 1_555
H28T C44T 1_555 1_555
H28G C44G 1_555 1_555
H28L C44L 1_555 1_555
H28H C44H 1_555 1_555
H28S C44S 1_555 1_555
H29T C44T 1_555 1_555
H29G C44G 1_555 1_555
H29L C44L 1_555 1_555
H29H C44H 1_555 1_555
H29S C44S 1_555 1_555
C45G H30G 1_555 1_555
C45L H30L 1_555 1_555
C45S H30S 1_555 1_555
C45T H30T 1_555 1_555
C45H H30H 1_555 1_555
C46G C20G 1_555 1_555
C46L C20L 1_555 1_555
C46S C20S 1_555 1_555
C46T C20T 1_555 1_555
C46H C20H 1_555 1_555
O7 C12 1_555 1_555
O9 C19 1_555 1_555
O12 C21 1_555 1_555
O14 C28 1_555 1_555
O17 C29 1_555 1_555
O19 C36 1_555 1_555
C6 C7 1_555 1_555
C17 C18 1_555 1_555
C26 C27 1_555 1_555
C34 C35 1_555 1_555
C43 C44 1_555 1_555
C45 C46 1_555 1_555
O7H C12H 1_555 1_555
O7G C12G 1_555 1_555
O7L C12L 1_555 1_555
O7T C12T 1_555 1_555
O7S C12S 1_555 1_555
O8S C19S 1_555 1_555
O9T C19T 1_555 1_555
O9S C19S 1_555 1_555
O9H C19H 1_555 1_555
O9L C19L 1_555 1_555
O9G C19G 1_555 1_555
O12T C21T 1_555 1_555
O12S C21S 1_555 1_555
O12H C21H 1_555 1_555
O12L C21L 1_555 1_555
O12G C21G 1_555 1_555
O13T C28T 1_555 1_555
O14T C28T 1_555 1_555
O14S C28S 1_555 1_555
O14H C28H 1_555 1_555
O14L C28L 1_555 1_555
O14G C28G 1_555 1_555
O17H C29H 1_555 1_555
O17G C29G 1_555 1_555
O17L C29L 1_555 1_555
O17T C29T 1_555 1_555
O17S C29S 1_555 1_555
O18G C36G 1_555 1_555
O19H C36H 1_555 1_555
O19G C36G 1_555 1_555
O19L C36L 1_555 1_555
O19T C36T 1_555 1_555
O19S C36S 1_555 1_555
C6S C7S 1_555 1_555
C6T C7T 1_555 1_555
C6L C7L 1_555 1_555
C6G C7G 1_555 1_555
C6H C7H 1_555 1_555
C16T C17T 1_555 1_555
C17G C18G 1_555 1_555
C17G C19T 1_555 1_555
C17L C18L 1_555 1_555
C17L C19G 1_555 1_555
C17S C18S 1_555 1_555
C17S C19H 1_555 1_555
C17T C18T 1_555 1_555
C17H C18H 1_555 1_555
C17H C19L 1_555 1_555
C23S C24S 1_555 1_555
C24H C28S 1_555 1_555
C24L C28H 1_555 1_555
C24G C28L 1_555 1_555
C24T C28G 1_555 1_555
C26T C27T 1_555 1_555
C26G C27G 1_555 1_555
C26L C27L 1_555 1_555
C26H C27H 1_555 1_555
C26S C27S 1_555 1_555
C31H C32H 1_555 1_555
C32G C36H 1_555 1_555
C32T C36L 1_555 1_555
C32S C36T 1_555 1_555
C32L C36S 1_555 1_555
C34L C35L 1_555 1_555
C34S C35S 1_555 1_555
C34T C35T 1_555 1_555
C34G C35G 1_555 1_555
C34H C35H 1_555 1_555
C43T C44T 1_555 1_555
C43G C44G 1_555 1_555
C43L C44L 1_555 1_555
C43H C44H 1_555 1_555
C43S C44S 1_555 1_555
C45G C46G 1_555 1_555
C45L C46L 1_555 1_555
C45S C46S 1_555 1_555
C45T C46T 1_555 1_555
C45H C46H 1_555 1_555

#END
