# generated using pymatgen
data_Cu2H15C23O12
_symmetry_space_group_name_H-M   'P 1'
_cell_length_a   34.48280000
_cell_length_b   34.48280000
_cell_length_c   34.48280000
_cell_angle_alpha   90.00000000
_cell_angle_beta   90.00000000
_cell_angle_gamma   90.00000000
_symmetry_Int_Tables_number   1
_chemical_formula_structural   Cu2H15C23O12
_chemical_formula_sum   'Cu96 H720 C1104 O576'
_cell_volume   41002.23871435
_cell_formula_units_Z   48
loop_
 _symmetry_equiv_pos_site_id
 _symmetry_equiv_pos_as_xyz
  1  'x, y, z'
loop_
 _atom_site_type_symbol
 _atom_site_label
 _atom_site_symmetry_multiplicity
 _atom_site_fract_x
 _atom_site_fract_y
 _atom_site_fract_z
 _atom_site_occupancy
  Cu  Cu1  1  0.876140  0.489840  0.194730  1.0
  Cu  Cu2  1  0.194730  0.876140  0.489840  1.0
  Cu  Cu3  1  0.489840  0.194730  0.876140  1.0
  Cu  Cu4  1  0.010160  0.805270  0.376140  1.0
  Cu  Cu5  1  0.694730  0.623860  0.510160  1.0
  Cu  Cu6  1  0.510160  0.694730  0.623860  1.0
  Cu  Cu7  1  0.305270  0.123860  0.989840  1.0
  Cu  Cu8  1  0.805270  0.376140  0.010160  1.0
  Cu  Cu9  1  0.989840  0.305270  0.123860  1.0
  Cu  Cu10  1  0.623860  0.510160  0.694730  1.0
  Cu  Cu11  1  0.376140  0.010160  0.805270  1.0
  Cu  Cu12  1  0.123860  0.989840  0.305270  1.0
  Cu  Cu13  1  0.123860  0.510160  0.805270  1.0
  Cu  Cu14  1  0.805270  0.123860  0.510160  1.0
  Cu  Cu15  1  0.510160  0.805270  0.123860  1.0
  Cu  Cu16  1  0.989840  0.194730  0.623860  1.0
  Cu  Cu17  1  0.305270  0.376140  0.489840  1.0
  Cu  Cu18  1  0.489840  0.305270  0.376140  1.0
  Cu  Cu19  1  0.694730  0.876140  0.010160  1.0
  Cu  Cu20  1  0.194730  0.623860  0.989840  1.0
  Cu  Cu21  1  0.010160  0.694730  0.876140  1.0
  Cu  Cu22  1  0.376140  0.489840  0.305270  1.0
  Cu  Cu23  1  0.623860  0.989840  0.194730  1.0
  Cu  Cu24  1  0.876140  0.010160  0.694730  1.0
  Cu  Cu25  1  0.836940  0.488310  0.259170  1.0
  Cu  Cu26  1  0.259170  0.836940  0.488310  1.0
  Cu  Cu27  1  0.488310  0.259170  0.836940  1.0
  Cu  Cu28  1  0.011690  0.740830  0.336940  1.0
  Cu  Cu29  1  0.759170  0.663060  0.511690  1.0
  Cu  Cu30  1  0.511690  0.759170  0.663060  1.0
  Cu  Cu31  1  0.240830  0.163060  0.988310  1.0
  Cu  Cu32  1  0.740830  0.336940  0.011690  1.0
  Cu  Cu33  1  0.988310  0.240830  0.163060  1.0
  Cu  Cu34  1  0.663060  0.511690  0.759170  1.0
  Cu  Cu35  1  0.336940  0.011690  0.740830  1.0
  Cu  Cu36  1  0.163060  0.988310  0.240830  1.0
  Cu  Cu37  1  0.163060  0.511690  0.740830  1.0
  Cu  Cu38  1  0.740830  0.163060  0.511690  1.0
  Cu  Cu39  1  0.511690  0.740830  0.163060  1.0
  Cu  Cu40  1  0.988310  0.259170  0.663060  1.0
  Cu  Cu41  1  0.240830  0.336940  0.488310  1.0
  Cu  Cu42  1  0.488310  0.240830  0.336940  1.0
  Cu  Cu43  1  0.759170  0.836940  0.011690  1.0
  Cu  Cu44  1  0.259170  0.663060  0.988310  1.0
  Cu  Cu45  1  0.011690  0.759170  0.836940  1.0
  Cu  Cu46  1  0.336940  0.488310  0.240830  1.0
  Cu  Cu47  1  0.663060  0.988310  0.259170  1.0
  Cu  Cu48  1  0.836940  0.011690  0.759170  1.0
  Cu  Cu49  1  0.877830  0.682890  0.067560  1.0
  Cu  Cu50  1  0.067560  0.877830  0.682890  1.0
  Cu  Cu51  1  0.682890  0.067560  0.877830  1.0
  Cu  Cu52  1  0.817110  0.932440  0.377830  1.0
  Cu  Cu53  1  0.567560  0.622170  0.317110  1.0
  Cu  Cu54  1  0.317110  0.567560  0.622170  1.0
  Cu  Cu55  1  0.432440  0.122170  0.182890  1.0
  Cu  Cu56  1  0.932440  0.377830  0.817110  1.0
  Cu  Cu57  1  0.182890  0.432440  0.122170  1.0
  Cu  Cu58  1  0.622170  0.317110  0.567560  1.0
  Cu  Cu59  1  0.377830  0.817110  0.932440  1.0
  Cu  Cu60  1  0.122170  0.182890  0.432440  1.0
  Cu  Cu61  1  0.122170  0.317110  0.932440  1.0
  Cu  Cu62  1  0.932440  0.122170  0.317110  1.0
  Cu  Cu63  1  0.317110  0.932440  0.122170  1.0
  Cu  Cu64  1  0.182890  0.067560  0.622170  1.0
  Cu  Cu65  1  0.432440  0.377830  0.682890  1.0
  Cu  Cu66  1  0.682890  0.432440  0.377830  1.0
  Cu  Cu67  1  0.567560  0.877830  0.817110  1.0
  Cu  Cu68  1  0.067560  0.622170  0.182890  1.0
  Cu  Cu69  1  0.817110  0.567560  0.877830  1.0
  Cu  Cu70  1  0.377830  0.682890  0.432440  1.0
  Cu  Cu71  1  0.622170  0.182890  0.067560  1.0
  Cu  Cu72  1  0.877830  0.817110  0.567560  1.0
  Cu  Cu73  1  0.837820  0.743450  0.089270  1.0
  Cu  Cu74  1  0.089270  0.837820  0.743450  1.0
  Cu  Cu75  1  0.743450  0.089270  0.837820  1.0
  Cu  Cu76  1  0.756550  0.910730  0.337820  1.0
  Cu  Cu77  1  0.589270  0.662180  0.256550  1.0
  Cu  Cu78  1  0.256550  0.589270  0.662180  1.0
  Cu  Cu79  1  0.410730  0.162180  0.243450  1.0
  Cu  Cu80  1  0.910730  0.337820  0.756550  1.0
  Cu  Cu81  1  0.243450  0.410730  0.162180  1.0
  Cu  Cu82  1  0.662180  0.256550  0.589270  1.0
  Cu  Cu83  1  0.337820  0.756550  0.910730  1.0
  Cu  Cu84  1  0.162180  0.243450  0.410730  1.0
  Cu  Cu85  1  0.162180  0.256550  0.910730  1.0
  Cu  Cu86  1  0.910730  0.162180  0.256550  1.0
  Cu  Cu87  1  0.256550  0.910730  0.162180  1.0
  Cu  Cu88  1  0.243450  0.089270  0.662180  1.0
  Cu  Cu89  1  0.410730  0.337820  0.743450  1.0
  Cu  Cu90  1  0.743450  0.410730  0.337820  1.0
  Cu  Cu91  1  0.589270  0.837820  0.756550  1.0
  Cu  Cu92  1  0.089270  0.662180  0.243450  1.0
  Cu  Cu93  1  0.756550  0.589270  0.837820  1.0
  Cu  Cu94  1  0.337820  0.743450  0.410730  1.0
  Cu  Cu95  1  0.662180  0.243450  0.089270  1.0
  Cu  Cu96  1  0.837820  0.756550  0.589270  1.0
  H  H97  1  0.841600  0.600300  0.152600  1.0
  H  H98  1  0.152600  0.841600  0.600300  1.0
  H  H99  1  0.600300  0.152600  0.841600  1.0
  H  H100  1  0.899700  0.847400  0.341600  1.0
  H  H101  1  0.652600  0.658400  0.399700  1.0
  H  H102  1  0.399700  0.652600  0.658400  1.0
  H  H103  1  0.347400  0.158400  0.100300  1.0
  H  H104  1  0.847400  0.341600  0.899700  1.0
  H  H105  1  0.100300  0.347400  0.158400  1.0
  H  H106  1  0.658400  0.399700  0.652600  1.0
  H  H107  1  0.341600  0.899700  0.847400  1.0
  H  H108  1  0.158400  0.100300  0.347400  1.0
  H  H109  1  0.158400  0.399700  0.847400  1.0
  H  H110  1  0.847400  0.158400  0.399700  1.0
  H  H111  1  0.399700  0.847400  0.158400  1.0
  H  H112  1  0.100300  0.152600  0.658400  1.0
  H  H113  1  0.347400  0.341600  0.600300  1.0
  H  H114  1  0.600300  0.347400  0.341600  1.0
  H  H115  1  0.652600  0.841600  0.899700  1.0
  H  H116  1  0.152600  0.658400  0.100300  1.0
  H  H117  1  0.899700  0.652600  0.841600  1.0
  H  H118  1  0.341600  0.600300  0.347400  1.0
  H  H119  1  0.658400  0.100300  0.152600  1.0
  H  H120  1  0.841600  0.899700  0.652600  1.0
  H  H121  1  0.772200  0.690100  0.181700  1.0
  H  H122  1  0.181700  0.772200  0.690100  1.0
  H  H123  1  0.690100  0.181700  0.772200  1.0
  H  H124  1  0.809900  0.818300  0.272200  1.0
  H  H125  1  0.681700  0.727800  0.309900  1.0
  H  H126  1  0.309900  0.681700  0.727800  1.0
  H  H127  1  0.318300  0.227800  0.190100  1.0
  H  H128  1  0.818300  0.272200  0.809900  1.0
  H  H129  1  0.190100  0.318300  0.227800  1.0
  H  H130  1  0.727800  0.309900  0.681700  1.0
  H  H131  1  0.272200  0.809900  0.818300  1.0
  H  H132  1  0.227800  0.190100  0.318300  1.0
  H  H133  1  0.227800  0.309900  0.818300  1.0
  H  H134  1  0.818300  0.227800  0.309900  1.0
  H  H135  1  0.309900  0.818300  0.227800  1.0
  H  H136  1  0.190100  0.181700  0.727800  1.0
  H  H137  1  0.318300  0.272200  0.690100  1.0
  H  H138  1  0.690100  0.318300  0.272200  1.0
  H  H139  1  0.681700  0.772200  0.809900  1.0
  H  H140  1  0.181700  0.727800  0.190100  1.0
  H  H141  1  0.809900  0.681700  0.772200  1.0
  H  H142  1  0.272200  0.690100  0.318300  1.0
  H  H143  1  0.727800  0.190100  0.181700  1.0
  H  H144  1  0.772200  0.809900  0.681700  1.0
  H  H145  1  0.776300  0.594100  0.251700  1.0
  H  H146  1  0.251700  0.776300  0.594100  1.0
  H  H147  1  0.594100  0.251700  0.776300  1.0
  H  H148  1  0.905900  0.748300  0.276300  1.0
  H  H149  1  0.751700  0.723700  0.405900  1.0
  H  H150  1  0.405900  0.751700  0.723700  1.0
  H  H151  1  0.248300  0.223700  0.094100  1.0
  H  H152  1  0.748300  0.276300  0.905900  1.0
  H  H153  1  0.094100  0.248300  0.223700  1.0
  H  H154  1  0.723700  0.405900  0.751700  1.0
  H  H155  1  0.276300  0.905900  0.748300  1.0
  H  H156  1  0.223700  0.094100  0.248300  1.0
  H  H157  1  0.223700  0.405900  0.748300  1.0
  H  H158  1  0.748300  0.223700  0.405900  1.0
  H  H159  1  0.405900  0.748300  0.223700  1.0
  H  H160  1  0.094100  0.251700  0.723700  1.0
  H  H161  1  0.248300  0.276300  0.594100  1.0
  H  H162  1  0.594100  0.248300  0.276300  1.0
  H  H163  1  0.751700  0.776300  0.905900  1.0
  H  H164  1  0.251700  0.723700  0.094100  1.0
  H  H165  1  0.905900  0.751700  0.776300  1.0
  H  H166  1  0.276300  0.594100  0.248300  1.0
  H  H167  1  0.723700  0.094100  0.251700  1.0
  H  H168  1  0.776300  0.905900  0.751700  1.0
  H  H169  1  0.721100  0.615900  0.260700  1.0
  H  H170  1  0.260700  0.721100  0.615900  1.0
  H  H171  1  0.615900  0.260700  0.721100  1.0
  H  H172  1  0.884100  0.739300  0.221100  1.0
  H  H173  1  0.760700  0.778900  0.384100  1.0
  H  H174  1  0.384100  0.760700  0.778900  1.0
  H  H175  1  0.239300  0.278900  0.115900  1.0
  H  H176  1  0.739300  0.221100  0.884100  1.0
  H  H177  1  0.115900  0.239300  0.278900  1.0
  H  H178  1  0.778900  0.384100  0.760700  1.0
  H  H179  1  0.221100  0.884100  0.739300  1.0
  H  H180  1  0.278900  0.115900  0.239300  1.0
  H  H181  1  0.278900  0.384100  0.739300  1.0
  H  H182  1  0.739300  0.278900  0.384100  1.0
  H  H183  1  0.384100  0.739300  0.278900  1.0
  H  H184  1  0.115900  0.260700  0.778900  1.0
  H  H185  1  0.239300  0.221100  0.615900  1.0
  H  H186  1  0.615900  0.239300  0.221100  1.0
  H  H187  1  0.760700  0.721100  0.884100  1.0
  H  H188  1  0.260700  0.778900  0.115900  1.0
  H  H189  1  0.884100  0.760700  0.721100  1.0
  H  H190  1  0.221100  0.615900  0.239300  1.0
  H  H191  1  0.778900  0.115900  0.260700  1.0
  H  H192  1  0.721100  0.884100  0.760700  1.0
  H  H193  1  0.700400  0.654100  0.276900  1.0
  H  H194  1  0.276900  0.700400  0.654100  1.0
  H  H195  1  0.654100  0.276900  0.700400  1.0
  H  H196  1  0.845900  0.723100  0.200400  1.0
  H  H197  1  0.776900  0.799600  0.345900  1.0
  H  H198  1  0.345900  0.776900  0.799600  1.0
  H  H199  1  0.223100  0.299600  0.154100  1.0
  H  H200  1  0.723100  0.200400  0.845900  1.0
  H  H201  1  0.154100  0.223100  0.299600  1.0
  H  H202  1  0.799600  0.345900  0.776900  1.0
  H  H203  1  0.200400  0.845900  0.723100  1.0
  H  H204  1  0.299600  0.154100  0.223100  1.0
  H  H205  1  0.299600  0.345900  0.723100  1.0
  H  H206  1  0.723100  0.299600  0.345900  1.0
  H  H207  1  0.345900  0.723100  0.299600  1.0
  H  H208  1  0.154100  0.276900  0.799600  1.0
  H  H209  1  0.223100  0.200400  0.654100  1.0
  H  H210  1  0.654100  0.223100  0.200400  1.0
  H  H211  1  0.776900  0.700400  0.845900  1.0
  H  H212  1  0.276900  0.799600  0.154100  1.0
  H  H213  1  0.845900  0.776900  0.700400  1.0
  H  H214  1  0.200400  0.654100  0.223100  1.0
  H  H215  1  0.799600  0.154100  0.276900  1.0
  H  H216  1  0.700400  0.845900  0.776900  1.0
  H  H217  1  0.789500  0.631600  0.347800  1.0
  H  H218  1  0.347800  0.789500  0.631600  1.0
  H  H219  1  0.631600  0.347800  0.789500  1.0
  H  H220  1  0.868400  0.652200  0.289500  1.0
  H  H221  1  0.847800  0.710500  0.368400  1.0
  H  H222  1  0.368400  0.847800  0.710500  1.0
  H  H223  1  0.152200  0.210500  0.131600  1.0
  H  H224  1  0.652200  0.289500  0.868400  1.0
  H  H225  1  0.131600  0.152200  0.210500  1.0
  H  H226  1  0.710500  0.368400  0.847800  1.0
  H  H227  1  0.289500  0.868400  0.652200  1.0
  H  H228  1  0.210500  0.131600  0.152200  1.0
  H  H229  1  0.210500  0.368400  0.652200  1.0
  H  H230  1  0.652200  0.210500  0.368400  1.0
  H  H231  1  0.368400  0.652200  0.210500  1.0
  H  H232  1  0.131600  0.347800  0.710500  1.0
  H  H233  1  0.152200  0.289500  0.631600  1.0
  H  H234  1  0.631600  0.152200  0.289500  1.0
  H  H235  1  0.847800  0.789500  0.868400  1.0
  H  H236  1  0.347800  0.710500  0.131600  1.0
  H  H237  1  0.868400  0.847800  0.789500  1.0
  H  H238  1  0.289500  0.631600  0.152200  1.0
  H  H239  1  0.710500  0.131600  0.347800  1.0
  H  H240  1  0.789500  0.868400  0.847800  1.0
  H  H241  1  0.924600  0.534700  0.332500  1.0
  H  H242  1  0.332500  0.924600  0.534700  1.0
  H  H243  1  0.534700  0.332500  0.924600  1.0
  H  H244  1  0.965300  0.667500  0.424600  1.0
  H  H245  1  0.832500  0.575400  0.465300  1.0
  H  H246  1  0.465300  0.832500  0.575400  1.0
  H  H247  1  0.167500  0.075400  0.034700  1.0
  H  H248  1  0.667500  0.424600  0.965300  1.0
  H  H249  1  0.034700  0.167500  0.075400  1.0
  H  H250  1  0.575400  0.465300  0.832500  1.0
  H  H251  1  0.424600  0.965300  0.667500  1.0
  H  H252  1  0.075400  0.034700  0.167500  1.0
  H  H253  1  0.075400  0.465300  0.667500  1.0
  H  H254  1  0.667500  0.075400  0.465300  1.0
  H  H255  1  0.465300  0.667500  0.075400  1.0
  H  H256  1  0.034700  0.332500  0.575400  1.0
  H  H257  1  0.167500  0.424600  0.534700  1.0
  H  H258  1  0.534700  0.167500  0.424600  1.0
  H  H259  1  0.832500  0.924600  0.965300  1.0
  H  H260  1  0.332500  0.575400  0.034700  1.0
  H  H261  1  0.965300  0.832500  0.924600  1.0
  H  H262  1  0.424600  0.534700  0.167500  1.0
  H  H263  1  0.575400  0.034700  0.332500  1.0
  H  H264  1  0.924600  0.965300  0.832500  1.0
  H  H265  1  0.023000  0.598600  0.329400  1.0
  H  H266  1  0.329400  0.023000  0.598600  1.0
  H  H267  1  0.598600  0.329400  0.023000  1.0
  H  H268  1  0.901400  0.670600  0.523000  1.0
  H  H269  1  0.829400  0.477000  0.401400  1.0
  H  H270  1  0.401400  0.829400  0.477000  1.0
  H  H271  1  0.170600  0.977000  0.098600  1.0
  H  H272  1  0.670600  0.523000  0.901400  1.0
  H  H273  1  0.098600  0.170600  0.977000  1.0
  H  H274  1  0.477000  0.401400  0.829400  1.0
  H  H275  1  0.523000  0.901400  0.670600  1.0
  H  H276  1  0.977000  0.098600  0.170600  1.0
  H  H277  1  0.977000  0.401400  0.670600  1.0
  H  H278  1  0.670600  0.977000  0.401400  1.0
  H  H279  1  0.401400  0.670600  0.977000  1.0
  H  H280  1  0.098600  0.329400  0.477000  1.0
  H  H281  1  0.170600  0.523000  0.598600  1.0
  H  H282  1  0.598600  0.170600  0.523000  1.0
  H  H283  1  0.829400  0.023000  0.901400  1.0
  H  H284  1  0.329400  0.477000  0.098600  1.0
  H  H285  1  0.901400  0.829400  0.023000  1.0
  H  H286  1  0.523000  0.598600  0.170600  1.0
  H  H287  1  0.477000  0.098600  0.329400  1.0
  H  H288  1  0.023000  0.901400  0.829400  1.0
  H  H289  1  0.969700  0.563800  0.228700  1.0
  H  H290  1  0.228700  0.969700  0.563800  1.0
  H  H291  1  0.563800  0.228700  0.969700  1.0
  H  H292  1  0.936200  0.771300  0.469700  1.0
  H  H293  1  0.728700  0.530300  0.436200  1.0
  H  H294  1  0.436200  0.728700  0.530300  1.0
  H  H295  1  0.271300  0.030300  0.063800  1.0
  H  H296  1  0.771300  0.469700  0.936200  1.0
  H  H297  1  0.063800  0.271300  0.030300  1.0
  H  H298  1  0.530300  0.436200  0.728700  1.0
  H  H299  1  0.469700  0.936200  0.771300  1.0
  H  H300  1  0.030300  0.063800  0.271300  1.0
  H  H301  1  0.030300  0.436200  0.771300  1.0
  H  H302  1  0.771300  0.030300  0.436200  1.0
  H  H303  1  0.436200  0.771300  0.030300  1.0
  H  H304  1  0.063800  0.228700  0.530300  1.0
  H  H305  1  0.271300  0.469700  0.563800  1.0
  H  H306  1  0.563800  0.271300  0.469700  1.0
  H  H307  1  0.728700  0.969700  0.936200  1.0
  H  H308  1  0.228700  0.530300  0.063800  1.0
  H  H309  1  0.936200  0.728700  0.969700  1.0
  H  H310  1  0.469700  0.563800  0.271300  1.0
  H  H311  1  0.530300  0.063800  0.228700  1.0
  H  H312  1  0.969700  0.936200  0.728700  1.0
  H  H313  1  0.032000  0.559800  0.372900  1.0
  H  H314  1  0.372900  0.032000  0.559800  1.0
  H  H315  1  0.559800  0.372900  0.032000  1.0
  H  H316  1  0.940200  0.627100  0.532000  1.0
  H  H317  1  0.872900  0.468000  0.440200  1.0
  H  H318  1  0.440200  0.872900  0.468000  1.0
  H  H319  1  0.127100  0.968000  0.059800  1.0
  H  H320  1  0.627100  0.532000  0.940200  1.0
  H  H321  1  0.059800  0.127100  0.968000  1.0
  H  H322  1  0.468000  0.440200  0.872900  1.0
  H  H323  1  0.532000  0.940200  0.627100  1.0
  H  H324  1  0.968000  0.059800  0.127100  1.0
  H  H325  1  0.968000  0.440200  0.627100  1.0
  H  H326  1  0.627100  0.968000  0.440200  1.0
  H  H327  1  0.440200  0.627100  0.968000  1.0
  H  H328  1  0.059800  0.372900  0.468000  1.0
  H  H329  1  0.127100  0.532000  0.559800  1.0
  H  H330  1  0.559800  0.127100  0.532000  1.0
  H  H331  1  0.872900  0.032000  0.940200  1.0
  H  H332  1  0.372900  0.468000  0.059800  1.0
  H  H333  1  0.940200  0.872900  0.032000  1.0
  H  H334  1  0.532000  0.559800  0.127100  1.0
  H  H335  1  0.468000  0.059800  0.372900  1.0
  H  H336  1  0.032000  0.940200  0.872900  1.0
  H  H337  1  0.016700  0.559900  0.416800  1.0
  H  H338  1  0.416800  0.016700  0.559900  1.0
  H  H339  1  0.559900  0.416800  0.016700  1.0
  H  H340  1  0.940100  0.583200  0.516700  1.0
  H  H341  1  0.916800  0.483300  0.440100  1.0
  H  H342  1  0.440100  0.916800  0.483300  1.0
  H  H343  1  0.083200  0.983300  0.059900  1.0
  H  H344  1  0.583200  0.516700  0.940100  1.0
  H  H345  1  0.059900  0.083200  0.983300  1.0
  H  H346  1  0.483300  0.440100  0.916800  1.0
  H  H347  1  0.516700  0.940100  0.583200  1.0
  H  H348  1  0.983300  0.059900  0.083200  1.0
  H  H349  1  0.983300  0.440100  0.583200  1.0
  H  H350  1  0.583200  0.983300  0.440100  1.0
  H  H351  1  0.440100  0.583200  0.983300  1.0
  H  H352  1  0.059900  0.416800  0.483300  1.0
  H  H353  1  0.083200  0.516700  0.559900  1.0
  H  H354  1  0.559900  0.083200  0.516700  1.0
  H  H355  1  0.916800  0.016700  0.940100  1.0
  H  H356  1  0.416800  0.483300  0.059900  1.0
  H  H357  1  0.940100  0.916800  0.016700  1.0
  H  H358  1  0.516700  0.559900  0.083200  1.0
  H  H359  1  0.483300  0.059900  0.416800  1.0
  H  H360  1  0.016700  0.940100  0.916800  1.0
  H  H361  1  0.811400  0.648400  0.967900  1.0
  H  H362  1  0.967900  0.811400  0.648400  1.0
  H  H363  1  0.648400  0.967900  0.811400  1.0
  H  H364  1  0.851600  0.032100  0.311400  1.0
  H  H365  1  0.467900  0.688600  0.351600  1.0
  H  H366  1  0.351600  0.467900  0.688600  1.0
  H  H367  1  0.532100  0.188600  0.148400  1.0
  H  H368  1  0.032100  0.311400  0.851600  1.0
  H  H369  1  0.148400  0.532100  0.188600  1.0
  H  H370  1  0.688600  0.351600  0.467900  1.0
  H  H371  1  0.311400  0.851600  0.032100  1.0
  H  H372  1  0.188600  0.148400  0.532100  1.0
  H  H373  1  0.188600  0.351600  0.032100  1.0
  H  H374  1  0.032100  0.188600  0.351600  1.0
  H  H375  1  0.351600  0.032100  0.188600  1.0
  H  H376  1  0.148400  0.967900  0.688600  1.0
  H  H377  1  0.532100  0.311400  0.648400  1.0
  H  H378  1  0.648400  0.532100  0.311400  1.0
  H  H379  1  0.467900  0.811400  0.851600  1.0
  H  H380  1  0.967900  0.688600  0.148400  1.0
  H  H381  1  0.851600  0.467900  0.811400  1.0
  H  H382  1  0.311400  0.648400  0.532100  1.0
  H  H383  1  0.688600  0.148400  0.967900  1.0
  H  H384  1  0.811400  0.851600  0.467900  1.0
  H  H385  1  0.708600  0.672600  0.917600  1.0
  H  H386  1  0.917600  0.708600  0.672600  1.0
  H  H387  1  0.672600  0.917600  0.708600  1.0
  H  H388  1  0.827400  0.082400  0.208600  1.0
  H  H389  1  0.417600  0.791400  0.327400  1.0
  H  H390  1  0.327400  0.417600  0.791400  1.0
  H  H391  1  0.582400  0.291400  0.172600  1.0
  H  H392  1  0.082400  0.208600  0.827400  1.0
  H  H393  1  0.172600  0.582400  0.291400  1.0
  H  H394  1  0.791400  0.327400  0.417600  1.0
  H  H395  1  0.208600  0.827400  0.082400  1.0
  H  H396  1  0.291400  0.172600  0.582400  1.0
  H  H397  1  0.291400  0.327400  0.082400  1.0
  H  H398  1  0.082400  0.291400  0.327400  1.0
  H  H399  1  0.327400  0.082400  0.291400  1.0
  H  H400  1  0.172600  0.917600  0.791400  1.0
  H  H401  1  0.582400  0.208600  0.672600  1.0
  H  H402  1  0.672600  0.582400  0.208600  1.0
  H  H403  1  0.417600  0.708600  0.827400  1.0
  H  H404  1  0.917600  0.791400  0.172600  1.0
  H  H405  1  0.827400  0.417600  0.708600  1.0
  H  H406  1  0.208600  0.672600  0.582400  1.0
  H  H407  1  0.791400  0.172600  0.917600  1.0
  H  H408  1  0.708600  0.827400  0.417600  1.0
  H  H409  1  0.741900  0.731800  0.014500  1.0
  H  H410  1  0.014500  0.741900  0.731800  1.0
  H  H411  1  0.731800  0.014500  0.741900  1.0
  H  H412  1  0.768200  0.985500  0.241900  1.0
  H  H413  1  0.514500  0.758100  0.268200  1.0
  H  H414  1  0.268200  0.514500  0.758100  1.0
  H  H415  1  0.485500  0.258100  0.231800  1.0
  H  H416  1  0.985500  0.241900  0.768200  1.0
  H  H417  1  0.231800  0.485500  0.258100  1.0
  H  H418  1  0.758100  0.268200  0.514500  1.0
  H  H419  1  0.241900  0.768200  0.985500  1.0
  H  H420  1  0.258100  0.231800  0.485500  1.0
  H  H421  1  0.258100  0.268200  0.985500  1.0
  H  H422  1  0.985500  0.258100  0.268200  1.0
  H  H423  1  0.268200  0.985500  0.258100  1.0
  H  H424  1  0.231800  0.014500  0.758100  1.0
  H  H425  1  0.485500  0.241900  0.731800  1.0
  H  H426  1  0.731800  0.485500  0.241900  1.0
  H  H427  1  0.514500  0.741900  0.768200  1.0
  H  H428  1  0.014500  0.758100  0.231800  1.0
  H  H429  1  0.768200  0.514500  0.741900  1.0
  H  H430  1  0.241900  0.731800  0.485500  1.0
  H  H431  1  0.758100  0.231800  0.014500  1.0
  H  H432  1  0.741900  0.768200  0.514500  1.0
  H  H433  1  0.799400  0.427600  0.119100  1.0
  H  H434  1  0.119100  0.799400  0.427600  1.0
  H  H435  1  0.427600  0.119100  0.799400  1.0
  H  H436  1  0.072400  0.880900  0.299400  1.0
  H  H437  1  0.619100  0.700600  0.572400  1.0
  H  H438  1  0.572400  0.619100  0.700600  1.0
  H  H439  1  0.380900  0.200600  0.927600  1.0
  H  H440  1  0.880900  0.299400  0.072400  1.0
  H  H441  1  0.927600  0.380900  0.200600  1.0
  H  H442  1  0.700600  0.572400  0.619100  1.0
  H  H443  1  0.299400  0.072400  0.880900  1.0
  H  H444  1  0.200600  0.927600  0.380900  1.0
  H  H445  1  0.200600  0.572400  0.880900  1.0
  H  H446  1  0.880900  0.200600  0.572400  1.0
  H  H447  1  0.572400  0.880900  0.200600  1.0
  H  H448  1  0.927600  0.119100  0.700600  1.0
  H  H449  1  0.380900  0.299400  0.427600  1.0
  H  H450  1  0.427600  0.380900  0.299400  1.0
  H  H451  1  0.619100  0.799400  0.072400  1.0
  H  H452  1  0.119100  0.700600  0.927600  1.0
  H  H453  1  0.072400  0.619100  0.799400  1.0
  H  H454  1  0.299400  0.427600  0.380900  1.0
  H  H455  1  0.700600  0.927600  0.119100  1.0
  H  H456  1  0.799400  0.072400  0.619100  1.0
  H  H457  1  0.694700  0.370100  0.124500  1.0
  H  H458  1  0.124500  0.694700  0.370100  1.0
  H  H459  1  0.370100  0.124500  0.694700  1.0
  H  H460  1  0.129900  0.875500  0.194700  1.0
  H  H461  1  0.624500  0.805300  0.629900  1.0
  H  H462  1  0.629900  0.624500  0.805300  1.0
  H  H463  1  0.375500  0.305300  0.870100  1.0
  H  H464  1  0.875500  0.194700  0.129900  1.0
  H  H465  1  0.870100  0.375500  0.305300  1.0
  H  H466  1  0.805300  0.629900  0.624500  1.0
  H  H467  1  0.194700  0.129900  0.875500  1.0
  H  H468  1  0.305300  0.870100  0.375500  1.0
  H  H469  1  0.305300  0.629900  0.875500  1.0
  H  H470  1  0.875500  0.305300  0.629900  1.0
  H  H471  1  0.629900  0.875500  0.305300  1.0
  H  H472  1  0.870100  0.124500  0.805300  1.0
  H  H473  1  0.375500  0.194700  0.370100  1.0
  H  H474  1  0.370100  0.375500  0.194700  1.0
  H  H475  1  0.624500  0.694700  0.129900  1.0
  H  H476  1  0.124500  0.805300  0.870100  1.0
  H  H477  1  0.129900  0.624500  0.694700  1.0
  H  H478  1  0.194700  0.370100  0.375500  1.0
  H  H479  1  0.805300  0.870100  0.124500  1.0
  H  H480  1  0.694700  0.129900  0.624500  1.0
  H  H481  1  0.734600  0.430800  0.217800  1.0
  H  H482  1  0.217800  0.734600  0.430800  1.0
  H  H483  1  0.430800  0.217800  0.734600  1.0
  H  H484  1  0.069200  0.782200  0.234600  1.0
  H  H485  1  0.717800  0.765400  0.569200  1.0
  H  H486  1  0.569200  0.717800  0.765400  1.0
  H  H487  1  0.282200  0.265400  0.930800  1.0
  H  H488  1  0.782200  0.234600  0.069200  1.0
  H  H489  1  0.930800  0.282200  0.265400  1.0
  H  H490  1  0.765400  0.569200  0.717800  1.0
  H  H491  1  0.234600  0.069200  0.782200  1.0
  H  H492  1  0.265400  0.930800  0.282200  1.0
  H  H493  1  0.265400  0.569200  0.782200  1.0
  H  H494  1  0.782200  0.265400  0.569200  1.0
  H  H495  1  0.569200  0.782200  0.265400  1.0
  H  H496  1  0.930800  0.217800  0.765400  1.0
  H  H497  1  0.282200  0.234600  0.430800  1.0
  H  H498  1  0.430800  0.282200  0.234600  1.0
  H  H499  1  0.717800  0.734600  0.069200  1.0
  H  H500  1  0.217800  0.765400  0.930800  1.0
  H  H501  1  0.069200  0.717800  0.734600  1.0
  H  H502  1  0.234600  0.430800  0.282200  1.0
  H  H503  1  0.765400  0.930800  0.217800  1.0
  H  H504  1  0.734600  0.069200  0.717800  1.0
  H  H505  1  0.816100  0.545800  0.336500  1.0
  H  H506  1  0.336500  0.816100  0.545800  1.0
  H  H507  1  0.545800  0.336500  0.816100  1.0
  H  H508  1  0.954200  0.663500  0.316100  1.0
  H  H509  1  0.836500  0.683900  0.454200  1.0
  H  H510  1  0.454200  0.836500  0.683900  1.0
  H  H511  1  0.163500  0.183900  0.045800  1.0
  H  H512  1  0.663500  0.316100  0.954200  1.0
  H  H513  1  0.045800  0.163500  0.183900  1.0
  H  H514  1  0.683900  0.454200  0.836500  1.0
  H  H515  1  0.316100  0.954200  0.663500  1.0
  H  H516  1  0.183900  0.045800  0.163500  1.0
  H  H517  1  0.183900  0.454200  0.663500  1.0
  H  H518  1  0.663500  0.183900  0.454200  1.0
  H  H519  1  0.454200  0.663500  0.183900  1.0
  H  H520  1  0.045800  0.336500  0.683900  1.0
  H  H521  1  0.163500  0.316100  0.545800  1.0
  H  H522  1  0.545800  0.163500  0.316100  1.0
  H  H523  1  0.836500  0.816100  0.954200  1.0
  H  H524  1  0.336500  0.683900  0.045800  1.0
  H  H525  1  0.954200  0.836500  0.816100  1.0
  H  H526  1  0.316100  0.545800  0.163500  1.0
  H  H527  1  0.683900  0.045800  0.336500  1.0
  H  H528  1  0.816100  0.954200  0.836500  1.0
  H  H529  1  0.770400  0.538000  0.333333  1.0
  H  H530  1  0.333333  0.770400  0.538000  1.0
  H  H531  1  0.538000  0.333333  0.770400  1.0
  H  H532  1  0.962000  0.666667  0.270400  1.0
  H  H533  1  0.833333  0.729600  0.462000  1.0
  H  H534  1  0.462000  0.833333  0.729600  1.0
  H  H535  1  0.166667  0.229600  0.038000  1.0
  H  H536  1  0.666667  0.270400  0.962000  1.0
  H  H537  1  0.038000  0.166667  0.229600  1.0
  H  H538  1  0.729600  0.462000  0.833333  1.0
  H  H539  1  0.270400  0.962000  0.666667  1.0
  H  H540  1  0.229600  0.038000  0.166667  1.0
  H  H541  1  0.229600  0.462000  0.666667  1.0
  H  H542  1  0.666667  0.229600  0.462000  1.0
  H  H543  1  0.462000  0.666667  0.229600  1.0
  H  H544  1  0.038000  0.333333  0.729600  1.0
  H  H545  1  0.166667  0.270400  0.538000  1.0
  H  H546  1  0.538000  0.166667  0.270400  1.0
  H  H547  1  0.833333  0.770400  0.962000  1.0
  H  H548  1  0.333333  0.729600  0.038000  1.0
  H  H549  1  0.962000  0.833333  0.770400  1.0
  H  H550  1  0.270400  0.538000  0.166667  1.0
  H  H551  1  0.729600  0.038000  0.333333  1.0
  H  H552  1  0.770400  0.962000  0.833333  1.0
  H  H553  1  0.794600  0.550000  0.295600  1.0
  H  H554  1  0.295600  0.794600  0.550000  1.0
  H  H555  1  0.550000  0.295600  0.794600  1.0
  H  H556  1  0.950000  0.704400  0.294600  1.0
  H  H557  1  0.795600  0.705400  0.450000  1.0
  H  H558  1  0.450000  0.795600  0.705400  1.0
  H  H559  1  0.204400  0.205400  0.050000  1.0
  H  H560  1  0.704400  0.294600  0.950000  1.0
  H  H561  1  0.050000  0.204400  0.205400  1.0
  H  H562  1  0.705400  0.450000  0.795600  1.0
  H  H563  1  0.294600  0.950000  0.704400  1.0
  H  H564  1  0.205400  0.050000  0.204400  1.0
  H  H565  1  0.205400  0.450000  0.704400  1.0
  H  H566  1  0.704400  0.205400  0.450000  1.0
  H  H567  1  0.450000  0.704400  0.205400  1.0
  H  H568  1  0.050000  0.295600  0.705400  1.0
  H  H569  1  0.204400  0.294600  0.550000  1.0
  H  H570  1  0.550000  0.204400  0.294600  1.0
  H  H571  1  0.795600  0.794600  0.950000  1.0
  H  H572  1  0.295600  0.705400  0.050000  1.0
  H  H573  1  0.950000  0.795600  0.794600  1.0
  H  H574  1  0.294600  0.550000  0.204400  1.0
  H  H575  1  0.705400  0.050000  0.295600  1.0
  H  H576  1  0.794600  0.950000  0.795600  1.0
  H  H577  1  0.761100  0.757400  0.127700  1.0
  H  H578  1  0.127700  0.761100  0.757400  1.0
  H  H579  1  0.757400  0.127700  0.761100  1.0
  H  H580  1  0.742600  0.872300  0.261100  1.0
  H  H581  1  0.627700  0.738900  0.242600  1.0
  H  H582  1  0.242600  0.627700  0.738900  1.0
  H  H583  1  0.372300  0.238900  0.257400  1.0
  H  H584  1  0.872300  0.261100  0.742600  1.0
  H  H585  1  0.257400  0.372300  0.238900  1.0
  H  H586  1  0.738900  0.242600  0.627700  1.0
  H  H587  1  0.261100  0.742600  0.872300  1.0
  H  H588  1  0.238900  0.257400  0.372300  1.0
  H  H589  1  0.238900  0.242600  0.872300  1.0
  H  H590  1  0.872300  0.238900  0.242600  1.0
  H  H591  1  0.242600  0.872300  0.238900  1.0
  H  H592  1  0.257400  0.127700  0.738900  1.0
  H  H593  1  0.372300  0.261100  0.757400  1.0
  H  H594  1  0.757400  0.372300  0.261100  1.0
  H  H595  1  0.627700  0.761100  0.742600  1.0
  H  H596  1  0.127700  0.738900  0.257400  1.0
  H  H597  1  0.742600  0.627700  0.761100  1.0
  H  H598  1  0.261100  0.757400  0.372300  1.0
  H  H599  1  0.738900  0.257400  0.127700  1.0
  H  H600  1  0.761100  0.742600  0.627700  1.0
  H  H601  1  0.746700  0.801200  0.122800  1.0
  H  H602  1  0.122800  0.746700  0.801200  1.0
  H  H603  1  0.801200  0.122800  0.746700  1.0
  H  H604  1  0.698800  0.877200  0.246700  1.0
  H  H605  1  0.622800  0.753300  0.198800  1.0
  H  H606  1  0.198800  0.622800  0.753300  1.0
  H  H607  1  0.377200  0.253300  0.301200  1.0
  H  H608  1  0.877200  0.246700  0.698800  1.0
  H  H609  1  0.301200  0.377200  0.253300  1.0
  H  H610  1  0.753300  0.198800  0.622800  1.0
  H  H611  1  0.246700  0.698800  0.877200  1.0
  H  H612  1  0.253300  0.301200  0.377200  1.0
  H  H613  1  0.253300  0.198800  0.877200  1.0
  H  H614  1  0.877200  0.253300  0.198800  1.0
  H  H615  1  0.198800  0.877200  0.253300  1.0
  H  H616  1  0.301200  0.122800  0.753300  1.0
  H  H617  1  0.377200  0.246700  0.801200  1.0
  H  H618  1  0.801200  0.377200  0.246700  1.0
  H  H619  1  0.622800  0.746700  0.698800  1.0
  H  H620  1  0.122800  0.753300  0.301200  1.0
  H  H621  1  0.698800  0.622800  0.746700  1.0
  H  H622  1  0.246700  0.801200  0.377200  1.0
  H  H623  1  0.753300  0.301200  0.122800  1.0
  H  H624  1  0.746700  0.698800  0.622800  1.0
  H  H625  1  0.775400  0.789900  0.157500  1.0
  H  H626  1  0.157500  0.775400  0.789900  1.0
  H  H627  1  0.789900  0.157500  0.775400  1.0
  H  H628  1  0.710100  0.842500  0.275400  1.0
  H  H629  1  0.657500  0.724600  0.210100  1.0
  H  H630  1  0.210100  0.657500  0.724600  1.0
  H  H631  1  0.342500  0.224600  0.289900  1.0
  H  H632  1  0.842500  0.275400  0.710100  1.0
  H  H633  1  0.289900  0.342500  0.224600  1.0
  H  H634  1  0.724600  0.210100  0.657500  1.0
  H  H635  1  0.275400  0.710100  0.842500  1.0
  H  H636  1  0.224600  0.289900  0.342500  1.0
  H  H637  1  0.224600  0.210100  0.842500  1.0
  H  H638  1  0.842500  0.224600  0.210100  1.0
  H  H639  1  0.210100  0.842500  0.224600  1.0
  H  H640  1  0.289900  0.157500  0.724600  1.0
  H  H641  1  0.342500  0.275400  0.789900  1.0
  H  H642  1  0.789900  0.342500  0.275400  1.0
  H  H643  1  0.657500  0.775400  0.710100  1.0
  H  H644  1  0.157500  0.724600  0.289900  1.0
  H  H645  1  0.710100  0.657500  0.775400  1.0
  H  H646  1  0.275400  0.789900  0.342500  1.0
  H  H647  1  0.724600  0.289900  0.157500  1.0
  H  H648  1  0.775400  0.710100  0.657500  1.0
  H  H649  1  0.592000  0.801800  0.952200  1.0
  H  H650  1  0.952200  0.592000  0.801800  1.0
  H  H651  1  0.801800  0.952200  0.592000  1.0
  H  H652  1  0.698200  0.047800  0.092000  1.0
  H  H653  1  0.452200  0.908000  0.198200  1.0
  H  H654  1  0.198200  0.452200  0.908000  1.0
  H  H655  1  0.547800  0.408000  0.301800  1.0
  H  H656  1  0.047800  0.092000  0.698200  1.0
  H  H657  1  0.301800  0.547800  0.408000  1.0
  H  H658  1  0.908000  0.198200  0.452200  1.0
  H  H659  1  0.092000  0.698200  0.047800  1.0
  H  H660  1  0.408000  0.301800  0.547800  1.0
  H  H661  1  0.408000  0.198200  0.047800  1.0
  H  H662  1  0.047800  0.408000  0.198200  1.0
  H  H663  1  0.198200  0.047800  0.408000  1.0
  H  H664  1  0.301800  0.952200  0.908000  1.0
  H  H665  1  0.547800  0.092000  0.801800  1.0
  H  H666  1  0.801800  0.547800  0.092000  1.0
  H  H667  1  0.452200  0.592000  0.698200  1.0
  H  H668  1  0.952200  0.908000  0.301800  1.0
  H  H669  1  0.698200  0.452200  0.592000  1.0
  H  H670  1  0.092000  0.801800  0.547800  1.0
  H  H671  1  0.908000  0.301800  0.952200  1.0
  H  H672  1  0.592000  0.698200  0.452200  1.0
  H  H673  1  0.640400  0.341300  0.209000  1.0
  H  H674  1  0.209000  0.640400  0.341300  1.0
  H  H675  1  0.341300  0.209000  0.640400  1.0
  H  H676  1  0.158700  0.791000  0.140400  1.0
  H  H677  1  0.709000  0.859600  0.658700  1.0
  H  H678  1  0.658700  0.709000  0.859600  1.0
  H  H679  1  0.291000  0.359600  0.841300  1.0
  H  H680  1  0.791000  0.140400  0.158700  1.0
  H  H681  1  0.841300  0.291000  0.359600  1.0
  H  H682  1  0.859600  0.658700  0.709000  1.0
  H  H683  1  0.140400  0.158700  0.791000  1.0
  H  H684  1  0.359600  0.841300  0.291000  1.0
  H  H685  1  0.359600  0.658700  0.791000  1.0
  H  H686  1  0.791000  0.359600  0.658700  1.0
  H  H687  1  0.658700  0.791000  0.359600  1.0
  H  H688  1  0.841300  0.209000  0.859600  1.0
  H  H689  1  0.291000  0.140400  0.341300  1.0
  H  H690  1  0.341300  0.291000  0.140400  1.0
  H  H691  1  0.709000  0.640400  0.158700  1.0
  H  H692  1  0.209000  0.859600  0.841300  1.0
  H  H693  1  0.158700  0.709000  0.640400  1.0
  H  H694  1  0.140400  0.341300  0.291000  1.0
  H  H695  1  0.859600  0.841300  0.209000  1.0
  H  H696  1  0.640400  0.158700  0.709000  1.0
  H  H697  1  0.674500  0.325200  0.181900  1.0
  H  H698  1  0.181900  0.674500  0.325200  1.0
  H  H699  1  0.325200  0.181900  0.674500  1.0
  H  H700  1  0.174800  0.818100  0.174500  1.0
  H  H701  1  0.681900  0.825500  0.674800  1.0
  H  H702  1  0.674800  0.681900  0.825500  1.0
  H  H703  1  0.318100  0.325500  0.825200  1.0
  H  H704  1  0.818100  0.174500  0.174800  1.0
  H  H705  1  0.825200  0.318100  0.325500  1.0
  H  H706  1  0.825500  0.674800  0.681900  1.0
  H  H707  1  0.174500  0.174800  0.818100  1.0
  H  H708  1  0.325500  0.825200  0.318100  1.0
  H  H709  1  0.325500  0.674800  0.818100  1.0
  H  H710  1  0.818100  0.325500  0.674800  1.0
  H  H711  1  0.674800  0.818100  0.325500  1.0
  H  H712  1  0.825200  0.181900  0.825500  1.0
  H  H713  1  0.318100  0.174500  0.325200  1.0
  H  H714  1  0.325200  0.318100  0.174500  1.0
  H  H715  1  0.681900  0.674500  0.174800  1.0
  H  H716  1  0.181900  0.825500  0.825200  1.0
  H  H717  1  0.174800  0.681900  0.674500  1.0
  H  H718  1  0.174500  0.325200  0.318100  1.0
  H  H719  1  0.825500  0.825200  0.181900  1.0
  H  H720  1  0.674500  0.174800  0.681900  1.0
  H  H721  1  0.601400  0.373900  0.105800  1.0
  H  H722  1  0.105800  0.601400  0.373900  1.0
  H  H723  1  0.373900  0.105800  0.601400  1.0
  H  H724  1  0.126100  0.894200  0.101400  1.0
  H  H725  1  0.605800  0.898600  0.626100  1.0
  H  H726  1  0.626100  0.605800  0.898600  1.0
  H  H727  1  0.394200  0.398600  0.873900  1.0
  H  H728  1  0.894200  0.101400  0.126100  1.0
  H  H729  1  0.873900  0.394200  0.398600  1.0
  H  H730  1  0.898600  0.626100  0.605800  1.0
  H  H731  1  0.101400  0.126100  0.894200  1.0
  H  H732  1  0.398600  0.873900  0.394200  1.0
  H  H733  1  0.398600  0.626100  0.894200  1.0
  H  H734  1  0.894200  0.398600  0.626100  1.0
  H  H735  1  0.626100  0.894200  0.398600  1.0
  H  H736  1  0.873900  0.105800  0.898600  1.0
  H  H737  1  0.394200  0.101400  0.373900  1.0
  H  H738  1  0.373900  0.394200  0.101400  1.0
  H  H739  1  0.605800  0.601400  0.126100  1.0
  H  H740  1  0.105800  0.898600  0.873900  1.0
  H  H741  1  0.126100  0.605800  0.601400  1.0
  H  H742  1  0.101400  0.373900  0.394200  1.0
  H  H743  1  0.898600  0.873900  0.105800  1.0
  H  H744  1  0.601400  0.126100  0.605800  1.0
  H  H745  1  0.642400  0.699600  0.970300  1.0
  H  H746  1  0.970300  0.642400  0.699600  1.0
  H  H747  1  0.699600  0.970300  0.642400  1.0
  H  H748  1  0.800400  0.029700  0.142400  1.0
  H  H749  1  0.470300  0.857600  0.300400  1.0
  H  H750  1  0.300400  0.470300  0.857600  1.0
  H  H751  1  0.529700  0.357600  0.199600  1.0
  H  H752  1  0.029700  0.142400  0.800400  1.0
  H  H753  1  0.199600  0.529700  0.357600  1.0
  H  H754  1  0.857600  0.300400  0.470300  1.0
  H  H755  1  0.142400  0.800400  0.029700  1.0
  H  H756  1  0.357600  0.199600  0.529700  1.0
  H  H757  1  0.357600  0.300400  0.029700  1.0
  H  H758  1  0.029700  0.357600  0.300400  1.0
  H  H759  1  0.300400  0.029700  0.357600  1.0
  H  H760  1  0.199600  0.970300  0.857600  1.0
  H  H761  1  0.529700  0.142400  0.699600  1.0
  H  H762  1  0.699600  0.529700  0.142400  1.0
  H  H763  1  0.470300  0.642400  0.800400  1.0
  H  H764  1  0.970300  0.857600  0.199600  1.0
  H  H765  1  0.800400  0.470300  0.642400  1.0
  H  H766  1  0.142400  0.699600  0.529700  1.0
  H  H767  1  0.857600  0.199600  0.970300  1.0
  H  H768  1  0.642400  0.800400  0.470300  1.0
  H  H769  1  0.654800  0.709400  0.926800  1.0
  H  H770  1  0.926800  0.654800  0.709400  1.0
  H  H771  1  0.709400  0.926800  0.654800  1.0
  H  H772  1  0.790600  0.073200  0.154800  1.0
  H  H773  1  0.426800  0.845200  0.290600  1.0
  H  H774  1  0.290600  0.426800  0.845200  1.0
  H  H775  1  0.573200  0.345200  0.209400  1.0
  H  H776  1  0.073200  0.154800  0.790600  1.0
  H  H777  1  0.209400  0.573200  0.345200  1.0
  H  H778  1  0.845200  0.290600  0.426800  1.0
  H  H779  1  0.154800  0.790600  0.073200  1.0
  H  H780  1  0.345200  0.209400  0.573200  1.0
  H  H781  1  0.345200  0.290600  0.073200  1.0
  H  H782  1  0.073200  0.345200  0.290600  1.0
  H  H783  1  0.290600  0.073200  0.345200  1.0
  H  H784  1  0.209400  0.926800  0.845200  1.0
  H  H785  1  0.573200  0.154800  0.709400  1.0
  H  H786  1  0.709400  0.573200  0.154800  1.0
  H  H787  1  0.426800  0.654800  0.790600  1.0
  H  H788  1  0.926800  0.845200  0.209400  1.0
  H  H789  1  0.790600  0.426800  0.654800  1.0
  H  H790  1  0.154800  0.709400  0.573200  1.0
  H  H791  1  0.845200  0.209400  0.926800  1.0
  H  H792  1  0.654800  0.790600  0.426800  1.0
  H  H793  1  0.050100  0.667000  0.399500  1.0
  H  H794  1  0.399500  0.050100  0.667000  1.0
  H  H795  1  0.667000  0.399500  0.050100  1.0
  H  H796  1  0.833000  0.600500  0.550100  1.0
  H  H797  1  0.899500  0.449900  0.333000  1.0
  H  H798  1  0.333000  0.899500  0.449900  1.0
  H  H799  1  0.100500  0.949900  0.167000  1.0
  H  H800  1  0.600500  0.550100  0.833000  1.0
  H  H801  1  0.167000  0.100500  0.949900  1.0
  H  H802  1  0.449900  0.333000  0.899500  1.0
  H  H803  1  0.550100  0.833000  0.600500  1.0
  H  H804  1  0.949900  0.167000  0.100500  1.0
  H  H805  1  0.949900  0.333000  0.600500  1.0
  H  H806  1  0.600500  0.949900  0.333000  1.0
  H  H807  1  0.333000  0.600500  0.949900  1.0
  H  H808  1  0.167000  0.399500  0.449900  1.0
  H  H809  1  0.100500  0.550100  0.667000  1.0
  H  H810  1  0.667000  0.100500  0.550100  1.0
  H  H811  1  0.899500  0.050100  0.833000  1.0
  H  H812  1  0.399500  0.449900  0.167000  1.0
  H  H813  1  0.833000  0.899500  0.050100  1.0
  H  H814  1  0.550100  0.667000  0.100500  1.0
  H  H815  1  0.449900  0.167000  0.399500  1.0
  H  H816  1  0.050100  0.833000  0.899500  1.0
  C  C817  1  0.829500  0.551300  0.212500  1.0
  C  C818  1  0.212500  0.829500  0.551300  1.0
  C  C819  1  0.551300  0.212500  0.829500  1.0
  C  C820  1  0.948700  0.787500  0.329500  1.0
  C  C821  1  0.712500  0.670500  0.448700  1.0
  C  C822  1  0.448700  0.712500  0.670500  1.0
  C  C823  1  0.287500  0.170500  0.051300  1.0
  C  C824  1  0.787500  0.329500  0.948700  1.0
  C  C825  1  0.051300  0.287500  0.170500  1.0
  C  C826  1  0.670500  0.448700  0.712500  1.0
  C  C827  1  0.329500  0.948700  0.787500  1.0
  C  C828  1  0.170500  0.051300  0.287500  1.0
  C  C829  1  0.170500  0.448700  0.787500  1.0
  C  C830  1  0.787500  0.170500  0.448700  1.0
  C  C831  1  0.448700  0.787500  0.170500  1.0
  C  C832  1  0.051300  0.212500  0.670500  1.0
  C  C833  1  0.287500  0.329500  0.551300  1.0
  C  C834  1  0.551300  0.287500  0.329500  1.0
  C  C835  1  0.712500  0.829500  0.948700  1.0
  C  C836  1  0.212500  0.670500  0.051300  1.0
  C  C837  1  0.948700  0.712500  0.829500  1.0
  C  C838  1  0.329500  0.551300  0.287500  1.0
  C  C839  1  0.670500  0.051300  0.212500  1.0
  C  C840  1  0.829500  0.948700  0.712500  1.0
  C  C841  1  0.811000  0.593500  0.202400  1.0
  C  C842  1  0.202400  0.811000  0.593500  1.0
  C  C843  1  0.593500  0.202400  0.811000  1.0
  C  C844  1  0.906500  0.797600  0.311000  1.0
  C  C845  1  0.702400  0.689000  0.406500  1.0
  C  C846  1  0.406500  0.702400  0.689000  1.0
  C  C847  1  0.297600  0.189000  0.093500  1.0
  C  C848  1  0.797600  0.311000  0.906500  1.0
  C  C849  1  0.093500  0.297600  0.189000  1.0
  C  C850  1  0.689000  0.406500  0.702400  1.0
  C  C851  1  0.311000  0.906500  0.797600  1.0
  C  C852  1  0.189000  0.093500  0.297600  1.0
  C  C853  1  0.189000  0.406500  0.797600  1.0
  C  C854  1  0.797600  0.189000  0.406500  1.0
  C  C855  1  0.406500  0.797600  0.189000  1.0
  C  C856  1  0.093500  0.202400  0.689000  1.0
  C  C857  1  0.297600  0.311000  0.593500  1.0
  C  C858  1  0.593500  0.297600  0.311000  1.0
  C  C859  1  0.702400  0.811000  0.906500  1.0
  C  C860  1  0.202400  0.689000  0.093500  1.0
  C  C861  1  0.906500  0.702400  0.811000  1.0
  C  C862  1  0.311000  0.593500  0.297600  1.0
  C  C863  1  0.689000  0.093500  0.202400  1.0
  C  C864  1  0.811000  0.906500  0.702400  1.0
  C  C865  1  0.823400  0.612300  0.169500  1.0
  C  C866  1  0.169500  0.823400  0.612300  1.0
  C  C867  1  0.612300  0.169500  0.823400  1.0
  C  C868  1  0.887700  0.830500  0.323400  1.0
  C  C869  1  0.669500  0.676600  0.387700  1.0
  C  C870  1  0.387700  0.669500  0.676600  1.0
  C  C871  1  0.330500  0.176600  0.112300  1.0
  C  C872  1  0.830500  0.323400  0.887700  1.0
  C  C873  1  0.112300  0.330500  0.176600  1.0
  C  C874  1  0.676600  0.387700  0.669500  1.0
  C  C875  1  0.323400  0.887700  0.830500  1.0
  C  C876  1  0.176600  0.112300  0.330500  1.0
  C  C877  1  0.176600  0.387700  0.830500  1.0
  C  C878  1  0.830500  0.176600  0.387700  1.0
  C  C879  1  0.387700  0.830500  0.176600  1.0
  C  C880  1  0.112300  0.169500  0.676600  1.0
  C  C881  1  0.330500  0.323400  0.612300  1.0
  C  C882  1  0.612300  0.330500  0.323400  1.0
  C  C883  1  0.669500  0.823400  0.887700  1.0
  C  C884  1  0.169500  0.676600  0.112300  1.0
  C  C885  1  0.887700  0.669500  0.823400  1.0
  C  C886  1  0.323400  0.612300  0.330500  1.0
  C  C887  1  0.676600  0.112300  0.169500  1.0
  C  C888  1  0.823400  0.887700  0.669500  1.0
  C  C889  1  0.809200  0.648500  0.161300  1.0
  C  C890  1  0.161300  0.809200  0.648500  1.0
  C  C891  1  0.648500  0.161300  0.809200  1.0
  C  C892  1  0.851500  0.838700  0.309200  1.0
  C  C893  1  0.661300  0.690800  0.351500  1.0
  C  C894  1  0.351500  0.661300  0.690800  1.0
  C  C895  1  0.338700  0.190800  0.148500  1.0
  C  C896  1  0.838700  0.309200  0.851500  1.0
  C  C897  1  0.148500  0.338700  0.190800  1.0
  C  C898  1  0.690800  0.351500  0.661300  1.0
  C  C899  1  0.309200  0.851500  0.838700  1.0
  C  C900  1  0.190800  0.148500  0.338700  1.0
  C  C901  1  0.190800  0.351500  0.838700  1.0
  C  C902  1  0.838700  0.190800  0.351500  1.0
  C  C903  1  0.351500  0.838700  0.190800  1.0
  C  C904  1  0.148500  0.161300  0.690800  1.0
  C  C905  1  0.338700  0.309200  0.648500  1.0
  C  C906  1  0.648500  0.338700  0.309200  1.0
  C  C907  1  0.661300  0.809200  0.851500  1.0
  C  C908  1  0.161300  0.690800  0.148500  1.0
  C  C909  1  0.851500  0.661300  0.809200  1.0
  C  C910  1  0.309200  0.648500  0.338700  1.0
  C  C911  1  0.690800  0.148500  0.161300  1.0
  C  C912  1  0.809200  0.851500  0.661300  1.0
  C  C913  1  0.782500  0.665100  0.186700  1.0
  C  C914  1  0.186700  0.782500  0.665100  1.0
  C  C915  1  0.665100  0.186700  0.782500  1.0
  C  C916  1  0.834900  0.813300  0.282500  1.0
  C  C917  1  0.686700  0.717500  0.334900  1.0
  C  C918  1  0.334900  0.686700  0.717500  1.0
  C  C919  1  0.313300  0.217500  0.165100  1.0
  C  C920  1  0.813300  0.282500  0.834900  1.0
  C  C921  1  0.165100  0.313300  0.217500  1.0
  C  C922  1  0.717500  0.334900  0.686700  1.0
  C  C923  1  0.282500  0.834900  0.813300  1.0
  C  C924  1  0.217500  0.165100  0.313300  1.0
  C  C925  1  0.217500  0.334900  0.813300  1.0
  C  C926  1  0.813300  0.217500  0.334900  1.0
  C  C927  1  0.334900  0.813300  0.217500  1.0
  C  C928  1  0.165100  0.186700  0.717500  1.0
  C  C929  1  0.313300  0.282500  0.665100  1.0
  C  C930  1  0.665100  0.313300  0.282500  1.0
  C  C931  1  0.686700  0.782500  0.834900  1.0
  C  C932  1  0.186700  0.717500  0.165100  1.0
  C  C933  1  0.834900  0.686700  0.782500  1.0
  C  C934  1  0.282500  0.665100  0.313300  1.0
  C  C935  1  0.717500  0.165100  0.186700  1.0
  C  C936  1  0.782500  0.834900  0.686700  1.0
  C  C937  1  0.771000  0.644400  0.220000  1.0
  C  C938  1  0.220000  0.771000  0.644400  1.0
  C  C939  1  0.644400  0.220000  0.771000  1.0
  C  C940  1  0.855600  0.780000  0.271000  1.0
  C  C941  1  0.720000  0.729000  0.355600  1.0
  C  C942  1  0.355600  0.720000  0.729000  1.0
  C  C943  1  0.280000  0.229000  0.144400  1.0
  C  C944  1  0.780000  0.271000  0.855600  1.0
  C  C945  1  0.144400  0.280000  0.229000  1.0
  C  C946  1  0.729000  0.355600  0.720000  1.0
  C  C947  1  0.271000  0.855600  0.780000  1.0
  C  C948  1  0.229000  0.144400  0.280000  1.0
  C  C949  1  0.229000  0.355600  0.780000  1.0
  C  C950  1  0.780000  0.229000  0.355600  1.0
  C  C951  1  0.355600  0.780000  0.229000  1.0
  C  C952  1  0.144400  0.220000  0.729000  1.0
  C  C953  1  0.280000  0.271000  0.644400  1.0
  C  C954  1  0.644400  0.280000  0.271000  1.0
  C  C955  1  0.720000  0.771000  0.855600  1.0
  C  C956  1  0.220000  0.729000  0.144400  1.0
  C  C957  1  0.855600  0.720000  0.771000  1.0
  C  C958  1  0.271000  0.644400  0.280000  1.0
  C  C959  1  0.729000  0.144400  0.220000  1.0
  C  C960  1  0.771000  0.855600  0.720000  1.0
  C  C961  1  0.784300  0.608000  0.229300  1.0
  C  C962  1  0.229300  0.784300  0.608000  1.0
  C  C963  1  0.608000  0.229300  0.784300  1.0
  C  C964  1  0.892000  0.770700  0.284300  1.0
  C  C965  1  0.729300  0.715700  0.392000  1.0
  C  C966  1  0.392000  0.729300  0.715700  1.0
  C  C967  1  0.270700  0.215700  0.108000  1.0
  C  C968  1  0.770700  0.284300  0.892000  1.0
  C  C969  1  0.108000  0.270700  0.215700  1.0
  C  C970  1  0.715700  0.392000  0.729300  1.0
  C  C971  1  0.284300  0.892000  0.770700  1.0
  C  C972  1  0.215700  0.108000  0.270700  1.0
  C  C973  1  0.215700  0.392000  0.770700  1.0
  C  C974  1  0.770700  0.215700  0.392000  1.0
  C  C975  1  0.392000  0.770700  0.215700  1.0
  C  C976  1  0.108000  0.229300  0.715700  1.0
  C  C977  1  0.270700  0.284300  0.608000  1.0
  C  C978  1  0.608000  0.270700  0.284300  1.0
  C  C979  1  0.729300  0.784300  0.892000  1.0
  C  C980  1  0.229300  0.715700  0.108000  1.0
  C  C981  1  0.892000  0.729300  0.784300  1.0
  C  C982  1  0.284300  0.608000  0.270700  1.0
  C  C983  1  0.715700  0.108000  0.229300  1.0
  C  C984  1  0.784300  0.892000  0.729300  1.0
  C  C985  1  0.829600  0.675800  0.130000  1.0
  C  C986  1  0.130000  0.829600  0.675800  1.0
  C  C987  1  0.675800  0.130000  0.829600  1.0
  C  C988  1  0.824200  0.870000  0.329600  1.0
  C  C989  1  0.630000  0.670400  0.324200  1.0
  C  C990  1  0.324200  0.630000  0.670400  1.0
  C  C991  1  0.370000  0.170400  0.175800  1.0
  C  C992  1  0.870000  0.329600  0.824200  1.0
  C  C993  1  0.175800  0.370000  0.170400  1.0
  C  C994  1  0.670400  0.324200  0.630000  1.0
  C  C995  1  0.329600  0.824200  0.870000  1.0
  C  C996  1  0.170400  0.175800  0.370000  1.0
  C  C997  1  0.170400  0.324200  0.870000  1.0
  C  C998  1  0.870000  0.170400  0.324200  1.0
  C  C999  1  0.324200  0.870000  0.170400  1.0
  C  C1000  1  0.175800  0.130000  0.670400  1.0
  C  C1001  1  0.370000  0.329600  0.675800  1.0
  C  C1002  1  0.675800  0.370000  0.329600  1.0
  C  C1003  1  0.630000  0.829600  0.824200  1.0
  C  C1004  1  0.130000  0.670400  0.175800  1.0
  C  C1005  1  0.824200  0.630000  0.829600  1.0
  C  C1006  1  0.329600  0.675800  0.370000  1.0
  C  C1007  1  0.670400  0.175800  0.130000  1.0
  C  C1008  1  0.829600  0.824200  0.630000  1.0
  C  C1009  1  0.725800  0.642700  0.269800  1.0
  C  C1010  1  0.269800  0.725800  0.642700  1.0
  C  C1011  1  0.642700  0.269800  0.725800  1.0
  C  C1012  1  0.857300  0.730200  0.225800  1.0
  C  C1013  1  0.769800  0.774200  0.357300  1.0
  C  C1014  1  0.357300  0.769800  0.774200  1.0
  C  C1015  1  0.230200  0.274200  0.142700  1.0
  C  C1016  1  0.730200  0.225800  0.857300  1.0
  C  C1017  1  0.142700  0.230200  0.274200  1.0
  C  C1018  1  0.774200  0.357300  0.769800  1.0
  C  C1019  1  0.225800  0.857300  0.730200  1.0
  C  C1020  1  0.274200  0.142700  0.230200  1.0
  C  C1021  1  0.274200  0.357300  0.730200  1.0
  C  C1022  1  0.730200  0.274200  0.357300  1.0
  C  C1023  1  0.357300  0.730200  0.274200  1.0
  C  C1024  1  0.142700  0.269800  0.774200  1.0
  C  C1025  1  0.230200  0.225800  0.642700  1.0
  C  C1026  1  0.642700  0.230200  0.225800  1.0
  C  C1027  1  0.769800  0.725800  0.857300  1.0
  C  C1028  1  0.269800  0.774200  0.142700  1.0
  C  C1029  1  0.857300  0.769800  0.725800  1.0
  C  C1030  1  0.225800  0.642700  0.230200  1.0
  C  C1031  1  0.774200  0.142700  0.269800  1.0
  C  C1032  1  0.725800  0.857300  0.769800  1.0
  C  C1033  1  0.750300  0.641400  0.304100  1.0
  C  C1034  1  0.304100  0.750300  0.641400  1.0
  C  C1035  1  0.641400  0.304100  0.750300  1.0
  C  C1036  1  0.858600  0.695900  0.250300  1.0
  C  C1037  1  0.804100  0.749700  0.358600  1.0
  C  C1038  1  0.358600  0.804100  0.749700  1.0
  C  C1039  1  0.195900  0.249700  0.141400  1.0
  C  C1040  1  0.695900  0.250300  0.858600  1.0
  C  C1041  1  0.141400  0.195900  0.249700  1.0
  C  C1042  1  0.749700  0.358600  0.804100  1.0
  C  C1043  1  0.250300  0.858600  0.695900  1.0
  C  C1044  1  0.249700  0.141400  0.195900  1.0
  C  C1045  1  0.249700  0.358600  0.695900  1.0
  C  C1046  1  0.695900  0.249700  0.358600  1.0
  C  C1047  1  0.358600  0.695900  0.249700  1.0
  C  C1048  1  0.141400  0.304100  0.749700  1.0
  C  C1049  1  0.195900  0.250300  0.641400  1.0
  C  C1050  1  0.641400  0.195900  0.250300  1.0
  C  C1051  1  0.804100  0.750300  0.858600  1.0
  C  C1052  1  0.304100  0.749700  0.141400  1.0
  C  C1053  1  0.858600  0.804100  0.750300  1.0
  C  C1054  1  0.250300  0.641400  0.195900  1.0
  C  C1055  1  0.749700  0.141400  0.304100  1.0
  C  C1056  1  0.750300  0.858600  0.804100  1.0
  C  C1057  1  0.771000  0.636000  0.328000  1.0
  C  C1058  1  0.328000  0.771000  0.636000  1.0
  C  C1059  1  0.636000  0.328000  0.771000  1.0
  C  C1060  1  0.864000  0.672000  0.271000  1.0
  C  C1061  1  0.828000  0.729000  0.364000  1.0
  C  C1062  1  0.364000  0.828000  0.729000  1.0
  C  C1063  1  0.172000  0.229000  0.136000  1.0
  C  C1064  1  0.672000  0.271000  0.864000  1.0
  C  C1065  1  0.136000  0.172000  0.229000  1.0
  C  C1066  1  0.729000  0.364000  0.828000  1.0
  C  C1067  1  0.271000  0.864000  0.672000  1.0
  C  C1068  1  0.229000  0.136000  0.172000  1.0
  C  C1069  1  0.229000  0.364000  0.672000  1.0
  C  C1070  1  0.672000  0.229000  0.364000  1.0
  C  C1071  1  0.364000  0.672000  0.229000  1.0
  C  C1072  1  0.136000  0.328000  0.729000  1.0
  C  C1073  1  0.172000  0.271000  0.636000  1.0
  C  C1074  1  0.636000  0.172000  0.271000  1.0
  C  C1075  1  0.828000  0.771000  0.864000  1.0
  C  C1076  1  0.328000  0.729000  0.136000  1.0
  C  C1077  1  0.864000  0.828000  0.771000  1.0
  C  C1078  1  0.271000  0.636000  0.172000  1.0
  C  C1079  1  0.729000  0.136000  0.328000  1.0
  C  C1080  1  0.771000  0.864000  0.828000  1.0
  C  C1081  1  0.905600  0.529100  0.261100  1.0
  C  C1082  1  0.261100  0.905600  0.529100  1.0
  C  C1083  1  0.529100  0.261100  0.905600  1.0
  C  C1084  1  0.970900  0.738900  0.405600  1.0
  C  C1085  1  0.761100  0.594400  0.470900  1.0
  C  C1086  1  0.470900  0.761100  0.594400  1.0
  C  C1087  1  0.238900  0.094400  0.029100  1.0
  C  C1088  1  0.738900  0.405600  0.970900  1.0
  C  C1089  1  0.029100  0.238900  0.094400  1.0
  C  C1090  1  0.594400  0.470900  0.761100  1.0
  C  C1091  1  0.405600  0.970900  0.738900  1.0
  C  C1092  1  0.094400  0.029100  0.238900  1.0
  C  C1093  1  0.094400  0.470900  0.738900  1.0
  C  C1094  1  0.738900  0.094400  0.470900  1.0
  C  C1095  1  0.470900  0.738900  0.094400  1.0
  C  C1096  1  0.029100  0.261100  0.594400  1.0
  C  C1097  1  0.238900  0.405600  0.529100  1.0
  C  C1098  1  0.529100  0.238900  0.405600  1.0
  C  C1099  1  0.761100  0.905600  0.970900  1.0
  C  C1100  1  0.261100  0.594400  0.029100  1.0
  C  C1101  1  0.970900  0.761100  0.905600  1.0
  C  C1102  1  0.405600  0.529100  0.238900  1.0
  C  C1103  1  0.594400  0.029100  0.261100  1.0
  C  C1104  1  0.905600  0.970900  0.761100  1.0
  C  C1105  1  0.940800  0.545100  0.277600  1.0
  C  C1106  1  0.277600  0.940800  0.545100  1.0
  C  C1107  1  0.545100  0.277600  0.940800  1.0
  C  C1108  1  0.954900  0.722400  0.440800  1.0
  C  C1109  1  0.777600  0.559200  0.454900  1.0
  C  C1110  1  0.454900  0.777600  0.559200  1.0
  C  C1111  1  0.222400  0.059200  0.045100  1.0
  C  C1112  1  0.722400  0.440800  0.954900  1.0
  C  C1113  1  0.045100  0.222400  0.059200  1.0
  C  C1114  1  0.559200  0.454900  0.777600  1.0
  C  C1115  1  0.440800  0.954900  0.722400  1.0
  C  C1116  1  0.059200  0.045100  0.222400  1.0
  C  C1117  1  0.059200  0.454900  0.722400  1.0
  C  C1118  1  0.722400  0.059200  0.454900  1.0
  C  C1119  1  0.454900  0.722400  0.059200  1.0
  C  C1120  1  0.045100  0.277600  0.559200  1.0
  C  C1121  1  0.222400  0.440800  0.545100  1.0
  C  C1122  1  0.545100  0.222400  0.440800  1.0
  C  C1123  1  0.777600  0.940800  0.954900  1.0
  C  C1124  1  0.277600  0.559200  0.045100  1.0
  C  C1125  1  0.954900  0.777600  0.940800  1.0
  C  C1126  1  0.440800  0.545100  0.222400  1.0
  C  C1127  1  0.559200  0.045100  0.277600  1.0
  C  C1128  1  0.940800  0.954900  0.777600  1.0
  C  C1129  1  0.944000  0.547300  0.317600  1.0
  C  C1130  1  0.317600  0.944000  0.547300  1.0
  C  C1131  1  0.547300  0.317600  0.944000  1.0
  C  C1132  1  0.952700  0.682400  0.444000  1.0
  C  C1133  1  0.817600  0.556000  0.452700  1.0
  C  C1134  1  0.452700  0.817600  0.556000  1.0
  C  C1135  1  0.182400  0.056000  0.047300  1.0
  C  C1136  1  0.682400  0.444000  0.952700  1.0
  C  C1137  1  0.047300  0.182400  0.056000  1.0
  C  C1138  1  0.556000  0.452700  0.817600  1.0
  C  C1139  1  0.444000  0.952700  0.682400  1.0
  C  C1140  1  0.056000  0.047300  0.182400  1.0
  C  C1141  1  0.056000  0.452700  0.682400  1.0
  C  C1142  1  0.682400  0.056000  0.452700  1.0
  C  C1143  1  0.452700  0.682400  0.056000  1.0
  C  C1144  1  0.047300  0.317600  0.556000  1.0
  C  C1145  1  0.182400  0.444000  0.547300  1.0
  C  C1146  1  0.547300  0.182400  0.444000  1.0
  C  C1147  1  0.817600  0.944000  0.952700  1.0
  C  C1148  1  0.317600  0.556000  0.047300  1.0
  C  C1149  1  0.952700  0.817600  0.944000  1.0
  C  C1150  1  0.444000  0.547300  0.182400  1.0
  C  C1151  1  0.556000  0.047300  0.317600  1.0
  C  C1152  1  0.944000  0.952700  0.817600  1.0
  C  C1153  1  0.973500  0.566400  0.337800  1.0
  C  C1154  1  0.337800  0.973500  0.566400  1.0
  C  C1155  1  0.566400  0.337800  0.973500  1.0
  C  C1156  1  0.933600  0.662200  0.473500  1.0
  C  C1157  1  0.837800  0.526500  0.433600  1.0
  C  C1158  1  0.433600  0.837800  0.526500  1.0
  C  C1159  1  0.162200  0.026500  0.066400  1.0
  C  C1160  1  0.662200  0.473500  0.933600  1.0
  C  C1161  1  0.066400  0.162200  0.026500  1.0
  C  C1162  1  0.526500  0.433600  0.837800  1.0
  C  C1163  1  0.473500  0.933600  0.662200  1.0
  C  C1164  1  0.026500  0.066400  0.162200  1.0
  C  C1165  1  0.026500  0.433600  0.662200  1.0
  C  C1166  1  0.662200  0.026500  0.433600  1.0
  C  C1167  1  0.433600  0.662200  0.026500  1.0
  C  C1168  1  0.066400  0.337800  0.526500  1.0
  C  C1169  1  0.162200  0.473500  0.566400  1.0
  C  C1170  1  0.566400  0.162200  0.473500  1.0
  C  C1171  1  0.837800  0.973500  0.933600  1.0
  C  C1172  1  0.337800  0.526500  0.066400  1.0
  C  C1173  1  0.933600  0.837800  0.973500  1.0
  C  C1174  1  0.473500  0.566400  0.162200  1.0
  C  C1175  1  0.526500  0.066400  0.337800  1.0
  C  C1176  1  0.973500  0.933600  0.837800  1.0
  C  C1177  1  0.002300  0.585100  0.317200  1.0
  C  C1178  1  0.317200  0.002300  0.585100  1.0
  C  C1179  1  0.585100  0.317200  0.002300  1.0
  C  C1180  1  0.914900  0.682800  0.502300  1.0
  C  C1181  1  0.817200  0.497700  0.414900  1.0
  C  C1182  1  0.414900  0.817200  0.497700  1.0
  C  C1183  1  0.182800  0.997700  0.085100  1.0
  C  C1184  1  0.682800  0.502300  0.914900  1.0
  C  C1185  1  0.085100  0.182800  0.997700  1.0
  C  C1186  1  0.497700  0.414900  0.817200  1.0
  C  C1187  1  0.502300  0.914900  0.682800  1.0
  C  C1188  1  0.997700  0.085100  0.182800  1.0
  C  C1189  1  0.997700  0.414900  0.682800  1.0
  C  C1190  1  0.682800  0.997700  0.414900  1.0
  C  C1191  1  0.414900  0.682800  0.997700  1.0
  C  C1192  1  0.085100  0.317200  0.497700  1.0
  C  C1193  1  0.182800  0.502300  0.585100  1.0
  C  C1194  1  0.585100  0.182800  0.502300  1.0
  C  C1195  1  0.817200  0.002300  0.914900  1.0
  C  C1196  1  0.317200  0.497700  0.085100  1.0
  C  C1197  1  0.914900  0.817200  0.002300  1.0
  C  C1198  1  0.502300  0.585100  0.182800  1.0
  C  C1199  1  0.497700  0.085100  0.317200  1.0
  C  C1200  1  0.002300  0.914900  0.817200  1.0
  C  C1201  1  0.998800  0.582600  0.277100  1.0
  C  C1202  1  0.277100  0.998800  0.582600  1.0
  C  C1203  1  0.582600  0.277100  0.998800  1.0
  C  C1204  1  0.917400  0.722900  0.498800  1.0
  C  C1205  1  0.777100  0.501200  0.417400  1.0
  C  C1206  1  0.417400  0.777100  0.501200  1.0
  C  C1207  1  0.222900  0.001200  0.082600  1.0
  C  C1208  1  0.722900  0.498800  0.917400  1.0
  C  C1209  1  0.082600  0.222900  0.001200  1.0
  C  C1210  1  0.501200  0.417400  0.777100  1.0
  C  C1211  1  0.498800  0.917400  0.722900  1.0
  C  C1212  1  0.001200  0.082600  0.222900  1.0
  C  C1213  1  0.001200  0.417400  0.722900  1.0
  C  C1214  1  0.722900  0.001200  0.417400  1.0
  C  C1215  1  0.417400  0.722900  0.001200  1.0
  C  C1216  1  0.082600  0.277100  0.501200  1.0
  C  C1217  1  0.222900  0.498800  0.582600  1.0
  C  C1218  1  0.582600  0.222900  0.498800  1.0
  C  C1219  1  0.777100  0.998800  0.917400  1.0
  C  C1220  1  0.277100  0.501200  0.082600  1.0
  C  C1221  1  0.917400  0.777100  0.998800  1.0
  C  C1222  1  0.498800  0.582600  0.222900  1.0
  C  C1223  1  0.501200  0.082600  0.277100  1.0
  C  C1224  1  0.998800  0.917400  0.777100  1.0
  C  C1225  1  0.969800  0.563800  0.256300  1.0
  C  C1226  1  0.256300  0.969800  0.563800  1.0
  C  C1227  1  0.563800  0.256300  0.969800  1.0
  C  C1228  1  0.936200  0.743700  0.469800  1.0
  C  C1229  1  0.756300  0.530200  0.436200  1.0
  C  C1230  1  0.436200  0.756300  0.530200  1.0
  C  C1231  1  0.243700  0.030200  0.063800  1.0
  C  C1232  1  0.743700  0.469800  0.936200  1.0
  C  C1233  1  0.063800  0.243700  0.030200  1.0
  C  C1234  1  0.530200  0.436200  0.756300  1.0
  C  C1235  1  0.469800  0.936200  0.743700  1.0
  C  C1236  1  0.030200  0.063800  0.243700  1.0
  C  C1237  1  0.030200  0.436200  0.743700  1.0
  C  C1238  1  0.743700  0.030200  0.436200  1.0
  C  C1239  1  0.436200  0.743700  0.030200  1.0
  C  C1240  1  0.063800  0.256300  0.530200  1.0
  C  C1241  1  0.243700  0.469800  0.563800  1.0
  C  C1242  1  0.563800  0.243700  0.469800  1.0
  C  C1243  1  0.756300  0.969800  0.936200  1.0
  C  C1244  1  0.256300  0.530200  0.063800  1.0
  C  C1245  1  0.936200  0.756300  0.969800  1.0
  C  C1246  1  0.469800  0.563800  0.243700  1.0
  C  C1247  1  0.530200  0.063800  0.256300  1.0
  C  C1248  1  0.969800  0.936200  0.756300  1.0
  C  C1249  1  0.889500  0.751100  0.027400  1.0
  C  C1250  1  0.027400  0.889500  0.751100  1.0
  C  C1251  1  0.751100  0.027400  0.889500  1.0
  C  C1252  1  0.748900  0.972600  0.389500  1.0
  C  C1253  1  0.527400  0.610500  0.248900  1.0
  C  C1254  1  0.248900  0.527400  0.610500  1.0
  C  C1255  1  0.472600  0.110500  0.251100  1.0
  C  C1256  1  0.972600  0.389500  0.748900  1.0
  C  C1257  1  0.251100  0.472600  0.110500  1.0
  C  C1258  1  0.610500  0.248900  0.527400  1.0
  C  C1259  1  0.389500  0.748900  0.972600  1.0
  C  C1260  1  0.110500  0.251100  0.472600  1.0
  C  C1261  1  0.110500  0.248900  0.972600  1.0
  C  C1262  1  0.972600  0.110500  0.248900  1.0
  C  C1263  1  0.248900  0.972600  0.110500  1.0
  C  C1264  1  0.251100  0.027400  0.610500  1.0
  C  C1265  1  0.472600  0.389500  0.751100  1.0
  C  C1266  1  0.751100  0.472600  0.389500  1.0
  C  C1267  1  0.527400  0.889500  0.748900  1.0
  C  C1268  1  0.027400  0.610500  0.251100  1.0
  C  C1269  1  0.748900  0.527400  0.889500  1.0
  C  C1270  1  0.389500  0.751100  0.472600  1.0
  C  C1271  1  0.610500  0.251100  0.027400  1.0
  C  C1272  1  0.889500  0.748900  0.527400  1.0
  C  C1273  1  0.013900  0.572700  0.391000  1.0
  C  C1274  1  0.391000  0.013900  0.572700  1.0
  C  C1275  1  0.572700  0.391000  0.013900  1.0
  C  C1276  1  0.927300  0.609000  0.513900  1.0
  C  C1277  1  0.891000  0.486100  0.427300  1.0
  C  C1278  1  0.427300  0.891000  0.486100  1.0
  C  C1279  1  0.109000  0.986100  0.072700  1.0
  C  C1280  1  0.609000  0.513900  0.927300  1.0
  C  C1281  1  0.072700  0.109000  0.986100  1.0
  C  C1282  1  0.486100  0.427300  0.891000  1.0
  C  C1283  1  0.513900  0.927300  0.609000  1.0
  C  C1284  1  0.986100  0.072700  0.109000  1.0
  C  C1285  1  0.986100  0.427300  0.609000  1.0
  C  C1286  1  0.609000  0.986100  0.427300  1.0
  C  C1287  1  0.427300  0.609000  0.986100  1.0
  C  C1288  1  0.072700  0.391000  0.486100  1.0
  C  C1289  1  0.109000  0.513900  0.572700  1.0
  C  C1290  1  0.572700  0.109000  0.513900  1.0
  C  C1291  1  0.891000  0.013900  0.927300  1.0
  C  C1292  1  0.391000  0.486100  0.072700  1.0
  C  C1293  1  0.927300  0.891000  0.013900  1.0
  C  C1294  1  0.513900  0.572700  0.109000  1.0
  C  C1295  1  0.486100  0.072700  0.391000  1.0
  C  C1296  1  0.013900  0.927300  0.891000  1.0
  C  C1297  1  0.808100  0.699400  0.026500  1.0
  C  C1298  1  0.026500  0.808100  0.699400  1.0
  C  C1299  1  0.699400  0.026500  0.808100  1.0
  C  C1300  1  0.800600  0.973500  0.308100  1.0
  C  C1301  1  0.526500  0.691900  0.300600  1.0
  C  C1302  1  0.300600  0.526500  0.691900  1.0
  C  C1303  1  0.473500  0.191900  0.199400  1.0
  C  C1304  1  0.973500  0.308100  0.800600  1.0
  C  C1305  1  0.199400  0.473500  0.191900  1.0
  C  C1306  1  0.691900  0.300600  0.526500  1.0
  C  C1307  1  0.308100  0.800600  0.973500  1.0
  C  C1308  1  0.191900  0.199400  0.473500  1.0
  C  C1309  1  0.191900  0.300600  0.973500  1.0
  C  C1310  1  0.973500  0.191900  0.300600  1.0
  C  C1311  1  0.300600  0.973500  0.191900  1.0
  C  C1312  1  0.199400  0.026500  0.691900  1.0
  C  C1313  1  0.473500  0.308100  0.699400  1.0
  C  C1314  1  0.699400  0.473500  0.308100  1.0
  C  C1315  1  0.526500  0.808100  0.800600  1.0
  C  C1316  1  0.026500  0.691900  0.199400  1.0
  C  C1317  1  0.800600  0.526500  0.808100  1.0
  C  C1318  1  0.308100  0.699400  0.473500  1.0
  C  C1319  1  0.691900  0.199400  0.026500  1.0
  C  C1320  1  0.808100  0.800600  0.526500  1.0
  C  C1321  1  0.780600  0.690700  0.995400  1.0
  C  C1322  1  0.995400  0.780600  0.690700  1.0
  C  C1323  1  0.690700  0.995400  0.780600  1.0
  C  C1324  1  0.809300  0.004600  0.280600  1.0
  C  C1325  1  0.495400  0.719400  0.309300  1.0
  C  C1326  1  0.309300  0.495400  0.719400  1.0
  C  C1327  1  0.504600  0.219400  0.190700  1.0
  C  C1328  1  0.004600  0.280600  0.809300  1.0
  C  C1329  1  0.190700  0.504600  0.219400  1.0
  C  C1330  1  0.719400  0.309300  0.495400  1.0
  C  C1331  1  0.280600  0.809300  0.004600  1.0
  C  C1332  1  0.219400  0.190700  0.504600  1.0
  C  C1333  1  0.219400  0.309300  0.004600  1.0
  C  C1334  1  0.004600  0.219400  0.309300  1.0
  C  C1335  1  0.309300  0.004600  0.219400  1.0
  C  C1336  1  0.190700  0.995400  0.719400  1.0
  C  C1337  1  0.504600  0.280600  0.690700  1.0
  C  C1338  1  0.690700  0.504600  0.280600  1.0
  C  C1339  1  0.495400  0.780600  0.809300  1.0
  C  C1340  1  0.995400  0.719400  0.190700  1.0
  C  C1341  1  0.809300  0.495400  0.780600  1.0
  C  C1342  1  0.280600  0.690700  0.504600  1.0
  C  C1343  1  0.719400  0.190700  0.995400  1.0
  C  C1344  1  0.780600  0.809300  0.495400  1.0
  C  C1345  1  0.787900  0.662700  0.967100  1.0
  C  C1346  1  0.967100  0.787900  0.662700  1.0
  C  C1347  1  0.662700  0.967100  0.787900  1.0
  C  C1348  1  0.837300  0.032900  0.287900  1.0
  C  C1349  1  0.467100  0.712100  0.337300  1.0
  C  C1350  1  0.337300  0.467100  0.712100  1.0
  C  C1351  1  0.532900  0.212100  0.162700  1.0
  C  C1352  1  0.032900  0.287900  0.837300  1.0
  C  C1353  1  0.162700  0.532900  0.212100  1.0
  C  C1354  1  0.712100  0.337300  0.467100  1.0
  C  C1355  1  0.287900  0.837300  0.032900  1.0
  C  C1356  1  0.212100  0.162700  0.532900  1.0
  C  C1357  1  0.212100  0.337300  0.032900  1.0
  C  C1358  1  0.032900  0.212100  0.337300  1.0
  C  C1359  1  0.337300  0.032900  0.212100  1.0
  C  C1360  1  0.162700  0.967100  0.712100  1.0
  C  C1361  1  0.532900  0.287900  0.662700  1.0
  C  C1362  1  0.662700  0.532900  0.287900  1.0
  C  C1363  1  0.467100  0.787900  0.837300  1.0
  C  C1364  1  0.967100  0.712100  0.162700  1.0
  C  C1365  1  0.837300  0.467100  0.787900  1.0
  C  C1366  1  0.287900  0.662700  0.532900  1.0
  C  C1367  1  0.712100  0.162700  0.967100  1.0
  C  C1368  1  0.787900  0.837300  0.467100  1.0
  C  C1369  1  0.761300  0.655600  0.938000  1.0
  C  C1370  1  0.938000  0.761300  0.655600  1.0
  C  C1371  1  0.655600  0.938000  0.761300  1.0
  C  C1372  1  0.844400  0.062000  0.261300  1.0
  C  C1373  1  0.438000  0.738700  0.344400  1.0
  C  C1374  1  0.344400  0.438000  0.738700  1.0
  C  C1375  1  0.562000  0.238700  0.155600  1.0
  C  C1376  1  0.062000  0.261300  0.844400  1.0
  C  C1377  1  0.155600  0.562000  0.238700  1.0
  C  C1378  1  0.738700  0.344400  0.438000  1.0
  C  C1379  1  0.261300  0.844400  0.062000  1.0
  C  C1380  1  0.238700  0.155600  0.562000  1.0
  C  C1381  1  0.238700  0.344400  0.062000  1.0
  C  C1382  1  0.062000  0.238700  0.344400  1.0
  C  C1383  1  0.344400  0.062000  0.238700  1.0
  C  C1384  1  0.155600  0.938000  0.738700  1.0
  C  C1385  1  0.562000  0.261300  0.655600  1.0
  C  C1386  1  0.655600  0.562000  0.261300  1.0
  C  C1387  1  0.438000  0.761300  0.844400  1.0
  C  C1388  1  0.938000  0.738700  0.155600  1.0
  C  C1389  1  0.844400  0.438000  0.761300  1.0
  C  C1390  1  0.261300  0.655600  0.562000  1.0
  C  C1391  1  0.738700  0.155600  0.938000  1.0
  C  C1392  1  0.761300  0.844400  0.438000  1.0
  C  C1393  1  0.727200  0.676900  0.937400  1.0
  C  C1394  1  0.937400  0.727200  0.676900  1.0
  C  C1395  1  0.676900  0.937400  0.727200  1.0
  C  C1396  1  0.823100  0.062600  0.227200  1.0
  C  C1397  1  0.437400  0.772800  0.323100  1.0
  C  C1398  1  0.323100  0.437400  0.772800  1.0
  C  C1399  1  0.562600  0.272800  0.176900  1.0
  C  C1400  1  0.062600  0.227200  0.823100  1.0
  C  C1401  1  0.176900  0.562600  0.272800  1.0
  C  C1402  1  0.772800  0.323100  0.437400  1.0
  C  C1403  1  0.227200  0.823100  0.062600  1.0
  C  C1404  1  0.272800  0.176900  0.562600  1.0
  C  C1405  1  0.272800  0.323100  0.062600  1.0
  C  C1406  1  0.062600  0.272800  0.323100  1.0
  C  C1407  1  0.323100  0.062600  0.272800  1.0
  C  C1408  1  0.176900  0.937400  0.772800  1.0
  C  C1409  1  0.562600  0.227200  0.676900  1.0
  C  C1410  1  0.676900  0.562600  0.227200  1.0
  C  C1411  1  0.437400  0.727200  0.823100  1.0
  C  C1412  1  0.937400  0.772800  0.176900  1.0
  C  C1413  1  0.823100  0.437400  0.727200  1.0
  C  C1414  1  0.227200  0.676900  0.562600  1.0
  C  C1415  1  0.772800  0.176900  0.937400  1.0
  C  C1416  1  0.727200  0.823100  0.437400  1.0
  C  C1417  1  0.719900  0.704800  0.965900  1.0
  C  C1418  1  0.965900  0.719900  0.704800  1.0
  C  C1419  1  0.704800  0.965900  0.719900  1.0
  C  C1420  1  0.795200  0.034100  0.219900  1.0
  C  C1421  1  0.465900  0.780100  0.295200  1.0
  C  C1422  1  0.295200  0.465900  0.780100  1.0
  C  C1423  1  0.534100  0.280100  0.204800  1.0
  C  C1424  1  0.034100  0.219900  0.795200  1.0
  C  C1425  1  0.204800  0.534100  0.280100  1.0
  C  C1426  1  0.780100  0.295200  0.465900  1.0
  C  C1427  1  0.219900  0.795200  0.034100  1.0
  C  C1428  1  0.280100  0.204800  0.534100  1.0
  C  C1429  1  0.280100  0.295200  0.034100  1.0
  C  C1430  1  0.034100  0.280100  0.295200  1.0
  C  C1431  1  0.295200  0.034100  0.280100  1.0
  C  C1432  1  0.204800  0.965900  0.780100  1.0
  C  C1433  1  0.534100  0.219900  0.704800  1.0
  C  C1434  1  0.704800  0.534100  0.219900  1.0
  C  C1435  1  0.465900  0.719900  0.795200  1.0
  C  C1436  1  0.965900  0.780100  0.204800  1.0
  C  C1437  1  0.795200  0.465900  0.719900  1.0
  C  C1438  1  0.219900  0.704800  0.534100  1.0
  C  C1439  1  0.780100  0.204800  0.965900  1.0
  C  C1440  1  0.719900  0.795200  0.465900  1.0
  C  C1441  1  0.746700  0.712500  0.995400  1.0
  C  C1442  1  0.995400  0.746700  0.712500  1.0
  C  C1443  1  0.712500  0.995400  0.746700  1.0
  C  C1444  1  0.787500  0.004600  0.246700  1.0
  C  C1445  1  0.495400  0.753300  0.287500  1.0
  C  C1446  1  0.287500  0.495400  0.753300  1.0
  C  C1447  1  0.504600  0.253300  0.212500  1.0
  C  C1448  1  0.004600  0.246700  0.787500  1.0
  C  C1449  1  0.212500  0.504600  0.253300  1.0
  C  C1450  1  0.753300  0.287500  0.495400  1.0
  C  C1451  1  0.246700  0.787500  0.004600  1.0
  C  C1452  1  0.253300  0.212500  0.504600  1.0
  C  C1453  1  0.253300  0.287500  0.004600  1.0
  C  C1454  1  0.004600  0.253300  0.287500  1.0
  C  C1455  1  0.287500  0.004600  0.253300  1.0
  C  C1456  1  0.212500  0.995400  0.753300  1.0
  C  C1457  1  0.504600  0.246700  0.712500  1.0
  C  C1458  1  0.712500  0.504600  0.246700  1.0
  C  C1459  1  0.495400  0.746700  0.787500  1.0
  C  C1460  1  0.995400  0.753300  0.212500  1.0
  C  C1461  1  0.787500  0.495400  0.746700  1.0
  C  C1462  1  0.246700  0.712500  0.504600  1.0
  C  C1463  1  0.753300  0.212500  0.995400  1.0
  C  C1464  1  0.746700  0.787500  0.495400  1.0
  C  C1465  1  0.905400  0.727800  0.126100  1.0
  C  C1466  1  0.126100  0.905400  0.727800  1.0
  C  C1467  1  0.727800  0.126100  0.905400  1.0
  C  C1468  1  0.772200  0.873900  0.405400  1.0
  C  C1469  1  0.626100  0.594600  0.272200  1.0
  C  C1470  1  0.272200  0.626100  0.594600  1.0
  C  C1471  1  0.373900  0.094600  0.227800  1.0
  C  C1472  1  0.873900  0.405400  0.772200  1.0
  C  C1473  1  0.227800  0.373900  0.094600  1.0
  C  C1474  1  0.594600  0.272200  0.626100  1.0
  C  C1475  1  0.405400  0.772200  0.873900  1.0
  C  C1476  1  0.094600  0.227800  0.373900  1.0
  C  C1477  1  0.094600  0.272200  0.873900  1.0
  C  C1478  1  0.873900  0.094600  0.272200  1.0
  C  C1479  1  0.272200  0.873900  0.094600  1.0
  C  C1480  1  0.227800  0.126100  0.594600  1.0
  C  C1481  1  0.373900  0.405400  0.727800  1.0
  C  C1482  1  0.727800  0.373900  0.405400  1.0
  C  C1483  1  0.626100  0.905400  0.772200  1.0
  C  C1484  1  0.126100  0.594600  0.227800  1.0
  C  C1485  1  0.772200  0.626100  0.905400  1.0
  C  C1486  1  0.405400  0.727800  0.373900  1.0
  C  C1487  1  0.594600  0.227800  0.126100  1.0
  C  C1488  1  0.905400  0.772200  0.626100  1.0
  C  C1489  1  0.804900  0.454300  0.192900  1.0
  C  C1490  1  0.192900  0.804900  0.454300  1.0
  C  C1491  1  0.454300  0.192900  0.804900  1.0
  C  C1492  1  0.045700  0.807100  0.304900  1.0
  C  C1493  1  0.692900  0.695100  0.545700  1.0
  C  C1494  1  0.545700  0.692900  0.695100  1.0
  C  C1495  1  0.307100  0.195100  0.954300  1.0
  C  C1496  1  0.807100  0.304900  0.045700  1.0
  C  C1497  1  0.954300  0.307100  0.195100  1.0
  C  C1498  1  0.695100  0.545700  0.692900  1.0
  C  C1499  1  0.304900  0.045700  0.807100  1.0
  C  C1500  1  0.195100  0.954300  0.307100  1.0
  C  C1501  1  0.195100  0.545700  0.807100  1.0
  C  C1502  1  0.807100  0.195100  0.545700  1.0
  C  C1503  1  0.545700  0.807100  0.195100  1.0
  C  C1504  1  0.954300  0.192900  0.695100  1.0
  C  C1505  1  0.307100  0.304900  0.454300  1.0
  C  C1506  1  0.454300  0.307100  0.304900  1.0
  C  C1507  1  0.692900  0.804900  0.045700  1.0
  C  C1508  1  0.192900  0.695100  0.954300  1.0
  C  C1509  1  0.045700  0.692900  0.804900  1.0
  C  C1510  1  0.304900  0.454300  0.307100  1.0
  C  C1511  1  0.695100  0.954300  0.192900  1.0
  C  C1512  1  0.804900  0.045700  0.692900  1.0
  C  C1513  1  0.770900  0.432700  0.171400  1.0
  C  C1514  1  0.171400  0.770900  0.432700  1.0
  C  C1515  1  0.432700  0.171400  0.770900  1.0
  C  C1516  1  0.067300  0.828600  0.270900  1.0
  C  C1517  1  0.671400  0.729100  0.567300  1.0
  C  C1518  1  0.567300  0.671400  0.729100  1.0
  C  C1519  1  0.328600  0.229100  0.932700  1.0
  C  C1520  1  0.828600  0.270900  0.067300  1.0
  C  C1521  1  0.932700  0.328600  0.229100  1.0
  C  C1522  1  0.729100  0.567300  0.671400  1.0
  C  C1523  1  0.270900  0.067300  0.828600  1.0
  C  C1524  1  0.229100  0.932700  0.328600  1.0
  C  C1525  1  0.229100  0.567300  0.828600  1.0
  C  C1526  1  0.828600  0.229100  0.567300  1.0
  C  C1527  1  0.567300  0.828600  0.229100  1.0
  C  C1528  1  0.932700  0.171400  0.729100  1.0
  C  C1529  1  0.328600  0.270900  0.432700  1.0
  C  C1530  1  0.432700  0.328600  0.270900  1.0
  C  C1531  1  0.671400  0.770900  0.067300  1.0
  C  C1532  1  0.171400  0.729100  0.932700  1.0
  C  C1533  1  0.067300  0.671400  0.770900  1.0
  C  C1534  1  0.270900  0.432700  0.328600  1.0
  C  C1535  1  0.729100  0.932700  0.171400  1.0
  C  C1536  1  0.770900  0.067300  0.671400  1.0
  C  C1537  1  0.776900  0.420600  0.133300  1.0
  C  C1538  1  0.133300  0.776900  0.420600  1.0
  C  C1539  1  0.420600  0.133300  0.776900  1.0
  C  C1540  1  0.079400  0.866700  0.276900  1.0
  C  C1541  1  0.633300  0.723100  0.579400  1.0
  C  C1542  1  0.579400  0.633300  0.723100  1.0
  C  C1543  1  0.366700  0.223100  0.920600  1.0
  C  C1544  1  0.866700  0.276900  0.079400  1.0
  C  C1545  1  0.920600  0.366700  0.223100  1.0
  C  C1546  1  0.723100  0.579400  0.633300  1.0
  C  C1547  1  0.276900  0.079400  0.866700  1.0
  C  C1548  1  0.223100  0.920600  0.366700  1.0
  C  C1549  1  0.223100  0.579400  0.866700  1.0
  C  C1550  1  0.866700  0.223100  0.579400  1.0
  C  C1551  1  0.579400  0.866700  0.223100  1.0
  C  C1552  1  0.920600  0.133300  0.723100  1.0
  C  C1553  1  0.366700  0.276900  0.420600  1.0
  C  C1554  1  0.420600  0.366700  0.276900  1.0
  C  C1555  1  0.633300  0.776900  0.079400  1.0
  C  C1556  1  0.133300  0.723100  0.920600  1.0
  C  C1557  1  0.079400  0.633300  0.776900  1.0
  C  C1558  1  0.276900  0.420600  0.366700  1.0
  C  C1559  1  0.723100  0.920600  0.133300  1.0
  C  C1560  1  0.776900  0.079400  0.633300  1.0
  C  C1561  1  0.747800  0.397700  0.117600  1.0
  C  C1562  1  0.117600  0.747800  0.397700  1.0
  C  C1563  1  0.397700  0.117600  0.747800  1.0
  C  C1564  1  0.102300  0.882400  0.247800  1.0
  C  C1565  1  0.617600  0.752200  0.602300  1.0
  C  C1566  1  0.602300  0.617600  0.752200  1.0
  C  C1567  1  0.382400  0.252200  0.897700  1.0
  C  C1568  1  0.882400  0.247800  0.102300  1.0
  C  C1569  1  0.897700  0.382400  0.252200  1.0
  C  C1570  1  0.752200  0.602300  0.617600  1.0
  C  C1571  1  0.247800  0.102300  0.882400  1.0
  C  C1572  1  0.252200  0.897700  0.382400  1.0
  C  C1573  1  0.252200  0.602300  0.882400  1.0
  C  C1574  1  0.882400  0.252200  0.602300  1.0
  C  C1575  1  0.602300  0.882400  0.252200  1.0
  C  C1576  1  0.897700  0.117600  0.752200  1.0
  C  C1577  1  0.382400  0.247800  0.397700  1.0
  C  C1578  1  0.397700  0.382400  0.247800  1.0
  C  C1579  1  0.617600  0.747800  0.102300  1.0
  C  C1580  1  0.117600  0.752200  0.897700  1.0
  C  C1581  1  0.102300  0.617600  0.747800  1.0
  C  C1582  1  0.247800  0.397700  0.382400  1.0
  C  C1583  1  0.752200  0.897700  0.117600  1.0
  C  C1584  1  0.747800  0.102300  0.617600  1.0
  C  C1585  1  0.713600  0.386000  0.136700  1.0
  C  C1586  1  0.136700  0.713600  0.386000  1.0
  C  C1587  1  0.386000  0.136700  0.713600  1.0
  C  C1588  1  0.114000  0.863300  0.213600  1.0
  C  C1589  1  0.636700  0.786400  0.614000  1.0
  C  C1590  1  0.614000  0.636700  0.786400  1.0
  C  C1591  1  0.363300  0.286400  0.886000  1.0
  C  C1592  1  0.863300  0.213600  0.114000  1.0
  C  C1593  1  0.886000  0.363300  0.286400  1.0
  C  C1594  1  0.786400  0.614000  0.636700  1.0
  C  C1595  1  0.213600  0.114000  0.863300  1.0
  C  C1596  1  0.286400  0.886000  0.363300  1.0
  C  C1597  1  0.286400  0.614000  0.863300  1.0
  C  C1598  1  0.863300  0.286400  0.614000  1.0
  C  C1599  1  0.614000  0.863300  0.286400  1.0
  C  C1600  1  0.886000  0.136700  0.786400  1.0
  C  C1601  1  0.363300  0.213600  0.386000  1.0
  C  C1602  1  0.386000  0.363300  0.213600  1.0
  C  C1603  1  0.636700  0.713600  0.114000  1.0
  C  C1604  1  0.136700  0.786400  0.886000  1.0
  C  C1605  1  0.114000  0.636700  0.713600  1.0
  C  C1606  1  0.213600  0.386000  0.363300  1.0
  C  C1607  1  0.786400  0.886000  0.136700  1.0
  C  C1608  1  0.713600  0.114000  0.636700  1.0
  C  C1609  1  0.709400  0.399200  0.174700  1.0
  C  C1610  1  0.174700  0.709400  0.399200  1.0
  C  C1611  1  0.399200  0.174700  0.709400  1.0
  C  C1612  1  0.100800  0.825300  0.209400  1.0
  C  C1613  1  0.674700  0.790600  0.600800  1.0
  C  C1614  1  0.600800  0.674700  0.790600  1.0
  C  C1615  1  0.325300  0.290600  0.899200  1.0
  C  C1616  1  0.825300  0.209400  0.100800  1.0
  C  C1617  1  0.899200  0.325300  0.290600  1.0
  C  C1618  1  0.790600  0.600800  0.674700  1.0
  C  C1619  1  0.209400  0.100800  0.825300  1.0
  C  C1620  1  0.290600  0.899200  0.325300  1.0
  C  C1621  1  0.290600  0.600800  0.825300  1.0
  C  C1622  1  0.825300  0.290600  0.600800  1.0
  C  C1623  1  0.600800  0.825300  0.290600  1.0
  C  C1624  1  0.899200  0.174700  0.790600  1.0
  C  C1625  1  0.325300  0.209400  0.399200  1.0
  C  C1626  1  0.399200  0.325300  0.209400  1.0
  C  C1627  1  0.674700  0.709400  0.100800  1.0
  C  C1628  1  0.174700  0.790600  0.899200  1.0
  C  C1629  1  0.100800  0.674700  0.709400  1.0
  C  C1630  1  0.209400  0.399200  0.325300  1.0
  C  C1631  1  0.790600  0.899200  0.174700  1.0
  C  C1632  1  0.709400  0.100800  0.674700  1.0
  C  C1633  1  0.737800  0.422200  0.191800  1.0
  C  C1634  1  0.191800  0.737800  0.422200  1.0
  C  C1635  1  0.422200  0.191800  0.737800  1.0
  C  C1636  1  0.077800  0.808200  0.237800  1.0
  C  C1637  1  0.691800  0.762200  0.577800  1.0
  C  C1638  1  0.577800  0.691800  0.762200  1.0
  C  C1639  1  0.308200  0.262200  0.922200  1.0
  C  C1640  1  0.808200  0.237800  0.077800  1.0
  C  C1641  1  0.922200  0.308200  0.262200  1.0
  C  C1642  1  0.762200  0.577800  0.691800  1.0
  C  C1643  1  0.237800  0.077800  0.808200  1.0
  C  C1644  1  0.262200  0.922200  0.308200  1.0
  C  C1645  1  0.262200  0.577800  0.808200  1.0
  C  C1646  1  0.808200  0.262200  0.577800  1.0
  C  C1647  1  0.577800  0.808200  0.262200  1.0
  C  C1648  1  0.922200  0.191800  0.762200  1.0
  C  C1649  1  0.308200  0.237800  0.422200  1.0
  C  C1650  1  0.422200  0.308200  0.237800  1.0
  C  C1651  1  0.691800  0.737800  0.077800  1.0
  C  C1652  1  0.191800  0.762200  0.922200  1.0
  C  C1653  1  0.077800  0.691800  0.737800  1.0
  C  C1654  1  0.237800  0.422200  0.308200  1.0
  C  C1655  1  0.762200  0.922200  0.191800  1.0
  C  C1656  1  0.737800  0.077800  0.691800  1.0
  C  C1657  1  0.881900  0.424800  0.241500  1.0
  C  C1658  1  0.241500  0.881900  0.424800  1.0
  C  C1659  1  0.424800  0.241500  0.881900  1.0
  C  C1660  1  0.075200  0.758500  0.381900  1.0
  C  C1661  1  0.741500  0.618100  0.575200  1.0
  C  C1662  1  0.575200  0.741500  0.618100  1.0
  C  C1663  1  0.258500  0.118100  0.924800  1.0
  C  C1664  1  0.758500  0.381900  0.075200  1.0
  C  C1665  1  0.924800  0.258500  0.118100  1.0
  C  C1666  1  0.618100  0.575200  0.741500  1.0
  C  C1667  1  0.381900  0.075200  0.758500  1.0
  C  C1668  1  0.118100  0.924800  0.258500  1.0
  C  C1669  1  0.118100  0.575200  0.758500  1.0
  C  C1670  1  0.758500  0.118100  0.575200  1.0
  C  C1671  1  0.575200  0.758500  0.118100  1.0
  C  C1672  1  0.924800  0.241500  0.618100  1.0
  C  C1673  1  0.258500  0.381900  0.424800  1.0
  C  C1674  1  0.424800  0.258500  0.381900  1.0
  C  C1675  1  0.741500  0.881900  0.075200  1.0
  C  C1676  1  0.241500  0.618100  0.924800  1.0
  C  C1677  1  0.075200  0.741500  0.881900  1.0
  C  C1678  1  0.381900  0.424800  0.258500  1.0
  C  C1679  1  0.618100  0.924800  0.241500  1.0
  C  C1680  1  0.881900  0.075200  0.741500  1.0
  C  C1681  1  0.795400  0.535500  0.320000  1.0
  C  C1682  1  0.320000  0.795400  0.535500  1.0
  C  C1683  1  0.535500  0.320000  0.795400  1.0
  C  C1684  1  0.964500  0.680000  0.295400  1.0
  C  C1685  1  0.820000  0.704600  0.464500  1.0
  C  C1686  1  0.464500  0.820000  0.704600  1.0
  C  C1687  1  0.180000  0.204600  0.035500  1.0
  C  C1688  1  0.680000  0.295400  0.964500  1.0
  C  C1689  1  0.035500  0.180000  0.204600  1.0
  C  C1690  1  0.704600  0.464500  0.820000  1.0
  C  C1691  1  0.295400  0.964500  0.680000  1.0
  C  C1692  1  0.204600  0.035500  0.180000  1.0
  C  C1693  1  0.204600  0.464500  0.680000  1.0
  C  C1694  1  0.680000  0.204600  0.464500  1.0
  C  C1695  1  0.464500  0.680000  0.204600  1.0
  C  C1696  1  0.035500  0.320000  0.704600  1.0
  C  C1697  1  0.180000  0.295400  0.535500  1.0
  C  C1698  1  0.535500  0.180000  0.295400  1.0
  C  C1699  1  0.820000  0.795400  0.964500  1.0
  C  C1700  1  0.320000  0.704600  0.035500  1.0
  C  C1701  1  0.964500  0.820000  0.795400  1.0
  C  C1702  1  0.295400  0.535500  0.180000  1.0
  C  C1703  1  0.704600  0.035500  0.320000  1.0
  C  C1704  1  0.795400  0.964500  0.820000  1.0
  C  C1705  1  0.768500  0.784700  0.130400  1.0
  C  C1706  1  0.130400  0.768500  0.784700  1.0
  C  C1707  1  0.784700  0.130400  0.768500  1.0
  C  C1708  1  0.715300  0.869600  0.268500  1.0
  C  C1709  1  0.630400  0.731500  0.215300  1.0
  C  C1710  1  0.215300  0.630400  0.731500  1.0
  C  C1711  1  0.369600  0.231500  0.284700  1.0
  C  C1712  1  0.869600  0.268500  0.715300  1.0
  C  C1713  1  0.284700  0.369600  0.231500  1.0
  C  C1714  1  0.731500  0.215300  0.630400  1.0
  C  C1715  1  0.268500  0.715300  0.869600  1.0
  C  C1716  1  0.231500  0.284700  0.369600  1.0
  C  C1717  1  0.231500  0.215300  0.869600  1.0
  C  C1718  1  0.869600  0.231500  0.215300  1.0
  C  C1719  1  0.215300  0.869600  0.231500  1.0
  C  C1720  1  0.284700  0.130400  0.731500  1.0
  C  C1721  1  0.369600  0.268500  0.784700  1.0
  C  C1722  1  0.784700  0.369600  0.268500  1.0
  C  C1723  1  0.630400  0.768500  0.715300  1.0
  C  C1724  1  0.130400  0.731500  0.284700  1.0
  C  C1725  1  0.715300  0.630400  0.768500  1.0
  C  C1726  1  0.268500  0.784700  0.369600  1.0
  C  C1727  1  0.731500  0.284700  0.130400  1.0
  C  C1728  1  0.768500  0.715300  0.630400  1.0
  C  C1729  1  0.607200  0.778800  0.952400  1.0
  C  C1730  1  0.952400  0.607200  0.778800  1.0
  C  C1731  1  0.778800  0.952400  0.607200  1.0
  C  C1732  1  0.721200  0.047600  0.107200  1.0
  C  C1733  1  0.452400  0.892800  0.221200  1.0
  C  C1734  1  0.221200  0.452400  0.892800  1.0
  C  C1735  1  0.547600  0.392800  0.278800  1.0
  C  C1736  1  0.047600  0.107200  0.721200  1.0
  C  C1737  1  0.278800  0.547600  0.392800  1.0
  C  C1738  1  0.892800  0.221200  0.452400  1.0
  C  C1739  1  0.107200  0.721200  0.047600  1.0
  C  C1740  1  0.392800  0.278800  0.547600  1.0
  C  C1741  1  0.392800  0.221200  0.047600  1.0
  C  C1742  1  0.047600  0.392800  0.221200  1.0
  C  C1743  1  0.221200  0.047600  0.392800  1.0
  C  C1744  1  0.278800  0.952400  0.892800  1.0
  C  C1745  1  0.547600  0.107200  0.778800  1.0
  C  C1746  1  0.778800  0.547600  0.107200  1.0
  C  C1747  1  0.452400  0.607200  0.721200  1.0
  C  C1748  1  0.952400  0.892800  0.278800  1.0
  C  C1749  1  0.721200  0.452400  0.607200  1.0
  C  C1750  1  0.107200  0.778800  0.547600  1.0
  C  C1751  1  0.892800  0.278800  0.952400  1.0
  C  C1752  1  0.607200  0.721200  0.452400  1.0
  C  C1753  1  0.631900  0.352000  0.152100  1.0
  C  C1754  1  0.152100  0.631900  0.352000  1.0
  C  C1755  1  0.352000  0.152100  0.631900  1.0
  C  C1756  1  0.148000  0.847900  0.131900  1.0
  C  C1757  1  0.652100  0.868100  0.648000  1.0
  C  C1758  1  0.648000  0.652100  0.868100  1.0
  C  C1759  1  0.347900  0.368100  0.852000  1.0
  C  C1760  1  0.847900  0.131900  0.148000  1.0
  C  C1761  1  0.852000  0.347900  0.368100  1.0
  C  C1762  1  0.868100  0.648000  0.652100  1.0
  C  C1763  1  0.131900  0.148000  0.847900  1.0
  C  C1764  1  0.368100  0.852000  0.347900  1.0
  C  C1765  1  0.368100  0.648000  0.847900  1.0
  C  C1766  1  0.847900  0.368100  0.648000  1.0
  C  C1767  1  0.648000  0.847900  0.368100  1.0
  C  C1768  1  0.852000  0.152100  0.868100  1.0
  C  C1769  1  0.347900  0.131900  0.352000  1.0
  C  C1770  1  0.352000  0.347900  0.131900  1.0
  C  C1771  1  0.652100  0.631900  0.148000  1.0
  C  C1772  1  0.152100  0.868100  0.852000  1.0
  C  C1773  1  0.148000  0.652100  0.631900  1.0
  C  C1774  1  0.131900  0.352000  0.347900  1.0
  C  C1775  1  0.868100  0.852000  0.152100  1.0
  C  C1776  1  0.631900  0.148000  0.652100  1.0
  C  C1777  1  0.656700  0.347300  0.186100  1.0
  C  C1778  1  0.186100  0.656700  0.347300  1.0
  C  C1779  1  0.347300  0.186100  0.656700  1.0
  C  C1780  1  0.152700  0.813900  0.156700  1.0
  C  C1781  1  0.686100  0.843300  0.652700  1.0
  C  C1782  1  0.652700  0.686100  0.843300  1.0
  C  C1783  1  0.313900  0.343300  0.847300  1.0
  C  C1784  1  0.813900  0.156700  0.152700  1.0
  C  C1785  1  0.847300  0.313900  0.343300  1.0
  C  C1786  1  0.843300  0.652700  0.686100  1.0
  C  C1787  1  0.156700  0.152700  0.813900  1.0
  C  C1788  1  0.343300  0.847300  0.313900  1.0
  C  C1789  1  0.343300  0.652700  0.813900  1.0
  C  C1790  1  0.813900  0.343300  0.652700  1.0
  C  C1791  1  0.652700  0.813900  0.343300  1.0
  C  C1792  1  0.847300  0.186100  0.843300  1.0
  C  C1793  1  0.313900  0.156700  0.347300  1.0
  C  C1794  1  0.347300  0.313900  0.156700  1.0
  C  C1795  1  0.686100  0.656700  0.152700  1.0
  C  C1796  1  0.186100  0.843300  0.847300  1.0
  C  C1797  1  0.152700  0.686100  0.656700  1.0
  C  C1798  1  0.156700  0.347300  0.313900  1.0
  C  C1799  1  0.843300  0.847300  0.186100  1.0
  C  C1800  1  0.656700  0.152700  0.686100  1.0
  C  C1801  1  0.615000  0.364000  0.127000  1.0
  C  C1802  1  0.127000  0.615000  0.364000  1.0
  C  C1803  1  0.364000  0.127000  0.615000  1.0
  C  C1804  1  0.136000  0.873000  0.115000  1.0
  C  C1805  1  0.627000  0.885000  0.636000  1.0
  C  C1806  1  0.636000  0.627000  0.885000  1.0
  C  C1807  1  0.373000  0.385000  0.864000  1.0
  C  C1808  1  0.873000  0.115000  0.136000  1.0
  C  C1809  1  0.864000  0.373000  0.385000  1.0
  C  C1810  1  0.885000  0.636000  0.627000  1.0
  C  C1811  1  0.115000  0.136000  0.873000  1.0
  C  C1812  1  0.385000  0.864000  0.373000  1.0
  C  C1813  1  0.385000  0.636000  0.873000  1.0
  C  C1814  1  0.873000  0.385000  0.636000  1.0
  C  C1815  1  0.636000  0.873000  0.385000  1.0
  C  C1816  1  0.864000  0.127000  0.885000  1.0
  C  C1817  1  0.373000  0.115000  0.364000  1.0
  C  C1818  1  0.364000  0.373000  0.115000  1.0
  C  C1819  1  0.627000  0.615000  0.136000  1.0
  C  C1820  1  0.127000  0.885000  0.864000  1.0
  C  C1821  1  0.136000  0.627000  0.615000  1.0
  C  C1822  1  0.115000  0.364000  0.373000  1.0
  C  C1823  1  0.885000  0.864000  0.127000  1.0
  C  C1824  1  0.615000  0.136000  0.627000  1.0
  C  C1825  1  0.624900  0.752000  0.952500  1.0
  C  C1826  1  0.952500  0.624900  0.752000  1.0
  C  C1827  1  0.752000  0.952500  0.624900  1.0
  C  C1828  1  0.748000  0.047500  0.124900  1.0
  C  C1829  1  0.452500  0.875100  0.248000  1.0
  C  C1830  1  0.248000  0.452500  0.875100  1.0
  C  C1831  1  0.547500  0.375100  0.252000  1.0
  C  C1832  1  0.047500  0.124900  0.748000  1.0
  C  C1833  1  0.252000  0.547500  0.375100  1.0
  C  C1834  1  0.875100  0.248000  0.452500  1.0
  C  C1835  1  0.124900  0.748000  0.047500  1.0
  C  C1836  1  0.375100  0.252000  0.547500  1.0
  C  C1837  1  0.375100  0.248000  0.047500  1.0
  C  C1838  1  0.047500  0.375100  0.248000  1.0
  C  C1839  1  0.248000  0.047500  0.375100  1.0
  C  C1840  1  0.252000  0.952500  0.875100  1.0
  C  C1841  1  0.547500  0.124900  0.752000  1.0
  C  C1842  1  0.752000  0.547500  0.124900  1.0
  C  C1843  1  0.452500  0.624900  0.748000  1.0
  C  C1844  1  0.952500  0.875100  0.252000  1.0
  C  C1845  1  0.748000  0.452500  0.624900  1.0
  C  C1846  1  0.124900  0.752000  0.547500  1.0
  C  C1847  1  0.875100  0.252000  0.952500  1.0
  C  C1848  1  0.624900  0.748000  0.452500  1.0
  C  C1849  1  0.652500  0.720300  0.953200  1.0
  C  C1850  1  0.953200  0.652500  0.720300  1.0
  C  C1851  1  0.720300  0.953200  0.652500  1.0
  C  C1852  1  0.779700  0.046800  0.152500  1.0
  C  C1853  1  0.453200  0.847500  0.279700  1.0
  C  C1854  1  0.279700  0.453200  0.847500  1.0
  C  C1855  1  0.546800  0.347500  0.220300  1.0
  C  C1856  1  0.046800  0.152500  0.779700  1.0
  C  C1857  1  0.220300  0.546800  0.347500  1.0
  C  C1858  1  0.847500  0.279700  0.453200  1.0
  C  C1859  1  0.152500  0.779700  0.046800  1.0
  C  C1860  1  0.347500  0.220300  0.546800  1.0
  C  C1861  1  0.347500  0.279700  0.046800  1.0
  C  C1862  1  0.046800  0.347500  0.279700  1.0
  C  C1863  1  0.279700  0.046800  0.347500  1.0
  C  C1864  1  0.220300  0.953200  0.847500  1.0
  C  C1865  1  0.546800  0.152500  0.720300  1.0
  C  C1866  1  0.720300  0.546800  0.152500  1.0
  C  C1867  1  0.453200  0.652500  0.779700  1.0
  C  C1868  1  0.953200  0.847500  0.220300  1.0
  C  C1869  1  0.779700  0.453200  0.652500  1.0
  C  C1870  1  0.152500  0.720300  0.546800  1.0
  C  C1871  1  0.847500  0.220300  0.953200  1.0
  C  C1872  1  0.652500  0.779700  0.453200  1.0
  C  C1873  1  0.038400  0.642100  0.397300  1.0
  C  C1874  1  0.397300  0.038400  0.642100  1.0
  C  C1875  1  0.642100  0.397300  0.038400  1.0
  C  C1876  1  0.857900  0.602700  0.538400  1.0
  C  C1877  1  0.897300  0.461600  0.357900  1.0
  C  C1878  1  0.357900  0.897300  0.461600  1.0
  C  C1879  1  0.102700  0.961600  0.142100  1.0
  C  C1880  1  0.602700  0.538400  0.857900  1.0
  C  C1881  1  0.142100  0.102700  0.961600  1.0
  C  C1882  1  0.461600  0.357900  0.897300  1.0
  C  C1883  1  0.538400  0.857900  0.602700  1.0
  C  C1884  1  0.961600  0.142100  0.102700  1.0
  C  C1885  1  0.961600  0.357900  0.602700  1.0
  C  C1886  1  0.602700  0.961600  0.357900  1.0
  C  C1887  1  0.357900  0.602700  0.961600  1.0
  C  C1888  1  0.142100  0.397300  0.461600  1.0
  C  C1889  1  0.102700  0.538400  0.642100  1.0
  C  C1890  1  0.642100  0.102700  0.538400  1.0
  C  C1891  1  0.897300  0.038400  0.857900  1.0
  C  C1892  1  0.397300  0.461600  0.142100  1.0
  C  C1893  1  0.857900  0.897300  0.038400  1.0
  C  C1894  1  0.538400  0.642100  0.102700  1.0
  C  C1895  1  0.461600  0.142100  0.397300  1.0
  C  C1896  1  0.038400  0.857900  0.897300  1.0
  C  C1897  1  0.024700  0.613300  0.394800  1.0
  C  C1898  1  0.394800  0.024700  0.613300  1.0
  C  C1899  1  0.613300  0.394800  0.024700  1.0
  C  C1900  1  0.886700  0.605200  0.524700  1.0
  C  C1901  1  0.894800  0.475300  0.386700  1.0
  C  C1902  1  0.386700  0.894800  0.475300  1.0
  C  C1903  1  0.105200  0.975300  0.113300  1.0
  C  C1904  1  0.605200  0.524700  0.886700  1.0
  C  C1905  1  0.113300  0.105200  0.975300  1.0
  C  C1906  1  0.475300  0.386700  0.894800  1.0
  C  C1907  1  0.524700  0.886700  0.605200  1.0
  C  C1908  1  0.975300  0.113300  0.105200  1.0
  C  C1909  1  0.975300  0.386700  0.605200  1.0
  C  C1910  1  0.605200  0.975300  0.386700  1.0
  C  C1911  1  0.386700  0.605200  0.975300  1.0
  C  C1912  1  0.113300  0.394800  0.475300  1.0
  C  C1913  1  0.105200  0.524700  0.613300  1.0
  C  C1914  1  0.613300  0.105200  0.524700  1.0
  C  C1915  1  0.894800  0.024700  0.886700  1.0
  C  C1916  1  0.394800  0.475300  0.113300  1.0
  C  C1917  1  0.886700  0.894800  0.024700  1.0
  C  C1918  1  0.524700  0.613300  0.105200  1.0
  C  C1919  1  0.475300  0.113300  0.394800  1.0
  C  C1920  1  0.024700  0.886700  0.894800  1.0
  O  O1921  1  0.849600  0.538800  0.182900  1.0
  O  O1922  1  0.182900  0.849600  0.538800  1.0
  O  O1923  1  0.538800  0.182900  0.849600  1.0
  O  O1924  1  0.961200  0.817100  0.349600  1.0
  O  O1925  1  0.682900  0.650400  0.461200  1.0
  O  O1926  1  0.461200  0.682900  0.650400  1.0
  O  O1927  1  0.317100  0.150400  0.038800  1.0
  O  O1928  1  0.817100  0.349600  0.961200  1.0
  O  O1929  1  0.038800  0.317100  0.150400  1.0
  O  O1930  1  0.650400  0.461200  0.682900  1.0
  O  O1931  1  0.349600  0.961200  0.817100  1.0
  O  O1932  1  0.150400  0.038800  0.317100  1.0
  O  O1933  1  0.150400  0.461200  0.817100  1.0
  O  O1934  1  0.817100  0.150400  0.461200  1.0
  O  O1935  1  0.461200  0.817100  0.150400  1.0
  O  O1936  1  0.038800  0.182900  0.650400  1.0
  O  O1937  1  0.317100  0.349600  0.538800  1.0
  O  O1938  1  0.538800  0.317100  0.349600  1.0
  O  O1939  1  0.682900  0.849600  0.961200  1.0
  O  O1940  1  0.182900  0.650400  0.038800  1.0
  O  O1941  1  0.961200  0.682900  0.849600  1.0
  O  O1942  1  0.349600  0.538800  0.317100  1.0
  O  O1943  1  0.650400  0.038800  0.182900  1.0
  O  O1944  1  0.849600  0.961200  0.682900  1.0
  O  O1945  1  0.816100  0.536400  0.241700  1.0
  O  O1946  1  0.241700  0.816100  0.536400  1.0
  O  O1947  1  0.536400  0.241700  0.816100  1.0
  O  O1948  1  0.963600  0.758300  0.316100  1.0
  O  O1949  1  0.741700  0.683900  0.463600  1.0
  O  O1950  1  0.463600  0.741700  0.683900  1.0
  O  O1951  1  0.258300  0.183900  0.036400  1.0
  O  O1952  1  0.758300  0.316100  0.963600  1.0
  O  O1953  1  0.036400  0.258300  0.183900  1.0
  O  O1954  1  0.683900  0.463600  0.741700  1.0
  O  O1955  1  0.316100  0.963600  0.758300  1.0
  O  O1956  1  0.183900  0.036400  0.258300  1.0
  O  O1957  1  0.183900  0.463600  0.758300  1.0
  O  O1958  1  0.758300  0.183900  0.463600  1.0
  O  O1959  1  0.463600  0.758300  0.183900  1.0
  O  O1960  1  0.036400  0.241700  0.683900  1.0
  O  O1961  1  0.258300  0.316100  0.536400  1.0
  O  O1962  1  0.536400  0.258300  0.316100  1.0
  O  O1963  1  0.741700  0.816100  0.963600  1.0
  O  O1964  1  0.241700  0.683900  0.036400  1.0
  O  O1965  1  0.963600  0.741700  0.816100  1.0
  O  O1966  1  0.316100  0.536400  0.258300  1.0
  O  O1967  1  0.683900  0.036400  0.241700  1.0
  O  O1968  1  0.816100  0.963600  0.741700  1.0
  O  O1969  1  0.846700  0.654100  0.105500  1.0
  O  O1970  1  0.105500  0.846700  0.654100  1.0
  O  O1971  1  0.654100  0.105500  0.846700  1.0
  O  O1972  1  0.845900  0.894500  0.346700  1.0
  O  O1973  1  0.605500  0.653300  0.345900  1.0
  O  O1974  1  0.345900  0.605500  0.653300  1.0
  O  O1975  1  0.394500  0.153300  0.154100  1.0
  O  O1976  1  0.894500  0.346700  0.845900  1.0
  O  O1977  1  0.154100  0.394500  0.153300  1.0
  O  O1978  1  0.653300  0.345900  0.605500  1.0
  O  O1979  1  0.346700  0.845900  0.894500  1.0
  O  O1980  1  0.153300  0.154100  0.394500  1.0
  O  O1981  1  0.153300  0.345900  0.894500  1.0
  O  O1982  1  0.894500  0.153300  0.345900  1.0
  O  O1983  1  0.345900  0.894500  0.153300  1.0
  O  O1984  1  0.154100  0.105500  0.653300  1.0
  O  O1985  1  0.394500  0.346700  0.654100  1.0
  O  O1986  1  0.654100  0.394500  0.346700  1.0
  O  O1987  1  0.605500  0.846700  0.845900  1.0
  O  O1988  1  0.105500  0.653300  0.154100  1.0
  O  O1989  1  0.845900  0.605500  0.846700  1.0
  O  O1990  1  0.346700  0.654100  0.394500  1.0
  O  O1991  1  0.653300  0.154100  0.105500  1.0
  O  O1992  1  0.846700  0.845900  0.605500  1.0
  O  O1993  1  0.813400  0.708300  0.127000  1.0
  O  O1994  1  0.127000  0.813400  0.708300  1.0
  O  O1995  1  0.708300  0.127000  0.813400  1.0
  O  O1996  1  0.791700  0.873000  0.313400  1.0
  O  O1997  1  0.627000  0.686600  0.291700  1.0
  O  O1998  1  0.291700  0.627000  0.686600  1.0
  O  O1999  1  0.373000  0.186600  0.208300  1.0
  O  O2000  1  0.873000  0.313400  0.791700  1.0
  O  O2001  1  0.208300  0.373000  0.186600  1.0
  O  O2002  1  0.686600  0.291700  0.627000  1.0
  O  O2003  1  0.313400  0.791700  0.873000  1.0
  O  O2004  1  0.186600  0.208300  0.373000  1.0
  O  O2005  1  0.186600  0.291700  0.873000  1.0
  O  O2006  1  0.873000  0.186600  0.291700  1.0
  O  O2007  1  0.291700  0.873000  0.186600  1.0
  O  O2008  1  0.208300  0.127000  0.686600  1.0
  O  O2009  1  0.373000  0.313400  0.708300  1.0
  O  O2010  1  0.708300  0.373000  0.313400  1.0
  O  O2011  1  0.627000  0.813400  0.791700  1.0
  O  O2012  1  0.127000  0.686600  0.208300  1.0
  O  O2013  1  0.791700  0.627000  0.813400  1.0
  O  O2014  1  0.313400  0.708300  0.373000  1.0
  O  O2015  1  0.686600  0.208300  0.127000  1.0
  O  O2016  1  0.813400  0.791700  0.627000  1.0
  O  O2017  1  0.742200  0.664700  0.239000  1.0
  O  O2018  1  0.239000  0.742200  0.664700  1.0
  O  O2019  1  0.664700  0.239000  0.742200  1.0
  O  O2020  1  0.835300  0.761000  0.242200  1.0
  O  O2021  1  0.739000  0.757800  0.335300  1.0
  O  O2022  1  0.335300  0.739000  0.757800  1.0
  O  O2023  1  0.261000  0.257800  0.164700  1.0
  O  O2024  1  0.761000  0.242200  0.835300  1.0
  O  O2025  1  0.164700  0.261000  0.257800  1.0
  O  O2026  1  0.757800  0.335300  0.739000  1.0
  O  O2027  1  0.242200  0.835300  0.761000  1.0
  O  O2028  1  0.257800  0.164700  0.261000  1.0
  O  O2029  1  0.257800  0.335300  0.761000  1.0
  O  O2030  1  0.761000  0.257800  0.335300  1.0
  O  O2031  1  0.335300  0.761000  0.257800  1.0
  O  O2032  1  0.164700  0.239000  0.757800  1.0
  O  O2033  1  0.261000  0.242200  0.664700  1.0
  O  O2034  1  0.664700  0.261000  0.242200  1.0
  O  O2035  1  0.739000  0.742200  0.835300  1.0
  O  O2036  1  0.239000  0.757800  0.164700  1.0
  O  O2037  1  0.835300  0.739000  0.742200  1.0
  O  O2038  1  0.242200  0.664700  0.261000  1.0
  O  O2039  1  0.757800  0.164700  0.239000  1.0
  O  O2040  1  0.742200  0.835300  0.739000  1.0
  O  O2041  1  0.881600  0.513900  0.282300  1.0
  O  O2042  1  0.282300  0.881600  0.513900  1.0
  O  O2043  1  0.513900  0.282300  0.881600  1.0
  O  O2044  1  0.986100  0.717700  0.381600  1.0
  O  O2045  1  0.782300  0.618400  0.486100  1.0
  O  O2046  1  0.486100  0.782300  0.618400  1.0
  O  O2047  1  0.217700  0.118400  0.013900  1.0
  O  O2048  1  0.717700  0.381600  0.986100  1.0
  O  O2049  1  0.013900  0.217700  0.118400  1.0
  O  O2050  1  0.618400  0.486100  0.782300  1.0
  O  O2051  1  0.381600  0.986100  0.717700  1.0
  O  O2052  1  0.118400  0.013900  0.217700  1.0
  O  O2053  1  0.118400  0.486100  0.717700  1.0
  O  O2054  1  0.717700  0.118400  0.486100  1.0
  O  O2055  1  0.486100  0.717700  0.118400  1.0
  O  O2056  1  0.013900  0.282300  0.618400  1.0
  O  O2057  1  0.217700  0.381600  0.513900  1.0
  O  O2058  1  0.513900  0.217700  0.381600  1.0
  O  O2059  1  0.782300  0.881600  0.986100  1.0
  O  O2060  1  0.282300  0.618400  0.013900  1.0
  O  O2061  1  0.986100  0.782300  0.881600  1.0
  O  O2062  1  0.381600  0.513900  0.217700  1.0
  O  O2063  1  0.618400  0.013900  0.282300  1.0
  O  O2064  1  0.881600  0.986100  0.782300  1.0
  O  O2065  1  0.915900  0.518000  0.224600  1.0
  O  O2066  1  0.224600  0.915900  0.518000  1.0
  O  O2067  1  0.518000  0.224600  0.915900  1.0
  O  O2068  1  0.982000  0.775400  0.415900  1.0
  O  O2069  1  0.724600  0.584100  0.482000  1.0
  O  O2070  1  0.482000  0.724600  0.584100  1.0
  O  O2071  1  0.275400  0.084100  0.018000  1.0
  O  O2072  1  0.775400  0.415900  0.982000  1.0
  O  O2073  1  0.018000  0.275400  0.084100  1.0
  O  O2074  1  0.584100  0.482000  0.724600  1.0
  O  O2075  1  0.415900  0.982000  0.775400  1.0
  O  O2076  1  0.084100  0.018000  0.275400  1.0
  O  O2077  1  0.084100  0.482000  0.775400  1.0
  O  O2078  1  0.775400  0.084100  0.482000  1.0
  O  O2079  1  0.482000  0.775400  0.084100  1.0
  O  O2080  1  0.018000  0.224600  0.584100  1.0
  O  O2081  1  0.275400  0.415900  0.518000  1.0
  O  O2082  1  0.518000  0.275400  0.415900  1.0
  O  O2083  1  0.724600  0.915900  0.982000  1.0
  O  O2084  1  0.224600  0.584100  0.018000  1.0
  O  O2085  1  0.982000  0.724600  0.915900  1.0
  O  O2086  1  0.415900  0.518000  0.275400  1.0
  O  O2087  1  0.584100  0.018000  0.224600  1.0
  O  O2088  1  0.915900  0.982000  0.724600  1.0
  O  O2089  1  0.903800  0.716400  0.032400  1.0
  O  O2090  1  0.032400  0.903800  0.716400  1.0
  O  O2091  1  0.716400  0.032400  0.903800  1.0
  O  O2092  1  0.783600  0.967600  0.403800  1.0
  O  O2093  1  0.532400  0.596200  0.283600  1.0
  O  O2094  1  0.283600  0.532400  0.596200  1.0
  O  O2095  1  0.467600  0.096200  0.216400  1.0
  O  O2096  1  0.967600  0.403800  0.783600  1.0
  O  O2097  1  0.216400  0.467600  0.096200  1.0
  O  O2098  1  0.596200  0.283600  0.532400  1.0
  O  O2099  1  0.403800  0.783600  0.967600  1.0
  O  O2100  1  0.096200  0.216400  0.467600  1.0
  O  O2101  1  0.096200  0.283600  0.967600  1.0
  O  O2102  1  0.967600  0.096200  0.283600  1.0
  O  O2103  1  0.283600  0.967600  0.096200  1.0
  O  O2104  1  0.216400  0.032400  0.596200  1.0
  O  O2105  1  0.467600  0.403800  0.716400  1.0
  O  O2106  1  0.716400  0.467600  0.403800  1.0
  O  O2107  1  0.532400  0.903800  0.783600  1.0
  O  O2108  1  0.032400  0.596200  0.216400  1.0
  O  O2109  1  0.783600  0.532400  0.903800  1.0
  O  O2110  1  0.403800  0.716400  0.467600  1.0
  O  O2111  1  0.596200  0.216400  0.032400  1.0
  O  O2112  1  0.903800  0.783600  0.532400  1.0
  O  O2113  1  0.867600  0.770000  0.050500  1.0
  O  O2114  1  0.050500  0.867600  0.770000  1.0
  O  O2115  1  0.770000  0.050500  0.867600  1.0
  O  O2116  1  0.730000  0.949500  0.367600  1.0
  O  O2117  1  0.550500  0.632400  0.230000  1.0
  O  O2118  1  0.230000  0.550500  0.632400  1.0
  O  O2119  1  0.449500  0.132400  0.270000  1.0
  O  O2120  1  0.949500  0.367600  0.730000  1.0
  O  O2121  1  0.270000  0.449500  0.132400  1.0
  O  O2122  1  0.632400  0.230000  0.550500  1.0
  O  O2123  1  0.367600  0.730000  0.949500  1.0
  O  O2124  1  0.132400  0.270000  0.449500  1.0
  O  O2125  1  0.132400  0.230000  0.949500  1.0
  O  O2126  1  0.949500  0.132400  0.230000  1.0
  O  O2127  1  0.230000  0.949500  0.132400  1.0
  O  O2128  1  0.270000  0.050500  0.632400  1.0
  O  O2129  1  0.449500  0.367600  0.770000  1.0
  O  O2130  1  0.770000  0.449500  0.367600  1.0
  O  O2131  1  0.550500  0.867600  0.730000  1.0
  O  O2132  1  0.050500  0.632400  0.270000  1.0
  O  O2133  1  0.730000  0.550500  0.867600  1.0
  O  O2134  1  0.367600  0.770000  0.449500  1.0
  O  O2135  1  0.632400  0.270000  0.050500  1.0
  O  O2136  1  0.867600  0.730000  0.550500  1.0
  O  O2137  1  0.975300  0.567500  0.377800  1.0
  O  O2138  1  0.377800  0.975300  0.567500  1.0
  O  O2139  1  0.567500  0.377800  0.975300  1.0
  O  O2140  1  0.932500  0.622200  0.475300  1.0
  O  O2141  1  0.877800  0.524700  0.432500  1.0
  O  O2142  1  0.432500  0.877800  0.524700  1.0
  O  O2143  1  0.122200  0.024700  0.067500  1.0
  O  O2144  1  0.622200  0.475300  0.932500  1.0
  O  O2145  1  0.067500  0.122200  0.024700  1.0
  O  O2146  1  0.524700  0.432500  0.877800  1.0
  O  O2147  1  0.475300  0.932500  0.622200  1.0
  O  O2148  1  0.024700  0.067500  0.122200  1.0
  O  O2149  1  0.024700  0.432500  0.622200  1.0
  O  O2150  1  0.622200  0.024700  0.432500  1.0
  O  O2151  1  0.432500  0.622200  0.024700  1.0
  O  O2152  1  0.067500  0.377800  0.524700  1.0
  O  O2153  1  0.122200  0.475300  0.567500  1.0
  O  O2154  1  0.567500  0.122200  0.475300  1.0
  O  O2155  1  0.877800  0.975300  0.932500  1.0
  O  O2156  1  0.377800  0.524700  0.067500  1.0
  O  O2157  1  0.932500  0.877800  0.975300  1.0
  O  O2158  1  0.475300  0.567500  0.122200  1.0
  O  O2159  1  0.524700  0.067500  0.377800  1.0
  O  O2160  1  0.975300  0.932500  0.877800  1.0
  O  O2161  1  0.836100  0.674700  0.031100  1.0
  O  O2162  1  0.031100  0.836100  0.674700  1.0
  O  O2163  1  0.674700  0.031100  0.836100  1.0
  O  O2164  1  0.825300  0.968900  0.336100  1.0
  O  O2165  1  0.531100  0.663900  0.325300  1.0
  O  O2166  1  0.325300  0.531100  0.663900  1.0
  O  O2167  1  0.468900  0.163900  0.174700  1.0
  O  O2168  1  0.968900  0.336100  0.825300  1.0
  O  O2169  1  0.174700  0.468900  0.163900  1.0
  O  O2170  1  0.663900  0.325300  0.531100  1.0
  O  O2171  1  0.336100  0.825300  0.968900  1.0
  O  O2172  1  0.163900  0.174700  0.468900  1.0
  O  O2173  1  0.163900  0.325300  0.968900  1.0
  O  O2174  1  0.968900  0.163900  0.325300  1.0
  O  O2175  1  0.325300  0.968900  0.163900  1.0
  O  O2176  1  0.174700  0.031100  0.663900  1.0
  O  O2177  1  0.468900  0.336100  0.674700  1.0
  O  O2178  1  0.674700  0.468900  0.336100  1.0
  O  O2179  1  0.531100  0.836100  0.825300  1.0
  O  O2180  1  0.031100  0.663900  0.174700  1.0
  O  O2181  1  0.825300  0.531100  0.836100  1.0
  O  O2182  1  0.336100  0.674700  0.468900  1.0
  O  O2183  1  0.663900  0.174700  0.031100  1.0
  O  O2184  1  0.836100  0.825300  0.531100  1.0
  O  O2185  1  0.803500  0.727100  0.055300  1.0
  O  O2186  1  0.055300  0.803500  0.727100  1.0
  O  O2187  1  0.727100  0.055300  0.803500  1.0
  O  O2188  1  0.772900  0.944700  0.303500  1.0
  O  O2189  1  0.555300  0.696500  0.272900  1.0
  O  O2190  1  0.272900  0.555300  0.696500  1.0
  O  O2191  1  0.444700  0.196500  0.227100  1.0
  O  O2192  1  0.944700  0.303500  0.772900  1.0
  O  O2193  1  0.227100  0.444700  0.196500  1.0
  O  O2194  1  0.696500  0.272900  0.555300  1.0
  O  O2195  1  0.303500  0.772900  0.944700  1.0
  O  O2196  1  0.196500  0.227100  0.444700  1.0
  O  O2197  1  0.196500  0.272900  0.944700  1.0
  O  O2198  1  0.944700  0.196500  0.272900  1.0
  O  O2199  1  0.272900  0.944700  0.196500  1.0
  O  O2200  1  0.227100  0.055300  0.696500  1.0
  O  O2201  1  0.444700  0.303500  0.727100  1.0
  O  O2202  1  0.727100  0.444700  0.303500  1.0
  O  O2203  1  0.555300  0.803500  0.772900  1.0
  O  O2204  1  0.055300  0.696500  0.227100  1.0
  O  O2205  1  0.772900  0.555300  0.803500  1.0
  O  O2206  1  0.303500  0.727100  0.444700  1.0
  O  O2207  1  0.696500  0.227100  0.055300  1.0
  O  O2208  1  0.803500  0.772900  0.555300  1.0
  O  O2209  1  0.879500  0.755000  0.126000  1.0
  O  O2210  1  0.126000  0.879500  0.755000  1.0
  O  O2211  1  0.755000  0.126000  0.879500  1.0
  O  O2212  1  0.745000  0.874000  0.379500  1.0
  O  O2213  1  0.626000  0.620500  0.245000  1.0
  O  O2214  1  0.245000  0.626000  0.620500  1.0
  O  O2215  1  0.374000  0.120500  0.255000  1.0
  O  O2216  1  0.874000  0.379500  0.745000  1.0
  O  O2217  1  0.255000  0.374000  0.120500  1.0
  O  O2218  1  0.620500  0.245000  0.626000  1.0
  O  O2219  1  0.379500  0.745000  0.874000  1.0
  O  O2220  1  0.120500  0.255000  0.374000  1.0
  O  O2221  1  0.120500  0.245000  0.874000  1.0
  O  O2222  1  0.874000  0.120500  0.245000  1.0
  O  O2223  1  0.245000  0.874000  0.120500  1.0
  O  O2224  1  0.255000  0.126000  0.620500  1.0
  O  O2225  1  0.374000  0.379500  0.755000  1.0
  O  O2226  1  0.755000  0.374000  0.379500  1.0
  O  O2227  1  0.626000  0.879500  0.745000  1.0
  O  O2228  1  0.126000  0.620500  0.255000  1.0
  O  O2229  1  0.745000  0.626000  0.879500  1.0
  O  O2230  1  0.379500  0.755000  0.374000  1.0
  O  O2231  1  0.620500  0.255000  0.126000  1.0
  O  O2232  1  0.879500  0.745000  0.626000  1.0
  O  O2233  1  0.911600  0.701100  0.106900  1.0
  O  O2234  1  0.106900  0.911600  0.701100  1.0
  O  O2235  1  0.701100  0.106900  0.911600  1.0
  O  O2236  1  0.798900  0.893100  0.411600  1.0
  O  O2237  1  0.606900  0.588400  0.298900  1.0
  O  O2238  1  0.298900  0.606900  0.588400  1.0
  O  O2239  1  0.393100  0.088400  0.201100  1.0
  O  O2240  1  0.893100  0.411600  0.798900  1.0
  O  O2241  1  0.201100  0.393100  0.088400  1.0
  O  O2242  1  0.588400  0.298900  0.606900  1.0
  O  O2243  1  0.411600  0.798900  0.893100  1.0
  O  O2244  1  0.088400  0.201100  0.393100  1.0
  O  O2245  1  0.088400  0.298900  0.893100  1.0
  O  O2246  1  0.893100  0.088400  0.298900  1.0
  O  O2247  1  0.298900  0.893100  0.088400  1.0
  O  O2248  1  0.201100  0.106900  0.588400  1.0
  O  O2249  1  0.393100  0.411600  0.701100  1.0
  O  O2250  1  0.701100  0.393100  0.411600  1.0
  O  O2251  1  0.606900  0.911600  0.798900  1.0
  O  O2252  1  0.106900  0.588400  0.201100  1.0
  O  O2253  1  0.798900  0.606900  0.911600  1.0
  O  O2254  1  0.411600  0.701100  0.393100  1.0
  O  O2255  1  0.588400  0.201100  0.106900  1.0
  O  O2256  1  0.911600  0.798900  0.606900  1.0
  O  O2257  1  0.689800  0.731300  0.966400  1.0
  O  O2258  1  0.966400  0.689800  0.731300  1.0
  O  O2259  1  0.731300  0.966400  0.689800  1.0
  O  O2260  1  0.768700  0.033600  0.189800  1.0
  O  O2261  1  0.466400  0.810200  0.268700  1.0
  O  O2262  1  0.268700  0.466400  0.810200  1.0
  O  O2263  1  0.533600  0.310200  0.231300  1.0
  O  O2264  1  0.033600  0.189800  0.768700  1.0
  O  O2265  1  0.231300  0.533600  0.310200  1.0
  O  O2266  1  0.810200  0.268700  0.466400  1.0
  O  O2267  1  0.189800  0.768700  0.033600  1.0
  O  O2268  1  0.310200  0.231300  0.533600  1.0
  O  O2269  1  0.310200  0.268700  0.033600  1.0
  O  O2270  1  0.033600  0.310200  0.268700  1.0
  O  O2271  1  0.268700  0.033600  0.310200  1.0
  O  O2272  1  0.231300  0.966400  0.810200  1.0
  O  O2273  1  0.533600  0.189800  0.731300  1.0
  O  O2274  1  0.731300  0.533600  0.189800  1.0
  O  O2275  1  0.466400  0.689800  0.768700  1.0
  O  O2276  1  0.966400  0.810200  0.231300  1.0
  O  O2277  1  0.768700  0.466400  0.689800  1.0
  O  O2278  1  0.189800  0.731300  0.533600  1.0
  O  O2279  1  0.810200  0.231300  0.966400  1.0
  O  O2280  1  0.689800  0.768700  0.466400  1.0
  O  O2281  1  0.833200  0.464400  0.173500  1.0
  O  O2282  1  0.173500  0.833200  0.464400  1.0
  O  O2283  1  0.464400  0.173500  0.833200  1.0
  O  O2284  1  0.035600  0.826500  0.333200  1.0
  O  O2285  1  0.673500  0.666800  0.535600  1.0
  O  O2286  1  0.535600  0.673500  0.666800  1.0
  O  O2287  1  0.326500  0.166800  0.964400  1.0
  O  O2288  1  0.826500  0.333200  0.035600  1.0
  O  O2289  1  0.964400  0.326500  0.166800  1.0
  O  O2290  1  0.666800  0.535600  0.673500  1.0
  O  O2291  1  0.333200  0.035600  0.826500  1.0
  O  O2292  1  0.166800  0.964400  0.326500  1.0
  O  O2293  1  0.166800  0.535600  0.826500  1.0
  O  O2294  1  0.826500  0.166800  0.535600  1.0
  O  O2295  1  0.535600  0.826500  0.166800  1.0
  O  O2296  1  0.964400  0.173500  0.666800  1.0
  O  O2297  1  0.326500  0.333200  0.464400  1.0
  O  O2298  1  0.464400  0.326500  0.333200  1.0
  O  O2299  1  0.673500  0.833200  0.035600  1.0
  O  O2300  1  0.173500  0.666800  0.964400  1.0
  O  O2301  1  0.035600  0.673500  0.833200  1.0
  O  O2302  1  0.333200  0.464400  0.326500  1.0
  O  O2303  1  0.666800  0.964400  0.173500  1.0
  O  O2304  1  0.833200  0.035600  0.673500  1.0
  O  O2305  1  0.798500  0.460800  0.229400  1.0
  O  O2306  1  0.229400  0.798500  0.460800  1.0
  O  O2307  1  0.460800  0.229400  0.798500  1.0
  O  O2308  1  0.039200  0.770600  0.298500  1.0
  O  O2309  1  0.729400  0.701500  0.539200  1.0
  O  O2310  1  0.539200  0.729400  0.701500  1.0
  O  O2311  1  0.270600  0.201500  0.960800  1.0
  O  O2312  1  0.770600  0.298500  0.039200  1.0
  O  O2313  1  0.960800  0.270600  0.201500  1.0
  O  O2314  1  0.701500  0.539200  0.729400  1.0
  O  O2315  1  0.298500  0.039200  0.770600  1.0
  O  O2316  1  0.201500  0.960800  0.270600  1.0
  O  O2317  1  0.201500  0.539200  0.770600  1.0
  O  O2318  1  0.770600  0.201500  0.539200  1.0
  O  O2319  1  0.539200  0.770600  0.201500  1.0
  O  O2320  1  0.960800  0.229400  0.701500  1.0
  O  O2321  1  0.270600  0.298500  0.460800  1.0
  O  O2322  1  0.460800  0.270600  0.298500  1.0
  O  O2323  1  0.729400  0.798500  0.039200  1.0
  O  O2324  1  0.229400  0.701500  0.960800  1.0
  O  O2325  1  0.039200  0.729400  0.798500  1.0
  O  O2326  1  0.298500  0.460800  0.270600  1.0
  O  O2327  1  0.701500  0.960800  0.229400  1.0
  O  O2328  1  0.798500  0.039200  0.729400  1.0
  O  O2329  1  0.896200  0.439400  0.213100  1.0
  O  O2330  1  0.213100  0.896200  0.439400  1.0
  O  O2331  1  0.439400  0.213100  0.896200  1.0
  O  O2332  1  0.060600  0.786900  0.396200  1.0
  O  O2333  1  0.713100  0.603800  0.560600  1.0
  O  O2334  1  0.560600  0.713100  0.603800  1.0
  O  O2335  1  0.286900  0.103800  0.939400  1.0
  O  O2336  1  0.786900  0.396200  0.060600  1.0
  O  O2337  1  0.939400  0.286900  0.103800  1.0
  O  O2338  1  0.603800  0.560600  0.713100  1.0
  O  O2339  1  0.396200  0.060600  0.786900  1.0
  O  O2340  1  0.103800  0.939400  0.286900  1.0
  O  O2341  1  0.103800  0.560600  0.786900  1.0
  O  O2342  1  0.786900  0.103800  0.560600  1.0
  O  O2343  1  0.560600  0.786900  0.103800  1.0
  O  O2344  1  0.939400  0.213100  0.603800  1.0
  O  O2345  1  0.286900  0.396200  0.439400  1.0
  O  O2346  1  0.439400  0.286900  0.396200  1.0
  O  O2347  1  0.713100  0.896200  0.060600  1.0
  O  O2348  1  0.213100  0.603800  0.939400  1.0
  O  O2349  1  0.060600  0.713100  0.896200  1.0
  O  O2350  1  0.396200  0.439400  0.286900  1.0
  O  O2351  1  0.603800  0.939400  0.213100  1.0
  O  O2352  1  0.896200  0.060600  0.713100  1.0
  O  O2353  1  0.859800  0.438100  0.268900  1.0
  O  O2354  1  0.268900  0.859800  0.438100  1.0
  O  O2355  1  0.438100  0.268900  0.859800  1.0
  O  O2356  1  0.061900  0.731100  0.359800  1.0
  O  O2357  1  0.768900  0.640200  0.561900  1.0
  O  O2358  1  0.561900  0.768900  0.640200  1.0
  O  O2359  1  0.231100  0.140200  0.938100  1.0
  O  O2360  1  0.731100  0.359800  0.061900  1.0
  O  O2361  1  0.938100  0.231100  0.140200  1.0
  O  O2362  1  0.640200  0.561900  0.768900  1.0
  O  O2363  1  0.359800  0.061900  0.731100  1.0
  O  O2364  1  0.140200  0.938100  0.231100  1.0
  O  O2365  1  0.140200  0.561900  0.731100  1.0
  O  O2366  1  0.731100  0.140200  0.561900  1.0
  O  O2367  1  0.561900  0.731100  0.140200  1.0
  O  O2368  1  0.938100  0.268900  0.640200  1.0
  O  O2369  1  0.231100  0.359800  0.438100  1.0
  O  O2370  1  0.438100  0.231100  0.359800  1.0
  O  O2371  1  0.768900  0.859800  0.061900  1.0
  O  O2372  1  0.268900  0.640200  0.938100  1.0
  O  O2373  1  0.061900  0.768900  0.859800  1.0
  O  O2374  1  0.359800  0.438100  0.231100  1.0
  O  O2375  1  0.640200  0.938100  0.268900  1.0
  O  O2376  1  0.859800  0.061900  0.768900  1.0
  O  O2377  1  0.679000  0.381500  0.193800  1.0
  O  O2378  1  0.193800  0.679000  0.381500  1.0
  O  O2379  1  0.381500  0.193800  0.679000  1.0
  O  O2380  1  0.118500  0.806200  0.179000  1.0
  O  O2381  1  0.693800  0.821000  0.618500  1.0
  O  O2382  1  0.618500  0.693800  0.821000  1.0
  O  O2383  1  0.306200  0.321000  0.881500  1.0
  O  O2384  1  0.806200  0.179000  0.118500  1.0
  O  O2385  1  0.881500  0.306200  0.321000  1.0
  O  O2386  1  0.821000  0.618500  0.693800  1.0
  O  O2387  1  0.179000  0.118500  0.806200  1.0
  O  O2388  1  0.321000  0.881500  0.306200  1.0
  O  O2389  1  0.321000  0.618500  0.806200  1.0
  O  O2390  1  0.806200  0.321000  0.618500  1.0
  O  O2391  1  0.618500  0.806200  0.321000  1.0
  O  O2392  1  0.881500  0.193800  0.821000  1.0
  O  O2393  1  0.306200  0.179000  0.381500  1.0
  O  O2394  1  0.381500  0.306200  0.179000  1.0
  O  O2395  1  0.693800  0.679000  0.118500  1.0
  O  O2396  1  0.193800  0.821000  0.881500  1.0
  O  O2397  1  0.118500  0.693800  0.679000  1.0
  O  O2398  1  0.179000  0.381500  0.306200  1.0
  O  O2399  1  0.821000  0.881500  0.193800  1.0
  O  O2400  1  0.679000  0.118500  0.693800  1.0
  O  O2401  1  0.912500  0.490000  0.138400  1.0
  O  O2402  1  0.138400  0.912500  0.490000  1.0
  O  O2403  1  0.490000  0.138400  0.912500  1.0
  O  O2404  1  0.010000  0.861600  0.412500  1.0
  O  O2405  1  0.638400  0.587500  0.510000  1.0
  O  O2406  1  0.510000  0.638400  0.587500  1.0
  O  O2407  1  0.361600  0.087500  0.990000  1.0
  O  O2408  1  0.861600  0.412500  0.010000  1.0
  O  O2409  1  0.990000  0.361600  0.087500  1.0
  O  O2410  1  0.587500  0.510000  0.638400  1.0
  O  O2411  1  0.412500  0.010000  0.861600  1.0
  O  O2412  1  0.087500  0.990000  0.361600  1.0
  O  O2413  1  0.087500  0.510000  0.861600  1.0
  O  O2414  1  0.861600  0.087500  0.510000  1.0
  O  O2415  1  0.510000  0.861600  0.087500  1.0
  O  O2416  1  0.990000  0.138400  0.587500  1.0
  O  O2417  1  0.361600  0.412500  0.490000  1.0
  O  O2418  1  0.490000  0.361600  0.412500  1.0
  O  O2419  1  0.638400  0.912500  0.010000  1.0
  O  O2420  1  0.138400  0.587500  0.990000  1.0
  O  O2421  1  0.010000  0.638400  0.912500  1.0
  O  O2422  1  0.412500  0.490000  0.361600  1.0
  O  O2423  1  0.587500  0.990000  0.138400  1.0
  O  O2424  1  0.912500  0.010000  0.638400  1.0
  O  O2425  1  0.802900  0.494800  0.311900  1.0
  O  O2426  1  0.311900  0.802900  0.494800  1.0
  O  O2427  1  0.494800  0.311900  0.802900  1.0
  O  O2428  1  0.005200  0.688100  0.302900  1.0
  O  O2429  1  0.811900  0.697100  0.505200  1.0
  O  O2430  1  0.505200  0.811900  0.697100  1.0
  O  O2431  1  0.188100  0.197100  0.994800  1.0
  O  O2432  1  0.688100  0.302900  0.005200  1.0
  O  O2433  1  0.994800  0.188100  0.197100  1.0
  O  O2434  1  0.697100  0.505200  0.811900  1.0
  O  O2435  1  0.302900  0.005200  0.688100  1.0
  O  O2436  1  0.197100  0.994800  0.188100  1.0
  O  O2437  1  0.197100  0.505200  0.688100  1.0
  O  O2438  1  0.688100  0.197100  0.505200  1.0
  O  O2439  1  0.505200  0.688100  0.197100  1.0
  O  O2440  1  0.994800  0.311900  0.697100  1.0
  O  O2441  1  0.188100  0.302900  0.494800  1.0
  O  O2442  1  0.494800  0.188100  0.302900  1.0
  O  O2443  1  0.811900  0.802900  0.005200  1.0
  O  O2444  1  0.311900  0.697100  0.994800  1.0
  O  O2445  1  0.005200  0.811900  0.802900  1.0
  O  O2446  1  0.302900  0.494800  0.188100  1.0
  O  O2447  1  0.697100  0.994800  0.311900  1.0
  O  O2448  1  0.802900  0.005200  0.811900  1.0
  O  O2449  1  0.914000  0.631300  0.051400  1.0
  O  O2450  1  0.051400  0.914000  0.631300  1.0
  O  O2451  1  0.631300  0.051400  0.914000  1.0
  O  O2452  1  0.868700  0.948600  0.414000  1.0
  O  O2453  1  0.551400  0.586000  0.368700  1.0
  O  O2454  1  0.368700  0.551400  0.586000  1.0
  O  O2455  1  0.448600  0.086000  0.131300  1.0
  O  O2456  1  0.948600  0.414000  0.868700  1.0
  O  O2457  1  0.131300  0.448600  0.086000  1.0
  O  O2458  1  0.586000  0.368700  0.551400  1.0
  O  O2459  1  0.414000  0.868700  0.948600  1.0
  O  O2460  1  0.086000  0.131300  0.448600  1.0
  O  O2461  1  0.086000  0.368700  0.948600  1.0
  O  O2462  1  0.948600  0.086000  0.368700  1.0
  O  O2463  1  0.368700  0.948600  0.086000  1.0
  O  O2464  1  0.131300  0.051400  0.586000  1.0
  O  O2465  1  0.448600  0.414000  0.631300  1.0
  O  O2466  1  0.631300  0.448600  0.414000  1.0
  O  O2467  1  0.551400  0.914000  0.868700  1.0
  O  O2468  1  0.051400  0.586000  0.131300  1.0
  O  O2469  1  0.868700  0.551400  0.914000  1.0
  O  O2470  1  0.414000  0.631300  0.448600  1.0
  O  O2471  1  0.586000  0.131300  0.051400  1.0
  O  O2472  1  0.914000  0.868700  0.551400  1.0
  O  O2473  1  0.801600  0.792800  0.105800  1.0
  O  O2474  1  0.105800  0.801600  0.792800  1.0
  O  O2475  1  0.792800  0.105800  0.801600  1.0
  O  O2476  1  0.707200  0.894200  0.301600  1.0
  O  O2477  1  0.605800  0.698400  0.207200  1.0
  O  O2478  1  0.207200  0.605800  0.698400  1.0
  O  O2479  1  0.394200  0.198400  0.292800  1.0
  O  O2480  1  0.894200  0.301600  0.707200  1.0
  O  O2481  1  0.292800  0.394200  0.198400  1.0
  O  O2482  1  0.698400  0.207200  0.605800  1.0
  O  O2483  1  0.301600  0.707200  0.894200  1.0
  O  O2484  1  0.198400  0.292800  0.394200  1.0
  O  O2485  1  0.198400  0.207200  0.894200  1.0
  O  O2486  1  0.894200  0.198400  0.207200  1.0
  O  O2487  1  0.207200  0.894200  0.198400  1.0
  O  O2488  1  0.292800  0.105800  0.698400  1.0
  O  O2489  1  0.394200  0.301600  0.792800  1.0
  O  O2490  1  0.792800  0.394200  0.301600  1.0
  O  O2491  1  0.605800  0.801600  0.707200  1.0
  O  O2492  1  0.105800  0.698400  0.292800  1.0
  O  O2493  1  0.707200  0.605800  0.801600  1.0
  O  O2494  1  0.301600  0.792800  0.394200  1.0
  O  O2495  1  0.698400  0.292800  0.105800  1.0
  O  O2496  1  0.801600  0.707200  0.605800  1.0
