
#######################################################################
#
#                 Cambridge Crystallographic Data Centre
#                                CCDC 
#
#######################################################################
#
# If this CIF has been generated from an entry in the Cambridge 
# Structural Database, then it will include bibliographic, chemical, 
# crystal, experimental, refinement or atomic coordinate data resulting 
# from the CCDC's data processing and validation procedures.
#
#######################################################################

data_XAVNIU02
_chemical_formula_moiety         
'C84 H92 B2 Co2 Fe2 N26 2+,0.67(C6 H6 O3),2(F6 P1 1-),1.33(C2 H3 N1),2.67(H2 O1)'
_chemical_name_systematic        
"tetrakis(\m-cyano)-dicyano-tetrakis(4,4'-dimethyl-2,2'-bipyridine)-bis(hydrogen tris(3,5-dimethylpyrazolyl)borate)-di-cobalt-di-iron bis(hexafluorophosphate) benzene-1,3,5-triol acetonitrile unknown solvate hydrate"
_symmetry_cell_setting           monoclinic
_symmetry_space_group_name_H-M   'C 2/c'
_symmetry_Int_Tables_number      15
_space_group_name_Hall           '-C 2yn'
loop_
_symmetry_equiv_pos_site_id
_symmetry_equiv_pos_as_xyz
1 x,y,z
2 -x,y,1/2-z
3 1/2+x,1/2+y,z
4 1/2-x,1/2+y,1/2-z
5 -x,-y,-z
6 x,-y,1/2+z
7 1/2-x,1/2-y,-z
8 1/2+x,1/2-y,1/2+z
_cell_length_a                   26.552(5)
_cell_length_b                   56.783(10)
_cell_length_c                   25.870(5)
_cell_angle_alpha                90
_cell_angle_beta                 120.093(2)
_cell_angle_gamma                90
_cell_volume                     33747
_exptl_crystal_colour            red
_exptl_crystal_description       platy
_cell_formula_units_Z            12
loop_
_atom_site_label
_atom_site_type_symbol
_atom_site_fract_x
_atom_site_fract_y
_atom_site_fract_z
Fe1 Fe 0.95788(5) 0.38252(2) 0.09941(5)
Co1 Co 1.0000 0.32227(3) 0.2500
Co2 Co 1.0000 0.44418(3) 0.2500
C1 C 0.9785(4) 0.40683(14) 0.1564(4)
C2 C 0.9683(4) 0.36042(15) 0.1574(4)
C3 C 0.8806(4) 0.38733(15) 0.0816(4)
C4 C 0.8962(4) 0.33716(19) 0.0248(4)
C5 C 0.8995(6) 0.3228(2) -0.0184(5)
H1 H 0.8784 0.3087 -0.0362
C6 C 0.9385(6) 0.3333(2) -0.0286(5)
C7 C 0.9249(4) 0.42577(19) 0.0125(4)
C8 C 0.9264(5) 0.4310(2) -0.0398(5)
H2 H 0.9117 0.4447 -0.0636
C9 C 0.9527(5) 0.4126(2) -0.0496(5)
C10 C 1.0929(4) 0.37925(15) 0.1676(4)
C11 C 1.1372(4) 0.3755(2) 0.1522(5)
H3 H 1.1781 0.3751 0.1788
C12 C 1.1087(4) 0.3728(2) 0.0911(5)
C13 C 1.0716(6) 0.2859(2) 0.3369(5)
H4 H 1.0974 0.2865 0.3215
C14 C 1.0840(7) 0.2715(2) 0.3843(6)
H5 H 1.1186 0.2623 0.4008
C15 C 1.0499(9) 0.2695(3) 0.4087(7)
C16 C 1.0003(8) 0.2825(2) 0.3829(7)
H6 H 0.9736 0.2813 0.3971
C17 C 0.9889(7) 0.29731(18) 0.3360(6)
C18 C 0.9338(6) 0.31007(17) 0.3005(6)
C19 C 0.8877(9) 0.3094(2) 0.3124(8)
H7 H 0.8921 0.3020 0.3474
C20 C 0.8336(8) 0.3203(2) 0.2703(10)
C21 C 0.8295(6) 0.33117(19) 0.2197(8)
H8 H 0.7935 0.3377 0.1902
C22 C 0.8769(5) 0.33236(17) 0.2126(6)
H9 H 0.8743 0.3409 0.1797
C23 C 1.0418(6) 0.47094(18) 0.1898(5)
C24 C 1.0441(6) 0.4862(2) 0.1526(7)
H10 H 1.0802 0.4887 0.1540
C25 C 0.9967(8) 0.4986(2) 0.1124(8)
C26 C 0.9467(7) 0.4972(2) 0.1188(7)
H11 H 0.9134 0.5067 0.0954
C27 C 0.9485(6) 0.48105(17) 0.1617(5)
H12 H 0.9153 0.4798 0.1663
C28 C 1.0921(5) 0.45733(17) 0.2341(5)
C29 C 1.1475(5) 0.4566(2) 0.2406(6)
H13 H 1.1546 0.4648 0.2129
C30 C 1.1927(5) 0.44399(18) 0.2872(6)
C31 C 1.1802(5) 0.43281(16) 0.3258(5)
H14 H 1.2104 0.4248 0.3593
C32 C 1.1238(5) 0.43277(17) 0.3172(5)
H15 H 1.1160 0.4238 0.3434
C33 C 0.8576(5) 0.33284(19) 0.0494(6)
H16 H 0.8261 0.3445 0.0333
H17 H 0.8799 0.3342 0.0930
H18 H 0.8410 0.3170 0.0383
C34 C 0.9590(7) 0.3274(3) -0.0734(6)
H19 H 0.9395 0.3378 -0.1081
H20 H 0.9493 0.3110 -0.0864
H21 H 1.0012 0.3296 -0.0541
C35 C 0.9025(5) 0.44070(17) 0.0439(5)
H22 H 0.8736 0.4318 0.0490
H23 H 0.8842 0.4549 0.0201
H24 H 0.9348 0.4453 0.0831
C36 C 0.9619(8) 0.4083(3) -0.1006(6)
H25 H 0.9453 0.3930 -0.1184
H26 H 1.0037 0.4083 -0.0865
H27 H 0.9428 0.4207 -0.1305
C37 C 1.1019(4) 0.38519(16) 0.2266(4)
H28 H 1.0926 0.4018 0.2274
H29 H 1.1427 0.3823 0.2569
H30 H 1.0766 0.3754 0.2352
C38 C 1.1341(5) 0.3677(3) 0.0521(6)
H31 H 1.1764 0.3698 0.0751
H32 H 1.1174 0.3785 0.0181
H33 H 1.1250 0.3514 0.0376
C39 C 1.0624(9) 0.2541(3) 0.4620(8)
H34 H 1.1044 0.2515 0.4864
H35 H 1.0424 0.2390 0.4478
H36 H 1.0484 0.2620 0.4861
C40 C 0.7849(9) 0.3195(2) 0.2854(11)
H37 H 0.7489 0.3257 0.2517
H38 H 0.7958 0.3290 0.3210
H39 H 0.7786 0.3031 0.2931
C41 C 0.9945(9) 0.5172(3) 0.0673(9)
H40 H 0.9780 0.5101 0.0276
H41 H 1.0340 0.5228 0.0802
H42 H 0.9702 0.5305 0.0655
C42 C 1.2512(6) 0.4421(2) 0.2918(7)
H43 H 1.2817 0.4420 0.3340
H44 H 1.2570 0.4555 0.2717
H45 H 1.2531 0.4274 0.2728
N1 N 0.9280(4) 0.32167(13) 0.2513(4)
N2 N 1.0805(4) 0.44497(13) 0.2729(4)
N3 N 0.9928(4) 0.46812(13) 0.1944(4)
N4 N 0.9738(3) 0.34594(12) 0.1909(3)
N5 N 0.9875(3) 0.42104(12) 0.1917(3)
N6 N 0.8334(3) 0.39083(14) 0.0739(3)
N7 N 0.9486(3) 0.40453(14) 0.0332(3)
N8 N 0.9670(3) 0.39678(15) -0.0043(3)
N9 N 0.9322(3) 0.35583(13) 0.0389(3)
N10 N 0.9594(3) 0.35380(16) 0.0050(3)
N11 N 1.0410(3) 0.37815(12) 0.1183(3)
N12 N 1.0516(3) 0.37380(15) 0.0721(4)
N13 N 1.0238(4) 0.29896(12) 0.3124(4)
B1 B 0.9989(5) 0.3730(2) 0.0089(5)
H46 H 1.0121 0.3702 -0.0206
Fe1A Fe 1.04212(5) 0.38252(2) 0.40059(5)
C1A C 1.0215(4) 0.40683(14) 0.3436(4)
C2A C 1.0317(4) 0.36042(15) 0.3426(4)
C3A C 1.1194(4) 0.38733(15) 0.4184(4)
C4A C 1.1038(4) 0.33716(19) 0.4752(4)
C5A C 1.1005(6) 0.3228(2) 0.5184(5)
H1A H 1.1216 0.3087 0.5362
C6A C 1.0615(6) 0.3333(2) 0.5286(5)
C7A C 1.0751(4) 0.42577(19) 0.4875(4)
C8A C 1.0736(5) 0.4310(2) 0.5398(5)
H2A H 1.0883 0.4447 0.5636
C9A C 1.0473(5) 0.4126(2) 0.5496(5)
C10A C 0.9071(4) 0.37925(15) 0.3324(4)
C11A C 0.8628(4) 0.3755(2) 0.3478(5)
H3A H 0.8219 0.3751 0.3212
C12A C 0.8913(4) 0.3728(2) 0.4089(5)
C13A C 0.9284(6) 0.2859(2) 0.1631(5)
H4A H 0.9026 0.2865 0.1785
C14A C 0.9160(7) 0.2715(2) 0.1157(6)
H5A H 0.8814 0.2623 0.0992
C15A C 0.9501(9) 0.2695(3) 0.0913(7)
C16A C 0.9997(8) 0.2825(2) 0.1171(7)
H6A H 1.0264 0.2813 0.1029
C17A C 1.0111(7) 0.29731(18) 0.1640(6)
C18A C 1.0662(6) 0.31007(17) 0.1995(6)
C19A C 1.1123(9) 0.3094(2) 0.1876(8)
H7A H 1.1079 0.3020 0.1526
C20A C 1.1664(8) 0.3203(2) 0.2297(10)
C21A C 1.1705(6) 0.33117(19) 0.2803(8)
H8A H 1.2065 0.3377 0.3098
C22A C 1.1231(5) 0.33236(17) 0.2874(6)
H9A H 1.1257 0.3409 0.3203
C23A C 0.9582(6) 0.47094(18) 0.3102(5)
C24A C 0.9559(6) 0.4862(2) 0.3474(7)
H10A H 0.9198 0.4887 0.3460
C25A C 1.0033(8) 0.4986(2) 0.3876(8)
C26A C 1.0533(7) 0.4972(2) 0.3812(7)
H11A H 1.0866 0.5067 0.4046
C27A C 1.0515(6) 0.48105(17) 0.3383(5)
H12A H 1.0847 0.4798 0.3337
C28A C 0.9079(5) 0.45733(17) 0.2659(5)
C29A C 0.8525(5) 0.4566(2) 0.2594(6)
H13A H 0.8454 0.4648 0.2871
C30A C 0.8073(5) 0.44399(18) 0.2128(6)
C31A C 0.8198(5) 0.43281(16) 0.1742(5)
H14A H 0.7896 0.4248 0.1407
C32A C 0.8762(5) 0.43277(17) 0.1828(5)
H15A H 0.8840 0.4238 0.1566
C33A C 1.1424(5) 0.33284(19) 0.4506(6)
H16A H 1.1739 0.3445 0.4667
H17A H 1.1201 0.3342 0.4070
H18A H 1.1590 0.3170 0.4617
C34A C 1.0410(7) 0.3274(3) 0.5734(6)
H19A H 1.0605 0.3378 0.6081
H20A H 1.0507 0.3110 0.5864
H21A H 0.9988 0.3296 0.5541
C35A C 1.0975(5) 0.44070(17) 0.4561(5)
H22A H 1.1264 0.4318 0.4510
H23A H 1.1158 0.4549 0.4799
H24A H 1.0652 0.4453 0.4169
C36A C 1.0381(8) 0.4083(3) 0.6006(6)
H25A H 1.0547 0.3930 0.6184
H26A H 0.9963 0.4083 0.5865
H27A H 1.0572 0.4207 0.6305
C37A C 0.8981(4) 0.38519(16) 0.2734(4)
H28A H 0.9074 0.4018 0.2726
H29A H 0.8573 0.3823 0.2431
H30A H 0.9234 0.3754 0.2648
C38A C 0.8659(5) 0.3677(3) 0.4479(6)
H31A H 0.8236 0.3698 0.4249
H32A H 0.8826 0.3785 0.4819
H33A H 0.8750 0.3514 0.4624
C39A C 0.9376(9) 0.2541(3) 0.0380(8)
H34A H 0.8956 0.2515 0.0136
H35A H 0.9576 0.2390 0.0522
H36A H 0.9516 0.2620 0.0139
C40A C 1.2151(9) 0.3195(2) 0.2146(11)
H37A H 1.2511 0.3257 0.2483
H38A H 1.2042 0.3290 0.1790
H39A H 1.2214 0.3031 0.2069
C41A C 1.0055(9) 0.5172(3) 0.4327(9)
H40A H 1.0220 0.5101 0.4724
H41A H 0.9660 0.5228 0.4198
H42A H 1.0298 0.5305 0.4345
C42A C 0.7488(6) 0.4421(2) 0.2082(7)
H43A H 0.7183 0.4420 0.1660
H44A H 0.7430 0.4555 0.2283
H45A H 0.7469 0.4274 0.2272
N1A N 1.0720(4) 0.32167(13) 0.2487(4)
N2A N 0.9195(4) 0.44497(13) 0.2271(4)
N3A N 1.0072(4) 0.46812(13) 0.3056(4)
N4A N 1.0262(3) 0.34594(12) 0.3091(3)
N5A N 1.0125(3) 0.42104(12) 0.3083(3)
N6A N 1.1666(3) 0.39083(14) 0.4261(3)
N7A N 1.0514(3) 0.40453(14) 0.4668(3)
N8A N 1.0330(3) 0.39678(15) 0.5043(3)
N9A N 1.0678(3) 0.35583(13) 0.4611(3)
N10A N 1.0406(3) 0.35380(16) 0.4950(3)
N11A N 0.9590(3) 0.37815(12) 0.3817(3)
N12A N 0.9484(3) 0.37380(15) 0.4279(4)
N13A N 0.9762(4) 0.29896(12) 0.1876(4)
B1A B 1.0011(5) 0.3730(2) 0.4911(5)
H46A H 0.9879 0.3702 0.5206
Fe2 Fe 0.34636(7) 0.36802(3) 0.12797(6)
Co3 Co 0.5000 0.30747(3) 0.2500
Co4 Co 0.5000 0.42704(4) 0.2500
C43 C 0.4044(5) 0.39057(18) 0.1729(4)
C44 C 0.4040(6) 0.3447(2) 0.1718(5)
C45 C 0.3283(5) 0.36594(19) 0.1907(5)
C46 C 0.2664(9) 0.3243(4) 0.0887(10)
C47 C 0.2217(9) 0.3143(4) 0.0473(9)
H47 H 0.2037 0.3000 0.0485
C48 C 0.2077(6) 0.3278(3) 0.0052(7)
C49 C 0.4157(6) 0.3691(3) 0.0617(5)
C50 C 0.4033(8) 0.3721(4) 0.0028(7)
H48 H 0.4305 0.3730 -0.0109
C51 C 0.3417(10) 0.3737(4) -0.0324(8)
C52 C 0.2182(8) 0.4131(5) 0.0110(9)
C53 C 0.2294(9) 0.4249(4) 0.0595(11)
H49 H 0.2112 0.4392 0.0602
C54 C 0.2712(6) 0.4134(4) 0.1083(8)
N14 N 0.5533(5) 0.45119(18) 0.2903(5)
C55 C 0.5926(6) 0.4626(2) 0.2783(6)
H50 H 0.5907 0.4604 0.2409
C56 C 0.6349(6) 0.4773(3) 0.3209(8)
H51 H 0.6617 0.4851 0.3127
C57 C 0.6378(5) 0.4806(2) 0.3756(7)
C58 C 0.5985(6) 0.4692(2) 0.3876(5)
H52 H 0.6005 0.4715 0.4250
C59 C 0.5563(4) 0.45449(18) 0.3450(6)
C60 C 0.6839(14) 0.4970(6) 0.4200(13)
H53 H 0.6664 0.5122 0.4193
H54 H 0.7143 0.4991 0.4095
H55 H 0.7011 0.4901 0.4601
N15 N 0.5551(5) 0.28217(15) 0.2992(5)
C61 C 0.5880(6) 0.26853(17) 0.2824(5)
H56 H 0.5819 0.2697 0.2430
C62 C 0.6298(6) 0.2532(2) 0.3232(7)
H57 H 0.6522 0.2438 0.3117
C63 C 0.6387(6) 0.2514(2) 0.3808(6)
C64 C 0.6058(6) 0.2651(2) 0.3976(4)
H58 H 0.6119 0.2639 0.4370
C65 C 0.5640(5) 0.28045(18) 0.3568(5)
C66 C 0.5238(9) 0.2933(2) 0.3669(9)
C67 C 0.5243(8) 0.2934(3) 0.4204(8)
H59 H 0.5542 0.2853 0.4539
C68 C 0.4811(9) 0.3054(3) 0.4257(8)
C69 C 0.4401(7) 0.3172(2) 0.3750(7)
H60 H 0.4083 0.3249 0.3748
C70 C 0.4456(6) 0.31766(17) 0.3246(6)
H61 H 0.4189 0.3270 0.2917
N16 N 0.4756(4) 0.42765(14) 0.3093(4)
C71 C 0.5136(3) 0.44061(16) 0.3595(5)
C72 C 0.5052(5) 0.44170(17) 0.4084(4)
H62 H 0.5313 0.4506 0.4427
C73 C 0.4588(6) 0.42985(17) 0.4070(4)
C74 C 0.4208(4) 0.41689(15) 0.3568(4)
H63 H 0.3890 0.4088 0.3559
C75 C 0.4292(3) 0.41580(13) 0.3080(3)
H64 H 0.4031 0.4069 0.2737
C76 C 0.4498(13) 0.4294(3) 0.4592(8)
H65 H 0.4146 0.4384 0.4498
H66 H 0.4835 0.4366 0.4937
H67 H 0.4454 0.4131 0.4686
C77 C 0.2952(9) 0.3117(3) 0.1445(10)
H68 H 0.3306 0.3043 0.1494
H69 H 0.2691 0.2995 0.1447
H70 H 0.3054 0.3227 0.1775
C78 C 0.1566(8) 0.3305(5) -0.0603(10)
H71 H 0.1334 0.3160 -0.0726
H72 H 0.1724 0.3333 -0.0869
H73 H 0.1320 0.3437 -0.0627
C79 C 0.4718(5) 0.36778(19) 0.1117(5)
H74 H 0.4799 0.3515 0.1265
H75 H 0.4744 0.3782 0.1431
H76 H 0.5004 0.3727 0.1004
C80 C 0.3029(11) 0.3751(5) -0.0977(9)
H77 H 0.2672 0.3835 -0.1066
H78 H 0.2931 0.3592 -0.1144
H79 H 0.3227 0.3836 -0.1155
C81 C 0.2943(6) 0.4209(3) 0.1693(8)
H80 H 0.3369 0.4215 0.1893
H81 H 0.2824 0.4098 0.1902
H82 H 0.2792 0.4367 0.1698
C82 C 0.1748(9) 0.4165(6) -0.0588(10)
H83 H 0.1851 0.4308 -0.0724
H84 H 0.1348 0.4178 -0.0664
H85 H 0.1776 0.4029 -0.0804
C83 C 0.4784(8) 0.3058(3) 0.4831(8)
H86 H 0.4990 0.2921 0.5075
H87 H 0.4377 0.3054 0.4733
H88 H 0.4969 0.3203 0.5054
N17 N 0.4404(4) 0.40394(16) 0.2033(4)
N18 N 0.4394(5) 0.33117(15) 0.2032(5)
N19 N 0.3197(4) 0.36469(17) 0.2306(4)
N20 N 0.2836(5) 0.3442(2) 0.0773(5)
N21 N 0.2478(5) 0.3494(3) 0.0211(6)
N22 N 0.3660(4) 0.3693(2) 0.0632(4)
N23 N 0.3211(5) 0.3706(3) 0.0063(5)
N24 N 0.2864(4) 0.3934(2) 0.0882(4)
N25 N 0.2509(5) 0.3932(3) 0.0254(5)
N26 N 0.4857(6) 0.30597(15) 0.3196(6)
B2 B 0.2586(9) 0.3691(5) -0.0046(8)
H89 H 0.2304 0.3693 -0.0486
C84 C 0.6972(10) 0.2457(6) 0.4419(10)
H90 H 0.7268 0.2576 0.4489
H91 H 0.7114 0.2301 0.4392
H92 H 0.6892 0.2459 0.4750
Fe2A Fe 0.65364(7) 0.36802(3) 0.37203(6)
C43A C 0.5956(5) 0.39057(18) 0.3271(4)
C44A C 0.5960(6) 0.3447(2) 0.3282(5)
C45A C 0.6717(5) 0.36594(19) 0.3093(5)
C46A C 0.7336(9) 0.3243(4) 0.4113(10)
C47A C 0.7783(9) 0.3143(4) 0.4527(9)
H47A H 0.7963 0.3000 0.4515
C48A C 0.7923(6) 0.3278(3) 0.4948(7)
C49A C 0.5843(6) 0.3691(3) 0.4383(5)
C50A C 0.5967(8) 0.3721(4) 0.4972(7)
H48A H 0.5695 0.3730 0.5109
C51A C 0.6583(10) 0.3737(4) 0.5324(8)
C52A C 0.7818(8) 0.4131(5) 0.4890(9)
C53A C 0.7706(9) 0.4249(4) 0.4405(11)
H49A H 0.7888 0.4392 0.4398
C54A C 0.7288(6) 0.4134(4) 0.3917(8)
N14A N 0.4467(5) 0.45119(18) 0.2097(5)
C55A C 0.4074(6) 0.4626(2) 0.2217(6)
H50A H 0.4093 0.4604 0.2591
C56A C 0.3651(6) 0.4773(3) 0.1791(8)
H51A H 0.3383 0.4851 0.1873
C57A C 0.3622(5) 0.4806(2) 0.1244(7)
C58A C 0.4015(6) 0.4692(2) 0.1124(5)
H52A H 0.3995 0.4715 0.0750
C59A C 0.4437(4) 0.45449(18) 0.1550(6)
C60A C 0.3161(14) 0.4970(6) 0.0800(13)
H53A H 0.3336 0.5122 0.0807
H54A H 0.2857 0.4991 0.0905
H55A H 0.2989 0.4901 0.0399
N15A N 0.4449(5) 0.28217(15) 0.2008(5)
C61A C 0.4120(6) 0.26853(17) 0.2176(5)
H56A H 0.4181 0.2697 0.2570
C62A C 0.3702(6) 0.2532(2) 0.1768(7)
H57A H 0.3478 0.2438 0.1883
C63A C 0.3613(6) 0.2514(2) 0.1192(6)
C64A C 0.3942(6) 0.2651(2) 0.1024(4)
H58A H 0.3881 0.2639 0.0630
C65A C 0.4360(5) 0.28045(18) 0.1432(5)
C66A C 0.4762(9) 0.2933(2) 0.1331(9)
C67A C 0.4757(8) 0.2934(3) 0.0796(8)
H59A H 0.4458 0.2853 0.0461
C68A C 0.5189(9) 0.3054(3) 0.0743(8)
C69A C 0.5599(7) 0.3172(2) 0.1250(7)
H60A H 0.5917 0.3249 0.1252
C70A C 0.5544(6) 0.31766(17) 0.1754(6)
H61A H 0.5811 0.3270 0.2083
N16A N 0.5244(4) 0.42765(14) 0.1907(4)
C71A C 0.4864(3) 0.44061(16) 0.1405(5)
C72A C 0.4948(5) 0.44170(17) 0.0916(4)
H62A H 0.4687 0.4506 0.0573
C73A C 0.5412(6) 0.42985(17) 0.0930(4)
C74A C 0.5792(4) 0.41689(15) 0.1432(4)
H63A H 0.6110 0.4088 0.1441
C75A C 0.5708(3) 0.41580(13) 0.1920(3)
H64A H 0.5969 0.4069 0.2263
C76A C 0.5502(13) 0.4294(3) 0.0408(8)
H65A H 0.5854 0.4384 0.0502
H66A H 0.5165 0.4366 0.0063
H67A H 0.5546 0.4131 0.0314
C77A C 0.7048(9) 0.3117(3) 0.3555(10)
H68A H 0.6694 0.3043 0.3506
H69A H 0.7309 0.2995 0.3553
H70A H 0.6946 0.3227 0.3225
C78A C 0.8434(8) 0.3305(5) 0.5603(10)
H71A H 0.8666 0.3160 0.5726
H72A H 0.8276 0.3333 0.5869
H73A H 0.8680 0.3437 0.5627
C79A C 0.5282(5) 0.36778(19) 0.3883(5)
H74A H 0.5201 0.3515 0.3735
H75A H 0.5256 0.3782 0.3569
H76A H 0.4996 0.3727 0.3996
C80A C 0.6971(11) 0.3751(5) 0.5977(9)
H77A H 0.7328 0.3835 0.6066
H78A H 0.7069 0.3592 0.6144
H79A H 0.6773 0.3836 0.6155
C81A C 0.7057(6) 0.4209(3) 0.3307(8)
H80A H 0.6631 0.4215 0.3107
H81A H 0.7176 0.4098 0.3098
H82A H 0.7208 0.4367 0.3302
C82A C 0.8252(9) 0.4165(6) 0.5588(10)
H83A H 0.8149 0.4308 0.5724
H84A H 0.8652 0.4178 0.5664
H85A H 0.8224 0.4029 0.5804
C83A C 0.5216(8) 0.3058(3) 0.0169(8)
H86A H 0.5010 0.2921 -0.0075
H87A H 0.5623 0.3054 0.0267
H88A H 0.5031 0.3203 -0.0054
N17A N 0.5596(4) 0.40394(16) 0.2967(4)
N18A N 0.5606(5) 0.33117(15) 0.2968(5)
N19A N 0.6803(4) 0.36469(17) 0.2694(4)
N20A N 0.7164(5) 0.3442(2) 0.4227(5)
N21A N 0.7522(5) 0.3494(3) 0.4789(6)
N22A N 0.6340(4) 0.3693(2) 0.4368(4)
N23A N 0.6789(5) 0.3706(3) 0.4937(5)
N24A N 0.7136(4) 0.3934(2) 0.4118(4)
N25A N 0.7491(5) 0.3932(3) 0.4746(5)
N26A N 0.5143(6) 0.30597(15) 0.1804(6)
B2A B 0.7414(9) 0.3691(5) 0.5046(8)
H89A H 0.7696 0.3693 0.5486
C84A C 0.3028(10) 0.2457(6) 0.0581(10)
H90A H 0.2732 0.2576 0.0511
H91A H 0.2886 0.2301 0.0608
H92A H 0.3108 0.2459 0.0250
Fe3 Fe 0.61113(6) 0.37600(3) 0.71424(6)
Co5 Co 0.5000 0.31402(3) 0.7500
Co6 Co 0.5000 0.43754(3) 0.7500
C85 C 0.5637(4) 0.39870(19) 0.7215(4)
C86 C 0.5719(4) 0.35203(19) 0.7311(4)
C87 C 0.5538(5) 0.3733(2) 0.6315(4)
C88 C 0.6608(7) 0.3318(4) 0.6810(6)
C89 C 0.7151(8) 0.3198(4) 0.6992(8)
H93 H 0.7243 0.3039 0.6955
C90 C 0.7519(8) 0.3415(4) 0.7262(9)
C91 C 0.6347(8) 0.4208(3) 0.6608(8)
C92 C 0.6847(11) 0.4351(5) 0.6754(12)
H94 H 0.6865 0.4509 0.6641
C93 C 0.7323(11) 0.4188(5) 0.7122(12)
C94 C 0.4526(5) 0.32569(18) 0.6205(5)
H95 H 0.4876 0.3339 0.6313
C95 C 0.4088(5) 0.3266(2) 0.5629(5)
H96 H 0.4155 0.3346 0.5347
C96 C 0.3556(5) 0.31655(19) 0.5435(5)
C97 C 0.3497(6) 0.3040(2) 0.5861(6)
H97 H 0.3140 0.2964 0.5760
C98 C 0.3976(6) 0.30257(19) 0.6449(5)
N27 N 0.4474(4) 0.29005(14) 0.7473(4)
C99 C 0.3977(4) 0.28751(15) 0.6916(3)
C100 C 0.3538(4) 0.27219(17) 0.6844(4)
H98 H 0.3199 0.2705 0.6463
C101 C 0.3596(4) 0.25941(17) 0.7329(5)
C102 C 0.4093(5) 0.26195(17) 0.7886(4)
H99 H 0.4133 0.2532 0.8218
C103 C 0.4532(4) 0.27727(17) 0.7958(3)
H100 H 0.4872 0.2790 0.8339
C104 C 0.6061(6) 0.3220(3) 0.6448(6)
H101 H 0.5810 0.3335 0.6145
H102 H 0.5890 0.3176 0.6693
H103 H 0.6099 0.3079 0.6251
C105 C 0.8223(7) 0.3456(4) 0.7566(8)
H104 H 0.8404 0.3456 0.8002
H105 H 0.8295 0.3608 0.7435
H106 H 0.8391 0.3330 0.7442
C106 C 0.5737(6) 0.4265(4) 0.6164(8)
H107 H 0.5704 0.4296 0.5776
H108 H 0.5616 0.4406 0.6294
H109 H 0.5485 0.4133 0.6128
C107 C 0.7992(10) 0.4240(5) 0.7461(13)
H110 H 0.8148 0.4209 0.7195
H111 H 0.8187 0.4138 0.7813
H112 H 0.8060 0.4405 0.7586
C108 C 0.6125(5) 0.37399(17) 0.8541(4)
H113 H 0.5821 0.3841 0.8238
H114 H 0.6189 0.3782 0.8937
H115 H 0.6004 0.3575 0.8456
C109 C 0.8254(5) 0.3832(3) 0.9108(6)
H116 H 0.8358 0.3993 0.9063
H117 H 0.8406 0.3721 0.8929
H118 H 0.8422 0.3795 0.9533
C110 C 0.3070(6) 0.3169(3) 0.4811(6)
H119 H 0.2797 0.3295 0.4763
H120 H 0.2868 0.3017 0.4714
H121 H 0.3223 0.3198 0.4542
C111 C 0.3069(9) 0.2431(3) 0.7177(11)
H122 H 0.3101 0.2286 0.6990
H123 H 0.2707 0.2513 0.6900
H124 H 0.3066 0.2392 0.7544
C112 C 0.6657(5) 0.37727(15) 0.8530(4)
C113 C 0.7220(5) 0.3784(2) 0.9014(4)
H125 H 0.7326 0.3775 0.9423
C114 C 0.7598(5) 0.3809(2) 0.8797(5)
N28 N 0.5482(4) 0.33750(14) 0.7416(4)
N29 N 0.5340(3) 0.41339(15) 0.7239(4)
N30 N 0.6528(4) 0.4017(2) 0.6977(4)
N31 N 0.7119(4) 0.4016(3) 0.7306(5)
N32 N 0.6669(4) 0.3537(2) 0.7081(4)
N33 N 0.7241(4) 0.3584(3) 0.7369(4)
N34 N 0.6693(3) 0.37881(13) 0.8018(3)
N35 N 0.7267(3) 0.38093(16) 0.8192(3)
N36 N 0.4486(4) 0.31379(15) 0.6623(4)
B3 B 0.7441(6) 0.3810(4) 0.7716(6)
H126 H 0.7871 0.3829 0.7900
N37 N 0.5166(4) 0.3709(2) 0.5832(4)
N38 N 0.5371(5) 0.46205(16) 0.7300(5)
C115 C 0.5973(5) 0.4631(2) 0.7657(5)
C116 C 0.6290(5) 0.4789(3) 0.7520(7)
H127 H 0.6702 0.4796 0.7764
C117 C 0.6005(7) 0.4936(2) 0.7026(8)
C118 C 0.5402(7) 0.4925(2) 0.6669(6)
H128 H 0.5207 0.5025 0.6331
C119 C 0.5086(5) 0.4767(2) 0.6806(5)
H129 H 0.4674 0.4760 0.6562
N39 N 0.5735(2) 0.43895(12) 0.8263(3)
C120 C 0.6171(4) 0.45010(14) 0.8206(4)
C121 C 0.6740(3) 0.45014(17) 0.8681(5)
H130 H 0.7038 0.4578 0.8643
C122 C 0.6873(3) 0.43904(17) 0.9214(4)
C123 C 0.6437(4) 0.42790(14) 0.9271(3)
H131 H 0.6528 0.4203 0.9635
C124 C 0.5868(3) 0.42785(12) 0.8795(3)
H132 H 0.5570 0.4202 0.8834
C125 C 0.7502(6) 0.4365(3) 0.9648(9)
H133 H 0.7658 0.4231 0.9535
H134 H 0.7558 0.4339 1.0048
H135 H 0.7706 0.4509 0.9649
C126 C 0.6387(14) 0.5134(5) 0.7019(16)
H136 H 0.6688 0.5172 0.7429
H137 H 0.6147 0.5274 0.6833
H138 H 0.6571 0.5085 0.6790
Fe3A Fe 0.38887(6) 0.37600(3) 0.78576(6)
C85A C 0.4363(4) 0.39870(19) 0.7785(4)
C86A C 0.4281(4) 0.35203(19) 0.7689(4)
C87A C 0.4462(5) 0.3733(2) 0.8685(4)
C88A C 0.3392(7) 0.3318(4) 0.8190(6)
C89A C 0.2849(8) 0.3198(4) 0.8008(8)
H93A H 0.2757 0.3039 0.8045
C90A C 0.2481(8) 0.3415(4) 0.7738(9)
C91A C 0.3653(8) 0.4208(3) 0.8392(8)
C92A C 0.3153(11) 0.4351(5) 0.8246(12)
H94A H 0.3135 0.4509 0.8359
C93A C 0.2677(11) 0.4188(5) 0.7878(12)
C94A C 0.5474(5) 0.32569(18) 0.8795(5)
H95A H 0.5124 0.3339 0.8687
C95A C 0.5912(5) 0.3266(2) 0.9371(5)
H96A H 0.5845 0.3346 0.9653
C96A C 0.6444(5) 0.31655(19) 0.9565(5)
C97A C 0.6503(6) 0.3040(2) 0.9139(6)
H97A H 0.6860 0.2964 0.9240
C98A C 0.6024(6) 0.30257(19) 0.8551(5)
N27A N 0.5526(4) 0.29005(14) 0.7527(4)
C99A C 0.6023(4) 0.28751(15) 0.8084(3)
C100A C 0.6462(4) 0.27219(17) 0.8156(4)
H98A H 0.6801 0.2705 0.8537
C101A C 0.6404(4) 0.25941(17) 0.7671(5)
C102A C 0.5907(5) 0.26195(17) 0.7114(4)
H99A H 0.5867 0.2532 0.6782
C103A C 0.5468(4) 0.27727(17) 0.7042(3)
H100A H 0.5128 0.2790 0.6661
C104A C 0.3939(6) 0.3220(3) 0.8552(6)
H101A H 0.4190 0.3335 0.8855
H102A H 0.4110 0.3176 0.8307
H103A H 0.3901 0.3079 0.8749
C105A C 0.1777(7) 0.3456(4) 0.7434(8)
H104A H 0.1596 0.3456 0.6998
H105A H 0.1705 0.3608 0.7565
H106A H 0.1609 0.3330 0.7558
C106A C 0.4263(6) 0.4265(4) 0.8836(8)
H107A H 0.4296 0.4296 0.9224
H108A H 0.4384 0.4406 0.8706
H109A H 0.4515 0.4133 0.8872
C107A C 0.2008(10) 0.4240(5) 0.7539(13)
H110A H 0.1852 0.4209 0.7805
H111A H 0.1813 0.4138 0.7187
H112A H 0.1940 0.4405 0.7414
C108A C 0.3875(5) 0.37399(17) 0.6459(4)
H113A H 0.4179 0.3841 0.6762
H114A H 0.3811 0.3782 0.6063
H115A H 0.3996 0.3575 0.6544
C109A C 0.1746(5) 0.3832(3) 0.5892(6)
H116A H 0.1642 0.3993 0.5937
H117A H 0.1594 0.3721 0.6071
H118A H 0.1578 0.3795 0.5467
C110A C 0.6930(6) 0.3169(3) 1.0189(6)
H119A H 0.7203 0.3295 1.0237
H120A H 0.7132 0.3017 1.0286
H121A H 0.6777 0.3198 1.0458
C111A C 0.6931(9) 0.2431(3) 0.7823(11)
H122A H 0.6899 0.2286 0.8010
H123A H 0.7293 0.2513 0.8100
H124A H 0.6934 0.2392 0.7456
C112A C 0.3343(5) 0.37727(15) 0.6470(4)
C113A C 0.2780(5) 0.3784(2) 0.5986(4)
H125A H 0.2674 0.3775 0.5577
C114A C 0.2402(5) 0.3809(2) 0.6203(5)
N28A N 0.4518(4) 0.33750(14) 0.7584(4)
N29A N 0.4660(3) 0.41339(15) 0.7761(4)
N30A N 0.3472(4) 0.4017(2) 0.8023(4)
N31A N 0.2881(4) 0.4016(3) 0.7694(5)
N32A N 0.3331(4) 0.3537(2) 0.7919(4)
N33A N 0.2759(4) 0.3584(3) 0.7631(4)
N34A N 0.3307(3) 0.37881(13) 0.6982(3)
N35A N 0.2733(3) 0.38093(16) 0.6808(3)
N36A N 0.5514(4) 0.31379(15) 0.8377(4)
B3A B 0.2559(6) 0.3810(4) 0.7284(6)
H126A H 0.2129 0.3829 0.7100
N37A N 0.4834(4) 0.3709(2) 0.9168(4)
N38A N 0.4629(5) 0.46205(16) 0.7700(5)
C115A C 0.4027(5) 0.4631(2) 0.7343(5)
C116A C 0.3710(5) 0.4789(3) 0.7480(7)
H127A H 0.3298 0.4796 0.7236
C117A C 0.3995(7) 0.4936(2) 0.7974(8)
C118A C 0.4598(7) 0.4925(2) 0.8331(6)
H128A H 0.4793 0.5025 0.8669
C119A C 0.4914(5) 0.4767(2) 0.8194(5)
H129A H 0.5326 0.4760 0.8438
N39A N 0.4265(2) 0.43895(12) 0.6737(3)
C120A C 0.3829(4) 0.45010(14) 0.6794(4)
C121A C 0.3260(3) 0.45014(17) 0.6319(5)
H130A H 0.2962 0.4578 0.6357
C122A C 0.3127(3) 0.43904(17) 0.5786(4)
C123A C 0.3563(4) 0.42790(14) 0.5729(3)
H131A H 0.3472 0.4203 0.5365
C124A C 0.4132(3) 0.42785(12) 0.6205(3)
H132A H 0.4430 0.4202 0.6166
C125A C 0.2498(6) 0.4365(3) 0.5352(9)
H133A H 0.2342 0.4231 0.5465
H134A H 0.2442 0.4339 0.4952
H135A H 0.2294 0.4509 0.5351
C126A C 0.3613(14) 0.5134(5) 0.7981(16)
H136A H 0.3312 0.5172 0.7571
H137A H 0.3853 0.5274 0.8167
H138A H 0.3429 0.5085 0.8210
C127 C 0.3047(4) 0.38168(15) 0.4431(3)
C128 C 0.2700(4) 0.37942(14) 0.3822(3)
H139 H 0.2292 0.3820 0.3632
C129 C 0.3652(4) 0.37809(17) 0.4725(4)
H140 H 0.3887 0.3804 0.5144
C130 C 0.3895(4) 0.37113(18) 0.4383(4)
C131 C 0.2969(4) 0.37321(14) 0.3487(3)
C132 C 0.3569(4) 0.36934(17) 0.3776(4)
H141 H 0.3750 0.3655 0.3550
O1 O 0.2621(3) 0.37192(12) 0.2894(2)
H142 H 0.2819 0.3685 0.2734
O2 O 0.4480(3) 0.36692(15) 0.4632(3)
H143 H 0.4644 0.3687 0.5004
O3 O 0.2829(3) 0.38800(13) 0.4786(3)
H144 H 0.2467 0.3898 0.4576
P1 P 0.2500 0.2500 0.5000
F1 F 0.1899(4) 0.23836(17) 0.4832(6)
F2 F 0.2673(5) 0.22587(16) 0.4842(6)
F3 F 0.2749(6) 0.2403(2) 0.5692(5)
F1F F 0.3101(4) 0.26164(17) 0.5168(6)
F2F F 0.2327(5) 0.27413(16) 0.5158(6)
F3F F 0.2251(6) 0.2597(2) 0.4308(5)
F4 F 0.8278(10) 0.4941(3) 0.8296(12)
P2 P 0.8121(3) 0.49997(11) 0.8763(5)
F5 F 0.8250(12) 0.5264(2) 0.8721(10)
F6 F 0.8765(9) 0.4944(4) 0.9354(9)
F7 F 0.8180(9) 0.5041(4) 0.9407(7)
F8 F 0.7518(7) 0.5080(4) 0.8372(9)
F9 F 0.7961(11) 0.4730(2) 0.8772(12)
O4 O 0.7774(14) 0.1919(5) 0.4251(15)
P3 P 0.6228(3) 0.24384(11) 0.5679(3)
F10 F 0.5707(9) 0.2555(4) 0.5118(8)
F11 F 0.5893(8) 0.2496(3) 0.6019(8)
F12 F 0.5857(11) 0.2185(3) 0.5455(12)
F13 F 0.6804(9) 0.2614(4) 0.6051(10)
F14 F 0.6375(8) 0.2384(3) 0.5285(7)
F15 F 0.6432(8) 0.2278(3) 0.6160(7)
C133 C 0.4135(9) 0.0666(4) -0.0859(9)
H145 H 0.4191 0.0505 -0.0960
H146 H 0.4447 0.0767 -0.0829
H147 H 0.3758 0.0726 -0.1172
C134 C 0.4147(8) 0.0664(4) -0.0266(9)
N40 N 0.4155(9) 0.0670(5) 0.0172(9)
C135 C 0.2899(11) -0.0009(4) 0.1206(12)
H148 H 0.2686 -0.0086 0.1378
H149 H 0.3048 -0.0129 0.1044
H150 H 0.2637 0.0097 0.0885
C136 C 0.3414(11) 0.0133(4) 0.1696(11)
N41 N 0.3879(12) 0.0296(5) 0.2154(12)
P4 P 0.0774(4) 0.00293(16) 0.5177(4)
F16 F 0.0361(9) 0.0082(4) 0.5437(10)
F17 F 0.0427(9) 0.0237(3) 0.4733(7)
F18 F 0.1234(9) 0.0230(4) 0.5638(10)
F19 F 0.0343(9) -0.0135(4) 0.4719(13)
F20 F 0.1190(9) -0.0193(4) 0.5448(11)
F21 F 0.1114(12) 0.0080(5) 0.4804(13)
O5 O 0.9259(15) 0.2556(6) 0.8517(15)
O6 O 0.7598(10) 0.1754(4) 0.1500(10)
O7 O 0.143(2) -0.0713(8) 0.479(2)
loop_
_geom_bond_atom_site_label_1
_geom_bond_atom_site_label_2
_geom_bond_site_symmetry_1
_geom_bond_site_symmetry_2
Fe1 C1 1_555 1_555
Co1 N1 1_555 1_555
Co2 N2 1_555 1_555
C1 N5 1_555 1_555
C2 Fe1 1_555 1_555
C3 Fe1 1_555 1_555
C4 C5 1_555 1_555
C5 H1 1_555 1_555
C6 C5 1_555 1_555
C7 C8 1_555 1_555
C8 H2 1_555 1_555
C9 C8 1_555 1_555
C10 C11 1_555 1_555
C11 H3 1_555 1_555
C12 C11 1_555 1_555
C13 H4 1_555 1_555
C14 C13 1_555 1_555
H5 C14 1_555 1_555
C15 C14 1_555 1_555
C16 C15 1_555 1_555
H6 C16 1_555 1_555
C17 C16 1_555 1_555
C18 C17 1_555 1_555
C19 C18 1_555 1_555
H7 C19 1_555 1_555
C20 C19 1_555 1_555
C21 C20 1_555 1_555
H8 C21 1_555 1_555
C22 C21 1_555 1_555
H9 C22 1_555 1_555
C23 C24 1_555 1_555
C24 H10 1_555 1_555
C25 C24 1_555 1_555
C26 C25 1_555 1_555
H11 C26 1_555 1_555
C27 C26 1_555 1_555
H12 C27 1_555 1_555
C28 C23 1_555 1_555
C29 C28 1_555 1_555
H13 C29 1_555 1_555
C30 C29 1_555 1_555
C31 C30 1_555 1_555
H14 C31 1_555 1_555
C32 C31 1_555 1_555
H15 C32 1_555 1_555
C33 C4 1_555 1_555
H16 C33 1_555 1_555
H17 C33 1_555 1_555
H18 C33 1_555 1_555
C34 C6 1_555 1_555
H19 C34 1_555 1_555
H20 C34 1_555 1_555
H21 C34 1_555 1_555
C35 C7 1_555 1_555
H22 C35 1_555 1_555
H23 C35 1_555 1_555
H24 C35 1_555 1_555
C36 C9 1_555 1_555
H25 C36 1_555 1_555
H26 C36 1_555 1_555
H27 C36 1_555 1_555
C37 C10 1_555 1_555
H28 C37 1_555 1_555
H29 C37 1_555 1_555
H30 C37 1_555 1_555
C38 C12 1_555 1_555
H31 C38 1_555 1_555
H32 C38 1_555 1_555
H33 C38 1_555 1_555
C39 C15 1_555 1_555
H34 C39 1_555 1_555
H35 C39 1_555 1_555
H36 C39 1_555 1_555
C40 C20 1_555 1_555
H37 C40 1_555 1_555
H38 C40 1_555 1_555
H39 C40 1_555 1_555
C41 C25 1_555 1_555
H40 C41 1_555 1_555
H41 C41 1_555 1_555
H42 C41 1_555 1_555
C42 C30 1_555 1_555
H43 C42 1_555 1_555
H44 C42 1_555 1_555
H45 C42 1_555 1_555
N1 C18 1_555 1_555
N2 C28 1_555 1_555
N3 Co2 1_555 1_555
N4 Co1 1_555 1_555
N5 Co2 1_555 1_555
N6 C3 1_555 1_555
N7 Fe1 1_555 1_555
N8 C9 1_555 1_555
N9 Fe1 1_555 1_555
N10 C6 1_555 1_555
N11 Fe1 1_555 1_555
N12 C12 1_555 1_555
N13 Co1 1_555 1_555
B1 N8 1_555 1_555
H46 B1 1_555 1_555
Fe2 C43 1_555 1_555
Co3 N15 1_555 1_555
Co4 N14 1_555 1_555
C43 N17 1_555 1_555
C44 Fe2 1_555 1_555
C45 Fe2 1_555 1_555
C46 C47 1_555 1_555
C47 H47 1_555 1_555
C48 C47 1_555 1_555
C49 C50 1_555 1_555
C50 H48 1_555 1_555
C51 C50 1_555 1_555
C52 C53 1_555 1_555
C53 H49 1_555 1_555
C54 C53 1_555 1_555
N14 C55 1_555 1_555
C55 H50 1_555 1_555
C56 C55 1_555 1_555
H51 C56 1_555 1_555
C57 C56 1_555 1_555
C58 C57 1_555 1_555
H52 C58 1_555 1_555
C59 N14 1_555 1_555
C60 C57 1_555 1_555
H53 C60 1_555 1_555
H54 C60 1_555 1_555
H55 C60 1_555 1_555
N15 C61 1_555 1_555
C61 H56 1_555 1_555
C62 C61 1_555 1_555
H57 C62 1_555 1_555
C63 C62 1_555 1_555
C64 C63 1_555 1_555
H58 C64 1_555 1_555
C65 N15 1_555 1_555
C66 C65 1_555 1_555
C67 C66 1_555 1_555
H59 C67 1_555 1_555
C68 C67 1_555 1_555
C69 C68 1_555 1_555
H60 C69 1_555 1_555
C70 C69 1_555 1_555
H61 C70 1_555 1_555
N16 Co4 1_555 1_555
C71 C59 1_555 1_555
C72 C71 1_555 1_555
H62 C72 1_555 1_555
C73 C72 1_555 1_555
C74 C73 1_555 1_555
H63 C74 1_555 1_555
C75 N16 1_555 1_555
H64 C75 1_555 1_555
C76 C73 1_555 1_555
H65 C76 1_555 1_555
H66 C76 1_555 1_555
H67 C76 1_555 1_555
C77 C46 1_555 1_555
H68 C77 1_555 1_555
H69 C77 1_555 1_555
H70 C77 1_555 1_555
C78 C48 1_555 1_555
H71 C78 1_555 1_555
H72 C78 1_555 1_555
H73 C78 1_555 1_555
C79 C49 1_555 1_555
H74 C79 1_555 1_555
H75 C79 1_555 1_555
H76 C79 1_555 1_555
C80 C51 1_555 1_555
H77 C80 1_555 1_555
H78 C80 1_555 1_555
H79 C80 1_555 1_555
C81 C54 1_555 1_555
H80 C81 1_555 1_555
H81 C81 1_555 1_555
H82 C81 1_555 1_555
C82 C52 1_555 1_555
H83 C82 1_555 1_555
H84 C82 1_555 1_555
H85 C82 1_555 1_555
C83 C68 1_555 1_555
H86 C83 1_555 1_555
H87 C83 1_555 1_555
H88 C83 1_555 1_555
N17 Co4 1_555 1_555
N18 Co3 1_555 1_555
N19 C45 1_555 1_555
N20 Fe2 1_555 1_555
N21 C48 1_555 1_555
N22 Fe2 1_555 1_555
N23 C51 1_555 1_555
N24 Fe2 1_555 1_555
N25 C52 1_555 1_555
N26 Co3 1_555 1_555
B2 N21 1_555 1_555
H89 B2 1_555 1_555
C84 C63 1_555 1_555
H90 C84 1_555 1_555
H91 C84 1_555 1_555
H92 C84 1_555 1_555
Fe3 C85 1_555 1_555
Co5 N27 1_555 1_555
Co6 N29 1_555 1_555
C85 N29 1_555 1_555
C86 Fe3 1_555 1_555
C87 Fe3 1_555 1_555
C88 C89 1_555 1_555
C89 H93 1_555 1_555
C90 C89 1_555 1_555
C91 C92 1_555 1_555
C92 H94 1_555 1_555
C93 C92 1_555 1_555
C94 H95 1_555 1_555
C95 C94 1_555 1_555
H96 C95 1_555 1_555
C96 C95 1_555 1_555
C97 C96 1_555 1_555
H97 C97 1_555 1_555
C98 C97 1_555 1_555
N27 C99 1_555 1_555
C99 C98 1_555 1_555
C100 C99 1_555 1_555
H98 C100 1_555 1_555
C101 C100 1_555 1_555
C102 C101 1_555 1_555
H99 C102 1_555 1_555
C103 N27 1_555 1_555
H100 C103 1_555 1_555
C104 C88 1_555 1_555
H101 C104 1_555 1_555
H102 C104 1_555 1_555
H103 C104 1_555 1_555
C105 C90 1_555 1_555
H104 C105 1_555 1_555
H105 C105 1_555 1_555
H106 C105 1_555 1_555
C106 C91 1_555 1_555
H107 C106 1_555 1_555
H108 C106 1_555 1_555
H109 C106 1_555 1_555
C107 C93 1_555 1_555
H110 C107 1_555 1_555
H111 C107 1_555 1_555
H112 C107 1_555 1_555
C108 H113 1_555 1_555
H114 C108 1_555 1_555
H115 C108 1_555 1_555
C109 H116 1_555 1_555
H117 C109 1_555 1_555
H118 C109 1_555 1_555
C110 C96 1_555 1_555
H119 C110 1_555 1_555
H120 C110 1_555 1_555
H121 C110 1_555 1_555
C111 C101 1_555 1_555
H122 C111 1_555 1_555
H123 C111 1_555 1_555
H124 C111 1_555 1_555
C112 C108 1_555 1_555
C113 C112 1_555 1_555
H125 C113 1_555 1_555
C114 C109 1_555 1_555
N28 Co5 1_555 1_555
N30 Fe3 1_555 1_555
N31 C93 1_555 1_555
N32 Fe3 1_555 1_555
N33 C90 1_555 1_555
N34 Fe3 1_555 1_555
N35 C114 1_555 1_555
N36 Co5 1_555 1_555
B3 N31 1_555 1_555
H126 B3 1_555 1_555
N37 C87 1_555 1_555
N38 Co6 1_555 1_555
C115 N38 1_555 1_555
C116 C115 1_555 1_555
H127 C116 1_555 1_555
C117 C116 1_555 1_555
C118 C117 1_555 1_555
H128 C118 1_555 1_555
C119 N38 1_555 1_555
H129 C119 1_555 1_555
N39 Co6 1_555 1_555
C120 C115 1_555 1_555
C121 C120 1_555 1_555
H130 C121 1_555 1_555
C122 C121 1_555 1_555
C123 C122 1_555 1_555
H131 C123 1_555 1_555
C124 N39 1_555 1_555
H132 C124 1_555 1_555
C125 C122 1_555 1_555
H133 C125 1_555 1_555
H134 C125 1_555 1_555
H135 C125 1_555 1_555
C126 C117 1_555 1_555
H136 C126 1_555 1_555
H137 C126 1_555 1_555
H138 C126 1_555 1_555
C127 C128 1_555 1_555
C128 H139 1_555 1_555
C129 C127 1_555 1_555
H140 C129 1_555 1_555
C130 C129 1_555 1_555
C131 C128 1_555 1_555
C132 C130 1_555 1_555
H141 C132 1_555 1_555
O1 C131 1_555 1_555
H142 O1 1_555 1_555
O2 C130 1_555 1_555
H143 O2 1_555 1_555
O3 C127 1_555 1_555
H144 O3 1_555 1_555
P1 F1 1_555 1_555
F2 P1 1_555 1_555
F3 P1 1_555 1_555
F4 P2 1_555 1_555
P2 F5 1_555 1_555
F6 P2 1_555 1_555
F7 P2 1_555 1_555
F8 P2 1_555 1_555
F9 P2 1_555 1_555
P3 F10 1_555 1_555
F11 P3 1_555 1_555
F12 P3 1_555 1_555
F13 P3 1_555 1_555
F14 P3 1_555 1_555
F15 P3 1_555 1_555
C133 H145 1_555 1_555
H146 C133 1_555 1_555
H147 C133 1_555 1_555
C134 C133 1_555 1_555
N40 C134 1_555 1_555
C135 H148 1_555 1_555
H149 C135 1_555 1_555
H150 C135 1_555 1_555
C136 C135 1_555 1_555
N41 C136 1_555 1_555
P4 F16 1_555 1_555
F17 P4 1_555 1_555
F18 P4 1_555 1_555
F19 P4 1_555 1_555
F20 P4 1_555 1_555
F21 P4 1_555 1_555
Fe1A C1A 1_555 1_555
C1A N5A 1_555 1_555
C2A Fe1A 1_555 1_555
C3A Fe1A 1_555 1_555
C4A C5A 1_555 1_555
C5A H1A 1_555 1_555
C6A C5A 1_555 1_555
C7A C8A 1_555 1_555
C8A H2A 1_555 1_555
C9A C8A 1_555 1_555
C10A C11A 1_555 1_555
C11A H3A 1_555 1_555
C12A C11A 1_555 1_555
C13A H4A 1_555 1_555
C14A C13A 1_555 1_555
H5A C14A 1_555 1_555
C15A C14A 1_555 1_555
C16A C15A 1_555 1_555
H6A C16A 1_555 1_555
C17A C16A 1_555 1_555
C18A C17A 1_555 1_555
C19A C18A 1_555 1_555
H7A C19A 1_555 1_555
C20A C19A 1_555 1_555
C21A C20A 1_555 1_555
H8A C21A 1_555 1_555
C22A C21A 1_555 1_555
H9A C22A 1_555 1_555
C23A C24A 1_555 1_555
C24A H10A 1_555 1_555
C25A C24A 1_555 1_555
C26A C25A 1_555 1_555
H11A C26A 1_555 1_555
C27A C26A 1_555 1_555
H12A C27A 1_555 1_555
C28A C23A 1_555 1_555
C29A C28A 1_555 1_555
H13A C29A 1_555 1_555
C30A C29A 1_555 1_555
C31A C30A 1_555 1_555
H14A C31A 1_555 1_555
C32A C31A 1_555 1_555
H15A C32A 1_555 1_555
C33A C4A 1_555 1_555
H16A C33A 1_555 1_555
H17A C33A 1_555 1_555
H18A C33A 1_555 1_555
C34A C6A 1_555 1_555
H19A C34A 1_555 1_555
H20A C34A 1_555 1_555
H21A C34A 1_555 1_555
C35A C7A 1_555 1_555
H22A C35A 1_555 1_555
H23A C35A 1_555 1_555
H24A C35A 1_555 1_555
C36A C9A 1_555 1_555
H25A C36A 1_555 1_555
H26A C36A 1_555 1_555
H27A C36A 1_555 1_555
C37A C10A 1_555 1_555
H28A C37A 1_555 1_555
H29A C37A 1_555 1_555
H30A C37A 1_555 1_555
C38A C12A 1_555 1_555
H31A C38A 1_555 1_555
H32A C38A 1_555 1_555
H33A C38A 1_555 1_555
C39A C15A 1_555 1_555
H34A C39A 1_555 1_555
H35A C39A 1_555 1_555
H36A C39A 1_555 1_555
C40A C20A 1_555 1_555
H37A C40A 1_555 1_555
H38A C40A 1_555 1_555
H39A C40A 1_555 1_555
C41A C25A 1_555 1_555
H40A C41A 1_555 1_555
H41A C41A 1_555 1_555
H42A C41A 1_555 1_555
C42A C30A 1_555 1_555
H43A C42A 1_555 1_555
H44A C42A 1_555 1_555
H45A C42A 1_555 1_555
N1A Co1 1_555 1_555
N2A Co2 1_555 1_555
N3A Co2 1_555 1_555
N4A Co1 1_555 1_555
N5A Co2 1_555 1_555
N6A C3A 1_555 1_555
N7A Fe1A 1_555 1_555
N8A C9A 1_555 1_555
N9A Fe1A 1_555 1_555
N10A C6A 1_555 1_555
N11A Fe1A 1_555 1_555
N12A C12A 1_555 1_555
N13A Co1 1_555 1_555
B1A N8A 1_555 1_555
H46A B1A 1_555 1_555
Fe2A C43A 1_555 1_555
C43A N17A 1_555 1_555
C44A Fe2A 1_555 1_555
C45A Fe2A 1_555 1_555
C46A C47A 1_555 1_555
C47A H47A 1_555 1_555
C48A C47A 1_555 1_555
C49A C50A 1_555 1_555
C50A H48A 1_555 1_555
C51A C50A 1_555 1_555
C52A C53A 1_555 1_555
C53A H49A 1_555 1_555
C54A C53A 1_555 1_555
N14A Co4 1_555 1_555
C55A N14A 1_555 1_555
H50A C55A 1_555 1_555
C56A C55A 1_555 1_555
H51A C56A 1_555 1_555
C57A C56A 1_555 1_555
C58A C57A 1_555 1_555
H52A C58A 1_555 1_555
C59A N14A 1_555 1_555
C60A C57A 1_555 1_555
H53A C60A 1_555 1_555
H54A C60A 1_555 1_555
H55A C60A 1_555 1_555
N15A Co3 1_555 1_555
C61A N15A 1_555 1_555
H56A C61A 1_555 1_555
C62A C61A 1_555 1_555
H57A C62A 1_555 1_555
C63A C62A 1_555 1_555
C64A C63A 1_555 1_555
H58A C64A 1_555 1_555
C65A N15A 1_555 1_555
C66A C65A 1_555 1_555
C67A C66A 1_555 1_555
H59A C67A 1_555 1_555
C68A C67A 1_555 1_555
C69A C68A 1_555 1_555
H60A C69A 1_555 1_555
C70A C69A 1_555 1_555
H61A C70A 1_555 1_555
N16A Co4 1_555 1_555
C71A C59A 1_555 1_555
C72A C71A 1_555 1_555
H62A C72A 1_555 1_555
C73A C72A 1_555 1_555
C74A C73A 1_555 1_555
H63A C74A 1_555 1_555
C75A N16A 1_555 1_555
H64A C75A 1_555 1_555
C76A C73A 1_555 1_555
H65A C76A 1_555 1_555
H66A C76A 1_555 1_555
H67A C76A 1_555 1_555
C77A C46A 1_555 1_555
H68A C77A 1_555 1_555
H69A C77A 1_555 1_555
H70A C77A 1_555 1_555
C78A C48A 1_555 1_555
H71A C78A 1_555 1_555
H72A C78A 1_555 1_555
H73A C78A 1_555 1_555
C79A C49A 1_555 1_555
H74A C79A 1_555 1_555
H75A C79A 1_555 1_555
H76A C79A 1_555 1_555
C80A C51A 1_555 1_555
H77A C80A 1_555 1_555
H78A C80A 1_555 1_555
H79A C80A 1_555 1_555
C81A C54A 1_555 1_555
H80A C81A 1_555 1_555
H81A C81A 1_555 1_555
H82A C81A 1_555 1_555
C82A C52A 1_555 1_555
H83A C82A 1_555 1_555
H84A C82A 1_555 1_555
H85A C82A 1_555 1_555
C83A C68A 1_555 1_555
H86A C83A 1_555 1_555
H87A C83A 1_555 1_555
H88A C83A 1_555 1_555
N17A Co4 1_555 1_555
N18A Co3 1_555 1_555
N19A C45A 1_555 1_555
N20A Fe2A 1_555 1_555
N21A C48A 1_555 1_555
N22A Fe2A 1_555 1_555
N23A C51A 1_555 1_555
N24A Fe2A 1_555 1_555
N25A C52A 1_555 1_555
N26A Co3 1_555 1_555
B2A N21A 1_555 1_555
H89A B2A 1_555 1_555
C84A C63A 1_555 1_555
H90A C84A 1_555 1_555
H91A C84A 1_555 1_555
H92A C84A 1_555 1_555
Fe3A C85A 1_555 1_555
C85A N29A 1_555 1_555
C86A Fe3A 1_555 1_555
C87A Fe3A 1_555 1_555
C88A C89A 1_555 1_555
C89A H93A 1_555 1_555
C90A C89A 1_555 1_555
C91A C92A 1_555 1_555
C92A H94A 1_555 1_555
C93A C92A 1_555 1_555
C94A H95A 1_555 1_555
C95A C94A 1_555 1_555
H96A C95A 1_555 1_555
C96A C95A 1_555 1_555
C97A C96A 1_555 1_555
H97A C97A 1_555 1_555
C98A C97A 1_555 1_555
N27A Co5 1_555 1_555
C99A C98A 1_555 1_555
C100A C99A 1_555 1_555
H98A C100A 1_555 1_555
C101A C100A 1_555 1_555
C102A C101A 1_555 1_555
H99A C102A 1_555 1_555
C103A N27A 1_555 1_555
H100A C103A 1_555 1_555
C104A C88A 1_555 1_555
H101A C104A 1_555 1_555
H102A C104A 1_555 1_555
H103A C104A 1_555 1_555
C105A C90A 1_555 1_555
H104A C105A 1_555 1_555
H105A C105A 1_555 1_555
H106A C105A 1_555 1_555
C106A C91A 1_555 1_555
H107A C106A 1_555 1_555
H108A C106A 1_555 1_555
H109A C106A 1_555 1_555
C107A C93A 1_555 1_555
H110A C107A 1_555 1_555
H111A C107A 1_555 1_555
H112A C107A 1_555 1_555
C108A H113A 1_555 1_555
H114A C108A 1_555 1_555
H115A C108A 1_555 1_555
C109A H116A 1_555 1_555
H117A C109A 1_555 1_555
H118A C109A 1_555 1_555
C110A C96A 1_555 1_555
H119A C110A 1_555 1_555
H120A C110A 1_555 1_555
H121A C110A 1_555 1_555
C111A C101A 1_555 1_555
H122A C111A 1_555 1_555
H123A C111A 1_555 1_555
H124A C111A 1_555 1_555
C112A C108A 1_555 1_555
C113A C112A 1_555 1_555
H125A C113A 1_555 1_555
C114A C109A 1_555 1_555
N28A Co5 1_555 1_555
N29A Co6 1_555 1_555
N30A Fe3A 1_555 1_555
N31A C93A 1_555 1_555
N32A Fe3A 1_555 1_555
N33A C90A 1_555 1_555
N34A Fe3A 1_555 1_555
N35A C114A 1_555 1_555
N36A Co5 1_555 1_555
B3A N31A 1_555 1_555
H126A B3A 1_555 1_555
N37A C87A 1_555 1_555
N38A Co6 1_555 1_555
C115A N38A 1_555 1_555
C116A C115A 1_555 1_555
H127A C116A 1_555 1_555
C117A C116A 1_555 1_555
C118A C117A 1_555 1_555
H128A C118A 1_555 1_555
C119A N38A 1_555 1_555
H129A C119A 1_555 1_555
N39A Co6 1_555 1_555
C120A C115A 1_555 1_555
C121A C120A 1_555 1_555
H130A C121A 1_555 1_555
C122A C121A 1_555 1_555
C123A C122A 1_555 1_555
H131A C123A 1_555 1_555
C124A N39A 1_555 1_555
H132A C124A 1_555 1_555
C125A C122A 1_555 1_555
H133A C125A 1_555 1_555
H134A C125A 1_555 1_555
H135A C125A 1_555 1_555
C126A C117A 1_555 1_555
H136A C126A 1_555 1_555
H137A C126A 1_555 1_555
H138A C126A 1_555 1_555
F1F P1 1_555 1_555
F2F P1 1_555 1_555
F3F P1 1_555 1_555
C2 N4 1_555 1_555
C4 N9 1_555 1_555
C7 N7 1_555 1_555
C10 N11 1_555 1_555
C13 N13 1_555 1_555
C17 N13 1_555 1_555
C22 N1 1_555 1_555
C23 N3 1_555 1_555
C27 N3 1_555 1_555
C32 N2 1_555 1_555
N7 N8 1_555 1_555
N9 N10 1_555 1_555
N10 B1 1_555 1_555
N11 N12 1_555 1_555
N12 B1 1_555 1_555
C44 N18 1_555 1_555
C46 N20 1_555 1_555
C49 N22 1_555 1_555
C54 N24 1_555 1_555
C58 C59 1_555 1_555
C64 C65 1_555 1_555
C66 N26 1_555 1_555
C70 N26 1_555 1_555
N16 C71 1_555 1_555
C74 C75 1_555 1_555
N20 N21 1_555 1_555
N22 N23 1_555 1_555
N23 B2 1_555 1_555
N24 N25 1_555 1_555
N25 B2 1_555 1_555
C86 N28 1_555 1_555
C88 N32 1_555 1_555
C91 N30 1_555 1_555
C94 N36 1_555 1_555
C98 N36 1_555 1_555
C102 C103 1_555 1_555
C112 N34 1_555 1_555
C113 C114 1_555 1_555
N30 N31 1_555 1_555
N32 N33 1_555 1_555
N33 B3 1_555 1_555
N34 N35 1_555 1_555
N35 B3 1_555 1_555
C118 C119 1_555 1_555
N39 C120 1_555 1_555
C123 C124 1_555 1_555
C131 C132 1_555 1_555
C2A N4A 1_555 1_555
C4A N9A 1_555 1_555
C7A N7A 1_555 1_555
C10A N11A 1_555 1_555
C13A N13A 1_555 1_555
C17A N13A 1_555 1_555
C18A N1A 1_555 1_555
C22A N1A 1_555 1_555
C23A N3A 1_555 1_555
C27A N3A 1_555 1_555
C28A N2A 1_555 1_555
C32A N2A 1_555 1_555
N7A N8A 1_555 1_555
N9A N10A 1_555 1_555
N10A B1A 1_555 1_555
N11A N12A 1_555 1_555
N12A B1A 1_555 1_555
C44A N18A 1_555 1_555
C46A N20A 1_555 1_555
C49A N22A 1_555 1_555
C54A N24A 1_555 1_555
C58A C59A 1_555 1_555
C64A C65A 1_555 1_555
C66A N26A 1_555 1_555
C70A N26A 1_555 1_555
N16A C71A 1_555 1_555
C74A C75A 1_555 1_555
N20A N21A 1_555 1_555
N22A N23A 1_555 1_555
N23A B2A 1_555 1_555
N24A N25A 1_555 1_555
N25A B2A 1_555 1_555
C86A N28A 1_555 1_555
C88A N32A 1_555 1_555
C91A N30A 1_555 1_555
C94A N36A 1_555 1_555
C98A N36A 1_555 1_555
N27A C99A 1_555 1_555
C102A C103A 1_555 1_555
C112A N34A 1_555 1_555
C113A C114A 1_555 1_555
N30A N31A 1_555 1_555
N32A N33A 1_555 1_555
N33A B3A 1_555 1_555
N34A N35A 1_555 1_555
N35A B3A 1_555 1_555
C118A C119A 1_555 1_555
N39A C120A 1_555 1_555
C123A C124A 1_555 1_555

#END
