# generated using pymatgen
data_Fe3Co3B3P3H150C136N41(O4F9)2
_symmetry_space_group_name_H-M   'P 1'
_cell_length_a   26.10300000
_cell_length_b   26.42814782
_cell_length_c   31.82944340
_cell_angle_alpha   102.65856605
_cell_angle_beta   102.21563058
_cell_angle_gamma   118.55651457
_symmetry_Int_Tables_number   1
_chemical_formula_structural   Fe3Co3B3P3H150C136N41(O4F9)2
_chemical_formula_sum   'Fe12 Co12 B12 P12 H600 C544 N164 O32 F72'
_cell_volume   17488.66828713
_cell_formula_units_Z   4
loop_
 _symmetry_equiv_pos_site_id
 _symmetry_equiv_pos_as_xyz
  1  'x, y, z'
loop_
 _atom_site_type_symbol
 _atom_site_label
 _atom_site_symmetry_multiplicity
 _atom_site_fract_x
 _atom_site_fract_y
 _atom_site_fract_z
 _atom_site_occupancy
  B  B1  1  0.615060  0.624960  0.253720  1.0
  B  B2  1  0.138660  0.628760  0.253720  1.0
  B  B3  1  0.384940  0.375040  0.746280  1.0
  B  B4  1  0.861340  0.371240  0.746280  1.0
  B  B5  1  0.891400  0.884100  0.258400  1.0
  B  B6  1  0.867000  0.374300  0.258400  1.0
  B  B7  1  0.108600  0.115900  0.741600  1.0
  B  B8  1  0.133000  0.625700  0.741600  1.0
  B  B9  1  0.591000  0.364000  0.240400  1.0
  B  B10  1  0.149400  0.876400  0.240400  1.0
  B  B11  1  0.409000  0.636000  0.759600  1.0
  B  B12  1  0.850600  0.123600  0.759600  1.0
  C  C13  1  0.480530  0.923430  0.237260  1
  C  C14  1  0.256730  0.313830  0.237260  1
  C  C15  1  0.519470  0.076570  0.762740  1
  C  C16  1  0.743270  0.686170  0.762740  1
  C  C17  1  0.508810  0.891310  0.241820  1
  C  C18  1  0.233010  0.350510  0.241820  1
  C  C19  1  0.491190  0.108690  0.758180  1
  C  C20  1  0.766990  0.649490  0.758180  1
  C  C21  1  0.515170  0.985470  0.243940  1
  C  C22  1  0.228770  0.258470  0.243940  1
  C  C23  1  0.484830  0.014530  0.756060  1
  C  C24  1  0.771230  0.741530  0.756060  1
  C  C25  1  0.578590  0.016490  0.255780  1
  C  C26  1  0.177190  0.239290  0.255780  1
  C  C27  1  0.421410  0.983510  0.744220  1
  C  C28  1  0.822810  0.760710  0.744220  1
  C  C29  1  0.572650  0.922550  0.253300  1
  C  C30  1  0.180650  0.330750  0.253300  1
  C  C31  1  0.427350  0.077450  0.746700  1
  C  C32  1  0.819350  0.669250  0.746700  1
  C  C33  1  0.608600  0.985600  0.261000  1
  C  C34  1  0.152400  0.275400  0.261000  1
  C  C35  1  0.391400  0.014400  0.739000  1
  C  C36  1  0.847600  0.724600  0.739000  1
  C  C37  1  0.138800  0.338900  0.951400  1
  C  C38  1  0.312600  0.612500  0.951400  1
  C  C39  1  0.861200  0.661100  0.048600  1
  C  C40  1  0.687400  0.387500  0.048600  1
  C  C41  1  0.180500  0.329900  0.990800  1
  C  C42  1  0.310300  0.660900  0.990800  1
  C  C43  1  0.819500  0.670100  0.009200  1
  C  C44  1  0.689700  0.339100  0.009200  1
  C  C45  1  0.348000  0.350500  0.866600  1
  C  C46  1  0.018600  0.516100  0.866600  1
  C  C47  1  0.652000  0.649500  0.133400  1
  C  C48  1  0.981400  0.483900  0.133400  1
  C  C49  1  0.406600  0.352000  0.867600  1
  C  C50  1  0.961000  0.515600  0.867600  1
  C  C51  1  0.593400  0.648000  0.132400  1
  C  C52  1  0.039000  0.484400  0.132400  1
  C  C53  1  0.416190  0.571590  0.188980  1.0
  C  C54  1  0.272790  0.617390  0.188980  1.0
  C  C55  1  0.583810  0.428410  0.811020  1.0
  C  C56  1  0.727210  0.382610  0.811020  1.0
  C  C57  1  0.450620  0.607820  0.280240  1.0
  C  C58  1  0.329620  0.672420  0.280240  1.0
  C  C59  1  0.549380  0.392180  0.719760  1.0
  C  C60  1  0.670380  0.327580  0.719760  1.0
  C  C61  1  0.410940  0.492940  0.226880  1.0
  C  C62  1  0.315940  0.733940  0.226880  1.0
  C  C63  1  0.589060  0.507060  0.773120  1.0
  C  C64  1  0.684060  0.266060  0.773120  1.0
  C  C65  1  0.533360  0.559860  0.326720  1.0
  C  C66  1  0.293360  0.766860  0.326720  1.0
  C  C67  1  0.466640  0.440140  0.673280  1.0
  C  C68  1  0.706640  0.233140  0.673280  1.0
  C  C69  1  0.593600  0.577700  0.354600  1.0
  C  C70  1  0.261000  0.776900  0.354600  1.0
  C  C71  1  0.406400  0.422300  0.645400  1.0
  C  C72  1  0.739000  0.223100  0.645400  1.0
  C  C73  1  0.631800  0.605700  0.333800  1.0
  C  C74  1  0.202000  0.728100  0.333800  1.0
  C  C75  1  0.368200  0.394300  0.666200  1.0
  C  C76  1  0.798000  0.271900  0.666200  1.0
  C  C77  1  0.486020  0.498820  0.151640  1.0
  C  C78  1  0.165620  0.652820  0.151640  1.0
  C  C79  1  0.513980  0.501180  0.848360  1.0
  C  C80  1  0.834380  0.347180  0.848360  1.0
  C  C81  1  0.535450  0.495950  0.142900  1.0
  C  C82  1  0.107450  0.646950  0.142900  1.0
  C  C83  1  0.464550  0.504050  0.857100  1.0
  C  C84  1  0.892550  0.353050  0.857100  1.0
  C  C85  1  0.588090  0.538690  0.177580  1.0
  C  C86  1  0.089490  0.638890  0.177580  1.0
  C  C87  1  0.411910  0.461310  0.822420  1.0
  C  C88  1  0.910510  0.361110  0.822420  1.0
  C  C89  1  0.544670  0.712870  0.242940  1.0
  C  C90  1  0.198270  0.530070  0.242940  1.0
  C  C91  1  0.455330  0.287130  0.757060  1.0
  C  C92  1  0.801730  0.469930  0.757060  1.0
  C  C93  1  0.605940  0.757740  0.249080  1.0
  C  C94  1  0.143140  0.491340  0.249080  1.0
  C  C95  1  0.394060  0.242260  0.750920  1.0
  C  C96  1  0.856860  0.508660  0.750920  1.0
  C  C97  1  0.641340  0.734040  0.254880  1.0
  C  C98  1  0.113540  0.520840  0.254880  1.0
  C  C99  1  0.358660  0.265960  0.745120  1.0
  C  C100  1  0.886460  0.479160  0.745120  1.0
  C  C101  1  0.448210  0.786110  0.428820  1.0
  C  C102  1  0.480610  0.642710  0.428820  1.0
  C  C103  1  0.551790  0.213890  0.571180  1.0
  C  C104  1  0.519390  0.357290  0.571180  1.0
  C  C105  1  0.430190  0.813190  0.456580  1.0
  C  C106  1  0.526390  0.643390  0.456580  1.0
  C  C107  1  0.569810  0.186810  0.543420  1.0
  C  C108  1  0.473610  0.356610  0.543420  1.0
  C  C109  1  0.374700  0.780400  0.462000  1.0
  C  C110  1  0.587300  0.681600  0.462000  1.0
  C  C111  1  0.625300  0.219600  0.538000  1.0
  C  C112  1  0.412700  0.318400  0.538000  1.0
  C  C113  1  0.337390  0.718290  0.435580  1.0
  C  C114  1  0.598190  0.717290  0.435580  1.0
  C  C115  1  0.662610  0.281710  0.564420  1.0
  C  C116  1  0.401810  0.282710  0.564420  1.0
  C  C117  1  0.358860  0.692260  0.408120  1.0
  C  C118  1  0.549260  0.715860  0.408120  1.0
  C  C119  1  0.641140  0.307740  0.591880  1.0
  C  C120  1  0.450740  0.284140  0.591880  1.0
  C  C121  1  0.325700  0.624800  0.382200  1.0
  C  C122  1  0.556500  0.757400  0.382200  1.0
  C  C123  1  0.674300  0.375200  0.617800  1.0
  C  C124  1  0.443500  0.242600  0.617800  1.0
  C  C125  1  0.269420  0.581220  0.384040  1.0
  C  C126  1  0.614620  0.802820  0.384040  1.0
  C  C127  1  0.730580  0.418780  0.615960  1.0
  C  C128  1  0.385380  0.197180  0.615960  1.0
  C  C129  1  0.245390  0.516690  0.362580  1.0
  C  C130  1  0.617190  0.845890  0.362580  1.0
  C  C131  1  0.754610  0.483310  0.637420  1.0
  C  C132  1  0.382810  0.154110  0.637420  1.0
  C  C133  1  0.279830  0.500630  0.339660  1.0
  C  C134  1  0.559830  0.839030  0.339660  1.0
  C  C135  1  0.720170  0.499370  0.660340  1.0
  C  C136  1  0.440170  0.160970  0.660340  1.0
  C  C137  1  0.333100  0.547500  0.338000  1.0
  C  C138  1  0.504900  0.790500  0.338000  1.0
  C  C139  1  0.666900  0.452500  0.662000  1.0
  C  C140  1  0.495100  0.209500  0.662000  1.0
  C  C141  1  0.380940  0.572140  0.059280  1.0
  C  C142  1  0.178340  0.487140  0.059280  1.0
  C  C143  1  0.619060  0.427860  0.940720  1.0
  C  C144  1  0.821660  0.512860  0.940720  1.0
  C  C145  1  0.405770  0.558070  0.028540  1.0
  C  C146  1  0.122770  0.470470  0.028540  1.0
  C  C147  1  0.594230  0.441930  0.971460  1.0
  C  C148  1  0.877230  0.529530  0.971460  1.0
  C  C149  1  0.382680  0.495980  0.002960  1.0
  C  C150  1  0.120280  0.506980  0.002960  1.0
  C  C151  1  0.617320  0.504020  0.997040  1.0
  C  C152  1  0.879720  0.493020  0.997040  1.0
  C  C153  1  0.330260  0.450960  0.008120  1.0
  C  C154  1  0.177860  0.557160  0.008120  1.0
  C  C155  1  0.669740  0.549040  0.991880  1.0
  C  C156  1  0.822140  0.442840  0.991880  1.0
  C  C157  1  0.309180  0.469380  0.040760  1.0
  C  C158  1  0.231580  0.571380  0.040760  1.0
  C  C159  1  0.690820  0.530620  0.959240  1.0
  C  C160  1  0.768420  0.428620  0.959240  1.0
  C  C161  1  0.401180  0.635880  0.087560  1.0
  C  C162  1  0.186380  0.451680  0.087560  1.0
  C  C163  1  0.598820  0.364120  0.912440  1.0
  C  C164  1  0.813620  0.548320  0.912440  1.0
  C  C165  1  0.450780  0.689780  0.087560  1.0
  C  C166  1  0.136780  0.397780  0.087560  1.0
  C  C167  1  0.549220  0.310220  0.912440  1.0
  C  C168  1  0.863220  0.602220  0.912440  1.0
  C  C169  1  0.463260  0.747160  0.113120  1.0
  C  C170  1  0.149860  0.365960  0.113120  1.0
  C  C171  1  0.536740  0.252840  0.886880  1.0
  C  C172  1  0.850140  0.634040  0.886880  1.0
  C  C173  1  0.424610  0.747710  0.136620  1.0
  C  C174  1  0.212010  0.388910  0.136620  1.0
  C  C175  1  0.575390  0.252290  0.863380  1.0
  C  C176  1  0.787990  0.611090  0.863380  1.0
  C  C177  1  0.377060  0.692260  0.135920  1.0
  C  C178  1  0.258860  0.443660  0.135920  1.0
  C  C179  1  0.622940  0.307740  0.864080  1.0
  C  C180  1  0.741140  0.556340  0.864080  1.0
  C  C181  1  0.476110  0.526010  0.335820  1.0
  C  C182  1  0.359710  0.809810  0.335820  1.0
  C  C183  1  0.523890  0.473990  0.664180  1.0
  C  C184  1  0.640290  0.190190  0.664180  1.0
  C  C185  1  0.703200  0.631600  0.345000  1.0
  C  C186  1  0.141800  0.713400  0.345000  1.0
  C  C187  1  0.296800  0.368400  0.655000  1.0
  C  C188  1  0.858200  0.286600  0.655000  1.0
  C  C189  1  0.418560  0.462160  0.121920  1.0
  C  C190  1  0.203360  0.659760  0.121920  1.0
  C  C191  1  0.581440  0.537840  0.878080  1.0
  C  C192  1  0.796640  0.340240  0.878080  1.0
  C  C193  1  0.652800  0.552800  0.187400  1.0
  C  C194  1  0.034600  0.634600  0.187400  1.0
  C  C195  1  0.347200  0.447200  0.812600  1.0
  C  C196  1  0.965400  0.365400  0.812600  1.0
  C  C197  1  0.489660  0.715860  0.232520  1.0
  C  C198  1  0.242860  0.516660  0.232520  1.0
  C  C199  1  0.510340  0.284140  0.767480  1.0
  C  C200  1  0.757140  0.483340  0.767480  1.0
  C  C201  1  0.709500  0.765500  0.264400  1.0
  C  C202  1  0.054900  0.498900  0.264400  1.0
  C  C203  1  0.290500  0.234500  0.735600  1.0
  C  C204  1  0.945100  0.501100  0.735600  1.0
  C  C205  1  0.348700  0.810900  0.490600  1.0
  C  C206  1  0.641900  0.679700  0.490600  1.0
  C  C207  1  0.651300  0.189100  0.509400  1.0
  C  C208  1  0.358100  0.320300  0.509400  1.0
  C  C209  1  0.183630  0.468630  0.362460  1.0
  C  C210  1  0.678830  0.893830  0.362460  1.0
  C  C211  1  0.816370  0.531370  0.637540  1.0
  C  C212  1  0.321170  0.106170  0.637540  1.0
  C  C213  1  0.409000  0.480300  0.967600  1.0
  C  C214  1  0.058600  0.487300  0.967600  1.0
  C  C215  1  0.591000  0.519700  0.032400  1.0
  C  C216  1  0.941400  0.512700  0.032400  1.0
  C  C217  1  0.516600  0.806200  0.115000  1.0
  C  C218  1  0.098400  0.308800  0.115000  1.0
  C  C219  1  0.483400  0.193800  0.885000  1.0
  C  C220  1  0.901600  0.691200  0.885000  1.0
  C  C221  1  0.837350  0.010250  0.216300  1.0
  C  C222  1  0.878950  0.206050  0.216300  1.0
  C  C223  1  0.162650  0.989750  0.783700  1.0
  C  C224  1  0.121050  0.793950  0.783700  1.0
  C  C225  1  0.884020  0.054020  0.307040  1.0
  C  C226  1  0.923020  0.253020  0.307040  1.0
  C  C227  1  0.115980  0.945980  0.692960  1.0
  C  C228  1  0.076980  0.746980  0.692960  1.0
  C  C229  1  0.769200  0.958200  0.265600  1.0
  C  C230  1  0.996400  0.307400  0.265600  1.0
  C  C231  1  0.230800  0.041800  0.734400  1.0
  C  C232  1  0.003600  0.692600  0.734400  1.0
  C  C233  1  0.850300  0.938500  0.348600  1.0
  C  C234  1  0.998300  0.410100  0.348600  1.0
  C  C235  1  0.149700  0.061500  0.651400  1.0
  C  C236  1  0.001700  0.589900  0.651400  1.0
  C  C237  1  0.858200  0.896900  0.362600  1.0
  C  C238  1  0.004400  0.465700  0.362600  1.0
  C  C239  1  0.141800  0.103100  0.637400  1.0
  C  C240  1  0.995600  0.534300  0.637400  1.0
  C  C241  1  0.873100  0.870600  0.331000  1.0
  C  C242  1  0.957900  0.460400  0.331000  1.0
  C  C243  1  0.126900  0.129400  0.669000  1.0
  C  C244  1  0.042100  0.539600  0.669000  1.0
  C  C245  1  0.981350  0.041550  0.258100  1.0
  C  C246  1  0.776750  0.216550  0.258100  1.0
  C  C247  1  0.018650  0.958450  0.741900  1.0
  C  C248  1  0.223250  0.783450  0.741900  1.0
  C  C249  1  0.022500  0.025100  0.253200  1.0
  C  C250  1  0.730700  0.228100  0.253200  1.0
  C  C251  1  0.977500  0.974900  0.746800  1.0
  C  C252  1  0.269300  0.771900  0.746800  1.0
  C  C253  1  0.996500  0.964300  0.252400  1.0
  C  C254  1  0.755900  0.288100  0.252400  1.0
  C  C255  1  0.003500  0.035700  0.747600  1.0
  C  C256  1  0.244100  0.711900  0.747600  1.0
  C  C257  1  0.799500  0.806200  0.178200  1.0
  C  C258  1  0.878700  0.372000  0.178200  1.0
  C  C259  1  0.200500  0.193800  0.821800  1.0
  C  C260  1  0.121300  0.628000  0.821800  1.0
  C  C261  1  0.747700  0.802600  0.151000  1.0
  C  C262  1  0.903300  0.348400  0.151000  1.0
  C  C263  1  0.252300  0.197400  0.849000  1.0
  C  C264  1  0.096700  0.651600  0.849000  1.0
  C  C265  1  0.751600  0.855600  0.171800  1.0
  C  C266  1  0.920200  0.316200  0.171800  1.0
  C  C267  1  0.248400  0.144400  0.828200  1.0
  C  C268  1  0.079800  0.683800  0.828200  1.0
  C  C269  1  0.833360  0.126560  0.068120  1.0
  C  C270  1  0.734760  0.941560  0.068120  1.0
  C  C271  1  0.166640  0.873440  0.931880  1.0
  C  C272  1  0.265240  0.058440  0.931880  1.0
  C  C273  1  0.816520  0.155220  0.041440  1.0
  C  C274  1  0.724920  0.886220  0.041440  1.0
  C  C275  1  0.183480  0.844780  0.958560  1.0
  C  C276  1  0.275080  0.113780  0.958560  1.0
  C  C277  1  0.761300  0.153100  0.037000  1.0
  C  C278  1  0.775700  0.883900  0.037000  1.0
  C  C279  1  0.238700  0.846900  0.963000  1.0
  C  C280  1  0.224300  0.116100  0.963000  1.0
  C  C281  1  0.723000  0.122300  0.059000  1.0
  C  C282  1  0.836000  0.936700  0.059000  1.0
  C  C283  1  0.277000  0.877700  0.941000  1.0
  C  C284  1  0.164000  0.063300  0.941000  1.0
  C  C285  1  0.739880  0.093680  0.085760  1.0
  C  C286  1  0.845880  0.992080  0.085760  1.0
  C  C287  1  0.260120  0.906320  0.914240  1.0
  C  C288  1  0.154120  0.007920  0.914240  1.0
  C  C289  1  0.029820  0.322220  0.459640  1.0
  C  C290  1  0.929820  0.137420  0.459640  1.0
  C  C291  1  0.970180  0.677780  0.540360  1.0
  C  C292  1  0.070180  0.862580  0.540360  1.0
  C  C293  1  0.044900  0.378800  0.488800  1.0
  C  C294  1  0.943900  0.110000  0.488800  1.0
  C  C295  1  0.955100  0.621200  0.511200  1.0
  C  C296  1  0.056100  0.890000  0.511200  1.0
  C  C297  1  0.999100  0.385100  0.495200  1.0
  C  C298  1  0.996100  0.110100  0.495200  1.0
  C  C299  1  0.000900  0.614900  0.504800  1.0
  C  C300  1  0.003900  0.889900  0.504800  1.0
  C  C301  1  0.937800  0.333900  0.470800  1.0
  C  C302  1  0.033000  0.136900  0.470800  1.0
  C  C303  1  0.062200  0.666100  0.529200  1.0
  C  C304  1  0.967000  0.863100  0.529200  1.0
  C  C305  1  0.925160  0.283260  0.441720  1.0
  C  C306  1  0.016560  0.158460  0.441720  1.0
  C  C307  1  0.074840  0.716740  0.558280  1.0
  C  C308  1  0.983440  0.841540  0.558280  1.0
  C  C309  1  0.860630  0.227230  0.414260  1.0
  C  C310  1  0.053630  0.187030  0.414260  1.0
  C  C311  1  0.139370  0.772770  0.585740  1.0
  C  C312  1  0.946370  0.812970  0.585740  1.0
  C  C313  1  0.808770  0.226970  0.416540  1.0
  C  C314  1  0.107770  0.189570  0.416540  1.0
  C  C315  1  0.191230  0.773030  0.583460  1.0
  C  C316  1  0.892230  0.810430  0.583460  1.0
  C  C317  1  0.749000  0.175000  0.390000  1.0
  C  C318  1  0.141000  0.215000  0.390000  1.0
  C  C319  1  0.251000  0.825000  0.610000  1.0
  C  C320  1  0.859000  0.785000  0.610000  1.0
  C  C321  1  0.745920  0.123820  0.365240  1.0
  C  C322  1  0.119320  0.241420  0.365240  1.0
  C  C323  1  0.254080  0.876180  0.634760  1.0
  C  C324  1  0.880680  0.758580  0.634760  1.0
  C  C325  1  0.799520  0.125520  0.363240  1.0
  C  C326  1  0.063720  0.237720  0.363240  1.0
  C  C327  1  0.200480  0.874480  0.636760  1.0
  C  C328  1  0.936280  0.762280  0.636760  1.0
  C  C329  1  0.703830  0.066630  0.113860  1.0
  C  C330  1  0.910030  0.047230  0.113860  1.0
  C  C331  1  0.296170  0.933370  0.886140  1.0
  C  C332  1  0.089970  0.952770  0.886140  1.0
  C  C333  1  0.646280  0.056980  0.112760  1.0
  C  C334  1  0.966480  0.055780  0.112760  1.0
  C  C335  1  0.353720  0.943020  0.887240  1.0
  C  C336  1  0.033520  0.944220  0.887240  1.0
  C  C337  1  0.615190  0.023690  0.137380  1.0
  C  C338  1  0.022190  0.113690  0.137380  1.0
  C  C339  1  0.384810  0.976310  0.862620  1.0
  C  C340  1  0.977810  0.886310  0.862620  1.0
  C  C341  1  0.641860  0.000260  0.163120  1.0
  C  C342  1  0.021260  0.162860  0.163120  1.0
  C  C343  1  0.358140  0.999740  0.836880  1.0
  C  C344  1  0.978740  0.837140  0.836880  1.0
  C  C345  1  0.699410  0.009910  0.164220  1.0
  C  C346  1  0.964810  0.154310  0.164220  1.0
  C  C347  1  0.300590  0.990090  0.835780  1.0
  C  C348  1  0.035190  0.845690  0.835780  1.0
  C  C349  1  0.838470  0.983470  0.373940  1.0
  C  C350  1  0.035470  0.390470  0.373940  1.0
  C  C351  1  0.161530  0.016530  0.626060  1.0
  C  C352  1  0.964530  0.609530  0.626060  1.0
  C  C353  1  0.883700  0.816400  0.327000  1.0
  C  C354  1  0.943300  0.510600  0.327000  1.0
  C  C355  1  0.116300  0.183600  0.673000  1.0
  C  C356  1  0.056700  0.489400  0.673000  1.0
  C  C357  1  0.988640  0.100440  0.261480  1.0
  C  C358  1  0.772840  0.161040  0.261480  1.0
  C  C359  1  0.011360  0.899560  0.738520  1.0
  C  C360  1  0.227160  0.838960  0.738520  1.0
  C  C361  1  0.024300  0.925900  0.253600  1.0
  C  C362  1  0.729300  0.327700  0.253600  1.0
  C  C363  1  0.975700  0.074100  0.746400  1.0
  C  C364  1  0.270700  0.672300  0.746400  1.0
  C  C365  1  0.706690  0.872790  0.157380  1.0
  C  C366  1  0.950690  0.284590  0.157380  1.0
  C  C367  1  0.293310  0.127210  0.842620  1.0
  C  C368  1  0.049310  0.715410  0.842620  1.0
  C  C369  1  0.818600  0.758300  0.164600  1.0
  C  C370  1  0.846000  0.406300  0.164600  1.0
  C  C371  1  0.181400  0.241700  0.835400  1.0
  C  C372  1  0.154000  0.593700  0.835400  1.0
  C  C373  1  0.012700  0.445600  0.529800  1.0
  C  C374  1  0.017100  0.084200  0.529800  1.0
  C  C375  1  0.987300  0.554400  0.470200  1.0
  C  C376  1  0.982900  0.915800  0.470200  1.0
  C  C377  1  0.691100  0.173700  0.391600  1.0
  C  C378  1  0.200500  0.217900  0.391600  1.0
  C  C379  1  0.308900  0.826300  0.608400  1.0
  C  C380  1  0.799500  0.782100  0.608400  1.0
  C  C381  1  0.550100  0.008600  0.138800  1.0
  C  C382  1  0.088700  0.130200  0.138800  1.0
  C  C383  1  0.449900  0.991400  0.861200  1.0
  C  C384  1  0.911300  0.869800  0.861200  1.0
  C  C385  1  0.746500  0.179400  0.001800  1.0
  C  C386  1  0.755300  0.822400  0.001800  1.0
  C  C387  1  0.253500  0.820600  0.998200  1.0
  C  C388  1  0.244700  0.177600  0.998200  1.0
  C  C389  1  0.447000  0.165100  0.203400  1.0
  C  C390  1  0.256400  0.038300  0.203400  1.0
  C  C391  1  0.553000  0.834900  0.796600  1.0
  C  C392  1  0.743600  0.961700  0.796600  1.0
  C  C393  1  0.492780  0.220780  0.294960  1.0
  C  C394  1  0.302180  0.074180  0.294960  1.0
  C  C395  1  0.507220  0.779220  0.705040  1.0
  C  C396  1  0.697820  0.925820  0.705040  1.0
  C  C397  1  0.552440  0.182840  0.253080  1.0
  C  C398  1  0.200640  0.070240  0.253080  1.0
  C  C399  1  0.447560  0.817160  0.746920  1.0
  C  C400  1  0.799360  0.929760  0.746920  1.0
  C  C401  1  0.647000  0.328000  0.336200  1.0
  C  C402  1  0.189200  0.008200  0.336200  1.0
  C  C403  1  0.353000  0.672000  0.663800  1.0
  C  C404  1  0.810800  0.991800  0.663800  1.0
  C  C405  1  0.695700  0.390900  0.352600  1.0
  C  C406  1  0.156900  0.961700  0.352600  1.0
  C  C407  1  0.304300  0.609100  0.647400  1.0
  C  C408  1  0.843100  0.038300  0.647400  1.0
  C  C409  1  0.682900  0.411900  0.320200  1.0
  C  C410  1  0.137300  0.908300  0.320200  1.0
  C  C411  1  0.317100  0.588100  0.679800  1.0
  C  C412  1  0.862700  0.091700  0.679800  1.0
  C  C413  1  0.556400  0.220500  0.161800  1.0
  C  C414  1  0.105400  0.941300  0.161800  1.0
  C  C415  1  0.443600  0.779500  0.838200  1.0
  C  C416  1  0.894600  0.058700  0.838200  1.0
  C  C417  1  0.580200  0.254200  0.134600  1.0
  C  C418  1  0.054400  0.880400  0.134600  1.0
  C  C419  1  0.419800  0.745800  0.865400  1.0
  C  C420  1  0.945600  0.119600  0.865400  1.0
  C  C421  1  0.597700  0.314300  0.161200  1.0
  C  C422  1  0.063500  0.846900  0.161200  1.0
  C  C423  1  0.402300  0.685700  0.838800  1.0
  C  C424  1  0.936500  0.153100  0.838800  1.0
  C  C425  1  0.505900  0.121800  0.350000  1.0
  C  C426  1  0.344100  0.228200  0.350000  1.0
  C  C427  1  0.494100  0.878200  0.650000  1.0
  C  C428  1  0.655900  0.771800  0.650000  1.0
  C  C429  1  0.517190  0.076290  0.347180  1.0
  C  C430  1  0.329990  0.270890  0.347180  1.0
  C  C431  1  0.482810  0.923710  0.652820  1.0
  C  C432  1  0.670010  0.729110  0.652820  1.0
  C  C433  1  0.493320  0.034620  0.366840  1.0
  C  C434  1  0.373520  0.332220  0.366840  1.0
  C  C435  1  0.506680  0.965380  0.633160  1.0
  C  C436  1  0.626480  0.667780  0.633160  1.0
  C  C437  1  0.456920  0.042920  0.391640  1.0
  C  C438  1  0.434720  0.348720  0.391640  1.0
  C  C439  1  0.543080  0.957080  0.608360  1.0
  C  C440  1  0.565280  0.651280  0.608360  1.0
  C  C441  1  0.451250  0.092150  0.395700  1.0
  C  C442  1  0.444450  0.303550  0.395700  1.0
  C  C443  1  0.548750  0.907850  0.604300  1.0
  C  C444  1  0.555550  0.696450  0.604300  1.0
  C  C445  1  0.419290  0.104390  0.425980  1.0
  C  C446  1  0.506690  0.321590  0.425980  1.0
  C  C447  1  0.580710  0.895610  0.574020  1.0
  C  C448  1  0.493310  0.678410  0.574020  1.0
  C  C449  1  0.397540  0.073340  0.454680  1.0
  C  C450  1  0.557140  0.381340  0.454680  1.0
  C  C451  1  0.602460  0.926660  0.545320  1.0
  C  C452  1  0.442860  0.618660  0.545320  1.0
  C  C453  1  0.368840  0.090740  0.481480  1.0
  C  C454  1  0.612640  0.390740  0.481480  1.0
  C  C455  1  0.631160  0.909260  0.518520  1.0
  C  C456  1  0.387360  0.609260  0.518520  1.0
  C  C457  1  0.361890  0.139290  0.479580  1.0
  C  C458  1  0.617690  0.340290  0.479580  1.0
  C  C459  1  0.638110  0.860710  0.520420  1.0
  C  C460  1  0.382310  0.659710  0.520420  1.0
  C  C461  1  0.383640  0.170340  0.450880  1.0
  C  C462  1  0.567240  0.280540  0.450880  1.0
  C  C463  1  0.616360  0.829660  0.549120  1.0
  C  C464  1  0.432760  0.719460  0.549120  1.0
  C  C465  1  0.369760  0.140160  0.072520  1.0
  C  C466  1  0.202760  0.932360  0.072520  1.0
  C  C467  1  0.630240  0.859840  0.927480  1.0
  C  C468  1  0.797240  0.067640  0.927480  1.0
  C  C469  1  0.403350  0.161750  0.044900  1.0
  C  C470  1  0.141550  0.883150  0.044900  1.0
  C  C471  1  0.596650  0.838250  0.955100  1.0
  C  C472  1  0.858450  0.116850  0.955100  1.0
  C  C473  1  0.417460  0.124760  0.018120  1.0
  C  C474  1  0.100660  0.893360  0.018120  1.0
  C  C475  1  0.582540  0.875240  0.981880  1.0
  C  C476  1  0.899340  0.106640  0.981880  1.0
  C  C477  1  0.397980  0.066080  0.018960  1.0
  C  C478  1  0.120980  0.952880  0.018960  1.0
  C  C479  1  0.602020  0.933920  0.981040  1.0
  C  C480  1  0.879020  0.047120  0.981040  1.0
  C  C481  1  0.364490  0.044490  0.046580  1.0
  C  C482  1  0.182090  0.002090  0.046580  1.0
  C  C483  1  0.635510  0.955510  0.953420  1.0
  C  C484  1  0.817910  0.997910  0.953420  1.0
  C  C485  1  0.344890  0.169790  0.097580  1.0
  C  C486  1  0.252690  0.927790  0.097580  1.0
  C  C487  1  0.655110  0.830210  0.902420  1.0
  C  C488  1  0.747310  0.072210  0.902420  1.0
  C  C489  1  0.353200  0.223000  0.097200  1.0
  C  C490  1  0.244000  0.874200  0.097200  1.0
  C  C491  1  0.646800  0.777000  0.902800  1.0
  C  C492  1  0.756000  0.125800  0.902800  1.0
  C  C493  1  0.324500  0.247300  0.119200  1.0
  C  C494  1  0.294700  0.871900  0.119200  1.0
  C  C495  1  0.675500  0.752700  0.880800  1.0
  C  C496  1  0.705300  0.128100  0.880800  1.0
  C  C497  1  0.287000  0.216200  0.140600  1.0
  C  C498  1  0.353600  0.924400  0.140600  1.0
  C  C499  1  0.713000  0.783800  0.859400  1.0
  C  C500  1  0.646400  0.075600  0.859400  1.0
  C  C501  1  0.282420  0.163220  0.140840  1.0
  C  C502  1  0.358420  0.977620  0.140840  1.0
  C  C503  1  0.717580  0.836780  0.859160  1.0
  C  C504  1  0.641580  0.022380  0.859160  1.0
  C  C505  1  0.639560  0.285060  0.358120  1.0
  C  C506  1  0.218560  0.073060  0.358120  1.0
  C  C507  1  0.360440  0.714940  0.641880  1.0
  C  C508  1  0.781440  0.926940  0.641880  1.0
  C  C509  1  0.718900  0.478900  0.322200  1.0
  C  C510  1  0.103300  0.843300  0.322200  1.0
  C  C511  1  0.281100  0.521100  0.677800  1.0
  C  C512  1  0.896700  0.156700  0.677800  1.0
  C  C513  1  0.534300  0.153100  0.147800  1.0
  C  C514  1  0.113500  0.994700  0.147800  1.0
  C  C515  1  0.465700  0.846900  0.852200  1.0
  C  C516  1  0.886500  0.005300  0.852200  1.0
  C  C517  1  0.621000  0.375400  0.148800  1.0
  C  C518  1  0.027800  0.773400  0.148800  1.0
  C  C519  1  0.379000  0.624600  0.851200  1.0
  C  C520  1  0.972200  0.226600  0.851200  1.0
  C  C521  1  0.384270  0.233370  0.249740  1.0
  C  C522  1  0.365470  0.016370  0.249740  1.0
  C  C523  1  0.615730  0.766630  0.750260  1.0
  C  C524  1  0.634530  0.983630  0.750260  1.0
  C  C525  1  0.527600  0.439600  0.239600  1.0
  C  C526  1  0.212000  0.800000  0.239600  1.0
  C  C527  1  0.472400  0.560400  0.760400  1.0
  C  C528  1  0.788000  0.200000  0.760400  1.0
  C  C529  1  0.500700  0.981700  0.362400  1.0
  C  C530  1  0.361700  0.380700  0.362400  1.0
  C  C531  1  0.499300  0.018300  0.637600  1.0
  C  C532  1  0.638300  0.619300  0.637600  1.0
  C  C533  1  0.343800  0.054100  0.513800  1.0
  C  C534  1  0.670000  0.459700  0.513800  1.0
  C  C535  1  0.656200  0.945900  0.486200  1.0
  C  C536  1  0.330000  0.540300  0.486200  1.0
  C  C537  1  0.356400  0.319000  0.126400  1.0
  C  C538  1  0.270000  0.807400  0.126400  1.0
  C  C539  1  0.643600  0.681000  0.873600  1.0
  C  C540  1  0.730000  0.192600  0.873600  1.0
  C  C541  1  0.436100  0.284900  0.245200  1.0
  C  C542  1  0.309100  0.960300  0.245200  1.0
  C  C543  1  0.563900  0.715100  0.754800  1.0
  C  C544  1  0.690900  0.039700  0.754800  1.0
  C  C545  1  0.441730  0.339430  0.244860  1.0
  C  C546  1  0.303130  0.905430  0.244860  1.0
  C  C547  1  0.558270  0.660570  0.755140  1.0
  C  C548  1  0.696870  0.094570  0.755140  1.0
  C  C549  1  0.498030  0.376930  0.240860  1.0
  C  C550  1  0.242830  0.863930  0.240860  1.0
  C  C551  1  0.501970  0.623070  0.759140  1.0
  C  C552  1  0.757170  0.136070  0.759140  1.0
  C  C553  1  0.434100  0.136200  0.976800  1.0
  C  C554  1  0.042700  0.840600  0.976800  1.0
  C  C555  1  0.565900  0.863800  0.023200  1.0
  C  C556  1  0.957300  0.159400  0.023200  1.0
  Co  Co557  1  0.428320  0.678320  0.356640  1
  Co  Co558  1  0.571680  0.321680  0.643360  1
  Co  Co559  1  0.307020  0.557020  0.114040  1
  Co  Co560  1  0.692980  0.442980  0.885960  1
  Co  Co561  1  0.941000  0.191000  0.382000  1
  Co  Co562  1  0.059000  0.809000  0.618000  1
  Co  Co563  1  0.821310  0.071310  0.142620  1
  Co  Co564  1  0.178690  0.928690  0.857380  1
  Co  Co565  1  0.436380  0.186380  0.372760  1
  Co  Co566  1  0.563620  0.813620  0.627240  1
  Co  Co567  1  0.311740  0.061740  0.123480  1
  Co  Co568  1  0.688260  0.938260  0.876520  1
  F  F569  1  0.505100  0.343500  0.011200  1
  F  F570  1  0.006100  0.667700  0.011200  1
  F  F571  1  0.494900  0.656500  0.988800  1
  F  F572  1  0.993900  0.332300  0.988800  1
  F  F573  1  0.434760  0.304960  0.949720  1
  F  F574  1  0.014960  0.644760  0.949720  1
  F  F575  1  0.565240  0.695040  0.050280  1
  F  F576  1  0.985040  0.355240  0.050280  1
  F  F577  1  0.443600  0.384200  0.009800  1
  F  F578  1  0.066200  0.625600  0.009800  1
  F  F579  1  0.556400  0.615800  0.990200  1
  F  F580  1  0.933800  0.374400  0.990200  1
  F  F581  1  0.369500  0.315900  0.987400  1
  F  F582  1  0.117900  0.671500  0.987400  1
  F  F583  1  0.630500  0.684100  0.012600  1
  F  F584  1  0.882100  0.328500  0.012600  1
  F  F585  1  0.397800  0.249200  0.986400  1
  F  F586  1  0.088600  0.737200  0.986400  1
  F  F587  1  0.602200  0.750800  0.013600  1
  F  F588  1  0.911400  0.262800  0.013600  1
  F  F589  1  0.458800  0.324800  0.051000  1
  F  F590  1  0.092200  0.726200  0.051000  1
  F  F591  1  0.541200  0.675200  0.949000  1
  F  F592  1  0.907800  0.273800  0.949000  1
  F  F593  1  0.741400  0.330600  0.493200  1
  F  F594  1  0.251800  0.162600  0.493200  1
  F  F595  1  0.258600  0.669400  0.506800  1
  F  F596  1  0.748200  0.837400  0.506800  1
  F  F597  1  0.800500  0.421000  0.544800  1
  F  F598  1  0.244300  0.123800  0.544800  1
  F  F599  1  0.199500  0.579000  0.455200  1
  F  F600  1  0.755700  0.876200  0.455200  1
  F  F601  1  0.826300  0.353700  0.549200  1
  F  F602  1  0.222900  0.195500  0.549200  1
  F  F603  1  0.173700  0.646300  0.450800  1
  F  F604  1  0.777100  0.804500  0.450800  1
  F  F605  1  0.802600  0.422900  0.474200  1
  F  F606  1  0.171600  0.051300  0.474200  1
  F  F607  1  0.197400  0.577100  0.525800  1
  F  F608  1  0.828400  0.948700  0.525800  1
  F  F609  1  0.815400  0.343600  0.483400  1
  F  F610  1  0.168000  0.139800  0.483400  1
  F  F611  1  0.184600  0.656400  0.516600  1
  F  F612  1  0.832000  0.860200  0.516600  1
  F  F613  1  0.879800  0.444700  0.530000  1
  F  F614  1  0.150200  0.085300  0.530000  1
  F  F615  1  0.120200  0.555300  0.470000  1
  F  F616  1  0.849800  0.914700  0.470000  1
  F  F617  1  0.469810  0.953110  0.522620  1.0
  F  F618  1  0.552810  0.569510  0.522620  1.0
  F  F619  1  0.530190  0.046890  0.477380  1.0
  F  F620  1  0.447190  0.430490  0.477380  1.0
  F  F621  1  0.568820  0.045020  0.547240  1.0
  F  F622  1  0.478420  0.502220  0.547240  1.0
  F  F623  1  0.431180  0.954980  0.452760  1.0
  F  F624  1  0.521580  0.497780  0.452760  1.0
  F  F625  1  0.475900  0.037600  0.525200  1.0
  F  F626  1  0.549300  0.487600  0.525200  1.0
  F  F627  1  0.524100  0.962400  0.474800  1.0
  F  F628  1  0.450700  0.512400  0.474800  1.0
  F  F629  1  0.959900  0.982900  0.949800  1.0
  F  F630  1  0.489900  0.966900  0.949800  1.0
  F  F631  1  0.040100  0.017100  0.050200  1.0
  F  F632  1  0.510100  0.033100  0.050200  1.0
  F  F633  1  0.944750  0.922850  0.996300  1.0
  F  F634  1  0.551550  0.073450  0.996300  1.0
  F  F635  1  0.055250  0.077150  0.003700  1.0
  F  F636  1  0.448450  0.926550  0.003700  1.0
  F  F637  1  0.031100  0.968100  0.978000  1.0
  F  F638  1  0.446900  0.009900  0.978000  1.0
  F  F639  1  0.968900  0.031900  0.022000  1.0
  F  F640  1  0.553100  0.990100  0.022000  1.0
  Fe  Fe641  1  0.475900  0.575180  0.236480  1.0
  Fe  Fe642  1  0.260580  0.661300  0.236480  1.0
  Fe  Fe643  1  0.524100  0.424820  0.763520  1.0
  Fe  Fe644  1  0.739420  0.338700  0.763520  1.0
  Fe  Fe645  1  0.848000  0.973690  0.261320  1.0
  Fe  Fe646  1  0.913320  0.287630  0.261320  1.0
  Fe  Fe647  1  0.152000  0.026310  0.738680  1.0
  Fe  Fe648  1  0.086680  0.712370  0.738680  1.0
  Fe  Fe649  1  0.524250  0.237370  0.247840  1.0
  Fe  Fe650  1  0.223590  0.010470  0.247840  1.0
  Fe  Fe651  1  0.475750  0.762630  0.752160  1.0
  Fe  Fe652  1  0.776410  0.989530  0.752160  1.0
  H  H653  1  0.485000  0.849000  0.237200  1
  H  H654  1  0.252200  0.388200  0.237200  1
  H  H655  1  0.515000  0.151000  0.762800  1
  H  H656  1  0.747800  0.611800  0.762800  1
  H  H657  1  0.495000  0.006500  0.240200  1
  H  H658  1  0.245200  0.233700  0.240200  1
  H  H659  1  0.505000  0.993500  0.759800  1
  H  H660  1  0.754800  0.766300  0.759800  1
  H  H661  1  0.652400  0.006800  0.269600  1
  H  H662  1  0.117200  0.262800  0.269600  1
  H  H663  1  0.347600  0.993200  0.730400  1
  H  H664  1  0.882800  0.737200  0.730400  1
  H  H665  1  0.637500  0.912400  0.263000  1
  H  H666  1  0.125500  0.350600  0.263000  1
  H  H667  1  0.362500  0.087600  0.737000  1
  H  H668  1  0.874500  0.649400  0.737000  1
  H  H669  1  0.593400  0.091800  0.259400  1
  H  H670  1  0.166000  0.167600  0.259400  1
  H  H671  1  0.406600  0.908200  0.740600  1
  H  H672  1  0.834000  0.832400  0.740600  1
  H  H673  1  0.401300  0.858100  0.222600  1
  H  H674  1  0.321300  0.364500  0.222600  1
  H  H675  1  0.598700  0.141900  0.777400  1
  H  H676  1  0.678700  0.635500  0.777400  1
  H  H677  1  0.162500  0.381500  0.953200  1
  H  H678  1  0.290700  0.571700  0.953200  1
  H  H679  1  0.837500  0.618500  0.046800  1
  H  H680  1  0.709300  0.428300  0.046800  1
  H  H681  1  0.100500  0.329900  0.956400  1
  H  H682  1  0.355900  0.626500  0.956400  1
  H  H683  1  0.899500  0.670100  0.043600  1
  H  H684  1  0.644100  0.373500  0.043600  1
  H  H685  1  0.128600  0.310900  0.921000  1
  H  H686  1  0.292400  0.610100  0.921000  1
  H  H687  1  0.871400  0.689100  0.079000  1
  H  H688  1  0.707600  0.389900  0.079000  1
  H  H689  1  0.344200  0.376800  0.850800  1
  H  H690  1  0.006600  0.474000  0.850800  1
  H  H691  1  0.655800  0.623200  0.149200  1
  H  H692  1  0.993400  0.526000  0.149200  1
  H  H693  1  0.350400  0.365500  0.898000  1
  H  H694  1  0.047600  0.532500  0.898000  1
  H  H695  1  0.649600  0.634500  0.102000  1
  H  H696  1  0.952400  0.467500  0.102000  1
  H  H697  1  0.311800  0.308300  0.850200  1
  H  H698  1  0.038400  0.541900  0.850200  1
  H  H699  1  0.688200  0.691700  0.149800  1
  H  H700  1  0.961600  0.458100  0.149800  1
  H  H701  1  0.604400  0.571300  0.382200  1.0
  H  H702  1  0.277800  0.810900  0.382200  1.0
  H  H703  1  0.395600  0.428700  0.617800  1.0
  H  H704  1  0.722200  0.189100  0.617800  1.0
  H  H705  1  0.531300  0.467900  0.116400  1.0
  H  H706  1  0.085100  0.648500  0.116400  1.0
  H  H707  1  0.468700  0.532100  0.883600  1.0
  H  H708  1  0.914900  0.351500  0.883600  1.0
  H  H709  1  0.620100  0.797800  0.249200  1.0
  H  H710  1  0.129100  0.451400  0.249200  1.0
  H  H711  1  0.379900  0.202200  0.750800  1.0
  H  H712  1  0.870900  0.548600  0.750800  1.0
  H  H713  1  0.487400  0.810600  0.426600  1.0
  H  H714  1  0.439200  0.616000  0.426600  1.0
  H  H715  1  0.512600  0.189400  0.573400  1.0
  H  H716  1  0.560800  0.384000  0.573400  1.0
  H  H717  1  0.456300  0.856300  0.473000  1.0
  H  H718  1  0.516700  0.616700  0.473000  1.0
  H  H719  1  0.543700  0.143700  0.527000  1.0
  H  H720  1  0.483300  0.383300  0.527000  1.0
  H  H721  1  0.297300  0.693800  0.436400  1.0
  H  H722  1  0.639100  0.742600  0.436400  1.0
  H  H723  1  0.702700  0.306200  0.563600  1.0
  H  H724  1  0.360900  0.257400  0.563600  1.0
  H  H725  1  0.247600  0.593800  0.399000  1.0
  H  H726  1  0.651400  0.805200  0.399000  1.0
  H  H727  1  0.752400  0.406200  0.601000  1.0
  H  H728  1  0.348600  0.194800  0.601000  1.0
  H  H729  1  0.266300  0.458900  0.326000  1.0
  H  H730  1  0.559700  0.867100  0.326000  1.0
  H  H731  1  0.733700  0.541100  0.674000  1.0
  H  H732  1  0.440300  0.132900  0.674000  1.0
  H  H733  1  0.354600  0.536900  0.321400  1.0
  H  H734  1  0.466800  0.784500  0.321400  1.0
  H  H735  1  0.645400  0.463100  0.678600  1.0
  H  H736  1  0.533200  0.215500  0.678600  1.0
  H  H737  1  0.438900  0.590400  0.024400  1.0
  H  H738  1  0.085500  0.434000  0.024400  1.0
  H  H739  1  0.561100  0.409600  0.975600  1.0
  H  H740  1  0.914500  0.566000  0.975600  1.0
  H  H741  1  0.309600  0.408700  0.989600  1.0
  H  H742  1  0.180000  0.580900  0.989600  1.0
  H  H743  1  0.690400  0.591300  0.010400  1.0
  H  H744  1  0.820000  0.419100  0.010400  1.0
  H  H745  1  0.275500  0.438300  0.045200  1.0
  H  H746  1  0.269700  0.606900  0.045200  1.0
  H  H747  1  0.724500  0.561700  0.954800  1.0
  H  H748  1  0.730300  0.393100  0.954800  1.0
  H  H749  1  0.475600  0.687500  0.070600  1.0
  H  H750  1  0.095000  0.383100  0.070600  1.0
  H  H751  1  0.524400  0.312500  0.929400  1.0
  H  H752  1  0.905000  0.616900  0.929400  1.0
  H  H753  1  0.430400  0.785400  0.153000  1.0
  H  H754  1  0.222600  0.367600  0.153000  1.0
  H  H755  1  0.569600  0.214600  0.847000  1.0
  H  H756  1  0.777400  0.632400  0.847000  1.0
  H  H757  1  0.352100  0.693700  0.153000  1.0
  H  H758  1  0.300900  0.459300  0.153000  1.0
  H  H759  1  0.647900  0.306300  0.847000  1.0
  H  H760  1  0.699100  0.540700  0.847000  1.0
  H  H761  1  0.440100  0.503000  0.307000  1.0
  H  H762  1  0.366900  0.804000  0.307000  1.0
  H  H763  1  0.559900  0.497000  0.693000  1.0
  H  H764  1  0.633100  0.196000  0.693000  1.0
  H  H765  1  0.472100  0.555200  0.357000  1.0
  H  H766  1  0.384900  0.801800  0.357000  1.0
  H  H767  1  0.527900  0.444800  0.643000  1.0
  H  H768  1  0.615100  0.198200  0.643000  1.0
  H  H769  1  0.478300  0.497400  0.349600  1.0
  H  H770  1  0.371300  0.852200  0.349600  1.0
  H  H771  1  0.521700  0.502600  0.650400  1.0
  H  H772  1  0.628700  0.147800  0.650400  1.0
  H  H773  1  0.727100  0.676600  0.355600  1.0
  H  H774  1  0.128500  0.679000  0.355600  1.0
  H  H775  1  0.272900  0.323400  0.644400  1.0
  H  H776  1  0.871500  0.321000  0.644400  1.0
  H  H777  1  0.709000  0.615000  0.317200  1.0
  H  H778  1  0.108200  0.702200  0.317200  1.0
  H  H779  1  0.291000  0.385000  0.682800  1.0
  H  H780  1  0.891800  0.297800  0.682800  1.0
  H  H781  1  0.717900  0.619300  0.369000  1.0
  H  H782  1  0.151100  0.749700  0.369000  1.0
  H  H783  1  0.282100  0.380700  0.631000  1.0
  H  H784  1  0.848900  0.250300  0.631000  1.0
  H  H785  1  0.393800  0.437800  0.137200  1.0
  H  H786  1  0.243400  0.699400  0.137200  1.0
  H  H787  1  0.606200  0.562200  0.862800  1.0
  H  H788  1  0.756600  0.300600  0.862800  1.0
  H  H789  1  0.411500  0.434600  0.092600  1.0
  H  H790  1  0.181100  0.658000  0.092600  1.0
  H  H791  1  0.588500  0.565400  0.907400  1.0
  H  H792  1  0.818900  0.342000  0.907400  1.0
  H  H793  1  0.406100  0.490100  0.116600  1.0
  H  H794  1  0.210500  0.626500  0.116600  1.0
  H  H795  1  0.593900  0.509900  0.883400  1.0
  H  H796  1  0.789500  0.373500  0.883400  1.0
  H  H797  1  0.662400  0.537100  0.210800  1.0
  H  H798  1  0.048400  0.673700  0.210800  1.0
  H  H799  1  0.337600  0.462900  0.789200  1.0
  H  H800  1  0.951600  0.326300  0.789200  1.0
  H  H801  1  0.682400  0.597300  0.198800  1.0
  H  H802  1  0.016400  0.601500  0.198800  1.0
  H  H803  1  0.317600  0.402700  0.801200  1.0
  H  H804  1  0.983600  0.398500  0.801200  1.0
  H  H805  1  0.655600  0.533100  0.159200  1.0
  H  H806  1  0.003600  0.626100  0.159200  1.0
  H  H807  1  0.344400  0.466900  0.840800  1.0
  H  H808  1  0.996400  0.373900  0.840800  1.0
  H  H809  1  0.467500  0.698300  0.199200  1.0
  H  H810  1  0.231700  0.500900  0.199200  1.0
  H  H811  1  0.532500  0.301700  0.800800  1.0
  H  H812  1  0.768300  0.499100  0.800800  1.0
  H  H813  1  0.502400  0.758900  0.244600  1.0
  H  H814  1  0.242200  0.485700  0.244600  1.0
  H  H815  1  0.497600  0.241100  0.755400  1.0
  H  H816  1  0.757800  0.514300  0.755400  1.0
  H  H817  1  0.462200  0.692500  0.246800  1.0
  H  H818  1  0.284600  0.554300  0.246800  1.0
  H  H819  1  0.537800  0.307500  0.753200  1.0
  H  H820  1  0.715400  0.445700  0.753200  1.0
  H  H821  1  0.731900  0.777100  0.297000  1.0
  H  H822  1  0.065100  0.519900  0.297000  1.0
  H  H823  1  0.268100  0.222900  0.703000  1.0
  H  H824  1  0.934900  0.480100  0.703000  1.0
  H  H825  1  0.724100  0.802400  0.256800  1.0
  H  H826  1  0.032700  0.454400  0.256800  1.0
  H  H827  1  0.275900  0.197600  0.743200  1.0
  H  H828  1  0.967300  0.545600  0.743200  1.0
  H  H829  1  0.717100  0.737500  0.245600  1.0
  H  H830  1  0.028500  0.508100  0.245600  1.0
  H  H831  1  0.282900  0.262500  0.754400  1.0
  H  H832  1  0.971500  0.491900  0.754400  1.0
  H  H833  1  0.305200  0.793900  0.472400  1.0
  H  H834  1  0.667200  0.678500  0.472400  1.0
  H  H835  1  0.694800  0.206100  0.527600  1.0
  H  H836  1  0.332800  0.321500  0.527600  1.0
  H  H837  1  0.373500  0.855500  0.498400  1.0
  H  H838  1  0.624900  0.642900  0.498400  1.0
  H  H839  1  0.626500  0.144500  0.501600  1.0
  H  H840  1  0.375100  0.357100  0.501600  1.0
  H  H841  1  0.351000  0.802400  0.518800  1.0
  H  H842  1  0.667800  0.716400  0.518800  1.0
  H  H843  1  0.649000  0.197600  0.481200  1.0
  H  H844  1  0.332200  0.283600  0.481200  1.0
  H  H845  1  0.184400  0.432800  0.364200  1.0
  H  H846  1  0.679800  0.931400  0.364200  1.0
  H  H847  1  0.815600  0.567200  0.635800  1.0
  H  H848  1  0.320200  0.068600  0.635800  1.0
  H  H849  1  0.150300  0.456100  0.334200  1.0
  H  H850  1  0.683900  0.878100  0.334200  1.0
  H  H851  1  0.849700  0.543900  0.665800  1.0
  H  H852  1  0.316100  0.121900  0.665800  1.0
  H  H853  1  0.176200  0.485900  0.389000  1.0
  H  H854  1  0.712800  0.903100  0.389000  1.0
  H  H855  1  0.823800  0.514100  0.611000  1.0
  H  H856  1  0.287200  0.096900  0.611000  1.0
  H  H857  1  0.452400  0.495100  0.983200  1.0
  H  H858  1  0.030800  0.488100  0.983200  1.0
  H  H859  1  0.547600  0.504900  0.016800  1.0
  H  H860  1  0.969200  0.511900  0.016800  1.0
  H  H861  1  0.406300  0.500000  0.945600  1.0
  H  H862  1  0.039300  0.445600  0.945600  1.0
  H  H863  1  0.593700  0.500000  0.054400  1.0
  H  H864  1  0.960700  0.554400  0.054400  1.0
  H  H865  1  0.384900  0.435700  0.951400  1.0
  H  H866  1  0.066500  0.515700  0.951400  1.0
  H  H867  1  0.615100  0.564300  0.048600  1.0
  H  H868  1  0.933500  0.484300  0.048600  1.0
  H  H869  1  0.500400  0.825700  0.098800  1.0
  H  H870  1  0.098400  0.273100  0.098800  1.0
  H  H871  1  0.499600  0.174300  0.901200  1.0
  H  H872  1  0.901600  0.726900  0.901200  1.0
  H  H873  1  0.542000  0.797400  0.100400  1.0
  H  H874  1  0.058400  0.303000  0.100400  1.0
  H  H875  1  0.458000  0.202600  0.899600  1.0
  H  H876  1  0.941600  0.697000  0.899600  1.0
  H  H877  1  0.542300  0.834100  0.147200  1.0
  H  H878  1  0.104900  0.313100  0.147200  1.0
  H  H879  1  0.457700  0.165900  0.852800  1.0
  H  H880  1  0.895100  0.686900  0.852800  1.0
  H  H881  1  0.659700  0.640900  0.259000  1.0
  H  H882  1  0.099300  0.618100  0.259000  1.0
  H  H883  1  0.340300  0.359100  0.741000  1.0
  H  H884  1  0.900700  0.381900  0.741000  1.0
  H  H885  1  0.854100  0.888500  0.389400  1.0
  H  H886  1  0.035300  0.500900  0.389400  1.0
  H  H887  1  0.145900  0.111500  0.610600  1.0
  H  H888  1  0.964700  0.499100  0.610600  1.0
  H  H889  1  0.061400  0.050100  0.251000  1.0
  H  H890  1  0.689600  0.200900  0.251000  1.0
  H  H891  1  0.938600  0.949900  0.749000  1.0
  H  H892  1  0.310400  0.799100  0.749000  1.0
  H  H893  1  0.716000  0.769700  0.123400  1.0
  H  H894  1  0.907400  0.353700  0.123400  1.0
  H  H895  1  0.284000  0.230300  0.876600  1.0
  H  H896  1  0.092600  0.646300  0.876600  1.0
  H  H897  1  0.870700  0.128000  0.071200  1.0
  H  H898  1  0.700500  0.943200  0.071200  1.0
  H  H899  1  0.129300  0.872000  0.928800  1.0
  H  H900  1  0.299500  0.056800  0.928800  1.0
  H  H901  1  0.842400  0.176000  0.026400  1.0
  H  H902  1  0.684000  0.850400  0.026400  1.0
  H  H903  1  0.157600  0.824000  0.973600  1.0
  H  H904  1  0.316000  0.149600  0.973600  1.0
  H  H905  1  0.685700  0.120900  0.056000  1.0
  H  H906  1  0.870300  0.935100  0.056000  1.0
  H  H907  1  0.314300  0.879100  0.944000  1.0
  H  H908  1  0.129700  0.064900  0.944000  1.0
  H  H909  1  0.062400  0.316800  0.457400  1.0
  H  H910  1  0.895000  0.140600  0.457400  1.0
  H  H911  1  0.937600  0.683200  0.542600  1.0
  H  H912  1  0.105000  0.859400  0.542600  1.0
  H  H913  1  0.087100  0.412400  0.504000  1.0
  H  H914  1  0.916900  0.091600  0.504000  1.0
  H  H915  1  0.912900  0.587600  0.496000  1.0
  H  H916  1  0.083100  0.908400  0.496000  1.0
  H  H917  1  0.904800  0.336400  0.475800  1.0
  H  H918  1  0.071000  0.139400  0.475800  1.0
  H  H919  1  0.095200  0.663600  0.524200  1.0
  H  H920  1  0.929000  0.860600  0.524200  1.0
  H  H921  1  0.813700  0.262500  0.436200  1.0
  H  H922  1  0.122500  0.173700  0.436200  1.0
  H  H923  1  0.186300  0.737500  0.563800  1.0
  H  H924  1  0.877500  0.826300  0.563800  1.0
  H  H925  1  0.706500  0.086300  0.349000  1.0
  H  H926  1  0.142500  0.262700  0.349000  1.0
  H  H927  1  0.293500  0.913700  0.651000  1.0
  H  H928  1  0.857500  0.737300  0.651000  1.0
  H  H929  1  0.795500  0.089900  0.344800  1.0
  H  H930  1  0.049300  0.254900  0.344800  1.0
  H  H931  1  0.204500  0.910100  0.655200  1.0
  H  H932  1  0.950700  0.745100  0.655200  1.0
  H  H933  1  0.628400  0.072900  0.095400  1.0
  H  H934  1  0.967000  0.022500  0.095400  1.0
  H  H935  1  0.371600  0.927100  0.904600  1.0
  H  H936  1  0.033000  0.977500  0.904600  1.0
  H  H937  1  0.620900  0.977800  0.179800  1.0
  H  H938  1  0.058900  0.202000  0.179800  1.0
  H  H939  1  0.379100  0.022200  0.820200  1.0
  H  H940  1  0.941100  0.798000  0.820200  1.0
  H  H941  1  0.717300  0.994000  0.181600  1.0
  H  H942  1  0.964300  0.187600  0.181600  1.0
  H  H943  1  0.282700  0.006000  0.818400  1.0
  H  H944  1  0.035700  0.812400  0.818400  1.0
  H  H945  1  0.875700  0.025100  0.385400  1.0
  H  H946  1  0.009700  0.360300  0.385400  1.0
  H  H947  1  0.124300  0.974900  0.614600  1.0
  H  H948  1  0.990300  0.639700  0.614600  1.0
  H  H949  1  0.828200  0.973400  0.399800  1.0
  H  H950  1  0.071600  0.426400  0.399800  1.0
  H  H951  1  0.171800  0.026600  0.600200  1.0
  H  H952  1  0.928400  0.573600  0.600200  1.0
  H  H953  1  0.803600  0.981200  0.353200  1.0
  H  H954  1  0.049600  0.372000  0.353200  1.0
  H  H955  1  0.196400  0.018800  0.646800  1.0
  H  H956  1  0.950400  0.628000  0.646800  1.0
  H  H957  1  0.888700  0.810000  0.356000  1.0
  H  H958  1  0.967300  0.546000  0.356000  1.0
  H  H959  1  0.111300  0.190000  0.644000  1.0
  H  H960  1  0.032700  0.454000  0.644000  1.0
  H  H961  1  0.921000  0.826900  0.320000  1.0
  H  H962  1  0.899000  0.493100  0.320000  1.0
  H  H963  1  0.079000  0.173100  0.680000  1.0
  H  H964  1  0.101000  0.506900  0.680000  1.0
  H  H965  1  0.847600  0.778600  0.302400  1.0
  H  H966  1  0.954800  0.523800  0.302400  1.0
  H  H967  1  0.152400  0.221400  0.697600  1.0
  H  H968  1  0.045200  0.476200  0.697600  1.0
  H  H969  1  0.982900  0.116800  0.289200  1.0
  H  H970  1  0.806300  0.172400  0.289200  1.0
  H  H971  1  0.017100  0.883200  0.710800  1.0
  H  H972  1  0.193700  0.827600  0.710800  1.0
  H  H973  1  0.957500  0.094300  0.234600  1.0
  H  H974  1  0.777100  0.140300  0.234600  1.0
  H  H975  1  0.042500  0.905700  0.765400  1.0
  H  H976  1  0.222900  0.859700  0.765400  1.0
  H  H977  1  0.030300  0.129500  0.263000  1.0
  H  H978  1  0.732700  0.133500  0.263000  1.0
  H  H979  1  0.969700  0.870500  0.737000  1.0
  H  H980  1  0.267300  0.866500  0.737000  1.0
  H  H981  1  0.991300  0.882300  0.237000  1.0
  H  H982  1  0.745700  0.354700  0.237000  1.0
  H  H983  1  0.008700  0.117700  0.763000  1.0
  H  H984  1  0.254300  0.645300  0.763000  1.0
  H  H985  1  0.044300  0.932800  0.285600  1.0
  H  H986  1  0.741300  0.352800  0.285600  1.0
  H  H987  1  0.955700  0.067200  0.714400  1.0
  H  H988  1  0.258700  0.647200  0.714400  1.0
  H  H989  1  0.055200  0.937800  0.239200  1.0
  H  H990  1  0.684000  0.301400  0.239200  1.0
  H  H991  1  0.944800  0.062200  0.760800  1.0
  H  H992  1  0.316000  0.698600  0.760800  1.0
  H  H993  1  0.726800  0.909400  0.149800  1.0
  H  H994  1  0.923000  0.240400  0.149800  1.0
  H  H995  1  0.273200  0.090600  0.850200  1.0
  H  H996  1  0.077000  0.759600  0.850200  1.0
  H  H997  1  0.692700  0.881400  0.182400  1.0
  H  H998  1  0.989700  0.301000  0.182400  1.0
  H  H999  1  0.307300  0.118600  0.817600  1.0
  H  H1000  1  0.010300  0.699000  0.817600  1.0
  H  H1001  1  0.670900  0.838800  0.130400  1.0
  H  H1002  1  0.959500  0.291600  0.130400  1.0
  H  H1003  1  0.329100  0.161200  0.869600  1.0
  H  H1004  1  0.040500  0.708400  0.869600  1.0
  H  H1005  1  0.811700  0.746000  0.131800  1.0
  H  H1006  1  0.820100  0.385800  0.131800  1.0
  H  H1007  1  0.188300  0.254000  0.868200  1.0
  H  H1008  1  0.179900  0.614200  0.868200  1.0
  H  H1009  1  0.793200  0.721900  0.171000  1.0
  H  H1010  1  0.877800  0.449100  0.171000  1.0
  H  H1011  1  0.206800  0.278100  0.829000  1.0
  H  H1012  1  0.122200  0.550900  0.829000  1.0
  H  H1013  1  0.862600  0.777400  0.182600  1.0
  H  H1014  1  0.820000  0.405200  0.182600  1.0
  H  H1015  1  0.137400  0.222600  0.817400  1.0
  H  H1016  1  0.180000  0.594800  0.817400  1.0
  H  H1017  1  0.056300  0.478500  0.539000  1.0
  H  H1018  1  0.982700  0.060500  0.539000  1.0
  H  H1019  1  0.943700  0.521500  0.461000  1.0
  H  H1020  1  0.017300  0.939500  0.461000  1.0
  H  H1021  1  0.004100  0.438500  0.556800  1.0
  H  H1022  1  0.052700  0.118300  0.556800  1.0
  H  H1023  1  0.995900  0.561500  0.443200  1.0
  H  H1024  1  0.947300  0.881700  0.443200  1.0
  H  H1025  1  0.986000  0.457400  0.514800  1.0
  H  H1026  1  0.028800  0.057400  0.514800  1.0
  H  H1027  1  0.014000  0.542600  0.485200  1.0
  H  H1028  1  0.971200  0.942600  0.485200  1.0
  H  H1029  1  0.667700  0.169800  0.361600  1.0
  H  H1030  1  0.193900  0.191800  0.361600  1.0
  H  H1031  1  0.332300  0.830200  0.638400  1.0
  H  H1032  1  0.806100  0.808200  0.638400  1.0
  H  H1033  1  0.703300  0.211900  0.415200  1.0
  H  H1034  1  0.211900  0.203300  0.415200  1.0
  H  H1035  1  0.296700  0.788100  0.584800  1.0
  H  H1036  1  0.788100  0.796700  0.584800  1.0
  H  H1037  1  0.665000  0.138600  0.399000  1.0
  H  H1038  1  0.234000  0.260400  0.399000  1.0
  H  H1039  1  0.335000  0.861400  0.601000  1.0
  H  H1040  1  0.766000  0.739600  0.601000  1.0
  H  H1041  1  0.531600  0.973400  0.148200  1.0
  H  H1042  1  0.116600  0.174800  0.148200  1.0
  H  H1043  1  0.468400  0.026600  0.851800  1.0
  H  H1044  1  0.883400  0.825200  0.851800  1.0
  H  H1045  1  0.522600  0.998500  0.108200  1.0
  H  H1046  1  0.085600  0.109700  0.108200  1.0
  H  H1047  1  0.477400  0.001500  0.891800  1.0
  H  H1048  1  0.914400  0.890300  0.891800  1.0
  H  H1049  1  0.555700  0.044400  0.160800  1.0
  H  H1050  1  0.105100  0.116400  0.160800  1.0
  H  H1051  1  0.444300  0.955600  0.839200  1.0
  H  H1052  1  0.894900  0.883600  0.839200  1.0
  H  H1053  1  0.905600  0.855400  0.257400  1.0
  H  H1054  1  0.851800  0.402000  0.257400  1.0
  H  H1055  1  0.094400  0.144600  0.742600  1.0
  H  H1056  1  0.148200  0.598000  0.742600  1.0
  H  H1057  1  0.754100  0.164500  0.974600  1.0
  H  H1058  1  0.720500  0.810100  0.974600  1.0
  H  H1059  1  0.245900  0.835500  0.025400  1.0
  H  H1060  1  0.279500  0.189900  0.025400  1.0
  H  H1061  1  0.773200  0.224400  0.015400  1.0
  H  H1062  1  0.742200  0.791000  0.015400  1.0
  H  H1063  1  0.226800  0.775600  0.984600  1.0
  H  H1064  1  0.257800  0.209000  0.984600  1.0
  H  H1065  1  0.702900  0.166300  0.993000  1.0
  H  H1066  1  0.790100  0.826700  0.993000  1.0
  H  H1067  1  0.297100  0.833700  0.007000  1.0
  H  H1068  1  0.209900  0.173300  0.007000  1.0
  H  H1069  1  0.730300  0.413600  0.380800  1.0
  H  H1070  1  0.150500  0.967200  0.380800  1.0
  H  H1071  1  0.269700  0.586400  0.619200  1.0
  H  H1072  1  0.849500  0.032800  0.619200  1.0
  H  H1073  1  0.583500  0.240400  0.106000  1.0
  H  H1074  1  0.022500  0.865600  0.106000  1.0
  H  H1075  1  0.416500  0.759600  0.894000  1.0
  H  H1076  1  0.977500  0.134400  0.894000  1.0
  H  H1077  1  0.521200  0.147800  0.333600  1.0
  H  H1078  1  0.312400  0.185800  0.333600  1.0
  H  H1079  1  0.478800  0.852200  0.666400  1.0
  H  H1080  1  0.687600  0.814200  0.666400  1.0
  H  H1081  1  0.542600  0.073900  0.331000  1.0
  H  H1082  1  0.288400  0.257100  0.331000  1.0
  H  H1083  1  0.457400  0.926100  0.669000  1.0
  H  H1084  1  0.711600  0.742900  0.669000  1.0
  H  H1085  1  0.436900  0.014600  0.405200  1.0
  H  H1086  1  0.468300  0.390600  0.405200  1.0
  H  H1087  1  0.563100  0.985400  0.594800  1.0
  H  H1088  1  0.531700  0.609400  0.594800  1.0
  H  H1089  1  0.402300  0.040500  0.456000  1.0
  H  H1090  1  0.553700  0.415500  0.456000  1.0
  H  H1091  1  0.597700  0.959500  0.544000  1.0
  H  H1092  1  0.446300  0.584500  0.544000  1.0
  H  H1093  1  0.342400  0.151100  0.497800  1.0
  H  H1094  1  0.655400  0.346700  0.497800  1.0
  H  H1095  1  0.657600  0.848900  0.502200  1.0
  H  H1096  1  0.344600  0.653300  0.502200  1.0
  H  H1097  1  0.378900  0.203100  0.449600  1.0
  H  H1098  1  0.570700  0.246500  0.449600  1.0
  H  H1099  1  0.621100  0.796900  0.550400  1.0
  H  H1100  1  0.429300  0.753500  0.550400  1.0
  H  H1101  1  0.416500  0.201500  0.044400  1.0
  H  H1102  1  0.127900  0.842900  0.044400  1.0
  H  H1103  1  0.583500  0.798500  0.955600  1.0
  H  H1104  1  0.872100  0.157100  0.955600  1.0
  H  H1105  1  0.407500  0.041000  0.000800  1.0
  H  H1106  1  0.093300  0.959800  0.000800  1.0
  H  H1107  1  0.592500  0.959000  0.999200  1.0
  H  H1108  1  0.906700  0.040200  0.999200  1.0
  H  H1109  1  0.351400  0.004900  0.047200  1.0
  H  H1110  1  0.195800  0.042300  0.047200  1.0
  H  H1111  1  0.648600  0.995100  0.952800  1.0
  H  H1112  1  0.804200  0.957700  0.952800  1.0
  H  H1113  1  0.378400  0.244500  0.082000  1.0
  H  H1114  1  0.203600  0.837500  0.082000  1.0
  H  H1115  1  0.621600  0.755500  0.918000  1.0
  H  H1116  1  0.796400  0.162500  0.918000  1.0
  H  H1117  1  0.265700  0.230800  0.154400  1.0
  H  H1118  1  0.388700  0.923600  0.154400  1.0
  H  H1119  1  0.734300  0.769200  0.845600  1.0
  H  H1120  1  0.611300  0.076400  0.845600  1.0
  H  H1121  1  0.260200  0.142800  0.157800  1.0
  H  H1122  1  0.397600  0.015000  0.157800  1.0
  H  H1123  1  0.739800  0.857200  0.842200  1.0
  H  H1124  1  0.602400  0.985000  0.842200  1.0
  H  H1125  1  0.604200  0.274500  0.368000  1.0
  H  H1126  1  0.263800  0.093500  0.368000  1.0
  H  H1127  1  0.395800  0.725500  0.632000  1.0
  H  H1128  1  0.736200  0.906500  0.632000  1.0
  H  H1129  1  0.677400  0.303500  0.384800  1.0
  H  H1130  1  0.207400  0.081300  0.384800  1.0
  H  H1131  1  0.322600  0.696500  0.615200  1.0
  H  H1132  1  0.792600  0.918700  0.615200  1.0
  H  H1133  1  0.631900  0.247800  0.336600  1.0
  H  H1134  1  0.204700  0.088800  0.336600  1.0
  H  H1135  1  0.368100  0.752200  0.663400  1.0
  H  H1136  1  0.795300  0.911200  0.663400  1.0
  H  H1137  1  0.690600  0.492800  0.317600  1.0
  H  H1138  1  0.127000  0.824800  0.317600  1.0
  H  H1139  1  0.309400  0.507200  0.682400  1.0
  H  H1140  1  0.873000  0.175200  0.682400  1.0
  H  H1141  1  0.736500  0.480700  0.298200  1.0
  H  H1142  1  0.061700  0.817500  0.298200  1.0
  H  H1143  1  0.263500  0.519300  0.701800  1.0
  H  H1144  1  0.938300  0.182500  0.701800  1.0
  H  H1145  1  0.752700  0.505800  0.352400  1.0
  H  H1146  1  0.099700  0.846600  0.352400  1.0
  H  H1147  1  0.247300  0.494200  0.647600  1.0
  H  H1148  1  0.900300  0.153400  0.647600  1.0
  H  H1149  1  0.567100  0.148200  0.142200  1.0
  H  H1150  1  0.075100  0.994000  0.142200  1.0
  H  H1151  1  0.432900  0.851800  0.857800  1.0
  H  H1152  1  0.924900  0.006000  0.857800  1.0
  H  H1153  1  0.497000  0.128800  0.119800  1.0
  H  H1154  1  0.122800  0.991000  0.119800  1.0
  H  H1155  1  0.503000  0.871200  0.880200  1.0
  H  H1156  1  0.877200  0.009000  0.880200  1.0
  H  H1157  1  0.524500  0.138900  0.172400  1.0
  H  H1158  1  0.147900  0.033500  0.172400  1.0
  H  H1159  1  0.475500  0.861100  0.827600  1.0
  H  H1160  1  0.852100  0.966500  0.827600  1.0
  H  H1161  1  0.665800  0.396700  0.155400  1.0
  H  H1162  1  0.989600  0.758700  0.155400  1.0
  H  H1163  1  0.334200  0.603300  0.844600  1.0
  H  H1164  1  0.010400  0.241300  0.844600  1.0
  H  H1165  1  0.612700  0.402800  0.167400  1.0
  H  H1166  1  0.054700  0.764600  0.167400  1.0
  H  H1167  1  0.387300  0.597200  0.832600  1.0
  H  H1168  1  0.945300  0.235400  0.832600  1.0
  H  H1169  1  0.598800  0.363700  0.116200  1.0
  H  H1170  1  0.017400  0.752500  0.116200  1.0
  H  H1171  1  0.401200  0.636300  0.883800  1.0
  H  H1172  1  0.982600  0.247500  0.883800  1.0
  H  H1173  1  0.378200  0.194700  0.232200  1.0
  H  H1174  1  0.354000  0.037500  0.232200  1.0
  H  H1175  1  0.621800  0.805300  0.767800  1.0
  H  H1176  1  0.646000  0.962500  0.767800  1.0
  H  H1177  1  0.346300  0.232600  0.238000  1.0
  H  H1178  1  0.391700  0.005400  0.238000  1.0
  H  H1179  1  0.653700  0.767400  0.762000  1.0
  H  H1180  1  0.608300  0.994600  0.762000  1.0
  H  H1181  1  0.393700  0.238600  0.282200  1.0
  H  H1182  1  0.388500  0.043600  0.282200  1.0
  H  H1183  1  0.606300  0.761400  0.717800  1.0
  H  H1184  1  0.611500  0.956400  0.717800  1.0
  H  H1185  1  0.530300  0.437600  0.209400  1.0
  H  H1186  1  0.179100  0.771800  0.209400  1.0
  H  H1187  1  0.469700  0.562400  0.790600  1.0
  H  H1188  1  0.820900  0.228200  0.790600  1.0
  H  H1189  1  0.569500  0.466200  0.263200  1.0
  H  H1190  1  0.193700  0.797000  0.263200  1.0
  H  H1191  1  0.430500  0.533800  0.736800  1.0
  H  H1192  1  0.806300  0.203000  0.736800  1.0
  H  H1193  1  0.502800  0.456400  0.245400  1.0
  H  H1194  1  0.242600  0.789000  0.245400  1.0
  H  H1195  1  0.497200  0.543600  0.754600  1.0
  H  H1196  1  0.757400  0.211000  0.754600  1.0
  H  H1197  1  0.464400  0.944800  0.337400  1.0
  H  H1198  1  0.373000  0.392600  0.337400  1.0
  H  H1199  1  0.535600  0.055200  0.662600  1.0
  H  H1200  1  0.627000  0.607400  0.662600  1.0
  H  H1201  1  0.504400  0.974500  0.391200  1.0
  H  H1202  1  0.386800  0.416700  0.391200  1.0
  H  H1203  1  0.495600  0.025500  0.608800  1.0
  H  H1204  1  0.613200  0.583300  0.608800  1.0
  H  H1205  1  0.538200  0.991200  0.355800  1.0
  H  H1206  1  0.317600  0.364600  0.355800  1.0
  H  H1207  1  0.461800  0.008800  0.644200  1.0
  H  H1208  1  0.682400  0.635400  0.644200  1.0
  H  H1209  1  0.378300  0.070100  0.542400  1.0
  H  H1210  1  0.664100  0.472300  0.542400  1.0
  H  H1211  1  0.621700  0.929900  0.457600  1.0
  H  H1212  1  0.335900  0.527700  0.457600  1.0
  H  H1213  1  0.325900  0.010300  0.497800  1.0
  H  H1214  1  0.671900  0.487500  0.497800  1.0
  H  H1215  1  0.674100  0.989700  0.502200  1.0
  H  H1216  1  0.328100  0.512500  0.502200  1.0
  H  H1217  1  0.311800  0.059500  0.520600  1.0
  H  H1218  1  0.708800  0.461100  0.520600  1.0
  H  H1219  1  0.688200  0.940500  0.479400  1.0
  H  H1220  1  0.291200  0.538900  0.479400  1.0
  H  H1221  1  0.365900  0.325200  0.099400  1.0
  H  H1222  1  0.233500  0.774200  0.099400  1.0
  H  H1223  1  0.634100  0.674800  0.900600  1.0
  H  H1224  1  0.766500  0.225800  0.900600  1.0
  H  H1225  1  0.394900  0.343900  0.153600  1.0
  H  H1226  1  0.258700  0.809700  0.153600  1.0
  H  H1227  1  0.605100  0.656100  0.846400  1.0
  H  H1228  1  0.741300  0.190300  0.846400  1.0
  H  H1229  1  0.327900  0.331500  0.130800  1.0
  H  H1230  1  0.302900  0.799300  0.130800  1.0
  H  H1231  1  0.672100  0.668500  0.869200  1.0
  H  H1232  1  0.697100  0.200700  0.869200  1.0
  H  H1233  1  0.412000  0.349300  0.247000  1.0
  H  H1234  1  0.335000  0.897700  0.247000  1.0
  H  H1235  1  0.588000  0.650700  0.753000  1.0
  H  H1236  1  0.665000  0.102300  0.753000  1.0
  H  H1237  1  0.612500  0.405100  0.237800  1.0
  H  H1238  1  0.125300  0.832700  0.237800  1.0
  H  H1239  1  0.387500  0.594900  0.762200  1.0
  H  H1240  1  0.874700  0.167300  0.762200  1.0
  H  H1241  1  0.459600  0.120300  0.971000  1.0
  H  H1242  1  0.011400  0.850700  0.971000  1.0
  H  H1243  1  0.540400  0.879700  0.029000  1.0
  H  H1244  1  0.988600  0.149300  0.029000  1.0
  H  H1245  1  0.457500  0.180500  0.983400  1.0
  H  H1246  1  0.025900  0.802900  0.983400  1.0
  H  H1247  1  0.542500  0.819500  0.016600  1.0
  H  H1248  1  0.974100  0.197100  0.016600  1.0
  H  H1249  1  0.395900  0.115300  0.949800  1.0
  H  H1250  1  0.053900  0.834500  0.949800  1.0
  H  H1251  1  0.604100  0.884700  0.050200  1.0
  H  H1252  1  0.946100  0.165500  0.050200  1.0
  N  N1253  1  0.173400  0.284100  0.006000  1
  N  N1254  1  0.332600  0.721900  0.006000  1
  N  N1255  1  0.826600  0.715900  0.994000  1
  N  N1256  1  0.667400  0.278100  0.994000  1
  N  N1257  1  0.436000  0.339000  0.886000  1
  N  N1258  1  0.950000  0.547000  0.886000  1
  N  N1259  1  0.564000  0.661000  0.114000  1
  N  N1260  1  0.050000  0.453000  0.114000  1
  N  N1261  1  0.355760  0.607260  0.358920  1.0
  N  N1262  1  0.503160  0.751660  0.358920  1.0
  N  N1263  1  0.644240  0.392740  0.641080  1.0
  N  N1264  1  0.496840  0.248340  0.641080  1.0
  N  N1265  1  0.365240  0.637240  0.112280  1.0
  N  N1266  1  0.247040  0.475040  0.112280  1.0
  N  N1267  1  0.634760  0.362760  0.887720  1.0
  N  N1268  1  0.752960  0.524960  0.887720  1.0
  N  N1269  1  0.332910  0.527010  0.066020  1.0
  N  N1270  1  0.233110  0.539010  0.066020  1.0
  N  N1271  1  0.667090  0.472990  0.933980  1.0
  N  N1272  1  0.766890  0.460990  0.933980  1.0
  N  N1273  1  0.438010  0.628010  0.309220  1.0
  N  N1274  1  0.371210  0.681210  0.309220  1.0
  N  N1275  1  0.561990  0.371990  0.690780  1.0
  N  N1276  1  0.628790  0.318790  0.690780  1.0
  N  N1277  1  0.375820  0.567020  0.160240  1.0
  N  N1278  1  0.284420  0.593220  0.160240  1.0
  N  N1279  1  0.624180  0.432980  0.839760  1.0
  N  N1280  1  0.715580  0.406780  0.839760  1.0
  N  N1281  1  0.369040  0.443140  0.219280  1.0
  N  N1282  1  0.350240  0.776140  0.219280  1.0
  N  N1283  1  0.630960  0.556860  0.780720  1.0
  N  N1284  1  0.649760  0.223860  0.780720  1.0
  N  N1285  1  0.509690  0.543790  0.192380  1.0
  N  N1286  1  0.182690  0.648590  0.192380  1.0
  N  N1287  1  0.490310  0.456210  0.807620  1.0
  N  N1288  1  0.817310  0.351410  0.807620  1.0
  N  N1289  1  0.574080  0.569780  0.209160  1.0
  N  N1290  1  0.135080  0.639380  0.209160  1.0
  N  N1291  1  0.425920  0.430220  0.790840  1.0
  N  N1292  1  0.864920  0.360620  0.790840  1.0
  N  N1293  1  0.536830  0.577330  0.289260  1.0
  N  N1294  1  0.252430  0.711930  0.289260  1.0
  N  N1295  1  0.463170  0.422670  0.710740  1.0
  N  N1296  1  0.747570  0.288070  0.710740  1.0
  N  N1297  1  0.599450  0.605850  0.293100  1.0
  N  N1298  1  0.193650  0.687250  0.293100  1.0
  N  N1299  1  0.400550  0.394150  0.706900  1.0
  N  N1300  1  0.806350  0.312750  0.706900  1.0
  N  N1301  1  0.542860  0.661560  0.244720  1.0
  N  N1302  1  0.201860  0.583160  0.244720  1.0
  N  N1303  1  0.457140  0.338440  0.755280  1.0
  N  N1304  1  0.798140  0.416840  0.755280  1.0
  N  N1305  1  0.603360  0.675260  0.252120  1.0
  N  N1306  1  0.148760  0.576860  0.252120  1.0
  N  N1307  1  0.396640  0.324740  0.747880  1.0
  N  N1308  1  0.851240  0.423140  0.747880  1.0
  N  N1309  1  0.413710  0.726310  0.404020  1.0
  N  N1310  1  0.490310  0.677710  0.404020  1.0
  N  N1311  1  0.586290  0.273690  0.595980  1.0
  N  N1312  1  0.509690  0.322290  0.595980  1.0
  N  N1313  1  0.795050  0.095750  0.090300  1.0
  N  N1314  1  0.795250  0.994550  0.090300  1.0
  N  N1315  1  0.204950  0.904250  0.909700  1.0
  N  N1316  1  0.204750  0.005450  0.909700  1.0
  N  N1317  1  0.730490  0.043190  0.139580  1.0
  N  N1318  1  0.909090  0.096390  0.139580  1.0
  N  N1319  1  0.269510  0.956810  0.860420  1.0
  N  N1320  1  0.090910  0.903610  0.860420  1.0
  N  N1321  1  0.832490  0.033290  0.190780  1.0
  N  N1322  1  0.858290  0.157490  0.190780  1.0
  N  N1323  1  0.167510  0.966710  0.809220  1.0
  N  N1324  1  0.141710  0.842510  0.809220  1.0
  N  N1325  1  0.902230  0.102730  0.333060  1.0
  N  N1326  1  0.930830  0.230330  0.333060  1.0
  N  N1327  1  0.097770  0.897270  0.666940  1.0
  N  N1328  1  0.069170  0.769670  0.666940  1.0
  N  N1329  1  0.723890  0.950190  0.267980  1.0
  N  N1330  1  0.044090  0.317790  0.267980  1.0
  N  N1331  1  0.276110  0.049810  0.732020  1.0
  N  N1332  1  0.955910  0.682210  0.732020  1.0
  N  N1333  1  0.859590  0.936690  0.307380  1.0
  N  N1334  1  0.947790  0.370690  0.307380  1.0
  N  N1335  1  0.140410  0.063310  0.692620  1.0
  N  N1336  1  0.052210  0.629310  0.692620  1.0
  N  N1337  1  0.874180  0.894080  0.297360  1.0
  N  N1338  1  0.923180  0.403280  0.297360  1.0
  N  N1339  1  0.125820  0.105920  0.702640  1.0
  N  N1340  1  0.076820  0.596720  0.702640  1.0
  N  N1341  1  0.930360  0.992160  0.258920  1.0
  N  N1342  1  0.828560  0.266760  0.258920  1.0
  N  N1343  1  0.069640  0.007840  0.741080  1.0
  N  N1344  1  0.171440  0.733240  0.741080  1.0
  N  N1345  1  0.941080  0.945880  0.256360  1.0
  N  N1346  1  0.815280  0.310480  0.256360  1.0
  N  N1347  1  0.058920  0.054120  0.743640  1.0
  N  N1348  1  0.184720  0.689520  0.743640  1.0
  N  N1349  1  0.804070  0.890570  0.211340  1.0
  N  N1350  1  0.907270  0.320770  0.211340  1.0
  N  N1351  1  0.195930  0.109430  0.788660  1.0
  N  N1352  1  0.092730  0.679230  0.788660  1.0
  N  N1353  1  0.832690  0.857990  0.213380  1.0
  N  N1354  1  0.880690  0.355390  0.213380  1.0
  N  N1355  1  0.167310  0.142010  0.786620  1.0
  N  N1356  1  0.119310  0.644610  0.786620  1.0
  N  N1357  1  0.856270  0.176970  0.387140  1.0
  N  N1358  1  0.030870  0.210170  0.387140  1.0
  N  N1359  1  0.143730  0.823030  0.612860  1.0
  N  N1360  1  0.969130  0.789830  0.612860  1.0
  N  N1361  1  0.970230  0.275030  0.434460  1.0
  N  N1362  1  0.964230  0.159430  0.434460  1.0
  N  N1363  1  0.029770  0.724970  0.565540  1.0
  N  N1364  1  0.035770  0.840570  0.565540  1.0
  N  N1365  1  0.412340  0.152840  0.424080  1.0
  N  N1366  1  0.511740  0.271240  0.424080  1.0
  N  N1367  1  0.587660  0.847160  0.575920  1.0
  N  N1368  1  0.488260  0.728760  0.575920  1.0
  N  N1369  1  0.350480  0.081580  0.073360  1.0
  N  N1370  1  0.222880  0.991780  0.073360  1.0
  N  N1371  1  0.649520  0.918420  0.926640  1.0
  N  N1372  1  0.777120  0.008220  0.926640  1.0
  N  N1373  1  0.473230  0.211430  0.324460  1.0
  N  N1374  1  0.351230  0.113030  0.324460  1.0
  N  N1375  1  0.526770  0.788570  0.675540  1.0
  N  N1376  1  0.648770  0.886970  0.675540  1.0
  N  N1377  1  0.399900  0.122200  0.174200  1.0
  N  N1378  1  0.274300  0.052000  0.174200  1.0
  N  N1379  1  0.600100  0.877800  0.825800  1.0
  N  N1380  1  0.725700  0.948000  0.825800  1.0
  N  N1381  1  0.555660  0.253860  0.197320  1.0
  N  N1382  1  0.141660  0.943460  0.197320  1.0
  N  N1383  1  0.444340  0.746140  0.802680  1.0
  N  N1384  1  0.858340  0.056540  0.802680  1.0
  N  N1385  1  0.580970  0.313770  0.197540  1.0
  N  N1386  1  0.116570  0.883770  0.197540  1.0
  N  N1387  1  0.419030  0.686230  0.802460  1.0
  N  N1388  1  0.883430  0.116230  0.802460  1.0
  N  N1389  1  0.606170  0.312870  0.292940  1.0
  N  N1390  1  0.186770  0.980070  0.292940  1.0
  N  N1391  1  0.393830  0.687130  0.707060  1.0
  N  N1392  1  0.813230  0.019930  0.707060  1.0
  N  N1393  1  0.629050  0.365350  0.283900  1.0
  N  N1394  1  0.154850  0.918550  0.283900  1.0
  N  N1395  1  0.370950  0.634650  0.716100  1.0
  N  N1396  1  0.845150  0.081450  0.716100  1.0
  N  N1397  1  0.489760  0.289660  0.242520  1.0
  N  N1398  1  0.252760  0.952860  0.242520  1.0
  N  N1399  1  0.510240  0.710340  0.757480  1.0
  N  N1400  1  0.747240  0.047140  0.757480  1.0
  N  N1401  1  0.527010  0.345210  0.239620  1.0
  N  N1402  1  0.212610  0.894410  0.239620  1.0
  N  N1403  1  0.472990  0.654790  0.760380  1.0
  N  N1404  1  0.787390  0.105590  0.760380  1.0
  N  N1405  1  0.473530  0.131230  0.375460  1.0
  N  N1406  1  0.401930  0.244230  0.375460  1.0
  N  N1407  1  0.526470  0.868770  0.624540  1.0
  N  N1408  1  0.598070  0.755770  0.624540  1.0
  N  N1409  1  0.307050  0.138050  0.118700  1.0
  N  N1410  1  0.311650  0.980650  0.118700  1.0
  N  N1411  1  0.692950  0.861950  0.881300  1.0
  N  N1412  1  0.688350  0.019350  0.881300  1.0
  N  N1413  1  0.565110  0.147310  0.257420  1.0
  N  N1414  1  0.192310  0.110110  0.257420  1.0
  N  N1415  1  0.434890  0.852690  0.742580  1.0
  N  N1416  1  0.807690  0.889890  0.742580  1.0
  O  O1417  1  0.599130  0.889400  0.256220  1
  O  O1418  1  0.157090  0.366820  0.256220  1
  O  O1419  1  0.400870  0.110600  0.743780  1
  O  O1420  1  0.842910  0.633180  0.743780  1
  O  O1421  1  0.615440  0.077340  0.263040  1
  O  O1422  1  0.147600  0.185700  0.263040  1
  O  O1423  1  0.384560  0.922660  0.736960  1
  O  O1424  1  0.852400  0.814300  0.736960  1
  O  O1425  1  0.417400  0.895150  0.225820  1
  O  O1426  1  0.308420  0.330670  0.225820  1
  O  O1427  1  0.582600  0.104850  0.774180  1
  O  O1428  1  0.691580  0.669330  0.774180  1
  O  O1429  1  0.151900  0.578500  0.620800  1
  O  O1430  1  0.968900  0.042300  0.620800  1
  O  O1431  1  0.848100  0.421500  0.379200  1
  O  O1432  1  0.031100  0.957700  0.379200  1
  O  O1433  1  0.721600  0.073600  0.617600  1
  O  O1434  1  0.396000  0.544000  0.617600  1
  O  O1435  1  0.278400  0.926400  0.382400  1
  O  O1436  1  0.604000  0.456000  0.382400  1
  O  O1437  1  0.128500  0.793600  0.456600  1
  O  O1438  1  0.828100  0.663000  0.456600  1
  O  O1439  1  0.871500  0.206400  0.543400  1
  O  O1440  1  0.171900  0.337000  0.543400  1
  O  O1441  1  0.638600  0.182800  0.071800  1
  O  O1442  1  0.933200  0.889000  0.071800  1
  O  O1443  1  0.361400  0.817200  0.928200  1
  O  O1444  1  0.066800  0.111000  0.928200  1
  O  O1445  1  0.216700  0.874900  0.504400  1
  O  O1446  1  0.787700  0.629500  0.504400  1
  O  O1447  1  0.783300  0.125100  0.495600  1
  O  O1448  1  0.212300  0.370500  0.495600  1
  P  P1449  1  0.500000  0.000000  0.500000  1
  P  P1450  1  0.500000  0.500000  0.500000  1
  P  P1451  1  0.433330  0.316330  0.998660  1
  P  P1452  1  0.065330  0.682330  0.998660  1
  P  P1453  1  0.566670  0.683670  0.001340  1
  P  P1454  1  0.934670  0.317670  0.001340  1
  P  P1455  1  0.000000  0.000000  0.000000  1
  P  P1456  1  0.500000  0.000000  0.000000  1
  P  P1457  1  0.810370  0.382070  0.512340  1
  P  P1458  1  0.201970  0.130270  0.512340  1
  P  P1459  1  0.189630  0.617930  0.487660  1
  P  P1460  1  0.798030  0.869730  0.487660  1
