
#######################################################################
#
#                 Cambridge Crystallographic Data Centre
#                                CCDC 
#
#######################################################################
#
# If this CIF has been generated from an entry in the Cambridge 
# Structural Database, then it will include bibliographic, chemical, 
# crystal, experimental, refinement or atomic coordinate data resulting 
# from the CCDC's data processing and validation procedures.
#
#######################################################################

data_XAVNIU01
_chemical_formula_moiety         
'C84 H92 B2 Co2 Fe2 N26 2+,0.67(C6 H6 O3),2(F6 P1 1-),1.33(C2 H3 N1),2.67(H2 O1)'
_chemical_name_systematic        
"tetrakis(\m-cyano)-dicyano-tetrakis(4,4'-dimethyl-2,2'-bipyridine)-bis(hydrogen tris(3,5-dimethylpyrazolyl)borate)-di-cobalt-di-iron bis(hexafluorophosphate) benzene-1,3,5-triol acetonitrile unknown solvate hydrate"
_symmetry_cell_setting           monoclinic
_symmetry_space_group_name_H-M   'C 2/c'
_symmetry_Int_Tables_number      15
_space_group_name_Hall           '-C 2yn'
loop_
_symmetry_equiv_pos_site_id
_symmetry_equiv_pos_as_xyz
1 x,y,z
2 -x,y,1/2-z
3 1/2+x,1/2+y,z
4 1/2-x,1/2+y,1/2-z
5 -x,-y,-z
6 x,-y,1/2+z
7 1/2-x,1/2-y,-z
8 1/2+x,1/2-y,1/2+z
_cell_length_a                   26.838(4)
_cell_length_b                   57.725(10)
_cell_length_c                   26.103(4)
_cell_angle_alpha                90
_cell_angle_beta                 120.125(2)
_cell_angle_gamma                90
_cell_volume                     34977.3
_exptl_crystal_colour            red
_exptl_crystal_description       platy
_cell_formula_units_Z            12
loop_
_atom_site_label
_atom_site_type_symbol
_atom_site_fract_x
_atom_site_fract_y
_atom_site_fract_z
Fe1 Fe 0.95694(3) 0.38176(2) 0.09928(4)
Co1 Co 1.0000 0.32168(2) 0.2500
Co2 Co 1.0000 0.44298(2) 0.2500
C1 C 0.9771(2) 0.40551(10) 0.1554(3)
C2 C 0.9677(2) 0.35988(9) 0.1572(3)
C3 C 0.8795(3) 0.38656(11) 0.0820(3)
C4 C 0.8965(4) 0.33664(14) 0.0265(4)
C5 C 0.9004(5) 0.3227(2) -0.0159(5)
H1 H 0.8802 0.3089 -0.0331
C6 C 0.9388(6) 0.3331(2) -0.0261(4)
C7 C 0.9230(3) 0.42418(13) 0.0128(3)
C8 C 0.9245(4) 0.42855(18) -0.0395(4)
H2 H 0.9097 0.4418 -0.0634
C9 C 0.9499(4) 0.41121(19) -0.0494(4)
C10 C 1.0914(3) 0.37853(11) 0.1682(3)
C11 C 1.1332(3) 0.37546(14) 0.1518(4)
H3 H 1.1732 0.3754 0.1777
C12 C 1.1066(4) 0.37256(16) 0.0927(4)
C13 C 1.0717(4) 0.28559(14) 0.3379(4)
H4 H 1.0973 0.2867 0.3232
C14 C 1.0849(5) 0.27171(15) 0.3830(5)
H5 H 1.1198 0.2635 0.4000
C15 C 1.0494(6) 0.2690(2) 0.4057(5)
C16 C 1.0005(5) 0.28221(16) 0.3809(5)
H6 H 0.9756 0.2818 0.3965
C17 C 0.9882(4) 0.29594(12) 0.3334(4)
C18 C 0.9337(4) 0.30890(13) 0.2991(4)
C19 C 0.8892(5) 0.30798(15) 0.3118(5)
H7 H 0.8943 0.3005 0.3462
C20 C 0.8354(5) 0.31871(16) 0.2713(7)
C21 C 0.8308(4) 0.33017(13) 0.2208(5)
H8 H 0.7959 0.3370 0.1926
C22 C 0.8785(4) 0.33100(12) 0.2144(4)
H9 H 0.8762 0.3393 0.1823
C23 C 1.0425(4) 0.47036(13) 0.1912(4)
C24 C 1.0438(4) 0.48573(17) 0.1523(5)
H10 H 1.0782 0.4878 0.1515
C25 C 0.9945(6) 0.49852(17) 0.1133(5)
C26 C 0.9469(5) 0.49594(16) 0.1207(5)
H11 H 0.9139 0.5052 0.0991
C27 C 0.9490(4) 0.47962(13) 0.1602(4)
H12 H 0.9157 0.4774 0.1628
C28 C 1.0921(3) 0.45622(13) 0.2347(4)
C29 C 1.1460(4) 0.45622(14) 0.2390(4)
H13 H 1.1522 0.4647 0.2119
C30 C 1.1906(3) 0.44344(14) 0.2839(4)
C31 C 1.1794(3) 0.43169(13) 0.3231(4)
H14 H 1.2089 0.4235 0.3550
C32 C 1.1243(3) 0.43204(11) 0.3152(3)
H15 H 1.1172 0.4235 0.3416
C33 C 0.8581(4) 0.33209(15) 0.0499(4)
H16 H 0.8495 0.3465 0.0629
H17 H 0.8767 0.3215 0.0831
H18 H 0.8226 0.3252 0.0191
C34 C 0.9591(6) 0.3275(3) -0.0716(6)
H19 H 0.9988 0.3222 -0.0505
H20 H 0.9564 0.3414 -0.0940
H21 H 0.9348 0.3155 -0.0986
C35 C 0.9012(3) 0.43904(13) 0.0436(4)
H22 H 0.8692 0.4314 0.0440
H23 H 0.8883 0.4537 0.0231
H24 H 0.9318 0.4417 0.0840
C36 C 0.9591(6) 0.4063(2) -0.1000(4)
H25 H 0.9317 0.3946 -0.1253
H26 H 0.9979 0.4006 -0.0851
H27 H 0.9535 0.4204 -0.1225
C37 C 1.0996(3) 0.38374(12) 0.2262(3)
H28 H 1.0987 0.4004 0.2308
H29 H 1.1366 0.3777 0.2565
H30 H 1.0691 0.3766 0.2303
C38 C 1.1333(4) 0.3678(2) 0.0560(5)
H31 H 1.1286 0.3515 0.0452
H32 H 1.1740 0.3716 0.0783
H33 H 1.1147 0.3772 0.0204
C39 C 1.0656(8) 0.2547(3) 0.4622(7)
H34 H 1.0577 0.2638 0.4887
H35 H 1.1063 0.2508 0.4820
H36 H 1.0430 0.2406 0.4514
C40 C 0.7874(6) 0.31877(19) 0.2850(7)
H37 H 0.7507 0.3179 0.2484
H38 H 0.7890 0.3329 0.3058
H39 H 0.7914 0.3055 0.3097
C41 C 0.9965(6) 0.5162(2) 0.0713(6)
H40 H 1.0035 0.5084 0.0427
H41 H 1.0272 0.5272 0.0937
H42 H 0.9600 0.5243 0.0508
C42 C 1.2487(4) 0.4425(2) 0.2896(6)
H43 H 1.2763 0.4506 0.3253
H44 H 1.2472 0.4498 0.2554
H45 H 1.2605 0.4264 0.2918
N1 N 0.9278(3) 0.32054(9) 0.2515(3)
N2 N 1.0811(2) 0.44386(9) 0.2720(3)
N3 N 0.9940(3) 0.46699(9) 0.1941(3)
N4 N 0.9734(2) 0.34539(8) 0.1900(2)
N5 N 0.9869(2) 0.41988(8) 0.1912(2)
N6 N 0.8335(2) 0.39036(10) 0.0741(3)
N7 N 0.9476(2) 0.40381(10) 0.0341(2)
N8 N 0.9652(2) 0.39542(12) -0.0043(2)
N9 N 0.9327(2) 0.35537(10) 0.0405(2)
N10 N 0.9593(3) 0.35345(12) 0.0064(3)
N11 N 1.0392(2) 0.37764(9) 0.1187(2)
N12 N 1.0492(3) 0.37394(11) 0.0719(3)
N13 N 1.0243(3) 0.29799(9) 0.3126(3)
B1 B 0.9981(4) 0.37314(19) 0.0099(4)
H46 H 1.0114 0.3705 -0.0188
Fe1A Fe 1.04306(3) 0.38176(2) 0.40072(4)
C1A C 1.0229(2) 0.40551(10) 0.3446(3)
C2A C 1.0323(2) 0.35988(9) 0.3428(3)
C3A C 1.1205(3) 0.38656(11) 0.4180(3)
C4A C 1.1035(4) 0.33664(14) 0.4735(4)
C5A C 1.0996(5) 0.3227(2) 0.5159(5)
H1A H 1.1198 0.3089 0.5331
C6A C 1.0612(6) 0.3331(2) 0.5261(4)
C7A C 1.0770(3) 0.42418(13) 0.4872(3)
C8A C 1.0755(4) 0.42855(18) 0.5395(4)
H2A H 1.0903 0.4418 0.5634
C9A C 1.0501(4) 0.41121(19) 0.5494(4)
C10A C 0.9086(3) 0.37853(11) 0.3318(3)
C11A C 0.8668(3) 0.37546(14) 0.3482(4)
H3A H 0.8268 0.3754 0.3223
C12A C 0.8934(4) 0.37256(16) 0.4073(4)
C13A C 0.9283(4) 0.28559(14) 0.1621(4)
H4A H 0.9027 0.2867 0.1768
C14A C 0.9151(5) 0.27171(15) 0.1170(5)
H5A H 0.8802 0.2635 0.1000
C15A C 0.9506(6) 0.2690(2) 0.0943(5)
C16A C 0.9995(5) 0.28221(16) 0.1191(5)
H6A H 1.0244 0.2818 0.1035
C17A C 1.0118(4) 0.29594(12) 0.1666(4)
C18A C 1.0663(4) 0.30890(13) 0.2009(4)
C19A C 1.1108(5) 0.30798(15) 0.1882(5)
H7A H 1.1057 0.3005 0.1538
C20A C 1.1646(5) 0.31871(16) 0.2287(7)
C21A C 1.1692(4) 0.33017(13) 0.2792(5)
H8A H 1.2041 0.3370 0.3074
C22A C 1.1215(4) 0.33100(12) 0.2856(4)
H9A H 1.1238 0.3393 0.3177
C23A C 0.9575(4) 0.47036(13) 0.3088(4)
C24A C 0.9562(4) 0.48573(17) 0.3477(5)
H10A H 0.9218 0.4878 0.3485
C25A C 1.0055(6) 0.49852(17) 0.3867(5)
C26A C 1.0531(5) 0.49594(16) 0.3793(5)
H11A H 1.0861 0.5052 0.4009
C27A C 1.0510(4) 0.47962(13) 0.3398(4)
H12A H 1.0843 0.4774 0.3372
C28A C 0.9079(3) 0.45622(13) 0.2653(4)
C29A C 0.8540(4) 0.45622(14) 0.2610(4)
H13A H 0.8478 0.4647 0.2881
C30A C 0.8094(3) 0.44344(14) 0.2161(4)
C31A C 0.8206(3) 0.43169(13) 0.1769(4)
H14A H 0.7911 0.4235 0.1450
C32A C 0.8757(3) 0.43204(11) 0.1848(3)
H15A H 0.8828 0.4235 0.1584
C33A C 1.1419(4) 0.33209(15) 0.4501(4)
H16A H 1.1505 0.3465 0.4371
H17A H 1.1233 0.3215 0.4169
H18A H 1.1774 0.3252 0.4809
C34A C 1.0409(6) 0.3275(3) 0.5716(6)
H19A H 1.0012 0.3222 0.5505
H20A H 1.0436 0.3414 0.5940
H21A H 1.0652 0.3155 0.5986
C35A C 1.0988(3) 0.43904(13) 0.4564(4)
H22A H 1.1308 0.4314 0.4560
H23A H 1.1117 0.4537 0.4769
H24A H 1.0682 0.4417 0.4160
C36A C 1.0409(6) 0.4063(2) 0.6000(4)
H25A H 1.0683 0.3946 0.6253
H26A H 1.0021 0.4006 0.5851
H27A H 1.0465 0.4204 0.6225
C37A C 0.9004(3) 0.38374(12) 0.2738(3)
H28A H 0.9013 0.4004 0.2692
H29A H 0.8634 0.3777 0.2435
H30A H 0.9309 0.3766 0.2697
C38A C 0.8667(4) 0.3678(2) 0.4440(5)
H31A H 0.8714 0.3515 0.4548
H32A H 0.8260 0.3716 0.4217
H33A H 0.8853 0.3772 0.4796
C39A C 0.9344(8) 0.2547(3) 0.0378(7)
H34A H 0.9423 0.2638 0.0113
H35A H 0.8937 0.2508 0.0180
H36A H 0.9570 0.2406 0.0486
C40A C 1.2126(6) 0.31877(19) 0.2150(7)
H37A H 1.2493 0.3179 0.2516
H38A H 1.2110 0.3329 0.1942
H39A H 1.2086 0.3055 0.1903
C41A C 1.0035(6) 0.5162(2) 0.4287(6)
H40A H 0.9965 0.5084 0.4573
H41A H 0.9728 0.5272 0.4063
H42A H 1.0400 0.5243 0.4492
C42A C 0.7513(4) 0.4425(2) 0.2104(6)
H43A H 0.7237 0.4506 0.1747
H44A H 0.7528 0.4498 0.2446
H45A H 0.7395 0.4264 0.2082
N1A N 1.0722(3) 0.32054(9) 0.2485(3)
N2A N 0.9189(2) 0.44386(9) 0.2280(3)
N3A N 1.0060(3) 0.46699(9) 0.3059(3)
N4A N 1.0266(2) 0.34539(8) 0.3100(2)
N5A N 1.0131(2) 0.41988(8) 0.3088(2)
N6A N 1.1665(2) 0.39036(10) 0.4259(3)
N7A N 1.0524(2) 0.40381(10) 0.4659(2)
N8A N 1.0348(2) 0.39542(12) 0.5043(2)
N9A N 1.0673(2) 0.35537(10) 0.4595(2)
N10A N 1.0407(3) 0.35345(12) 0.4936(3)
N11A N 0.9608(2) 0.37764(9) 0.3813(2)
N12A N 0.9508(3) 0.37394(11) 0.4281(3)
N13A N 0.9757(3) 0.29799(9) 0.1874(3)
B1A B 1.0019(4) 0.37314(19) 0.4901(4)
H46A H 0.9886 0.3705 0.5188
Fe2 Fe 0.34303(4) 0.36934(2) 0.12569(4)
Co3 Co 0.5000 0.30900(2) 0.2500
Co4 Co 0.5000 0.42869(2) 0.2500
C43 C 0.4021(3) 0.39185(12) 0.1729(3)
C44 C 0.4005(3) 0.34648(12) 0.1700(3)
C45 C 0.3254(3) 0.36720(13) 0.1890(3)
C46 C 0.2642(5) 0.3257(2) 0.0882(6)
C47 C 0.2156(7) 0.3187(3) 0.0387(8)
H47 H 0.1938 0.3053 0.0344
C48 C 0.2051(7) 0.3345(5) -0.0025(6)
C49 C 0.4125(4) 0.37095(14) 0.0602(4)
C50 C 0.3985(6) 0.3734(2) 0.0026(5)
H48 H 0.4246 0.3745 -0.0113
C51 C 0.3381(7) 0.3738(3) -0.0322(5)
C52 C 0.2171(5) 0.4109(3) 0.0067(6)
C53 C 0.2271(5) 0.4245(2) 0.0549(8)
H49 H 0.2080 0.4383 0.0537
C54 C 0.2697(4) 0.4141(2) 0.1040(5)
N14 N 0.5506(3) 0.45485(12) 0.3007(5)
C55 C 0.5925(5) 0.46594(17) 0.2932(5)
H50 H 0.5924 0.4644 0.2573
C56 C 0.6345(4) 0.47928(19) 0.3387(6)
H51 H 0.6628 0.4868 0.3336
C57 C 0.6346(5) 0.4815(2) 0.3918(6)
C58 C 0.5928(6) 0.4705(2) 0.3993(5)
H52 H 0.5929 0.4720 0.4352
C59 C 0.5508(4) 0.45712(15) 0.3538(5)
C60 C 0.5924(5) 0.27018(15) 0.2924(5)
H53 H 0.5881 0.2713 0.2544
C61 C 0.6344(8) 0.2556(2) 0.3339(8)
H54 H 0.6604 0.2480 0.3253
C62 C 0.6375(8) 0.2524(2) 0.3860(8)
C63 C 0.5985(7) 0.2646(2) 0.3961(7)
H55 H 0.5985 0.2621 0.4316
C64 C 0.5624(5) 0.27914(15) 0.3581(5)
C65 C 0.5201(4) 0.29287(14) 0.3666(4)
C66 C 0.5187(5) 0.29173(15) 0.4182(4)
H56 H 0.5444 0.2819 0.4488
C67 C 0.4800(5) 0.30500(16) 0.4260(4)
C68 C 0.4412(4) 0.31738(14) 0.3779(4)
H57 H 0.4118 0.3255 0.3798
C69 C 0.4439(4) 0.31838(12) 0.3260(4)
H58 H 0.4175 0.3276 0.2944
N15 N 0.4734(3) 0.43021(9) 0.3127(3)
C70 C 0.5097(3) 0.44307(10) 0.3628(4)
C71 C 0.5006(4) 0.44362(13) 0.4107(3)
H59 H 0.5252 0.4523 0.4445
C72 C 0.4550(5) 0.43131(14) 0.4085(3)
C73 C 0.4187(3) 0.41844(11) 0.3584(4)
H60 H 0.3879 0.4101 0.3569
C74 C 0.4278(2) 0.41789(9) 0.3105(3)
H61 H 0.4032 0.4092 0.2767
C75 C 0.2965(5) 0.31303(19) 0.1450(6)
H62 H 0.3324 0.3073 0.1494
H63 H 0.2735 0.3001 0.1452
H64 H 0.3046 0.3234 0.1776
C76 C 0.1529(6) 0.3365(3) -0.0673(6)
H65 H 0.1320 0.3220 -0.0787
H66 H 0.1669 0.3400 -0.0941
H67 H 0.1274 0.3488 -0.0690
C77 C 0.4697(4) 0.36926(13) 0.1118(4)
H68 H 0.4722 0.3554 0.1339
H69 H 0.4770 0.3827 0.1368
H70 H 0.4980 0.3685 0.0992
C78 C 0.2991(7) 0.3732(3) -0.0984(5)
H71 H 0.2638 0.3815 -0.1090
H72 H 0.2900 0.3572 -0.1115
H73 H 0.3182 0.3804 -0.1174
C79 C 0.2941(4) 0.42131(18) 0.1661(6)
H74 H 0.3345 0.4251 0.1826
H75 H 0.2902 0.4088 0.1887
H76 H 0.2736 0.4348 0.1679
C80 C 0.1760(6) 0.4177(3) -0.0603(6)
H77 H 0.1801 0.4341 -0.0657
H78 H 0.1364 0.4145 -0.0713
H79 H 0.1861 0.4087 -0.0852
C81 C 0.6807(11) 0.2351(4) 0.4329(10)
H80 H 0.7090 0.2305 0.4222
H81 H 0.6601 0.2216 0.4344
H82 H 0.7000 0.2426 0.4714
C82 C 0.4779(6) 0.3042(2) 0.4826(5)
H83 H 0.4890 0.3192 0.5021
H84 H 0.5043 0.2924 0.5086
H85 H 0.4391 0.3005 0.4736
C83 C 0.4392(10) 0.4306(2) 0.4585(7)
H86 H 0.3993 0.4259 0.4418
H87 H 0.4444 0.4459 0.4759
H88 H 0.4640 0.4196 0.4887
N16 N 0.4379(3) 0.40461(10) 0.2008(3)
N17 N 0.4362(3) 0.33347(10) 0.2005(3)
N18 N 0.3162(3) 0.36601(13) 0.2263(3)
N19 N 0.2830(3) 0.34631(14) 0.0771(3)
N20 N 0.2454(3) 0.35132(19) 0.0199(4)
N21 N 0.3627(3) 0.37054(11) 0.0618(3)
N22 N 0.3177(3) 0.37182(15) 0.0048(3)
N23 N 0.2849(3) 0.39433(14) 0.0865(3)
N24 N 0.2513(3) 0.39331(18) 0.0253(3)
N25 N 0.4834(3) 0.30643(9) 0.3207(3)
N26 N 0.5578(4) 0.28277(10) 0.3048(3)
B2 B 0.2549(5) 0.3708(3) -0.0073(5)
H89 H 0.2267 0.3713 -0.0502
C84 C 0.6785(10) 0.4991(4) 0.4329(11)
H90 H 0.6772 0.5127 0.4104
H91 H 0.7167 0.4923 0.4512
H92 H 0.6698 0.5035 0.4634
Fe2A Fe 0.65697(4) 0.36934(2) 0.37431(4)
C43A C 0.5979(3) 0.39185(12) 0.3271(3)
C44A C 0.5995(3) 0.34648(12) 0.3300(3)
C45A C 0.6746(3) 0.36720(13) 0.3110(3)
C46A C 0.7358(5) 0.3257(2) 0.4118(6)
C47A C 0.7844(7) 0.3187(3) 0.4613(8)
H47A H 0.8062 0.3053 0.4656
C48A C 0.7949(7) 0.3345(5) 0.5025(6)
C49A C 0.5875(4) 0.37095(14) 0.4398(4)
C50A C 0.6015(6) 0.3734(2) 0.4974(5)
H48A H 0.5754 0.3745 0.5113
C51A C 0.6619(7) 0.3738(3) 0.5322(5)
C52A C 0.7829(5) 0.4109(3) 0.4933(6)
C53A C 0.7729(5) 0.4245(2) 0.4451(8)
H49A H 0.7920 0.4383 0.4463
C54A C 0.7303(4) 0.4141(2) 0.3960(5)
N14A N 0.4494(3) 0.45485(12) 0.1993(5)
C55A C 0.4075(5) 0.46594(17) 0.2068(5)
H50A H 0.4076 0.4644 0.2427
C56A C 0.3655(4) 0.47928(19) 0.1613(6)
H51A H 0.3372 0.4868 0.1664
C57A C 0.3654(5) 0.4815(2) 0.1082(6)
C58A C 0.4072(6) 0.4705(2) 0.1007(5)
H52A H 0.4071 0.4720 0.0648
C59A C 0.4492(4) 0.45712(15) 0.1462(5)
C60A C 0.4076(5) 0.27018(15) 0.2076(5)
H53A H 0.4119 0.2713 0.2456
C61A C 0.3656(8) 0.2556(2) 0.1661(8)
H54A H 0.3396 0.2480 0.1747
C62A C 0.3625(8) 0.2524(2) 0.1140(8)
C63A C 0.4015(7) 0.2646(2) 0.1039(7)
H55A H 0.4015 0.2621 0.0684
C64A C 0.4376(5) 0.27914(15) 0.1419(5)
C65A C 0.4799(4) 0.29287(14) 0.1334(4)
C66A C 0.4813(5) 0.29173(15) 0.0818(4)
H56A H 0.4556 0.2819 0.0512
C67A C 0.5200(5) 0.30500(16) 0.0740(4)
C68A C 0.5588(4) 0.31738(14) 0.1221(4)
H57A H 0.5882 0.3255 0.1202
C69A C 0.5561(4) 0.31838(12) 0.1740(4)
H58A H 0.5825 0.3276 0.2056
N15A N 0.5266(3) 0.43021(9) 0.1873(3)
C70A C 0.4903(3) 0.44307(10) 0.1372(4)
C71A C 0.4994(4) 0.44362(13) 0.0893(3)
H59A H 0.4748 0.4523 0.0555
C72A C 0.5450(5) 0.43131(14) 0.0915(3)
C73A C 0.5813(3) 0.41844(11) 0.1416(4)
H60A H 0.6121 0.4101 0.1431
C74A C 0.5722(2) 0.41789(9) 0.1895(3)
H61A H 0.5968 0.4092 0.2233
C75A C 0.7035(5) 0.31303(19) 0.3550(6)
H62A H 0.6676 0.3073 0.3506
H63A H 0.7265 0.3001 0.3548
H64A H 0.6954 0.3234 0.3224
C76A C 0.8471(6) 0.3365(3) 0.5673(6)
H65A H 0.8680 0.3220 0.5787
H66A H 0.8331 0.3400 0.5941
H67A H 0.8726 0.3488 0.5690
C77A C 0.5303(4) 0.36926(13) 0.3882(4)
H68A H 0.5278 0.3554 0.3661
H69A H 0.5230 0.3827 0.3632
H70A H 0.5020 0.3685 0.4008
C78A C 0.7009(7) 0.3732(3) 0.5984(5)
H71A H 0.7362 0.3815 0.6090
H72A H 0.7100 0.3572 0.6115
H73A H 0.6818 0.3804 0.6174
C79A C 0.7059(4) 0.42131(18) 0.3339(6)
H74A H 0.6655 0.4251 0.3174
H75A H 0.7098 0.4088 0.3113
H76A H 0.7264 0.4348 0.3321
C80A C 0.8240(6) 0.4177(3) 0.5603(6)
H77A H 0.8199 0.4341 0.5657
H78A H 0.8636 0.4145 0.5713
H79A H 0.8139 0.4087 0.5852
C81A C 0.3193(11) 0.2351(4) 0.0671(10)
H80A H 0.2910 0.2305 0.0778
H81A H 0.3399 0.2216 0.0656
H82A H 0.3000 0.2426 0.0286
C82A C 0.5221(6) 0.3042(2) 0.0174(5)
H83A H 0.5110 0.3192 -0.0021
H84A H 0.4957 0.2924 -0.0086
H85A H 0.5609 0.3005 0.0264
C83A C 0.5608(10) 0.4306(2) 0.0415(7)
H86A H 0.6007 0.4259 0.0582
H87A H 0.5556 0.4459 0.0241
H88A H 0.5360 0.4196 0.0113
N16A N 0.5621(3) 0.40461(10) 0.2992(3)
N17A N 0.5638(3) 0.33347(10) 0.2995(3)
N18A N 0.6838(3) 0.36601(13) 0.2737(3)
N19A N 0.7170(3) 0.34631(14) 0.4229(3)
N20A N 0.7546(3) 0.35132(19) 0.4801(4)
N21A N 0.6373(3) 0.37054(11) 0.4382(3)
N22A N 0.6823(3) 0.37182(15) 0.4952(3)
N23A N 0.7151(3) 0.39433(14) 0.4135(3)
N24A N 0.7487(3) 0.39331(18) 0.4747(3)
N25A N 0.5166(3) 0.30643(9) 0.1793(3)
N26A N 0.4422(4) 0.28277(10) 0.1952(3)
B2A B 0.7451(5) 0.3708(3) 0.5073(5)
H89A H 0.7733 0.3713 0.5502
C84A C 0.3215(10) 0.4991(4) 0.0671(11)
H90A H 0.3228 0.5127 0.0896
H91A H 0.2833 0.4923 0.0488
H92A H 0.3302 0.5035 0.0366
Fe3 Fe 0.61345(4) 0.37608(2) 0.71312(4)
Co5 Co 0.5000 0.31362(2) 0.7500
Co6 Co 0.5000 0.43826(2) 0.7500
C85 C 0.5634(3) 0.39830(12) 0.7181(3)
C86 C 0.5733(3) 0.35252(12) 0.7280(3)
C87 C 0.5563(3) 0.37346(13) 0.6304(3)
C88 C 0.6599(4) 0.3319(2) 0.6810(4)
C89 C 0.7146(6) 0.3237(3) 0.6952(6)
H93 H 0.7232 0.3096 0.6833
C90 C 0.7518(5) 0.3399(3) 0.7290(5)
C91 C 0.6396(4) 0.4191(2) 0.6641(5)
C92 C 0.6869(9) 0.4327(4) 0.6740(9)
H94 H 0.6874 0.4470 0.6569
C93 C 0.7337(6) 0.4194(3) 0.7166(7)
C94 C 0.4468(4) 0.32500(14) 0.6159(4)
H95 H 0.4810 0.3332 0.6266
C95 C 0.4027(4) 0.32641(14) 0.5591(4)
H96 H 0.4084 0.3345 0.5313
C96 C 0.3512(5) 0.31658(18) 0.5413(5)
C97 C 0.3471(5) 0.30418(18) 0.5860(6)
H97 H 0.3120 0.2974 0.5777
C98 C 0.3943(4) 0.30215(15) 0.6409(5)
N27 N 0.4408(3) 0.28796(8) 0.7405(3)
C99 C 0.3914(3) 0.28701(11) 0.6851(3)
C100 C 0.3460(3) 0.27266(14) 0.6758(3)
H98 H 0.3125 0.2720 0.6382
C101 C 0.3500(3) 0.25926(13) 0.7219(5)
C102 C 0.3995(4) 0.26021(11) 0.7774(4)
H99 H 0.4022 0.2511 0.8087
C103 C 0.4449(3) 0.27456(11) 0.7867(3)
H100 H 0.4783 0.2752 0.8242
N28 N 0.5449(3) 0.46332(10) 0.7311(4)
C104 C 0.6039(4) 0.46374(13) 0.7704(4)
C105 C 0.6393(3) 0.47755(19) 0.7584(5)
H101 H 0.6793 0.4778 0.7850
C106 C 0.6157(5) 0.49094(19) 0.7073(6)
C107 C 0.5566(5) 0.49052(17) 0.6681(4)
H102 H 0.5406 0.4996 0.6335
C108 C 0.5212(3) 0.47671(14) 0.6800(4)
H103 H 0.4813 0.4764 0.6535
C109 C 0.6210(4) 0.45121(16) 0.8249(6)
C110 C 0.6744(5) 0.4514(3) 0.8698(11)
H104 H 0.7035 0.4590 0.8661
C111 C 0.6877(5) 0.4404(2) 0.9228(9)
C112 C 0.6459(5) 0.42970(17) 0.9292(6)
H105 H 0.6536 0.4228 0.9651
C113 C 0.5928(4) 0.42958(14) 0.8808(5)
H106 H 0.5639 0.4211 0.8826
C114 C 0.6060(5) 0.32094(19) 0.6455(5)
H107 H 0.5905 0.3160 0.6703
H108 H 0.6111 0.3076 0.6261
H109 H 0.5795 0.3317 0.6159
C115 C 0.8178(5) 0.3389(3) 0.7600(7)
H110 H 0.8340 0.3412 0.8022
H111 H 0.8316 0.3509 0.7442
H112 H 0.8296 0.3238 0.7531
C116 C 0.5792(5) 0.4261(2) 0.6188(5)
H113 H 0.5771 0.4289 0.5811
H114 H 0.5689 0.4401 0.6318
H115 H 0.5527 0.4138 0.6144
C117 C 0.8010(6) 0.4256(3) 0.7544(9)
H116 H 0.8190 0.4223 0.7309
H117 H 0.8191 0.4163 0.7901
H118 H 0.8056 0.4419 0.7649
C118 C 0.6085(4) 0.37513(12) 0.8491(3)
H119 H 0.5786 0.3839 0.8165
H120 H 0.6136 0.3810 0.8863
H121 H 0.5975 0.3589 0.8449
C119 C 0.8198(4) 0.3802(2) 0.9120(4)
H122 H 0.8329 0.3953 0.9073
H123 H 0.8346 0.3684 0.8967
H124 H 0.8337 0.3773 0.9536
C120 C 0.3005(5) 0.3188(2) 0.4810(6)
H125 H 0.2761 0.3313 0.4804
H126 H 0.2789 0.3044 0.4701
H127 H 0.3133 0.3221 0.4530
C121 C 0.2972(8) 0.2431(3) 0.7103(9)
H128 H 0.2989 0.2288 0.6918
H129 H 0.2614 0.2511 0.6844
H130 H 0.2992 0.2397 0.7477
C122 C 0.7558(7) 0.4368(3) 0.9626(8)
H131 H 0.7755 0.4503 0.9593
H132 H 0.7671 0.4232 0.9490
H133 H 0.7661 0.4346 1.0036
C123 C 0.6623(4) 0.37740(12) 0.8488(3)
C124 C 0.7170(4) 0.37757(15) 0.8977(3)
H134 H 0.7258 0.3765 0.9373
C125 C 0.7565(4) 0.37957(17) 0.8789(4)
N29 N 0.5492(3) 0.33777(10) 0.7382(3)
N30 N 0.5351(3) 0.41290(10) 0.7223(3)
N31 N 0.6552(2) 0.40134(13) 0.6982(3)
N32 N 0.7150(3) 0.40123(16) 0.7328(3)
N33 N 0.6664(3) 0.35353(13) 0.7067(3)
N34 N 0.7234(3) 0.35805(17) 0.7363(3)
N35 N 0.6684(2) 0.37874(9) 0.7999(2)
N36 N 0.7254(3) 0.38019(11) 0.8182(2)
N37 N 0.4435(3) 0.31227(10) 0.6577(3)
N38 N 0.5787(3) 0.44065(11) 0.8310(4)
B3 B 0.7438(4) 0.3798(3) 0.7730(5)
H135 H 0.7862 0.3811 0.7926
N39 N 0.5186(3) 0.37129(12) 0.5822(3)
C126 C 0.6478(9) 0.5116(3) 0.7021(9)
H136 H 0.6348 0.5145 0.6607
H137 H 0.6888 0.5083 0.7230
H138 H 0.6404 0.5251 0.7194
Fe3A Fe 0.38655(4) 0.37608(2) 0.78688(4)
C85A C 0.4366(3) 0.39830(12) 0.7819(3)
C86A C 0.4267(3) 0.35252(12) 0.7720(3)
C87A C 0.4437(3) 0.37346(13) 0.8696(3)
C88A C 0.3401(4) 0.3319(2) 0.8190(4)
C89A C 0.2854(6) 0.3237(3) 0.8048(6)
H93A H 0.2768 0.3096 0.8167
C90A C 0.2482(5) 0.3399(3) 0.7710(5)
C91A C 0.3604(4) 0.4191(2) 0.8359(5)
C92A C 0.3131(9) 0.4327(4) 0.8260(9)
H94A H 0.3126 0.4470 0.8431
C93A C 0.2663(6) 0.4194(3) 0.7834(7)
C94A C 0.5532(4) 0.32500(14) 0.8841(4)
H95A H 0.5190 0.3332 0.8734
C95A C 0.5973(4) 0.32641(14) 0.9409(4)
H96A H 0.5916 0.3345 0.9687
C96A C 0.6488(5) 0.31658(18) 0.9587(5)
C97A C 0.6529(5) 0.30418(18) 0.9140(6)
H97A H 0.6880 0.2974 0.9223
C98A C 0.6057(4) 0.30215(15) 0.8591(5)
N27A N 0.5592(3) 0.28796(8) 0.7595(3)
C99A C 0.6086(3) 0.28701(11) 0.8149(3)
C100A C 0.6540(3) 0.27266(14) 0.8242(3)
H98A H 0.6875 0.2720 0.8618
C101A C 0.6500(3) 0.25926(13) 0.7781(5)
C102A C 0.6005(4) 0.26021(11) 0.7226(4)
H99A H 0.5978 0.2511 0.6913
C103A C 0.5551(3) 0.27456(11) 0.7133(3)
H100A H 0.5217 0.2752 0.6758
N28A N 0.4551(3) 0.46332(10) 0.7689(4)
C104A C 0.3961(4) 0.46374(13) 0.7296(4)
C105A C 0.3607(3) 0.47755(19) 0.7416(5)
H101A H 0.3207 0.4778 0.7150
C106A C 0.3843(5) 0.49094(19) 0.7927(6)
C107A C 0.4434(5) 0.49052(17) 0.8319(4)
H102A H 0.4594 0.4996 0.8665
C108A C 0.4788(3) 0.47671(14) 0.8200(4)
H103A H 0.5187 0.4764 0.8465
C109A C 0.3790(4) 0.45121(16) 0.6751(6)
C110A C 0.3256(5) 0.4514(3) 0.6302(11)
H104A H 0.2965 0.4590 0.6339
C111A C 0.3123(5) 0.4404(2) 0.5772(9)
C112A C 0.3541(5) 0.42970(17) 0.5708(6)
H105A H 0.3464 0.4228 0.5349
C113A C 0.4072(4) 0.42958(14) 0.6192(5)
H106A H 0.4361 0.4211 0.6174
C114A C 0.3940(5) 0.32094(19) 0.8545(5)
H107A H 0.4095 0.3160 0.8297
H108A H 0.3889 0.3076 0.8739
H109A H 0.4205 0.3317 0.8841
C115A C 0.1822(5) 0.3389(3) 0.7400(7)
H110A H 0.1660 0.3412 0.6978
H111A H 0.1684 0.3509 0.7558
H112A H 0.1704 0.3238 0.7469
C116A C 0.4208(5) 0.4261(2) 0.8812(5)
H113A H 0.4229 0.4289 0.9189
H114A H 0.4311 0.4401 0.8682
H115A H 0.4473 0.4138 0.8856
C117A C 0.1990(6) 0.4256(3) 0.7456(9)
H116A H 0.1810 0.4223 0.7691
H117A H 0.1809 0.4163 0.7099
H118A H 0.1944 0.4419 0.7351
C118A C 0.3915(4) 0.37513(12) 0.6509(3)
H119A H 0.4214 0.3839 0.6835
H120A H 0.3864 0.3810 0.6137
H121A H 0.4025 0.3589 0.6551
C119A C 0.1802(4) 0.3802(2) 0.5880(4)
H122A H 0.1671 0.3953 0.5927
H123A H 0.1654 0.3684 0.6033
H124A H 0.1663 0.3773 0.5464
C120A C 0.6995(5) 0.3188(2) 1.0190(6)
H125A H 0.7239 0.3313 1.0196
H126A H 0.7211 0.3044 1.0299
H127A H 0.6867 0.3221 1.0470
C121A C 0.7028(8) 0.2431(3) 0.7897(9)
H128A H 0.7011 0.2288 0.8082
H129A H 0.7386 0.2511 0.8156
H130A H 0.7008 0.2397 0.7523
C122A C 0.2442(7) 0.4368(3) 0.5374(8)
H131A H 0.2245 0.4503 0.5407
H132A H 0.2329 0.4232 0.5510
H133A H 0.2339 0.4346 0.4964
C123A C 0.3377(4) 0.37740(12) 0.6512(3)
C124A C 0.2830(4) 0.37757(15) 0.6023(3)
H134A H 0.2742 0.3765 0.5627
C125A C 0.2435(4) 0.37957(17) 0.6211(4)
N29A N 0.4508(3) 0.33777(10) 0.7618(3)
N30A N 0.4649(3) 0.41290(10) 0.7777(3)
N31A N 0.3448(2) 0.40134(13) 0.8018(3)
N32A N 0.2850(3) 0.40123(16) 0.7672(3)
N33A N 0.3336(3) 0.35353(13) 0.7933(3)
N34A N 0.2766(3) 0.35805(17) 0.7637(3)
N35A N 0.3316(2) 0.37874(9) 0.7001(2)
N36A N 0.2746(3) 0.38019(11) 0.6818(2)
N37A N 0.5565(3) 0.31227(10) 0.8423(3)
N38A N 0.4213(3) 0.44065(11) 0.6690(4)
B3A B 0.2562(4) 0.3798(3) 0.7270(5)
H135A H 0.2138 0.3811 0.7074
N39A N 0.4814(3) 0.37129(12) 0.9178(3)
C126A C 0.3522(9) 0.5116(3) 0.7979(9)
H136A H 0.3652 0.5145 0.8393
H137A H 0.3112 0.5083 0.7770
H138A H 0.3596 0.5251 0.7806
C127 C 0.3048(2) 0.38137(10) 0.4429(2)
C128 C 0.2704(2) 0.37909(9) 0.3825(2)
H139 H 0.2304 0.3814 0.3640
C129 C 0.3635(3) 0.37803(11) 0.4703(3)
H140 H 0.3864 0.3799 0.5115
C130 C 0.3886(3) 0.37211(11) 0.4379(3)
C131 C 0.2959(3) 0.37335(10) 0.3499(2)
C132 C 0.3551(3) 0.36950(11) 0.3770(3)
H141 H 0.3720 0.3652 0.3544
O1 O 0.26129(19) 0.37189(9) 0.29027(18)
H142 H 0.2809 0.3685 0.2749
O2 O 0.44582(19) 0.36848(10) 0.4619(2)
H143 H 0.4621 0.3703 0.4984
O3 O 0.28224(18) 0.38709(9) 0.47775(18)
H144 H 0.2468 0.3887 0.4568
P1 P 0.2500 0.2500 0.5000
F1 F 0.1918(4) 0.23869(16) 0.4833(5)
F2 F 0.2714(4) 0.22638(16) 0.4762(6)
F3 F 0.2750(5) 0.2374(2) 0.5617(6)
F1F F 0.3082(4) 0.26131(16) 0.5167(5)
F2F F 0.2286(4) 0.27362(16) 0.5238(6)
F3F F 0.2250(5) 0.2626(2) 0.4383(6)
F4 F 0.8379(8) 0.4944(3) 0.8384(10)
P2 P 0.8170(2) 0.50067(8) 0.8830(4)
F5 F 0.8301(8) 0.52514(19) 0.8702(8)
F6 F 0.8793(7) 0.4951(4) 0.9406(8)
F7 F 0.8222(8) 0.5063(4) 0.9464(6)
F8 F 0.7560(7) 0.5068(3) 0.8514(9)
F9 F 0.7993(11) 0.4745(2) 0.8660(11)
P3 P 0.0000 0.0000 0.0000
F10 F 0.008(2) 0.0251(13) 0.023(9)
F11 F -0.0753(4) 0.00185(18) -0.0219(5)
F12 F -0.0209(17) 0.011(4) -0.063(4)
F10D F -0.008(2) -0.0251(13) -0.023(9)
F11D F 0.0753(4) -0.00185(18) 0.0219(5)
F12D F 0.0209(17) -0.011(4) 0.063(4)
O4 O 0.7681(11) 0.1896(2) 0.4266(12)
P4 P 0.6259(3) 0.24383(9) 0.5717(3)
F13 F 0.5840(8) 0.2534(4) 0.5892(9)
F14 F 0.6486(7) 0.2276(3) 0.6205(7)
F15 F 0.5791(12) 0.2254(4) 0.5274(12)
F16 F 0.6858(8) 0.2629(4) 0.6203(8)
F17 F 0.6019(8) 0.2583(3) 0.5282(7)
F18 F 0.6797(8) 0.2350(4) 0.5649(10)
O5 O 0.2648(9) 0.1912(5) 0.3520(9)
O6 O 0.0653(14) 0.2717(5) 0.6651(14)
C133 C 0.3632(17) 0.0243(5) 0.2001(15)
H145 H 0.4049 0.0234 0.2190
H146 H 0.3517 0.0218 0.2294
H147 H 0.3504 0.0395 0.1823
C134 C 0.3345(13) 0.0046(4) 0.1494(14)
N40 N 0.2811(9) -0.0030(5) 0.1107(16)
C135 C 0.4172(9) 0.0667(5) 0.0025(10)
H148 H 0.4514 0.0746 0.0326
H149 H 0.4165 0.0510 0.0151
H150 H 0.3832 0.0749 -0.0035
C136 C 0.4182(8) 0.0662(3) -0.0546(10)
N41 N 0.396(7) 0.057(2) -0.097(3)
O8 O 0.6469(11) 0.4641(4) 0.5442(10)
O7? O 0.1227(14) 0.2478(5) 0.6582(14)
loop_
_geom_bond_atom_site_label_1
_geom_bond_atom_site_label_2
_geom_bond_site_symmetry_1
_geom_bond_site_symmetry_2
Fe1 C1 1_555 1_555
Co1 N1 1_555 1_555
Co2 N2 1_555 1_555
C1 N5 1_555 1_555
C2 Fe1 1_555 1_555
C3 Fe1 1_555 1_555
C4 C5 1_555 1_555
C5 H1 1_555 1_555
C6 C5 1_555 1_555
C7 C8 1_555 1_555
C8 H2 1_555 1_555
C9 C8 1_555 1_555
C10 C11 1_555 1_555
C11 H3 1_555 1_555
C12 C11 1_555 1_555
C13 H4 1_555 1_555
C14 C13 1_555 1_555
H5 C14 1_555 1_555
C15 C14 1_555 1_555
C16 C15 1_555 1_555
H6 C16 1_555 1_555
C17 C16 1_555 1_555
C18 C17 1_555 1_555
C19 C18 1_555 1_555
H7 C19 1_555 1_555
C20 C19 1_555 1_555
C21 C20 1_555 1_555
H8 C21 1_555 1_555
C22 C21 1_555 1_555
H9 C22 1_555 1_555
C23 C24 1_555 1_555
C24 H10 1_555 1_555
C25 C24 1_555 1_555
C26 C25 1_555 1_555
H11 C26 1_555 1_555
C27 C26 1_555 1_555
H12 C27 1_555 1_555
C28 C23 1_555 1_555
C29 C28 1_555 1_555
H13 C29 1_555 1_555
C30 C29 1_555 1_555
C31 C30 1_555 1_555
H14 C31 1_555 1_555
C32 C31 1_555 1_555
H15 C32 1_555 1_555
C33 C4 1_555 1_555
H16 C33 1_555 1_555
H17 C33 1_555 1_555
H18 C33 1_555 1_555
C34 C6 1_555 1_555
H19 C34 1_555 1_555
H20 C34 1_555 1_555
H21 C34 1_555 1_555
C35 C7 1_555 1_555
H22 C35 1_555 1_555
H23 C35 1_555 1_555
H24 C35 1_555 1_555
C36 C9 1_555 1_555
H25 C36 1_555 1_555
H26 C36 1_555 1_555
H27 C36 1_555 1_555
C37 C10 1_555 1_555
H28 C37 1_555 1_555
H29 C37 1_555 1_555
H30 C37 1_555 1_555
C38 C12 1_555 1_555
H31 C38 1_555 1_555
H32 C38 1_555 1_555
H33 C38 1_555 1_555
C39 C15 1_555 1_555
H34 C39 1_555 1_555
H35 C39 1_555 1_555
H36 C39 1_555 1_555
C40 C20 1_555 1_555
H37 C40 1_555 1_555
H38 C40 1_555 1_555
H39 C40 1_555 1_555
C41 C25 1_555 1_555
H40 C41 1_555 1_555
H41 C41 1_555 1_555
H42 C41 1_555 1_555
C42 C30 1_555 1_555
H43 C42 1_555 1_555
H44 C42 1_555 1_555
H45 C42 1_555 1_555
N1 C18 1_555 1_555
N2 C28 1_555 1_555
N3 Co2 1_555 1_555
N4 Co1 1_555 1_555
N5 Co2 1_555 1_555
N6 C3 1_555 1_555
N7 Fe1 1_555 1_555
N8 C9 1_555 1_555
N9 Fe1 1_555 1_555
N10 C6 1_555 1_555
N11 Fe1 1_555 1_555
N12 C12 1_555 1_555
N13 Co1 1_555 1_555
B1 N8 1_555 1_555
H46 B1 1_555 1_555
Fe2 C43 1_555 1_555
Co3 N17 1_555 1_555
Co4 N14 1_555 1_555
C43 N16 1_555 1_555
C44 Fe2 1_555 1_555
C45 Fe2 1_555 1_555
C46 C47 1_555 1_555
C47 H47 1_555 1_555
C48 C47 1_555 1_555
C49 C50 1_555 1_555
C50 H48 1_555 1_555
C51 C50 1_555 1_555
C52 C53 1_555 1_555
C53 H49 1_555 1_555
C54 C53 1_555 1_555
N14 C55 1_555 1_555
C55 H50 1_555 1_555
C56 C55 1_555 1_555
H51 C56 1_555 1_555
C57 C56 1_555 1_555
C58 C57 1_555 1_555
H52 C58 1_555 1_555
C59 N14 1_555 1_555
C60 H53 1_555 1_555
C61 C60 1_555 1_555
H54 C61 1_555 1_555
C62 C61 1_555 1_555
C63 C62 1_555 1_555
H55 C63 1_555 1_555
C64 C63 1_555 1_555
C65 C64 1_555 1_555
C66 C65 1_555 1_555
H56 C66 1_555 1_555
C67 C66 1_555 1_555
C68 C67 1_555 1_555
H57 C68 1_555 1_555
C69 C68 1_555 1_555
H58 C69 1_555 1_555
N15 Co4 1_555 1_555
C70 C59 1_555 1_555
C71 C70 1_555 1_555
H59 C71 1_555 1_555
C72 C71 1_555 1_555
C73 C72 1_555 1_555
H60 C73 1_555 1_555
C74 N15 1_555 1_555
H61 C74 1_555 1_555
C75 C46 1_555 1_555
H62 C75 1_555 1_555
H63 C75 1_555 1_555
H64 C75 1_555 1_555
C76 C48 1_555 1_555
H65 C76 1_555 1_555
H66 C76 1_555 1_555
H67 C76 1_555 1_555
C77 C49 1_555 1_555
H68 C77 1_555 1_555
H69 C77 1_555 1_555
H70 C77 1_555 1_555
C78 C51 1_555 1_555
H71 C78 1_555 1_555
H72 C78 1_555 1_555
H73 C78 1_555 1_555
C79 C54 1_555 1_555
H74 C79 1_555 1_555
H75 C79 1_555 1_555
H76 C79 1_555 1_555
C80 C52 1_555 1_555
H77 C80 1_555 1_555
H78 C80 1_555 1_555
H79 C80 1_555 1_555
C81 C62 1_555 1_555
H80 C81 1_555 1_555
H81 C81 1_555 1_555
H82 C81 1_555 1_555
C82 C67 1_555 1_555
H83 C82 1_555 1_555
H84 C82 1_555 1_555
H85 C82 1_555 1_555
C83 C72 1_555 1_555
H86 C83 1_555 1_555
H87 C83 1_555 1_555
H88 C83 1_555 1_555
N16 Co4 1_555 1_555
N17 C44 1_555 1_555
N18 C45 1_555 1_555
N19 Fe2 1_555 1_555
N20 C48 1_555 1_555
N21 Fe2 1_555 1_555
N22 C51 1_555 1_555
N23 Fe2 1_555 1_555
N24 C52 1_555 1_555
N25 Co3 1_555 1_555
N26 Co3 1_555 1_555
B2 N20 1_555 1_555
H89 B2 1_555 1_555
C84 C57 1_555 1_555
H90 C84 1_555 1_555
H91 C84 1_555 1_555
H92 C84 1_555 1_555
Fe3 C85 1_555 1_555
Co5 N27 1_555 1_555
Co6 N28 1_555 1_555
C85 N30 1_555 1_555
C86 Fe3 1_555 1_555
C87 Fe3 1_555 1_555
C88 C89 1_555 1_555
C89 H93 1_555 1_555
C90 C89 1_555 1_555
C91 C92 1_555 1_555
C92 H94 1_555 1_555
C93 C92 1_555 1_555
C94 H95 1_555 1_555
C95 C94 1_555 1_555
H96 C95 1_555 1_555
C96 C95 1_555 1_555
C97 C96 1_555 1_555
H97 C97 1_555 1_555
C98 C97 1_555 1_555
N27 C99 1_555 1_555
C99 C98 1_555 1_555
C100 C99 1_555 1_555
H98 C100 1_555 1_555
C101 C100 1_555 1_555
C102 C101 1_555 1_555
H99 C102 1_555 1_555
C103 N27 1_555 1_555
H100 C103 1_555 1_555
N28 C104 1_555 1_555
C104 C105 1_555 1_555
C105 H101 1_555 1_555
C106 C105 1_555 1_555
C107 C106 1_555 1_555
H102 C107 1_555 1_555
C108 N28 1_555 1_555
H103 C108 1_555 1_555
C109 C104 1_555 1_555
C110 C109 1_555 1_555
H104 C110 1_555 1_555
C111 C110 1_555 1_555
C112 C111 1_555 1_555
H105 C112 1_555 1_555
C113 C112 1_555 1_555
H106 C113 1_555 1_555
C114 C88 1_555 1_555
H107 C114 1_555 1_555
H108 C114 1_555 1_555
H109 C114 1_555 1_555
C115 C90 1_555 1_555
H110 C115 1_555 1_555
H111 C115 1_555 1_555
H112 C115 1_555 1_555
C116 C91 1_555 1_555
H113 C116 1_555 1_555
H114 C116 1_555 1_555
H115 C116 1_555 1_555
C117 C93 1_555 1_555
H116 C117 1_555 1_555
H117 C117 1_555 1_555
H118 C117 1_555 1_555
C118 H119 1_555 1_555
H120 C118 1_555 1_555
H121 C118 1_555 1_555
C119 H122 1_555 1_555
H123 C119 1_555 1_555
H124 C119 1_555 1_555
C120 C96 1_555 1_555
H125 C120 1_555 1_555
H126 C120 1_555 1_555
H127 C120 1_555 1_555
C121 C101 1_555 1_555
H128 C121 1_555 1_555
H129 C121 1_555 1_555
H130 C121 1_555 1_555
C122 C111 1_555 1_555
H131 C122 1_555 1_555
H132 C122 1_555 1_555
H133 C122 1_555 1_555
C123 C118 1_555 1_555
C124 C123 1_555 1_555
H134 C124 1_555 1_555
C125 C119 1_555 1_555
N29 Co5 1_555 1_555
N30 Co6 1_555 1_555
N31 Fe3 1_555 1_555
N32 C93 1_555 1_555
N33 Fe3 1_555 1_555
N34 C90 1_555 1_555
N35 Fe3 1_555 1_555
N36 C125 1_555 1_555
N37 Co5 1_555 1_555
N38 Co6 1_555 1_555
B3 N32 1_555 1_555
H135 B3 1_555 1_555
N39 C87 1_555 1_555
C126 C106 1_555 1_555
H136 C126 1_555 1_555
H137 C126 1_555 1_555
H138 C126 1_555 1_555
C127 C128 1_555 1_555
C128 H139 1_555 1_555
C129 C127 1_555 1_555
H140 C129 1_555 1_555
C130 C129 1_555 1_555
C131 C128 1_555 1_555
C132 C130 1_555 1_555
H141 C132 1_555 1_555
O1 C131 1_555 1_555
H142 O1 1_555 1_555
O2 C130 1_555 1_555
H143 O2 1_555 1_555
O3 C127 1_555 1_555
H144 O3 1_555 1_555
P1 F1 1_555 1_555
F2 P1 1_555 1_555
F3 P1 1_555 1_555
F4 P2 1_555 1_555
P2 F5 1_555 1_555
F6 P2 1_555 1_555
F7 P2 1_555 1_555
F8 P2 1_555 1_555
F9 P2 1_555 1_555
P3 F10 1_555 1_555
F11 P3 1_555 1_555
F12 P3 1_555 1_555
P4 F13 1_555 1_555
F14 P4 1_555 1_555
F15 P4 1_555 1_555
F16 P4 1_555 1_555
F17 P4 1_555 1_555
F18 P4 1_555 1_555
C133 H145 1_555 1_555
H146 C133 1_555 1_555
H147 C133 1_555 1_555
C134 C133 1_555 1_555
N40 C134 1_555 1_555
C135 H148 1_555 1_555
H149 C135 1_555 1_555
H150 C135 1_555 1_555
C136 C135 1_555 1_555
N41 C136 1_555 1_555
Fe1A C1A 1_555 1_555
C1A N5A 1_555 1_555
C2A Fe1A 1_555 1_555
C3A Fe1A 1_555 1_555
C4A C5A 1_555 1_555
C5A H1A 1_555 1_555
C6A C5A 1_555 1_555
C7A C8A 1_555 1_555
C8A H2A 1_555 1_555
C9A C8A 1_555 1_555
C10A C11A 1_555 1_555
C11A H3A 1_555 1_555
C12A C11A 1_555 1_555
C13A H4A 1_555 1_555
C14A C13A 1_555 1_555
H5A C14A 1_555 1_555
C15A C14A 1_555 1_555
C16A C15A 1_555 1_555
H6A C16A 1_555 1_555
C17A C16A 1_555 1_555
C18A C17A 1_555 1_555
C19A C18A 1_555 1_555
H7A C19A 1_555 1_555
C20A C19A 1_555 1_555
C21A C20A 1_555 1_555
H8A C21A 1_555 1_555
C22A C21A 1_555 1_555
H9A C22A 1_555 1_555
C23A C24A 1_555 1_555
C24A H10A 1_555 1_555
C25A C24A 1_555 1_555
C26A C25A 1_555 1_555
H11A C26A 1_555 1_555
C27A C26A 1_555 1_555
H12A C27A 1_555 1_555
C28A C23A 1_555 1_555
C29A C28A 1_555 1_555
H13A C29A 1_555 1_555
C30A C29A 1_555 1_555
C31A C30A 1_555 1_555
H14A C31A 1_555 1_555
C32A C31A 1_555 1_555
H15A C32A 1_555 1_555
C33A C4A 1_555 1_555
H16A C33A 1_555 1_555
H17A C33A 1_555 1_555
H18A C33A 1_555 1_555
C34A C6A 1_555 1_555
H19A C34A 1_555 1_555
H20A C34A 1_555 1_555
H21A C34A 1_555 1_555
C35A C7A 1_555 1_555
H22A C35A 1_555 1_555
H23A C35A 1_555 1_555
H24A C35A 1_555 1_555
C36A C9A 1_555 1_555
H25A C36A 1_555 1_555
H26A C36A 1_555 1_555
H27A C36A 1_555 1_555
C37A C10A 1_555 1_555
H28A C37A 1_555 1_555
H29A C37A 1_555 1_555
H30A C37A 1_555 1_555
C38A C12A 1_555 1_555
H31A C38A 1_555 1_555
H32A C38A 1_555 1_555
H33A C38A 1_555 1_555
C39A C15A 1_555 1_555
H34A C39A 1_555 1_555
H35A C39A 1_555 1_555
H36A C39A 1_555 1_555
C40A C20A 1_555 1_555
H37A C40A 1_555 1_555
H38A C40A 1_555 1_555
H39A C40A 1_555 1_555
C41A C25A 1_555 1_555
H40A C41A 1_555 1_555
H41A C41A 1_555 1_555
H42A C41A 1_555 1_555
C42A C30A 1_555 1_555
H43A C42A 1_555 1_555
H44A C42A 1_555 1_555
H45A C42A 1_555 1_555
N1A Co1 1_555 1_555
N2A Co2 1_555 1_555
N3A Co2 1_555 1_555
N4A Co1 1_555 1_555
N5A Co2 1_555 1_555
N6A C3A 1_555 1_555
N7A Fe1A 1_555 1_555
N8A C9A 1_555 1_555
N9A Fe1A 1_555 1_555
N10A C6A 1_555 1_555
N11A Fe1A 1_555 1_555
N12A C12A 1_555 1_555
N13A Co1 1_555 1_555
B1A N8A 1_555 1_555
H46A B1A 1_555 1_555
Fe2A C43A 1_555 1_555
C43A N16A 1_555 1_555
C44A Fe2A 1_555 1_555
C45A Fe2A 1_555 1_555
C46A C47A 1_555 1_555
C47A H47A 1_555 1_555
C48A C47A 1_555 1_555
C49A C50A 1_555 1_555
C50A H48A 1_555 1_555
C51A C50A 1_555 1_555
C52A C53A 1_555 1_555
C53A H49A 1_555 1_555
C54A C53A 1_555 1_555
N14A Co4 1_555 1_555
C55A N14A 1_555 1_555
H50A C55A 1_555 1_555
C56A C55A 1_555 1_555
H51A C56A 1_555 1_555
C57A C56A 1_555 1_555
C58A C57A 1_555 1_555
H52A C58A 1_555 1_555
C59A N14A 1_555 1_555
C60A H53A 1_555 1_555
C61A C60A 1_555 1_555
H54A C61A 1_555 1_555
C62A C61A 1_555 1_555
C63A C62A 1_555 1_555
H55A C63A 1_555 1_555
C64A C63A 1_555 1_555
C65A C64A 1_555 1_555
C66A C65A 1_555 1_555
H56A C66A 1_555 1_555
C67A C66A 1_555 1_555
C68A C67A 1_555 1_555
H57A C68A 1_555 1_555
C69A C68A 1_555 1_555
H58A C69A 1_555 1_555
N15A Co4 1_555 1_555
C70A C59A 1_555 1_555
C71A C70A 1_555 1_555
H59A C71A 1_555 1_555
C72A C71A 1_555 1_555
C73A C72A 1_555 1_555
H60A C73A 1_555 1_555
C74A N15A 1_555 1_555
H61A C74A 1_555 1_555
C75A C46A 1_555 1_555
H62A C75A 1_555 1_555
H63A C75A 1_555 1_555
H64A C75A 1_555 1_555
C76A C48A 1_555 1_555
H65A C76A 1_555 1_555
H66A C76A 1_555 1_555
H67A C76A 1_555 1_555
C77A C49A 1_555 1_555
H68A C77A 1_555 1_555
H69A C77A 1_555 1_555
H70A C77A 1_555 1_555
C78A C51A 1_555 1_555
H71A C78A 1_555 1_555
H72A C78A 1_555 1_555
H73A C78A 1_555 1_555
C79A C54A 1_555 1_555
H74A C79A 1_555 1_555
H75A C79A 1_555 1_555
H76A C79A 1_555 1_555
C80A C52A 1_555 1_555
H77A C80A 1_555 1_555
H78A C80A 1_555 1_555
H79A C80A 1_555 1_555
C81A C62A 1_555 1_555
H80A C81A 1_555 1_555
H81A C81A 1_555 1_555
H82A C81A 1_555 1_555
C82A C67A 1_555 1_555
H83A C82A 1_555 1_555
H84A C82A 1_555 1_555
H85A C82A 1_555 1_555
C83A C72A 1_555 1_555
H86A C83A 1_555 1_555
H87A C83A 1_555 1_555
H88A C83A 1_555 1_555
N16A Co4 1_555 1_555
N17A Co3 1_555 1_555
N18A C45A 1_555 1_555
N19A Fe2A 1_555 1_555
N20A C48A 1_555 1_555
N21A Fe2A 1_555 1_555
N22A C51A 1_555 1_555
N23A Fe2A 1_555 1_555
N24A C52A 1_555 1_555
N25A Co3 1_555 1_555
N26A Co3 1_555 1_555
B2A N20A 1_555 1_555
H89A B2A 1_555 1_555
C84A C57A 1_555 1_555
H90A C84A 1_555 1_555
H91A C84A 1_555 1_555
H92A C84A 1_555 1_555
Fe3A C85A 1_555 1_555
C85A N30A 1_555 1_555
C86A Fe3A 1_555 1_555
C87A Fe3A 1_555 1_555
C88A C89A 1_555 1_555
C89A H93A 1_555 1_555
C90A C89A 1_555 1_555
C91A C92A 1_555 1_555
C92A H94A 1_555 1_555
C93A C92A 1_555 1_555
C94A H95A 1_555 1_555
C95A C94A 1_555 1_555
H96A C95A 1_555 1_555
C96A C95A 1_555 1_555
C97A C96A 1_555 1_555
H97A C97A 1_555 1_555
C98A C97A 1_555 1_555
N27A Co5 1_555 1_555
C99A C98A 1_555 1_555
C100A C99A 1_555 1_555
H98A C100A 1_555 1_555
C101A C100A 1_555 1_555
C102A C101A 1_555 1_555
H99A C102A 1_555 1_555
C103A N27A 1_555 1_555
H100A C103A 1_555 1_555
N28A Co6 1_555 1_555
C104A N28A 1_555 1_555
C105A C104A 1_555 1_555
H101A C105A 1_555 1_555
C106A C105A 1_555 1_555
C107A C106A 1_555 1_555
H102A C107A 1_555 1_555
C108A N28A 1_555 1_555
H103A C108A 1_555 1_555
C109A C104A 1_555 1_555
C110A C109A 1_555 1_555
H104A C110A 1_555 1_555
C111A C110A 1_555 1_555
C112A C111A 1_555 1_555
H105A C112A 1_555 1_555
C113A C112A 1_555 1_555
H106A C113A 1_555 1_555
C114A C88A 1_555 1_555
H107A C114A 1_555 1_555
H108A C114A 1_555 1_555
H109A C114A 1_555 1_555
C115A C90A 1_555 1_555
H110A C115A 1_555 1_555
H111A C115A 1_555 1_555
H112A C115A 1_555 1_555
C116A C91A 1_555 1_555
H113A C116A 1_555 1_555
H114A C116A 1_555 1_555
H115A C116A 1_555 1_555
C117A C93A 1_555 1_555
H116A C117A 1_555 1_555
H117A C117A 1_555 1_555
H118A C117A 1_555 1_555
C118A H119A 1_555 1_555
H120A C118A 1_555 1_555
H121A C118A 1_555 1_555
C119A H122A 1_555 1_555
H123A C119A 1_555 1_555
H124A C119A 1_555 1_555
C120A C96A 1_555 1_555
H125A C120A 1_555 1_555
H126A C120A 1_555 1_555
H127A C120A 1_555 1_555
C121A C101A 1_555 1_555
H128A C121A 1_555 1_555
H129A C121A 1_555 1_555
H130A C121A 1_555 1_555
C122A C111A 1_555 1_555
H131A C122A 1_555 1_555
H132A C122A 1_555 1_555
H133A C122A 1_555 1_555
C123A C118A 1_555 1_555
C124A C123A 1_555 1_555
H134A C124A 1_555 1_555
C125A C119A 1_555 1_555
N29A Co5 1_555 1_555
N30A Co6 1_555 1_555
N31A Fe3A 1_555 1_555
N32A C93A 1_555 1_555
N33A Fe3A 1_555 1_555
N34A C90A 1_555 1_555
N35A Fe3A 1_555 1_555
N36A C125A 1_555 1_555
N37A Co5 1_555 1_555
N38A Co6 1_555 1_555
B3A N32A 1_555 1_555
H135A B3A 1_555 1_555
N39A C87A 1_555 1_555
C126A C106A 1_555 1_555
H136A C126A 1_555 1_555
H137A C126A 1_555 1_555
H138A C126A 1_555 1_555
F1F P1 1_555 1_555
F2F P1 1_555 1_555
F3F P1 1_555 1_555
F10D P3 1_555 1_555
F11D P3 1_555 1_555
F12D P3 1_555 1_555
C2 N4 1_555 1_555
C4 N9 1_555 1_555
C7 N7 1_555 1_555
C10 N11 1_555 1_555
C13 N13 1_555 1_555
C17 N13 1_555 1_555
C22 N1 1_555 1_555
C23 N3 1_555 1_555
C27 N3 1_555 1_555
C32 N2 1_555 1_555
N7 N8 1_555 1_555
N9 N10 1_555 1_555
N10 B1 1_555 1_555
N11 N12 1_555 1_555
N12 B1 1_555 1_555
C46 N19 1_555 1_555
C49 N21 1_555 1_555
C54 N23 1_555 1_555
C58 C59 1_555 1_555
C60 N26 1_555 1_555
C64 N26 1_555 1_555
C65 N25 1_555 1_555
C69 N25 1_555 1_555
N15 C70 1_555 1_555
C73 C74 1_555 1_555
N19 N20 1_555 1_555
N21 N22 1_555 1_555
N22 B2 1_555 1_555
N23 N24 1_555 1_555
N24 B2 1_555 1_555
C86 N29 1_555 1_555
C88 N33 1_555 1_555
C91 N31 1_555 1_555
C94 N37 1_555 1_555
C98 N37 1_555 1_555
C102 C103 1_555 1_555
C107 C108 1_555 1_555
C109 N38 1_555 1_555
C113 N38 1_555 1_555
C123 N35 1_555 1_555
C124 C125 1_555 1_555
N31 N32 1_555 1_555
N33 N34 1_555 1_555
N34 B3 1_555 1_555
N35 N36 1_555 1_555
N36 B3 1_555 1_555
C131 C132 1_555 1_555
C2A N4A 1_555 1_555
C4A N9A 1_555 1_555
C7A N7A 1_555 1_555
C10A N11A 1_555 1_555
C13A N13A 1_555 1_555
C17A N13A 1_555 1_555
C18A N1A 1_555 1_555
C22A N1A 1_555 1_555
C23A N3A 1_555 1_555
C27A N3A 1_555 1_555
C28A N2A 1_555 1_555
C32A N2A 1_555 1_555
N7A N8A 1_555 1_555
N9A N10A 1_555 1_555
N10A B1A 1_555 1_555
N11A N12A 1_555 1_555
N12A B1A 1_555 1_555
C44A N17A 1_555 1_555
C46A N19A 1_555 1_555
C49A N21A 1_555 1_555
C54A N23A 1_555 1_555
C58A C59A 1_555 1_555
C60A N26A 1_555 1_555
C64A N26A 1_555 1_555
C65A N25A 1_555 1_555
C69A N25A 1_555 1_555
N15A C70A 1_555 1_555
C73A C74A 1_555 1_555
N19A N20A 1_555 1_555
N21A N22A 1_555 1_555
N22A B2A 1_555 1_555
N23A N24A 1_555 1_555
N24A B2A 1_555 1_555
C86A N29A 1_555 1_555
C88A N33A 1_555 1_555
C91A N31A 1_555 1_555
C94A N37A 1_555 1_555
C98A N37A 1_555 1_555
N27A C99A 1_555 1_555
C102A C103A 1_555 1_555
C107A C108A 1_555 1_555
C109A N38A 1_555 1_555
C113A N38A 1_555 1_555
C123A N35A 1_555 1_555
C124A C125A 1_555 1_555
N31A N32A 1_555 1_555
N33A N34A 1_555 1_555
N34A B3A 1_555 1_555
N35A N36A 1_555 1_555
N36A B3A 1_555 1_555

#END
