
#######################################################################
#
#                 Cambridge Crystallographic Data Centre
#                                CCDC 
#
#######################################################################
#
# If this CIF has been generated from an entry in the Cambridge 
# Structural Database, then it will include bibliographic, chemical, 
# crystal, experimental, refinement or atomic coordinate data resulting 
# from the CCDC's data processing and validation procedures.
#
#######################################################################

data_XAVNAM
_chemical_formula_moiety         
'C84 H92 B2 Co2 Fe2 N26 2+,2(C24 H20 B1 1-),C6 H6 O2,2(H2 O1)'
_chemical_name_systematic        
"tetrakis(\m-cyano)-dicyano-tetrakis(4,4'-dimethyl-2,2'-bipyridine)-bis(hydrogen tris(3,5-dimethylpyrazolyl)borate)-di-cobalt-di-iron bis(tetraphenylborate) hydroquinone dihydrate"
_symmetry_cell_setting           triclinic
_symmetry_space_group_name_H-M   'P -1'
_symmetry_Int_Tables_number      2
_space_group_name_Hall           '-P 1'
loop_
_symmetry_equiv_pos_site_id
_symmetry_equiv_pos_as_xyz
1 x,y,z
2 -x,-y,-z
_cell_length_a                   12.594(3)
_cell_length_b                   14.782(3)
_cell_length_c                   19.309(4)
_cell_angle_alpha                69.183(3)
_cell_angle_beta                 81.318(3)
_cell_angle_gamma                75.895(3)
_cell_volume                     3250.47
_exptl_crystal_colour            green
_exptl_crystal_description       plate
_cell_formula_units_Z            1
loop_
_atom_site_label
_atom_site_type_symbol
_atom_site_fract_x
_atom_site_fract_y
_atom_site_fract_z
C1 C 0.1033(4) 0.6441(4) -0.0197(3)
C2 C -0.0174(5) 0.6476(5) -0.1201(3)
N1 N -0.1553(4) 0.8028(4) -0.0216(3)
C3 C -0.0877(5) 0.8736(5) -0.2434(3)
C4 C -0.0691(7) 0.9379(5) -0.3149(4)
H1 H -0.1207 0.9701 -0.3517
C5 C 0.0376(7) 0.9454(6) -0.3216(4)
C6 C 0.1272(6) 0.8817(5) -0.0458(4)
C7 C 0.1826(8) 0.9590(7) -0.0722(5)
H2 H 0.1944 0.9987 -0.0457
C8 C 0.2169(8) 0.9664(7) -0.1443(5)
C9 C 0.2522(5) 0.6018(5) -0.1670(3)
C10 C 0.3429(5) 0.6144(5) -0.2185(3)
H3 H 0.3964 0.5640 -0.2310
C11 C 0.3388(6) 0.7152(6) -0.2476(4)
C12 C 0.2580(5) 0.3228(5) 0.2578(3)
H4 H 0.3166 0.3101 0.2231
C13 C 0.2615(6) 0.2604(5) 0.3293(3)
H5 H 0.3089 0.1970 0.3412
C14 C 0.0936(5) 0.4208(5) 0.2841(3)
C15 C 0.0106(5) 0.5085(5) 0.2539(3)
C16 C -0.0778(6) 0.5461(5) 0.2948(3)
H6 H -0.0859 0.5144 0.3470
C17 C -0.1542(5) 0.6292(5) 0.2609(3)
C18 C -0.1387(5) 0.6742(5) 0.1838(3)
H7 H -0.1891 0.7317 0.1582
C19 C -0.0490(5) 0.6338(5) 0.1456(3)
H8 H -0.0397 0.6638 0.0932
C20 C 0.2273(5) 0.6405(5) 0.1693(3)
H9 H 0.1522 0.6657 0.1802
C21 C 0.3055(6) 0.6845(5) 0.1789(3)
H10 H 0.2834 0.7391 0.1966
C22 C 0.4153(6) 0.6510(5) 0.1634(3)
C23 C 0.4422(5) 0.5718(5) 0.1349(3)
H11 H 0.5165 0.5473 0.1215
C24 C 0.3601(5) 0.5300(5) 0.1266(3)
C25 C 0.3805(5) 0.4466(4) 0.0987(3)
C26 C 0.4828(5) 0.3962(5) 0.0806(3)
H12 H 0.5467 0.4164 0.0852
C27 C 0.4936(5) 0.3168(5) 0.0560(3)
C28 C 0.3965(5) 0.2970(5) 0.0451(3)
H13 H 0.3996 0.2470 0.0242
C29 C 0.2956(5) 0.3480(5) 0.0637(3)
H14 H 0.2308 0.3315 0.0563
C30 C -0.1950(5) 0.8496(5) -0.2067(3)
H15 H -0.1879 0.7777 -0.1868
H16 H -0.2509 0.8783 -0.2431
H17 H -0.2169 0.8770 -0.1661
C31 C 0.1044(10) 1.0082(9) -0.3842(5)
H18 H 0.1783 0.9692 -0.3896
H19 H 0.1096 1.0664 -0.3727
H20 H 0.0686 1.0295 -0.4306
C32 C 0.2222(5) 0.5069(4) -0.1199(3)
H21 H 0.2325 0.4952 -0.0679
H22 H 0.2691 0.4530 -0.1354
H23 H 0.1452 0.5095 -0.1251
C33 C 0.4148(7) 0.7714(7) -0.3059(5)
H24 H 0.3766 0.8088 -0.3513
H25 H 0.4796 0.7247 -0.3166
H26 H 0.4377 0.8171 -0.2876
C34 C 0.0758(7) 0.8444(6) 0.0309(4)
H27 H -0.0033 0.8718 0.0311
H28 H 0.1084 0.8646 0.0646
H29 H 0.0885 0.7720 0.0474
C35 C 0.2765(11) 1.0392(8) -0.2030(6)
H30 H 0.3497 1.0047 -0.2155
H31 H 0.2835 1.0906 -0.1840
H32 H 0.2350 1.0697 -0.2475
C36 C -0.2520(7) 0.6717(6) 0.3041(4)
H33 H -0.2892 0.6187 0.3360
H34 H -0.3031 0.7221 0.2693
H35 H -0.2270 0.7017 0.3348
C37 C 0.5027(7) 0.6934(7) 0.1778(5)
H36 H 0.4689 0.7527 0.1910
H37 H 0.5522 0.7109 0.1329
H38 H 0.5445 0.6443 0.2187
C38 C 0.6041(5) 0.2568(6) 0.0421(4)
H39 H 0.6568 0.3003 0.0213
H40 H 0.5988 0.2241 0.0069
H41 H 0.6287 0.2067 0.0890
N2 N 0.1272(4) 0.5830(4) 0.0368(2)
N3 N -0.0669(4) 0.5932(4) -0.1224(2)
C39 C -0.0754(5) 0.7832(5) -0.0562(3)
N4 N 0.0056(4) 0.8408(4) -0.2084(3)
N5 N 0.0841(5) 0.8867(4) -0.2573(3)
N6 N 0.1957(4) 0.6908(4) -0.1649(2)
N7 N 0.2501(4) 0.7601(4) -0.2147(3)
N8 N 0.1286(5) 0.8420(4) -0.0991(3)
N9 N 0.1848(5) 0.8953(4) -0.1607(3)
N10 N 0.1770(4) 0.4007(4) 0.2338(2)
N11 N 0.0251(4) 0.5543(4) 0.1794(2)
N12 N 0.2536(4) 0.5626(4) 0.1447(2)
N13 N 0.2870(4) 0.4209(4) 0.0922(2)
Co1 Co 0.15381(6) 0.48934(6) 0.13250(4)
Fe1 Fe 0.05555(7) 0.73891(6) -0.10936(4)
B1 B 0.1966(7) 0.8707(7) -0.2309(5)
H42 H 0.2423 0.9129 -0.2701
C40 C 0.1091(15) 0.3715(13) 0.3613(10)
H43 H 0.0605 0.3944 0.3970
C41 C 0.1948(14) 0.2903(12) 0.3849(8)
C42 C 0.2060(15) 0.2285(14) 0.4673(7)
H44 H 0.2759 0.1805 0.4729
H45 H 0.1453 0.1934 0.4858
H46 H 0.2039 0.2722 0.4958
C1A C -0.1033(4) 0.3559(4) 0.0197(3)
C2A C 0.0174(5) 0.3524(5) 0.1201(3)
N1A N 0.1553(4) 0.1972(4) 0.0216(3)
C3A C 0.0877(5) 0.1264(5) 0.2434(3)
C4A C 0.0691(7) 0.0621(5) 0.3149(4)
H1A H 0.1207 0.0299 0.3517
C5A C -0.0376(7) 0.0546(6) 0.3216(4)
C6A C -0.1272(6) 0.1183(5) 0.0458(4)
C7A C -0.1826(8) 0.0410(7) 0.0722(5)
H2A H -0.1944 0.0013 0.0457
C8A C -0.2169(8) 0.0336(7) 0.1443(5)
C9A C -0.2522(5) 0.3982(5) 0.1670(3)
C10A C -0.3429(5) 0.3856(5) 0.2185(3)
H3A H -0.3964 0.4360 0.2310
C11A C -0.3388(6) 0.2848(6) 0.2476(4)
C12A C -0.2580(5) 0.6772(5) -0.2578(3)
H4A H -0.3166 0.6899 -0.2231
C13A C -0.2615(6) 0.7396(5) -0.3293(3)
H5A H -0.3089 0.8030 -0.3412
C14A C -0.0936(5) 0.5792(5) -0.2841(3)
C15A C -0.0106(5) 0.4915(5) -0.2539(3)
C16A C 0.0778(6) 0.4539(5) -0.2948(3)
H6A H 0.0859 0.4856 -0.3470
C17A C 0.1542(5) 0.3708(5) -0.2609(3)
C18A C 0.1387(5) 0.3258(5) -0.1838(3)
H7A H 0.1891 0.2683 -0.1582
C19A C 0.0490(5) 0.3662(5) -0.1456(3)
H8A H 0.0397 0.3362 -0.0932
C20A C -0.2273(5) 0.3595(5) -0.1693(3)
H9A H -0.1522 0.3343 -0.1802
C21A C -0.3055(6) 0.3155(5) -0.1789(3)
H10A H -0.2834 0.2609 -0.1966
C22A C -0.4153(6) 0.3490(5) -0.1634(3)
C23A C -0.4422(5) 0.4282(5) -0.1349(3)
H11A H -0.5165 0.4527 -0.1215
C24A C -0.3601(5) 0.4700(5) -0.1266(3)
C25A C -0.3805(5) 0.5534(4) -0.0987(3)
C26A C -0.4828(5) 0.6038(5) -0.0806(3)
H12A H -0.5467 0.5836 -0.0852
C27A C -0.4936(5) 0.6832(5) -0.0560(3)
C28A C -0.3965(5) 0.7030(5) -0.0451(3)
H13A H -0.3996 0.7530 -0.0242
C29A C -0.2956(5) 0.6520(5) -0.0637(3)
H14A H -0.2308 0.6685 -0.0563
C30A C 0.1950(5) 0.1504(5) 0.2067(3)
H15A H 0.1879 0.2223 0.1868
H16A H 0.2509 0.1217 0.2431
H17A H 0.2169 0.1230 0.1661
C31A C -0.1044(10) -0.0082(9) 0.3842(5)
H18A H -0.1783 0.0308 0.3896
H19A H -0.1096 -0.0664 0.3727
H20A H -0.0686 -0.0295 0.4306
C32A C -0.2222(5) 0.4931(4) 0.1199(3)
H21A H -0.2325 0.5048 0.0679
H22A H -0.2691 0.5470 0.1354
H23A H -0.1452 0.4905 0.1251
C33A C -0.4148(7) 0.2286(7) 0.3059(5)
H24A H -0.3766 0.1912 0.3513
H25A H -0.4796 0.2753 0.3166
H26A H -0.4377 0.1829 0.2876
C34A C -0.0758(7) 0.1556(6) -0.0309(4)
H27A H 0.0033 0.1282 -0.0311
H28A H -0.1084 0.1354 -0.0646
H29A H -0.0885 0.2280 -0.0474
C35A C -0.2765(11) -0.0392(8) 0.2030(6)
H30A H -0.3497 -0.0047 0.2155
H31A H -0.2835 -0.0906 0.1840
H32A H -0.2350 -0.0697 0.2475
C36A C 0.2520(7) 0.3283(6) -0.3041(4)
H33A H 0.2892 0.3813 -0.3360
H34A H 0.3031 0.2779 -0.2693
H35A H 0.2270 0.2983 -0.3348
C37A C -0.5027(7) 0.3066(7) -0.1778(5)
H36A H -0.4689 0.2473 -0.1910
H37A H -0.5522 0.2891 -0.1329
H38A H -0.5445 0.3557 -0.2187
C38A C -0.6041(5) 0.7432(6) -0.0421(4)
H39A H -0.6568 0.6997 -0.0213
H40A H -0.5988 0.7759 -0.0069
H41A H -0.6287 0.7933 -0.0890
N2A N -0.1272(4) 0.4170(4) -0.0368(2)
N3A N 0.0669(4) 0.4068(4) 0.1224(2)
C39A C 0.0754(5) 0.2168(5) 0.0562(3)
N4A N -0.0056(4) 0.1592(4) 0.2084(3)
N5A N -0.0841(5) 0.1133(4) 0.2573(3)
N6A N -0.1957(4) 0.3092(4) 0.1649(2)
N7A N -0.2501(4) 0.2399(4) 0.2147(3)
N8A N -0.1286(5) 0.1580(4) 0.0991(3)
N9A N -0.1848(5) 0.1047(4) 0.1607(3)
N10A N -0.1770(4) 0.5993(4) -0.2338(2)
N11A N -0.0251(4) 0.4457(4) -0.1794(2)
N12A N -0.2536(4) 0.4374(4) -0.1447(2)
N13A N -0.2870(4) 0.5791(4) -0.0922(2)
Co1A Co -0.15381(6) 0.51066(6) -0.13250(4)
Fe1A Fe -0.05555(7) 0.26109(6) 0.10936(4)
B1A B -0.1966(7) 0.1293(7) 0.2309(5)
H42A H -0.2423 0.0871 0.2701
C40A C -0.1091(15) 0.6285(13) -0.3613(10)
H43A H -0.0605 0.6056 -0.3970
C41A C -0.1948(14) 0.7097(12) -0.3849(8)
C42A C -0.2060(15) 0.7715(14) -0.4673(7)
H44A H -0.2759 0.8195 -0.4729
H45A H -0.1453 0.8066 -0.4858
H46A H -0.2039 0.7278 -0.4958
C46 C 0.5881(5) 0.9258(5) 1.0326(3)
C47 C 0.5898(5) 0.9700(5) 0.9573(3)
H52 H 0.6522 0.9512 0.9273
C48 C 0.5024(5) 1.0414(5) 0.9243(3)
H53 H 0.5036 1.0686 0.8716
O1 O 0.6711(4) 0.8528(4) 1.0682(2)
H54 H 0.7244 0.8454 1.0374
C46A C 0.4119(5) 1.0742(5) 0.9674(3)
C47A C 0.4102(5) 1.0300(5) 1.0427(3)
H52A H 0.3478 1.0488 1.0727
C48A C 0.4976(5) 0.9586(5) 1.0757(3)
H53A H 0.4964 0.9314 1.1284
O1A O 0.3289(4) 1.1472(4) 0.9318(2)
H54A H 0.2756 1.1546 0.9626
C73 C 0.6670(9) 0.1459(8) 0.6206(6)
C74 C 0.5931(11) 0.1207(10) 0.6820(6)
H75 H 0.5818 0.1536 0.7176
C75 C 0.5357(11) 0.0475(11) 0.6913(8)
H76 H 0.4851 0.0303 0.7332
C76 C 0.5521(11) -0.0006(10) 0.6392(10)
H77 H 0.5129 -0.0506 0.6455
C77 C 0.6261(12) 0.0246(10) 0.5778(8)
H78 H 0.6373 -0.0082 0.5422
C78 C 0.6835(11) 0.0979(10) 0.5685(7)
H79 H 0.7340 0.1151 0.5266
C79 C 0.8333(8) 0.1904(8) 0.6775(5)
C80 C 0.8232(9) 0.1135(8) 0.7438(6)
H80 H 0.7637 0.0807 0.7532
C81 C 0.9002(11) 0.0845(8) 0.7962(5)
H81 H 0.8933 0.0320 0.8414
C82 C 0.9872(9) 0.1325(11) 0.7823(6)
H82 H 1.0398 0.1127 0.8181
C83 C 0.9973(9) 0.2094(10) 0.7161(7)
H83 H 1.0568 0.2422 0.7066
C84 C 0.9203(10) 0.2384(7) 0.6637(5)
H84 H 0.9272 0.2909 0.6184
C85 C 0.6517(8) 0.3391(7) 0.6223(5)
C86 C 0.5443(9) 0.3608(8) 0.6027(6)
H85 H 0.5181 0.3151 0.5889
C87 C 0.4752(7) 0.4496(9) 0.6035(8)
H86 H 0.4017 0.4645 0.5901
C88 C 0.5135(9) 0.5166(7) 0.6238(8)
H87 H 0.4662 0.5772 0.6243
C89 C 0.6209(10) 0.4948(8) 0.6433(7)
H88 H 0.6471 0.5406 0.6572
C90 C 0.6900(7) 0.4060(9) 0.6426(5)
H89 H 0.7635 0.3912 0.6559
C91 C 0.8801(13) 0.2878(12) 0.3793(6)
H90 H 0.9047 0.2938 0.3292
C92 C 0.9360(11) 0.2160(11) 0.4381(7)
H91 H 1.010(13) 0.174(12) 0.430(7)
C93 C 0.8992(8) 0.2035(7) 0.5126(5)
H92 H 0.9395 0.1542 0.5517
C94 C 0.8026(6) 0.2647(7) 0.5279(3)
C95 C 0.7464(8) 0.3383(8) 0.4701(5)
H93 H 0.6804 0.3802 0.4806
C96 C 0.7867(14) 0.3507(11) 0.3969(4)
H94 H 0.7496 0.4034 0.3580
B3 B 0.7375(15) 0.2333(14) 0.6144(8)
C73A C 1.3330(9) 0.8541(8) 0.3794(6)
C74A C 1.4069(11) 0.8793(10) 0.3180(6)
H75A H 1.4182 0.8464 0.2824
C75A C 1.4643(11) 0.9525(11) 0.3087(8)
H76A H 1.5149 0.9697 0.2668
C76A C 1.4479(11) 1.0006(10) 0.3608(10)
H77A H 1.4871 1.0506 0.3545
C77A C 1.3739(12) 0.9754(10) 0.4222(8)
H78A H 1.3627 1.0082 0.4578
C78A C 1.3165(11) 0.9021(10) 0.4315(7)
H79A H 1.2660 0.8849 0.4734
C79A C 1.1667(8) 0.8096(8) 0.3225(5)
C80A C 1.1768(9) 0.8865(8) 0.2562(6)
H80A H 1.2363 0.9193 0.2468
C81A C 1.0998(11) 0.9155(8) 0.2038(5)
H81A H 1.1067 0.9680 0.1586
C82A C 1.0128(9) 0.8675(11) 0.2177(6)
H82A H 0.9602 0.8873 0.1819
C83A C 1.0027(9) 0.7906(10) 0.2839(7)
H83A H 0.9432 0.7578 0.2934
C84A C 1.0797(10) 0.7616(7) 0.3363(5)
H84A H 1.0728 0.7091 0.3816
C85A C 1.3483(8) 0.6609(7) 0.3777(5)
C86A C 1.4557(9) 0.6392(8) 0.3973(6)
H85A H 1.4819 0.6849 0.4111
C87A C 1.5248(7) 0.5504(9) 0.3965(8)
H86A H 1.5983 0.5355 0.4099
C88A C 1.4865(9) 0.4834(7) 0.3762(8)
H87A H 1.5338 0.4228 0.3757
C89A C 1.3791(10) 0.5052(8) 0.3567(7)
H88A H 1.3529 0.4594 0.3428
C90A C 1.3100(7) 0.5940(9) 0.3574(5)
H89A H 1.2365 0.6088 0.3441
C91A C 1.1199(13) 0.7122(12) 0.6207(6)
H90A H 1.0953 0.7062 0.6708
C92A C 1.0640(11) 0.7840(11) 0.5619(7)
H91A H 0.990(13) 0.826(12) 0.570(7)
C93A C 1.1008(8) 0.7965(7) 0.4874(5)
H92A H 1.0605 0.8458 0.4483
C94A C 1.1974(6) 0.7353(7) 0.4721(3)
C95A C 1.2536(8) 0.6617(8) 0.5299(5)
H93A H 1.3196 0.6198 0.5194
C96A C 1.2133(14) 0.6493(11) 0.6031(4)
H94A H 1.2504 0.5966 0.6420
B3A B 1.2625(15) 0.7667(14) 0.3856(8)
O2 O 0.462(2) 0.209(2) 0.5068(12)
H47? H 0.3277 0.2169 0.3479
C43? C 0.1585(14) 0.2632(12) 0.3765(7)
C44? C 0.0790(15) 0.3463(14) 0.3538(8)
H48? H 0.0136 0.3546 0.3845
C45? C 0.1447(13) 0.1847(11) 0.4488(6)
H49? H 0.1105 0.2151 0.4865
H50? H 0.2167 0.1436 0.4638
H51? H 0.0978 0.1435 0.4439
C49? C 0.8381(8) 0.2406(6) 0.6730(4)
C50? C 0.7596(7) 0.1822(7) 0.6979(4)
H55? H 0.6999 0.1947 0.6687
C51? C 0.7683(8) 0.1056(6) 0.7655(5)
H56? H 0.7146 0.0657 0.7825
C52? C 0.8555(9) 0.0873(7) 0.8083(4)
H57? H 0.8615 0.0349 0.8545
C53? C 0.9341(7) 0.1457(9) 0.7834(5)
H58? H 0.9937 0.1332 0.8126
C54? C 0.9253(7) 0.2224(8) 0.7158(5)
H59? H 0.9790 0.2623 0.6988
C55? C 0.6992(6) 0.4114(6) 0.6060(4)
C56? C 0.6012(7) 0.4121(7) 0.5808(4)
H60? H 0.6001 0.3704 0.5533
C57? C 0.5049(6) 0.4740(10) 0.5957(6)
H61? H 0.4379 0.4745 0.5785
C58? C 0.5066(7) 0.5351(9) 0.6359(7)
H62? H 0.4408 0.5774 0.6462
C59? C 0.6046(8) 0.5343(7) 0.6612(6)
H63? H 0.6058 0.5761 0.6887
C60? C 0.7009(6) 0.4725(7) 0.6462(4)
H64? H 0.7679 0.4720 0.6635
C61? C 0.8058(6) 0.2909(7) 0.5217(4)
C62? C 0.8442(10) 0.1914(6) 0.5300(5)
H65? H 0.8642 0.1451 0.5772
C63? C 0.8532(11) 0.1599(7) 0.4692(5)
H66? H 0.8796 0.0919 0.4749
C64? C 0.8239(11) 0.2272(8) 0.4001(5)
H67? H 0.8291 0.2049 0.3590
C65? C 0.7872(12) 0.3270(8) 0.3911(5)
H68? H 0.7672 0.3730 0.3438
C66? C 0.7797(12) 0.3596(7) 0.4512(6)
H69? H 0.7571 0.4281 0.4448
B2? B 0.8187(12) 0.3357(11) 0.5911(7)
C67? C 0.9196(6) 0.3996(4) 0.5577(5)
C68? C 1.0279(6) 0.3483(2) 0.5568(5)
H70? H 1.0449 0.2785 0.5798
C69? C 1.1113(5) 0.3993(5) 0.5223(6)
H71? H 1.1857 0.3649 0.5241
C70? C 1.0859(8) 0.5006(6) 0.4852(16)
H72? H 1.1427 0.5351 0.4605
C71? C 0.9773(8) 0.5515 0.4842
H73? H 0.9600 0.6209 0.4593
C72? C 0.8941(7) 0.5006(6) 0.5197(19)
H74? H 0.8197 0.5350 0.5179
loop_
_geom_bond_atom_site_label_1
_geom_bond_atom_site_label_2
_geom_bond_site_symmetry_1
_geom_bond_site_symmetry_2
C1 N2 1_555 1_555
C2 N3 1_555 1_555
N1 C39 1_555 1_555
C3 C4 1_555 1_555
C4 H1 1_555 1_555
C5 C4 1_555 1_555
C6 C7 1_555 1_555
C7 H2 1_555 1_555
C8 C7 1_555 1_555
C9 C10 1_555 1_555
C10 H3 1_555 1_555
C11 C10 1_555 1_555
C12 H4 1_555 1_555
C13 C12 1_555 1_555
H5 C13 1_555 1_555
C14 C15 1_555 1_555
C15 C16 1_555 1_555
C16 H6 1_555 1_555
C17 C16 1_555 1_555
C18 C17 1_555 1_555
H7 C18 1_555 1_555
C19 C18 1_555 1_555
H8 C19 1_555 1_555
C20 H9 1_555 1_555
C21 C20 1_555 1_555
H10 C21 1_555 1_555
C22 C21 1_555 1_555
C23 C22 1_555 1_555
H11 C23 1_555 1_555
C24 C23 1_555 1_555
C25 C24 1_555 1_555
C26 C25 1_555 1_555
H12 C26 1_555 1_555
C27 C26 1_555 1_555
C28 C27 1_555 1_555
H13 C28 1_555 1_555
C29 C28 1_555 1_555
H14 C29 1_555 1_555
C30 C3 1_555 1_555
H15 C30 1_555 1_555
H16 C30 1_555 1_555
H17 C30 1_555 1_555
C31 C5 1_555 1_555
H18 C31 1_555 1_555
H19 C31 1_555 1_555
H20 C31 1_555 1_555
C32 C9 1_555 1_555
H21 C32 1_555 1_555
H22 C32 1_555 1_555
H23 C32 1_555 1_555
C33 C11 1_555 1_555
H24 C33 1_555 1_555
H25 C33 1_555 1_555
H26 C33 1_555 1_555
C34 C6 1_555 1_555
H27 C34 1_555 1_555
H28 C34 1_555 1_555
H29 C34 1_555 1_555
C35 C8 1_555 1_555
H30 C35 1_555 1_555
H31 C35 1_555 1_555
H32 C35 1_555 1_555
C36 C17 1_555 1_555
H33 C36 1_555 1_555
H34 C36 1_555 1_555
H35 C36 1_555 1_555
C37 C22 1_555 1_555
H36 C37 1_555 1_555
H37 C37 1_555 1_555
H38 C37 1_555 1_555
C38 C27 1_555 1_555
H39 C38 1_555 1_555
H40 C38 1_555 1_555
H41 C38 1_555 1_555
N2 Co1 1_555 1_555
N3 Co1A 1_555 1_555
C39 Fe1 1_555 1_555
N4 C3 1_555 1_555
N5 C5 1_555 1_555
N6 C9 1_555 1_555
N7 C11 1_555 1_555
N8 C6 1_555 1_555
N9 C8 1_555 1_555
N10 C12 1_555 1_555
N11 C15 1_555 1_555
N12 C20 1_555 1_555
N13 C25 1_555 1_555
Co1 N10 1_555 1_555
Fe1 C1 1_555 1_555
B1 N5 1_555 1_555
H42 B1 1_555 1_555
C40 C14 1_555 1_555
H43 C40 1_555 1_555
C41 C13 1_555 1_555
C42 C41 1_555 1_555
H44 C42 1_555 1_555
H45 C42 1_555 1_555
H46 C42 1_555 1_555
C46 C47 1_555 1_555
C47 H52 1_555 1_555
C48 C47 1_555 1_555
H53 C48 1_555 1_555
O1 C46 1_555 1_555
H54 O1 1_555 1_555
C73 C74 1_555 1_555
C74 H75 1_555 1_555
C75 C74 1_555 1_555
H76 C75 1_555 1_555
C76 C75 1_555 1_555
H77 C76 1_555 1_555
C77 C76 1_555 1_555
H78 C77 1_555 1_555
C78 C73 1_555 1_555
H79 C78 1_555 1_555
C79 C80 1_555 1_555
C80 H80 1_555 1_555
C81 C80 1_555 1_555
H81 C81 1_555 1_555
C82 C81 1_555 1_555
H82 C82 1_555 1_555
C83 C82 1_555 1_555
H83 C83 1_555 1_555
C84 C79 1_555 1_555
H84 C84 1_555 1_555
C85 C86 1_555 1_555
C86 H85 1_555 1_555
C87 C86 1_555 1_555
H86 C87 1_555 1_555
C88 C87 1_555 1_555
H87 C88 1_555 1_555
C89 C88 1_555 1_555
H88 C89 1_555 1_555
C90 C85 1_555 1_555
H89 C90 1_555 1_555
C91 H90 1_555 1_555
C92 C91 1_555 1_555
H91 C92 1_555 1_555
C93 C92 1_555 1_555
H92 C93 1_555 1_555
C94 C93 1_555 1_555
C95 C94 1_555 1_555
H93 C95 1_555 1_555
C96 C91 1_555 1_555
H94 C96 1_555 1_555
B3 C73 1_555 1_555
C1A N2A 1_555 1_555
C2A N3A 1_555 1_555
N1A C39A 1_555 1_555
C3A C4A 1_555 1_555
C4A H1A 1_555 1_555
C5A C4A 1_555 1_555
C6A C7A 1_555 1_555
C7A H2A 1_555 1_555
C8A C7A 1_555 1_555
C9A C10A 1_555 1_555
C10A H3A 1_555 1_555
C11A C10A 1_555 1_555
C12A H4A 1_555 1_555
C13A C12A 1_555 1_555
H5A C13A 1_555 1_555
C14A C15A 1_555 1_555
C15A C16A 1_555 1_555
C16A H6A 1_555 1_555
C17A C16A 1_555 1_555
C18A C17A 1_555 1_555
H7A C18A 1_555 1_555
C19A C18A 1_555 1_555
H8A C19A 1_555 1_555
C20A H9A 1_555 1_555
C21A C20A 1_555 1_555
H10A C21A 1_555 1_555
C22A C21A 1_555 1_555
C23A C22A 1_555 1_555
H11A C23A 1_555 1_555
C24A C23A 1_555 1_555
C25A C24A 1_555 1_555
C26A C25A 1_555 1_555
H12A C26A 1_555 1_555
C27A C26A 1_555 1_555
C28A C27A 1_555 1_555
H13A C28A 1_555 1_555
C29A C28A 1_555 1_555
H14A C29A 1_555 1_555
C30A C3A 1_555 1_555
H15A C30A 1_555 1_555
H16A C30A 1_555 1_555
H17A C30A 1_555 1_555
C31A C5A 1_555 1_555
H18A C31A 1_555 1_555
H19A C31A 1_555 1_555
H20A C31A 1_555 1_555
C32A C9A 1_555 1_555
H21A C32A 1_555 1_555
H22A C32A 1_555 1_555
H23A C32A 1_555 1_555
C33A C11A 1_555 1_555
H24A C33A 1_555 1_555
H25A C33A 1_555 1_555
H26A C33A 1_555 1_555
C34A C6A 1_555 1_555
H27A C34A 1_555 1_555
H28A C34A 1_555 1_555
H29A C34A 1_555 1_555
C35A C8A 1_555 1_555
H30A C35A 1_555 1_555
H31A C35A 1_555 1_555
H32A C35A 1_555 1_555
C36A C17A 1_555 1_555
H33A C36A 1_555 1_555
H34A C36A 1_555 1_555
H35A C36A 1_555 1_555
C37A C22A 1_555 1_555
H36A C37A 1_555 1_555
H37A C37A 1_555 1_555
H38A C37A 1_555 1_555
C38A C27A 1_555 1_555
H39A C38A 1_555 1_555
H40A C38A 1_555 1_555
H41A C38A 1_555 1_555
N2A Co1A 1_555 1_555
N3A Co1 1_555 1_555
C39A Fe1A 1_555 1_555
N4A C3A 1_555 1_555
N5A C5A 1_555 1_555
N6A C9A 1_555 1_555
N7A C11A 1_555 1_555
N8A C6A 1_555 1_555
N9A C8A 1_555 1_555
N10A C12A 1_555 1_555
N11A C15A 1_555 1_555
N12A C20A 1_555 1_555
N13A C25A 1_555 1_555
Co1A N10A 1_555 1_555
Fe1A C1A 1_555 1_555
B1A N5A 1_555 1_555
H42A B1A 1_555 1_555
C40A C14A 1_555 1_555
H43A C40A 1_555 1_555
C41A C13A 1_555 1_555
C42A C41A 1_555 1_555
H44A C42A 1_555 1_555
H45A C42A 1_555 1_555
H46A C42A 1_555 1_555
C46A C48 1_555 1_555
C47A C46A 1_555 1_555
H52A C47A 1_555 1_555
C48A C46 1_555 1_555
H53A C48A 1_555 1_555
O1A C46A 1_555 1_555
H54A O1A 1_555 1_555
C73A C74A 1_555 1_555
C74A H75A 1_555 1_555
C75A C74A 1_555 1_555
H76A C75A 1_555 1_555
C76A C75A 1_555 1_555
H77A C76A 1_555 1_555
C77A C76A 1_555 1_555
H78A C77A 1_555 1_555
C78A C73A 1_555 1_555
H79A C78A 1_555 1_555
C79A C80A 1_555 1_555
C80A H80A 1_555 1_555
C81A C80A 1_555 1_555
H81A C81A 1_555 1_555
C82A C81A 1_555 1_555
H82A C82A 1_555 1_555
C83A C82A 1_555 1_555
H83A C83A 1_555 1_555
C84A C79A 1_555 1_555
H84A C84A 1_555 1_555
C85A C86A 1_555 1_555
C86A H85A 1_555 1_555
C87A C86A 1_555 1_555
H86A C87A 1_555 1_555
C88A C87A 1_555 1_555
H87A C88A 1_555 1_555
C89A C88A 1_555 1_555
H88A C89A 1_555 1_555
C90A C85A 1_555 1_555
H89A C90A 1_555 1_555
C91A H90A 1_555 1_555
C92A C91A 1_555 1_555
H91A C92A 1_555 1_555
C93A C92A 1_555 1_555
H92A C93A 1_555 1_555
C94A C93A 1_555 1_555
C95A C94A 1_555 1_555
H93A C95A 1_555 1_555
C96A C91A 1_555 1_555
H94A C96A 1_555 1_555
B3A C73A 1_555 1_555
C2 Fe1 1_555 1_555
C14 N10 1_555 1_555
C19 N11 1_555 1_555
C24 N12 1_555 1_555
C29 N13 1_555 1_555
N4 N5 1_555 1_555
N4 Fe1 1_555 1_555
N6 N7 1_555 1_555
N6 Fe1 1_555 1_555
N7 B1 1_555 1_555
N8 N9 1_555 1_555
N8 Fe1 1_555 1_555
N9 B1 1_555 1_555
N11 Co1 1_555 1_555
N12 Co1 1_555 1_555
N13 Co1 1_555 1_555
C40 C41 1_555 1_555
C77 C78 1_555 1_555
C79 B3 1_555 1_555
C83 C84 1_555 1_555
C85 B3 1_555 1_555
C89 C90 1_555 1_555
C94 B3 1_555 1_555
C95 C96 1_555 1_555
C2A Fe1A 1_555 1_555
C14A N10A 1_555 1_555
C19A N11A 1_555 1_555
C24A N12A 1_555 1_555
C29A N13A 1_555 1_555
N4A N5A 1_555 1_555
N4A Fe1A 1_555 1_555
N6A N7A 1_555 1_555
N6A Fe1A 1_555 1_555
N7A B1A 1_555 1_555
N8A N9A 1_555 1_555
N8A Fe1A 1_555 1_555
N9A B1A 1_555 1_555
N11A Co1A 1_555 1_555
N12A Co1A 1_555 1_555
N13A Co1A 1_555 1_555
C40A C41A 1_555 1_555
C47A C48A 1_555 1_555
C77A C78A 1_555 1_555
C79A B3A 1_555 1_555
C83A C84A 1_555 1_555
C85A B3A 1_555 1_555
C89A C90A 1_555 1_555
C94A B3A 1_555 1_555
C95A C96A 1_555 1_555

#END
