# generated using pymatgen
data_Fe6Co6B6P7H300C272N82(O8F21)2
_symmetry_space_group_name_H-M   'P 1'
_cell_length_a   25.87000000
_cell_length_b   26.18081599
_cell_length_c   31.34213535
_cell_angle_alpha   102.69278109
_cell_angle_beta   102.26225677
_cell_angle_gamma   118.66021380
_symmetry_Int_Tables_number   1
_chemical_formula_structural   Fe6Co6B6P7H300C272N82(O8F21)2
_chemical_formula_sum   'Fe12 Co12 B12 P14 H600 C544 N164 O32 F84'
_cell_volume   16873.48867601
_cell_formula_units_Z   2
loop_
 _symmetry_equiv_pos_site_id
 _symmetry_equiv_pos_as_xyz
  1  'x, y, z'
loop_
 _atom_site_type_symbol
 _atom_site_label
 _atom_site_symmetry_multiplicity
 _atom_site_fract_x
 _atom_site_fract_y
 _atom_site_fract_z
 _atom_site_occupancy
  B  B1  1  0.617000  0.625900  0.254000  1.0
  B  B2  1  0.137000  0.628100  0.254000  1.0
  B  B3  1  0.383000  0.374100  0.746000  1.0
  B  B4  1  0.863000  0.371900  0.746000  1.0
  B  B5  1  0.894100  0.889500  0.261800  1.0
  B  B6  1  0.867700  0.372300  0.261800  1.0
  B  B7  1  0.105900  0.110500  0.738200  1.0
  B  B8  1  0.132300  0.627700  0.738200  1.0
  B  B9  1  0.591500  0.363100  0.238000  1.0
  B  B10  1  0.146500  0.874900  0.238000  1.0
  B  B11  1  0.408500  0.636900  0.762000  1.0
  B  B12  1  0.853500  0.125100  0.762000  1.0
  C  C13  1  0.479920  0.923020  0.236640  1
  C  C14  1  0.256720  0.313620  0.236640  1
  C  C15  1  0.520080  0.076980  0.763360  1
  C  C16  1  0.743280  0.686380  0.763360  1
  C  C17  1  0.508380  0.890580  0.241160  1
  C  C18  1  0.232780  0.350580  0.241160  1
  C  C19  1  0.491620  0.109420  0.758840  1
  C  C20  1  0.767220  0.649420  0.758840  1
  C  C21  1  0.514610  0.987110  0.243820  1
  C  C22  1  0.229210  0.256710  0.243820  1
  C  C23  1  0.485390  0.012890  0.756180  1
  C  C24  1  0.770790  0.743290  0.756180  1
  C  C25  1  0.580070  0.018370  0.257740  1
  C  C26  1  0.177670  0.239370  0.257740  1
  C  C27  1  0.419930  0.981630  0.742260  1
  C  C28  1  0.822330  0.760630  0.742260  1
  C  C29  1  0.574990  0.923690  0.253580  1
  C  C30  1  0.178590  0.329890  0.253580  1
  C  C31  1  0.425010  0.076310  0.746420  1
  C  C32  1  0.821410  0.670110  0.746420  1
  C  C33  1  0.609960  0.987560  0.261320  1
  C  C34  1  0.151360  0.273760  0.261320  1
  C  C35  1  0.390040  0.012440  0.738680  1
  C  C36  1  0.848640  0.726240  0.738680  1
  C  C37  1  0.432800  0.346900  0.866800  1
  C  C38  1  0.934000  0.519900  0.866800  1
  C  C39  1  0.567200  0.653100  0.133200  1
  C  C40  1  0.066000  0.480100  0.133200  1
  C  C41  1  0.374900  0.348300  0.867200  1
  C  C42  1  0.992300  0.518900  0.867200  1
  C  C43  1  0.625100  0.651700  0.132800  1
  C  C44  1  0.007700  0.481100  0.132800  1
  C  C45  1  0.170200  0.290800  0.001800  1
  C  C46  1  0.331600  0.711000  0.001800  1
  C  C47  1  0.829800  0.709200  0.998200  1
  C  C48  1  0.668400  0.289000  0.998200  1
  C  C49  1  0.158500  0.328100  0.973400  1
  C  C50  1  0.314900  0.645300  0.973400  1
  C  C51  1  0.841500  0.671900  0.026600  1
  C  C52  1  0.685100  0.354700  0.026600  1
  C  C53  1  0.415270  0.571670  0.186340  1.0
  C  C54  1  0.271070  0.614670  0.186340  1.0
  C  C55  1  0.584730  0.428330  0.813660  1.0
  C  C56  1  0.728930  0.385330  0.813660  1.0
  C  C57  1  0.450480  0.607880  0.279160  1.0
  C  C58  1  0.328680  0.671280  0.279160  1.0
  C  C59  1  0.549520  0.392120  0.720840  1.0
  C  C60  1  0.671320  0.328720  0.720840  1.0
  C  C61  1  0.411670  0.493270  0.225340  1.0
  C  C62  1  0.313670  0.732070  0.225340  1.0
  C  C63  1  0.588330  0.506730  0.774660  1.0
  C  C64  1  0.686330  0.267930  0.774660  1.0
  C  C65  1  0.534240  0.559040  0.325680  1.0
  C  C66  1  0.291440  0.766640  0.325680  1.0
  C  C67  1  0.465760  0.440960  0.674320  1.0
  C  C68  1  0.708560  0.233360  0.674320  1.0
  C  C69  1  0.595100  0.576700  0.354400  1.0
  C  C70  1  0.259300  0.777700  0.354400  1.0
  C  C71  1  0.404900  0.423300  0.645600  1.0
  C  C72  1  0.740700  0.222300  0.645600  1.0
  C  C73  1  0.633767  0.605167  0.333333  1.0
  C  C74  1  0.199567  0.728167  0.333333  1.0
  C  C75  1  0.366233  0.394833  0.666667  1.0
  C  C76  1  0.800433  0.271833  0.666667  1.0
  C  C77  1  0.486630  0.499130  0.148460  1.0
  C  C78  1  0.161830  0.649330  0.148460  1.0
  C  C79  1  0.513370  0.500870  0.851540  1.0
  C  C80  1  0.838170  0.350670  0.851540  1.0
  C  C81  1  0.535200  0.495400  0.138000  1.0
  C  C82  1  0.102800  0.642600  0.138000  1.0
  C  C83  1  0.464800  0.504600  0.862000  1.0
  C  C84  1  0.897200  0.357400  0.862000  1.0
  C  C85  1  0.589700  0.540100  0.174800  1.0
  C  C86  1  0.085100  0.634700  0.174800  1.0
  C  C87  1  0.410300  0.459900  0.825200  1.0
  C  C88  1  0.914900  0.365300  0.825200  1.0
  C  C89  1  0.546050  0.713650  0.241500  1.0
  C  C90  1  0.195450  0.527850  0.241500  1.0
  C  C91  1  0.453950  0.286350  0.758500  1.0
  C  C92  1  0.804550  0.472150  0.758500  1.0
  C  C93  1  0.609500  0.761700  0.249000  1.0
  C  C94  1  0.139500  0.487300  0.249000  1.0
  C  C95  1  0.390500  0.238300  0.751000  1.0
  C  C96  1  0.860500  0.512700  0.751000  1.0
  C  C97  1  0.644800  0.735900  0.254400  1.0
  C  C98  1  0.109600  0.518500  0.254400  1.0
  C  C99  1  0.355200  0.264100  0.745600  1.0
  C  C100  1  0.890400  0.481500  0.745600  1.0
  C  C101  1  0.448800  0.785700  0.428200  1.0
  C  C102  1  0.479400  0.642500  0.428200  1.0
  C  C103  1  0.551200  0.214300  0.571800  1.0
  C  C104  1  0.520600  0.357500  0.571800  1.0
  C  C105  1  0.428200  0.812500  0.457000  1.0
  C  C106  1  0.528800  0.644500  0.457000  1.0
  C  C107  1  0.571800  0.187500  0.543000  1.0
  C  C108  1  0.471200  0.355500  0.543000  1.0
  C  C109  1  0.371700  0.780400  0.461000  1.0
  C  C110  1  0.589300  0.680600  0.461000  1.0
  C  C111  1  0.628300  0.219600  0.539000  1.0
  C  C112  1  0.410700  0.319400  0.539000  1.0
  C  C113  1  0.334900  0.717800  0.435000  1.0
  C  C114  1  0.600100  0.717200  0.435000  1.0
  C  C115  1  0.665100  0.282200  0.565000  1.0
  C  C116  1  0.399900  0.282800  0.565000  1.0
  C  C117  1  0.355590  0.691590  0.405380  1.0
  C  C118  1  0.549790  0.713790  0.405380  1.0
  C  C119  1  0.644410  0.308410  0.594620  1.0
  C  C120  1  0.450210  0.286210  0.594620  1.0
  C  C121  1  0.323230  0.623730  0.379860  1.0
  C  C122  1  0.556630  0.756130  0.379860  1.0
  C  C123  1  0.676770  0.376270  0.620140  1.0
  C  C124  1  0.443370  0.243870  0.620140  1.0
  C  C125  1  0.265900  0.578300  0.381200  1.0
  C  C126  1  0.615300  0.802900  0.381200  1.0
  C  C127  1  0.734100  0.421700  0.618800  1.0
  C  C128  1  0.384700  0.197100  0.618800  1.0
  C  C129  1  0.243000  0.513300  0.359400  1.0
  C  C130  1  0.616400  0.846100  0.359400  1.0
  C  C131  1  0.757000  0.486700  0.640600  1.0
  C  C132  1  0.383600  0.153900  0.640600  1.0
  C  C133  1  0.278630  0.498330  0.337660  1.0
  C  C134  1  0.559030  0.839330  0.337660  1.0
  C  C135  1  0.721370  0.501670  0.662340  1.0
  C  C136  1  0.440970  0.160670  0.662340  1.0
  C  C137  1  0.331940  0.544540  0.335280  1.0
  C  C138  1  0.503340  0.790740  0.335280  1.0
  C  C139  1  0.668060  0.455460  0.664720  1.0
  C  C140  1  0.496660  0.209260  0.664720  1.0
  C  C141  1  0.381060  0.570860  0.058120  1.0
  C  C142  1  0.177060  0.487260  0.058120  1.0
  C  C143  1  0.618940  0.429140  0.941880  1.0
  C  C144  1  0.822940  0.512740  0.941880  1.0
  C  C145  1  0.405300  0.557900  0.027600  1.0
  C  C146  1  0.122300  0.469700  0.027600  1.0
  C  C147  1  0.594700  0.442100  0.972400  1.0
  C  C148  1  0.877700  0.530300  0.972400  1.0
  C  C149  1  0.385700  0.498100  0.002800  1.0
  C  C150  1  0.117100  0.504700  0.002800  1.0
  C  C151  1  0.614300  0.501900  0.997200  1.0
  C  C152  1  0.882900  0.495300  0.997200  1.0
  C  C153  1  0.330700  0.449500  0.005600  1.0
  C  C154  1  0.174900  0.556100  0.005600  1.0
  C  C155  1  0.669300  0.550500  0.994400  1.0
  C  C156  1  0.825100  0.443900  0.994400  1.0
  C  C157  1  0.305750  0.467450  0.037900  1.0
  C  C158  1  0.232150  0.570450  0.037900  1.0
  C  C159  1  0.694250  0.532550  0.962100  1.0
  C  C160  1  0.767850  0.429550  0.962100  1.0
  C  C161  1  0.400670  0.634770  0.085340  1.0
  C  C162  1  0.184670  0.450570  0.085340  1.0
  C  C163  1  0.599330  0.365230  0.914660  1.0
  C  C164  1  0.815330  0.549430  0.914660  1.0
  C  C165  1  0.450300  0.690900  0.086800  1.0
  C  C166  1  0.136500  0.395900  0.086800  1.0
  C  C167  1  0.549700  0.309100  0.913200  1.0
  C  C168  1  0.863500  0.604100  0.913200  1.0
  C  C169  1  0.461510  0.748710  0.112020  1.0
  C  C170  1  0.150510  0.363310  0.112020  1.0
  C  C171  1  0.538490  0.251290  0.887980  1.0
  C  C172  1  0.849490  0.636690  0.887980  1.0
  C  C173  1  0.421590  0.747390  0.134380  1.0
  C  C174  1  0.212790  0.386990  0.134380  1.0
  C  C175  1  0.578410  0.252610  0.865620  1.0
  C  C176  1  0.787210  0.613010  0.865620  1.0
  C  C177  1  0.373830  0.691030  0.134460  1.0
  C  C178  1  0.260630  0.443430  0.134460  1.0
  C  C179  1  0.626170  0.308970  0.865540  1.0
  C  C180  1  0.739370  0.556570  0.865540  1.0
  C  C181  1  0.475360  0.524760  0.334320  1.0
  C  C182  1  0.358960  0.809560  0.334320  1.0
  C  C183  1  0.524640  0.475240  0.665680  1.0
  C  C184  1  0.641040  0.190440  0.665680  1.0
  C  C185  1  0.705000  0.631600  0.345200  1.0
  C  C186  1  0.140200  0.713600  0.345200  1.0
  C  C187  1  0.295000  0.368400  0.654800  1.0
  C  C188  1  0.859800  0.286400  0.654800  1.0
  C  C189  1  0.417900  0.461800  0.118600  1.0
  C  C190  1  0.200700  0.656800  0.118600  1.0
  C  C191  1  0.582100  0.538200  0.881400  1.0
  C  C192  1  0.799300  0.343200  0.881400  1.0
  C  C193  1  0.654200  0.553600  0.183400  1.0
  C  C194  1  0.029200  0.629800  0.183400  1.0
  C  C195  1  0.345800  0.446400  0.816600  1.0
  C  C196  1  0.970800  0.370200  0.816600  1.0
  C  C197  1  0.490110  0.716710  0.229620  1.0
  C  C198  1  0.239510  0.512910  0.229620  1.0
  C  C199  1  0.509890  0.283290  0.770380  1.0
  C  C200  1  0.760490  0.487090  0.770380  1.0
  C  C201  1  0.714300  0.766400  0.264600  1.0
  C  C202  1  0.050300  0.498200  0.264600  1.0
  C  C203  1  0.285700  0.233600  0.735400  1.0
  C  C204  1  0.949700  0.501800  0.735400  1.0
  C  C205  1  0.346300  0.808300  0.491800  1.0
  C  C206  1  0.645500  0.683500  0.491800  1.0
  C  C207  1  0.653700  0.191700  0.508200  1.0
  C  C208  1  0.354500  0.316500  0.508200  1.0
  C  C209  1  0.180000  0.465400  0.361000  1.0
  C  C210  1  0.681000  0.895600  0.361000  1.0
  C  C211  1  0.820000  0.534600  0.639000  1.0
  C  C212  1  0.319000  0.104400  0.639000  1.0
  C  C213  1  0.410000  0.477300  0.965600  1.0
  C  C214  1  0.055600  0.488300  0.965600  1.0
  C  C215  1  0.590000  0.522700  0.034400  1.0
  C  C216  1  0.944400  0.511700  0.034400  1.0
  C  C217  1  0.517300  0.809100  0.115800  1.0
  C  C218  1  0.098500  0.306700  0.115800  1.0
  C  C219  1  0.482700  0.190900  0.884200  1.0
  C  C220  1  0.901500  0.693300  0.884200  1.0
  C  C221  1  0.840930  0.013830  0.218860  1.0
  C  C222  1  0.877930  0.205030  0.218860  1.0
  C  C223  1  0.159070  0.986170  0.781140  1.0
  C  C224  1  0.122070  0.794970  0.781140  1.0
  C  C225  1  0.887500  0.059300  0.310600  1.0
  C  C226  1  0.923100  0.251300  0.310600  1.0
  C  C227  1  0.112500  0.940700  0.689400  1.0
  C  C228  1  0.076900  0.748700  0.689400  1.0
  C  C229  1  0.771660  0.962360  0.268120  1.0
  C  C230  1  0.996460  0.305760  0.268120  1.0
  C  C231  1  0.228340  0.037640  0.731880  1.0
  C  C232  1  0.003540  0.694240  0.731880  1.0
  C  C233  1  0.853400  0.942100  0.351400  1.0
  C  C234  1  0.998000  0.409300  0.351400  1.0
  C  C235  1  0.146600  0.057900  0.648600  1.0
  C  C236  1  0.002000  0.590700  0.648600  1.0
  C  C237  1  0.860100  0.907400  0.371400  1.0
  C  C238  1  0.011300  0.464000  0.371400  1.0
  C  C239  1  0.139900  0.092600  0.628600  1.0
  C  C240  1  0.988700  0.536000  0.628600  1.0
  C  C241  1  0.874700  0.879900  0.344400  1.0
  C  C242  1  0.969700  0.464500  0.344400  1.0
  C  C243  1  0.125300  0.120100  0.655600  1.0
  C  C244  1  0.030300  0.535500  0.655600  1.0
  C  C245  1  0.984900  0.046600  0.261800  1.0
  C  C246  1  0.776900  0.215200  0.261800  1.0
  C  C247  1  0.015100  0.953400  0.738200  1.0
  C  C248  1  0.223100  0.784800  0.738200  1.0
  C  C249  1  0.028400  0.031200  0.255800  1.0
  C  C250  1  0.727400  0.224600  0.255800  1.0
  C  C251  1  0.971600  0.968800  0.744200  1.0
  C  C252  1  0.272600  0.775400  0.744200  1.0
  C  C253  1  0.000400  0.968000  0.252600  1.0
  C  C254  1  0.752200  0.284600  0.252600  1.0
  C  C255  1  0.999600  0.032000  0.747400  1.0
  C  C256  1  0.247800  0.715400  0.747400  1.0
  C  C257  1  0.794100  0.805100  0.173800  1.0
  C  C258  1  0.879700  0.368700  0.173800  1.0
  C  C259  1  0.205900  0.194900  0.826200  1.0
  C  C260  1  0.120300  0.631300  0.826200  1.0
  C  C261  1  0.745000  0.804500  0.150200  1.0
  C  C262  1  0.905200  0.345700  0.150200  1.0
  C  C263  1  0.255000  0.195500  0.849800  1.0
  C  C264  1  0.094800  0.654300  0.849800  1.0
  C  C265  1  0.749500  0.857800  0.173200  1.0
  C  C266  1  0.923700  0.315400  0.173200  1.0
  C  C267  1  0.250500  0.142200  0.826800  1.0
  C  C268  1  0.076300  0.684600  0.826800  1.0
  C  C269  1  0.851700  0.130000  0.074800  1.0
  C  C270  1  0.723100  0.944800  0.074800  1.0
  C  C271  1  0.148300  0.870000  0.925200  1.0
  C  C272  1  0.276900  0.055200  0.925200  1.0
  C  C273  1  0.836700  0.157600  0.045400  1.0
  C  C274  1  0.708700  0.887800  0.045400  1.0
  C  C275  1  0.163300  0.842400  0.954600  1.0
  C  C276  1  0.291300  0.112200  0.954600  1.0
  C  C277  1  0.781600  0.157200  0.038800  1.0
  C  C278  1  0.757200  0.881600  0.038800  1.0
  C  C279  1  0.218400  0.842800  0.961200  1.0
  C  C280  1  0.242800  0.118400  0.961200  1.0
  C  C281  1  0.741700  0.129300  0.061600  1.0
  C  C282  1  0.819900  0.932300  0.061600  1.0
  C  C283  1  0.258300  0.870700  0.938400  1.0
  C  C284  1  0.180100  0.067700  0.938400  1.0
  C  C285  1  0.756810  0.101810  0.091020  1.0
  C  C286  1  0.834210  0.989210  0.091020  1.0
  C  C287  1  0.243190  0.898190  0.908980  1.0
  C  C288  1  0.165790  0.010790  0.908980  1.0
  C  C289  1  0.766900  0.186900  0.006000  1.0
  C  C290  1  0.739100  0.819100  0.006000  1.0
  C  C291  1  0.233100  0.813100  0.994000  1.0
  C  C292  1  0.260900  0.180900  0.994000  1.0
  C  C293  1  0.037070  0.319470  0.462940  1.0
  C  C294  1  0.925870  0.143470  0.462940  1.0
  C  C295  1  0.962930  0.680530  0.537060  1.0
  C  C296  1  0.074130  0.856530  0.537060  1.0
  C  C297  1  0.053400  0.376600  0.493600  1.0
  C  C298  1  0.940200  0.117000  0.493600  1.0
  C  C299  1  0.946600  0.623400  0.506400  1.0
  C  C300  1  0.059800  0.883000  0.506400  1.0
  C  C301  1  0.006500  0.387300  0.497200  1.0
  C  C302  1  0.990700  0.109900  0.497200  1.0
  C  C303  1  0.993500  0.612700  0.502800  1.0
  C  C304  1  0.009300  0.890100  0.502800  1.0
  C  C305  1  0.943100  0.340700  0.469800  1.0
  C  C306  1  0.026700  0.129100  0.469800  1.0
  C  C307  1  0.056900  0.659300  0.530200  1.0
  C  C308  1  0.973300  0.870900  0.530200  1.0
  C  C309  1  0.926750  0.283550  0.439100  1.0
  C  C310  1  0.012350  0.155550  0.439100  1.0
  C  C311  1  0.073250  0.716450  0.560900  1.0
  C  C312  1  0.987650  0.844450  0.560900  1.0
  C  C313  1  0.863600  0.230500  0.413400  1.0
  C  C314  1  0.049800  0.182900  0.413400  1.0
  C  C315  1  0.136400  0.769500  0.586600  1.0
  C  C316  1  0.950200  0.817100  0.586600  1.0
  C  C317  1  0.810500  0.230900  0.413200  1.0
  C  C318  1  0.102700  0.182300  0.413200  1.0
  C  C319  1  0.189500  0.769100  0.586800  1.0
  C  C320  1  0.897300  0.817700  0.586800  1.0
  C  C321  1  0.750000  0.175700  0.389200  1.0
  C  C322  1  0.139200  0.213500  0.389200  1.0
  C  C323  1  0.250000  0.824300  0.610800  1.0
  C  C324  1  0.860800  0.786500  0.610800  1.0
  C  C325  1  0.747900  0.122900  0.365600  1.0
  C  C326  1  0.117700  0.242700  0.365600  1.0
  C  C327  1  0.252100  0.877100  0.634400  1.0
  C  C328  1  0.882300  0.757300  0.634400  1.0
  C  C329  1  0.803340  0.127940  0.364680  1.0
  C  C330  1  0.061340  0.236740  0.364680  1.0
  C  C331  1  0.196660  0.872060  0.635320  1.0
  C  C332  1  0.938660  0.763260  0.635320  1.0
  C  C333  1  0.713490  0.072990  0.118780  1.0
  C  C334  1  0.905290  0.045790  0.118780  1.0
  C  C335  1  0.286510  0.927010  0.881220  1.0
  C  C336  1  0.094710  0.954210  0.881220  1.0
  C  C337  1  0.655100  0.063500  0.116600  1.0
  C  C338  1  0.961500  0.053100  0.116600  1.0
  C  C339  1  0.344900  0.936500  0.883400  1.0
  C  C340  1  0.038500  0.946900  0.883400  1.0
  C  C341  1  0.621950  0.028950  0.140300  1.0
  C  C342  1  0.018350  0.111350  0.140300  1.0
  C  C343  1  0.378050  0.971050  0.859700  1.0
  C  C344  1  0.981650  0.888650  0.859700  1.0
  C  C345  1  0.647110  0.003910  0.166220  1.0
  C  C346  1  0.019110  0.162310  0.166220  1.0
  C  C347  1  0.352890  0.996090  0.833780  1.0
  C  C348  1  0.980890  0.837690  0.833780  1.0
  C  C349  1  0.705400  0.013400  0.168400  1.0
  C  C350  1  0.963000  0.155000  0.168400  1.0
  C  C351  1  0.294600  0.986600  0.831600  1.0
  C  C352  1  0.037000  0.845000  0.831600  1.0
  C  C353  1  0.561200  0.020400  0.141200  1.0
  C  C354  1  0.080000  0.120800  0.141200  1.0
  C  C355  1  0.438800  0.979600  0.858800  1.0
  C  C356  1  0.920000  0.879200  0.858800  1.0
  C  C357  1  0.839000  0.983500  0.376600  1.0
  C  C358  1  0.037600  0.393100  0.376600  1.0
  C  C359  1  0.161000  0.016500  0.623400  1.0
  C  C360  1  0.962400  0.606900  0.623400  1.0
  C  C361  1  0.886400  0.826100  0.339000  1.0
  C  C362  1  0.952600  0.512900  0.339000  1.0
  C  C363  1  0.113600  0.173900  0.661000  1.0
  C  C364  1  0.047400  0.487100  0.661000  1.0
  C  C365  1  0.992320  0.104020  0.264440  1.0
  C  C366  1  0.772120  0.160420  0.264440  1.0
  C  C367  1  0.007680  0.895980  0.735560  1.0
  C  C368  1  0.227880  0.839580  0.735560  1.0
  C  C369  1  0.025500  0.927800  0.249800  1.0
  C  C370  1  0.724300  0.322000  0.249800  1.0
  C  C371  1  0.974500  0.072200  0.750200  1.0
  C  C372  1  0.275700  0.678000  0.750200  1.0
  C  C373  1  0.704100  0.873400  0.158200  1.0
  C  C374  1  0.954100  0.284800  0.158200  1.0
  C  C375  1  0.295900  0.126600  0.841800  1.0
  C  C376  1  0.045900  0.715200  0.841800  1.0
  C  C377  1  0.817100  0.758300  0.167000  1.0
  C  C378  1  0.849900  0.408700  0.167000  1.0
  C  C379  1  0.182900  0.241700  0.833000  1.0
  C  C380  1  0.150100  0.591300  0.833000  1.0
  C  C381  1  0.689500  0.172600  0.388400  1.0
  C  C382  1  0.198900  0.215800  0.388400  1.0
  C  C383  1  0.310500  0.827400  0.611600  1.0
  C  C384  1  0.801100  0.784200  0.611600  1.0
  C  C385  1  0.009600  0.451500  0.508600  1.0
  C  C386  1  0.999000  0.057100  0.508600  1.0
  C  C387  1  0.990400  0.548500  0.491400  1.0
  C  C388  1  0.001000  0.942900  0.491400  1.0
  C  C389  1  0.443500  0.165000  0.202600  1.0
  C  C390  1  0.259100  0.037600  0.202600  1.0
  C  C391  1  0.556500  0.835000  0.797400  1.0
  C  C392  1  0.740900  0.962400  0.797400  1.0
  C  C393  1  0.488770  0.219870  0.295940  1.0
  C  C394  1  0.307170  0.076070  0.295940  1.0
  C  C395  1  0.511230  0.780130  0.704060  1.0
  C  C396  1  0.692830  0.923930  0.704060  1.0
  C  C397  1  0.549000  0.180500  0.253400  1.0
  C  C398  1  0.204400  0.072900  0.253400  1.0
  C  C399  1  0.451000  0.819500  0.746600  1.0
  C  C400  1  0.795600  0.927100  0.746600  1.0
  C  C401  1  0.648000  0.329000  0.336400  1.0
  C  C402  1  0.188400  0.007400  0.336400  1.0
  C  C403  1  0.352000  0.671000  0.663600  1.0
  C  C404  1  0.811600  0.992600  0.663600  1.0
  C  C405  1  0.696100  0.395300  0.360400  1.0
  C  C406  1  0.164300  0.965100  0.360400  1.0
  C  C407  1  0.303900  0.604700  0.639600  1.0
  C  C408  1  0.835700  0.034900  0.639600  1.0
  C  C409  1  0.684200  0.410400  0.317000  1.0
  C  C410  1  0.132800  0.906600  0.317000  1.0
  C  C411  1  0.315800  0.589600  0.683000  1.0
  C  C412  1  0.867200  0.093400  0.683000  1.0
  C  C413  1  0.553100  0.213900  0.158400  1.0
  C  C414  1  0.105300  0.944500  0.158400  1.0
  C  C415  1  0.446900  0.786100  0.841600  1.0
  C  C416  1  0.894700  0.055500  0.841600  1.0
  C  C417  1  0.574200  0.249600  0.129800  1.0
  C  C418  1  0.055600  0.880200  0.129800  1.0
  C  C419  1  0.425800  0.750400  0.870200  1.0
  C  C420  1  0.944400  0.119800  0.870200  1.0
  C  C421  1  0.601300  0.313500  0.162400  1.0
  C  C422  1  0.061100  0.848900  0.162400  1.0
  C  C423  1  0.398700  0.686500  0.837600  1.0
  C  C424  1  0.938900  0.151100  0.837600  1.0
  C  C425  1  0.506410  0.126910  0.348620  1.0
  C  C426  1  0.342210  0.221710  0.348620  1.0
  C  C427  1  0.493590  0.873090  0.651380  1.0
  C  C428  1  0.657790  0.778290  0.651380  1.0
  C  C429  1  0.519300  0.082200  0.346800  1.0
  C  C430  1  0.327500  0.264600  0.346800  1.0
  C  C431  1  0.480700  0.917800  0.653200  1.0
  C  C432  1  0.672500  0.735400  0.653200  1.0
  C  C433  1  0.495550  0.039050  0.366900  1.0
  C  C434  1  0.371350  0.327850  0.366900  1.0
  C  C435  1  0.504450  0.960950  0.633100  1.0
  C  C436  1  0.628650  0.672150  0.633100  1.0
  C  C437  1  0.459600  0.045700  0.392000  1.0
  C  C438  1  0.432400  0.346300  0.392000  1.0
  C  C439  1  0.540400  0.954300  0.608000  1.0
  C  C440  1  0.567600  0.653700  0.608000  1.0
  C  C441  1  0.450130  0.095030  0.394860  1.0
  C  C442  1  0.444730  0.299830  0.394860  1.0
  C  C443  1  0.549870  0.904970  0.605140  1.0
  C  C444  1  0.555270  0.700170  0.605140  1.0
  C  C445  1  0.418590  0.110190  0.424980  1.0
  C  C446  1  0.506390  0.314790  0.424980  1.0
  C  C447  1  0.581410  0.889810  0.575020  1.0
  C  C448  1  0.493610  0.685210  0.575020  1.0
  C  C449  1  0.397210  0.081610  0.455620  1.0
  C  C450  1  0.558410  0.374010  0.455620  1.0
  C  C451  1  0.602790  0.918390  0.544380  1.0
  C  C452  1  0.441590  0.625990  0.544380  1.0
  C  C453  1  0.367290  0.100190  0.481180  1.0
  C  C454  1  0.613890  0.380990  0.481180  1.0
  C  C455  1  0.632710  0.899810  0.518820  1.0
  C  C456  1  0.386110  0.619010  0.518820  1.0
  C  C457  1  0.358750  0.147350  0.476100  1.0
  C  C458  1  0.617350  0.328750  0.476100  1.0
  C  C459  1  0.641250  0.852650  0.523900  1.0
  C  C460  1  0.382650  0.671250  0.523900  1.0
  C  C461  1  0.380130  0.175930  0.445460  1.0
  C  C462  1  0.565330  0.269530  0.445460  1.0
  C  C463  1  0.619870  0.824070  0.554540  1.0
  C  C464  1  0.434670  0.730470  0.554540  1.0
  C  C465  1  0.639300  0.284100  0.356000  1.0
  C  C466  1  0.216700  0.071900  0.356000  1.0
  C  C467  1  0.360700  0.715900  0.644000  1.0
  C  C468  1  0.783300  0.928100  0.644000  1.0
  C  C469  1  0.720100  0.476700  0.308800  1.0
  C  C470  1  0.088700  0.832100  0.308800  1.0
  C  C471  1  0.279900  0.523300  0.691200  1.0
  C  C472  1  0.911300  0.167900  0.691200  1.0
  C  C473  1  0.530800  0.147200  0.147000  1.0
  C  C474  1  0.116200  0.999800  0.147000  1.0
  C  C475  1  0.469200  0.852800  0.853000  1.0
  C  C476  1  0.883800  0.000200  0.853000  1.0
  C  C477  1  0.629100  0.375200  0.152000  1.0
  C  C478  1  0.022900  0.776800  0.152000  1.0
  C  C479  1  0.370900  0.624800  0.848000  1.0
  C  C480  1  0.977100  0.223200  0.848000  1.0
  C  C481  1  0.384410  0.238510  0.252020  1.0
  C  C482  1  0.367610  0.013510  0.252020  1.0
  C  C483  1  0.615590  0.761490  0.747980  1.0
  C  C484  1  0.632390  0.986490  0.747980  1.0
  C  C485  1  0.531400  0.442200  0.233600  1.0
  C  C486  1  0.202200  0.791400  0.233600  1.0
  C  C487  1  0.468600  0.557800  0.766400  1.0
  C  C488  1  0.797800  0.208600  0.766400  1.0
  C  C489  1  0.509000  0.990100  0.366200  1.0
  C  C490  1  0.357200  0.376100  0.366200  1.0
  C  C491  1  0.491000  0.009900  0.633800  1.0
  C  C492  1  0.642800  0.623900  0.633800  1.0
  C  C493  1  0.346100  0.063800  0.513800  1.0
  C  C494  1  0.667700  0.450000  0.513800  1.0
  C  C495  1  0.653900  0.936200  0.486200  1.0
  C  C496  1  0.332300  0.550000  0.486200  1.0
  C  C497  1  0.435430  0.288430  0.245460  1.0
  C  C498  1  0.310030  0.957030  0.245460  1.0
  C  C499  1  0.564570  0.711570  0.754540  1.0
  C  C500  1  0.689970  0.042970  0.754540  1.0
  C  C501  1  0.442200  0.343600  0.243200  1.0
  C  C502  1  0.301000  0.899600  0.243200  1.0
  C  C503  1  0.557800  0.656400  0.756800  1.0
  C  C504  1  0.699000  0.100400  0.756800  1.0
  C  C505  1  0.499200  0.378900  0.238200  1.0
  C  C506  1  0.239000  0.859300  0.238200  1.0
  C  C507  1  0.500800  0.621100  0.761800  1.0
  C  C508  1  0.761000  0.140700  0.761800  1.0
  C  C509  1  0.368500  0.134200  0.073800  1.0
  C  C510  1  0.205300  0.939600  0.073800  1.0
  C  C511  1  0.631500  0.865800  0.926200  1.0
  C  C512  1  0.794700  0.060400  0.926200  1.0
  C  C513  1  0.398100  0.150100  0.042200  1.0
  C  C514  1  0.144100  0.892100  0.042200  1.0
  C  C515  1  0.601900  0.849900  0.957800  1.0
  C  C516  1  0.855900  0.107900  0.957800  1.0
  C  C517  1  0.404300  0.106900  0.012800  1.0
  C  C518  1  0.108500  0.905900  0.012800  1.0
  C  C519  1  0.595700  0.893100  0.987200  1.0
  C  C520  1  0.891500  0.094100  0.987200  1.0
  C  C521  1  0.380800  0.047700  0.015000  1.0
  C  C522  1  0.134200  0.967300  0.015000  1.0
  C  C523  1  0.619200  0.952300  0.985000  1.0
  C  C524  1  0.865800  0.032700  0.985000  1.0
  C  C525  1  0.351300  0.031900  0.046600  1.0
  C  C526  1  0.195300  0.014700  0.046600  1.0
  C  C527  1  0.648700  0.968100  0.953400  1.0
  C  C528  1  0.804700  0.985300  0.953400  1.0
  C  C529  1  0.346400  0.167000  0.099800  1.0
  C  C530  1  0.253400  0.932800  0.099800  1.0
  C  C531  1  0.653600  0.833000  0.900200  1.0
  C  C532  1  0.746600  0.067200  0.900200  1.0
  C  C533  1  0.355760  0.223860  0.099720  1.0
  C  C534  1  0.243960  0.875860  0.099720  1.0
  C  C535  1  0.644240  0.776140  0.900280  1.0
  C  C536  1  0.756040  0.124140  0.900280  1.0
  C  C537  1  0.326860  0.248260  0.121920  1.0
  C  C538  1  0.295060  0.873660  0.121920  1.0
  C  C539  1  0.673140  0.751740  0.878080  1.0
  C  C540  1  0.704940  0.126340  0.878080  1.0
  C  C541  1  0.288700  0.215800  0.144200  1.0
  C  C542  1  0.355500  0.928400  0.144200  1.0
  C  C543  1  0.711300  0.784200  0.855800  1.0
  C  C544  1  0.644500  0.071600  0.855800  1.0
  C  C545  1  0.279450  0.158950  0.144300  1.0
  C  C546  1  0.364850  0.985350  0.144300  1.0
  C  C547  1  0.720550  0.841050  0.855700  1.0
  C  C548  1  0.635150  0.014650  0.855700  1.0
  C  C549  1  0.348900  0.313700  0.127000  1.0
  C  C550  1  0.278100  0.813300  0.127000  1.0
  C  C551  1  0.651100  0.686300  0.873000  1.0
  C  C552  1  0.721900  0.186700  0.873000  1.0
  C  C553  1  0.423400  0.125300  0.973200  1.0
  C  C554  1  0.049800  0.847900  0.973200  1.0
  C  C555  1  0.576600  0.874700  0.026800  1.0
  C  C556  1  0.950200  0.152100  0.026800  1.0
  Co  Co557  1  0.427730  0.677730  0.355460  1
  Co  Co558  1  0.572270  0.322270  0.644540  1
  Co  Co559  1  0.305820  0.555820  0.111640  1
  Co  Co560  1  0.694180  0.444180  0.888360  1
  Co  Co561  1  0.942530  0.192530  0.385060  1
  Co  Co562  1  0.057470  0.807470  0.614940  1
  Co  Co563  1  0.822960  0.072960  0.145920  1
  Co  Co564  1  0.177040  0.927040  0.854080  1
  Co  Co565  1  0.435980  0.185980  0.371960  1
  Co  Co566  1  0.564020  0.814020  0.628040  1
  Co  Co567  1  0.312460  0.062460  0.124920  1
  Co  Co568  1  0.687540  0.937540  0.875080  1
  F  F569  1  0.504100  0.333700  0.011800  1
  F  F570  1  0.007700  0.678100  0.011800  1
  F  F571  1  0.495900  0.666300  0.988200  1
  F  F572  1  0.992300  0.321900  0.988200  1
  F  F573  1  0.426500  0.298600  0.947200  1
  F  F574  1  0.020700  0.648600  0.947200  1
  F  F575  1  0.573500  0.701400  0.052800  1
  F  F576  1  0.979300  0.351400  0.052800  1
  F  F577  1  0.446700  0.382100  0.011200  1
  F  F578  1  0.064500  0.629100  0.011200  1
  F  F579  1  0.553300  0.617900  0.988800  1
  F  F580  1  0.935500  0.370900  0.988800  1
  F  F581  1  0.373200  0.313900  0.991800  1
  F  F582  1  0.118600  0.677900  0.991800  1
  F  F583  1  0.626800  0.686100  0.008200  1
  F  F584  1  0.881400  0.322100  0.008200  1
  F  F585  1  0.406600  0.243800  0.984000  1
  F  F586  1  0.077400  0.740200  0.984000  1
  F  F587  1  0.593400  0.756200  0.016000  1
  F  F588  1  0.922600  0.259800  0.016000  1
  F  F589  1  0.445900  0.323100  0.054000  1
  F  F590  1  0.108100  0.730900  0.054000  1
  F  F591  1  0.554100  0.676900  0.946000  1
  F  F592  1  0.891900  0.269100  0.946000  1
  F  F593  1  0.803400  0.315200  0.489000  1
  F  F594  1  0.185600  0.173800  0.489000  1
  F  F595  1  0.196600  0.684800  0.511000  1
  F  F596  1  0.814400  0.826200  0.511000  1
  F  F597  1  0.737800  0.339700  0.500800  1
  F  F598  1  0.263000  0.161100  0.500800  1
  F  F599  1  0.262200  0.660300  0.499200  1
  F  F600  1  0.737000  0.838900  0.499200  1
  F  F601  1  0.821700  0.367200  0.563000  1
  F  F602  1  0.241300  0.195800  0.563000  1
  F  F603  1  0.178300  0.632800  0.437000  1
  F  F604  1  0.758700  0.804200  0.437000  1
  F  F605  1  0.813900  0.419000  0.477200  1
  F  F606  1  0.163300  0.058200  0.477200  1
  F  F607  1  0.186100  0.581000  0.522800  1
  F  F608  1  0.836700  0.941800  0.522800  1
  F  F609  1  0.870600  0.399100  0.523200  1
  F  F610  1  0.152600  0.124100  0.523200  1
  F  F611  1  0.129400  0.600900  0.476800  1
  F  F612  1  0.847400  0.875900  0.476800  1
  F  F613  1  0.799400  0.415400  0.544400  1
  F  F614  1  0.245000  0.129000  0.544400  1
  F  F615  1  0.200600  0.584600  0.455600  1
  F  F616  1  0.755000  0.871000  0.455600  1
  F  F617  1  0.484200  0.027900  0.983600  1
  F  F618  1  0.999400  0.955700  0.983600  1
  F  F619  1  0.515800  0.972100  0.016400  1
  F  F620  1  0.000600  0.044300  0.016400  1
  F  F621  1  0.545700  0.019000  0.952600  1
  F  F622  1  0.906900  0.933600  0.952600  1
  F  F623  1  0.454300  0.981000  0.047400  1
  F  F624  1  0.093100  0.066400  0.047400  1
  F  F625  1  0.536600  0.100400  0.954000  1
  F  F626  1  0.917400  0.853600  0.954000  1
  F  F627  1  0.463400  0.899600  0.046000  1
  F  F628  1  0.082600  0.146400  0.046000  1
  F  F629  1  0.575900  0.047800  0.027000  1
  F  F630  1  0.951100  0.979200  0.027000  1
  F  F631  1  0.424100  0.952200  0.973000  1
  F  F632  1  0.048900  0.020800  0.973000  1
  F  F633  1  0.593500  0.138300  0.038600  1
  F  F634  1  0.945100  0.900300  0.038600  1
  F  F635  1  0.406500  0.861700  0.961400  1
  F  F636  1  0.054900  0.099700  0.961400  1
  F  F637  1  0.623000  0.103400  0.984000  1
  F  F638  1  0.861000  0.880600  0.984000  1
  F  F639  1  0.377000  0.896600  0.016000  1
  F  F640  1  0.139000  0.119400  0.016000  1
  F  F641  1  0.468340  0.951540  0.523280  1.0
  F  F642  1  0.554940  0.571740  0.523280  1.0
  F  F643  1  0.531660  0.048460  0.476720  1.0
  F  F644  1  0.445060  0.428260  0.476720  1.0
  F  F645  1  0.557230  0.041430  0.548260  1.0
  F  F646  1  0.491030  0.506830  0.548260  1.0
  F  F647  1  0.442770  0.958570  0.451740  1.0
  F  F648  1  0.508970  0.493170  0.451740  1.0
  F  F649  1  0.465400  0.034600  0.519400  1.0
  F  F650  1  0.554000  0.484800  0.519400  1.0
  F  F651  1  0.534600  0.965400  0.480600  1.0
  F  F652  1  0.446000  0.515200  0.480600  1.0
  Fe  Fe653  1  0.475950  0.575360  0.234960  1.0
  Fe  Fe654  1  0.259010  0.659600  0.234960  1.0
  Fe  Fe655  1  0.524050  0.424640  0.765040  1.0
  Fe  Fe656  1  0.740990  0.340400  0.765040  1.0
  Fe  Fe657  1  0.850370  0.978340  0.263960  1.0
  Fe  Fe658  1  0.913590  0.285620  0.263960  1.0
  Fe  Fe659  1  0.149630  0.021660  0.736040  1.0
  Fe  Fe660  1  0.086410  0.714380  0.736040  1.0
  Fe  Fe661  1  0.520890  0.235130  0.248000  1.0
  Fe  Fe662  1  0.227110  0.012870  0.248000  1.0
  Fe  Fe663  1  0.479110  0.764870  0.752000  1.0
  Fe  Fe664  1  0.772890  0.987130  0.752000  1.0
  H  H665  1  0.484000  0.847200  0.236000  1
  H  H666  1  0.252000  0.388800  0.236000  1
  H  H667  1  0.516000  0.152800  0.764000  1
  H  H668  1  0.748000  0.611200  0.764000  1
  H  H669  1  0.493900  0.008300  0.239200  1
  H  H670  1  0.245300  0.230900  0.239200  1
  H  H671  1  0.506100  0.991700  0.760800  1
  H  H672  1  0.754700  0.769100  0.760800  1
  H  H673  1  0.654500  0.009500  0.269000  1
  H  H674  1  0.114500  0.259500  0.269000  1
  H  H675  1  0.345500  0.990500  0.731000  1
  H  H676  1  0.885500  0.740500  0.731000  1
  H  H677  1  0.640000  0.913400  0.263000  1
  H  H678  1  0.123000  0.349600  0.263000  1
  H  H679  1  0.360000  0.086600  0.737000  1
  H  H680  1  0.877000  0.650400  0.737000  1
  H  H681  1  0.595300  0.095700  0.262600  1
  H  H682  1  0.167300  0.166900  0.262600  1
  H  H683  1  0.404700  0.904300  0.737400  1
  H  H684  1  0.832700  0.833100  0.737400  1
  H  H685  1  0.399300  0.856900  0.220400  1
  H  H686  1  0.321100  0.363500  0.220400  1
  H  H687  1  0.600700  0.143100  0.779600  1
  H  H688  1  0.678900  0.636500  0.779600  1
  H  H689  1  0.464600  0.368600  0.899000  1
  H  H690  1  0.934400  0.530400  0.899000  1
  H  H691  1  0.535400  0.631400  0.101000  1
  H  H692  1  0.065600  0.469600  0.101000  1
  H  H693  1  0.450900  0.368000  0.846600  1
  H  H694  1  0.895700  0.478600  0.846600  1
  H  H695  1  0.549100  0.632000  0.153400  1
  H  H696  1  0.104300  0.521400  0.153400  1
  H  H697  1  0.420400  0.303200  0.854800  1
  H  H698  1  0.934400  0.551600  0.854800  1
  H  H699  1  0.579600  0.696800  0.145200  1
  H  H700  1  0.065600  0.448400  0.145200  1
  H  H701  1  0.139400  0.277200  0.017200  1
  H  H702  1  0.377800  0.740000  0.017200  1
  H  H703  1  0.860600  0.722800  0.982800  1
  H  H704  1  0.622200  0.260000  0.982800  1
  H  H705  1  0.213300  0.317700  0.025800  1
  H  H706  1  0.312500  0.708100  0.025800  1
  H  H707  1  0.786700  0.682300  0.974200  1
  H  H708  1  0.687500  0.291900  0.974200  1
  H  H709  1  0.165500  0.254000  0.980600  1
  H  H710  1  0.315100  0.726600  0.980600  1
  H  H711  1  0.834500  0.746000  0.019400  1
  H  H712  1  0.684900  0.273400  0.019400  1
  H  H713  1  0.605900  0.569700  0.382600  1.0
  H  H714  1  0.276700  0.812900  0.382600  1.0
  H  H715  1  0.394100  0.430300  0.617400  1.0
  H  H716  1  0.723300  0.187100  0.617400  1.0
  H  H717  1  0.530600  0.467000  0.110600  1.0
  H  H718  1  0.080000  0.643600  0.110600  1.0
  H  H719  1  0.469400  0.533000  0.889400  1.0
  H  H720  1  0.920000  0.356400  0.889400  1.0
  H  H721  1  0.624200  0.803000  0.249800  1.0
  H  H722  1  0.125600  0.446800  0.249800  1.0
  H  H723  1  0.375800  0.197000  0.750200  1.0
  H  H724  1  0.874400  0.553200  0.750200  1.0
  H  H725  1  0.489400  0.810900  0.427000  1.0
  H  H726  1  0.437600  0.616100  0.427000  1.0
  H  H727  1  0.510600  0.189100  0.573000  1.0
  H  H728  1  0.562400  0.383900  0.573000  1.0
  H  H729  1  0.455500  0.856300  0.475400  1.0
  H  H730  1  0.519900  0.619100  0.475400  1.0
  H  H731  1  0.544500  0.143700  0.524600  1.0
  H  H732  1  0.480100  0.380900  0.524600  1.0
  H  H733  1  0.295200  0.692300  0.437400  1.0
  H  H734  1  0.642200  0.745100  0.437400  1.0
  H  H735  1  0.704800  0.307700  0.562600  1.0
  H  H736  1  0.357800  0.254900  0.562600  1.0
  H  H737  1  0.242700  0.590100  0.396000  1.0
  H  H738  1  0.653300  0.805900  0.396000  1.0
  H  H739  1  0.757300  0.409900  0.604000  1.0
  H  H740  1  0.346700  0.194100  0.604000  1.0
  H  H741  1  0.265600  0.455800  0.324600  1.0
  H  H742  1  0.559000  0.868800  0.324600  1.0
  H  H743  1  0.734400  0.544200  0.675400  1.0
  H  H744  1  0.441000  0.131200  0.675400  1.0
  H  H745  1  0.353700  0.533400  0.318200  1.0
  H  H746  1  0.464500  0.784800  0.318200  1.0
  H  H747  1  0.646300  0.466600  0.681800  1.0
  H  H748  1  0.535500  0.215200  0.681800  1.0
  H  H749  1  0.437500  0.591500  0.022600  1.0
  H  H750  1  0.085100  0.431100  0.022600  1.0
  H  H751  1  0.562500  0.408500  0.977400  1.0
  H  H752  1  0.914900  0.568900  0.977400  1.0
  H  H753  1  0.311300  0.406700  0.986600  1.0
  H  H754  1  0.175300  0.579900  0.986600  1.0
  H  H755  1  0.688700  0.593300  0.013400  1.0
  H  H756  1  0.824700  0.420100  0.013400  1.0
  H  H757  1  0.269200  0.435500  0.040400  1.0
  H  H758  1  0.271200  0.604900  0.040400  1.0
  H  H759  1  0.730800  0.564500  0.959600  1.0
  H  H760  1  0.728800  0.395100  0.959600  1.0
  H  H761  1  0.476900  0.689800  0.070400  1.0
  H  H762  1  0.093500  0.380600  0.070400  1.0
  H  H763  1  0.523100  0.310200  0.929600  1.0
  H  H764  1  0.906500  0.619400  0.929600  1.0
  H  H765  1  0.426300  0.785600  0.150400  1.0
  H  H766  1  0.224100  0.364800  0.150400  1.0
  H  H767  1  0.573700  0.214400  0.849600  1.0
  H  H768  1  0.775900  0.635200  0.849600  1.0
  H  H769  1  0.348800  0.692200  0.152400  1.0
  H  H770  1  0.303600  0.460200  0.152400  1.0
  H  H771  1  0.651200  0.307800  0.847600  1.0
  H  H772  1  0.696400  0.539800  0.847600  1.0
  H  H773  1  0.448300  0.481600  0.311000  1.0
  H  H774  1  0.362700  0.829400  0.311000  1.0
  H  H775  1  0.551700  0.518400  0.689000  1.0
  H  H776  1  0.637300  0.170600  0.689000  1.0
  H  H777  1  0.452700  0.545700  0.331600  1.0
  H  H778  1  0.378900  0.785900  0.331600  1.0
  H  H779  1  0.547300  0.454300  0.668400  1.0
  H  H780  1  0.621100  0.214100  0.668400  1.0
  H  H781  1  0.485700  0.524000  0.366000  1.0
  H  H782  1  0.380300  0.842000  0.366000  1.0
  H  H783  1  0.514300  0.476000  0.634000  1.0
  H  H784  1  0.619700  0.158000  0.634000  1.0
  H  H785  1  0.709800  0.601700  0.324400  1.0
  H  H786  1  0.114600  0.722700  0.324400  1.0
  H  H787  1  0.290200  0.398300  0.675600  1.0
  H  H788  1  0.885400  0.277300  0.675600  1.0
  H  H789  1  0.724700  0.638300  0.378000  1.0
  H  H790  1  0.153300  0.739700  0.378000  1.0
  H  H791  1  0.275300  0.361700  0.622000  1.0
  H  H792  1  0.846700  0.260300  0.622000  1.0
  H  H793  1  0.725700  0.671600  0.340800  1.0
  H  H794  1  0.115100  0.669200  0.340800  1.0
  H  H795  1  0.274300  0.328400  0.659200  1.0
  H  H796  1  0.884900  0.330800  0.659200  1.0
  H  H797  1  0.392800  0.441800  0.136400  1.0
  H  H798  1  0.243600  0.694600  0.136400  1.0
  H  H799  1  0.607200  0.558200  0.863600  1.0
  H  H800  1  0.756400  0.305400  0.863600  1.0
  H  H801  1  0.409200  0.429300  0.090200  1.0
  H  H802  1  0.181000  0.660900  0.090200  1.0
  H  H803  1  0.590800  0.570700  0.909800  1.0
  H  H804  1  0.819000  0.339100  0.909800  1.0
  H  H805  1  0.406400  0.489500  0.109400  1.0
  H  H806  1  0.203000  0.619900  0.109400  1.0
  H  H807  1  0.593600  0.510500  0.890600  1.0
  H  H808  1  0.797000  0.380100  0.890600  1.0
  H  H809  1  0.670700  0.552300  0.214000  1.0
  H  H810  1  0.043300  0.661700  0.214000  1.0
  H  H811  1  0.329300  0.447700  0.786000  1.0
  H  H812  1  0.956700  0.338300  0.786000  1.0
  H  H813  1  0.681900  0.595400  0.183400  1.0
  H  H814  1  0.001500  0.588000  0.183400  1.0
  H  H815  1  0.318100  0.404600  0.816600  1.0
  H  H816  1  0.998500  0.412000  0.816600  1.0
  H  H817  1  0.652600  0.522100  0.158600  1.0
  H  H818  1  0.006000  0.636500  0.158600  1.0
  H  H819  1  0.347400  0.477900  0.841400  1.0
  H  H820  1  0.994000  0.363500  0.841400  1.0
  H  H821  1  0.463400  0.690800  0.196400  1.0
  H  H822  1  0.233000  0.505600  0.196400  1.0
  H  H823  1  0.536600  0.309200  0.803600  1.0
  H  H824  1  0.767000  0.494400  0.803600  1.0
  H  H825  1  0.503500  0.760400  0.235400  1.0
  H  H826  1  0.231900  0.475000  0.235400  1.0
  H  H827  1  0.496500  0.239600  0.764600  1.0
  H  H828  1  0.768100  0.525000  0.764600  1.0
  H  H829  1  0.466000  0.701200  0.249200  1.0
  H  H830  1  0.283200  0.548000  0.249200  1.0
  H  H831  1  0.534000  0.298800  0.750800  1.0
  H  H832  1  0.716800  0.452000  0.750800  1.0
  H  H833  1  0.731500  0.806600  0.260400  1.0
  H  H834  1  0.028900  0.453800  0.260400  1.0
  H  H835  1  0.268500  0.193400  0.739600  1.0
  H  H836  1  0.971100  0.546200  0.739600  1.0
  H  H837  1  0.720800  0.738900  0.243000  1.0
  H  H838  1  0.022200  0.504100  0.243000  1.0
  H  H839  1  0.279200  0.261100  0.757000  1.0
  H  H840  1  0.977800  0.495900  0.757000  1.0
  H  H841  1  0.736000  0.773600  0.297200  1.0
  H  H842  1  0.061200  0.523600  0.297200  1.0
  H  H843  1  0.264000  0.226400  0.702800  1.0
  H  H844  1  0.938800  0.476400  0.702800  1.0
  H  H845  1  0.366500  0.852900  0.497000  1.0
  H  H846  1  0.630500  0.644100  0.497000  1.0
  H  H847  1  0.633500  0.147100  0.503000  1.0
  H  H848  1  0.369500  0.355900  0.503000  1.0
  H  H849  1  0.355600  0.803400  0.522000  1.0
  H  H850  1  0.666400  0.718600  0.522000  1.0
  H  H851  1  0.644400  0.196600  0.478000  1.0
  H  H852  1  0.333600  0.281400  0.478000  1.0
  H  H853  1  0.300300  0.786400  0.476000  1.0
  H  H854  1  0.675700  0.689600  0.476000  1.0
  H  H855  1  0.699700  0.213600  0.524000  1.0
  H  H856  1  0.324300  0.310400  0.524000  1.0
  H  H857  1  0.171500  0.423200  0.348600  1.0
  H  H858  1  0.677100  0.925400  0.348600  1.0
  H  H859  1  0.828500  0.576800  0.651400  1.0
  H  H860  1  0.322900  0.074600  0.651400  1.0
  H  H861  1  0.145800  0.466800  0.342000  1.0
  H  H862  1  0.696200  0.875200  0.342000  1.0
  H  H863  1  0.854200  0.533200  0.658000  1.0
  H  H864  1  0.303800  0.124800  0.658000  1.0
  H  H865  1  0.182400  0.475500  0.393800  1.0
  H  H866  1  0.711400  0.918300  0.393800  1.0
  H  H867  1  0.817600  0.524500  0.606200  1.0
  H  H868  1  0.288600  0.081700  0.606200  1.0
  H  H869  1  0.440300  0.467900  0.979800  1.0
  H  H870  1  0.039500  0.511900  0.979800  1.0
  H  H871  1  0.559700  0.532100  0.020200  1.0
  H  H872  1  0.960500  0.488100  0.020200  1.0
  H  H873  1  0.431000  0.511200  0.954400  1.0
  H  H874  1  0.023400  0.443200  0.954400  1.0
  H  H875  1  0.569000  0.488800  0.045600  1.0
  H  H876  1  0.976600  0.556800  0.045600  1.0
  H  H877  1  0.374200  0.439700  0.939000  1.0
  H  H878  1  0.064800  0.499300  0.939000  1.0
  H  H879  1  0.625800  0.560300  0.061000  1.0
  H  H880  1  0.935200  0.500700  0.061000  1.0
  H  H881  1  0.505700  0.839700  0.116000  1.0
  H  H882  1  0.110300  0.276300  0.116000  1.0
  H  H883  1  0.494300  0.160300  0.884000  1.0
  H  H884  1  0.889700  0.723700  0.884000  1.0
  H  H885  1  0.529800  0.801500  0.089000  1.0
  H  H886  1  0.059200  0.287500  0.089000  1.0
  H  H887  1  0.470200  0.198500  0.911000  1.0
  H  H888  1  0.940800  0.712500  0.911000  1.0
  H  H889  1  0.552900  0.825700  0.145200  1.0
  H  H890  1  0.092300  0.319500  0.145200  1.0
  H  H891  1  0.447100  0.174300  0.854800  1.0
  H  H892  1  0.907700  0.680500  0.854800  1.0
  H  H893  1  0.662500  0.641900  0.259600  1.0
  H  H894  1  0.097100  0.617700  0.259600  1.0
  H  H895  1  0.337500  0.358100  0.740400  1.0
  H  H896  1  0.902900  0.382300  0.740400  1.0
  H  H897  1  0.855200  0.903700  0.400000  1.0
  H  H898  1  0.044800  0.496300  0.400000  1.0
  H  H899  1  0.144800  0.096300  0.600000  1.0
  H  H900  1  0.955200  0.503700  0.600000  1.0
  H  H901  1  0.068400  0.057500  0.254000  1.0
  H  H902  1  0.685600  0.196500  0.254000  1.0
  H  H903  1  0.931600  0.942500  0.746000  1.0
  H  H904  1  0.314400  0.803500  0.746000  1.0
  H  H905  1  0.711800  0.772000  0.121600  1.0
  H  H906  1  0.909800  0.349600  0.121600  1.0
  H  H907  1  0.288200  0.228000  0.878400  1.0
  H  H908  1  0.090200  0.650400  0.878400  1.0
  H  H909  1  0.889400  0.130300  0.079200  1.0
  H  H910  1  0.689800  0.948900  0.079200  1.0
  H  H911  1  0.110600  0.869700  0.920800  1.0
  H  H912  1  0.310200  0.051100  0.920800  1.0
  H  H913  1  0.863900  0.176600  0.029800  1.0
  H  H914  1  0.665900  0.853200  0.029800  1.0
  H  H915  1  0.136100  0.823400  0.970200  1.0
  H  H916  1  0.334100  0.146800  0.970200  1.0
  H  H917  1  0.704000  0.129000  0.057000  1.0
  H  H918  1  0.853000  0.928000  0.057000  1.0
  H  H919  1  0.296000  0.871000  0.943000  1.0
  H  H920  1  0.147000  0.072000  0.943000  1.0
  H  H921  1  0.734900  0.154200  0.975600  1.0
  H  H922  1  0.740700  0.821400  0.975600  1.0
  H  H923  1  0.265100  0.845800  0.024400  1.0
  H  H924  1  0.259300  0.178600  0.024400  1.0
  H  H925  1  0.805700  0.215200  0.001800  1.0
  H  H926  1  0.696100  0.786600  0.001800  1.0
  H  H927  1  0.194300  0.784800  0.998200  1.0
  H  H928  1  0.303900  0.213400  0.998200  1.0
  H  H929  1  0.750900  0.211000  0.019800  1.0
  H  H930  1  0.768900  0.808800  0.019800  1.0
  H  H931  1  0.249100  0.789000  0.980200  1.0
  H  H932  1  0.231100  0.191200  0.980200  1.0
  H  H933  1  0.069200  0.312200  0.460600  1.0
  H  H934  1  0.891400  0.148400  0.460600  1.0
  H  H935  1  0.930800  0.687800  0.539400  1.0
  H  H936  1  0.108600  0.851600  0.539400  1.0
  H  H937  1  0.096700  0.408400  0.512400  1.0
  H  H938  1  0.915700  0.104000  0.512400  1.0
  H  H939  1  0.903300  0.591600  0.487600  1.0
  H  H940  1  0.084300  0.896000  0.487600  1.0
  H  H941  1  0.911000  0.348000  0.472200  1.0
  H  H942  1  0.061200  0.124200  0.472200  1.0
  H  H943  1  0.089000  0.652000  0.527800  1.0
  H  H944  1  0.938800  0.875800  0.527800  1.0
  H  H945  1  0.815000  0.268900  0.429400  1.0
  H  H946  1  0.114400  0.160500  0.429400  1.0
  H  H947  1  0.185000  0.731100  0.570600  1.0
  H  H948  1  0.885600  0.839500  0.570600  1.0
  H  H949  1  0.708600  0.083400  0.350200  1.0
  H  H950  1  0.141600  0.266800  0.350200  1.0
  H  H951  1  0.291400  0.916600  0.649800  1.0
  H  H952  1  0.858400  0.733200  0.649800  1.0
  H  H953  1  0.800200  0.091900  0.346000  1.0
  H  H954  1  0.045800  0.254100  0.346000  1.0
  H  H955  1  0.199800  0.908100  0.654000  1.0
  H  H956  1  0.954200  0.745900  0.654000  1.0
  H  H957  1  0.638000  0.080700  0.098800  1.0
  H  H958  1  0.960800  0.018100  0.098800  1.0
  H  H959  1  0.362000  0.919300  0.901200  1.0
  H  H960  1  0.039200  0.981900  0.901200  1.0
  H  H961  1  0.624300  0.980200  0.182400  1.0
  H  H962  1  0.058100  0.202200  0.182400  1.0
  H  H963  1  0.375700  0.019800  0.817600  1.0
  H  H964  1  0.941900  0.797800  0.817600  1.0
  H  H965  1  0.722500  0.996200  0.186200  1.0
  H  H966  1  0.963700  0.190000  0.186200  1.0
  H  H967  1  0.277500  0.003800  0.813800  1.0
  H  H968  1  0.036300  0.810000  0.813800  1.0
  H  H969  1  0.526400  0.976200  0.123200  1.0
  H  H970  1  0.096800  0.147000  0.123200  1.0
  H  H971  1  0.473600  0.023800  0.876800  1.0
  H  H972  1  0.903200  0.853000  0.876800  1.0
  H  H973  1  0.553200  0.046900  0.126800  1.0
  H  H974  1  0.073600  0.079900  0.126800  1.0
  H  H975  1  0.446800  0.953100  0.873200  1.0
  H  H976  1  0.926400  0.920100  0.873200  1.0
  H  H977  1  0.563700  0.032300  0.173800  1.0
  H  H978  1  0.110100  0.141500  0.173800  1.0
  H  H979  1  0.436300  0.967700  0.826200  1.0
  H  H980  1  0.889900  0.858500  0.826200  1.0
  H  H981  1  0.876900  0.026300  0.391400  1.0
  H  H982  1  0.014500  0.365100  0.391400  1.0
  H  H983  1  0.123100  0.973700  0.608600  1.0
  H  H984  1  0.985500  0.634900  0.608600  1.0
  H  H985  1  0.824900  0.969600  0.401000  1.0
  H  H986  1  0.076100  0.431400  0.401000  1.0
  H  H987  1  0.175100  0.030400  0.599000  1.0
  H  H988  1  0.923900  0.568600  0.599000  1.0
  H  H989  1  0.805200  0.982700  0.354600  1.0
  H  H990  1  0.049400  0.371900  0.354600  1.0
  H  H991  1  0.194800  0.017300  0.645400  1.0
  H  H992  1  0.950600  0.628100  0.645400  1.0
  H  H993  1  0.890000  0.817400  0.368000  1.0
  H  H994  1  0.978000  0.550600  0.368000  1.0
  H  H995  1  0.110000  0.182600  0.632000  1.0
  H  H996  1  0.022000  0.449400  0.632000  1.0
  H  H997  1  0.925967  0.839067  0.333333  1.0
  H  H998  1  0.907367  0.494267  0.333333  1.0
  H  H999  1  0.074033  0.160933  0.666667  1.0
  H  H1000  1  0.092633  0.505733  0.666667  1.0
  H  H1001  1  0.851000  0.788300  0.312600  1.0
  H  H1002  1  0.961600  0.524300  0.312600  1.0
  H  H1003  1  0.149000  0.211700  0.687400  1.0
  H  H1004  1  0.038400  0.475700  0.687400  1.0
  H  H1005  1  0.001900  0.128400  0.297000  1.0
  H  H1006  1  0.795100  0.168600  0.297000  1.0
  H  H1007  1  0.998100  0.871600  0.703000  1.0
  H  H1008  1  0.204900  0.831400  0.703000  1.0
  H  H1009  1  0.953100  0.096200  0.243600  1.0
  H  H1010  1  0.790500  0.147400  0.243600  1.0
  H  H1011  1  0.046900  0.903800  0.756400  1.0
  H  H1012  1  0.209500  0.852600  0.756400  1.0
  H  H1013  1  0.027300  0.127700  0.254600  1.0
  H  H1014  1  0.727300  0.126900  0.254600  1.0
  H  H1015  1  0.972700  0.872300  0.745400  1.0
  H  H1016  1  0.272700  0.873100  0.745400  1.0
  H  H1017  1  0.990300  0.883700  0.233000  1.0
  H  H1018  1  0.742700  0.349300  0.233000  1.0
  H  H1019  1  0.009700  0.116300  0.767000  1.0
  H  H1020  1  0.257300  0.650700  0.767000  1.0
  H  H1021  1  0.048300  0.933900  0.281600  1.0
  H  H1022  1  0.733300  0.347700  0.281600  1.0
  H  H1023  1  0.951700  0.066100  0.718400  1.0
  H  H1024  1  0.266700  0.652300  0.718400  1.0
  H  H1025  1  0.054600  0.939100  0.232800  1.0
  H  H1026  1  0.678200  0.293700  0.232800  1.0
  H  H1027  1  0.945400  0.060900  0.767200  1.0
  H  H1028  1  0.321800  0.706300  0.767200  1.0
  H  H1029  1  0.726100  0.915400  0.157000  1.0
  H  H1030  1  0.930900  0.241600  0.157000  1.0
  H  H1031  1  0.273900  0.084600  0.843000  1.0
  H  H1032  1  0.069100  0.758400  0.843000  1.0
  H  H1033  1  0.682400  0.872600  0.180400  1.0
  H  H1034  1  0.998000  0.307800  0.180400  1.0
  H  H1035  1  0.317600  0.127400  0.819600  1.0
  H  H1036  1  0.002000  0.692200  0.819600  1.0
  H  H1037  1  0.672700  0.842500  0.126600  1.0
  H  H1038  1  0.953900  0.284100  0.126600  1.0
  H  H1039  1  0.327300  0.157500  0.873400  1.0
  H  H1040  1  0.046100  0.715900  0.873400  1.0
  H  H1041  1  0.826700  0.754300  0.138400  1.0
  H  H1042  1  0.811700  0.384100  0.138400  1.0
  H  H1043  1  0.173300  0.245700  0.861600  1.0
  H  H1044  1  0.188300  0.615900  0.861600  1.0
  H  H1045  1  0.783400  0.717000  0.164400  1.0
  H  H1046  1  0.881000  0.447400  0.164400  1.0
  H  H1047  1  0.216600  0.283000  0.835600  1.0
  H  H1048  1  0.119000  0.552600  0.835600  1.0
  H  H1049  1  0.855100  0.774700  0.194200  1.0
  H  H1050  1  0.839100  0.419500  0.194200  1.0
  H  H1051  1  0.144900  0.225300  0.805800  1.0
  H  H1052  1  0.160900  0.580500  0.805800  1.0
  H  H1053  1  0.699400  0.206900  0.415800  1.0
  H  H1054  1  0.216400  0.208900  0.415800  1.0
  H  H1055  1  0.300600  0.793100  0.584200  1.0
  H  H1056  1  0.783600  0.791100  0.584200  1.0
  H  H1057  1  0.659000  0.132300  0.389200  1.0
  H  H1058  1  0.230200  0.256900  0.389200  1.0
  H  H1059  1  0.341000  0.867700  0.610800  1.0
  H  H1060  1  0.769800  0.743100  0.610800  1.0
  H  H1061  1  0.671200  0.176600  0.359400  1.0
  H  H1062  1  0.188200  0.182800  0.359400  1.0
  H  H1063  1  0.328800  0.823400  0.640600  1.0
  H  H1064  1  0.811800  0.817200  0.640600  1.0
  H  H1065  1  0.909700  0.861100  0.261400  1.0
  H  H1066  1  0.851700  0.400300  0.261400  1.0
  H  H1067  1  0.090300  0.138900  0.738600  1.0
  H  H1068  1  0.148300  0.599700  0.738600  1.0
  H  H1069  1  0.020300  0.469200  0.484800  1.0
  H  H1070  1  0.964500  0.015600  0.484800  1.0
  H  H1071  1  0.979700  0.530800  0.515200  1.0
  H  H1072  1  0.035500  0.984400  0.515200  1.0
  H  H1073  1  0.042100  0.481300  0.539800  1.0
  H  H1074  1  0.997700  0.058500  0.539800  1.0
  H  H1075  1  0.957900  0.518700  0.460200  1.0
  H  H1076  1  0.002300  0.941500  0.460200  1.0
  H  H1077  1  0.968300  0.443300  0.508200  1.0
  H  H1078  1  0.039900  0.064900  0.508200  1.0
  H  H1079  1  0.031700  0.556700  0.491800  1.0
  H  H1080  1  0.960100  0.935100  0.491800  1.0
  H  H1081  1  0.724900  0.420400  0.392200  1.0
  H  H1082  1  0.167300  0.971800  0.392200  1.0
  H  H1083  1  0.275100  0.579600  0.607800  1.0
  H  H1084  1  0.832700  0.028200  0.607800  1.0
  H  H1085  1  0.571500  0.235600  0.098200  1.0
  H  H1086  1  0.026700  0.862600  0.098200  1.0
  H  H1087  1  0.428500  0.764400  0.901800  1.0
  H  H1088  1  0.973300  0.137400  0.901800  1.0
  H  H1089  1  0.522400  0.153700  0.332200  1.0
  H  H1090  1  0.309800  0.178500  0.332200  1.0
  H  H1091  1  0.477600  0.846300  0.667800  1.0
  H  H1092  1  0.690200  0.821500  0.667800  1.0
  H  H1093  1  0.546200  0.080900  0.330800  1.0
  H  H1094  1  0.284600  0.249900  0.330800  1.0
  H  H1095  1  0.453800  0.919100  0.669200  1.0
  H  H1096  1  0.715400  0.750100  0.669200  1.0
  H  H1097  1  0.441600  0.017600  0.407200  1.0
  H  H1098  1  0.465600  0.389600  0.407200  1.0
  H  H1099  1  0.558400  0.982400  0.592800  1.0
  H  H1100  1  0.534400  0.610400  0.592800  1.0
  H  H1101  1  0.403100  0.049400  0.459000  1.0
  H  H1102  1  0.555900  0.409600  0.459000  1.0
  H  H1103  1  0.596900  0.950600  0.541000  1.0
  H  H1104  1  0.444100  0.590400  0.541000  1.0
  H  H1105  1  0.338300  0.160100  0.493600  1.0
  H  H1106  1  0.655300  0.333500  0.493600  1.0
  H  H1107  1  0.661700  0.839900  0.506400  1.0
  H  H1108  1  0.344700  0.666500  0.506400  1.0
  H  H1109  1  0.374300  0.208200  0.442000  1.0
  H  H1110  1  0.567700  0.233800  0.442000  1.0
  H  H1111  1  0.625700  0.791800  0.558000  1.0
  H  H1112  1  0.432300  0.766200  0.558000  1.0
  H  H1113  1  0.633000  0.247500  0.333000  1.0
  H  H1114  1  0.200000  0.085500  0.333000  1.0
  H  H1115  1  0.367000  0.752500  0.667000  1.0
  H  H1116  1  0.800000  0.914500  0.667000  1.0
  H  H1117  1  0.602100  0.271400  0.364800  1.0
  H  H1118  1  0.262700  0.093400  0.364800  1.0
  H  H1119  1  0.397900  0.728600  0.635200  1.0
  H  H1120  1  0.737300  0.906600  0.635200  1.0
  H  H1121  1  0.676900  0.302000  0.384200  1.0
  H  H1122  1  0.207300  0.082200  0.384200  1.0
  H  H1123  1  0.323100  0.698000  0.615800  1.0
  H  H1124  1  0.792700  0.917800  0.615800  1.0
  H  H1125  1  0.694600  0.494800  0.308800  1.0
  H  H1126  1  0.114200  0.814000  0.308800  1.0
  H  H1127  1  0.305400  0.505200  0.691200  1.0
  H  H1128  1  0.885800  0.186000  0.691200  1.0
  H  H1129  1  0.725200  0.468700  0.278400  1.0
  H  H1130  1  0.053200  0.809700  0.278400  1.0
  H  H1131  1  0.274800  0.531300  0.721600  1.0
  H  H1132  1  0.946800  0.190300  0.721600  1.0
  H  H1133  1  0.761900  0.506100  0.334000  1.0
  H  H1134  1  0.072100  0.827900  0.334000  1.0
  H  H1135  1  0.238100  0.493900  0.666000  1.0
  H  H1136  1  0.927900  0.172100  0.666000  1.0
  H  H1137  1  0.563200  0.140800  0.140800  1.0
  H  H1138  1  0.077600  0.000000  0.140800  1.0
  H  H1139  1  0.436800  0.859200  0.859200  1.0
  H  H1140  1  0.922400  0.000000  0.859200  1.0
  H  H1141  1  0.491600  0.121000  0.118800  1.0
  H  H1142  1  0.127200  0.997800  0.118800  1.0
  H  H1143  1  0.508400  0.879000  0.881200  1.0
  H  H1144  1  0.872800  0.002200  0.881200  1.0
  H  H1145  1  0.522400  0.135200  0.173400  1.0
  H  H1146  1  0.151000  0.038200  0.173400  1.0
  H  H1147  1  0.477600  0.864800  0.826600  1.0
  H  H1148  1  0.849000  0.961800  0.826600  1.0
  H  H1149  1  0.674400  0.393900  0.158200  1.0
  H  H1150  1  0.983800  0.764300  0.158200  1.0
  H  H1151  1  0.325600  0.606100  0.841800  1.0
  H  H1152  1  0.016200  0.235700  0.841800  1.0
  H  H1153  1  0.623600  0.404900  0.172400  1.0
  H  H1154  1  0.048800  0.767500  0.172400  1.0
  H  H1155  1  0.376400  0.595100  0.827600  1.0
  H  H1156  1  0.951200  0.232500  0.827600  1.0
  H  H1157  1  0.606900  0.365500  0.119000  1.0
  H  H1158  1  0.012100  0.753500  0.119000  1.0
  H  H1159  1  0.393100  0.634500  0.881000  1.0
  H  H1160  1  0.987900  0.246500  0.881000  1.0
  H  H1161  1  0.374200  0.198000  0.231800  1.0
  H  H1162  1  0.357600  0.033800  0.231800  1.0
  H  H1163  1  0.625800  0.802000  0.768200  1.0
  H  H1164  1  0.642400  0.966200  0.768200  1.0
  H  H1165  1  0.347000  0.240700  0.243600  1.0
  H  H1166  1  0.396600  0.002900  0.243600  1.0
  H  H1167  1  0.653000  0.759300  0.756400  1.0
  H  H1168  1  0.603400  0.997100  0.756400  1.0
  H  H1169  1  0.397300  0.242900  0.285000  1.0
  H  H1170  1  0.387700  0.042100  0.285000  1.0
  H  H1171  1  0.602700  0.757100  0.715000  1.0
  H  H1172  1  0.612300  0.957900  0.715000  1.0
  H  H1173  1  0.530200  0.436500  0.201400  1.0
  H  H1174  1  0.171200  0.764900  0.201400  1.0
  H  H1175  1  0.469800  0.563500  0.798600  1.0
  H  H1176  1  0.828800  0.235100  0.798600  1.0
  H  H1177  1  0.575600  0.468500  0.255800  1.0
  H  H1178  1  0.180200  0.787300  0.255800  1.0
  H  H1179  1  0.424400  0.531500  0.744200  1.0
  H  H1180  1  0.819800  0.212700  0.744200  1.0
  H  H1181  1  0.509400  0.462700  0.241000  1.0
  H  H1182  1  0.231600  0.778300  0.241000  1.0
  H  H1183  1  0.490600  0.537300  0.759000  1.0
  H  H1184  1  0.768400  0.221700  0.759000  1.0
  H  H1185  1  0.473900  0.950200  0.341000  1.0
  H  H1186  1  0.367100  0.390800  0.341000  1.0
  H  H1187  1  0.526100  0.049800  0.659000  1.0
  H  H1188  1  0.632900  0.609200  0.659000  1.0
  H  H1189  1  0.513700  0.985100  0.396600  1.0
  H  H1190  1  0.382900  0.411500  0.396600  1.0
  H  H1191  1  0.486300  0.014900  0.603400  1.0
  H  H1192  1  0.617100  0.588500  0.603400  1.0
  H  H1193  1  0.548300  0.002500  0.360400  1.0
  H  H1194  1  0.312100  0.357900  0.360400  1.0
  H  H1195  1  0.451700  0.997500  0.639600  1.0
  H  H1196  1  0.687900  0.642100  0.639600  1.0
  H  H1197  1  0.382500  0.081500  0.542800  1.0
  H  H1198  1  0.660300  0.461300  0.542800  1.0
  H  H1199  1  0.617500  0.918500  0.457200  1.0
  H  H1200  1  0.339700  0.538700  0.457200  1.0
  H  H1201  1  0.329400  0.019400  0.497400  1.0
  H  H1202  1  0.668000  0.478000  0.497400  1.0
  H  H1203  1  0.670600  0.980600  0.502600  1.0
  H  H1204  1  0.332000  0.522000  0.502600  1.0
  H  H1205  1  0.313000  0.067400  0.521600  1.0
  H  H1206  1  0.708600  0.454200  0.521600  1.0
  H  H1207  1  0.687000  0.932600  0.478400  1.0
  H  H1208  1  0.291400  0.545800  0.478400  1.0
  H  H1209  1  0.412800  0.355100  0.245000  1.0
  H  H1210  1  0.332200  0.889900  0.245000  1.0
  H  H1211  1  0.587200  0.644900  0.755000  1.0
  H  H1212  1  0.667800  0.110100  0.755000  1.0
  H  H1213  1  0.614200  0.404200  0.234200  1.0
  H  H1214  1  0.120000  0.830000  0.234200  1.0
  H  H1215  1  0.385800  0.595800  0.765800  1.0
  H  H1216  1  0.880000  0.170000  0.765800  1.0
  H  H1217  1  0.414200  0.190600  0.040800  1.0
  H  H1218  1  0.126600  0.850200  0.040800  1.0
  H  H1219  1  0.585800  0.809400  0.959200  1.0
  H  H1220  1  0.873400  0.149800  0.959200  1.0
  H  H1221  1  0.385100  0.018200  0.995000  1.0
  H  H1222  1  0.109900  0.976800  0.995000  1.0
  H  H1223  1  0.614900  0.981800  0.005000  1.0
  H  H1224  1  0.890100  0.023200  0.005000  1.0
  H  H1225  1  0.335200  0.991400  0.048000  1.0
  H  H1226  1  0.212800  0.056600  0.048000  1.0
  H  H1227  1  0.664800  0.008600  0.952000  1.0
  H  H1228  1  0.787200  0.943400  0.952000  1.0
  H  H1229  1  0.381700  0.246000  0.084400  1.0
  H  H1230  1  0.202700  0.838400  0.084400  1.0
  H  H1231  1  0.618300  0.754000  0.915600  1.0
  H  H1232  1  0.797300  0.161600  0.915600  1.0
  H  H1233  1  0.269000  0.232500  0.159400  1.0
  H  H1234  1  0.390400  0.926900  0.159400  1.0
  H  H1235  1  0.731000  0.767500  0.840600  1.0
  H  H1236  1  0.609600  0.073100  0.840600  1.0
  H  H1237  1  0.253400  0.136800  0.159600  1.0
  H  H1238  1  0.406200  0.022800  0.159600  1.0
  H  H1239  1  0.746600  0.863200  0.840400  1.0
  H  H1240  1  0.593800  0.977200  0.840400  1.0
  H  H1241  1  0.389200  0.342700  0.153800  1.0
  H  H1242  1  0.264600  0.811100  0.153800  1.0
  H  H1243  1  0.610800  0.657300  0.846200  1.0
  H  H1244  1  0.735400  0.188900  0.846200  1.0
  H  H1245  1  0.317100  0.321900  0.132200  1.0
  H  H1246  1  0.315100  0.810300  0.132200  1.0
  H  H1247  1  0.682900  0.678100  0.867800  1.0
  H  H1248  1  0.684900  0.189700  0.867800  1.0
  H  H1249  1  0.354800  0.319700  0.098200  1.0
  H  H1250  1  0.243400  0.778500  0.098200  1.0
  H  H1251  1  0.645200  0.680300  0.901800  1.0
  H  H1252  1  0.756600  0.221500  0.901800  1.0
  H  H1253  1  0.408700  0.151600  0.965600  1.0
  H  H1254  1  0.056900  0.814000  0.965600  1.0
  H  H1255  1  0.591300  0.848400  0.034400  1.0
  H  H1256  1  0.943100  0.186000  0.034400  1.0
  H  H1257  1  0.404000  0.087300  0.945200  1.0
  H  H1258  1  0.041200  0.857900  0.945200  1.0
  H  H1259  1  0.596000  0.912700  0.054800  1.0
  H  H1260  1  0.958800  0.142100  0.054800  1.0
  H  H1261  1  0.469600  0.148600  0.983000  1.0
  H  H1262  1  0.013400  0.834400  0.983000  1.0
  H  H1263  1  0.530400  0.851400  0.017000  1.0
  H  H1264  1  0.986600  0.165600  0.017000  1.0
  N  N1265  1  0.331300  0.348500  0.866000  1
  N  N1266  1  0.034700  0.517500  0.866000  1
  N  N1267  1  0.668700  0.651500  0.134000  1
  N  N1268  1  0.965300  0.482500  0.134000  1
  N  N1269  1  0.142900  0.358300  0.940800  1
  N  N1270  1  0.297900  0.582500  0.940800  1
  N  N1271  1  0.857100  0.641700  0.059200  1
  N  N1272  1  0.702100  0.417500  0.059200  1
  N  N1273  1  0.355030  0.606330  0.356660  1.0
  N  N1274  1  0.501630  0.750330  0.356660  1.0
  N  N1275  1  0.644970  0.393670  0.643340  1.0
  N  N1276  1  0.498370  0.249670  0.643340  1.0
  N  N1277  1  0.362630  0.635530  0.110060  1.0
  N  N1278  1  0.247430  0.474530  0.110060  1.0
  N  N1279  1  0.637370  0.364470  0.889940  1.0
  N  N1280  1  0.752570  0.525470  0.889940  1.0
  N  N1281  1  0.330280  0.524680  0.063760  1.0
  N  N1282  1  0.233480  0.539080  0.063760  1.0
  N  N1283  1  0.669720  0.475320  0.936240  1.0
  N  N1284  1  0.766520  0.460920  0.936240  1.0
  N  N1285  1  0.436960  0.627860  0.308120  1.0
  N  N1286  1  0.371160  0.680260  0.308120  1.0
  N  N1287  1  0.563040  0.372140  0.691880  1.0
  N  N1288  1  0.628840  0.319740  0.691880  1.0
  N  N1289  1  0.374760  0.566460  0.157920  1.0
  N  N1290  1  0.283160  0.591460  0.157920  1.0
  N  N1291  1  0.625240  0.433540  0.842080  1.0
  N  N1292  1  0.716840  0.408540  0.842080  1.0
  N  N1293  1  0.368670  0.442570  0.218340  1.0
  N  N1294  1  0.349670  0.775770  0.218340  1.0
  N  N1295  1  0.631330  0.557430  0.781660  1.0
  N  N1296  1  0.650330  0.224230  0.781660  1.0
  N  N1297  1  0.510870  0.544070  0.190940  1.0
  N  N1298  1  0.180070  0.646870  0.190940  1.0
  N  N1299  1  0.489130  0.455930  0.809060  1.0
  N  N1300  1  0.819930  0.353130  0.809060  1.0
  N  N1301  1  0.574520  0.570220  0.206440  1.0
  N  N1302  1  0.131920  0.636220  0.206440  1.0
  N  N1303  1  0.425480  0.429780  0.793560  1.0
  N  N1304  1  0.868080  0.363780  0.793560  1.0
  N  N1305  1  0.537470  0.576370  0.288340  1.0
  N  N1306  1  0.250870  0.711970  0.288340  1.0
  N  N1307  1  0.462530  0.423630  0.711660  1.0
  N  N1308  1  0.749130  0.288030  0.711660  1.0
  N  N1309  1  0.600600  0.605600  0.292400  1.0
  N  N1310  1  0.191800  0.686800  0.292400  1.0
  N  N1311  1  0.399400  0.394400  0.707600  1.0
  N  N1312  1  0.808200  0.313200  0.707600  1.0
  N  N1313  1  0.544550  0.662850  0.243700  1.0
  N  N1314  1  0.199150  0.580850  0.243700  1.0
  N  N1315  1  0.455450  0.337150  0.756300  1.0
  N  N1316  1  0.800850  0.419150  0.756300  1.0
  N  N1317  1  0.605700  0.677800  0.252400  1.0
  N  N1318  1  0.146700  0.574600  0.252400  1.0
  N  N1319  1  0.394300  0.322200  0.747600  1.0
  N  N1320  1  0.853300  0.425400  0.747600  1.0
  N  N1321  1  0.412440  0.724840  0.402080  1.0
  N  N1322  1  0.489640  0.677240  0.402080  1.0
  N  N1323  1  0.587560  0.275160  0.597920  1.0
  N  N1324  1  0.510360  0.322760  0.597920  1.0
  N  N1325  1  0.811810  0.102110  0.097620  1.0
  N  N1326  1  0.785810  0.995510  0.097620  1.0
  N  N1327  1  0.188190  0.897890  0.902380  1.0
  N  N1328  1  0.214190  0.004490  0.902380  1.0
  N  N1329  1  0.973730  0.272930  0.435660  1.0
  N  N1330  1  0.961930  0.162730  0.435660  1.0
  N  N1331  1  0.026270  0.727070  0.564340  1.0
  N  N1332  1  0.038070  0.837270  0.564340  1.0
  N  N1333  1  0.738650  0.047950  0.144700  1.0
  N  N1334  1  0.906050  0.096750  0.144700  1.0
  N  N1335  1  0.261350  0.952050  0.855300  1.0
  N  N1336  1  0.093950  0.903250  0.855300  1.0
  N  N1337  1  0.833160  0.036460  0.192120  1.0
  N  N1338  1  0.858960  0.155660  0.192120  1.0
  N  N1339  1  0.166840  0.963540  0.807880  1.0
  N  N1340  1  0.141040  0.844340  0.807880  1.0
  N  N1341  1  0.905030  0.108230  0.337660  1.0
  N  N1342  1  0.932630  0.229430  0.337660  1.0
  N  N1343  1  0.094970  0.891770  0.662340  1.0
  N  N1344  1  0.067370  0.770570  0.662340  1.0
  N  N1345  1  0.724410  0.955010  0.270620  1.0
  N  N1346  1  0.046210  0.315610  0.270620  1.0
  N  N1347  1  0.275590  0.044990  0.729380  1.0
  N  N1348  1  0.953790  0.684390  0.729380  1.0
  N  N1349  1  0.862100  0.939400  0.311600  1.0
  N  N1350  1  0.949500  0.372200  0.311600  1.0
  N  N1351  1  0.137900  0.060600  0.688400  1.0
  N  N1352  1  0.050500  0.627800  0.688400  1.0
  N  N1353  1  0.877300  0.898400  0.301200  1.0
  N  N1354  1  0.923900  0.402800  0.301200  1.0
  N  N1355  1  0.122700  0.101600  0.698800  1.0
  N  N1356  1  0.076100  0.597200  0.698800  1.0
  N  N1357  1  0.933500  0.996700  0.261400  1.0
  N  N1358  1  0.827900  0.264700  0.261400  1.0
  N  N1359  1  0.066500  0.003300  0.738600  1.0
  N  N1360  1  0.172100  0.735300  0.738600  1.0
  N  N1361  1  0.944200  0.950500  0.258800  1.0
  N  N1362  1  0.814600  0.308300  0.258800  1.0
  N  N1363  1  0.055800  0.049500  0.741200  1.0
  N  N1364  1  0.185400  0.691700  0.741200  1.0
  N  N1365  1  0.804800  0.893000  0.213200  1.0
  N  N1366  1  0.908400  0.320200  0.213200  1.0
  N  N1367  1  0.195200  0.107000  0.786800  1.0
  N  N1368  1  0.091600  0.679800  0.786800  1.0
  N  N1369  1  0.832300  0.857700  0.213600  1.0
  N  N1370  1  0.881300  0.355900  0.213600  1.0
  N  N1371  1  0.167700  0.142300  0.786400  1.0
  N  N1372  1  0.118700  0.644100  0.786400  1.0
  N  N1373  1  0.860130  0.179730  0.388060  1.0
  N  N1374  1  0.027930  0.208330  0.388060  1.0
  N  N1375  1  0.139870  0.820270  0.611940  1.0
  N  N1376  1  0.972070  0.791670  0.611940  1.0
  N  N1377  1  0.410050  0.157350  0.419900  1.0
  N  N1378  1  0.509850  0.262550  0.419900  1.0
  N  N1379  1  0.589950  0.842650  0.580100  1.0
  N  N1380  1  0.490150  0.737450  0.580100  1.0
  N  N1381  1  0.469100  0.210700  0.325000  1.0
  N  N1382  1  0.355900  0.114300  0.325000  1.0
  N  N1383  1  0.530900  0.789300  0.675000  1.0
  N  N1384  1  0.644100  0.885700  0.675000  1.0
  N  N1385  1  0.396710  0.120610  0.173220  1.0
  N  N1386  1  0.276510  0.052610  0.173220  1.0
  N  N1387  1  0.603290  0.879390  0.826780  1.0
  N  N1388  1  0.723490  0.947390  0.826780  1.0
  N  N1389  1  0.553400  0.251100  0.196600  1.0
  N  N1390  1  0.143200  0.945500  0.196600  1.0
  N  N1391  1  0.446600  0.748900  0.803400  1.0
  N  N1392  1  0.856800  0.054500  0.803400  1.0
  N  N1393  1  0.579700  0.310300  0.196800  1.0
  N  N1394  1  0.117100  0.886500  0.196800  1.0
  N  N1395  1  0.420300  0.689700  0.803200  1.0
  N  N1396  1  0.882900  0.113500  0.803200  1.0
  N  N1397  1  0.605100  0.313200  0.292600  1.0
  N  N1398  1  0.187500  0.979400  0.292600  1.0
  N  N1399  1  0.394900  0.686800  0.707400  1.0
  N  N1400  1  0.812500  0.020600  0.707400  1.0
  N  N1401  1  0.628800  0.365700  0.283200  1.0
  N  N1402  1  0.154400  0.917500  0.283200  1.0
  N  N1403  1  0.371200  0.634300  0.716800  1.0
  N  N1404  1  0.845600  0.082500  0.716800  1.0
  N  N1405  1  0.488690  0.290490  0.242380  1.0
  N  N1406  1  0.253690  0.951890  0.242380  1.0
  N  N1407  1  0.511310  0.709510  0.757620  1.0
  N  N1408  1  0.746310  0.048110  0.757620  1.0
  N  N1409  1  0.526570  0.345770  0.238140  1.0
  N  N1410  1  0.211570  0.892370  0.238140  1.0
  N  N1411  1  0.473430  0.654230  0.761860  1.0
  N  N1412  1  0.788430  0.107630  0.761860  1.0
  N  N1413  1  0.472510  0.134810  0.372420  1.0
  N  N1414  1  0.399910  0.237610  0.372420  1.0
  N  N1415  1  0.527490  0.865190  0.627580  1.0
  N  N1416  1  0.600090  0.762390  0.627580  1.0
  N  N1417  1  0.562500  0.145700  0.258200  1.0
  N  N1418  1  0.195700  0.112500  0.258200  1.0
  N  N1419  1  0.437500  0.854300  0.741800  1.0
  N  N1420  1  0.804300  0.887500  0.741800  1.0
  N  N1421  1  0.345050  0.075050  0.075900  1.0
  N  N1422  1  0.230850  0.000850  0.075900  1.0
  N  N1423  1  0.654950  0.924950  0.924100  1.0
  N  N1424  1  0.769150  0.999150  0.924100  1.0
  N  N1425  1  0.308250  0.134550  0.122100  1.0
  N  N1426  1  0.313850  0.987550  0.122100  1.0
  N  N1427  1  0.691750  0.865450  0.877900  1.0
  N  N1428  1  0.686150  0.012450  0.877900  1.0
  O  O1429  1  0.600780  0.890180  0.256160  1
  O  O1430  1  0.155380  0.365980  0.256160  1
  O  O1431  1  0.399220  0.109820  0.743840  1
  O  O1432  1  0.844620  0.634020  0.743840  1
  O  O1433  1  0.617880  0.081080  0.266160  1
  O  O1434  1  0.148280  0.185080  0.266160  1
  O  O1435  1  0.382120  0.918920  0.733840  1
  O  O1436  1  0.851720  0.814920  0.733840  1
  O  O1437  1  0.416300  0.894900  0.224000  1
  O  O1438  1  0.307700  0.329100  0.224000  1
  O  O1439  1  0.583700  0.105100  0.776000  1
  O  O1440  1  0.692300  0.670900  0.776000  1
  O  O1441  1  0.160400  0.585500  0.616200  1
  O  O1442  1  0.955800  0.030700  0.616200  1
  O  O1443  1  0.839600  0.414500  0.383800  1
  O  O1444  1  0.044200  0.969300  0.383800  1
  O  O1445  1  0.818600  0.670300  0.488800  1
  O  O1446  1  0.170200  0.818500  0.488800  1
  O  O1447  1  0.181400  0.329700  0.511200  1
  O  O1448  1  0.829800  0.181500  0.511200  1
  O  O1449  1  0.434400  0.584400  0.649200  1
  O  O1450  1  0.714800  0.064800  0.649200  1
  O  O1451  1  0.565600  0.415600  0.350800  1
  O  O1452  1  0.285200  0.935200  0.350800  1
  O  O1453  1  0.735300  0.214300  0.142600  1
  O  O1454  1  0.907300  0.928300  0.142600  1
  O  O1455  1  0.264700  0.785700  0.857400  1
  O  O1456  1  0.092700  0.071700  0.857400  1
  O  O1457  1  0.241800  0.916700  0.529600  1
  O  O1458  1  0.787800  0.612900  0.529600  1
  O  O1459  1  0.758200  0.083300  0.470400  1
  O  O1460  1  0.212200  0.387100  0.470400  1
  P  P1461  1  0.500000  0.000000  0.500000  1
  P  P1462  1  0.500000  0.500000  0.500000  1
  P  P1463  1  0.435830  0.312130  0.000060  1
  P  P1464  1  0.064230  0.687930  0.000060  1
  P  P1465  1  0.564170  0.687870  0.999940  1
  P  P1466  1  0.935770  0.312070  0.999940  1
  P  P1467  1  0.811060  0.378960  0.512320  1
  P  P1468  1  0.201260  0.133360  0.512320  1
  P  P1469  1  0.188940  0.621040  0.487680  1
  P  P1470  1  0.798740  0.866640  0.487680  1
  P  P1471  1  0.556770  0.074470  0.994140  1
  P  P1472  1  0.937370  0.919670  0.994140  1
  P  P1473  1  0.443230  0.925530  0.005860  1
  P  P1474  1  0.062630  0.080330  0.005860  1
