# generated using pymatgen
data_Fe3Co3B3P3H150C136N41(O4F9)2
_symmetry_space_group_name_H-M   'P 1'
_cell_length_a   26.30940108
_cell_length_b   26.31000000
_cell_length_c   32.02100375
_cell_angle_alpha   102.33652314
_cell_angle_beta   102.33571139
_cell_angle_gamma   118.68220029
_symmetry_Int_Tables_number   1
_chemical_formula_structural   Fe3Co3B3P3H150C136N41(O4F9)2
_chemical_formula_sum   'Fe12 Co12 B12 P12 H600 C544 N164 O32 F72'
_cell_volume   17656.20409839
_cell_formula_units_Z   4
loop_
 _symmetry_equiv_pos_site_id
 _symmetry_equiv_pos_as_xyz
  1  'x, y, z'
loop_
 _atom_site_type_symbol
 _atom_site_label
 _atom_site_symmetry_multiplicity
 _atom_site_fract_x
 _atom_site_fract_y
 _atom_site_fract_z
 _atom_site_occupancy
  B  B1  1  0.374400  0.363600  0.747600  1.0
  B  B2  1  0.373200  0.884000  0.747600  1.0
  B  B3  1  0.625600  0.636400  0.252400  1.0
  B  B4  1  0.626800  0.116000  0.252400  1.0
  B  B5  1  0.628000  0.633200  0.746400  1.0
  B  B6  1  0.118400  0.613200  0.746400  1.0
  B  B7  1  0.372000  0.366800  0.253600  1.0
  B  B8  1  0.881600  0.386800  0.253600  1.0
  B  B9  1  0.121700  0.353500  0.759200  1.0
  B  B10  1  0.637500  0.905700  0.759200  1.0
  B  B11  1  0.878300  0.646500  0.240800  1.0
  B  B12  1  0.362500  0.094300  0.240800  1.0
  C  C13  1  0.687300  0.243600  0.761200  1
  C  C14  1  0.073900  0.017600  0.761200  1
  C  C15  1  0.312700  0.756400  0.238800  1
  C  C16  1  0.926100  0.982400  0.238800  1
  C  C17  1  0.649330  0.266530  0.756460  1
  C  C18  1  0.107130  0.989930  0.756460  1
  C  C19  1  0.350670  0.733470  0.243540  1
  C  C20  1  0.892870  0.010070  0.243540  1
  C  C21  1  0.741740  0.270440  0.754680  1
  C  C22  1  0.012940  0.984240  0.754680  1
  C  C23  1  0.258260  0.729560  0.245320  1
  C  C24  1  0.987060  0.015760  0.245320  1
  C  C25  1  0.760630  0.322930  0.743660  1
  C  C26  1  0.983030  0.920730  0.743660  1
  C  C27  1  0.239370  0.677070  0.256340  1
  C  C28  1  0.016970  0.079270  0.256340  1
  C  C29  1  0.671180  0.320480  0.746960  1
  C  C30  1  0.075780  0.926480  0.746960  1
  C  C31  1  0.328820  0.679520  0.253040  1
  C  C32  1  0.924220  0.073520  0.253040  1
  C  C33  1  0.724600  0.347600  0.739600  1
  C  C34  1  0.015000  0.892000  0.739600  1
  C  C35  1  0.275400  0.652400  0.260400  1
  C  C36  1  0.985000  0.108000  0.260400  1
  C  C37  1  0.485300  0.486100  0.135400  1
  C  C38  1  0.650100  0.149300  0.135400  1
  C  C39  1  0.514700  0.513900  0.864600  1
  C  C40  1  0.349900  0.850700  0.864600  1
  C  C41  1  0.484800  0.542000  0.130800  1
  C  C42  1  0.646000  0.088800  0.130800  1
  C  C43  1  0.515200  0.458000  0.869200  1
  C  C44  1  0.354000  0.911200  0.869200  1
  C  C45  1  0.354200  0.196200  0.027600  1
  C  C46  1  0.673400  0.331400  0.027600  1
  C  C47  1  0.645800  0.803800  0.972400  1
  C  C48  1  0.326600  0.668600  0.972400  1
  C  C49  1  0.292900  0.165500  0.999600  1
  C  C50  1  0.706700  0.334100  0.999600  1
  C  C51  1  0.707100  0.834500  0.000400  1
  C  C52  1  0.293300  0.665900  0.000400  1
  C  C53  1  0.381020  0.226420  0.811440  1.0
  C  C54  1  0.430420  0.085020  0.811440  1.0
  C  C55  1  0.618980  0.773580  0.188560  1.0
  C  C56  1  0.569580  0.914980  0.188560  1.0
  C  C57  1  0.327360  0.171160  0.719320  1.0
  C  C58  1  0.391960  0.048160  0.719320  1.0
  C  C59  1  0.672640  0.828840  0.280680  1.0
  C  C60  1  0.608040  0.951840  0.280680  1.0
  C  C61  1  0.266290  0.186590  0.772580  1.0
  C  C62  1  0.506290  0.085990  0.772580  1.0
  C  C63  1  0.733710  0.813410  0.227420  1.0
  C  C64  1  0.493710  0.914010  0.227420  1.0
  C  C65  1  0.236440  0.211340  0.673880  1.0
  C  C66  1  0.437440  0.962540  0.673880  1.0
  C  C67  1  0.763560  0.788660  0.326120  1.0
  C  C68  1  0.562560  0.037460  0.326120  1.0
  C  C69  1  0.229630  0.245030  0.648260  1.0
  C  C70  1  0.418630  0.903230  0.648260  1.0
  C  C71  1  0.770370  0.754970  0.351740  1.0
  C  C72  1  0.581370  0.096770  0.351740  1.0
  C  C73  1  0.278800  0.306600  0.669800  1.0
  C  C74  1  0.391000  0.863200  0.669800  1.0
  C  C75  1  0.721200  0.693400  0.330200  1.0
  C  C76  1  0.609000  0.136800  0.330200  1.0
  C  C77  1  0.346810  0.333510  0.848220  1.0
  C  C78  1  0.501410  0.014710  0.848220  1.0
  C  C79  1  0.653190  0.666490  0.151780  1.0
  C  C80  1  0.498590  0.985290  0.151780  1.0
  C  C81  1  0.351490  0.390590  0.856980  1.0
  C  C82  1  0.505490  0.966390  0.856980  1.0
  C  C83  1  0.648510  0.609410  0.143020  1.0
  C  C84  1  0.494510  0.033610  0.143020  1.0
  C  C85  1  0.360000  0.408300  0.822600  1.0
  C  C86  1  0.462600  0.914300  0.822600  1.0
  C  C87  1  0.640000  0.591700  0.177400  1.0
  C  C88  1  0.537400  0.085700  0.177400  1.0
  C  C89  1  0.469100  0.300200  0.757600  1.0
  C  C90  1  0.288500  0.957400  0.757600  1.0
  C  C91  1  0.530900  0.699800  0.242400  1.0
  C  C92  1  0.711500  0.042600  0.242400  1.0
  C  C93  1  0.509670  0.354870  0.751940  1.0
  C  C94  1  0.242270  0.897070  0.751940  1.0
  C  C95  1  0.490330  0.645130  0.248060  1.0
  C  C96  1  0.757730  0.102930  0.248060  1.0
  C  C97  1  0.479610  0.387010  0.747020  1.0
  C  C98  1  0.267410  0.860010  0.747020  1.0
  C  C99  1  0.520390  0.612990  0.252980  1.0
  C  C100  1  0.732590  0.139990  0.252980  1.0
  C  C101  1  0.356350  0.015850  0.569900  1.0
  C  C102  1  0.213550  0.054050  0.569900  1.0
  C  C103  1  0.643650  0.984150  0.430100  1.0
  C  C104  1  0.786450  0.945950  0.430100  1.0
  C  C105  1  0.354600  0.970100  0.542400  1.0
  C  C106  1  0.187800  0.072300  0.542400  1.0
  C  C107  1  0.645400  0.029900  0.457600  1.0
  C  C108  1  0.812200  0.927700  0.457600  1.0
  C  C109  1  0.316600  0.910000  0.538600  1.0
  C  C110  1  0.222000  0.128600  0.538600  1.0
  C  C111  1  0.683400  0.090000  0.461400  1.0
  C  C112  1  0.778000  0.871400  0.461400  1.0
  C  C113  1  0.283500  0.897000  0.563800  1.0
  C  C114  1  0.280300  0.166800  0.563800  1.0
  C  C115  1  0.716500  0.103000  0.436200  1.0
  C  C116  1  0.719700  0.833200  0.436200  1.0
  C  C117  1  0.281700  0.948000  0.591000  1.0
  C  C118  1  0.309300  0.143000  0.591000  1.0
  C  C119  1  0.718300  0.052000  0.409000  1.0
  C  C120  1  0.690700  0.857000  0.409000  1.0
  C  C121  1  0.240470  0.938470  0.614940  1.0
  C  C122  1  0.374470  0.176470  0.614940  1.0
  C  C123  1  0.759530  0.061530  0.385060  1.0
  C  C124  1  0.625530  0.823530  0.385060  1.0
  C  C125  1  0.198050  0.882550  0.614900  1.0
  C  C126  1  0.416850  0.232350  0.614900  1.0
  C  C127  1  0.801950  0.117450  0.385100  1.0
  C  C128  1  0.583150  0.767650  0.385100  1.0
  C  C129  1  0.157040  0.881840  0.637480  1.0
  C  C130  1  0.480440  0.255640  0.637480  1.0
  C  C131  1  0.842960  0.118160  0.362520  1.0
  C  C132  1  0.519560  0.744360  0.362520  1.0
  C  C133  1  0.160160  0.934860  0.659720  1.0
  C  C134  1  0.499560  0.224860  0.659720  1.0
  C  C135  1  0.839840  0.065140  0.340280  1.0
  C  C136  1  0.500440  0.775140  0.340280  1.0
  C  C137  1  0.206460  0.989960  0.658120  1.0
  C  C138  1  0.451660  0.168160  0.658120  1.0
  C  C139  1  0.793540  0.010040  0.341880  1.0
  C  C140  1  0.548340  0.831840  0.341880  1.0
  C  C141  1  0.426010  0.118110  0.943420  1.0
  C  C142  1  0.517410  0.325310  0.943420  1.0
  C  C143  1  0.573990  0.881890  0.056580  1.0
  C  C144  1  0.482590  0.674690  0.056580  1.0
  C  C145  1  0.438150  0.094650  0.973700  1.0
  C  C146  1  0.535550  0.379050  0.973700  1.0
  C  C147  1  0.561850  0.905350  0.026300  1.0
  C  C148  1  0.464450  0.620950  0.026300  1.0
  C  C149  1  0.500700  0.116700  0.998600  1.0
  C  C150  1  0.497900  0.381900  0.998600  1.0
  C  C151  1  0.499300  0.883300  0.001400  1.0
  C  C152  1  0.502100  0.618100  0.001400  1.0
  C  C153  1  0.544580  0.165280  0.993560  1.0
  C  C154  1  0.448980  0.328280  0.993560  1.0
  C  C155  1  0.455420  0.834720  0.006440  1.0
  C  C156  1  0.551020  0.671720  0.006440  1.0
  C  C157  1  0.528530  0.187530  0.961660  1.0
  C  C158  1  0.433130  0.274130  0.961660  1.0
  C  C159  1  0.471470  0.812470  0.038340  1.0
  C  C160  1  0.566870  0.725870  0.038340  1.0
  C  C161  1  0.363420  0.098320  0.915840  1.0
  C  C162  1  0.552420  0.317520  0.915840  1.0
  C  C163  1  0.636580  0.901680  0.084160  1.0
  C  C164  1  0.447580  0.682480  0.084160  1.0
  C  C165  1  0.309610  0.046510  0.914020  1.0
  C  C166  1  0.604410  0.367510  0.914020  1.0
  C  C167  1  0.690390  0.953490  0.085980  1.0
  C  C168  1  0.395590  0.632490  0.085980  1.0
  C  C169  1  0.252580  0.033380  0.889160  1.0
  C  C170  1  0.636580  0.355780  0.889160  1.0
  C  C171  1  0.747420  0.966620  0.110840  1.0
  C  C172  1  0.363420  0.644220  0.110840  1.0
  C  C173  1  0.249410  0.070010  0.864220  1.0
  C  C174  1  0.614810  0.294210  0.864220  1.0
  C  C175  1  0.750590  0.929990  0.135780  1.0
  C  C176  1  0.385190  0.705790  0.135780  1.0
  C  C177  1  0.306300  0.119400  0.866600  1.0
  C  C178  1  0.560300  0.247200  0.866600  1.0
  C  C179  1  0.693700  0.880600  0.133400  1.0
  C  C180  1  0.439700  0.752800  0.133400  1.0
  C  C181  1  0.193430  0.144730  0.666060  1.0
  C  C182  1  0.472630  0.021330  0.666060  1.0
  C  C183  1  0.806570  0.855270  0.333940  1.0
  C  C184  1  0.527370  0.978670  0.333940  1.0
  C  C185  1  0.291600  0.359500  0.655600  1.0
  C  C186  1  0.364000  0.796100  0.655600  1.0
  C  C187  1  0.708400  0.640500  0.344400  1.0
  C  C188  1  0.636000  0.203900  0.344400  1.0
  C  C189  1  0.340000  0.296500  0.877400  1.0
  C  C190  1  0.537400  0.080900  0.877400  1.0
  C  C191  1  0.660000  0.703500  0.122600  1.0
  C  C192  1  0.462600  0.919100  0.122600  1.0
  C  C193  1  0.368000  0.466600  0.814200  1.0
  C  C194  1  0.446200  0.847600  0.814200  1.0
  C  C195  1  0.632000  0.533400  0.185800  1.0
  C  C196  1  0.553800  0.152400  0.185800  1.0
  C  C197  1  0.481070  0.254770  0.766140  1.0
  C  C198  1  0.285070  0.011370  0.766140  1.0
  C  C199  1  0.518930  0.745230  0.233860  1.0
  C  C200  1  0.714930  0.988630  0.233860  1.0
  C  C201  1  0.503910  0.445810  0.737820  1.0
  C  C202  1  0.233910  0.792010  0.737820  1.0
  C  C203  1  0.496090  0.554190  0.262180  1.0
  C  C204  1  0.766090  0.207990  0.262180  1.0
  C  C205  1  0.331900  0.860900  0.514000  1.0
  C  C206  1  0.182100  0.153100  0.514000  1.0
  C  C207  1  0.668100  0.139100  0.486000  1.0
  C  C208  1  0.817900  0.846900  0.486000  1.0
  C  C209  1  0.106800  0.819000  0.638800  1.0
  C  C210  1  0.532000  0.319800  0.638800  1.0
  C  C211  1  0.893200  0.181000  0.361200  1.0
  C  C212  1  0.468000  0.680200  0.361200  1.0
  C  C213  1  0.515600  0.089500  0.036200  1.0
  C  C214  1  0.520600  0.446700  0.036200  1.0
  C  C215  1  0.484400  0.910500  0.963800  1.0
  C  C216  1  0.479400  0.553300  0.963800  1.0
  C  C217  1  0.191500  0.977000  0.884800  1.0
  C  C218  1  0.693300  0.407800  0.884800  1.0
  C  C219  1  0.808500  0.023000  0.115200  1.0
  C  C220  1  0.306700  0.592200  0.115200  1.0
  C  C221  1  0.791950  0.621450  0.782900  1.0
  C  C222  1  0.990950  0.661450  0.782900  1.0
  C  C223  1  0.208050  0.378550  0.217100  1.0
  C  C224  1  0.009050  0.338550  0.217100  1.0
  C  C225  1  0.746400  0.577700  0.695200  1.0
  C  C226  1  0.948800  0.617500  0.695200  1.0
  C  C227  1  0.253600  0.422300  0.304800  1.0
  C  C228  1  0.051200  0.382500  0.304800  1.0
  C  C229  1  0.692870  0.503370  0.735540  1.0
  C  C230  1  0.042670  0.732170  0.735540  1.0
  C  C231  1  0.307130  0.496630  0.264460  1.0
  C  C232  1  0.957330  0.267830  0.264460  1.0
  C  C233  1  0.592390  0.500790  0.653180  1.0
  C  C234  1  0.060790  0.652390  0.653180  1.0
  C  C235  1  0.407610  0.499210  0.346820  1.0
  C  C236  1  0.939210  0.347610  0.346820  1.0
  C  C237  1  0.532400  0.492600  0.639400  1.0
  C  C238  1  0.107000  0.646800  0.639400  1.0
  C  C239  1  0.467600  0.507400  0.360600  1.0
  C  C240  1  0.893000  0.353200  0.360600  1.0
  C  C241  1  0.536300  0.537600  0.669600  1.0
  C  C242  1  0.133300  0.632000  0.669600  1.0
  C  C243  1  0.463700  0.462400  0.330400  1.0
  C  C244  1  0.866700  0.368000  0.330400  1.0
  C  C245  1  0.781010  0.722010  0.741420  1.0
  C  C246  1  0.960410  0.519410  0.741420  1.0
  C  C247  1  0.218990  0.277990  0.258580  1.0
  C  C248  1  0.039590  0.480590  0.258580  1.0
  C  C249  1  0.766630  0.766730  0.744460  1.0
  C  C250  1  0.977830  0.477730  0.744460  1.0
  C  C251  1  0.233370  0.233270  0.255540  1.0
  C  C252  1  0.022170  0.522270  0.255540  1.0
  C  C253  1  0.710620  0.742720  0.744640  1.0
  C  C254  1  0.034020  0.501920  0.744640  1.0
  C  C255  1  0.289380  0.257280  0.255360  1.0
  C  C256  1  0.965980  0.498080  0.255360  1.0
  C  C257  1  0.628700  0.621700  0.823600  1.0
  C  C258  1  0.194900  0.701900  0.823600  1.0
  C  C259  1  0.371300  0.378300  0.176400  1.0
  C  C260  1  0.805100  0.298100  0.176400  1.0
  C  C261  1  0.653820  0.598820  0.850240  1.0
  C  C262  1  0.196420  0.751420  0.850240  1.0
  C  C263  1  0.346180  0.401180  0.149760  1.0
  C  C264  1  0.803580  0.248580  0.149760  1.0
  C  C265  1  0.683650  0.580350  0.827900  1.0
  C  C266  1  0.144250  0.747550  0.827900  1.0
  C  C267  1  0.316350  0.419650  0.172100  1.0
  C  C268  1  0.855750  0.252450  0.172100  1.0
  C  C269  1  0.058860  0.756860  0.932320  1.0
  C  C270  1  0.873460  0.675460  0.932320  1.0
  C  C271  1  0.941140  0.243140  0.067680  1.0
  C  C272  1  0.126540  0.324540  0.067680  1.0
  C  C273  1  0.110340  0.764140  0.962880  1.0
  C  C274  1  0.852540  0.698740  0.962880  1.0
  C  C275  1  0.889660  0.235860  0.037120  1.0
  C  C276  1  0.147460  0.301260  0.037120  1.0
  C  C277  1  0.107720  0.712320  0.969040  1.0
  C  C278  1  0.861320  0.756720  0.969040  1.0
  C  C279  1  0.892280  0.287680  0.030960  1.0
  C  C280  1  0.138680  0.243280  0.030960  1.0
  C  C281  1  0.053630  0.653230  0.944660  1.0
  C  C282  1  0.891030  0.791430  0.944660  1.0
  C  C283  1  0.946370  0.346770  0.055340  1.0
  C  C284  1  0.108970  0.208570  0.055340  1.0
  C  C285  1  0.002250  0.646050  0.914100  1.0
  C  C286  1  0.911850  0.768050  0.914100  1.0
  C  C287  1  0.997750  0.353950  0.085900  1.0
  C  C288  1  0.088150  0.231950  0.085900  1.0
  C  C289  1  0.862510  0.570210  0.540620  1.0
  C  C290  1  0.678110  0.470410  0.540620  1.0
  C  C291  1  0.137490  0.429790  0.459380  1.0
  C  C292  1  0.321890  0.529590  0.459380  1.0
  C  C293  1  0.884280  0.553780  0.510960  1.0
  C  C294  1  0.626680  0.457180  0.510960  1.0
  C  C295  1  0.115720  0.446220  0.489040  1.0
  C  C296  1  0.373320  0.542820  0.489040  1.0
  C  C297  1  0.882300  0.499500  0.502000  1.0
  C  C298  1  0.619700  0.502500  0.502000  1.0
  C  C299  1  0.117700  0.500500  0.498000  1.0
  C  C300  1  0.380300  0.497500  0.498000  1.0
  C  C301  1  0.859610  0.464510  0.527620  1.0
  C  C302  1  0.668010  0.563110  0.527620  1.0
  C  C303  1  0.140390  0.535490  0.472380  1.0
  C  C304  1  0.331990  0.436890  0.472380  1.0
  C  C305  1  0.840940  0.483340  0.559080  1.0
  C  C306  1  0.718140  0.575740  0.559080  1.0
  C  C307  1  0.159060  0.516660  0.440920  1.0
  C  C308  1  0.281860  0.424260  0.440920  1.0
  C  C309  1  0.811770  0.446670  0.586740  1.0
  C  C310  1  0.774970  0.640070  0.586740  1.0
  C  C311  1  0.188230  0.553330  0.413260  1.0
  C  C312  1  0.225030  0.359930  0.413260  1.0
  C  C313  1  0.807460  0.390660  0.583520  1.0
  C  C314  1  0.776060  0.692860  0.583520  1.0
  C  C315  1  0.192540  0.609340  0.416480  1.0
  C  C316  1  0.223940  0.307140  0.416480  1.0
  C  C317  1  0.781020  0.359320  0.610040  1.0
  C  C318  1  0.829020  0.750720  0.610040  1.0
  C  C319  1  0.218980  0.640680  0.389960  1.0
  C  C320  1  0.170980  0.249280  0.389960  1.0
  C  C321  1  0.759650  0.381650  0.636900  1.0
  C  C322  1  0.877250  0.755250  0.636900  1.0
  C  C323  1  0.240350  0.618350  0.363100  1.0
  C  C324  1  0.122750  0.244750  0.363100  1.0
  C  C325  1  0.761440  0.437340  0.638280  1.0
  C  C326  1  0.876840  0.700940  0.638280  1.0
  C  C327  1  0.238560  0.562660  0.361720  1.0
  C  C328  1  0.123160  0.299060  0.361720  1.0
  C  C329  1  0.949250  0.588250  0.886700  1.0
  C  C330  1  0.937450  0.798450  0.886700  1.0
  C  C331  1  0.050750  0.411750  0.113300  1.0
  C  C332  1  0.062550  0.201550  0.113300  1.0
  C  C333  1  0.938680  0.531480  0.887760  1.0
  C  C334  1  0.949080  0.856280  0.887760  1.0
  C  C335  1  0.061320  0.468520  0.112240  1.0
  C  C336  1  0.050920  0.143720  0.112240  1.0
  C  C337  1  0.880280  0.476980  0.862560  1.0
  C  C338  1  0.982280  0.885580  0.862560  1.0
  C  C339  1  0.119720  0.523020  0.137440  1.0
  C  C340  1  0.017720  0.114420  0.137440  1.0
  C  C341  1  0.832440  0.479140  0.836280  1.0
  C  C342  1  0.003840  0.857140  0.836280  1.0
  C  C343  1  0.167560  0.520860  0.163720  1.0
  C  C344  1  0.996160  0.142860  0.163720  1.0
  C  C345  1  0.843010  0.535910  0.835220  1.0
  C  C346  1  0.992210  0.799310  0.835220  1.0
  C  C347  1  0.156990  0.464090  0.164780  1.0
  C  C348  1  0.007790  0.200690  0.164780  1.0
  C  C349  1  0.611770  0.464570  0.628140  1.0
  C  C350  1  0.016370  0.663570  0.628140  1.0
  C  C351  1  0.388230  0.535430  0.371860  1.0
  C  C352  1  0.983630  0.336430  0.371860  1.0
  C  C353  1  0.484300  0.547500  0.672800  1.0
  C  C354  1  0.188500  0.625300  0.672800  1.0
  C  C355  1  0.515700  0.452500  0.327200  1.0
  C  C356  1  0.811500  0.374700  0.327200  1.0
  C  C357  1  0.837580  0.728280  0.739760  1.0
  C  C358  1  0.902180  0.511480  0.739760  1.0
  C  C359  1  0.162420  0.271720  0.260240  1.0
  C  C360  1  0.097820  0.488520  0.260240  1.0
  C  C361  1  0.672200  0.770300  0.749200  1.0
  C  C362  1  0.077000  0.478900  0.749200  1.0
  C  C363  1  0.327800  0.229700  0.250800  1.0
  C  C364  1  0.923000  0.521100  0.250800  1.0
  C  C365  1  0.716590  0.551690  0.842980  1.0
  C  C366  1  0.126390  0.791290  0.842980  1.0
  C  C367  1  0.283410  0.448310  0.157020  1.0
  C  C368  1  0.873610  0.208710  0.157020  1.0
  C  C369  1  0.591900  0.648100  0.833400  1.0
  C  C370  1  0.241500  0.685300  0.833400  1.0
  C  C371  1  0.408100  0.351900  0.166600  1.0
  C  C372  1  0.758500  0.314700  0.166600  1.0
  C  C373  1  0.905200  0.481900  0.466800  1.0
  C  C374  1  0.561600  0.484900  0.466800  1.0
  C  C375  1  0.094800  0.518100  0.533200  1.0
  C  C376  1  0.438400  0.515100  0.533200  1.0
  C  C377  1  0.779800  0.299300  0.609400  1.0
  C  C378  1  0.829600  0.810100  0.609400  1.0
  C  C379  1  0.220200  0.700700  0.390600  1.0
  C  C380  1  0.170400  0.189900  0.390600  1.0
  C  C381  1  0.868200  0.412700  0.861400  1.0
  C  C382  1  0.993200  0.948700  0.861400  1.0
  C  C383  1  0.131800  0.587300  0.138600  1.0
  C  C384  1  0.006800  0.051300  0.138600  1.0
  C  C385  1  0.164000  0.719300  0.003600  1.0
  C  C386  1  0.839600  0.784300  0.003600  1.0
  C  C387  1  0.836000  0.280700  0.996400  1.0
  C  C388  1  0.160400  0.215700  0.996400  1.0
  C  C389  1  0.961170  0.242870  0.795940  1.0
  C  C390  1  0.834770  0.053070  0.795940  1.0
  C  C391  1  0.038830  0.757130  0.204060  1.0
  C  C392  1  0.165230  0.946930  0.204060  1.0
  C  C393  1  0.924760  0.196360  0.703920  1.0
  C  C394  1  0.779160  0.007560  0.703920  1.0
  C  C395  1  0.075240  0.803640  0.296080  1.0
  C  C396  1  0.220840  0.992440  0.296080  1.0
  C  C397  1  0.927430  0.297330  0.745860  1.0
  C  C398  1  0.818430  0.948530  0.745860  1.0
  C  C399  1  0.072570  0.702670  0.254140  1.0
  C  C400  1  0.181570  0.051470  0.254140  1.0
  C  C401  1  0.992610  0.311310  0.664220  1.0
  C  C402  1  0.671610  0.852910  0.664220  1.0
  C  C403  1  0.007390  0.688690  0.335780  1.0
  C  C404  1  0.328390  0.147090  0.335780  1.0
  C  C405  1  0.040500  0.342900  0.648800  1.0
  C  C406  1  0.608300  0.805900  0.648800  1.0
  C  C407  1  0.959500  0.657100  0.351200  1.0
  C  C408  1  0.391700  0.194100  0.351200  1.0
  C  C409  1  0.093000  0.364400  0.682200  1.0
  C  C410  1  0.589200  0.817800  0.682200  1.0
  C  C411  1  0.907000  0.635600  0.317800  1.0
  C  C412  1  0.410800  0.182200  0.317800  1.0
  C  C413  1  0.054780  0.393280  0.839160  1.0
  C  C414  1  0.784380  0.945880  0.839160  1.0
  C  C415  1  0.945220  0.606720  0.160840  1.0
  C  C416  1  0.215620  0.054120  0.160840  1.0
  C  C417  1  0.114300  0.440100  0.864200  1.0
  C  C418  1  0.749900  0.924100  0.864200  1.0
  C  C419  1  0.885700  0.559900  0.135800  1.0
  C  C420  1  0.250100  0.075900  0.135800  1.0
  C  C421  1  0.151200  0.437300  0.840600  1.0
  C  C422  1  0.689400  0.903300  0.840600  1.0
  C  C423  1  0.848800  0.562700  0.159400  1.0
  C  C424  1  0.310600  0.096700  0.159400  1.0
  C  C425  1  0.773320  0.155020  0.649640  1.0
  C  C426  1  0.876320  0.994620  0.649640  1.0
  C  C427  1  0.226680  0.844980  0.350360  1.0
  C  C428  1  0.123680  0.005380  0.350360  1.0
  C  C429  1  0.729080  0.169180  0.652360  1.0
  C  C430  1  0.923280  0.983180  0.652360  1.0
  C  C431  1  0.270920  0.830820  0.347640  1.0
  C  C432  1  0.076720  0.016820  0.347640  1.0
  C  C433  1  0.668330  0.126330  0.632860  1.0
  C  C434  1  0.964530  0.006530  0.632860  1.0
  C  C435  1  0.331670  0.873670  0.367140  1.0
  C  C436  1  0.035470  0.993470  0.367140  1.0
  C  C437  1  0.652120  0.065020  0.606640  1.0
  C  C438  1  0.954520  0.041620  0.606640  1.0
  C  C439  1  0.347880  0.934980  0.393360  1.0
  C  C440  1  0.045480  0.958380  0.393360  1.0
  C  C441  1  0.694950  0.054850  0.602300  1.0
  C  C442  1  0.907350  0.047450  0.602300  1.0
  C  C443  1  0.305050  0.945150  0.397700  1.0
  C  C444  1  0.092650  0.952550  0.397700  1.0
  C  C445  1  0.677580  0.993780  0.572160  1.0
  C  C446  1  0.894580  0.078380  0.572160  1.0
  C  C447  1  0.322420  0.006220  0.427840  1.0
  C  C448  1  0.105420  0.921620  0.427840  1.0
  C  C449  1  0.618100  0.944600  0.542000  1.0
  C  C450  1  0.923900  0.097400  0.542000  1.0
  C  C451  1  0.381900  0.055400  0.458000  1.0
  C  C452  1  0.076100  0.902600  0.458000  1.0
  C  C453  1  0.608950  0.889550  0.515300  1.0
  C  C454  1  0.906350  0.125750  0.515300  1.0
  C  C455  1  0.391050  0.110450  0.484700  1.0
  C  C456  1  0.093650  0.874250  0.484700  1.0
  C  C457  1  0.659280  0.883680  0.518760  1.0
  C  C458  1  0.859480  0.135080  0.518760  1.0
  C  C459  1  0.340720  0.116320  0.481240  1.0
  C  C460  1  0.140520  0.864920  0.481240  1.0
  C  C461  1  0.718770  0.932870  0.548940  1.0
  C  C462  1  0.830170  0.116070  0.548940  1.0
  C  C463  1  0.281230  0.067130  0.451060  1.0
  C  C464  1  0.169830  0.883930  0.451060  1.0
  C  C465  1  0.067450  0.292050  0.924500  1.0
  C  C466  1  0.857050  0.132450  0.924500  1.0
  C  C467  1  0.932550  0.707950  0.075500  1.0
  C  C468  1  0.142950  0.867550  0.075500  1.0
  C  C469  1  0.118290  0.352190  0.951580  1.0
  C  C470  1  0.833290  0.099390  0.951580  1.0
  C  C471  1  0.881710  0.647810  0.048420  1.0
  C  C472  1  0.166710  0.900610  0.048420  1.0
  C  C473  1  0.109950  0.394850  0.977900  1.0
  C  C474  1  0.867950  0.083050  0.977900  1.0
  C  C475  1  0.890050  0.605150  0.022100  1.0
  C  C476  1  0.132050  0.916950  0.022100  1.0
  C  C477  1  0.050690  0.377390  0.977180  1.0
  C  C478  1  0.926490  0.099790  0.977180  1.0
  C  C479  1  0.949310  0.622610  0.022820  1.0
  C  C480  1  0.073510  0.900210  0.022820  1.0
  C  C481  1  0.999850  0.317250  0.950100  1.0
  C  C482  1  0.950250  0.132850  0.950100  1.0
  C  C483  1  0.000150  0.682750  0.049900  1.0
  C  C484  1  0.049750  0.867150  0.049900  1.0
  C  C485  1  0.070660  0.242560  0.900520  1.0
  C  C486  1  0.829860  0.157960  0.900520  1.0
  C  C487  1  0.929340  0.757440  0.099480  1.0
  C  C488  1  0.170140  0.842040  0.099480  1.0
  C  C489  1  0.125200  0.250900  0.900200  1.0
  C  C490  1  0.775000  0.149300  0.900200  1.0
  C  C491  1  0.874800  0.749100  0.099800  1.0
  C  C492  1  0.225000  0.850700  0.099800  1.0
  C  C493  1  0.126500  0.204900  0.878000  1.0
  C  C494  1  0.751500  0.173100  0.878000  1.0
  C  C495  1  0.873500  0.795100  0.122000  1.0
  C  C496  1  0.248500  0.826900  0.122000  1.0
  C  C497  1  0.074220  0.143220  0.857240  1.0
  C  C498  1  0.783020  0.214020  0.857240  1.0
  C  C499  1  0.925780  0.856780  0.142760  1.0
  C  C500  1  0.216980  0.785980  0.142760  1.0
  C  C501  1  0.019730  0.138330  0.857660  1.0
  C  C502  1  0.837930  0.219330  0.857660  1.0
  C  C503  1  0.980270  0.861670  0.142340  1.0
  C  C504  1  0.162070  0.780670  0.142340  1.0
  C  C505  1  0.927340  0.280740  0.641480  1.0
  C  C506  1  0.714140  0.860740  0.641480  1.0
  C  C507  1  0.072660  0.719260  0.358520  1.0
  C  C508  1  0.285860  0.139260  0.358520  1.0
  C  C509  1  0.159200  0.401200  0.681200  1.0
  C  C510  1  0.522000  0.780000  0.681200  1.0
  C  C511  1  0.840800  0.598800  0.318800  1.0
  C  C512  1  0.478000  0.220000  0.318800  1.0
  C  C513  1  0.004300  0.384400  0.851800  1.0
  C  C514  1  0.847500  0.967400  0.851800  1.0
  C  C515  1  0.995700  0.615600  0.148200  1.0
  C  C516  1  0.152500  0.032600  0.148200  1.0
  C  C517  1  0.222400  0.469000  0.849800  1.0
  C  C518  1  0.627400  0.880800  0.849800  1.0
  C  C519  1  0.777600  0.531000  0.150200  1.0
  C  C520  1  0.372600  0.119200  0.150200  1.0
  C  C521  1  0.983590  0.135790  0.749580  1.0
  C  C522  1  0.765990  0.113790  0.749580  1.0
  C  C523  1  0.016410  0.864210  0.250420  1.0
  C  C524  1  0.234010  0.886210  0.250420  1.0
  C  C525  1  0.201800  0.293300  0.764800  1.0
  C  C526  1  0.563000  0.971500  0.764800  1.0
  C  C527  1  0.798200  0.706700  0.235200  1.0
  C  C528  1  0.437000  0.028500  0.235200  1.0
  C  C529  1  0.613400  0.135300  0.633000  1.0
  C  C530  1  0.019600  0.997700  0.633000  1.0
  C  C531  1  0.386600  0.864700  0.367000  1.0
  C  C532  1  0.980400  0.002300  0.367000  1.0
  C  C533  1  0.542100  0.835700  0.482800  1.0
  C  C534  1  0.940700  0.147100  0.482800  1.0
  C  C535  1  0.457900  0.164300  0.517200  1.0
  C  C536  1  0.059300  0.852900  0.517200  1.0
  C  C537  1  0.179300  0.207300  0.878200  1.0
  C  C538  1  0.698900  0.170900  0.878200  1.0
  C  C539  1  0.820700  0.792700  0.121800  1.0
  C  C540  1  0.301100  0.829100  0.121800  1.0
  C  C541  1  0.040010  0.192310  0.754620  1.0
  C  C542  1  0.714610  0.062310  0.754620  1.0
  C  C543  1  0.959990  0.807690  0.245380  1.0
  C  C544  1  0.285390  0.937690  0.245380  1.0
  C  C545  1  0.094160  0.198060  0.757520  1.0
  C  C546  1  0.663360  0.059460  0.757520  1.0
  C  C547  1  0.905840  0.801940  0.242480  1.0
  C  C548  1  0.336640  0.940540  0.242480  1.0
  C  C549  1  0.135800  0.258200  0.759800  1.0
  C  C550  1  0.624000  0.001600  0.759800  1.0
  C  C551  1  0.864200  0.741800  0.240200  1.0
  C  C552  1  0.376000  0.998400  0.240200  1.0
  C  C553  1  0.166900  0.462100  0.007400  1.0
  C  C554  1  0.840500  0.045300  0.007400  1.0
  C  C555  1  0.833100  0.537900  0.992600  1.0
  C  C556  1  0.159500  0.954700  0.992600  1.0
  Co  Co557  1  0.321210  0.071210  0.642420  1
  Co  Co558  1  0.678790  0.928790  0.357580  1
  Co  Co559  1  0.443600  0.193600  0.887200  1
  Co  Co560  1  0.556400  0.806400  0.112800  1
  Co  Co561  1  0.809710  0.559710  0.619420  1
  Co  Co562  1  0.190290  0.440290  0.380580  1
  Co  Co563  1  0.928370  0.678370  0.856740  1
  Co  Co564  1  0.071630  0.321630  0.143260  1
  Co  Co565  1  0.813630  0.063630  0.627260  1
  Co  Co566  1  0.186370  0.936370  0.372740  1
  Co  Co567  1  0.937270  0.187270  0.874540  1
  Co  Co568  1  0.062730  0.812730  0.125460  1
  F  F569  1  0.331500  0.481400  0.001200  1
  F  F570  1  0.669700  0.019800  0.001200  1
  F  F571  1  0.668500  0.518600  0.998800  1
  F  F572  1  0.330300  0.980200  0.998800  1
  F  F573  1  0.387300  0.470200  0.032800  1
  F  F574  1  0.645500  0.062600  0.032800  1
  F  F575  1  0.612700  0.529800  0.967200  1
  F  F576  1  0.354500  0.937400  0.967200  1
  F  F577  1  0.350500  0.401800  0.973200  1
  F  F578  1  0.622700  0.071400  0.973200  1
  F  F579  1  0.649500  0.598200  0.026800  1
  F  F580  1  0.377300  0.928600  0.026800  1
  F  F581  1  0.324500  0.375600  0.015400  1
  F  F582  1  0.690900  0.139800  0.015400  1
  F  F583  1  0.675500  0.624400  0.984600  1
  F  F584  1  0.309100  0.860200  0.984600  1
  F  F585  1  0.275100  0.421900  0.023000  1
  F  F586  1  0.747900  0.101100  0.023000  1
  F  F587  1  0.724900  0.578100  0.977000  1
  F  F588  1  0.252100  0.898900  0.977000  1
  F  F589  1  0.283400  0.417300  0.949400  1
  F  F590  1  0.666000  0.032100  0.949400  1
  F  F591  1  0.716600  0.582700  0.050600  1
  F  F592  1  0.334000  0.967900  0.050600  1
  F  F593  1  0.836800  0.241300  0.492000  1
  F  F594  1  0.655200  0.750700  0.492000  1
  F  F595  1  0.163200  0.758700  0.508000  1
  F  F596  1  0.344800  0.249300  0.508000  1
  F  F597  1  0.910800  0.271600  0.464200  1
  F  F598  1  0.553400  0.692600  0.464200  1
  F  F599  1  0.089200  0.728400  0.535800  1
  F  F600  1  0.446600  0.307400  0.535800  1
  F  F601  1  0.817400  0.284100  0.444000  1
  F  F602  1  0.626600  0.659900  0.444000  1
  F  F603  1  0.182600  0.715900  0.556000  1
  F  F604  1  0.373400  0.340100  0.556000  1
  F  F605  1  0.943800  0.317800  0.530600  1
  F  F606  1  0.586800  0.712800  0.530600  1
  F  F607  1  0.056200  0.682200  0.469400  1
  F  F608  1  0.413200  0.287200  0.469400  1
  F  F609  1  0.862700  0.329800  0.520400  1
  F  F610  1  0.657700  0.690600  0.520400  1
  F  F611  1  0.137300  0.670200  0.479600  1
  F  F612  1  0.342300  0.309400  0.479600  1
  F  F613  1  0.944200  0.357900  0.482800  1
  F  F614  1  0.538600  0.624900  0.482800  1
  F  F615  1  0.055800  0.642100  0.517200  1
  F  F616  1  0.461400  0.375100  0.517200  1
  F  F617  1  0.433200  0.951500  0.477000  1.0
  F  F618  1  0.043800  0.025500  0.477000  1.0
  F  F619  1  0.566800  0.048500  0.523000  1.0
  F  F620  1  0.956200  0.974500  0.523000  1.0
  F  F621  1  0.498200  0.022000  0.452600  1.0
  F  F622  1  0.954400  0.930600  0.452600  1.0
  F  F623  1  0.501800  0.978000  0.547400  1.0
  F  F624  1  0.045600  0.069400  0.547400  1.0
  F  F625  1  0.507700  0.943200  0.484200  1.0
  F  F626  1  0.976500  0.041000  0.484200  1.0
  F  F627  1  0.492300  0.056800  0.515800  1.0
  F  F628  1  0.023500  0.959000  0.515800  1.0
  F  F629  1  0.022200  0.985200  0.038400  1.0
  F  F630  1  0.016200  0.553200  0.038400  1.0
  F  F631  1  0.977800  0.014800  0.961600  1.0
  F  F632  1  0.983800  0.446800  0.961600  1.0
  F  F633  1  0.923300  0.944400  0.991400  1.0
  F  F634  1  0.068100  0.547000  0.991400  1.0
  F  F635  1  0.076700  0.055600  0.008600  1.0
  F  F636  1  0.931900  0.453000  0.008600  1.0
  F  F637  1  0.014600  0.058600  0.039200  1.0
  F  F638  1  0.024600  0.480600  0.039200  1.0
  F  F639  1  0.985400  0.941400  0.960800  1.0
  F  F640  1  0.975400  0.519400  0.960800  1.0
  Fe  Fe641  1  0.338570  0.241610  0.763780  1.0
  Fe  Fe642  1  0.425210  0.022170  0.763780  1.0
  Fe  Fe643  1  0.661430  0.758390  0.236220  1.0
  Fe  Fe644  1  0.574790  0.977830  0.236220  1.0
  Fe  Fe645  1  0.712410  0.586550  0.739000  1.0
  Fe  Fe646  1  0.026590  0.652450  0.739000  1.0
  Fe  Fe647  1  0.287590  0.413450  0.261000  1.0
  Fe  Fe648  1  0.973410  0.347550  0.261000  1.0
  Fe  Fe649  1  0.988660  0.275920  0.751200  1.0
  Fe  Fe650  1  0.762540  0.975280  0.751200  1.0
  Fe  Fe651  1  0.011340  0.724080  0.248800  1.0
  Fe  Fe652  1  0.237460  0.024720  0.248800  1.0
  H  H653  1  0.610900  0.246400  0.759600  1
  H  H654  1  0.148700  0.013200  0.759600  1
  H  H655  1  0.389100  0.753600  0.240400  1
  H  H656  1  0.851300  0.986800  0.240400  1
  H  H657  1  0.766100  0.253900  0.757600  1
  H  H658  1  0.991500  0.003700  0.757600  1
  H  H659  1  0.233900  0.746100  0.242400  1
  H  H660  1  0.008500  0.996300  0.242400  1
  H  H661  1  0.737400  0.382800  0.731800  1
  H  H662  1  0.994400  0.849000  0.731800  1
  H  H663  1  0.262600  0.617200  0.268200  1
  H  H664  1  0.005600  0.151000  0.268200  1
  H  H665  1  0.650600  0.375300  0.738400  1
  H  H666  1  0.087800  0.863100  0.738400  1
  H  H667  1  0.349400  0.624700  0.261600  1
  H  H668  1  0.912200  0.136900  0.261600  1
  H  H669  1  0.832200  0.334600  0.739600  1
  H  H670  1  0.907400  0.905000  0.739600  1
  H  H671  1  0.167800  0.665400  0.260400  1
  H  H672  1  0.092600  0.095000  0.260400  1
  H  H673  1  0.635200  0.177700  0.773600  1
  H  H674  1  0.138400  0.095900  0.773600  1
  H  H675  1  0.364800  0.822300  0.226400  1
  H  H676  1  0.861600  0.904100  0.226400  1
  H  H677  1  0.527300  0.498700  0.151000  1
  H  H678  1  0.623700  0.152300  0.151000  1
  H  H679  1  0.472700  0.501300  0.849000  1
  H  H680  1  0.376300  0.847700  0.849000  1
  H  H681  1  0.468400  0.455100  0.105400  1
  H  H682  1  0.637000  0.150300  0.105400  1
  H  H683  1  0.531600  0.544900  0.894600  1
  H  H684  1  0.363000  0.849700  0.894600  1
  H  H685  1  0.460400  0.469000  0.152800  1
  H  H686  1  0.692400  0.183800  0.152800  1
  H  H687  1  0.539600  0.531000  0.847200  1
  H  H688  1  0.307600  0.816200  0.847200  1
  H  H689  1  0.284800  0.136200  0.971200  1
  H  H690  1  0.686400  0.335000  0.971200  1
  H  H691  1  0.715200  0.863800  0.028800  1
  H  H692  1  0.313600  0.665000  0.028800  1
  H  H693  1  0.284500  0.195300  0.993200  1
  H  H694  1  0.708700  0.297900  0.993200  1
  H  H695  1  0.715500  0.804700  0.006800  1
  H  H696  1  0.291300  0.702100  0.006800  1
  H  H697  1  0.266500  0.143700  0.014600  1
  H  H698  1  0.748100  0.370900  0.014600  1
  H  H699  1  0.733500  0.856300  0.985400  1
  H  H700  1  0.251900  0.629100  0.985400  1
  H  H701  1  0.196900  0.228800  0.620600  1.0
  H  H702  1  0.423700  0.891800  0.620600  1.0
  H  H703  1  0.803100  0.771200  0.379400  1.0
  H  H704  1  0.576300  0.108200  0.379400  1.0
  H  H705  1  0.349000  0.412000  0.882800  1.0
  H  H706  1  0.533800  0.970800  0.882800  1.0
  H  H707  1  0.651000  0.588000  0.117200  1.0
  H  H708  1  0.466200  0.029200  0.117200  1.0
  H  H709  1  0.549200  0.367800  0.751400  1.0
  H  H710  1  0.202200  0.883600  0.751400  1.0
  H  H711  1  0.450800  0.632200  0.248600  1.0
  H  H712  1  0.797800  0.116400  0.248600  1.0
  H  H713  1  0.384300  0.056800  0.573400  1.0
  H  H714  1  0.189100  0.016600  0.573400  1.0
  H  H715  1  0.615700  0.943200  0.426600  1.0
  H  H716  1  0.810900  0.983400  0.426600  1.0
  H  H717  1  0.379700  0.978700  0.525000  1.0
  H  H718  1  0.145300  0.046300  0.525000  1.0
  H  H719  1  0.620300  0.021300  0.475000  1.0
  H  H720  1  0.854700  0.953700  0.475000  1.0
  H  H721  1  0.262100  0.857400  0.564800  1.0
  H  H722  1  0.302700  0.207400  0.564800  1.0
  H  H723  1  0.737900  0.142600  0.435200  1.0
  H  H724  1  0.697300  0.792600  0.435200  1.0
  H  H725  1  0.195900  0.846400  0.600800  1.0
  H  H726  1  0.404900  0.254400  0.600800  1.0
  H  H727  1  0.804100  0.153600  0.399200  1.0
  H  H728  1  0.595100  0.745600  0.399200  1.0
  H  H729  1  0.133300  0.933900  0.674800  1.0
  H  H730  1  0.541500  0.240900  0.674800  1.0
  H  H731  1  0.866700  0.066100  0.325200  1.0
  H  H732  1  0.458500  0.759100  0.325200  1.0
  H  H733  1  0.209400  0.026500  0.672200  1.0
  H  H734  1  0.462800  0.145700  0.672200  1.0
  H  H735  1  0.790600  0.973500  0.327800  1.0
  H  H736  1  0.537200  0.854300  0.327800  1.0
  H  H737  1  0.405800  0.063800  0.978800  1.0
  H  H738  1  0.573000  0.415000  0.978800  1.0
  H  H739  1  0.594200  0.936200  0.021200  1.0
  H  H740  1  0.427000  0.585000  0.021200  1.0
  H  H741  1  0.586200  0.184300  0.011600  1.0
  H  H742  1  0.425400  0.327300  0.011600  1.0
  H  H743  1  0.413800  0.815700  0.988400  1.0
  H  H744  1  0.574600  0.672700  0.988400  1.0
  H  H745  1  0.560500  0.220600  0.957800  1.0
  H  H746  1  0.397300  0.237200  0.957800  1.0
  H  H747  1  0.439500  0.779400  0.042200  1.0
  H  H748  1  0.602700  0.762800  0.042200  1.0
  H  H749  1  0.312300  0.021100  0.929400  1.0
  H  H750  1  0.617100  0.408300  0.929400  1.0
  H  H751  1  0.687700  0.978900  0.070600  1.0
  H  H752  1  0.382900  0.591700  0.070600  1.0
  H  H753  1  0.211400  0.062100  0.846800  1.0
  H  H754  1  0.635400  0.284700  0.846800  1.0
  H  H755  1  0.788600  0.937900  0.153200  1.0
  H  H756  1  0.364600  0.715300  0.153200  1.0
  H  H757  1  0.305400  0.144200  0.850000  1.0
  H  H758  1  0.544600  0.205800  0.850000  1.0
  H  H759  1  0.694600  0.855800  0.150000  1.0
  H  H760  1  0.455400  0.794200  0.150000  1.0
  H  H761  1  0.189100  0.140800  0.694400  1.0
  H  H762  1  0.505300  0.053600  0.694400  1.0
  H  H763  1  0.810900  0.859200  0.305600  1.0
  H  H764  1  0.494700  0.946400  0.305600  1.0
  H  H765  1  0.209900  0.121300  0.654800  1.0
  H  H766  1  0.444900  0.033500  0.654800  1.0
  H  H767  1  0.790100  0.878700  0.345200  1.0
  H  H768  1  0.555100  0.966500  0.345200  1.0
  H  H769  1  0.153300  0.128600  0.643800  1.0
  H  H770  1  0.490500  0.015200  0.643800  1.0
  H  H771  1  0.846700  0.871400  0.356200  1.0
  H  H772  1  0.509500  0.984800  0.356200  1.0
  H  H773  1  0.318800  0.365100  0.638800  1.0
  H  H774  1  0.320000  0.773700  0.638800  1.0
  H  H775  1  0.681200  0.634900  0.361200  1.0
  H  H776  1  0.680000  0.226300  0.361200  1.0
  H  H777  1  0.311200  0.396600  0.682400  1.0
  H  H778  1  0.371200  0.785800  0.682400  1.0
  H  H779  1  0.688800  0.603400  0.317600  1.0
  H  H780  1  0.628800  0.214200  0.317600  1.0
  H  H781  1  0.253100  0.351600  0.636400  1.0
  H  H782  1  0.383300  0.784800  0.636400  1.0
  H  H783  1  0.746900  0.648400  0.363600  1.0
  H  H784  1  0.616700  0.215200  0.363600  1.0
  H  H785  1  0.302900  0.255600  0.861200  1.0
  H  H786  1  0.558300  0.105600  0.861200  1.0
  H  H787  1  0.697100  0.744400  0.138800  1.0
  H  H788  1  0.441700  0.894400  0.138800  1.0
  H  H789  1  0.337400  0.316500  0.905000  1.0
  H  H790  1  0.567600  0.088500  0.905000  1.0
  H  H791  1  0.662600  0.683500  0.095000  1.0
  H  H792  1  0.432400  0.911500  0.095000  1.0
  H  H793  1  0.375500  0.293500  0.885200  1.0
  H  H794  1  0.509700  0.091700  0.885200  1.0
  H  H795  1  0.624500  0.706500  0.114800  1.0
  H  H796  1  0.490300  0.908300  0.114800  1.0
  H  H797  1  0.346700  0.455800  0.782200  1.0
  H  H798  1  0.435500  0.826400  0.782200  1.0
  H  H799  1  0.653300  0.544200  0.217800  1.0
  H  H800  1  0.564500  0.173600  0.217800  1.0
  H  H801  1  0.411600  0.497400  0.823000  1.0
  H  H802  1  0.411400  0.825600  0.823000  1.0
  H  H803  1  0.588400  0.502600  0.177000  1.0
  H  H804  1  0.588600  0.174400  0.177000  1.0
  H  H805  1  0.350900  0.483200  0.832400  1.0
  H  H806  1  0.481500  0.849200  0.832400  1.0
  H  H807  1  0.649100  0.516800  0.167600  1.0
  H  H808  1  0.518500  0.150800  0.167600  1.0
  H  H809  1  0.485900  0.257600  0.797400  1.0
  H  H810  1  0.311500  0.039800  0.797400  1.0
  H  H811  1  0.514100  0.742400  0.202600  1.0
  H  H812  1  0.688500  0.960200  0.202600  1.0
  H  H813  1  0.518500  0.262500  0.761400  1.0
  H  H814  1  0.242900  0.998900  0.761400  1.0
  H  H815  1  0.481500  0.737500  0.238600  1.0
  H  H816  1  0.757100  0.001100  0.238600  1.0
  H  H817  1  0.446700  0.213700  0.745400  1.0
  H  H818  1  0.298700  0.031700  0.745400  1.0
  H  H819  1  0.553300  0.786300  0.254600  1.0
  H  H820  1  0.701300  0.968300  0.254600  1.0
  H  H821  1  0.475900  0.438300  0.709000  1.0
  H  H822  1  0.233100  0.770700  0.709000  1.0
  H  H823  1  0.524100  0.561700  0.291000  1.0
  H  H824  1  0.766900  0.229300  0.291000  1.0
  H  H825  1  0.544300  0.459900  0.736400  1.0
  H  H826  1  0.192100  0.776500  0.736400  1.0
  H  H827  1  0.455700  0.540100  0.263600  1.0
  H  H828  1  0.807900  0.223500  0.263600  1.0
  H  H829  1  0.507100  0.477100  0.762200  1.0
  H  H830  1  0.255100  0.785100  0.762200  1.0
  H  H831  1  0.492900  0.522900  0.237800  1.0
  H  H832  1  0.744900  0.214900  0.237800  1.0
  H  H833  1  0.353700  0.852900  0.537000  1.0
  H  H834  1  0.183300  0.184100  0.537000  1.0
  H  H835  1  0.646300  0.147100  0.463000  1.0
  H  H836  1  0.816700  0.815900  0.463000  1.0
  H  H837  1  0.357400  0.878300  0.497000  1.0
  H  H838  1  0.139600  0.118700  0.497000  1.0
  H  H839  1  0.642600  0.121700  0.503000  1.0
  H  H840  1  0.860400  0.881300  0.503000  1.0
  H  H841  1  0.293700  0.822600  0.493400  1.0
  H  H842  1  0.199700  0.170800  0.493400  1.0
  H  H843  1  0.706300  0.177400  0.506600  1.0
  H  H844  1  0.800300  0.829200  0.506600  1.0
  H  H845  1  0.079500  0.825100  0.651800  1.0
  H  H846  1  0.572300  0.326700  0.651800  1.0
  H  H847  1  0.920500  0.174900  0.348200  1.0
  H  H848  1  0.427700  0.673300  0.348200  1.0
  H  H849  1  0.127000  0.804900  0.657400  1.0
  H  H850  1  0.530400  0.352500  0.657400  1.0
  H  H851  1  0.873000  0.195100  0.342600  1.0
  H  H852  1  0.469600  0.647500  0.342600  1.0
  H  H853  1  0.083100  0.788300  0.608200  1.0
  H  H854  1  0.525100  0.319900  0.608200  1.0
  H  H855  1  0.916900  0.211700  0.391800  1.0
  H  H856  1  0.474900  0.680100  0.391800  1.0
  H  H857  1  0.501200  0.046700  0.021200  1.0
  H  H858  1  0.520000  0.474500  0.021200  1.0
  H  H859  1  0.498800  0.953300  0.978800  1.0
  H  H860  1  0.480000  0.525500  0.978800  1.0
  H  H861  1  0.494900  0.092100  0.057000  1.0
  H  H862  1  0.562100  0.464900  0.057000  1.0
  H  H863  1  0.505100  0.907900  0.943000  1.0
  H  H864  1  0.437900  0.535100  0.943000  1.0
  H  H865  1  0.559800  0.113400  0.053000  1.0
  H  H866  1  0.493200  0.439600  0.053000  1.0
  H  H867  1  0.440200  0.886600  0.947000  1.0
  H  H868  1  0.506800  0.560400  0.947000  1.0
  H  H869  1  0.175700  0.989900  0.906400  1.0
  H  H870  1  0.730700  0.416500  0.906400  1.0
  H  H871  1  0.824300  0.010100  0.093600  1.0
  H  H872  1  0.269300  0.583500  0.093600  1.0
  H  H873  1  0.198800  0.946500  0.891400  1.0
  H  H874  1  0.692600  0.444900  0.891400  1.0
  H  H875  1  0.801200  0.053500  0.108600  1.0
  H  H876  1  0.307400  0.555100  0.108600  1.0
  H  H877  1  0.161600  0.959000  0.854200  1.0
  H  H878  1  0.692600  0.395200  0.854200  1.0
  H  H879  1  0.838400  0.041000  0.145800  1.0
  H  H880  1  0.307400  0.604800  0.145800  1.0
  H  H881  1  0.386000  0.402600  0.742600  1.0
  H  H882  1  0.356600  0.840000  0.742600  1.0
  H  H883  1  0.614000  0.597400  0.257400  1.0
  H  H884  1  0.643400  0.160000  0.257400  1.0
  H  H885  1  0.497400  0.461100  0.613800  1.0
  H  H886  1  0.116400  0.652700  0.613800  1.0
  H  H887  1  0.502600  0.538900  0.386200  1.0
  H  H888  1  0.883600  0.347300  0.386200  1.0
  H  H889  1  0.792800  0.807100  0.746000  1.0
  H  H890  1  0.953200  0.438900  0.746000  1.0
  H  H891  1  0.207200  0.192900  0.254000  1.0
  H  H892  1  0.046800  0.561100  0.254000  1.0
  H  H893  1  0.650700  0.596300  0.878200  1.0
  H  H894  1  0.227500  0.781900  0.878200  1.0
  H  H895  1  0.349300  0.403700  0.121800  1.0
  H  H896  1  0.772500  0.218100  0.121800  1.0
  H  H897  1  0.060600  0.791500  0.928200  1.0
  H  H898  1  0.867600  0.636700  0.928200  1.0
  H  H899  1  0.939400  0.208500  0.071800  1.0
  H  H900  1  0.132400  0.363300  0.071800  1.0
  H  H901  1  0.146500  0.803600  0.979200  1.0
  H  H902  1  0.832700  0.675600  0.979200  1.0
  H  H903  1  0.853500  0.196400  0.020800  1.0
  H  H904  1  0.167300  0.324400  0.020800  1.0
  H  H905  1  0.051900  0.618600  0.948800  1.0
  H  H906  1  0.896900  0.830200  0.948800  1.0
  H  H907  1  0.948100  0.381400  0.051200  1.0
  H  H908  1  0.103100  0.169800  0.051200  1.0
  H  H909  1  0.862000  0.605900  0.543800  1.0
  H  H910  1  0.681800  0.437900  0.543800  1.0
  H  H911  1  0.138000  0.394100  0.456200  1.0
  H  H912  1  0.318200  0.562100  0.456200  1.0
  H  H913  1  0.901600  0.579700  0.495400  1.0
  H  H914  1  0.593800  0.415700  0.495400  1.0
  H  H915  1  0.098400  0.420300  0.504600  1.0
  H  H916  1  0.406200  0.584300  0.504600  1.0
  H  H917  1  0.857300  0.427200  0.522600  1.0
  H  H918  1  0.665300  0.595400  0.522600  1.0
  H  H919  1  0.142700  0.572800  0.477400  1.0
  H  H920  1  0.334700  0.404600  0.477400  1.0
  H  H921  1  0.822200  0.375000  0.563800  1.0
  H  H922  1  0.741600  0.688800  0.563800  1.0
  H  H923  1  0.177800  0.625000  0.436200  1.0
  H  H924  1  0.258400  0.311200  0.436200  1.0
  H  H925  1  0.742900  0.360900  0.655400  1.0
  H  H926  1  0.912500  0.794500  0.655400  1.0
  H  H927  1  0.257100  0.639100  0.344600  1.0
  H  H928  1  0.087500  0.205500  0.344600  1.0
  H  H929  1  0.742900  0.450800  0.655600  1.0
  H  H930  1  0.912700  0.704800  0.655600  1.0
  H  H931  1  0.257100  0.549200  0.344400  1.0
  H  H932  1  0.087300  0.295200  0.344400  1.0
  H  H933  1  0.970700  0.530100  0.905400  1.0
  H  H934  1  0.934700  0.875300  0.905400  1.0
  H  H935  1  0.029300  0.469900  0.094600  1.0
  H  H936  1  0.065300  0.124700  0.094600  1.0
  H  H937  1  0.793300  0.442600  0.819400  1.0
  H  H938  1  0.026100  0.876800  0.819400  1.0
  H  H939  1  0.206700  0.557400  0.180600  1.0
  H  H940  1  0.973900  0.123200  0.180600  1.0
  H  H941  1  0.810900  0.537200  0.817600  1.0
  H  H942  1  0.006700  0.780400  0.817600  1.0
  H  H943  1  0.189100  0.462800  0.182400  1.0
  H  H944  1  0.993300  0.219600  0.182400  1.0
  H  H945  1  0.646500  0.491500  0.621200  1.0
  H  H946  1  0.974700  0.629700  0.621200  1.0
  H  H947  1  0.353500  0.508500  0.378800  1.0
  H  H948  1  0.025300  0.370300  0.378800  1.0
  H  H949  1  0.577800  0.433200  0.600000  1.0
  H  H950  1  0.022200  0.666800  0.600000  1.0
  H  H951  1  0.422200  0.566800  0.400000  1.0
  H  H952  1  0.977800  0.333200  0.400000  1.0
  H  H953  1  0.623600  0.444900  0.646600  1.0
  H  H954  1  0.023000  0.701700  0.646600  1.0
  H  H955  1  0.376400  0.555100  0.353400  1.0
  H  H956  1  0.977000  0.298300  0.353400  1.0
  H  H957  1  0.449900  0.523500  0.643800  1.0
  H  H958  1  0.193900  0.620300  0.643800  1.0
  H  H959  1  0.550100  0.476500  0.356200  1.0
  H  H960  1  0.806100  0.379700  0.356200  1.0
  H  H961  1  0.499800  0.591000  0.680400  1.0
  H  H962  1  0.180600  0.589400  0.680400  1.0
  H  H963  1  0.500200  0.409000  0.319600  1.0
  H  H964  1  0.819400  0.410600  0.319600  1.0
  H  H965  1  0.470800  0.534500  0.696400  1.0
  H  H966  1  0.225600  0.661900  0.696400  1.0
  H  H967  1  0.529200  0.465500  0.303600  1.0
  H  H968  1  0.774400  0.338100  0.303600  1.0
  H  H969  1  0.827900  0.693800  0.714400  1.0
  H  H970  1  0.886500  0.520600  0.714400  1.0
  H  H971  1  0.172100  0.306200  0.285600  1.0
  H  H972  1  0.113500  0.479400  0.285600  1.0
  H  H973  1  0.859800  0.728800  0.768000  1.0
  H  H974  1  0.908200  0.539200  0.768000  1.0
  H  H975  1  0.140200  0.271200  0.232000  1.0
  H  H976  1  0.091800  0.460800  0.232000  1.0
  H  H977  1  0.862900  0.766500  0.735800  1.0
  H  H978  1  0.872900  0.469300  0.735800  1.0
  H  H979  1  0.137100  0.233500  0.264200  1.0
  H  H980  1  0.127100  0.530700  0.264200  1.0
  H  H981  1  0.646700  0.752200  0.766000  1.0
  H  H982  1  0.119300  0.513800  0.766000  1.0
  H  H983  1  0.353300  0.247800  0.234000  1.0
  H  H984  1  0.880700  0.486200  0.234000  1.0
  H  H985  1  0.646100  0.761600  0.719200  1.0
  H  H986  1  0.073100  0.457600  0.719200  1.0
  H  H987  1  0.353900  0.238400  0.280800  1.0
  H  H988  1  0.926900  0.542400  0.280800  1.0
  H  H989  1  0.699500  0.814600  0.765600  1.0
  H  H990  1  0.066100  0.451000  0.765600  1.0
  H  H991  1  0.300500  0.185400  0.234400  1.0
  H  H992  1  0.933900  0.549000  0.234400  1.0
  H  H993  1  0.754900  0.569100  0.837600  1.0
  H  H994  1  0.082700  0.768500  0.837600  1.0
  H  H995  1  0.245100  0.430900  0.162400  1.0
  H  H996  1  0.917300  0.231500  0.162400  1.0
  H  H997  1  0.690900  0.507500  0.826000  1.0
  H  H998  1  0.135100  0.818500  0.826000  1.0
  H  H999  1  0.309100  0.492500  0.174000  1.0
  H  H1000  1  0.864900  0.181500  0.174000  1.0
  H  H1001  1  0.725600  0.559700  0.875200  1.0
  H  H1002  1  0.149600  0.815500  0.875200  1.0
  H  H1003  1  0.274400  0.440300  0.124800  1.0
  H  H1004  1  0.850400  0.184500  0.124800  1.0
  H  H1005  1  0.618200  0.692700  0.845000  1.0
  H  H1006  1  0.226800  0.652300  0.845000  1.0
  H  H1007  1  0.381800  0.307300  0.155000  1.0
  H  H1008  1  0.773200  0.347700  0.155000  1.0
  H  H1009  1  0.575500  0.634700  0.855800  1.0
  H  H1010  1  0.280300  0.721100  0.855800  1.0
  H  H1011  1  0.424500  0.365300  0.144200  1.0
  H  H1012  1  0.719700  0.278900  0.144200  1.0
  H  H1013  1  0.558100  0.633800  0.805600  1.0
  H  H1014  1  0.247500  0.671800  0.805600  1.0
  H  H1015  1  0.441900  0.366200  0.194400  1.0
  H  H1016  1  0.752500  0.328200  0.194400  1.0
  H  H1017  1  0.928200  0.517000  0.458800  1.0
  H  H1018  1  0.530600  0.441800  0.458800  1.0
  H  H1019  1  0.071800  0.483000  0.541200  1.0
  H  H1020  1  0.469400  0.558200  0.541200  1.0
  H  H1021  1  0.870400  0.448100  0.440000  1.0
  H  H1022  1  0.569600  0.491900  0.440000  1.0
  H  H1023  1  0.129600  0.551900  0.560000  1.0
  H  H1024  1  0.430400  0.508100  0.560000  1.0
  H  H1025  1  0.931800  0.469000  0.478800  1.0
  H  H1026  1  0.547000  0.509800  0.478800  1.0
  H  H1027  1  0.068200  0.531000  0.521200  1.0
  H  H1028  1  0.453000  0.490200  0.521200  1.0
  H  H1029  1  0.792200  0.300700  0.640200  1.0
  H  H1030  1  0.848000  0.839500  0.640200  1.0
  H  H1031  1  0.207800  0.699300  0.359800  1.0
  H  H1032  1  0.152000  0.160500  0.359800  1.0
  H  H1033  1  0.808000  0.296900  0.595600  1.0
  H  H1034  1  0.787600  0.798700  0.595600  1.0
  H  H1035  1  0.192000  0.703100  0.404400  1.0
  H  H1036  1  0.212400  0.201300  0.404400  1.0
  H  H1037  1  0.738300  0.263300  0.591600  1.0
  H  H1038  1  0.853300  0.828300  0.591600  1.0
  H  H1039  1  0.261700  0.736700  0.408400  1.0
  H  H1040  1  0.146700  0.171700  0.408400  1.0
  H  H1041  1  0.824300  0.383000  0.852200  1.0
  H  H1042  1  0.027900  0.969200  0.852200  1.0
  H  H1043  1  0.175700  0.617000  0.147800  1.0
  H  H1044  1  0.972100  0.030800  0.147800  1.0
  H  H1045  1  0.889600  0.416700  0.891400  1.0
  H  H1046  1  0.001800  0.974700  0.891400  1.0
  H  H1047  1  0.110400  0.583300  0.108600  1.0
  H  H1048  1  0.998200  0.025300  0.108600  1.0
  H  H1049  1  0.883400  0.398600  0.839800  1.0
  H  H1050  1  0.956400  0.941200  0.839800  1.0
  H  H1051  1  0.116600  0.601400  0.160200  1.0
  H  H1052  1  0.043600  0.058800  0.160200  1.0
  H  H1053  1  0.600700  0.648300  0.748400  1.0
  H  H1054  1  0.147700  0.600100  0.748400  1.0
  H  H1055  1  0.399300  0.351700  0.251600  1.0
  H  H1056  1  0.852300  0.399900  0.251600  1.0
  H  H1057  1  0.180300  0.753200  0.031800  1.0
  H  H1058  1  0.851500  0.778600  0.031800  1.0
  H  H1059  1  0.819700  0.246800  0.968200  1.0
  H  H1060  1  0.148500  0.221400  0.968200  1.0
  H  H1061  1  0.195800  0.727600  0.990800  1.0
  H  H1062  1  0.795000  0.763200  0.990800  1.0
  H  H1063  1  0.804200  0.272400  0.009200  1.0
  H  H1064  1  0.205000  0.236800  0.009200  1.0
  H  H1065  1  0.150700  0.681400  0.009400  1.0
  H  H1066  1  0.858700  0.828000  0.009400  1.0
  H  H1067  1  0.849300  0.318600  0.990600  1.0
  H  H1068  1  0.141300  0.172000  0.990600  1.0
  H  H1069  1  0.036100  0.347800  0.620600  1.0
  H  H1070  1  0.584500  0.772800  0.620600  1.0
  H  H1071  1  0.963900  0.652200  0.379400  1.0
  H  H1072  1  0.415500  0.227200  0.379400  1.0
  H  H1073  1  0.128300  0.469700  0.893000  1.0
  H  H1074  1  0.764700  0.923300  0.893000  1.0
  H  H1075  1  0.871700  0.530300  0.107000  1.0
  H  H1076  1  0.235300  0.076700  0.107000  1.0
  H  H1077  1  0.815600  0.185800  0.665000  1.0
  H  H1078  1  0.849400  0.979200  0.665000  1.0
  H  H1079  1  0.184400  0.814200  0.335000  1.0
  H  H1080  1  0.150600  0.020800  0.335000  1.0
  H  H1081  1  0.742700  0.210000  0.668400  1.0
  H  H1082  1  0.925700  0.958400  0.668400  1.0
  H  H1083  1  0.257300  0.790000  0.331600  1.0
  H  H1084  1  0.074300  0.041600  0.331600  1.0
  H  H1085  1  0.610400  0.032200  0.592600  1.0
  H  H1086  1  0.982200  0.060400  0.592600  1.0
  H  H1087  1  0.389600  0.967800  0.407400  1.0
  H  H1088  1  0.017800  0.939600  0.407400  1.0
  H  H1089  1  0.584300  0.948400  0.539600  1.0
  H  H1090  1  0.955300  0.091200  0.539600  1.0
  H  H1091  1  0.415700  0.051600  0.460400  1.0
  H  H1092  1  0.044700  0.908800  0.460400  1.0
  H  H1093  1  0.653300  0.847000  0.501000  1.0
  H  H1094  1  0.847700  0.154000  0.501000  1.0
  H  H1095  1  0.346700  0.153000  0.499000  1.0
  H  H1096  1  0.152300  0.846000  0.499000  1.0
  H  H1097  1  0.752500  0.929000  0.551200  1.0
  H  H1098  1  0.798700  0.122200  0.551200  1.0
  H  H1099  1  0.247500  0.071000  0.448800  1.0
  H  H1100  1  0.201300  0.877800  0.448800  1.0
  H  H1101  1  0.157900  0.363900  0.952000  1.0
  H  H1102  1  0.794100  0.088100  0.952000  1.0
  H  H1103  1  0.842100  0.636100  0.048000  1.0
  H  H1104  1  0.205900  0.911900  0.048000  1.0
  H  H1105  1  0.045100  0.405900  0.994800  1.0
  H  H1106  1  0.949700  0.088900  0.994800  1.0
  H  H1107  1  0.954900  0.594100  0.005200  1.0
  H  H1108  1  0.050300  0.911100  0.005200  1.0
  H  H1109  1  0.960200  0.305500  0.949600  1.0
  H  H1110  1  0.989400  0.144100  0.949600  1.0
  H  H1111  1  0.039800  0.694500  0.050400  1.0
  H  H1112  1  0.010600  0.855900  0.050400  1.0
  H  H1113  1  0.162000  0.289900  0.916000  1.0
  H  H1114  1  0.754000  0.126100  0.916000  1.0
  H  H1115  1  0.838000  0.710100  0.084000  1.0
  H  H1116  1  0.246000  0.873900  0.084000  1.0
  H  H1117  1  0.076200  0.109200  0.844600  1.0
  H  H1118  1  0.768400  0.235400  0.844600  1.0
  H  H1119  1  0.923800  0.890800  0.155400  1.0
  H  H1120  1  0.231600  0.764600  0.155400  1.0
  H  H1121  1  0.982500  0.099400  0.842400  1.0
  H  H1122  1  0.859900  0.243000  0.842400  1.0
  H  H1123  1  0.017500  0.900600  0.157600  1.0
  H  H1124  1  0.140100  0.757000  0.157600  1.0
  H  H1125  1  0.906800  0.238200  0.639600  1.0
  H  H1126  1  0.732800  0.901400  0.639600  1.0
  H  H1127  1  0.093200  0.761800  0.360400  1.0
  H  H1128  1  0.267200  0.098600  0.360400  1.0
  H  H1129  1  0.918700  0.281600  0.611000  1.0
  H  H1130  1  0.692300  0.829400  0.611000  1.0
  H  H1131  1  0.081300  0.718400  0.389000  1.0
  H  H1132  1  0.307700  0.170600  0.389000  1.0
  H  H1133  1  0.912300  0.301400  0.658400  1.0
  H  H1134  1  0.746100  0.857000  0.658400  1.0
  H  H1135  1  0.087700  0.698600  0.341600  1.0
  H  H1136  1  0.253900  0.143000  0.341600  1.0
  H  H1137  1  0.178800  0.379000  0.685600  1.0
  H  H1138  1  0.506800  0.806600  0.685600  1.0
  H  H1139  1  0.821200  0.621000  0.314400  1.0
  H  H1140  1  0.493200  0.193400  0.314400  1.0
  H  H1141  1  0.183400  0.441700  0.705200  1.0
  H  H1142  1  0.521800  0.763500  0.705200  1.0
  H  H1143  1  0.816600  0.558300  0.294800  1.0
  H  H1144  1  0.478200  0.236500  0.294800  1.0
  H  H1145  1  0.156300  0.405600  0.651800  1.0
  H  H1146  1  0.495500  0.746200  0.651800  1.0
  H  H1147  1  0.843700  0.594400  0.348200  1.0
  H  H1148  1  0.504500  0.253800  0.348200  1.0
  H  H1149  1  0.004200  0.421600  0.857400  1.0
  H  H1150  1  0.853200  0.935800  0.857400  1.0
  H  H1151  1  0.995800  0.578400  0.142600  1.0
  H  H1152  1  0.146800  0.064200  0.142600  1.0
  H  H1153  1  0.007900  0.375000  0.879200  1.0
  H  H1154  1  0.871300  0.004200  0.879200  1.0
  H  H1155  1  0.992100  0.625000  0.120800  1.0
  H  H1156  1  0.128700  0.995800  0.120800  1.0
  H  H1157  1  0.966200  0.350400  0.827400  1.0
  H  H1158  1  0.861200  0.977000  0.827400  1.0
  H  H1159  1  0.033800  0.649600  0.172600  1.0
  H  H1160  1  0.138800  0.023000  0.172600  1.0
  H  H1161  1  0.237900  0.506800  0.843600  1.0
  H  H1162  1  0.605700  0.836800  0.843600  1.0
  H  H1163  1  0.762100  0.493200  0.156400  1.0
  H  H1164  1  0.394300  0.163200  0.156400  1.0
  H  H1165  1  0.228600  0.441100  0.830200  1.0
  H  H1166  1  0.601600  0.889100  0.830200  1.0
  H  H1167  1  0.771400  0.558900  0.169800  1.0
  H  H1168  1  0.398400  0.110900  0.169800  1.0
  H  H1169  1  0.244600  0.478800  0.881400  1.0
  H  H1170  1  0.636800  0.902600  0.881400  1.0
  H  H1171  1  0.755400  0.521200  0.118600  1.0
  H  H1172  1  0.363200  0.097400  0.118600  1.0
  H  H1173  1  0.965800  0.146100  0.770600  1.0
  H  H1174  1  0.804800  0.124500  0.770600  1.0
  H  H1175  1  0.034200  0.853900  0.229400  1.0
  H  H1176  1  0.195200  0.875500  0.229400  1.0
  H  H1177  1  0.993600  0.107100  0.756200  1.0
  H  H1178  1  0.762600  0.149100  0.756200  1.0
  H  H1179  1  0.006400  0.892900  0.243800  1.0
  H  H1180  1  0.237400  0.850900  0.243800  1.0
  H  H1181  1  0.954200  0.117100  0.718600  1.0
  H  H1182  1  0.764400  0.101500  0.718600  1.0
  H  H1183  1  0.045800  0.882900  0.281400  1.0
  H  H1184  1  0.235600  0.898500  0.281400  1.0
  H  H1185  1  0.227700  0.313600  0.796800  1.0
  H  H1186  1  0.569100  0.983200  0.796800  1.0
  H  H1187  1  0.772300  0.686400  0.203200  1.0
  H  H1188  1  0.430900  0.016800  0.203200  1.0
  H  H1189  1  0.209200  0.323900  0.751000  1.0
  H  H1190  1  0.541800  0.927100  0.751000  1.0
  H  H1191  1  0.790800  0.676100  0.249000  1.0
  H  H1192  1  0.458200  0.072900  0.249000  1.0
  H  H1193  1  0.211300  0.265100  0.749800  1.0
  H  H1194  1  0.538500  0.984700  0.749800  1.0
  H  H1195  1  0.788700  0.734900  0.250200  1.0
  H  H1196  1  0.461500  0.015300  0.250200  1.0
  H  H1197  1  0.599900  0.124900  0.657400  1.0
  H  H1198  1  0.057500  0.032500  0.657400  1.0
  H  H1199  1  0.400100  0.875100  0.342600  1.0
  H  H1200  1  0.942500  0.967500  0.342600  1.0
  H  H1201  1  0.579200  0.108600  0.604000  1.0
  H  H1202  1  0.024800  0.995400  0.604000  1.0
  H  H1203  1  0.420800  0.891400  0.396000  1.0
  H  H1204  1  0.975200  0.004600  0.396000  1.0
  H  H1205  1  0.627600  0.178100  0.638000  1.0
  H  H1206  1  0.010400  0.959900  0.638000  1.0
  H  H1207  1  0.372400  0.821900  0.362000  1.0
  H  H1208  1  0.989600  0.040100  0.362000  1.0
  H  H1209  1  0.531300  0.843100  0.455200  1.0
  H  H1210  1  0.923900  0.112100  0.455200  1.0
  H  H1211  1  0.468700  0.156900  0.544800  1.0
  H  H1212  1  0.076100  0.887900  0.544800  1.0
  H  H1213  1  0.513500  0.833200  0.497800  1.0
  H  H1214  1  0.984300  0.164600  0.497800  1.0
  H  H1215  1  0.486500  0.166800  0.502200  1.0
  H  H1216  1  0.015700  0.835400  0.502200  1.0
  H  H1217  1  0.539800  0.797000  0.475200  1.0
  H  H1218  1  0.935400  0.178200  0.475200  1.0
  H  H1219  1  0.460200  0.203000  0.524800  1.0
  H  H1220  1  0.064600  0.821800  0.524800  1.0
  H  H1221  1  0.214300  0.242800  0.904000  1.0
  H  H1222  1  0.689700  0.161200  0.904000  1.0
  H  H1223  1  0.785700  0.757200  0.096000  1.0
  H  H1224  1  0.310300  0.838800  0.096000  1.0
  H  H1225  1  0.185400  0.210800  0.850200  1.0
  H  H1226  1  0.664800  0.139400  0.850200  1.0
  H  H1227  1  0.814600  0.789200  0.149800  1.0
  H  H1228  1  0.335200  0.860600  0.149800  1.0
  H  H1229  1  0.175500  0.170000  0.880600  1.0
  H  H1230  1  0.705100  0.210600  0.880600  1.0
  H  H1231  1  0.824500  0.830000  0.119400  1.0
  H  H1232  1  0.294900  0.789400  0.119400  1.0
  H  H1233  1  0.102600  0.167600  0.758000  1.0
  H  H1234  1  0.655400  0.090400  0.758000  1.0
  H  H1235  1  0.897400  0.832400  0.242000  1.0
  H  H1236  1  0.344600  0.909600  0.242000  1.0
  H  H1237  1  0.165300  0.378600  0.762000  1.0
  H  H1238  1  0.596700  0.883400  0.762000  1.0
  H  H1239  1  0.834700  0.621400  0.238000  1.0
  H  H1240  1  0.403300  0.116600  0.238000  1.0
  H  H1241  1  0.153300  0.490200  0.011200  1.0
  H  H1242  1  0.857900  0.021000  0.011200  1.0
  H  H1243  1  0.846700  0.509800  0.988800  1.0
  H  H1244  1  0.142100  0.979000  0.988800  1.0
  H  H1245  1  0.196200  0.474200  0.992200  1.0
  H  H1246  1  0.796000  0.018000  0.992200  1.0
  H  H1247  1  0.803800  0.525800  0.007800  1.0
  H  H1248  1  0.204000  0.982000  0.007800  1.0
  H  H1249  1  0.186400  0.463500  0.037000  1.0
  H  H1250  1  0.850600  0.073500  0.037000  1.0
  H  H1251  1  0.813600  0.536500  0.963000  1.0
  H  H1252  1  0.149400  0.926500  0.963000  1.0
  N  N1253  1  0.478800  0.557800  0.101600  1
  N  N1254  1  0.622800  0.043800  0.101600  1
  N  N1255  1  0.521200  0.442200  0.898400  1
  N  N1256  1  0.377200  0.956200  0.898400  1
  N  N1257  1  0.395800  0.191100  0.052800  1
  N  N1258  1  0.657000  0.361700  0.052800  1
  N  N1259  1  0.604200  0.808900  0.947200  1
  N  N1260  1  0.343000  0.638300  0.947200  1
  N  N1261  1  0.245320  0.993320  0.638240  1.0
  N  N1262  1  0.392920  0.144920  0.638240  1.0
  N  N1263  1  0.754680  0.006680  0.361760  1.0
  N  N1264  1  0.607080  0.855080  0.361760  1.0
  N  N1265  1  0.360420  0.132420  0.891040  1.0
  N  N1266  1  0.530620  0.258620  0.891040  1.0
  N  N1267  1  0.639580  0.867580  0.108960  1.0
  N  N1268  1  0.469380  0.741380  0.108960  1.0
  N  N1269  1  0.472020  0.165420  0.936840  1.0
  N  N1270  1  0.464820  0.271420  0.936840  1.0
  N  N1271  1  0.527980  0.834580  0.063160  1.0
  N  N1272  1  0.535180  0.728580  0.063160  1.0
  N  N1273  1  0.317370  0.129570  0.691540  1.0
  N  N1274  1  0.374170  0.061970  0.691540  1.0
  N  N1275  1  0.682630  0.870430  0.308460  1.0
  N  N1276  1  0.625830  0.938030  0.308460  1.0
  N  N1277  1  0.405080  0.216080  0.839760  1.0
  N  N1278  1  0.434680  0.123680  0.839760  1.0
  N  N1279  1  0.594920  0.783920  0.160240  1.0
  N  N1280  1  0.565320  0.876320  0.160240  1.0
  N  N1281  1  0.223260  0.150860  0.779520  1.0
  N  N1282  1  0.556260  0.128660  0.779520  1.0
  N  N1283  1  0.776740  0.849140  0.220480  1.0
  N  N1284  1  0.443740  0.871340  0.220480  1.0
  N  N1285  1  0.351710  0.317810  0.807820  1.0
  N  N1286  1  0.456110  0.990010  0.807820  1.0
  N  N1287  1  0.648290  0.682190  0.192180  1.0
  N  N1288  1  0.543890  0.009990  0.192180  1.0
  N  N1289  1  0.362010  0.366310  0.791820  1.0
  N  N1290  1  0.429810  0.925510  0.791820  1.0
  N  N1291  1  0.637990  0.633690  0.208180  1.0
  N  N1292  1  0.570190  0.074490  0.208180  1.0
  N  N1293  1  0.290200  0.251100  0.711600  1.0
  N  N1294  1  0.421400  0.960500  0.711600  1.0
  N  N1295  1  0.709800  0.748900  0.288400  1.0
  N  N1296  1  0.578600  0.039500  0.288400  1.0
  N  N1297  1  0.315610  0.310110  0.709220  1.0
  N  N1298  1  0.393610  0.899110  0.709220  1.0
  N  N1299  1  0.684390  0.689890  0.290780  1.0
  N  N1300  1  0.606390  0.100890  0.290780  1.0
  N  N1301  1  0.417610  0.298610  0.756620  1.0
  N  N1302  1  0.339010  0.958010  0.756620  1.0
  N  N1303  1  0.582390  0.701390  0.243380  1.0
  N  N1304  1  0.660990  0.041990  0.243380  1.0
  N  N1305  1  0.425060  0.352560  0.749920  1.0
  N  N1306  1  0.324860  0.897360  0.749920  1.0
  N  N1307  1  0.574940  0.647440  0.250080  1.0
  N  N1308  1  0.675140  0.102640  0.250080  1.0
  N  N1309  1  0.318290  0.003990  0.592980  1.0
  N  N1310  1  0.274690  0.088990  0.592980  1.0
  N  N1311  1  0.681710  0.996010  0.407020  1.0
  N  N1312  1  0.725310  0.911010  0.407020  1.0
  N  N1313  1  0.004870  0.697870  0.907940  1.0
  N  N1314  1  0.903070  0.710070  0.907940  1.0
  N  N1315  1  0.995130  0.302130  0.092060  1.0
  N  N1316  1  0.096930  0.289930  0.092060  1.0
  N  N1317  1  0.901420  0.590420  0.860440  1.0
  N  N1318  1  0.959020  0.770020  0.860440  1.0
  N  N1319  1  0.098580  0.409580  0.139560  1.0
  N  N1320  1  0.040980  0.229980  0.139560  1.0
  N  N1321  1  0.842280  0.643380  0.808960  1.0
  N  N1322  1  0.966680  0.665580  0.808960  1.0
  N  N1323  1  0.157720  0.356620  0.191040  1.0
  N  N1324  1  0.033320  0.334420  0.191040  1.0
  N  N1325  1  0.768800  0.569700  0.668800  1.0
  N  N1326  1  0.900000  0.599100  0.668800  1.0
  N  N1327  1  0.231200  0.430300  0.331200  1.0
  N  N1328  1  0.100000  0.400900  0.331200  1.0
  N  N1329  1  0.683430  0.456530  0.733660  1.0
  N  N1330  1  0.050230  0.777130  0.733660  1.0
  N  N1331  1  0.316570  0.543470  0.266340  1.0
  N  N1332  1  0.949770  0.222870  0.266340  1.0
  N  N1333  1  0.629080  0.550080  0.691960  1.0
  N  N1334  1  0.062880  0.641880  0.691960  1.0
  N  N1335  1  0.370920  0.449920  0.308040  1.0
  N  N1336  1  0.937120  0.358120  0.308040  1.0
  N  N1337  1  0.595420  0.574420  0.702840  1.0
  N  N1338  1  0.107420  0.628420  0.702840  1.0
  N  N1339  1  0.404580  0.425580  0.297160  1.0
  N  N1340  1  0.892580  0.371580  0.297160  1.0
  N  N1341  1  0.732030  0.670030  0.741060  1.0
  N  N1342  1  0.009030  0.571030  0.741060  1.0
  N  N1343  1  0.267970  0.329970  0.258940  1.0
  N  N1344  1  0.990970  0.428970  0.258940  1.0
  N  N1345  1  0.687210  0.682110  0.743620  1.0
  N  N1346  1  0.056410  0.561510  0.743620  1.0
  N  N1347  1  0.312790  0.317890  0.256380  1.0
  N  N1348  1  0.943590  0.438490  0.256380  1.0
  N  N1349  1  0.677820  0.592820  0.789040  1.0
  N  N1350  1  0.111220  0.696220  0.789040  1.0
  N  N1351  1  0.322180  0.407180  0.210960  1.0
  N  N1352  1  0.888780  0.303780  0.210960  1.0
  N  N1353  1  0.642740  0.616840  0.786480  1.0
  N  N1354  1  0.143740  0.669640  0.786480  1.0
  N  N1355  1  0.357260  0.383160  0.213520  1.0
  N  N1356  1  0.856260  0.330360  0.213520  1.0
  N  N1357  1  0.790290  0.469790  0.614180  1.0
  N  N1358  1  0.823890  0.644390  0.614180  1.0
  N  N1359  1  0.209710  0.530210  0.385820  1.0
  N  N1360  1  0.176110  0.355610  0.385820  1.0
  N  N1361  1  0.840590  0.536790  0.566780  1.0
  N  N1362  1  0.726190  0.529990  0.566780  1.0
  N  N1363  1  0.159410  0.463210  0.433220  1.0
  N  N1364  1  0.273810  0.470010  0.433220  1.0
  N  N1365  1  0.727920  0.987920  0.575640  1.0
  N  N1366  1  0.847720  0.087720  0.575640  1.0
  N  N1367  1  0.272080  0.012080  0.424360  1.0
  N  N1368  1  0.152280  0.912280  0.424360  1.0
  N  N1369  1  0.008190  0.274490  0.923780  1.0
  N  N1370  1  0.915590  0.149290  0.923780  1.0
  N  N1371  1  0.991810  0.725510  0.076220  1.0
  N  N1372  1  0.084410  0.850710  0.076220  1.0
  N  N1373  1  0.886700  0.149100  0.675600  1.0
  N  N1374  1  0.788900  0.026500  0.675600  1.0
  N  N1375  1  0.113300  0.850900  0.324400  1.0
  N  N1376  1  0.211100  0.973500  0.324400  1.0
  N  N1377  1  0.947240  0.225640  0.823680  1.0
  N  N1378  1  0.876440  0.098040  0.823680  1.0
  N  N1379  1  0.052760  0.774360  0.176320  1.0
  N  N1380  1  0.123560  0.901960  0.176320  1.0
  N  N1381  1  0.054040  0.358040  0.800880  1.0
  N  N1382  1  0.746840  0.942840  0.800880  1.0
  N  N1383  1  0.945960  0.641960  0.199120  1.0
  N  N1384  1  0.253160  0.057160  0.199120  1.0
  N  N1385  1  0.113140  0.383640  0.801280  1.0
  N  N1386  1  0.688140  0.917640  0.801280  1.0
  N  N1387  1  0.886860  0.616360  0.198720  1.0
  N  N1388  1  0.311860  0.082360  0.198720  1.0
  N  N1389  1  0.018480  0.311980  0.705160  1.0
  N  N1390  1  0.686680  0.893180  0.705160  1.0
  N  N1391  1  0.981520  0.688020  0.294840  1.0
  N  N1392  1  0.313320  0.106820  0.294840  1.0
  N  N1393  1  0.080650  0.344650  0.715500  1.0
  N  N1394  1  0.634850  0.870850  0.715500  1.0
  N  N1395  1  0.919350  0.655350  0.284500  1.0
  N  N1396  1  0.365150  0.129150  0.284500  1.0
  N  N1397  1  0.045410  0.246810  0.756220  1.0
  N  N1398  1  0.710810  0.009410  0.756220  1.0
  N  N1399  1  0.954590  0.753190  0.243780  1.0
  N  N1400  1  0.289190  0.990590  0.243780  1.0
  N  N1401  1  0.104850  0.287850  0.760500  1.0
  N  N1402  1  0.655650  0.972650  0.760500  1.0
  N  N1403  1  0.895150  0.712150  0.239500  1.0
  N  N1404  1  0.344350  0.027350  0.239500  1.0
  N  N1405  1  0.755070  0.097570  0.625140  1.0
  N  N1406  1  0.870070  0.027570  0.625140  1.0
  N  N1407  1  0.244930  0.902430  0.374860  1.0
  N  N1408  1  0.129930  0.972430  0.374860  1.0
  N  N1409  1  0.017450  0.186450  0.878900  1.0
  N  N1410  1  0.861450  0.192450  0.878900  1.0
  N  N1411  1  0.982550  0.813550  0.121100  1.0
  N  N1412  1  0.138550  0.807550  0.121100  1.0
  N  N1413  1  0.888140  0.305740  0.739680  1.0
  N  N1414  1  0.851540  0.933940  0.739680  1.0
  N  N1415  1  0.111860  0.694260  0.260320  1.0
  N  N1416  1  0.148460  0.066060  0.260320  1.0
  O  O1417  1  0.634670  0.344230  0.744960  1
  O  O1418  1  0.110290  0.900730  0.744960  1
  O  O1419  1  0.365330  0.655770  0.255040  1
  O  O1420  1  0.889710  0.099270  0.255040  1
  O  O1421  1  0.814030  0.352430  0.736060  1
  O  O1422  1  0.922030  0.883630  0.736060  1
  O  O1423  1  0.185970  0.647570  0.263940  1
  O  O1424  1  0.077970  0.116370  0.263940  1
  O  O1425  1  0.668750  0.190290  0.770460  1
  O  O1426  1  0.101710  0.080170  0.770460  1
  O  O1427  1  0.331250  0.809710  0.229540  1
  O  O1428  1  0.898290  0.919830  0.229540  1
  O  O1429  1  0.958950  0.527450  0.374500  1
  O  O1430  1  0.415550  0.347050  0.374500  1
  O  O1431  1  0.041050  0.472550  0.625500  1
  O  O1432  1  0.584450  0.652950  0.625500  1
  O  O1433  1  0.446100  0.093400  0.380200  1
  O  O1434  1  0.934100  0.786800  0.380200  1
  O  O1435  1  0.553900  0.906600  0.619800  1
  O  O1436  1  0.065900  0.213200  0.619800  1
  O  O1437  1  0.350700  0.691400  0.521000  1
  O  O1438  1  0.170300  0.329600  0.521000  1
  O  O1439  1  0.649300  0.308600  0.479000  1
  O  O1440  1  0.829700  0.670400  0.479000  1
  O  O1441  1  0.112800  0.586400  0.894800  1
  O  O1442  1  0.782000  0.808400  0.894800  1
  O  O1443  1  0.887200  0.413600  0.105200  1
  O  O1444  1  0.218000  0.191600  0.105200  1
  O  O1445  1  0.318600  0.643300  0.564000  1
  O  O1446  1  0.245400  0.420700  0.564000  1
  O  O1447  1  0.681400  0.356700  0.436000  1
  O  O1448  1  0.754600  0.579300  0.436000  1
  P  P1449  1  0.500000  1.000000  0.500000  1
  P  P1450  1  0.000000  0.000000  0.500000  1
  P  P1451  1  0.316660  0.426260  0.000120  1
  P  P1452  1  0.683460  0.073860  0.000120  1
  P  P1453  1  0.683340  0.573740  0.999880  1
  P  P1454  1  0.316540  0.926140  0.999880  1
  P  P1455  1  0.000000  0.000000  0.000000  1
  P  P1456  1  0.000000  0.500000  0.000000  1
  P  P1457  1  0.877520  0.302220  0.490240  1
  P  P1458  1  0.612720  0.688020  0.490240  1
  P  P1459  1  0.122480  0.697780  0.509760  1
  P  P1460  1  0.387280  0.311980  0.509760  1
