
#######################################################################
#
#                 Cambridge Crystallographic Data Centre
#                                CCDC 
#
#######################################################################
#
# If this CIF has been generated from an entry in the Cambridge 
# Structural Database, then it will include bibliographic, chemical, 
# crystal, experimental, refinement or atomic coordinate data resulting 
# from the CCDC's data processing and validation procedures.
#
#######################################################################

data_XAVNAM01
_chemical_formula_moiety         
'C84 H92 B2 Co2 Fe2 N26 2+,2(C24 H20 B1 1-),C6 H6 O2,2(H2 O1)'
_chemical_name_systematic        
"tetrakis(\m-cyano)-dicyano-tetrakis(4,4'-dimethyl-2,2'-bipyridine)-bis(hydrogen tris(3,5-dimethylpyrazolyl)borate)-di-cobalt-di-iron bis(tetraphenylborate) hydroquinone dihydrate"
_symmetry_cell_setting           triclinic
_symmetry_space_group_name_H-M   'P -1'
_symmetry_Int_Tables_number      2
_space_group_name_Hall           '-P 1'
loop_
_symmetry_equiv_pos_site_id
_symmetry_equiv_pos_as_xyz
1 x,y,z
2 -x,-y,-z
_cell_length_a                   12.914(4)
_cell_length_b                   14.826(5)
_cell_length_c                   19.507(7)
_cell_angle_alpha                69.642(6)
_cell_angle_beta                 80.363(5)
_cell_angle_gamma                75.909(6)
_cell_volume                     3382.14
_exptl_crystal_colour            red
_exptl_crystal_description       plate
_cell_formula_units_Z            1
loop_
_atom_site_label
_atom_site_type_symbol
_atom_site_fract_x
_atom_site_fract_y
_atom_site_fract_z
C1 C 0.0964(6) 0.6607(7) -0.0254(4)
C2 C -0.0242(7) 0.6605(7) -0.1197(4)
N1 N -0.1548(6) 0.8192(7) -0.0233(4)
C3 C -0.0890(9) 0.8782(7) -0.2415(5)
C4 C -0.0723(10) 0.9428(8) -0.3125(5)
H1 H -0.1219 0.9729 -0.3473
C5 C 0.0325(11) 0.9525(8) -0.3202(5)
C6 C 0.1239(8) 0.8915(7) -0.0496(5)
C7 C 0.1795(9) 0.9662(8) -0.0769(5)
H2 H 0.1928 1.0042 -0.0515
C8 C 0.2113(9) 0.9740(8) -0.1483(6)
C9 C 0.2378(6) 0.6157(6) -0.1701(4)
C10 C 0.3280(7) 0.6272(7) -0.2194(4)
H3 H 0.3800 0.5773 -0.2303
C11 C 0.3265(7) 0.7258(8) -0.2490(5)
C12 C 0.2525(8) 0.3282(8) 0.2654(4)
H4 H 0.3115 0.3180 0.2323
C13 C 0.2534(9) 0.2639(8) 0.3344(5)
H5 H 0.2992 0.2027 0.3442
C14 C 0.0891(8) 0.4232(7) 0.2876(4)
C15 C 0.0063(7) 0.5090(7) 0.2598(4)
C16 C -0.0796(9) 0.5425(8) 0.3025(5)
H6 H -0.0855 0.5110 0.3530
C17 C -0.1572(8) 0.6223(8) 0.2715(5)
C18 C -0.1429(8) 0.6706(7) 0.1971(4)
H7 H -0.1928 0.7253 0.1739
C19 C -0.0519(7) 0.6350(7) 0.1580(4)
H8 H -0.0415 0.6687 0.1082
C20 C 0.2542(7) 0.6407(7) 0.1642(4)
H9 H 0.1832 0.6688 0.1744
C21 C 0.3340(8) 0.6797(7) 0.1746(4)
H10 H 0.3164 0.7326 0.1924
C22 C 0.4392(8) 0.6415(7) 0.1590(5)
C23 C 0.4600(7) 0.5651(7) 0.1309(4)
H11 H 0.5303 0.5382 0.1179
C24 C 0.3759(7) 0.5280(7) 0.1220(4)
C25 C 0.3952(7) 0.4415(7) 0.0952(4)
C26 C 0.4942(7) 0.3891(7) 0.0794(4)
H12 H 0.5552 0.4075 0.0852
C27 C 0.5057(7) 0.3098(7) 0.0554(4)
C28 C 0.4124(8) 0.2898(7) 0.0448(4)
H13 H 0.4152 0.2384 0.0272
C29 C 0.3153(7) 0.3449(7) 0.0600(4)
H14 H 0.2537 0.3295 0.0520
C30 C -0.1938(8) 0.8513(8) -0.2058(5)
H15 H -0.1841 0.7813 -0.1839
H16 H -0.2443 0.8734 -0.2421
H17 H -0.2205 0.8819 -0.1686
C31 C 0.0924(13) 1.0165(10) -0.3832(5)
H18 H 0.1539 0.9765 -0.4009
H19 H 0.1153 1.0623 -0.3673
H20 H 0.0465 1.0517 -0.4220
C32 C 0.2075(7) 0.5211(6) -0.1234(4)
H21 H 0.2249 0.5061 -0.0742
H22 H 0.2462 0.4697 -0.1426
H23 H 0.1319 0.5263 -0.1232
C33 C 0.4027(9) 0.7818(9) -0.3057(6)
H24 H 0.3691 0.8158 -0.3506
H25 H 0.4667 0.7369 -0.3146
H26 H 0.4207 0.8285 -0.2881
C34 C 0.0773(9) 0.8528(8) 0.0263(4)
H27 H 0.0039 0.8500 0.0260
H28 H 0.0807 0.8951 0.0532
H29 H 0.1170 0.7880 0.0491
C35 C 0.2707(12) 1.0450(10) -0.2050(6)
H30 H 0.3244 1.0108 -0.2326
H31 H 0.3044 1.0760 -0.1814
H32 H 0.2216 1.0940 -0.2375
C36 C -0.2525(9) 0.6598(9) 0.3172(6)
H33 H -0.2595 0.6107 0.3643
H34 H -0.3161 0.6743 0.2929
H35 H -0.2425 0.7184 0.3236
C37 C 0.5283(9) 0.6782(9) 0.1734(6)
H36 H 0.4992 0.7321 0.1920
H37 H 0.5726 0.6998 0.1286
H38 H 0.5706 0.6263 0.2089
C38 C 0.6153(8) 0.2501(8) 0.0424(6)
H39 H 0.6432 0.2769 -0.0076
H40 H 0.6099 0.1833 0.0518
H41 H 0.6626 0.2521 0.0747
N2 N 0.1223(5) 0.6008(6) 0.0285(3)
N3 N -0.0698(5) 0.6044(6) -0.1211(3)
C39 C -0.0787(7) 0.7972(7) -0.0584(4)
N4 N 0.0016(6) 0.8500(5) -0.2091(3)
N5 N 0.0774(7) 0.8967(6) -0.2580(3)
N6 N 0.1845(5) 0.7044(5) -0.1687(3)
N7 N 0.2384(6) 0.7730(6) -0.2185(3)
N8 N 0.1216(6) 0.8529(6) -0.1031(3)
N9 N 0.1758(6) 0.9072(6) -0.1648(4)
N10 N 0.1742(6) 0.4047(6) 0.2409(3)
N11 N 0.0212(6) 0.5563(6) 0.1869(3)
N12 N 0.2751(5) 0.5630(5) 0.1396(3)
N13 N 0.3042(5) 0.4193(5) 0.0856(3)
Co1 Co 0.15734(9) 0.49249(9) 0.12864(5)
Fe1 Fe 0.05019(9) 0.75531(9) -0.11468(5)
B1 B 0.1872(10) 0.8816(9) -0.2342(5)
H42 H 0.2310 0.9223 -0.2729
C40 C 0.1033(19) 0.370(2) 0.3646(13)
H43 H 0.0536 0.3910 0.3990
C41 C 0.184(2) 0.291(2) 0.3910(11)
C42 C 0.190(2) 0.236(2) 0.4708(10)
H44 H 0.2629 0.2057 0.4802
H45 H 0.1472 0.1865 0.4854
H46 H 0.1627 0.2809 0.4982
C1A C -0.0964(6) 0.3393(7) 0.0254(4)
C2A C 0.0242(7) 0.3395(7) 0.1197(4)
N1A N 0.1548(6) 0.1808(7) 0.0233(4)
C3A C 0.0890(9) 0.1218(7) 0.2415(5)
C4A C 0.0723(10) 0.0572(8) 0.3125(5)
H1A H 0.1219 0.0271 0.3473
C5A C -0.0325(11) 0.0475(8) 0.3202(5)
C6A C -0.1239(8) 0.1085(7) 0.0496(5)
C7A C -0.1795(9) 0.0338(8) 0.0769(5)
H2A H -0.1928 -0.0042 0.0515
C8A C -0.2113(9) 0.0260(8) 0.1483(6)
C9A C -0.2378(6) 0.3843(6) 0.1701(4)
C10A C -0.3280(7) 0.3728(7) 0.2194(4)
H3A H -0.3800 0.4227 0.2303
C11A C -0.3265(7) 0.2742(8) 0.2490(5)
C12A C -0.2525(8) 0.6718(8) -0.2654(4)
H4A H -0.3115 0.6820 -0.2323
C13A C -0.2534(9) 0.7361(8) -0.3344(5)
H5A H -0.2992 0.7973 -0.3442
C14A C -0.0891(8) 0.5768(7) -0.2876(4)
C15A C -0.0063(7) 0.4910(7) -0.2598(4)
C16A C 0.0796(9) 0.4575(8) -0.3025(5)
H6A H 0.0855 0.4890 -0.3530
C17A C 0.1572(8) 0.3777(8) -0.2715(5)
C18A C 0.1429(8) 0.3294(7) -0.1971(4)
H7A H 0.1928 0.2747 -0.1739
C19A C 0.0519(7) 0.3650(7) -0.1580(4)
H8A H 0.0415 0.3313 -0.1082
C20A C -0.2542(7) 0.3593(7) -0.1642(4)
H9A H -0.1832 0.3312 -0.1744
C21A C -0.3340(8) 0.3203(7) -0.1746(4)
H10A H -0.3164 0.2674 -0.1924
C22A C -0.4392(8) 0.3585(7) -0.1590(5)
C23A C -0.4600(7) 0.4349(7) -0.1309(4)
H11A H -0.5303 0.4618 -0.1179
C24A C -0.3759(7) 0.4720(7) -0.1220(4)
C25A C -0.3952(7) 0.5585(7) -0.0952(4)
C26A C -0.4942(7) 0.6109(7) -0.0794(4)
H12A H -0.5552 0.5925 -0.0852
C27A C -0.5057(7) 0.6902(7) -0.0554(4)
C28A C -0.4124(8) 0.7102(7) -0.0448(4)
H13A H -0.4152 0.7616 -0.0272
C29A C -0.3153(7) 0.6551(7) -0.0600(4)
H14A H -0.2537 0.6705 -0.0520
C30A C 0.1938(8) 0.1487(8) 0.2058(5)
H15A H 0.1841 0.2187 0.1839
H16A H 0.2443 0.1266 0.2421
H17A H 0.2205 0.1181 0.1686
C31A C -0.0924(13) -0.0165(10) 0.3832(5)
H18A H -0.1539 0.0235 0.4009
H19A H -0.1153 -0.0623 0.3673
H20A H -0.0465 -0.0517 0.4220
C32A C -0.2075(7) 0.4789(6) 0.1234(4)
H21A H -0.2249 0.4939 0.0742
H22A H -0.2462 0.5303 0.1426
H23A H -0.1319 0.4737 0.1232
C33A C -0.4027(9) 0.2182(9) 0.3057(6)
H24A H -0.3691 0.1842 0.3506
H25A H -0.4667 0.2631 0.3146
H26A H -0.4207 0.1715 0.2881
C34A C -0.0773(9) 0.1472(8) -0.0263(4)
H27A H -0.0039 0.1500 -0.0260
H28A H -0.0807 0.1049 -0.0532
H29A H -0.1170 0.2120 -0.0491
C35A C -0.2707(12) -0.0450(10) 0.2050(6)
H30A H -0.3244 -0.0108 0.2326
H31A H -0.3044 -0.0760 0.1814
H32A H -0.2216 -0.0940 0.2375
C36A C 0.2525(9) 0.3402(9) -0.3172(6)
H33A H 0.2595 0.3893 -0.3643
H34A H 0.3161 0.3257 -0.2929
H35A H 0.2425 0.2816 -0.3236
C37A C -0.5283(9) 0.3218(9) -0.1734(6)
H36A H -0.4992 0.2679 -0.1920
H37A H -0.5726 0.3002 -0.1286
H38A H -0.5706 0.3737 -0.2089
C38A C -0.6153(8) 0.7499(8) -0.0424(6)
H39A H -0.6432 0.7231 0.0076
H40A H -0.6099 0.8167 -0.0518
H41A H -0.6626 0.7479 -0.0747
N2A N -0.1223(5) 0.3992(6) -0.0285(3)
N3A N 0.0698(5) 0.3956(6) 0.1211(3)
C39A C 0.0787(7) 0.2028(7) 0.0584(4)
N4A N -0.0016(6) 0.1500(5) 0.2091(3)
N5A N -0.0774(7) 0.1033(6) 0.2580(3)
N6A N -0.1845(5) 0.2956(5) 0.1687(3)
N7A N -0.2384(6) 0.2270(6) 0.2185(3)
N8A N -0.1216(6) 0.1471(6) 0.1031(3)
N9A N -0.1758(6) 0.0928(6) 0.1648(4)
N10A N -0.1742(6) 0.5953(6) -0.2409(3)
N11A N -0.0212(6) 0.4437(6) -0.1869(3)
N12A N -0.2751(5) 0.4370(5) -0.1396(3)
N13A N -0.3042(5) 0.5807(5) -0.0856(3)
Co1A Co -0.15734(9) 0.50751(9) -0.12864(5)
Fe1A Fe -0.05019(9) 0.24469(9) 0.11468(5)
B1A B -0.1872(10) 0.1184(9) 0.2342(5)
H42A H -0.2310 0.0777 0.2729
C40A C -0.1033(19) 0.630(2) -0.3646(13)
H43A H -0.0536 0.6090 -0.3990
C41A C -0.184(2) 0.709(2) -0.3910(11)
C42A C -0.190(2) 0.764(2) -0.4708(10)
H44A H -0.2629 0.7943 -0.4802
H45A H -0.1472 0.8135 -0.4854
H46A H -0.1627 0.7191 -0.4982
C46 C 0.5863(7) 0.9315(8) 1.0324(5)
C47 C 0.5951(7) 0.9761(8) 0.9600(5)
H52 H 0.6584 0.9609 0.9318
C48 C 0.5102(8) 1.0445(8) 0.9273(5)
H53 H 0.5171 1.0759 0.8768
O1 O 0.6683(5) 0.8613(5) 1.0683(3)
H54 H 0.7164 0.8479 1.0380
C46A C 0.4137(7) 1.0685(8) 0.9676(5)
C47A C 0.4049(7) 1.0239(8) 1.0400(5)
H52A H 0.3416 1.0391 1.0682
C48A C 0.4898(8) 0.9555(8) 1.0727(5)
H53A H 0.4829 0.9241 1.1232
O1A O 0.3317(5) 1.1387(5) 0.9317(3)
H54A H 0.2836 1.1521 0.9620
C73 C 0.6621(12) 0.1531(10) 0.6302(7)
C74 C 0.5929(12) 0.1333(12) 0.6939(7)
H75 H 0.5828 0.1714 0.7245
C75 C 0.5390(12) 0.0565(13) 0.7120(8)
H76 H 0.4927 0.0432 0.7547
C76 C 0.5542(13) -0.0005(11) 0.6663(9)
H77 H 0.5181 -0.0519 0.6784
C77 C 0.6233(14) 0.0193(11) 0.6025(9)
H78 H 0.6335 -0.0188 0.5720
C78 C 0.6773(13) 0.0961(12) 0.5845(7)
H79 H 0.7235 0.1094 0.5418
C79 C 0.8358(11) 0.2012(12) 0.6731(7)
C80 C 0.8249(11) 0.1304(12) 0.7413(8)
H80 H 0.7663 0.0999 0.7540
C81 C 0.9016(14) 0.1051(13) 0.7906(7)
H81 H 0.8943 0.0577 0.8362
C82 C 0.9892(11) 0.1507(15) 0.7716(9)
H82 H 1.0405 0.1338 0.8046
C83 C 1.0001(11) 0.2216(13) 0.7034(9)
H83 H 1.0587 0.2521 0.6907
C84 C 0.9234(14) 0.2468(11) 0.6541(7)
H84 H 0.9308 0.2943 0.6085
C85 C 0.6574(13) 0.3485(11) 0.6224(7)
C86 C 0.5541(13) 0.3732(15) 0.6010(10)
H85 H 0.5286 0.3298 0.5863
C87 C 0.4888(11) 0.4627(19) 0.6014(14)
H86 H 0.4197 0.4793 0.5870
C88 C 0.5269(18) 0.5275(14) 0.6232(14)
H87 H 0.4833 0.5874 0.6235
C89 C 0.6302(19) 0.5028(12) 0.6447(10)
H88 H 0.6557 0.5462 0.6593
C90 C 0.6955(11) 0.4133(13) 0.6443(7)
H89 H 0.7646 0.3967 0.6587
C91 C 0.875(2) 0.2873(19) 0.3820(11)
H90 H 0.8980 0.2952 0.3329
C92 C 0.931(2) 0.2130(19) 0.4367(12)
H91 H 1.02(2) 0.214(18) 0.409(11)
C93 C 0.8899(13) 0.2009(11) 0.5128(7)
H92 H 0.9259 0.1517 0.5505
C94 C 0.7968(8) 0.2630(10) 0.5292(4)
C95 C 0.7437(13) 0.3374(12) 0.4730(8)
H93 H 0.6815 0.3789 0.4840
C96 C 0.784(2) 0.3497(16) 0.4003(6)
H94 H 0.7488 0.4009 0.3631
B3 B 0.736(2) 0.2404(19) 0.6152(11)
C73A C 1.3379(12) 0.8469(10) 0.3698(7)
C74A C 1.4071(12) 0.8667(12) 0.3061(7)
H75A H 1.4172 0.8286 0.2755
C75A C 1.4610(12) 0.9435(13) 0.2880(8)
H76A H 1.5073 0.9568 0.2453
C76A C 1.4458(13) 1.0005(11) 0.3337(9)
H77A H 1.4819 1.0519 0.3216
C77A C 1.3767(14) 0.9807(11) 0.3975(9)
H78A H 1.3665 1.0188 0.4280
C78A C 1.3227(13) 0.9039(12) 0.4155(7)
H79A H 1.2765 0.8906 0.4582
C79A C 1.1642(11) 0.7988(12) 0.3269(7)
C80A C 1.1751(11) 0.8696(12) 0.2587(8)
H80A H 1.2337 0.9001 0.2460
C81A C 1.0984(14) 0.8949(13) 0.2094(7)
H81A H 1.1057 0.9423 0.1638
C82A C 1.0108(11) 0.8493(15) 0.2284(9)
H82A H 0.9595 0.8662 0.1954
C83A C 0.9999(11) 0.7784(13) 0.2966(9)
H83A H 0.9413 0.7479 0.3093
C84A C 1.0766(14) 0.7532(11) 0.3459(7)
H84A H 1.0692 0.7057 0.3915
C85A C 1.3426(13) 0.6515(11) 0.3776(7)
C86A C 1.4459(13) 0.6268(15) 0.3990(10)
H85A H 1.4714 0.6702 0.4137
C87A C 1.5112(11) 0.5373(19) 0.3986(14)
H86A H 1.5803 0.5207 0.4130
C88A C 1.4731(18) 0.4725(14) 0.3768(14)
H87A H 1.5167 0.4126 0.3765
C89A C 1.3698(19) 0.4972(12) 0.3553(10)
H88A H 1.3443 0.4538 0.3407
C90A C 1.3045(11) 0.5867(13) 0.3557(7)
H89A H 1.2354 0.6033 0.3413
C91A C 1.125(2) 0.7127(19) 0.6180(11)
H90A H 1.1020 0.7048 0.6671
C92A C 1.069(2) 0.7870(19) 0.5633(12)
H91A H 0.98(2) 0.786(18) 0.591(11)
C93A C 1.1101(13) 0.7991(11) 0.4872(7)
H92A H 1.0741 0.8483 0.4495
C94A C 1.2032(8) 0.7370(10) 0.4708(4)
C95A C 1.2563(13) 0.6626(12) 0.5270(8)
H93A H 1.3185 0.6211 0.5160
C96A C 1.216(2) 0.6503(16) 0.5997(6)
H94A H 1.2512 0.5991 0.6369
B3A B 1.264(2) 0.7596(19) 0.3848(11)
O2 O 0.440(2) 0.194(3) 0.5246(14)
loop_
_geom_bond_atom_site_label_1
_geom_bond_atom_site_label_2
_geom_bond_site_symmetry_1
_geom_bond_site_symmetry_2
C1 N2 1_555 1_555
C2 N3 1_555 1_555
N1 C39 1_555 1_555
C3 C4 1_555 1_555
C4 H1 1_555 1_555
C5 C4 1_555 1_555
C6 C7 1_555 1_555
C7 H2 1_555 1_555
C8 C7 1_555 1_555
C9 C10 1_555 1_555
C10 H3 1_555 1_555
C11 C10 1_555 1_555
C12 H4 1_555 1_555
C13 C12 1_555 1_555
H5 C13 1_555 1_555
C14 C15 1_555 1_555
C15 C16 1_555 1_555
C16 H6 1_555 1_555
C17 C16 1_555 1_555
C18 C17 1_555 1_555
H7 C18 1_555 1_555
C19 C18 1_555 1_555
H8 C19 1_555 1_555
C20 H9 1_555 1_555
C21 C20 1_555 1_555
H10 C21 1_555 1_555
C22 C21 1_555 1_555
C23 C22 1_555 1_555
H11 C23 1_555 1_555
C24 C23 1_555 1_555
C25 C24 1_555 1_555
C26 C25 1_555 1_555
H12 C26 1_555 1_555
C27 C26 1_555 1_555
C28 C27 1_555 1_555
H13 C28 1_555 1_555
C29 C28 1_555 1_555
H14 C29 1_555 1_555
C30 C3 1_555 1_555
H15 C30 1_555 1_555
H16 C30 1_555 1_555
H17 C30 1_555 1_555
C31 C5 1_555 1_555
H18 C31 1_555 1_555
H19 C31 1_555 1_555
H20 C31 1_555 1_555
C32 C9 1_555 1_555
H21 C32 1_555 1_555
H22 C32 1_555 1_555
H23 C32 1_555 1_555
C33 C11 1_555 1_555
H24 C33 1_555 1_555
H25 C33 1_555 1_555
H26 C33 1_555 1_555
C34 C6 1_555 1_555
H27 C34 1_555 1_555
H28 C34 1_555 1_555
H29 C34 1_555 1_555
C35 C8 1_555 1_555
H30 C35 1_555 1_555
H31 C35 1_555 1_555
H32 C35 1_555 1_555
C36 C17 1_555 1_555
H33 C36 1_555 1_555
H34 C36 1_555 1_555
H35 C36 1_555 1_555
C37 C22 1_555 1_555
H36 C37 1_555 1_555
H37 C37 1_555 1_555
H38 C37 1_555 1_555
C38 C27 1_555 1_555
H39 C38 1_555 1_555
H40 C38 1_555 1_555
H41 C38 1_555 1_555
N2 Co1 1_555 1_555
N3 Co1A 1_555 1_555
C39 Fe1 1_555 1_555
N4 C3 1_555 1_555
N5 C5 1_555 1_555
N6 C9 1_555 1_555
N7 C11 1_555 1_555
N8 C6 1_555 1_555
N9 C8 1_555 1_555
N10 C12 1_555 1_555
N11 C15 1_555 1_555
N12 C20 1_555 1_555
N13 C25 1_555 1_555
Co1 N10 1_555 1_555
Fe1 C1 1_555 1_555
B1 N5 1_555 1_555
H42 B1 1_555 1_555
C40 C14 1_555 1_555
H43 C40 1_555 1_555
C41 C13 1_555 1_555
C42 C41 1_555 1_555
H44 C42 1_555 1_555
H45 C42 1_555 1_555
H46 C42 1_555 1_555
C46 C47 1_555 1_555
C47 H52 1_555 1_555
C48 C47 1_555 1_555
H53 C48 1_555 1_555
O1 C46 1_555 1_555
H54 O1 1_555 1_555
C73 C74 1_555 1_555
C74 H75 1_555 1_555
C75 C74 1_555 1_555
H76 C75 1_555 1_555
C76 C75 1_555 1_555
H77 C76 1_555 1_555
C77 C76 1_555 1_555
H78 C77 1_555 1_555
C78 C73 1_555 1_555
H79 C78 1_555 1_555
C79 C80 1_555 1_555
C80 H80 1_555 1_555
C81 C80 1_555 1_555
H81 C81 1_555 1_555
C82 C81 1_555 1_555
H82 C82 1_555 1_555
C83 C82 1_555 1_555
H83 C83 1_555 1_555
C84 C79 1_555 1_555
H84 C84 1_555 1_555
C85 C86 1_555 1_555
C86 H85 1_555 1_555
C87 C86 1_555 1_555
H86 C87 1_555 1_555
C88 C87 1_555 1_555
H87 C88 1_555 1_555
C89 C88 1_555 1_555
H88 C89 1_555 1_555
C90 C85 1_555 1_555
H89 C90 1_555 1_555
C91 H90 1_555 1_555
C92 C91 1_555 1_555
H91 C92 1_555 1_555
C93 C92 1_555 1_555
H92 C93 1_555 1_555
C94 C93 1_555 1_555
C95 C94 1_555 1_555
H93 C95 1_555 1_555
C96 C91 1_555 1_555
H94 C96 1_555 1_555
B3 C73 1_555 1_555
C1A N2A 1_555 1_555
C2A N3A 1_555 1_555
N1A C39A 1_555 1_555
C3A C4A 1_555 1_555
C4A H1A 1_555 1_555
C5A C4A 1_555 1_555
C6A C7A 1_555 1_555
C7A H2A 1_555 1_555
C8A C7A 1_555 1_555
C9A C10A 1_555 1_555
C10A H3A 1_555 1_555
C11A C10A 1_555 1_555
C12A H4A 1_555 1_555
C13A C12A 1_555 1_555
H5A C13A 1_555 1_555
C14A C15A 1_555 1_555
C15A C16A 1_555 1_555
C16A H6A 1_555 1_555
C17A C16A 1_555 1_555
C18A C17A 1_555 1_555
H7A C18A 1_555 1_555
C19A C18A 1_555 1_555
H8A C19A 1_555 1_555
C20A H9A 1_555 1_555
C21A C20A 1_555 1_555
H10A C21A 1_555 1_555
C22A C21A 1_555 1_555
C23A C22A 1_555 1_555
H11A C23A 1_555 1_555
C24A C23A 1_555 1_555
C25A C24A 1_555 1_555
C26A C25A 1_555 1_555
H12A C26A 1_555 1_555
C27A C26A 1_555 1_555
C28A C27A 1_555 1_555
H13A C28A 1_555 1_555
C29A C28A 1_555 1_555
H14A C29A 1_555 1_555
C30A C3A 1_555 1_555
H15A C30A 1_555 1_555
H16A C30A 1_555 1_555
H17A C30A 1_555 1_555
C31A C5A 1_555 1_555
H18A C31A 1_555 1_555
H19A C31A 1_555 1_555
H20A C31A 1_555 1_555
C32A C9A 1_555 1_555
H21A C32A 1_555 1_555
H22A C32A 1_555 1_555
H23A C32A 1_555 1_555
C33A C11A 1_555 1_555
H24A C33A 1_555 1_555
H25A C33A 1_555 1_555
H26A C33A 1_555 1_555
C34A C6A 1_555 1_555
H27A C34A 1_555 1_555
H28A C34A 1_555 1_555
H29A C34A 1_555 1_555
C35A C8A 1_555 1_555
H30A C35A 1_555 1_555
H31A C35A 1_555 1_555
H32A C35A 1_555 1_555
C36A C17A 1_555 1_555
H33A C36A 1_555 1_555
H34A C36A 1_555 1_555
H35A C36A 1_555 1_555
C37A C22A 1_555 1_555
H36A C37A 1_555 1_555
H37A C37A 1_555 1_555
H38A C37A 1_555 1_555
C38A C27A 1_555 1_555
H39A C38A 1_555 1_555
H40A C38A 1_555 1_555
H41A C38A 1_555 1_555
N2A Co1A 1_555 1_555
N3A Co1 1_555 1_555
C39A Fe1A 1_555 1_555
N4A C3A 1_555 1_555
N5A C5A 1_555 1_555
N6A C9A 1_555 1_555
N7A C11A 1_555 1_555
N8A C6A 1_555 1_555
N9A C8A 1_555 1_555
N10A C12A 1_555 1_555
N11A C15A 1_555 1_555
N12A C20A 1_555 1_555
N13A C25A 1_555 1_555
Co1A N10A 1_555 1_555
Fe1A C1A 1_555 1_555
B1A N5A 1_555 1_555
H42A B1A 1_555 1_555
C40A C14A 1_555 1_555
H43A C40A 1_555 1_555
C41A C13A 1_555 1_555
C42A C41A 1_555 1_555
H44A C42A 1_555 1_555
H45A C42A 1_555 1_555
H46A C42A 1_555 1_555
C46A C48 1_555 1_555
C47A C46A 1_555 1_555
H52A C47A 1_555 1_555
C48A C46 1_555 1_555
H53A C48A 1_555 1_555
O1A C46A 1_555 1_555
H54A O1A 1_555 1_555
C73A C74A 1_555 1_555
C74A H75A 1_555 1_555
C75A C74A 1_555 1_555
H76A C75A 1_555 1_555
C76A C75A 1_555 1_555
H77A C76A 1_555 1_555
C77A C76A 1_555 1_555
H78A C77A 1_555 1_555
C78A C73A 1_555 1_555
H79A C78A 1_555 1_555
C79A C80A 1_555 1_555
C80A H80A 1_555 1_555
C81A C80A 1_555 1_555
H81A C81A 1_555 1_555
C82A C81A 1_555 1_555
H82A C82A 1_555 1_555
C83A C82A 1_555 1_555
H83A C83A 1_555 1_555
C84A C79A 1_555 1_555
H84A C84A 1_555 1_555
C85A C86A 1_555 1_555
C86A H85A 1_555 1_555
C87A C86A 1_555 1_555
H86A C87A 1_555 1_555
C88A C87A 1_555 1_555
H87A C88A 1_555 1_555
C89A C88A 1_555 1_555
H88A C89A 1_555 1_555
C90A C85A 1_555 1_555
H89A C90A 1_555 1_555
C91A H90A 1_555 1_555
C92A C91A 1_555 1_555
H91A C92A 1_555 1_555
C93A C92A 1_555 1_555
H92A C93A 1_555 1_555
C94A C93A 1_555 1_555
C95A C94A 1_555 1_555
H93A C95A 1_555 1_555
C96A C91A 1_555 1_555
H94A C96A 1_555 1_555
B3A C73A 1_555 1_555
C2 Fe1 1_555 1_555
C14 N10 1_555 1_555
C19 N11 1_555 1_555
C24 N12 1_555 1_555
C29 N13 1_555 1_555
N4 N5 1_555 1_555
N4 Fe1 1_555 1_555
N6 N7 1_555 1_555
N6 Fe1 1_555 1_555
N7 B1 1_555 1_555
N8 N9 1_555 1_555
N8 Fe1 1_555 1_555
N9 B1 1_555 1_555
N11 Co1 1_555 1_555
N12 Co1 1_555 1_555
N13 Co1 1_555 1_555
C40 C41 1_555 1_555
C77 C78 1_555 1_555
C79 B3 1_555 1_555
C83 C84 1_555 1_555
C85 B3 1_555 1_555
C89 C90 1_555 1_555
C94 B3 1_555 1_555
C95 C96 1_555 1_555
C2A Fe1A 1_555 1_555
C14A N10A 1_555 1_555
C19A N11A 1_555 1_555
C24A N12A 1_555 1_555
C29A N13A 1_555 1_555
N4A N5A 1_555 1_555
N4A Fe1A 1_555 1_555
N6A N7A 1_555 1_555
N6A Fe1A 1_555 1_555
N7A B1A 1_555 1_555
N8A N9A 1_555 1_555
N8A Fe1A 1_555 1_555
N9A B1A 1_555 1_555
N11A Co1A 1_555 1_555
N12A Co1A 1_555 1_555
N13A Co1A 1_555 1_555
C40A C41A 1_555 1_555
C47A C48A 1_555 1_555
C77A C78A 1_555 1_555
C79A B3A 1_555 1_555
C83A C84A 1_555 1_555
C85A B3A 1_555 1_555
C89A C90A 1_555 1_555
C94A B3A 1_555 1_555
C95A C96A 1_555 1_555

#END
