
#######################################################################
#
#                 Cambridge Crystallographic Data Centre
#                                CCDC 
#
#######################################################################
#
# If this CIF has been generated from an entry in the Cambridge 
# Structural Database, then it will include bibliographic, chemical, 
# crystal, experimental, refinement or atomic coordinate data resulting 
# from the CCDC's data processing and validation procedures.
#
#######################################################################

data_XAVNIU
_chemical_formula_moiety         
'C84 H92 B2 Co2 Fe2 N26 2+,0.67(C6 H6 O3),2(F6 P1 1-),1.33(C2 H3 N1),2.67(H2 O1)'
_chemical_name_systematic        
"tetrakis(\m-cyano)-dicyano-tetrakis(4,4'-dimethyl-2,2'-bipyridine)-bis(hydrogen tris(3,5-dimethylpyrazolyl)borate)-di-cobalt-di-iron bis(hexafluorophosphate) benzene-1,3,5-triol acetonitrile unknown solvate hydrate"
_symmetry_cell_setting           monoclinic
_symmetry_space_group_name_H-M   'C 2/c'
_symmetry_Int_Tables_number      15
_space_group_name_Hall           '-C 2yn'
loop_
_symmetry_equiv_pos_site_id
_symmetry_equiv_pos_as_xyz
1 x,y,z
2 -x,y,1/2-z
3 1/2+x,1/2+y,z
4 1/2-x,1/2+y,1/2-z
5 -x,-y,-z
6 x,-y,1/2+z
7 1/2-x,1/2-y,-z
8 1/2+x,1/2-y,1/2+z
_cell_length_a                   26.832(8)
_cell_length_b                   58.15(2)
_cell_length_c                   26.310(8)
_cell_angle_alpha                90
_cell_angle_beta                 120.66
_cell_angle_gamma                90
_cell_volume                     35312.4
_exptl_crystal_colour            red
_exptl_crystal_description       platy
_cell_formula_units_Z            12
loop_
_atom_site_label
_atom_site_type_symbol
_atom_site_fract_x
_atom_site_fract_y
_atom_site_fract_z
Fe1 Fe 0.95668(4) 0.38189(2) 0.09696(4)
Co1 Co 1.0000 0.32121(2) 0.2500
Co2 Co 1.0000 0.44360(2) 0.2500
C1 C 0.9753(3) 0.40572(11) 0.1546(3)
C2 C 0.9677(3) 0.35966(11) 0.1562(3)
C3 C 0.8800(3) 0.38629(11) 0.0797(3)
C4 C 0.8995(4) 0.33694(15) 0.0251(4)
C5 C 0.9055(6) 0.32413(18) -0.0154(5)
H1 H 0.8866 0.3103 -0.0319
C6 C 0.9439(7) 0.3349(3) -0.0278(6)
C7 C 0.9227(3) 0.42411(14) 0.0133(3)
C8 C 0.9230(4) 0.42849(19) -0.0391(4)
H2 H 0.9076 0.4414 -0.0630
C9 C 0.9487(4) 0.4113(2) -0.0483(4)
C10 C 1.0903(3) 0.37880(11) 0.1689(4)
C11 C 1.1337(4) 0.37597(13) 0.1548(5)
H3 H 1.1735 0.3757 0.1814
C12 C 1.1061(5) 0.37351(15) 0.0926(5)
C13 C 1.0714(6) 0.28495(18) 0.3405(5)
H4 H 1.0976 0.2867 0.3275
C14 C 1.0834(7) 0.2712(2) 0.3845(8)
H5 H 1.1172 0.2625 0.4010
C15 C 1.0473(10) 0.2693(3) 0.4066(7)
C16 C 1.0016(9) 0.2819(2) 0.3865(6)
H6 H 0.9797 0.2824 0.4047
C17 C 0.9862(6) 0.29550(14) 0.3337(4)
C18 C 0.9330(5) 0.30747(13) 0.3020(5)
C19 C 0.8906(7) 0.30745(16) 0.3155(7)
H7 H 0.8955 0.3004 0.3495
C20 C 0.8383(6) 0.31874(17) 0.2752(7)
C21 C 0.8303(5) 0.32986(13) 0.2253(6)
H8 H 0.7959 0.3374 0.1994
C22 C 0.8774(5) 0.32906(13) 0.2165(5)
H9 H 0.8733 0.3361 0.1829
C23 C 0.9543(4) 0.47171(13) 0.3079(4)
C24 C 0.9513(5) 0.48685(18) 0.3435(6)
H10 H 0.9164 0.4894 0.3420
C25 C 1.0014(7) 0.4993(2) 0.3840(6)
C26 C 1.0478(5) 0.49678(19) 0.3793(6)
H11 H 1.0804 0.5058 0.4019
C27 C 1.0477(4) 0.48083(16) 0.3410(5)
H12 H 1.0816 0.4789 0.3399
C28 C 0.9055(4) 0.45792(12) 0.2651(4)
C29 C 0.8526(5) 0.45701(15) 0.2631(5)
H13 H 0.8476 0.4647 0.2912
C30 C 0.8080(4) 0.44458(16) 0.2192(5)
C31 C 0.8173(4) 0.43211(13) 0.1794(4)
H14 H 0.7880 0.4234 0.1493
C32 C 0.8730(4) 0.43330(12) 0.1869(4)
H15 H 0.8804 0.4250 0.1612
C33 C 0.8604(4) 0.33303(15) 0.0487(4)
H16 H 0.8419 0.3472 0.0483
H17 H 0.8825 0.3274 0.0886
H18 H 0.8314 0.3219 0.0247
C34 C 0.9638(7) 0.3278(2) -0.0679(5)
H19 H 0.9994 0.3194 -0.0463
H20 H 0.9700 0.3412 -0.0854
H21 H 0.9349 0.3182 -0.0985
C35 C 0.9013(4) 0.43870(13) 0.0435(4)
H22 H 0.8723 0.4306 0.0473
H23 H 0.8849 0.4525 0.0209
H24 H 0.9329 0.4426 0.0820
C36 C 0.9609(6) 0.4071(3) -0.0986(5)
H25 H 0.9556 0.3911 -0.1091
H26 H 1.0001 0.4115 -0.0858
H27 H 0.9347 0.4162 -0.1323
C37 C 1.0980(4) 0.38307(12) 0.2263(3)
H28 H 1.0872 0.3987 0.2283
H29 H 1.1378 0.3807 0.2560
H30 H 1.0740 0.3727 0.2330
C38 C 1.1350(5) 0.36891(19) 0.0581(6)
H31 H 1.1214 0.3545 0.0376
H32 H 1.1761 0.3682 0.0844
H33 H 1.1260 0.3811 0.0300
C39 C 1.0749(12) 0.2570(3) 0.4710(9)
H34 H 1.0852 0.2685 0.5008
H35 H 1.1089 0.2485 0.4791
H36 H 1.0470 0.2467 0.4711
C40 C 0.7874(7) 0.3194(2) 0.2878(9)
H37 H 0.7536 0.3259 0.2544
H38 H 0.7983 0.3287 0.3221
H39 H 0.7790 0.3041 0.2948
C41 C 0.9975(7) 0.5181(3) 0.4261(8)
H40 H 0.9906 0.5106 0.4545
H41 H 0.9664 0.5285 0.4028
H42 H 1.0333 0.5265 0.4464
C42 C 0.7491(5) 0.4424(2) 0.2145(5)
H43 H 0.7225 0.4532 0.1858
H44 H 0.7531 0.4457 0.2523
H45 H 0.7345 0.4271 0.2026
N1 N 0.9262(3) 0.31912(11) 0.2520(3)
N2 N 0.9149(3) 0.44552(10) 0.2280(3)
N3 N 1.0036(3) 0.46842(10) 0.3066(3)
N4 N 0.9716(2) 0.34577(9) 0.1878(2)
N5 N 0.9852(2) 0.41988(9) 0.1890(3)
N6 N 0.8335(3) 0.38976(10) 0.0724(3)
N7 N 0.9478(2) 0.40391(10) 0.0339(2)
N8 N 0.9661(3) 0.39591(13) -0.0043(3)
N9 N 0.9344(3) 0.35580(10) 0.0391(2)
N10 N 0.9610(3) 0.35461(14) 0.0055(3)
N11 N 1.0393(2) 0.37831(8) 0.1190(3)
N12 N 1.0501(3) 0.37496(10) 0.0725(3)
N13 N 1.0218(4) 0.29649(11) 0.3143(3)
B1 B 1.0006(5) 0.3738(2) 0.0108(5)
H46 H 1.0147 0.3713 -0.0166
Fe1A Fe 1.04332(4) 0.38189(2) 0.40304(4)
C1A C 1.0247(3) 0.40572(11) 0.3454(3)
C2A C 1.0323(3) 0.35966(11) 0.3438(3)
C3A C 1.1200(3) 0.38629(11) 0.4203(3)
C4A C 1.1005(4) 0.33694(15) 0.4749(4)
C5A C 1.0945(6) 0.32413(18) 0.5154(5)
H1A H 1.1134 0.3103 0.5319
C6A C 1.0561(7) 0.3349(3) 0.5278(6)
C7A C 1.0773(3) 0.42411(14) 0.4867(3)
C8A C 1.0770(4) 0.42849(19) 0.5391(4)
H2A H 1.0924 0.4414 0.5630
C9A C 1.0513(4) 0.4113(2) 0.5483(4)
C10A C 0.9097(3) 0.37880(11) 0.3311(4)
C11A C 0.8663(4) 0.37597(13) 0.3452(5)
H3A H 0.8265 0.3757 0.3186
C12A C 0.8939(5) 0.37351(15) 0.4074(5)
C13A C 0.9286(6) 0.28495(18) 0.1595(5)
H4A H 0.9024 0.2867 0.1725
C14A C 0.9166(7) 0.2712(2) 0.1155(8)
H5A H 0.8828 0.2625 0.0990
C15A C 0.9527(10) 0.2693(3) 0.0934(7)
C16A C 0.9984(9) 0.2819(2) 0.1135(6)
H6A H 1.0203 0.2824 0.0953
C17A C 1.0138(6) 0.29550(14) 0.1663(4)
C18A C 1.0670(5) 0.30747(13) 0.1980(5)
C19A C 1.1094(7) 0.30745(16) 0.1845(7)
H7A H 1.1045 0.3004 0.1505
C20A C 1.1617(6) 0.31874(17) 0.2248(7)
C21A C 1.1697(5) 0.32986(13) 0.2747(6)
H8A H 1.2041 0.3374 0.3006
C22A C 1.1226(5) 0.32906(13) 0.2835(5)
H9A H 1.1267 0.3361 0.3171
C23A C 1.0457(4) 0.47171(13) 0.1921(4)
C24A C 1.0487(5) 0.48685(18) 0.1565(6)
H10A H 1.0836 0.4894 0.1580
C25A C 0.9986(7) 0.4993(2) 0.1160(6)
C26A C 0.9522(5) 0.49678(19) 0.1207(6)
H11A H 0.9196 0.5058 0.0981
C27A C 0.9523(4) 0.48083(16) 0.1590(5)
H12A H 0.9184 0.4789 0.1601
C28A C 1.0945(4) 0.45792(12) 0.2349(4)
C29A C 1.1474(5) 0.45701(15) 0.2369(5)
H13A H 1.1524 0.4647 0.2088
C30A C 1.1920(4) 0.44458(16) 0.2808(5)
C31A C 1.1827(4) 0.43211(13) 0.3206(4)
H14A H 1.2120 0.4234 0.3507
C32A C 1.1270(4) 0.43330(12) 0.3131(4)
H15A H 1.1196 0.4250 0.3388
C33A C 1.1396(4) 0.33303(15) 0.4513(4)
H16A H 1.1581 0.3472 0.4517
H17A H 1.1175 0.3274 0.4114
H18A H 1.1686 0.3219 0.4753
C34A C 1.0362(7) 0.3278(2) 0.5679(5)
H19A H 1.0006 0.3194 0.5463
H20A H 1.0300 0.3412 0.5854
H21A H 1.0651 0.3182 0.5985
C35A C 1.0987(4) 0.43870(13) 0.4565(4)
H22A H 1.1277 0.4306 0.4527
H23A H 1.1151 0.4525 0.4791
H24A H 1.0671 0.4426 0.4180
C36A C 1.0391(6) 0.4071(3) 0.5986(5)
H25A H 1.0444 0.3911 0.6091
H26A H 0.9999 0.4115 0.5858
H27A H 1.0653 0.4162 0.6323
C37A C 0.9020(4) 0.38307(12) 0.2737(3)
H28A H 0.9128 0.3987 0.2717
H29A H 0.8622 0.3807 0.2440
H30A H 0.9260 0.3727 0.2670
C38A C 0.8650(5) 0.36891(19) 0.4419(6)
H31A H 0.8786 0.3545 0.4624
H32A H 0.8239 0.3682 0.4156
H33A H 0.8740 0.3811 0.4700
C39A C 0.9251(12) 0.2570(3) 0.0290(9)
H34A H 0.9148 0.2685 -0.0008
H35A H 0.8911 0.2485 0.0209
H36A H 0.9530 0.2467 0.0289
C40A C 1.2126(7) 0.3194(2) 0.2122(9)
H37A H 1.2464 0.3259 0.2456
H38A H 1.2017 0.3287 0.1779
H39A H 1.2210 0.3041 0.2052
C41A C 1.0025(7) 0.5181(3) 0.0739(8)
H40A H 1.0094 0.5106 0.0455
H41A H 1.0336 0.5285 0.0972
H42A H 0.9667 0.5265 0.0536
C42A C 1.2509(5) 0.4424(2) 0.2855(5)
H43A H 1.2775 0.4532 0.3142
H44A H 1.2469 0.4457 0.2477
H45A H 1.2655 0.4271 0.2974
N1A N 1.0738(3) 0.31912(11) 0.2480(3)
N2A N 1.0851(3) 0.44552(10) 0.2720(3)
N3A N 0.9964(3) 0.46842(10) 0.1934(3)
N4A N 1.0284(2) 0.34577(9) 0.3122(2)
N5A N 1.0148(2) 0.41988(9) 0.3110(3)
N6A N 1.1665(3) 0.38976(10) 0.4276(3)
N7A N 1.0522(2) 0.40391(10) 0.4661(2)
N8A N 1.0339(3) 0.39591(13) 0.5043(3)
N9A N 1.0656(3) 0.35580(10) 0.4609(2)
N10A N 1.0390(3) 0.35461(14) 0.4945(3)
N11A N 0.9607(2) 0.37831(8) 0.3810(3)
N12A N 0.9499(3) 0.37496(10) 0.4275(3)
N13A N 0.9782(4) 0.29649(11) 0.1857(3)
B1A B 0.9994(5) 0.3738(2) 0.4892(5)
H46A H 0.9853 0.3713 0.5166
Fe2 Fe 0.34291(4) 0.36950(2) 0.12586(4)
Co3 Co 0.5000 0.30971(2) 0.2500
Co4 Co 0.5000 0.42837(2) 0.2500
C43 C 0.4005(4) 0.39145(12) 0.1705(3)
C44 C 0.3988(4) 0.34760(12) 0.1687(3)
C45 C 0.3251(3) 0.36777(11) 0.1895(3)
C46 C 0.2658(4) 0.32659(17) 0.0916(5)
C47 C 0.2127(5) 0.3197(2) 0.0398(6)
H47 H 0.1905 0.3069 0.0363
C48 C 0.2015(5) 0.3348(2) -0.0013(6)
C49 C 0.4103(5) 0.37071(13) 0.0590(4)
C50 C 0.3944(6) 0.37223(17) -0.0001(5)
H48 H 0.4198 0.3730 -0.0143
C51 C 0.3383(7) 0.37232(17) -0.0321(5)
C52 C 0.2169(5) 0.4118(3) 0.0070(5)
C53 C 0.2287(6) 0.42512(19) 0.0550(7)
H49 H 0.2116 0.4391 0.0544
C54 C 0.2697(4) 0.41395(17) 0.1033(4)
N14 N 0.5509(3) 0.45397(9) 0.3070(3)
C55 C 0.5927(3) 0.46616(13) 0.3020(3)
H50 H 0.5965 0.4641 0.2691
C56 C 0.6289(3) 0.48144(14) 0.3462(4)
H51 H 0.6569 0.4896 0.3429
C57 C 0.6232(4) 0.48452(16) 0.3954(4)
C58 C 0.5813(5) 0.47233(16) 0.4004(3)
H52 H 0.5775 0.4744 0.4333
C59 C 0.5452(3) 0.45705(11) 0.3562(4)
C60 C 0.5922(5) 0.27031(14) 0.2923(5)
H53 H 0.5901 0.2719 0.2561
C61 C 0.6288(6) 0.25548(17) 0.3305(6)
H54 H 0.6539 0.2477 0.3219
C62 C 0.6313(7) 0.2510(2) 0.3828(7)
C63 C 0.5958(5) 0.26381(17) 0.3951(5)
H55 H 0.5960 0.2613 0.4301
C64 C 0.5614(5) 0.27954(13) 0.3576(4)
C65 C 0.5184(5) 0.29337(12) 0.3651(4)
C66 C 0.5157(5) 0.29176(14) 0.4168(4)
H56 H 0.5403 0.2819 0.4472
C67 C 0.4760(5) 0.30502(16) 0.4217(4)
C68 C 0.4412(5) 0.31845(13) 0.3780(4)
H57 H 0.4152 0.3277 0.3820
C69 C 0.4423(4) 0.31914(12) 0.3241(4)
H58 H 0.4151 0.3278 0.2921
N15 N 0.4712(2) 0.43022(8) 0.3110(2)
C70 C 0.5059(2) 0.44335(8) 0.3610(3)
C71 C 0.4948(3) 0.44388(10) 0.4072(2)
H59 H 0.5180 0.4527 0.4406
C72 C 0.4490(4) 0.43128(12) 0.4033(3)
C73 C 0.4143(3) 0.41814(10) 0.3533(4)
H60 H 0.3836 0.4097 0.3507
C74 C 0.4254(2) 0.41761(8) 0.3071(2)
H61 H 0.4021 0.4088 0.2737
C75 C 0.2977(4) 0.31407(14) 0.1472(4)
H62 H 0.3359 0.3106 0.1550
H63 H 0.2778 0.3000 0.1446
H64 H 0.3003 0.3233 0.1787
C76 C 0.1479(6) 0.3364(3) -0.0632(6)
H65 H 0.1280 0.3219 -0.0736
H66 H 0.1596 0.3402 -0.0912
H67 H 0.1226 0.3482 -0.0637
C77 C 0.4677(4) 0.36988(13) 0.1093(4)
H68 H 0.4707 0.3572 0.1341
H69 H 0.4758 0.3840 0.1310
H70 H 0.4950 0.3679 0.0964
C78 C 0.2976(6) 0.3746(2) -0.0981(5)
H71 H 0.2637 0.3830 -0.1055
H72 H 0.2865 0.3596 -0.1155
H73 H 0.3167 0.3828 -0.1151
C79 C 0.2951(4) 0.42149(15) 0.1649(5)
H74 H 0.3361 0.4188 0.1858
H75 H 0.2779 0.4130 0.1834
H76 H 0.2880 0.4376 0.1659
C80 C 0.1752(8) 0.4167(3) -0.0562(7)
H77 H 0.1957 0.4225 -0.0745
H78 H 0.1476 0.4279 -0.0592
H79 H 0.1553 0.4028 -0.0757
C81 C 0.6718(9) 0.2334(3) 0.4233(8)
H80 H 0.6988 0.2294 0.4112
H81 H 0.6504 0.2200 0.4223
H82 H 0.6924 0.2394 0.4628
C82 C 0.4751(7) 0.3047(2) 0.4805(5)
H83 H 0.4721 0.3201 0.4915
H84 H 0.5102 0.2978 0.5111
H85 H 0.4425 0.2958 0.4750
C83 C 0.4375(7) 0.43070(18) 0.4555(6)
H86 H 0.3982 0.4261 0.4413
H87 H 0.4439 0.4457 0.4729
H88 H 0.4635 0.4199 0.4848
N16 N 0.4378(3) 0.40448(10) 0.1989(3)
N17 N 0.4344(3) 0.33440(10) 0.1991(3)
N18 N 0.3166(3) 0.36683(12) 0.2269(3)
N19 N 0.2831(3) 0.34598(11) 0.0790(3)
N20 N 0.2440(4) 0.35142(13) 0.0210(4)
N21 N 0.3615(3) 0.37053(10) 0.0620(3)
N22 N 0.3154(4) 0.37181(12) 0.0051(3)
N23 N 0.2833(3) 0.39452(11) 0.0850(3)
N24 N 0.2495(4) 0.39324(14) 0.0259(4)
N25 N 0.4832(3) 0.30709(9) 0.3205(3)
N26 N 0.5572(3) 0.28339(9) 0.3038(3)
B2 B 0.2548(5) 0.3732(2) -0.0052(5)
H89 H 0.2265 0.3742 -0.0476
C84 C 0.6622(9) 0.5018(3) 0.4447(8)
H90 H 0.6644 0.5159 0.4271
H91 H 0.7004 0.4954 0.4682
H92 H 0.6460 0.5047 0.4693
Fe2A Fe 0.65709(4) 0.36950(2) 0.37414(4)
C43A C 0.5995(4) 0.39145(12) 0.3295(3)
C44A C 0.6012(4) 0.34760(12) 0.3313(3)
C45A C 0.6749(3) 0.36777(11) 0.3105(3)
C46A C 0.7342(4) 0.32659(17) 0.4084(5)
C47A C 0.7873(5) 0.3197(2) 0.4602(6)
H47A H 0.8095 0.3069 0.4637
C48A C 0.7985(5) 0.3348(2) 0.5013(6)
C49A C 0.5897(5) 0.37071(13) 0.4410(4)
C50A C 0.6056(6) 0.37223(17) 0.5001(5)
H48A H 0.5802 0.3730 0.5143
C51A C 0.6617(7) 0.37232(17) 0.5321(5)
C52A C 0.7831(5) 0.4118(3) 0.4930(5)
C53A C 0.7713(6) 0.42512(19) 0.4450(7)
H49A H 0.7884 0.4391 0.4456
C54A C 0.7303(4) 0.41395(17) 0.3967(4)
N14A N 0.4491(3) 0.45397(9) 0.1930(3)
C55A C 0.4073(3) 0.46616(13) 0.1980(3)
H50A H 0.4035 0.4641 0.2309
C56A C 0.3711(3) 0.48144(14) 0.1538(4)
H51A H 0.3431 0.4896 0.1571
C57A C 0.3768(4) 0.48452(16) 0.1046(4)
C58A C 0.4187(5) 0.47233(16) 0.0996(3)
H52A H 0.4225 0.4744 0.0667
C59A C 0.4548(3) 0.45705(11) 0.1438(4)
C60A C 0.4078(5) 0.27031(14) 0.2077(5)
H53A H 0.4099 0.2719 0.2439
C61A C 0.3712(6) 0.25548(17) 0.1695(6)
H54A H 0.3461 0.2477 0.1781
C62A C 0.3687(7) 0.2510(2) 0.1172(7)
C63A C 0.4042(5) 0.26381(17) 0.1049(5)
H55A H 0.4040 0.2613 0.0699
C64A C 0.4386(5) 0.27954(13) 0.1424(4)
C65A C 0.4816(5) 0.29337(12) 0.1349(4)
C66A C 0.4843(5) 0.29176(14) 0.0832(4)
H56A H 0.4597 0.2819 0.0528
C67A C 0.5240(5) 0.30502(16) 0.0783(4)
C68A C 0.5588(5) 0.31845(13) 0.1220(4)
H57A H 0.5848 0.3277 0.1180
C69A C 0.5577(4) 0.31914(12) 0.1759(4)
H58A H 0.5849 0.3278 0.2079
N15A N 0.5288(2) 0.43022(8) 0.1890(2)
C70A C 0.4941(2) 0.44335(8) 0.1390(3)
C71A C 0.5052(3) 0.44388(10) 0.0928(2)
H59A H 0.4820 0.4527 0.0594
C72A C 0.5510(4) 0.43128(12) 0.0967(3)
C73A C 0.5857(3) 0.41814(10) 0.1467(4)
H60A H 0.6164 0.4097 0.1493
C74A C 0.5746(2) 0.41761(8) 0.1929(2)
H61A H 0.5979 0.4088 0.2263
C75A C 0.7023(4) 0.31407(14) 0.3528(4)
H62A H 0.6641 0.3106 0.3450
H63A H 0.7222 0.3000 0.3554
H64A H 0.6997 0.3233 0.3213
C76A C 0.8521(6) 0.3364(3) 0.5632(6)
H65A H 0.8720 0.3219 0.5736
H66A H 0.8404 0.3402 0.5912
H67A H 0.8774 0.3482 0.5637
C77A C 0.5323(4) 0.36988(13) 0.3907(4)
H68A H 0.5293 0.3572 0.3659
H69A H 0.5242 0.3840 0.3690
H70A H 0.5050 0.3679 0.4036
C78A C 0.7024(6) 0.3746(2) 0.5981(5)
H71A H 0.7363 0.3830 0.6055
H72A H 0.7135 0.3596 0.6155
H73A H 0.6833 0.3828 0.6151
C79A C 0.7049(4) 0.42149(15) 0.3351(5)
H74A H 0.6639 0.4188 0.3142
H75A H 0.7221 0.4130 0.3166
H76A H 0.7120 0.4376 0.3341
C80A C 0.8248(8) 0.4167(3) 0.5562(7)
H77A H 0.8043 0.4225 0.5745
H78A H 0.8524 0.4279 0.5592
H79A H 0.8447 0.4028 0.5757
C81A C 0.3282(9) 0.2334(3) 0.0767(8)
H80A H 0.3012 0.2294 0.0888
H81A H 0.3496 0.2200 0.0777
H82A H 0.3076 0.2394 0.0372
C82A C 0.5249(7) 0.3047(2) 0.0195(5)
H83A H 0.5279 0.3201 0.0085
H84A H 0.4898 0.2978 -0.0111
H85A H 0.5575 0.2958 0.0250
C83A C 0.5625(7) 0.43070(18) 0.0445(6)
H86A H 0.6018 0.4261 0.0587
H87A H 0.5561 0.4457 0.0271
H88A H 0.5365 0.4199 0.0152
N16A N 0.5622(3) 0.40448(10) 0.3011(3)
N17A N 0.5656(3) 0.33440(10) 0.3009(3)
N18A N 0.6834(3) 0.36683(12) 0.2731(3)
N19A N 0.7169(3) 0.34598(11) 0.4210(3)
N20A N 0.7560(4) 0.35142(13) 0.4790(4)
N21A N 0.6385(3) 0.37053(10) 0.4380(3)
N22A N 0.6846(4) 0.37181(12) 0.4949(3)
N23A N 0.7167(3) 0.39452(11) 0.4150(3)
N24A N 0.7505(4) 0.39324(14) 0.4741(4)
N25A N 0.5168(3) 0.30709(9) 0.1795(3)
N26A N 0.4428(3) 0.28339(9) 0.1962(3)
B2A B 0.7452(5) 0.3732(2) 0.5052(5)
H89A H 0.7735 0.3742 0.5476
C84A C 0.3378(9) 0.5018(3) 0.0553(8)
H90A H 0.3356 0.5159 0.0729
H91A H 0.2996 0.4954 0.0318
H92A H 0.3540 0.5047 0.0307
Fe3 Fe 0.61306(4) 0.37560(2) 0.71274(4)
Co5 Co 0.5000 0.31363(2) 0.7500
Co6 Co 0.5000 0.43727(2) 0.7500
C85 C 0.5632(3) 0.39797(12) 0.7183(3)
C86 C 0.5728(3) 0.35196(12) 0.7284(3)
C87 C 0.5545(3) 0.37293(12) 0.6301(3)
C88 C 0.6605(5) 0.33211(18) 0.6813(4)
C89 C 0.7161(7) 0.3244(2) 0.6976(6)
H93 H 0.7258 0.3103 0.6883
C90 C 0.7519(6) 0.3411(2) 0.7286(6)
C91 C 0.6352(5) 0.41958(18) 0.6615(4)
C92 C 0.6822(7) 0.4321(2) 0.6742(7)
H94 H 0.6818 0.4465 0.6586
C93 C 0.7309(6) 0.4203(2) 0.7139(6)
C94 C 0.4485(5) 0.32482(13) 0.6183(4)
H95 H 0.4831 0.3325 0.6298
C95 C 0.4029(5) 0.32618(15) 0.5599(5)
H96 H 0.4085 0.3342 0.5327
C96 C 0.3519(6) 0.31643(17) 0.5420(5)
C97 C 0.3488(6) 0.30332(19) 0.5871(7)
H97 H 0.3141 0.2963 0.5782
C98 C 0.3938(5) 0.30115(16) 0.6401(6)
N27 N 0.4401(3) 0.28782(8) 0.7400(4)
C99 C 0.3915(4) 0.28608(11) 0.6838(3)
C100 C 0.3471(3) 0.27100(15) 0.6735(4)
H98 H 0.3145 0.2698 0.6359
C101 C 0.3513(4) 0.25765(13) 0.7194(5)
C102 C 0.3999(4) 0.25938(10) 0.7756(4)
H99 H 0.4028 0.2505 0.8063
C103 C 0.4443(4) 0.27447(11) 0.7859(3)
H100 H 0.4769 0.2756 0.8235
N28 N 0.5463(3) 0.46189(10) 0.7337(4)
C104 C 0.6052(4) 0.46225(12) 0.7754(3)
C105 C 0.6425(3) 0.47579(16) 0.7661(4)
H101 H 0.6819 0.4760 0.7940
C106 C 0.6210(5) 0.48895(15) 0.7151(5)
C107 C 0.5621(5) 0.48859(13) 0.6733(4)
H102 H 0.5477 0.4974 0.6392
C108 C 0.5248(3) 0.47505(13) 0.6826(3)
H103 H 0.4854 0.4748 0.6547
C109 C 0.6204(5) 0.45026(15) 0.8281(6)
C110 C 0.6751(6) 0.4501(2) 0.8743(8)
H104 H 0.7040 0.4580 0.8721
C111 C 0.6875(5) 0.4390(2) 0.9216(9)
C112 C 0.6456(6) 0.42862(16) 0.9310(6)
H105 H 0.6539 0.4223 0.9670
C113 C 0.5909(4) 0.42883(15) 0.8814(5)
H106 H 0.5613 0.4212 0.8831
C114 C 0.6066(5) 0.32074(16) 0.6466(5)
H107 H 0.5870 0.3198 0.6686
H108 H 0.6132 0.3055 0.6371
H109 H 0.5831 0.3292 0.6109
C115 C 0.8186(5) 0.3406(2) 0.7580(6)
H110 H 0.8360 0.3428 0.7998
H111 H 0.8308 0.3526 0.7417
H112 H 0.8304 0.3259 0.7507
C116 C 0.5784(4) 0.42590(16) 0.6199(4)
H113 H 0.5755 0.4287 0.5826
H114 H 0.5683 0.4396 0.6329
H115 H 0.5525 0.4137 0.6158
C117 C 0.7975(6) 0.4249(3) 0.7534(8)
H116 H 0.8161 0.4218 0.7311
H117 H 0.8135 0.4151 0.7875
H118 H 0.8039 0.4407 0.7658
C118 C 0.6088(4) 0.37479(12) 0.8478(3)
H119 H 0.5805 0.3853 0.8197
H120 H 0.6155 0.3781 0.8865
H121 H 0.5949 0.3593 0.8371
C119 C 0.8194(5) 0.3824(2) 0.9085(5)
H122 H 0.8293 0.3984 0.9141
H123 H 0.8337 0.3755 0.8853
H124 H 0.8364 0.3749 0.9462
C120 C 0.2969(6) 0.3165(2) 0.4781(6)
H125 H 0.2712 0.3287 0.4750
H126 H 0.2772 0.3020 0.4706
H127 H 0.3086 0.3190 0.4495
C121 C 0.3007(7) 0.2414(3) 0.7064(10)
H128 H 0.3037 0.2276 0.6882
H129 H 0.2646 0.2489 0.6803
H130 H 0.3022 0.2376 0.7428
C122 C 0.7402(13) 0.4391(4) 0.9720(12)
H131 H 0.7623 0.4520 0.9715
H132 H 0.7603 0.4251 0.9746
H133 H 0.7352 0.4403 1.0055
C123 C 0.6627(4) 0.37731(11) 0.8477(3)
C124 C 0.7154(5) 0.37876(16) 0.8961(4)
H134 H 0.7236 0.3790 0.9350
C125 C 0.7559(5) 0.37990(16) 0.8776(4)
N29 N 0.5489(3) 0.33780(9) 0.7376(3)
N30 N 0.5354(3) 0.41184(9) 0.7216(2)
N31 N 0.6536(3) 0.40044(11) 0.6960(3)
N32 N 0.7125(3) 0.40064(14) 0.7295(3)
N33 N 0.6659(3) 0.35258(13) 0.7065(3)
N34 N 0.7229(3) 0.35775(14) 0.7360(3)
N35 N 0.6673(3) 0.37811(9) 0.7986(2)
N36 N 0.7246(3) 0.38025(11) 0.8170(3)
N37 N 0.4425(3) 0.31257(10) 0.6575(3)
N38 N 0.5780(3) 0.43945(11) 0.8310(4)
B3 B 0.7421(4) 0.3796(2) 0.7682(5)
H135 H 0.7843 0.3810 0.7867
N39 N 0.5183(3) 0.36984(12) 0.5824(3)
C126 C 0.6632(9) 0.5037(3) 0.7048(9)
H136 H 0.6477 0.5056 0.6631
H137 H 0.7001 0.4961 0.7220
H138 H 0.6679 0.5185 0.7229
Fe3A Fe 0.38694(4) 0.37560(2) 0.78726(4)
C85A C 0.4368(3) 0.39797(12) 0.7817(3)
C86A C 0.4272(3) 0.35196(12) 0.7716(3)
C87A C 0.4455(3) 0.37293(12) 0.8699(3)
C88A C 0.3395(5) 0.33211(18) 0.8187(4)
C89A C 0.2839(7) 0.3244(2) 0.8024(6)
H93A H 0.2742 0.3103 0.8117
C90A C 0.2481(6) 0.3411(2) 0.7714(6)
C91A C 0.3648(5) 0.41958(18) 0.8385(4)
C92A C 0.3178(7) 0.4321(2) 0.8258(7)
H94A H 0.3182 0.4465 0.8414
C93A C 0.2691(6) 0.4203(2) 0.7861(6)
C94A C 0.5515(5) 0.32482(13) 0.8817(4)
H95A H 0.5169 0.3325 0.8702
C95A C 0.5971(5) 0.32618(15) 0.9401(5)
H96A H 0.5915 0.3342 0.9673
C96A C 0.6481(6) 0.31643(17) 0.9580(5)
C97A C 0.6512(6) 0.30332(19) 0.9129(7)
H97A H 0.6859 0.2963 0.9218
C98A C 0.6062(5) 0.30115(16) 0.8599(6)
N27A N 0.5599(3) 0.28782(8) 0.7600(4)
C99A C 0.6085(4) 0.28608(11) 0.8162(3)
C100A C 0.6529(3) 0.27100(15) 0.8265(4)
H98A H 0.6855 0.2698 0.8641
C101A C 0.6487(4) 0.25765(13) 0.7806(5)
C102A C 0.6001(4) 0.25938(10) 0.7244(4)
H99A H 0.5972 0.2505 0.6937
C103A C 0.5557(4) 0.27447(11) 0.7141(3)
H100A H 0.5231 0.2756 0.6765
N28A N 0.4537(3) 0.46189(10) 0.7663(4)
C104A C 0.3948(4) 0.46225(12) 0.7246(3)
C105A C 0.3575(3) 0.47579(16) 0.7339(4)
H101A H 0.3181 0.4760 0.7060
C106A C 0.3790(5) 0.48895(15) 0.7849(5)
C107A C 0.4379(5) 0.48859(13) 0.8267(4)
H102A H 0.4523 0.4974 0.8608
C108A C 0.4752(3) 0.47505(13) 0.8174(3)
H103A H 0.5146 0.4748 0.8453
C109A C 0.3796(5) 0.45026(15) 0.6719(6)
C110A C 0.3249(6) 0.4501(2) 0.6257(8)
H104A H 0.2960 0.4580 0.6279
C111A C 0.3125(5) 0.4390(2) 0.5784(9)
C112A C 0.3544(6) 0.42862(16) 0.5690(6)
H105A H 0.3461 0.4223 0.5330
C113A C 0.4091(4) 0.42883(15) 0.6186(5)
H106A H 0.4387 0.4212 0.6169
C114A C 0.3934(5) 0.32074(16) 0.8534(5)
H107A H 0.4130 0.3198 0.8314
H108A H 0.3868 0.3055 0.8629
H109A H 0.4169 0.3292 0.8891
C115A C 0.1814(5) 0.3406(2) 0.7420(6)
H110A H 0.1640 0.3428 0.7002
H111A H 0.1692 0.3526 0.7583
H112A H 0.1696 0.3259 0.7493
C116A C 0.4216(4) 0.42590(16) 0.8801(4)
H113A H 0.4245 0.4287 0.9174
H114A H 0.4317 0.4396 0.8671
H115A H 0.4475 0.4137 0.8842
C117A C 0.2025(6) 0.4249(3) 0.7466(8)
H116A H 0.1839 0.4218 0.7689
H117A H 0.1865 0.4151 0.7125
H118A H 0.1961 0.4407 0.7342
C118A C 0.3912(4) 0.37479(12) 0.6522(3)
H119A H 0.4195 0.3853 0.6803
H120A H 0.3845 0.3781 0.6135
H121A H 0.4051 0.3593 0.6629
C119A C 0.1806(5) 0.3824(2) 0.5915(5)
H122A H 0.1707 0.3984 0.5859
H123A H 0.1663 0.3755 0.6147
H124A H 0.1636 0.3749 0.5538
C120A C 0.7031(6) 0.3165(2) 1.0219(6)
H125A H 0.7288 0.3287 1.0250
H126A H 0.7228 0.3020 1.0294
H127A H 0.6914 0.3190 1.0505
C121A C 0.6993(7) 0.2414(3) 0.7936(10)
H128A H 0.6963 0.2276 0.8118
H129A H 0.7354 0.2489 0.8197
H130A H 0.6978 0.2376 0.7572
C122A C 0.2598(13) 0.4391(4) 0.5280(12)
H131A H 0.2377 0.4520 0.5285
H132A H 0.2397 0.4251 0.5254
H133A H 0.2648 0.4403 0.4945
C123A C 0.3373(4) 0.37731(11) 0.6523(3)
C124A C 0.2846(5) 0.37876(16) 0.6039(4)
H134A H 0.2764 0.3790 0.5650
C125A C 0.2441(5) 0.37990(16) 0.6224(4)
N29A N 0.4511(3) 0.33780(9) 0.7624(3)
N30A N 0.4646(3) 0.41184(9) 0.7784(2)
N31A N 0.3464(3) 0.40044(11) 0.8040(3)
N32A N 0.2875(3) 0.40064(14) 0.7705(3)
N33A N 0.3341(3) 0.35258(13) 0.7935(3)
N34A N 0.2771(3) 0.35775(14) 0.7640(3)
N35A N 0.3327(3) 0.37811(9) 0.7014(2)
N36A N 0.2754(3) 0.38025(11) 0.6830(3)
N37A N 0.5575(3) 0.31257(10) 0.8425(3)
N38A N 0.4220(3) 0.43945(11) 0.6690(4)
B3A B 0.2579(4) 0.3796(2) 0.7318(5)
H135A H 0.2157 0.3810 0.7133
N39A N 0.4817(3) 0.36984(12) 0.9176(3)
C126A C 0.3368(9) 0.5037(3) 0.7952(9)
H136A H 0.3523 0.5056 0.8369
H137A H 0.2999 0.4961 0.7780
H138A H 0.3321 0.5185 0.7771
C127 C 0.3067(3) 0.38060(10) 0.4437(3)
C128 C 0.2711(2) 0.37823(9) 0.3828(2)
H139 H 0.2311 0.3798 0.3645
C129 C 0.3644(3) 0.37734(10) 0.4713(3)
H140 H 0.3873 0.3788 0.5122
C130 C 0.3888(3) 0.37183(11) 0.4377(3)
C131 C 0.2977(3) 0.37348(9) 0.3507(3)
C132 C 0.3548(3) 0.36980(10) 0.3770(3)
H141 H 0.3715 0.3659 0.3546
O1 O 0.26219(19) 0.37248(8) 0.29044(19)
H142 H 0.2814 0.3692 0.2753
O2 O 0.4460(2) 0.36803(9) 0.4616(2)
H143 H 0.4624 0.3698 0.4976
O3 O 0.28352(19) 0.38523(9) 0.47846(18)
H144 H 0.2484 0.3868 0.4575
P1 P 0.2500 0.2500 0.5000
F1 F 0.1947(6) 0.2385(2) 0.4817(9)
F2 F 0.2719(7) 0.2263(2) 0.4762(10)
F3 F 0.2656(10) 0.2421(4) 0.5645(7)
F1F F 0.3053(6) 0.2615(2) 0.5183(9)
F2F F 0.2281(7) 0.2737(2) 0.5238(10)
F3F F 0.2344(10) 0.2579(4) 0.4355(7)
F4 F 0.8309(8) 0.5006(4) 0.8501(10)
P2 P 0.8166(3) 0.50006(9) 0.8904(4)
F5 F 0.8709(7) 0.5164(3) 0.9171(8)
F6 F 0.8639(10) 0.4866(2) 0.9487(7)
F7 F 0.8168(9) 0.5077(4) 0.9489(7)
F8 F 0.7636(10) 0.5115(4) 0.8532(7)
F9 F 0.8087(16) 0.4747(3) 0.8661(15)
P3 P 0.0000 0.0000 0.0000
F10 F 0.003(2) 0.0192(12) 0.037(4)
F11 F -0.0724(7) -0.0043(5) -0.0211(11)
F12 F -0.0050(16) 0.0196(13) -0.044(3)
F10D F -0.003(2) -0.0192(12) -0.037(4)
F11D F 0.0724(7) 0.0043(5) 0.0211(11)
F12D F 0.0050(16) -0.0196(13) 0.044(3)
O4 O 0.7717(8) 0.18725(16) 0.4315(8)
P4 P 0.6324(4) 0.24512(9) 0.5753(4)
F13 F 0.5908(8) 0.2460(3) 0.5955(9)
F14 F 0.6787(10) 0.2321(3) 0.6392(8)
F15 F 0.5954(9) 0.2220(4) 0.5333(10)
F16 F 0.6785(10) 0.2653(4) 0.6260(10)
F17 F 0.6025(8) 0.2602(3) 0.5329(7)
F18 F 0.7028(7) 0.2414(3) 0.5863(8)
O5 O 0.2560(9) 0.1901(4) 0.3527(8)
O7 O 0.0902(14) 0.2605(5) 0.6593(13)
C133 C 0.4176(10) 0.0677(5) -0.0008(12)
H145 H 0.4518 0.0755 0.0286
H146 H 0.4157 0.0527 0.0133
H147 H 0.3840 0.0764 -0.0086
C134 C 0.4194(8) 0.0654(3) -0.0572(10)
N40 N 0.428(6) 0.0508(15) -0.079(5)
O8 O 0.6654(13) 0.4474(4) 0.5264(10)
C135 C 0.3404(19) 0.0138(6) 0.158(2)
C136 C 0.2931(17) -0.0002(6) 0.1274(17)
H148 H 0.2992 -0.0144 0.1486
H149 H 0.2879 -0.0034 0.0892
H150 H 0.2592 0.0073 0.1228
N41 N 0.3694(18) 0.0264(5) 0.2047(13)
loop_
_geom_bond_atom_site_label_1
_geom_bond_atom_site_label_2
_geom_bond_site_symmetry_1
_geom_bond_site_symmetry_2
Fe1 C1 1_555 1_555
Co1 N1 1_555 1_555
Co2 N2 1_555 1_555
C1 N5 1_555 1_555
C2 Fe1 1_555 1_555
C3 Fe1 1_555 1_555
C4 C5 1_555 1_555
C5 H1 1_555 1_555
C6 C5 1_555 1_555
C7 C8 1_555 1_555
C8 H2 1_555 1_555
C9 C8 1_555 1_555
C10 C11 1_555 1_555
C11 H3 1_555 1_555
C12 C11 1_555 1_555
C13 H4 1_555 1_555
C14 C13 1_555 1_555
H5 C14 1_555 1_555
C15 C14 1_555 1_555
C16 C15 1_555 1_555
H6 C16 1_555 1_555
C17 C16 1_555 1_555
C18 C17 1_555 1_555
C19 C18 1_555 1_555
H7 C19 1_555 1_555
C20 C19 1_555 1_555
C21 C20 1_555 1_555
H8 C21 1_555 1_555
C22 C21 1_555 1_555
H9 C22 1_555 1_555
C23 C24 1_555 1_555
C24 H10 1_555 1_555
C25 C24 1_555 1_555
C26 C25 1_555 1_555
H11 C26 1_555 1_555
C27 C26 1_555 1_555
H12 C27 1_555 1_555
C28 C23 1_555 1_555
C29 C28 1_555 1_555
H13 C29 1_555 1_555
C30 C29 1_555 1_555
C31 C30 1_555 1_555
H14 C31 1_555 1_555
C32 C31 1_555 1_555
H15 C32 1_555 1_555
C33 C4 1_555 1_555
H16 C33 1_555 1_555
H17 C33 1_555 1_555
H18 C33 1_555 1_555
C34 C6 1_555 1_555
H19 C34 1_555 1_555
H20 C34 1_555 1_555
H21 C34 1_555 1_555
C35 C7 1_555 1_555
H22 C35 1_555 1_555
H23 C35 1_555 1_555
H24 C35 1_555 1_555
C36 C9 1_555 1_555
H25 C36 1_555 1_555
H26 C36 1_555 1_555
H27 C36 1_555 1_555
C37 C10 1_555 1_555
H28 C37 1_555 1_555
H29 C37 1_555 1_555
H30 C37 1_555 1_555
C38 C12 1_555 1_555
H31 C38 1_555 1_555
H32 C38 1_555 1_555
H33 C38 1_555 1_555
C39 C15 1_555 1_555
H34 C39 1_555 1_555
H35 C39 1_555 1_555
H36 C39 1_555 1_555
C40 C20 1_555 1_555
H37 C40 1_555 1_555
H38 C40 1_555 1_555
H39 C40 1_555 1_555
C41 C25 1_555 1_555
H40 C41 1_555 1_555
H41 C41 1_555 1_555
H42 C41 1_555 1_555
C42 C30 1_555 1_555
H43 C42 1_555 1_555
H44 C42 1_555 1_555
H45 C42 1_555 1_555
N1 C18 1_555 1_555
N2 C28 1_555 1_555
N3 Co2 1_555 1_555
N4 Co1 1_555 1_555
N5 Co2 1_555 1_555
N6 C3 1_555 1_555
N7 Fe1 1_555 1_555
N8 C9 1_555 1_555
N9 Fe1 1_555 1_555
N10 C6 1_555 1_555
N11 Fe1 1_555 1_555
N12 C12 1_555 1_555
N13 Co1 1_555 1_555
B1 N8 1_555 1_555
H46 B1 1_555 1_555
Fe2 C43 1_555 1_555
Co3 N17 1_555 1_555
Co4 N14 1_555 1_555
C43 N16 1_555 1_555
C44 Fe2 1_555 1_555
C45 Fe2 1_555 1_555
C46 C47 1_555 1_555
C47 H47 1_555 1_555
C48 C47 1_555 1_555
C49 C50 1_555 1_555
C50 H48 1_555 1_555
C51 C50 1_555 1_555
C52 C53 1_555 1_555
C53 H49 1_555 1_555
C54 C53 1_555 1_555
N14 C55 1_555 1_555
C55 H50 1_555 1_555
C56 C55 1_555 1_555
H51 C56 1_555 1_555
C57 C56 1_555 1_555
C58 C57 1_555 1_555
H52 C58 1_555 1_555
C59 N14 1_555 1_555
C60 H53 1_555 1_555
C61 C60 1_555 1_555
H54 C61 1_555 1_555
C62 C61 1_555 1_555
C63 C62 1_555 1_555
H55 C63 1_555 1_555
C64 C63 1_555 1_555
C65 C64 1_555 1_555
C66 C65 1_555 1_555
H56 C66 1_555 1_555
C67 C66 1_555 1_555
C68 C67 1_555 1_555
H57 C68 1_555 1_555
C69 C68 1_555 1_555
H58 C69 1_555 1_555
N15 Co4 1_555 1_555
C70 C59 1_555 1_555
C71 C70 1_555 1_555
H59 C71 1_555 1_555
C72 C71 1_555 1_555
C73 C72 1_555 1_555
H60 C73 1_555 1_555
C74 N15 1_555 1_555
H61 C74 1_555 1_555
C75 C46 1_555 1_555
H62 C75 1_555 1_555
H63 C75 1_555 1_555
H64 C75 1_555 1_555
C76 C48 1_555 1_555
H65 C76 1_555 1_555
H66 C76 1_555 1_555
H67 C76 1_555 1_555
C77 C49 1_555 1_555
H68 C77 1_555 1_555
H69 C77 1_555 1_555
H70 C77 1_555 1_555
C78 C51 1_555 1_555
H71 C78 1_555 1_555
H72 C78 1_555 1_555
H73 C78 1_555 1_555
C79 C54 1_555 1_555
H74 C79 1_555 1_555
H75 C79 1_555 1_555
H76 C79 1_555 1_555
C80 C52 1_555 1_555
H77 C80 1_555 1_555
H78 C80 1_555 1_555
H79 C80 1_555 1_555
C81 C62 1_555 1_555
H80 C81 1_555 1_555
H81 C81 1_555 1_555
H82 C81 1_555 1_555
C82 C67 1_555 1_555
H83 C82 1_555 1_555
H84 C82 1_555 1_555
H85 C82 1_555 1_555
C83 C72 1_555 1_555
H86 C83 1_555 1_555
H87 C83 1_555 1_555
H88 C83 1_555 1_555
N16 Co4 1_555 1_555
N17 C44 1_555 1_555
N18 C45 1_555 1_555
N19 Fe2 1_555 1_555
N20 C48 1_555 1_555
N21 Fe2 1_555 1_555
N22 C51 1_555 1_555
N23 Fe2 1_555 1_555
N24 C52 1_555 1_555
N25 Co3 1_555 1_555
N26 Co3 1_555 1_555
B2 N20 1_555 1_555
H89 B2 1_555 1_555
C84 C57 1_555 1_555
H90 C84 1_555 1_555
H91 C84 1_555 1_555
H92 C84 1_555 1_555
Fe3 C85 1_555 1_555
Co5 N27 1_555 1_555
Co6 N28 1_555 1_555
C85 N30 1_555 1_555
C86 Fe3 1_555 1_555
C87 Fe3 1_555 1_555
C88 C89 1_555 1_555
C89 H93 1_555 1_555
C90 C89 1_555 1_555
C91 C92 1_555 1_555
C92 H94 1_555 1_555
C93 C92 1_555 1_555
C94 H95 1_555 1_555
C95 C94 1_555 1_555
H96 C95 1_555 1_555
C96 C95 1_555 1_555
C97 C96 1_555 1_555
H97 C97 1_555 1_555
C98 C97 1_555 1_555
N27 C99 1_555 1_555
C99 C98 1_555 1_555
C100 C99 1_555 1_555
H98 C100 1_555 1_555
C101 C100 1_555 1_555
C102 C101 1_555 1_555
H99 C102 1_555 1_555
C103 N27 1_555 1_555
H100 C103 1_555 1_555
N28 C104 1_555 1_555
C104 C105 1_555 1_555
C105 H101 1_555 1_555
C106 C105 1_555 1_555
C107 C106 1_555 1_555
H102 C107 1_555 1_555
C108 N28 1_555 1_555
H103 C108 1_555 1_555
C109 C104 1_555 1_555
C110 C109 1_555 1_555
H104 C110 1_555 1_555
C111 C110 1_555 1_555
C112 C111 1_555 1_555
H105 C112 1_555 1_555
C113 C112 1_555 1_555
H106 C113 1_555 1_555
C114 C88 1_555 1_555
H107 C114 1_555 1_555
H108 C114 1_555 1_555
H109 C114 1_555 1_555
C115 C90 1_555 1_555
H110 C115 1_555 1_555
H111 C115 1_555 1_555
H112 C115 1_555 1_555
C116 C91 1_555 1_555
H113 C116 1_555 1_555
H114 C116 1_555 1_555
H115 C116 1_555 1_555
C117 C93 1_555 1_555
H116 C117 1_555 1_555
H117 C117 1_555 1_555
H118 C117 1_555 1_555
C118 H119 1_555 1_555
H120 C118 1_555 1_555
H121 C118 1_555 1_555
C119 H122 1_555 1_555
H123 C119 1_555 1_555
H124 C119 1_555 1_555
C120 C96 1_555 1_555
H125 C120 1_555 1_555
H126 C120 1_555 1_555
H127 C120 1_555 1_555
C121 C101 1_555 1_555
H128 C121 1_555 1_555
H129 C121 1_555 1_555
H130 C121 1_555 1_555
C122 C111 1_555 1_555
H131 C122 1_555 1_555
H132 C122 1_555 1_555
H133 C122 1_555 1_555
C123 C118 1_555 1_555
C124 C123 1_555 1_555
H134 C124 1_555 1_555
C125 C119 1_555 1_555
N29 Co5 1_555 1_555
N30 Co6 1_555 1_555
N31 Fe3 1_555 1_555
N32 C93 1_555 1_555
N33 Fe3 1_555 1_555
N34 C90 1_555 1_555
N35 Fe3 1_555 1_555
N36 C125 1_555 1_555
N37 Co5 1_555 1_555
N38 Co6 1_555 1_555
B3 N32 1_555 1_555
H135 B3 1_555 1_555
N39 C87 1_555 1_555
C126 C106 1_555 1_555
H136 C126 1_555 1_555
H137 C126 1_555 1_555
H138 C126 1_555 1_555
C127 C128 1_555 1_555
C128 H139 1_555 1_555
C129 C127 1_555 1_555
H140 C129 1_555 1_555
C130 C129 1_555 1_555
C131 C128 1_555 1_555
C132 C130 1_555 1_555
H141 C132 1_555 1_555
O1 C131 1_555 1_555
H142 O1 1_555 1_555
O2 C130 1_555 1_555
H143 O2 1_555 1_555
O3 C127 1_555 1_555
H144 O3 1_555 1_555
P1 F1 1_555 1_555
F2 P1 1_555 1_555
F3 P1 1_555 1_555
F4 P2 1_555 1_555
P2 F5 1_555 1_555
F6 P2 1_555 1_555
F7 P2 1_555 1_555
F8 P2 1_555 1_555
F9 P2 1_555 1_555
P3 F10 1_555 1_555
F11 P3 1_555 1_555
F12 P3 1_555 1_555
P4 F13 1_555 1_555
F14 P4 1_555 1_555
F15 P4 1_555 1_555
F16 P4 1_555 1_555
F17 P4 1_555 1_555
F18 P4 1_555 1_555
C133 H145 1_555 1_555
H146 C133 1_555 1_555
H147 C133 1_555 1_555
C134 C133 1_555 1_555
N40 C134 1_555 1_555
C135 C136 1_555 1_555
C136 H148 1_555 1_555
H149 C136 1_555 1_555
H150 C136 1_555 1_555
N41 C135 1_555 1_555
Fe1A C1A 1_555 1_555
C1A N5A 1_555 1_555
C2A Fe1A 1_555 1_555
C3A Fe1A 1_555 1_555
C4A C5A 1_555 1_555
C5A H1A 1_555 1_555
C6A C5A 1_555 1_555
C7A C8A 1_555 1_555
C8A H2A 1_555 1_555
C9A C8A 1_555 1_555
C10A C11A 1_555 1_555
C11A H3A 1_555 1_555
C12A C11A 1_555 1_555
C13A H4A 1_555 1_555
C14A C13A 1_555 1_555
H5A C14A 1_555 1_555
C15A C14A 1_555 1_555
C16A C15A 1_555 1_555
H6A C16A 1_555 1_555
C17A C16A 1_555 1_555
C18A C17A 1_555 1_555
C19A C18A 1_555 1_555
H7A C19A 1_555 1_555
C20A C19A 1_555 1_555
C21A C20A 1_555 1_555
H8A C21A 1_555 1_555
C22A C21A 1_555 1_555
H9A C22A 1_555 1_555
C23A C24A 1_555 1_555
C24A H10A 1_555 1_555
C25A C24A 1_555 1_555
C26A C25A 1_555 1_555
H11A C26A 1_555 1_555
C27A C26A 1_555 1_555
H12A C27A 1_555 1_555
C28A C23A 1_555 1_555
C29A C28A 1_555 1_555
H13A C29A 1_555 1_555
C30A C29A 1_555 1_555
C31A C30A 1_555 1_555
H14A C31A 1_555 1_555
C32A C31A 1_555 1_555
H15A C32A 1_555 1_555
C33A C4A 1_555 1_555
H16A C33A 1_555 1_555
H17A C33A 1_555 1_555
H18A C33A 1_555 1_555
C34A C6A 1_555 1_555
H19A C34A 1_555 1_555
H20A C34A 1_555 1_555
H21A C34A 1_555 1_555
C35A C7A 1_555 1_555
H22A C35A 1_555 1_555
H23A C35A 1_555 1_555
H24A C35A 1_555 1_555
C36A C9A 1_555 1_555
H25A C36A 1_555 1_555
H26A C36A 1_555 1_555
H27A C36A 1_555 1_555
C37A C10A 1_555 1_555
H28A C37A 1_555 1_555
H29A C37A 1_555 1_555
H30A C37A 1_555 1_555
C38A C12A 1_555 1_555
H31A C38A 1_555 1_555
H32A C38A 1_555 1_555
H33A C38A 1_555 1_555
C39A C15A 1_555 1_555
H34A C39A 1_555 1_555
H35A C39A 1_555 1_555
H36A C39A 1_555 1_555
C40A C20A 1_555 1_555
H37A C40A 1_555 1_555
H38A C40A 1_555 1_555
H39A C40A 1_555 1_555
C41A C25A 1_555 1_555
H40A C41A 1_555 1_555
H41A C41A 1_555 1_555
H42A C41A 1_555 1_555
C42A C30A 1_555 1_555
H43A C42A 1_555 1_555
H44A C42A 1_555 1_555
H45A C42A 1_555 1_555
N1A Co1 1_555 1_555
N2A Co2 1_555 1_555
N3A Co2 1_555 1_555
N4A Co1 1_555 1_555
N5A Co2 1_555 1_555
N6A C3A 1_555 1_555
N7A Fe1A 1_555 1_555
N8A C9A 1_555 1_555
N9A Fe1A 1_555 1_555
N10A C6A 1_555 1_555
N11A Fe1A 1_555 1_555
N12A C12A 1_555 1_555
N13A Co1 1_555 1_555
B1A N8A 1_555 1_555
H46A B1A 1_555 1_555
Fe2A C43A 1_555 1_555
C43A N16A 1_555 1_555
C44A Fe2A 1_555 1_555
C45A Fe2A 1_555 1_555
C46A C47A 1_555 1_555
C47A H47A 1_555 1_555
C48A C47A 1_555 1_555
C49A C50A 1_555 1_555
C50A H48A 1_555 1_555
C51A C50A 1_555 1_555
C52A C53A 1_555 1_555
C53A H49A 1_555 1_555
C54A C53A 1_555 1_555
N14A Co4 1_555 1_555
C55A N14A 1_555 1_555
H50A C55A 1_555 1_555
C56A C55A 1_555 1_555
H51A C56A 1_555 1_555
C57A C56A 1_555 1_555
C58A C57A 1_555 1_555
H52A C58A 1_555 1_555
C59A N14A 1_555 1_555
C60A H53A 1_555 1_555
C61A C60A 1_555 1_555
H54A C61A 1_555 1_555
C62A C61A 1_555 1_555
C63A C62A 1_555 1_555
H55A C63A 1_555 1_555
C64A C63A 1_555 1_555
C65A C64A 1_555 1_555
C66A C65A 1_555 1_555
H56A C66A 1_555 1_555
C67A C66A 1_555 1_555
C68A C67A 1_555 1_555
H57A C68A 1_555 1_555
C69A C68A 1_555 1_555
H58A C69A 1_555 1_555
N15A Co4 1_555 1_555
C70A C59A 1_555 1_555
C71A C70A 1_555 1_555
H59A C71A 1_555 1_555
C72A C71A 1_555 1_555
C73A C72A 1_555 1_555
H60A C73A 1_555 1_555
C74A N15A 1_555 1_555
H61A C74A 1_555 1_555
C75A C46A 1_555 1_555
H62A C75A 1_555 1_555
H63A C75A 1_555 1_555
H64A C75A 1_555 1_555
C76A C48A 1_555 1_555
H65A C76A 1_555 1_555
H66A C76A 1_555 1_555
H67A C76A 1_555 1_555
C77A C49A 1_555 1_555
H68A C77A 1_555 1_555
H69A C77A 1_555 1_555
H70A C77A 1_555 1_555
C78A C51A 1_555 1_555
H71A C78A 1_555 1_555
H72A C78A 1_555 1_555
H73A C78A 1_555 1_555
C79A C54A 1_555 1_555
H74A C79A 1_555 1_555
H75A C79A 1_555 1_555
H76A C79A 1_555 1_555
C80A C52A 1_555 1_555
H77A C80A 1_555 1_555
H78A C80A 1_555 1_555
H79A C80A 1_555 1_555
C81A C62A 1_555 1_555
H80A C81A 1_555 1_555
H81A C81A 1_555 1_555
H82A C81A 1_555 1_555
C82A C67A 1_555 1_555
H83A C82A 1_555 1_555
H84A C82A 1_555 1_555
H85A C82A 1_555 1_555
C83A C72A 1_555 1_555
H86A C83A 1_555 1_555
H87A C83A 1_555 1_555
H88A C83A 1_555 1_555
N16A Co4 1_555 1_555
N17A Co3 1_555 1_555
N18A C45A 1_555 1_555
N19A Fe2A 1_555 1_555
N20A C48A 1_555 1_555
N21A Fe2A 1_555 1_555
N22A C51A 1_555 1_555
N23A Fe2A 1_555 1_555
N24A C52A 1_555 1_555
N25A Co3 1_555 1_555
N26A Co3 1_555 1_555
B2A N20A 1_555 1_555
H89A B2A 1_555 1_555
C84A C57A 1_555 1_555
H90A C84A 1_555 1_555
H91A C84A 1_555 1_555
H92A C84A 1_555 1_555
Fe3A C85A 1_555 1_555
C85A N30A 1_555 1_555
C86A Fe3A 1_555 1_555
C87A Fe3A 1_555 1_555
C88A C89A 1_555 1_555
C89A H93A 1_555 1_555
C90A C89A 1_555 1_555
C91A C92A 1_555 1_555
C92A H94A 1_555 1_555
C93A C92A 1_555 1_555
C94A H95A 1_555 1_555
C95A C94A 1_555 1_555
H96A C95A 1_555 1_555
C96A C95A 1_555 1_555
C97A C96A 1_555 1_555
H97A C97A 1_555 1_555
C98A C97A 1_555 1_555
N27A Co5 1_555 1_555
C99A C98A 1_555 1_555
C100A C99A 1_555 1_555
H98A C100A 1_555 1_555
C101A C100A 1_555 1_555
C102A C101A 1_555 1_555
H99A C102A 1_555 1_555
C103A N27A 1_555 1_555
H100A C103A 1_555 1_555
N28A Co6 1_555 1_555
C104A N28A 1_555 1_555
C105A C104A 1_555 1_555
H101A C105A 1_555 1_555
C106A C105A 1_555 1_555
C107A C106A 1_555 1_555
H102A C107A 1_555 1_555
C108A N28A 1_555 1_555
H103A C108A 1_555 1_555
C109A C104A 1_555 1_555
C110A C109A 1_555 1_555
H104A C110A 1_555 1_555
C111A C110A 1_555 1_555
C112A C111A 1_555 1_555
H105A C112A 1_555 1_555
C113A C112A 1_555 1_555
H106A C113A 1_555 1_555
C114A C88A 1_555 1_555
H107A C114A 1_555 1_555
H108A C114A 1_555 1_555
H109A C114A 1_555 1_555
C115A C90A 1_555 1_555
H110A C115A 1_555 1_555
H111A C115A 1_555 1_555
H112A C115A 1_555 1_555
C116A C91A 1_555 1_555
H113A C116A 1_555 1_555
H114A C116A 1_555 1_555
H115A C116A 1_555 1_555
C117A C93A 1_555 1_555
H116A C117A 1_555 1_555
H117A C117A 1_555 1_555
H118A C117A 1_555 1_555
C118A H119A 1_555 1_555
H120A C118A 1_555 1_555
H121A C118A 1_555 1_555
C119A H122A 1_555 1_555
H123A C119A 1_555 1_555
H124A C119A 1_555 1_555
C120A C96A 1_555 1_555
H125A C120A 1_555 1_555
H126A C120A 1_555 1_555
H127A C120A 1_555 1_555
C121A C101A 1_555 1_555
H128A C121A 1_555 1_555
H129A C121A 1_555 1_555
H130A C121A 1_555 1_555
C122A C111A 1_555 1_555
H131A C122A 1_555 1_555
H132A C122A 1_555 1_555
H133A C122A 1_555 1_555
C123A C118A 1_555 1_555
C124A C123A 1_555 1_555
H134A C124A 1_555 1_555
C125A C119A 1_555 1_555
N29A Co5 1_555 1_555
N30A Co6 1_555 1_555
N31A Fe3A 1_555 1_555
N32A C93A 1_555 1_555
N33A Fe3A 1_555 1_555
N34A C90A 1_555 1_555
N35A Fe3A 1_555 1_555
N36A C125A 1_555 1_555
N37A Co5 1_555 1_555
N38A Co6 1_555 1_555
B3A N32A 1_555 1_555
H135A B3A 1_555 1_555
N39A C87A 1_555 1_555
C126A C106A 1_555 1_555
H136A C126A 1_555 1_555
H137A C126A 1_555 1_555
H138A C126A 1_555 1_555
F1F P1 1_555 1_555
F2F P1 1_555 1_555
F3F P1 1_555 1_555
F10D P3 1_555 1_555
F11D P3 1_555 1_555
F12D P3 1_555 1_555
C2 N4 1_555 1_555
C4 N9 1_555 1_555
C7 N7 1_555 1_555
C10 N11 1_555 1_555
C13 N13 1_555 1_555
C17 N13 1_555 1_555
C22 N1 1_555 1_555
C23 N3 1_555 1_555
C27 N3 1_555 1_555
C32 N2 1_555 1_555
N7 N8 1_555 1_555
N9 N10 1_555 1_555
N10 B1 1_555 1_555
N11 N12 1_555 1_555
N12 B1 1_555 1_555
C46 N19 1_555 1_555
C49 N21 1_555 1_555
C54 N23 1_555 1_555
C58 C59 1_555 1_555
C60 N26 1_555 1_555
C64 N26 1_555 1_555
C65 N25 1_555 1_555
C69 N25 1_555 1_555
N15 C70 1_555 1_555
C73 C74 1_555 1_555
N19 N20 1_555 1_555
N21 N22 1_555 1_555
N22 B2 1_555 1_555
N23 N24 1_555 1_555
N24 B2 1_555 1_555
C86 N29 1_555 1_555
C88 N33 1_555 1_555
C91 N31 1_555 1_555
C94 N37 1_555 1_555
C98 N37 1_555 1_555
C102 C103 1_555 1_555
C107 C108 1_555 1_555
C109 N38 1_555 1_555
C113 N38 1_555 1_555
C123 N35 1_555 1_555
C124 C125 1_555 1_555
N31 N32 1_555 1_555
N33 N34 1_555 1_555
N34 B3 1_555 1_555
N35 N36 1_555 1_555
N36 B3 1_555 1_555
C131 C132 1_555 1_555
C2A N4A 1_555 1_555
C4A N9A 1_555 1_555
C7A N7A 1_555 1_555
C10A N11A 1_555 1_555
C13A N13A 1_555 1_555
C17A N13A 1_555 1_555
C18A N1A 1_555 1_555
C22A N1A 1_555 1_555
C23A N3A 1_555 1_555
C27A N3A 1_555 1_555
C28A N2A 1_555 1_555
C32A N2A 1_555 1_555
N7A N8A 1_555 1_555
N9A N10A 1_555 1_555
N10A B1A 1_555 1_555
N11A N12A 1_555 1_555
N12A B1A 1_555 1_555
C44A N17A 1_555 1_555
C46A N19A 1_555 1_555
C49A N21A 1_555 1_555
C54A N23A 1_555 1_555
C58A C59A 1_555 1_555
C60A N26A 1_555 1_555
C64A N26A 1_555 1_555
C65A N25A 1_555 1_555
C69A N25A 1_555 1_555
N15A C70A 1_555 1_555
C73A C74A 1_555 1_555
N19A N20A 1_555 1_555
N21A N22A 1_555 1_555
N22A B2A 1_555 1_555
N23A N24A 1_555 1_555
N24A B2A 1_555 1_555
C86A N29A 1_555 1_555
C88A N33A 1_555 1_555
C91A N31A 1_555 1_555
C94A N37A 1_555 1_555
C98A N37A 1_555 1_555
N27A C99A 1_555 1_555
C102A C103A 1_555 1_555
C107A C108A 1_555 1_555
C109A N38A 1_555 1_555
C113A N38A 1_555 1_555
C123A N35A 1_555 1_555
C124A C125A 1_555 1_555
N31A N32A 1_555 1_555
N33A N34A 1_555 1_555
N34A B3A 1_555 1_555
N35A N36A 1_555 1_555
N36A B3A 1_555 1_555

#END
