
#######################################################################
#
#                 Cambridge Crystallographic Data Centre
#                                CCDC 
#
#######################################################################
#
# If this CIF has been generated from an entry in the Cambridge 
# Structural Database, then it will include bibliographic, chemical, 
# crystal, experimental, refinement or atomic coordinate data resulting 
# from the CCDC's data processing and validation procedures.
#
#######################################################################

data_XEGZUG
_chemical_formula_moiety         'C168 H132 Co4 N36 8+,8(B1 F4 1-),2(H2 O1)'
_chemical_name_systematic        
"hexakis(\m~2~-2,2'-(Naphthalene-2,6-diylbis(methanediyl-1H-pyrazole-1,3-diyl))dipyridine)-tetra-cobalt octakis(tetrafluoroborate) dihydrate"
_symmetry_cell_setting           tetragonal
_symmetry_space_group_name_H-M   'I -4'
_symmetry_Int_Tables_number      82
_space_group_name_Hall           'I -4'
loop_
_symmetry_equiv_pos_site_id
_symmetry_equiv_pos_as_xyz
1 x,y,z
2 -x,-y,z
3 y,-x,-z
4 -y,x,-z
5 1/2+x,1/2+y,1/2+z
6 1/2-x,1/2-y,1/2+z
7 1/2+y,1/2-x,1/2-z
8 1/2-y,1/2+x,1/2-z
_cell_length_a                   23.4549(7)
_cell_length_b                   23.4549(7)
_cell_length_c                   18.9113(6)
_cell_angle_alpha                90
_cell_angle_beta                 90
_cell_angle_gamma                90
_cell_volume                     10403.7
_exptl_crystal_colour            colorless
_exptl_crystal_description       rod
_cell_formula_units_Z            2
loop_
_atom_site_label
_atom_site_type_symbol
_atom_site_fract_x
_atom_site_fract_y
_atom_site_fract_z
B1 B 0.4780(2) 0.7660(2) 0.4736(3)
F1 F 0.5285(4) 0.7468(5) 0.5086(6)
F2 F 0.4923(6) 0.7860(6) 0.4044(4)
F3 F 0.4528(6) 0.8112(5) 0.5133(7)
F4 F 0.4385(5) 0.7198(4) 0.4680(8)
B2 B 0.2872(2) 0.5761(2) 0.1837(3)
F9 F 0.3390(2) 0.5801(3) 0.1443(3)
F10 F 0.2539(3) 0.6263(3) 0.1726(4)
F11 F 0.3002(3) 0.5706(3) 0.2572(2)
F12 F 0.2558(3) 0.5273(3) 0.1606(4)
B3 B 0.0000 0.5000 0.7500
F13 F 0.0390(2) 0.5285(2) 0.7081(4)
F13A F -0.0390(2) 0.4715(2) 0.7081(4)
F13F F 0.0285(2) 0.4610(2) 0.7919(4)
F13G F -0.0285(2) 0.5390(2) 0.7919(4)
O1 O 0.1850(5) 0.5895(7) 1.0172(9)
Co1 Co 0.27766(5) 0.61727(4) 0.76364(6)
N1 N 0.2467(2) 0.70063(17) 0.7940(3)
C1 C 0.2754(2) 0.7519(2) 0.7842(3)
H1 H 0.3090 0.7527 0.7581
C2 C 0.2539(3) 0.80185(17) 0.8133(4)
H2 H 0.2731 0.8361 0.8067
C3 C 0.2036(3) 0.80057(19) 0.8522(4)
H3 H 0.1892 0.8340 0.8717
C4 C 0.1750(2) 0.7493(2) 0.8621(3)
H4 H 0.1414 0.7485 0.8882
C5 C 0.1965(2) 0.69936(18) 0.8330(3)
N2 N 0.19557(16) 0.60113(19) 0.8014(2)
N3 N 0.1571(2) 0.55454(16) 0.8060(3)
C6 C 0.10849(19) 0.5728(2) 0.8446(3)
H5 H 0.0767 0.5508 0.8554
C7 C 0.1170(2) 0.6307(2) 0.8639(3)
H6 H 0.0917 0.6533 0.8896
C8 C 0.1708(2) 0.64822(16) 0.8372(3)
C9 C 0.1673(3) 0.5025(3) 0.7755(4)
H7 H 0.1880 0.5085 0.7317
H8 H 0.1310 0.4852 0.7634
N4 N 0.3114(2) 0.53530(16) 0.7454(2)
C10 C 0.3148(2) 0.5097(2) 0.6793(2)
H9 H 0.2983 0.5272 0.6402
C11 C 0.3430(3) 0.4580(2) 0.6715(2)
H10 H 0.3454 0.4409 0.6273
C12 C 0.3678(2) 0.43190(17) 0.7299(3)
H11 H 0.3866 0.3972 0.7248
C13 C 0.3643(2) 0.4575(2) 0.7961(3)
H12 H 0.3808 0.4400 0.8352
C14 C 0.3361(2) 0.5092(2) 0.8038(2)
N5 N 0.3138(2) 0.5944(2) 0.8637(3)
N6 N 0.3130(3) 0.6145(2) 0.9345(3)
C15 C 0.3335(3) 0.5702(3) 0.9789(2)
H13 H 0.3375 0.5719 1.0277
C16 C 0.3469(3) 0.5226(2) 0.9355(4)
H14 H 0.3612 0.4878 0.9509
C17 C 0.3347(2) 0.5376(2) 0.8643(3)
C18 C 0.2940(5) 0.6706(5) 0.9557(7)
H15 H 0.2607 0.6673 0.9858
H16 H 0.2835 0.6926 0.9142
C19 C 0.4292(3) 0.7541(3) 0.99659(17)
H17 H 0.4602 0.7695 0.9727
C20 C 0.3879(3) 0.7237(3) 0.95961(18)
H18 H 0.3914 0.7189 0.9110
C21 C 0.3415(2) 0.7007(2) 0.9953(3)
C22 C 0.33640(19) 0.70794(18) 1.0680(3)
H19 H 0.3054 0.6925 1.0918
C23 C 0.37766(14) 0.73829(14) 1.10494(19)
C24 C 0.42405(16) 0.76136(17) 1.06926(17)
C25 C 0.4653(2) 0.79170(17) 1.1062(2)
H20 H 0.4963 0.8071 1.0824
C26 C 0.20101(19) 0.46018(18) 0.8211(2)
C27 C 0.2241(2) 0.41379(19) 0.78541(18)
H21 H 0.2192 0.4104 0.7368
C28 C 0.37253(19) 0.74557(16) 1.17761(19)
H22 H 0.3415 0.7301 1.2015
N7 N 0.2523(4) 0.6350(3) 0.6603(3)
C29 C 0.1994(4) 0.6213(3) 0.6320(4)
H23 H 0.1724 0.6025 0.6596
C30 C 0.1867(5) 0.6357(4) 0.5625(4)
H24 H 0.1512 0.6266 0.5435
C31 C 0.2269(6) 0.6638(4) 0.5213(3)
H25 H 0.2184 0.6734 0.4747
C32 C 0.2799(5) 0.6775(3) 0.5496(4)
H26 H 0.3068 0.6963 0.5220
C33 C 0.2926(4) 0.6631(3) 0.6191(4)
N8 N 0.3551(4) 0.6545(3) 0.7228(5)
N9 N 0.4120(4) 0.6674(4) 0.7429(5)
C34 C 0.4386(4) 0.6961(5) 0.6856(7)
H27 H 0.4759 0.7094 0.6846
C35 C 0.3981(6) 0.7010(5) 0.6301(5)
H28 H 0.4043 0.7181 0.5863
C36 C 0.3465(5) 0.6753(4) 0.6531(5)
C37 C 0.4635(3) 0.5863(3) 0.8071(4)
C38 C 0.4762(4) 0.5645(4) 0.8736(4)
C39 C 0.5001(3) 0.4998(3) 0.7556(3)
C40 C 0.4900(3) 0.5214(3) 0.8190(4)
C43 C 0.5381(4) 0.4258(4) 0.6921(4)
C44 C 0.5131(4) 0.4795(4) 0.6918(3)
C45 C 0.4992(3) 0.4994(4) 0.8779(3)
C46 C 0.4754(3) 0.5611(3) 0.7508(4)
C47 C 0.4361(4) 0.6396(4) 0.8137(6)
Co1A Co 0.72234(5) 0.38273(4) 0.76364(6)
Co1C Co 0.38273(4) 0.27766(5) 1.23636(6)
Co1B Co 0.61727(4) 0.72234(5) 1.23636(6)
N1A N 0.7533(2) 0.29937(17) 0.7940(3)
N1C N 0.29937(17) 0.2467(2) 1.2060(3)
N1B N 0.70063(17) 0.7533(2) 1.2060(3)
C1A C 0.7246(2) 0.2481(2) 0.7842(3)
C1C C 0.2481(2) 0.2754(2) 1.2158(3)
C1B C 0.7519(2) 0.7246(2) 1.2158(3)
H1A H 0.6910 0.2473 0.7581
H1C H 0.2473 0.3090 1.2419
H1B H 0.7527 0.6910 1.2419
C2A C 0.7461(3) 0.19815(17) 0.8133(4)
C2C C 0.19815(17) 0.2539(3) 1.1867(4)
C2B C 0.80185(17) 0.7461(3) 1.1867(4)
H2A H 0.7269 0.1639 0.8067
H2C H 0.1639 0.2731 1.1933
H2B H 0.8361 0.7269 1.1933
C3A C 0.7964(3) 0.19943(19) 0.8522(4)
C3C C 0.19943(19) 0.2036(3) 1.1478(4)
C3B C 0.80057(19) 0.7964(3) 1.1478(4)
H3A H 0.8108 0.1660 0.8717
H3C H 0.1660 0.1892 1.1283
H3B H 0.8340 0.8108 1.1283
C4A C 0.8250(2) 0.2507(2) 0.8621(3)
C4C C 0.2507(2) 0.1750(2) 1.1379(3)
C4B C 0.7493(2) 0.8250(2) 1.1379(3)
H4A H 0.8586 0.2515 0.8882
H4C H 0.2515 0.1414 1.1118
H4B H 0.7485 0.8586 1.1118
C5A C 0.8035(2) 0.30064(18) 0.8330(3)
C5C C 0.30064(18) 0.1965(2) 1.1670(3)
C5B C 0.69936(18) 0.8035(2) 1.1670(3)
N2A N 0.80443(16) 0.39887(19) 0.8014(2)
N2C N 0.39887(19) 0.19557(16) 1.1986(2)
N2B N 0.60113(19) 0.80443(16) 1.1986(2)
N3C N 0.44546(16) 0.1571(2) 1.1940(3)
N3A N 0.8429(2) 0.44546(16) 0.8060(3)
N3B N 0.55454(16) 0.8429(2) 1.1940(3)
C6C C 0.4272(2) 0.10849(19) 1.1554(3)
C6A C 0.89151(19) 0.4272(2) 0.8446(3)
C6B C 0.5728(2) 0.89151(19) 1.1554(3)
H5C H 0.4492 0.0767 1.1446
H5A H 0.9233 0.4492 0.8554
H5B H 0.5508 0.9233 1.1446
C7C C 0.3693(2) 0.1170(2) 1.1361(3)
C7A C 0.8830(2) 0.3693(2) 0.8639(3)
C7B C 0.6307(2) 0.8830(2) 1.1361(3)
H6C H 0.3467 0.0917 1.1104
H6A H 0.9083 0.3467 0.8896
H6B H 0.6533 0.9083 1.1104
C8A C 0.8292(2) 0.35178(16) 0.8372(3)
C8C C 0.35178(16) 0.1708(2) 1.1628(3)
C8B C 0.64822(16) 0.8292(2) 1.1628(3)
C9C C 0.4975(3) 0.1673(3) 1.2245(4)
C9A C 0.8327(3) 0.4975(3) 0.7755(4)
C9B C 0.5025(3) 0.8327(3) 1.2245(4)
H7A H 0.8120 0.4915 0.7317
H7B H 0.5085 0.8120 1.2683
H7C H 0.4915 0.1880 1.2683
H8A H 0.8690 0.5148 0.7634
H8B H 0.4852 0.8690 1.2366
H8C H 0.5148 0.1310 1.2366
N4A N 0.6886(2) 0.46470(16) 0.7454(2)
N4C N 0.46470(16) 0.3114(2) 1.2546(2)
N4B N 0.53530(16) 0.6886(2) 1.2546(2)
C10A C 0.6852(2) 0.4903(2) 0.6793(2)
C10C C 0.4903(2) 0.3148(2) 1.3207(2)
C10B C 0.5097(2) 0.6852(2) 1.3207(2)
H9A H 0.7017 0.4728 0.6402
H9C H 0.4728 0.2983 1.3598
H9B H 0.5272 0.7017 1.3598
C11A C 0.6570(3) 0.5420(2) 0.6715(2)
C11C C 0.5420(2) 0.3430(3) 1.3285(2)
C11B C 0.4580(2) 0.6570(3) 1.3285(2)
H10A H 0.6546 0.5591 0.6273
H10C H 0.5591 0.3454 1.3727
H10B H 0.4409 0.6546 1.3727
C12A C 0.6322(2) 0.56810(17) 0.7299(3)
C12C C 0.56810(17) 0.3678(2) 1.2701(3)
C12B C 0.43190(17) 0.6322(2) 1.2701(3)
H11A H 0.6134 0.6028 0.7248
H11C H 0.6028 0.3866 1.2752
H11B H 0.3972 0.6134 1.2752
C13A C 0.6357(2) 0.5425(2) 0.7961(3)
C13C C 0.5425(2) 0.3643(2) 1.2039(3)
C13B C 0.4575(2) 0.6357(2) 1.2039(3)
H12A H 0.6192 0.5600 0.8352
H12C H 0.5600 0.3808 1.1648
H12B H 0.4400 0.6192 1.1648
C14A C 0.6639(2) 0.4908(2) 0.8038(2)
C14C C 0.4908(2) 0.3361(2) 1.1962(2)
C14B C 0.5092(2) 0.6639(2) 1.1962(2)
N5A N 0.6862(2) 0.4056(2) 0.8637(3)
N5C N 0.4056(2) 0.3138(2) 1.1363(3)
N5B N 0.5944(2) 0.6862(2) 1.1363(3)
N6A N 0.6870(3) 0.3855(2) 0.9345(3)
N6B N 0.6145(2) 0.6870(3) 1.0655(3)
N6C N 0.3855(2) 0.3130(3) 1.0655(3)
C15A C 0.6665(3) 0.4298(3) 0.9789(2)
C15B C 0.5702(3) 0.6665(3) 1.0211(2)
C15C C 0.4298(3) 0.3335(3) 1.0211(2)
H13A H 0.6625 0.4281 1.0277
H13B H 0.5719 0.6625 0.9723
H13C H 0.4281 0.3375 0.9723
C16A C 0.6531(3) 0.4774(2) 0.9355(4)
C16B C 0.5226(2) 0.6531(3) 1.0645(4)
C16C C 0.4774(2) 0.3469(3) 1.0645(4)
H14A H 0.6388 0.5122 0.9509
H14B H 0.4878 0.6388 1.0491
H14C H 0.5122 0.3612 1.0491
C17A C 0.6653(2) 0.4624(2) 0.8643(3)
C17C C 0.4624(2) 0.3347(2) 1.1357(3)
C17B C 0.5376(2) 0.6653(2) 1.1357(3)
C18A C 0.7060(5) 0.3294(5) 0.9557(7)
C18B C 0.6706(5) 0.7060(5) 1.0443(7)
C18C C 0.3294(5) 0.2940(5) 1.0443(7)
H15A H 0.7393 0.3327 0.9858
H15B H 0.6673 0.7393 1.0142
H15C H 0.3327 0.2607 1.0142
H16A H 0.7165 0.3074 0.9142
H16B H 0.6926 0.7165 1.0858
H16C H 0.3074 0.2835 1.0858
C19A C 0.5708(3) 0.2459(3) 0.99659(17)
C19B C 0.7541(3) 0.5708(3) 1.00341(17)
C19C C 0.2459(3) 0.4292(3) 1.00341(17)
H17A H 0.5398 0.2305 0.9727
H17B H 0.7695 0.5398 1.0273
H17C H 0.2305 0.4602 1.0273
C20A C 0.6121(3) 0.2763(3) 0.95961(18)
C20B C 0.7237(3) 0.6121(3) 1.04039(18)
C20C C 0.2763(3) 0.3879(3) 1.04039(18)
H18B H 0.7189 0.6086 1.0890
H18C H 0.2811 0.3914 1.0890
H18A H 0.6086 0.2811 0.9110
C21A C 0.6585(2) 0.2993(2) 0.9953(3)
C21B C 0.7007(2) 0.6585(2) 1.0047(3)
C21C C 0.2993(2) 0.3415(2) 1.0047(3)
C22A C 0.66360(19) 0.29206(18) 1.0680(3)
C22B C 0.70794(18) 0.66360(19) 0.9320(3)
C22C C 0.29206(18) 0.33640(19) 0.9320(3)
H19A H 0.6946 0.3075 1.0918
H19B H 0.6925 0.6946 0.9082
H19C H 0.3075 0.3054 0.9082
C23A C 0.62234(14) 0.26171(14) 1.10494(19)
C23B C 0.73829(14) 0.62234(14) 0.89506(19)
C23C C 0.26171(14) 0.37766(14) 0.89506(19)
C24A C 0.57595(16) 0.23864(17) 1.06926(17)
C24B C 0.76136(17) 0.57595(16) 0.93074(17)
C24C C 0.23864(17) 0.42405(16) 0.93074(17)
C25B C 0.79170(17) 0.5347(2) 0.8938(2)
C25C C 0.20830(17) 0.4653(2) 0.8938(2)
C25A C 0.5347(2) 0.20830(17) 1.1062(2)
H20B H 0.8071 0.5037 0.9176
H20C H 0.1929 0.4963 0.9176
H20A H 0.5037 0.1929 1.0824
C26C C 0.53982(18) 0.20101(19) 1.1789(2)
C26A C 0.79899(19) 0.53982(18) 0.8211(2)
C26B C 0.46018(18) 0.79899(19) 1.1789(2)
C27C C 0.58621(19) 0.2241(2) 1.21459(18)
C27A C 0.7759(2) 0.58621(19) 0.78541(18)
C27B C 0.41379(19) 0.7759(2) 1.21459(18)
H21A H 0.7808 0.5896 0.7368
H21B H 0.4104 0.7808 1.2632
H21C H 0.5896 0.2192 1.2632
C28A C 0.62747(19) 0.25443(16) 1.17761(19)
C28B C 0.74557(16) 0.62747(19) 0.82239(19)
C28C C 0.25443(16) 0.37253(19) 0.82239(19)
H22B H 0.7301 0.6585 0.7985
H22C H 0.2699 0.3415 0.7985
H22A H 0.6585 0.2699 1.2015
N7A N 0.7477(4) 0.3650(3) 0.6603(3)
N7C N 0.3650(3) 0.2523(4) 1.3397(3)
N7B N 0.6350(3) 0.7477(4) 1.3397(3)
C29A C 0.8006(4) 0.3787(3) 0.6320(4)
C29C C 0.3787(3) 0.1994(4) 1.3680(4)
C29B C 0.6213(3) 0.8006(4) 1.3680(4)
H23A H 0.8276 0.3975 0.6596
H23C H 0.3975 0.1724 1.3404
H23B H 0.6025 0.8276 1.3404
C30A C 0.8133(5) 0.3643(4) 0.5625(4)
C30C C 0.3643(4) 0.1867(5) 1.4375(4)
C30B C 0.6357(4) 0.8133(5) 1.4375(4)
H24A H 0.8488 0.3734 0.5435
H24C H 0.3734 0.1512 1.4565
H24B H 0.6266 0.8488 1.4565
C31A C 0.7731(6) 0.3362(4) 0.5213(3)
C31C C 0.3362(4) 0.2269(6) 1.4787(3)
C31B C 0.6638(4) 0.7731(6) 1.4787(3)
H25A H 0.7816 0.3266 0.4747
H25C H 0.3266 0.2184 1.5253
H25B H 0.6734 0.7816 1.5253
C32A C 0.7201(5) 0.3225(3) 0.5496(4)
C32C C 0.3225(3) 0.2799(5) 1.4504(4)
C32B C 0.6775(3) 0.7201(5) 1.4504(4)
H26A H 0.6932 0.3037 0.5220
H26C H 0.3037 0.3068 1.4780
H26B H 0.6963 0.6932 1.4780
C33A C 0.7074(4) 0.3369(3) 0.6191(4)
C33C C 0.3369(3) 0.2926(4) 1.3809(4)
C33B C 0.6631(3) 0.7074(4) 1.3809(4)
N8A N 0.6449(4) 0.3455(3) 0.7228(5)
N8C N 0.3455(3) 0.3551(4) 1.2772(5)
N8B N 0.6545(3) 0.6449(4) 1.2772(5)
N9A N 0.5880(4) 0.3326(4) 0.7429(5)
N9C N 0.3326(4) 0.4120(4) 1.2571(5)
N9B N 0.6674(4) 0.5880(4) 1.2571(5)
C34A C 0.5614(4) 0.3039(5) 0.6856(7)
C34C C 0.3039(5) 0.4386(4) 1.3144(7)
C34B C 0.6961(5) 0.5614(4) 1.3144(7)
H27A H 0.5241 0.2906 0.6846
H27C H 0.2906 0.4759 1.3154
H27B H 0.7094 0.5241 1.3154
C35A C 0.6019(6) 0.2990(5) 0.6301(5)
C35C C 0.2990(5) 0.3981(6) 1.3699(5)
C35B C 0.7010(5) 0.6019(6) 1.3699(5)
H28A H 0.5957 0.2819 0.5863
H28C H 0.2819 0.4043 1.4137
H28B H 0.7181 0.5957 1.4137
C36A C 0.6535(5) 0.3247(4) 0.6531(5)
C36C C 0.3247(4) 0.3465(5) 1.3469(5)
C36B C 0.6753(4) 0.6535(5) 1.3469(5)
C37A C 0.5365(3) 0.4137(3) 0.8071(4)
C37C C 0.4137(3) 0.4635(3) 1.1929(4)
C37B C 0.5863(3) 0.5365(3) 1.1929(4)
C38A C 0.5238(4) 0.4355(4) 0.8736(4)
C38C C 0.4355(4) 0.4762(4) 1.1264(4)
C38B C 0.5645(4) 0.5238(4) 1.1264(4)
C39C C 0.5002(3) 0.5001(3) 1.2444(3)
C40A C 0.5100(3) 0.4786(3) 0.8190(4)
C40C C 0.4786(3) 0.4900(3) 1.1810(4)
C40B C 0.5214(3) 0.5100(3) 1.1810(4)
C43C C 0.5742(4) 0.5381(4) 1.3079(4)
C43B C 0.4258(4) 0.4619(4) 1.3079(4)
C43A C 0.4619(4) 0.5742(4) 0.6921(4)
C44C C 0.5205(4) 0.5131(4) 1.3082(3)
C44B C 0.4795(4) 0.4869(4) 1.3082(3)
C44A C 0.4869(4) 0.5205(4) 0.6918(3)
C45B C 0.4994(4) 0.5008(3) 1.1221(3)
C46A C 0.5246(3) 0.4389(3) 0.7508(4)
C46C C 0.4389(3) 0.4754(3) 1.2492(4)
C46B C 0.5611(3) 0.5246(3) 1.2492(4)
C47A C 0.5639(4) 0.3604(4) 0.8137(6)
C47C C 0.3604(4) 0.4361(4) 1.1863(6)
C47B C 0.6396(4) 0.5639(4) 1.1863(6)
F5? F 0.5215(4) 0.7233(4) 0.4763(7)
F6? F 0.4865(6) 0.8011(5) 0.4127(6)
F7? F 0.4810(7) 0.8004(6) 0.5359(5)
F8? F 0.4234(3) 0.7393(5) 0.4696(9)
C41? C 0.5350(3) 0.4248(3) 0.8194(4)
C42? C 0.5490(4) 0.3985(3) 0.7559(5)
loop_
_geom_bond_atom_site_label_1
_geom_bond_atom_site_label_2
_geom_bond_site_symmetry_1
_geom_bond_site_symmetry_2
Co1 N1 1_555 1_555
N1 C1 1_555 1_555
C1 H1 1_555 1_555
C2 C1 1_555 1_555
H2 C2 1_555 1_555
C3 C2 1_555 1_555
H3 C3 1_555 1_555
C4 C3 1_555 1_555
H4 C4 1_555 1_555
C5 N1 1_555 1_555
N2 Co1 1_555 1_555
N3 N2 1_555 1_555
C6 N3 1_555 1_555
H5 C6 1_555 1_555
C7 C6 1_555 1_555
H6 C7 1_555 1_555
C8 C5 1_555 1_555
C9 N3 1_555 1_555
H7 C9 1_555 1_555
H8 C9 1_555 1_555
N4 Co1 1_555 1_555
C10 N4 1_555 1_555
H9 C10 1_555 1_555
C11 C10 1_555 1_555
H10 C11 1_555 1_555
C12 C11 1_555 1_555
H11 C12 1_555 1_555
C13 C12 1_555 1_555
H12 C13 1_555 1_555
C14 N4 1_555 1_555
N5 Co1 1_555 1_555
N6 N5 1_555 1_555
C15 N6 1_555 1_555
H13 C15 1_555 1_555
C16 C15 1_555 1_555
H14 C16 1_555 1_555
C17 C14 1_555 1_555
C18 N6 1_555 1_555
H15 C18 1_555 1_555
H16 C18 1_555 1_555
C19 H17 1_555 1_555
C20 C19 1_555 1_555
H18 C20 1_555 1_555
C21 C18 1_555 1_555
C22 C21 1_555 1_555
H19 C22 1_555 1_555
C23 C22 1_555 1_555
C24 C19 1_555 1_555
C25 C24 1_555 1_555
H20 C25 1_555 1_555
C26 C9 1_555 1_555
C27 C26 1_555 1_555
H21 C27 1_555 1_555
C28 C23 1_555 1_555
H22 C28 1_555 1_555
N7 Co1 1_555 1_555
C29 N7 1_555 1_555
H23 C29 1_555 1_555
C30 C29 1_555 1_555
H24 C30 1_555 1_555
C31 C30 1_555 1_555
H25 C31 1_555 1_555
C32 C31 1_555 1_555
H26 C32 1_555 1_555
C33 N7 1_555 1_555
N8 Co1 1_555 1_555
N9 N8 1_555 1_555
C34 N9 1_555 1_555
H27 C34 1_555 1_555
C35 C34 1_555 1_555
H28 C35 1_555 1_555
C36 C33 1_555 1_555
B1 F1 1_555 1_555
F2 B1 1_555 1_555
F3 B1 1_555 1_555
F4 B1 1_555 1_555
B2 F9 1_555 1_555
F10 B2 1_555 1_555
F11 B2 1_555 1_555
F12 B2 1_555 1_555
B3 F13 1_555 1_555
C37 C38 1_555 1_555
C38 C40 1_555 1_555
C39 C40 1_555 1_555
C40 C37 1_555 1_555
C43 C44 1_555 1_555
C44 C39 1_555 1_555
C45 C38 1_555 1_555
C46 C37 1_555 1_555
C47 N9 1_555 1_555
Co1A N1A 1_555 1_555
Co1C N1C 1_555 1_555
Co1B N1B 1_555 1_555
N1A C1A 1_555 1_555
N1C C1C 1_555 1_555
N1B C1B 1_555 1_555
C1A H1A 1_555 1_555
C1C H1C 1_555 1_555
C1B H1B 1_555 1_555
C2A C1A 1_555 1_555
C2C C1C 1_555 1_555
C2B C1B 1_555 1_555
H2A C2A 1_555 1_555
H2C C2C 1_555 1_555
H2B C2B 1_555 1_555
C3A C2A 1_555 1_555
C3C C2C 1_555 1_555
C3B C2B 1_555 1_555
H3A C3A 1_555 1_555
H3C C3C 1_555 1_555
H3B C3B 1_555 1_555
C4A C3A 1_555 1_555
C4C C3C 1_555 1_555
C4B C3B 1_555 1_555
H4A C4A 1_555 1_555
H4C C4C 1_555 1_555
H4B C4B 1_555 1_555
C5A N1A 1_555 1_555
C5C N1C 1_555 1_555
C5B N1B 1_555 1_555
N2A Co1A 1_555 1_555
N2C Co1C 1_555 1_555
N2B Co1B 1_555 1_555
N3C N2C 1_555 1_555
N3A N2A 1_555 1_555
N3B N2B 1_555 1_555
C6C N3C 1_555 1_555
C6A N3A 1_555 1_555
C6B N3B 1_555 1_555
H5C C6C 1_555 1_555
H5A C6A 1_555 1_555
H5B C6B 1_555 1_555
C7C C6C 1_555 1_555
C7A C6A 1_555 1_555
C7B C6B 1_555 1_555
H6C C7C 1_555 1_555
H6A C7A 1_555 1_555
H6B C7B 1_555 1_555
C8A C5A 1_555 1_555
C8C C5C 1_555 1_555
C8B C5B 1_555 1_555
C9C N3C 1_555 1_555
C9A N3A 1_555 1_555
C9B N3B 1_555 1_555
H7A C9A 1_555 1_555
H7B C9B 1_555 1_555
H7C C9C 1_555 1_555
H8A C9A 1_555 1_555
H8B C9B 1_555 1_555
H8C C9C 1_555 1_555
N4A Co1A 1_555 1_555
N4C Co1C 1_555 1_555
N4B Co1B 1_555 1_555
C10A N4A 1_555 1_555
C10C N4C 1_555 1_555
C10B N4B 1_555 1_555
H9A C10A 1_555 1_555
H9C C10C 1_555 1_555
H9B C10B 1_555 1_555
C11A C10A 1_555 1_555
C11C C10C 1_555 1_555
C11B C10B 1_555 1_555
H10A C11A 1_555 1_555
H10C C11C 1_555 1_555
H10B C11B 1_555 1_555
C12A C11A 1_555 1_555
C12C C11C 1_555 1_555
C12B C11B 1_555 1_555
H11A C12A 1_555 1_555
H11C C12C 1_555 1_555
H11B C12B 1_555 1_555
C13A C12A 1_555 1_555
C13C C12C 1_555 1_555
C13B C12B 1_555 1_555
H12A C13A 1_555 1_555
H12C C13C 1_555 1_555
H12B C13B 1_555 1_555
C14A N4A 1_555 1_555
C14C N4C 1_555 1_555
C14B N4B 1_555 1_555
N5A Co1A 1_555 1_555
N5C Co1C 1_555 1_555
N5B Co1B 1_555 1_555
N6A N5A 1_555 1_555
N6B N5B 1_555 1_555
N6C N5C 1_555 1_555
C15A N6A 1_555 1_555
C15B N6B 1_555 1_555
C15C N6C 1_555 1_555
H13A C15A 1_555 1_555
H13B C15B 1_555 1_555
H13C C15C 1_555 1_555
C16A C15A 1_555 1_555
C16B C15B 1_555 1_555
C16C C15C 1_555 1_555
H14A C16A 1_555 1_555
H14B C16B 1_555 1_555
H14C C16C 1_555 1_555
C17A C14A 1_555 1_555
C17C C14C 1_555 1_555
C17B C14B 1_555 1_555
C18A N6A 1_555 1_555
C18B N6B 1_555 1_555
C18C N6C 1_555 1_555
H15A C18A 1_555 1_555
H15B C18B 1_555 1_555
H15C C18C 1_555 1_555
H16A C18A 1_555 1_555
H16B C18B 1_555 1_555
H16C C18C 1_555 1_555
C19A H17A 1_555 1_555
C19B H17B 1_555 1_555
C19C H17C 1_555 1_555
C20A C19A 1_555 1_555
C20B C19B 1_555 1_555
C20C C19C 1_555 1_555
H18B C20B 1_555 1_555
H18C C20C 1_555 1_555
H18A C20A 1_555 1_555
C21A C18A 1_555 1_555
C21B C18B 1_555 1_555
C21C C18C 1_555 1_555
C22A C21A 1_555 1_555
C22B C21B 1_555 1_555
C22C C21C 1_555 1_555
H19A C22A 1_555 1_555
H19B C22B 1_555 1_555
H19C C22C 1_555 1_555
C23A C22A 1_555 1_555
C23B C22B 1_555 1_555
C23C C22C 1_555 1_555
C24A C19A 1_555 1_555
C24B C19B 1_555 1_555
C24C C19C 1_555 1_555
C25B C24B 1_555 1_555
C25C C26 1_555 1_555
C25A C24A 1_555 1_555
H20B C25B 1_555 1_555
H20C C25C 1_555 1_555
H20A C25A 1_555 1_555
C26C C9C 1_555 1_555
C26A C9A 1_555 1_555
C26B C25 1_555 1_555
C27C C26C 1_555 1_555
C27A C26A 1_555 1_555
C27B C28 1_555 1_555
H21A C27A 1_555 1_555
H21B C27B 1_555 1_555
H21C C27C 1_555 1_555
C28A C23A 1_555 1_555
C28B C23B 1_555 1_555
C28C C27 1_555 1_555
H22B C28B 1_555 1_555
H22C C28C 1_555 1_555
H22A C28A 1_555 1_555
N7A Co1A 1_555 1_555
N7C Co1C 1_555 1_555
N7B Co1B 1_555 1_555
C29A N7A 1_555 1_555
C29C N7C 1_555 1_555
C29B N7B 1_555 1_555
H23A C29A 1_555 1_555
H23C C29C 1_555 1_555
H23B C29B 1_555 1_555
C30A C29A 1_555 1_555
C30C C29C 1_555 1_555
C30B C29B 1_555 1_555
H24A C30A 1_555 1_555
H24C C30C 1_555 1_555
H24B C30B 1_555 1_555
C31A C30A 1_555 1_555
C31C C30C 1_555 1_555
C31B C30B 1_555 1_555
H25A C31A 1_555 1_555
H25C C31C 1_555 1_555
H25B C31B 1_555 1_555
C32A C31A 1_555 1_555
C32C C31C 1_555 1_555
C32B C31B 1_555 1_555
H26A C32A 1_555 1_555
H26C C32C 1_555 1_555
H26B C32B 1_555 1_555
C33A N7A 1_555 1_555
C33C N7C 1_555 1_555
C33B N7B 1_555 1_555
N8A Co1A 1_555 1_555
N8C Co1C 1_555 1_555
N8B Co1B 1_555 1_555
N9A N8A 1_555 1_555
N9C N8C 1_555 1_555
N9B N8B 1_555 1_555
C34A N9A 1_555 1_555
C34C N9C 1_555 1_555
C34B N9B 1_555 1_555
H27A C34A 1_555 1_555
H27C C34C 1_555 1_555
H27B C34B 1_555 1_555
C35A C34A 1_555 1_555
C35C C34C 1_555 1_555
C35B C34B 1_555 1_555
H28A C35A 1_555 1_555
H28C C35C 1_555 1_555
H28B C35B 1_555 1_555
C36A C33A 1_555 1_555
C36C C33C 1_555 1_555
C36B C33B 1_555 1_555
F13A B3 1_555 1_555
F13F B3 1_555 1_555
F13G B3 1_555 1_555
C37A C38A 1_555 1_555
C37C C38C 1_555 1_555
C37B C38B 1_555 1_555
C38A C45 1_555 1_555
C38C C40C 1_555 1_555
C38B C40B 1_555 1_555
C39C C40C 1_555 1_555
C40A C39 1_555 1_555
C40C C37C 1_555 1_555
C40B C37B 1_555 1_555
C43C C44C 1_555 1_555
C43B C44B 1_555 1_555
C43A C46 1_555 1_555
C44C C39C 1_555 1_555
C44B C39C 1_555 1_555
C44A C39 1_555 1_555
C45B C38C 1_555 1_555
C46A C39 1_555 1_555
C46C C37C 1_555 1_555
C46B C37B 1_555 1_555
C47A N9A 1_555 1_555
C47C N9C 1_555 1_555
C47B N9B 1_555 1_555
C4 C5 1_555 1_555
N2 C8 1_555 1_555
C7 C8 1_555 1_555
C13 C14 1_555 1_555
N5 C17 1_555 1_555
C16 C17 1_555 1_555
C20 C21 1_555 1_555
C23 C24 1_555 1_555
C32 C33 1_555 1_555
N8 C36 1_555 1_555
C35 C36 1_555 1_555
C37 C47 1_555 1_555
C39 C46 1_555 1_555
C40 C45 1_555 1_555
C40 C46 1_555 1_555
C40 C40A 1_555 1_555
C43 C46A 1_555 1_555
C44 C44A 1_555 1_555
C44 C46A 1_555 1_555
C45 C40A 1_555 1_555
C46 C44A 1_555 1_555
C4A C5A 1_555 1_555
C4C C5C 1_555 1_555
C4B C5B 1_555 1_555
N2A C8A 1_555 1_555
N2C C8C 1_555 1_555
N2B C8B 1_555 1_555
C7C C8C 1_555 1_555
C7A C8A 1_555 1_555
C7B C8B 1_555 1_555
C9B C26B 1_555 1_555
C13A C14A 1_555 1_555
C13C C14C 1_555 1_555
C13B C14B 1_555 1_555
N5A C17A 1_555 1_555
N5C C17C 1_555 1_555
N5B C17B 1_555 1_555
C16A C17A 1_555 1_555
C16B C17B 1_555 1_555
C16C C17C 1_555 1_555
C20A C21A 1_555 1_555
C20B C21B 1_555 1_555
C20C C21C 1_555 1_555
C23A C24A 1_555 1_555
C23B C24B 1_555 1_555
C23C C24C 1_555 1_555
C23C C28C 1_555 1_555
C24C C25C 1_555 1_555
C25B C26A 1_555 1_555
C25A C26C 1_555 1_555
C26B C27B 1_555 1_555
C27C C28A 1_555 1_555
C27A C28B 1_555 1_555
C32A C33A 1_555 1_555
C32C C33C 1_555 1_555
C32B C33B 1_555 1_555
N8A C36A 1_555 1_555
N8C C36C 1_555 1_555
N8B C36B 1_555 1_555
C35A C36A 1_555 1_555
C35C C36C 1_555 1_555
C35B C36B 1_555 1_555
C37A C40A 1_555 1_555
C37A C46A 1_555 1_555
C37A C47A 1_555 1_555
C37C C47C 1_555 1_555
C37B C47B 1_555 1_555
C38A C40A 1_555 1_555
C38B C45B 1_555 1_555
C39C C40B 1_555 1_555
C39C C46C 1_555 1_555
C39C C46B 1_555 1_555
C40A C46A 1_555 1_555
C40C C40B 1_555 1_555
C40C C45B 1_555 1_555
C40C C46C 1_555 1_555
C40B C45B 1_555 1_555
C40B C46B 1_555 1_555
C43C C46B 1_555 1_555
C43B C46C 1_555 1_555
C43A C44A 1_555 1_555
C44C C44B 1_555 1_555
C44C C46B 1_555 1_555
C44B C46C 1_555 1_555

#END
