
#######################################################################
#
#                 Cambridge Crystallographic Data Centre
#                                CCDC 
#
#######################################################################
#
# If this CIF has been generated from an entry in the Cambridge 
# Structural Database, then it will include bibliographic, chemical, 
# crystal, experimental, refinement or atomic coordinate data resulting 
# from the CCDC's data processing and validation procedures.
#
#######################################################################

data_XEHBIX
_chemical_formula_moiety         
'C168 H132 Cu4 N48 8+,1.5(C4 H8 O2),8(B1 F4 1-)'
_chemical_name_systematic        
"hexakis(\m~2~-2,2'-(Biphenyl-3,3'-diylbis(methanediyl-1H-pyrazole-1,3-diyl))dipyrazine)-tetra-copper octakis(tetrafluoroborate) ethyl acetate solvate"
_symmetry_cell_setting           cubic
_symmetry_space_group_name_H-M   'I -4 3 d'
_symmetry_Int_Tables_number      220
_space_group_name_Hall           'I -4bd 2c 3'
loop_
_symmetry_equiv_pos_site_id
_symmetry_equiv_pos_as_xyz
1 x,y,z
2 1/2-x,-y,1/2+z
3 -x,1/2+y,1/2-z
4 1/2+x,1/2-y,-z
5 z,x,y
6 1/2+z,1/2-x,-y
7 1/2-z,-x,1/2+y
8 -z,1/2+x,1/2-y
9 y,z,x
10 -y,1/2+z,1/2-x
11 1/2+y,1/2-z,-x
12 1/2-y,-z,1/2+x
13 1/4+y,1/4+x,1/4+z
14 1/4-y,3/4-x,3/4+z
15 3/4+y,1/4-x,3/4-z
16 3/4-y,3/4+x,1/4-z
17 1/4+x,1/4+z,1/4+y
18 3/4-x,3/4+z,1/4-y
19 1/4-x,3/4-z,3/4+y
20 3/4+x,1/4-z,3/4-y
21 1/4+z,1/4+y,1/4+x
22 3/4+z,1/4-y,3/4-x
23 3/4-z,3/4+y,1/4-x
24 1/4-z,3/4-y,3/4+x
25 1/2+x,1/2+y,1/2+z
26 -x,1/2-y,z
27 1/2-x,y,-z
28 x,-y,1/2-z
29 1/2+z,1/2+x,1/2+y
30 z,-x,1/2-y
31 -z,1/2-x,y
32 1/2-z,x,-y
33 1/2+y,1/2+z,1/2+x
34 1/2-y,z,-x
35 y,-z,1/2-x
36 -y,1/2-z,x
37 3/4+y,3/4+x,3/4+z
38 3/4-y,1/4-x,1/4+z
39 1/4+y,3/4-x,1/4-z
40 1/4-y,1/4+x,3/4-z
41 3/4+x,3/4+z,3/4+y
42 1/4-x,1/4+z,3/4-y
43 3/4-x,1/4-z,1/4+y
44 1/4+x,3/4-z,1/4-y
45 3/4+z,3/4+y,3/4+x
46 1/4+z,3/4-y,1/4-x
47 1/4-z,1/4+y,3/4-x
48 3/4-z,1/4-y,1/4+x
_cell_length_a                   42.8823(15)
_cell_length_b                   42.8823(15)
_cell_length_c                   42.8823(15)
_cell_angle_alpha                90
_cell_angle_beta                 90
_cell_angle_gamma                90
_cell_volume                     78855.9
_exptl_crystal_colour            'light green'
_exptl_crystal_description       block
_cell_formula_units_Z            16
loop_
_atom_site_label
_atom_site_type_symbol
_atom_site_fract_x
_atom_site_fract_y
_atom_site_fract_z
Cu1 Cu 0.12885(3) 0.65058(4) 0.05383(3)
Cu2 Cu -0.04869(3) 0.45131(3) 0.04869(3)
N1 N 0.1474(2) 0.69201(16) 0.07877(16)
C1 C 0.1673(2) 0.7141(2) 0.06592(14)
H1 H 0.1769 0.7103 0.0469
C2 C 0.1729(3) 0.74195(18) 0.08156(18)
H2 H 0.1862 0.7567 0.0730
N2 N 0.1585(3) 0.7477(2) 0.1100(2)
C3 C 0.1386(3) 0.7256(3) 0.1229(2)
H3 H 0.1290 0.7294 0.1420
C4 C 0.1330(3) 0.6977(2) 0.10725(18)
N3 N 0.1037(2) 0.6499(2) 0.10069(18)
N4 N 0.0852(3) 0.6301(2) 0.1197(2)
C5 C 0.0821(4) 0.6443(3) 0.1494(2)
H4 H 0.0711 0.6363 0.1663
C6 C 0.0988(4) 0.6729(3) 0.1488(2)
H5 H 0.1006 0.6870 0.1652
C7 C 0.1121(3) 0.6764(2) 0.1187(2)
C8 C 0.0718(3) 0.6021(4) 0.1083(4)
H6 H 0.0701 0.6030 0.0858
H7 H 0.0510 0.5996 0.1168
N5 N -0.0644(3) 0.40632(15) 0.0349(2)
C9 C -0.0943(3) 0.3946(2) 0.0391(2)
H8 H -0.1091 0.4062 0.0500
C10 C -0.1022(3) 0.3656(2) 0.0270(2)
H9 H -0.1223 0.3578 0.0298
N6 N -0.0802(3) 0.34829(16) 0.0107(2)
C11 C -0.0503(3) 0.36000(16) 0.0065(2)
H10 H -0.0355 0.3484 -0.0044
C12 C -0.0424(3) 0.38901(17) 0.0186(2)
N7 N -0.0077(2) 0.43021(13) 0.02710(16)
N8 N 0.0242(2) 0.43626(12) 0.02068(15)
C13 C 0.0365(2) 0.41027(15) 0.0042(2)
H11 H 0.0568 0.4081 -0.0029
C14 C 0.0121(3) 0.38815(11) 0.00045(19)
H12 H 0.0137 0.3690 -0.0095
C15 C -0.0152(2) 0.40048(14) 0.0146(2)
C16 C 0.0379(4) 0.4634(2) 0.0301(2)
H13 H 0.0222 0.4797 0.0302
H14 H 0.0536 0.4692 0.0148
C17 C 0.05321(15) 0.46206(8) 0.06234(9)
C18 C 0.06557(11) 0.49022(8) 0.07259(8)
H15 H 0.0643 0.5078 0.0600
C19 C 0.07975(9) 0.49205(10) 0.10168(8)
C20 C 0.08158(10) 0.46573(11) 0.12051(9)
H16 H 0.0911 0.4670 0.1400
C21 C 0.06922(12) 0.43757(10) 0.11025(10)
H17 H 0.0704 0.4200 0.1228
C22 C 0.05503(15) 0.43574(8) 0.08117(10)
H18 H 0.0468 0.4169 0.0743
C23 C 0.09129(10) 0.57517(11) 0.11729(7)
C24 C 0.07832(8) 0.54818(10) 0.10488(7)
H19 H 0.0598 0.5492 0.0936
C25 C 0.09295(8) 0.51961(11) 0.10937(8)
C26 C 0.12056(10) 0.51802(14) 0.12628(11)
H20 H 0.1303 0.4989 0.1293
C27 C 0.13353(12) 0.54501(15) 0.13870(12)
H21 H 0.1520 0.5439 0.1500
C28 C 0.11890(13) 0.57358(14) 0.13421(10)
H22 H 0.1276 0.5916 0.1425
N9 N -0.03389(11) 0.59722(8) -0.17651(11)
C29 C -0.04845(11) 0.56843(8) -0.17960(13)
H23 H -0.0657 0.5636 -0.1674
C30 C -0.03722(13) 0.54679(7) -0.20096(17)
H24 H -0.0470 0.5275 -0.2030
N10 N -0.01142(15) 0.55395(7) -0.21923(18)
C31 C 0.00314(16) 0.58275(8) -0.21614(14)
H25 H 0.0204 0.5875 -0.2284
C32 C -0.00809(14) 0.60438(8) -0.19478(12)
N11 N -0.01069(15) 0.65287(18) -0.16912(14)
N12 N 0.00453(14) 0.6823(2) -0.17040(17)
C33 C 0.0287(2) 0.6803(3) -0.19300(17)
H26 H 0.0423 0.6962 -0.1985
C34 C 0.0284(3) 0.6497(2) -0.20560(18)
H27 H 0.0418 0.6421 -0.2209
C35 C 0.00406(15) 0.6327(2) -0.19090(19)
C36 C -0.0046(3) 0.7080(6) -0.1554(4)
H28 H -0.0266 0.7117 -0.1589
H29 H 0.0070 0.7260 -0.1629
N13 N 0.16114(17) 0.62251(16) 0.07412(14)
C37 C 0.1839(2) 0.63391(19) 0.09424(17)
H30 H 0.1853 0.6552 0.0980
C38 C 0.2044(2) 0.6135(3) 0.1087(2)
H31 H 0.2196 0.6211 0.1222
N14 N 0.2022(2) 0.5816(3) 0.1031(2)
C39 C 0.1795(2) 0.57021(17) 0.08300(18)
H32 H 0.1781 0.5489 0.0792
C40 C 0.15898(16) 0.59066(16) 0.06850(14)
N15 N 0.11652(12) 0.60555(10) 0.03792(12)
N16 N 0.09418(10) 0.59175(11) 0.01774(12)
C41 C 0.10104(11) 0.55944(11) 0.01544(13)
H33 H 0.0901 0.5449 0.0037
C42 C 0.12762(12) 0.55326(11) 0.03421(14)
H34 H 0.1371 0.5339 0.0369
C43 C 0.13718(11) 0.58176(15) 0.04810(12)
C44 C 0.06821(18) 0.6082(3) 0.0036(3)
H35 H 0.0591 0.6218 0.0192
H36 H 0.0525 0.5930 -0.0020
C45 C 0.07532(8) 0.62678(10) -0.02387(9)
C46 C 0.05183(7) 0.64686(9) -0.03364(9)
H37 H 0.0334 0.6482 -0.0224
C47 C 0.05594(6) 0.66489(6) -0.06026(9)
C48 C 0.08355(6) 0.66282(9) -0.07712(9)
H38 H 0.0863 0.6749 -0.0949
C49 C 0.10704(7) 0.64274(11) -0.06735(10)
H39 H 0.1255 0.6414 -0.0786
C50 C 0.10293(7) 0.62472(10) -0.04073(10)
H40 H 0.1186 0.6113 -0.0342
C51 C -0.01791(9) 0.71578(10) -0.06983(18)
H41 H -0.0326 0.7254 -0.0572
C52 C 0.00667(8) 0.69942(9) -0.05646(14)
H42 H 0.0084 0.6981 -0.0349
C53 C 0.02870(6) 0.68498(6) -0.07535(12)
C54 C 0.02614(9) 0.68689(9) -0.10761(12)
H43 H 0.0409 0.6772 -0.1202
C55 C 0.00156(11) 0.70325(10) -0.12097(15)
C56 C -0.02047(9) 0.71770(9) -0.10208(18)
H44 H -0.0369 0.7286 -0.1110
Cu1G Cu -0.05383(3) 0.62885(3) -0.15058(4)
Cu1J Cu 0.15058(4) 0.44617(3) -0.12885(3)
N1G N -0.07877(16) 0.6474(2) -0.19201(16)
N1J N 0.19201(16) 0.42123(16) -0.1474(2)
C1G C -0.06592(14) 0.6673(2) -0.2141(2)
C1J C 0.2141(2) 0.43408(14) -0.1673(2)
H1G H -0.0469 0.6769 -0.2103
H1J H 0.2103 0.4531 -0.1769
C2G C -0.08156(18) 0.6729(3) -0.24195(18)
C2J C 0.24195(18) 0.41844(18) -0.1729(3)
H2G H -0.0730 0.6862 -0.2567
H2J H 0.2567 0.4270 -0.1862
N2G N -0.1100(2) 0.6585(3) -0.2477(2)
N2J N 0.2477(2) 0.3900(2) -0.1585(3)
C3G C -0.1229(2) 0.6386(3) -0.2256(3)
C3J C 0.2256(3) 0.3771(2) -0.1386(3)
H3G H -0.1420 0.6290 -0.2294
H3J H 0.2294 0.3580 -0.1290
C4G C -0.10725(18) 0.6330(3) -0.1977(2)
C4J C 0.1977(2) 0.39275(18) -0.1330(3)
N3G N -0.10069(18) 0.6037(2) -0.1499(2)
N3J N 0.1499(2) 0.39931(18) -0.1037(2)
N4G N -0.1197(2) 0.5852(3) -0.1301(2)
N4J N 0.1301(2) 0.3803(2) -0.0852(3)
C5G C -0.1494(2) 0.5821(4) -0.1443(3)
C5J C 0.1443(3) 0.3506(2) -0.0821(4)
H4G H -0.1663 0.5711 -0.1363
H4J H 0.1363 0.3337 -0.0711
C6G C -0.1488(2) 0.5988(4) -0.1729(3)
C6J C 0.1729(3) 0.3512(2) -0.0988(4)
H5G H -0.1652 0.6006 -0.1870
H5J H 0.1870 0.3348 -0.1006
C7G C -0.1187(2) 0.6121(3) -0.1764(2)
C7J C 0.1764(2) 0.3813(2) -0.1121(3)
C8G C -0.1083(4) 0.5718(3) -0.1021(4)
C8J C 0.1021(4) 0.3917(4) -0.0718(3)
H6G H -0.0858 0.5701 -0.1030
H6J H 0.1030 0.4142 -0.0701
H7G H -0.1168 0.5510 -0.0996
H7J H 0.0996 0.3832 -0.0510
N5G N -0.0349(2) 0.4356(3) 0.09368(15)
N5J N -0.09368(15) 0.4651(2) 0.0644(3)
C9G C -0.0391(2) 0.4057(3) 0.1054(2)
C9J C -0.1054(2) 0.4609(2) 0.0943(3)
H8G H -0.0500 0.3909 0.0938
H8J H -0.0938 0.4500 0.1091
C10G C -0.0270(2) 0.3978(3) 0.1344(2)
C10J C -0.1344(2) 0.4730(2) 0.1022(3)
H9G H -0.0298 0.3777 0.1422
H9J H -0.1422 0.4702 0.1223
N6G N -0.0107(2) 0.4198(3) 0.15171(16)
N6J N -0.15171(16) 0.4893(2) 0.0802(3)
C11G C -0.0065(2) 0.4497(3) 0.14000(16)
C11J C -0.14000(16) 0.4935(2) 0.0503(3)
H10G H 0.0044 0.4645 0.1516
H10J H -0.1516 0.5044 0.0355
C12G C -0.0186(2) 0.4576(3) 0.11099(17)
C12J C -0.11099(17) 0.4814(2) 0.0424(3)
N7G N -0.02710(16) 0.4923(2) 0.06979(13)
N7J N -0.06979(13) 0.47290(16) 0.0077(2)
N8G N -0.02068(15) 0.5242(2) 0.06374(12)
N8J N -0.06374(12) 0.47932(15) -0.0242(2)
C13G C -0.0042(2) 0.5365(2) 0.08973(15)
C13J C -0.08973(15) 0.4958(2) -0.0365(2)
H11G H 0.0029 0.5568 0.0919
H11J H -0.0919 0.5029 -0.0568
C14G C -0.00045(19) 0.5121(3) 0.11185(11)
C14J C -0.11185(11) 0.49955(19) -0.0121(3)
H12G H 0.0095 0.5137 0.1310
H12J H -0.1310 0.5095 -0.0137
C15G C -0.0146(2) 0.4848(2) 0.09952(14)
C15J C -0.09952(14) 0.4854(2) 0.0152(2)
C16G C -0.0301(2) 0.5379(4) 0.0366(2)
C16J C -0.0366(2) 0.4699(2) -0.0379(4)
H13G H -0.0302 0.5222 0.0203
H13J H -0.0203 0.4698 -0.0222
H14G H -0.0148 0.5536 0.0308
H14J H -0.0308 0.4852 -0.0536
C17G C -0.06234(9) 0.55321(15) 0.03794(8)
C17J C -0.03794(8) 0.43766(9) -0.05321(15)
C18G C -0.07259(8) 0.56557(11) 0.00978(8)
C18J C -0.00978(8) 0.42741(8) -0.06557(11)
H15G H -0.0600 0.5643 -0.0078
H15J H 0.0078 0.4400 -0.0643
C19G C -0.10168(8) 0.57975(9) 0.00795(10)
C19J C -0.00795(10) 0.39832(8) -0.07975(9)
C20G C -0.12051(9) 0.58158(10) 0.03427(11)
C20J C -0.03427(11) 0.37949(9) -0.08158(10)
H16G H -0.1400 0.5911 0.0330
H16J H -0.0330 0.3600 -0.0911
C21G C -0.11025(10) 0.56922(12) 0.06243(10)
C21J C -0.06243(10) 0.38975(10) -0.06922(12)
H17G H -0.1228 0.5704 0.0800
H17J H -0.0800 0.3772 -0.0704
C22G C -0.08117(10) 0.55503(15) 0.06426(8)
C22J C -0.06426(8) 0.41883(10) -0.05503(15)
H18G H -0.0743 0.5468 0.0831
H18J H -0.0831 0.4257 -0.0468
C23G C -0.11729(7) 0.59129(10) -0.07517(11)
C23J C 0.07517(11) 0.38271(7) -0.09129(10)
C24G C -0.10488(7) 0.57832(8) -0.04818(10)
C24J C 0.04818(10) 0.39512(7) -0.07832(8)
H19G H -0.0936 0.5598 -0.0492
H19J H 0.0492 0.4064 -0.0598
C25G C -0.10937(8) 0.59295(8) -0.01961(11)
C25J C 0.01961(11) 0.39063(8) -0.09295(8)
C26G C -0.12628(11) 0.62056(10) -0.01802(14)
C26J C 0.01802(14) 0.37372(11) -0.12056(10)
H20G H -0.1293 0.6303 0.0011
H20J H -0.0011 0.3707 -0.1303
C27G C -0.13870(12) 0.63353(12) -0.04501(15)
C27J C 0.04501(15) 0.36130(12) -0.13353(12)
H21G H -0.1500 0.6520 -0.0439
H21J H 0.0439 0.3500 -0.1520
C28G C -0.13421(10) 0.61890(13) -0.07358(14)
C28J C 0.07358(14) 0.36579(10) -0.11890(13)
H22G H -0.1425 0.6276 -0.0916
H22J H 0.0916 0.3575 -0.1276
N9G N 0.17651(11) 0.46611(11) -0.09722(8)
N9J N 0.09722(8) 0.67651(11) 0.03389(11)
C29G C 0.17960(13) 0.45155(11) -0.06843(8)
C29J C 0.06843(8) 0.67960(13) 0.04845(11)
H23G H 0.1674 0.4343 -0.0636
H23J H 0.0636 0.6674 0.0657
C30G C 0.20096(17) 0.46278(13) -0.04679(7)
C30J C 0.04679(7) 0.70096(17) 0.03722(13)
H24G H 0.2030 0.4530 -0.0275
H24J H 0.0275 0.7030 0.0470
N10G N 0.21923(18) 0.48858(15) -0.05395(7)
N10J N 0.05395(7) 0.71923(18) 0.01142(15)
C31G C 0.21614(14) 0.50314(16) -0.08275(8)
C31J C 0.08275(8) 0.71614(14) -0.00314(16)
H25G H 0.2284 0.5204 -0.0875
H25J H 0.0875 0.7284 -0.0204
C32G C 0.19478(12) 0.49191(14) -0.10438(8)
C32J C 0.10438(8) 0.69478(12) 0.00809(14)
N11G N 0.16912(14) 0.48931(15) -0.15287(18)
N11J N 0.15287(18) 0.66912(14) 0.01069(15)
N12G N 0.17040(17) 0.50453(14) -0.1823(2)
N12J N 0.1823(2) 0.67040(17) -0.00453(14)
C33G C 0.19300(17) 0.5287(2) -0.1803(3)
C33J C 0.1803(3) 0.69300(17) -0.0287(2)
H26G H 0.1985 0.5423 -0.1962
H26J H 0.1962 0.6985 -0.0423
C34G C 0.20560(18) 0.5284(3) -0.1497(2)
C34J C 0.1497(2) 0.70560(18) -0.0284(3)
H27G H 0.2209 0.5418 -0.1421
H27J H 0.1421 0.7209 -0.0418
C35G C 0.19090(19) 0.50406(15) -0.1327(2)
C35J C 0.1327(2) 0.69090(19) -0.00406(15)
C36G C 0.1554(4) 0.4954(3) -0.2080(6)
C36J C 0.2080(6) 0.6554(4) 0.0046(3)
H28G H 0.1589 0.4734 -0.2117
H28J H 0.2117 0.6589 0.0266
H29G H 0.1629 0.5070 -0.2260
H29J H 0.2260 0.6629 -0.0070
N13G N -0.07412(14) 0.66114(17) -0.12251(16)
N13J N 0.12251(16) 0.42588(14) -0.16114(17)
C37G C -0.09424(17) 0.6839(2) -0.13391(19)
C37J C 0.13391(19) 0.40576(17) -0.1839(2)
H30G H -0.0980 0.6853 -0.1552
H30J H 0.1552 0.4020 -0.1853
C38G C -0.1087(2) 0.7044(2) -0.1135(3)
C38J C 0.1135(3) 0.3913(2) -0.2044(2)
H31G H -0.1222 0.7196 -0.1211
H31J H 0.1211 0.3778 -0.2196
N14G N -0.1031(2) 0.7022(2) -0.0816(3)
N14J N 0.0816(3) 0.3969(2) -0.2022(2)
C39G C -0.08300(18) 0.6795(2) -0.07021(17)
C39J C 0.07021(17) 0.41700(18) -0.1795(2)
H32G H -0.0792 0.6781 -0.0489
H32J H 0.0489 0.4208 -0.1781
C40G C -0.06850(14) 0.65898(16) -0.09066(16)
C40J C 0.09066(16) 0.43150(14) -0.15898(16)
N15G N -0.03792(12) 0.61652(12) -0.10555(10)
N15J N 0.10555(10) 0.46208(12) -0.11652(12)
N16G N -0.01774(12) 0.59418(10) -0.09175(11)
N16J N 0.09175(11) 0.48226(12) -0.09418(10)
C41G C -0.01544(13) 0.60104(11) -0.05944(11)
C41J C 0.05944(11) 0.48456(13) -0.10104(11)
H33G H -0.0037 0.5901 -0.0449
H33J H 0.0449 0.4963 -0.0901
C42G C -0.03421(14) 0.62762(12) -0.05326(11)
C42J C 0.05326(11) 0.46579(14) -0.12762(12)
H34G H -0.0369 0.6371 -0.0339
H34J H 0.0339 0.4631 -0.1371
C43G C -0.04810(12) 0.63718(11) -0.08176(15)
C43J C 0.08176(15) 0.45190(12) -0.13718(11)
C44G C -0.0036(3) 0.56821(18) -0.1082(3)
C44J C 0.1082(3) 0.4964(3) -0.06821(18)
H35G H -0.0192 0.5591 -0.1218
H35J H 0.1218 0.4808 -0.0591
H36G H 0.0020 0.5525 -0.0930
H36J H 0.0930 0.5020 -0.0525
C45G C 0.02387(9) 0.57532(8) -0.12678(10)
C45J C 0.12678(10) 0.52387(9) -0.07532(8)
C46G C 0.03364(9) 0.55183(7) -0.14686(9)
C46J C 0.14686(9) 0.53364(9) -0.05183(7)
H37G H 0.0224 0.5334 -0.1482
H37J H 0.1482 0.5224 -0.0334
C47G C 0.06026(9) 0.55594(6) -0.16489(6)
C47J C 0.16489(6) 0.56026(9) -0.05594(6)
C48G C 0.07712(9) 0.58355(6) -0.16282(9)
C48J C 0.16282(9) 0.57712(9) -0.08355(6)
H38G H 0.0949 0.5863 -0.1749
H38J H 0.1749 0.5949 -0.0863
C49G C 0.06735(10) 0.60704(7) -0.14274(11)
C49J C 0.14274(11) 0.56735(10) -0.10704(7)
H39G H 0.0786 0.6255 -0.1414
H39J H 0.1414 0.5786 -0.1255
C50G C 0.04073(10) 0.60293(7) -0.12472(10)
C50J C 0.12472(10) 0.54073(10) -0.10293(7)
H40G H 0.0342 0.6186 -0.1113
H40J H 0.1113 0.5342 -0.1186
C51G C 0.06983(18) 0.48209(9) -0.21578(10)
C51J C 0.21578(10) 0.56983(18) 0.01791(9)
H41G H 0.0572 0.4674 -0.2254
H41J H 0.2254 0.5572 0.0326
C52G C 0.05646(14) 0.50667(8) -0.19942(9)
C52J C 0.19942(9) 0.55646(14) -0.00667(8)
H42G H 0.0349 0.5084 -0.1981
H42J H 0.1981 0.5349 -0.0084
C53G C 0.07535(12) 0.52870(6) -0.18498(6)
C53J C 0.18498(6) 0.57535(12) -0.02870(6)
C54G C 0.10761(12) 0.52614(9) -0.18689(9)
C54J C 0.18689(9) 0.60761(12) -0.02614(9)
H43G H 0.1202 0.5409 -0.1772
H43J H 0.1772 0.6202 -0.0409
C55G C 0.12097(15) 0.50156(11) -0.20325(10)
C55J C 0.20325(10) 0.62097(15) -0.00156(11)
C56G C 0.10208(18) 0.47953(9) -0.21770(9)
C56J C 0.21770(9) 0.60208(18) 0.02047(9)
H44G H 0.1110 0.4631 -0.2286
H44J H 0.2286 0.6110 0.0369
B1 B 0.9936(3) 0.3764(3) 0.4600(3)
F1 F 0.9629(2) 0.3728(2) 0.4531(3)
F2 F 1.0138(4) 0.3904(5) 0.4385(4)
F3 F 1.0071(4) 0.3463(3) 0.4684(5)
F4 F 0.9962(4) 0.3942(4) 0.4900(3)
B2 B 0.9899(3) 0.3352(3) 0.0842(3)
F5 F 0.9583(2) 0.3420(3) 0.0797(2)
F6 F 1.00918(15) 0.36154(15) 0.07745(15)
F7 F 1.0011(3) 0.3095(3) 0.0662(3)
F8 F 0.9938(3) 0.3269(3) 0.1168(3)
B3 B 0.02717(15) 0.52717(15) 0.97283(15)
F9 F 0.04642(11) 0.54642(11) 0.95358(11)
F10 F 0.03453(9) 0.53309(9) 1.00361(9)
F10G F -0.00361(9) 0.53453(9) 0.96691(9)
F10J F 0.03309(9) 0.49639(9) 0.96547(9)
C57 C 0.0468(7) 0.4505(5) 0.2022(7)
H45 H 0.0412 0.4465 0.2235
H46 H 0.0673 0.4425 0.1983
H47 H 0.0321 0.4404 0.1886
C58 C 0.0463(4) 0.4860(5) 0.1961(4)
O1 O 0.0268(3) 0.5015(3) 0.1832(3)
O2 O 0.0734(5) 0.5028(5) 0.2066(5)
C59 C 0.0706(7) 0.5351(6) 0.1996(8)
H48 H 0.0508 0.5433 0.2068
H49 H 0.0725 0.5389 0.1774
C60 C 0.0975(7) 0.5495(7) 0.2173(7)
H50 H 0.0980 0.5411 0.2381
H51 H 0.0948 0.5717 0.2183
H52 H 0.1167 0.5447 0.2068
loop_
_geom_bond_atom_site_label_1
_geom_bond_atom_site_label_2
_geom_bond_site_symmetry_1
_geom_bond_site_symmetry_2
Cu1 N1 1_555 1_555
Cu2 N5 1_555 1_555
N1 C1 1_555 1_555
C1 H1 1_555 1_555
C2 C1 1_555 1_555
H2 C2 1_555 1_555
N2 C2 1_555 1_555
C3 N2 1_555 1_555
H3 C3 1_555 1_555
C4 N1 1_555 1_555
N3 Cu1 1_555 1_555
N4 N3 1_555 1_555
C5 N4 1_555 1_555
H4 C5 1_555 1_555
C6 C5 1_555 1_555
H5 C6 1_555 1_555
C7 C4 1_555 1_555
C8 N4 1_555 1_555
H6 C8 1_555 1_555
H7 C8 1_555 1_555
N5 C9 1_555 1_555
C9 H8 1_555 1_555
C10 C9 1_555 1_555
H9 C10 1_555 1_555
N6 C10 1_555 1_555
C11 N6 1_555 1_555
H10 C11 1_555 1_555
C12 N5 1_555 1_555
N7 Cu2 1_555 1_555
N8 N7 1_555 1_555
C13 N8 1_555 1_555
H11 C13 1_555 1_555
C14 C13 1_555 1_555
H12 C14 1_555 1_555
C15 C12 1_555 1_555
C16 N8 1_555 1_555
H13 C16 1_555 1_555
H14 C16 1_555 1_555
C17 C16 1_555 1_555
C18 C17 1_555 1_555
H15 C18 1_555 1_555
C19 C18 1_555 1_555
C20 C19 1_555 1_555
H16 C20 1_555 1_555
C21 C20 1_555 1_555
H17 C21 1_555 1_555
C22 C17 1_555 1_555
H18 C22 1_555 1_555
C23 C8 1_555 1_555
C24 C23 1_555 1_555
H19 C24 1_555 1_555
C25 C19 1_555 1_555
C26 C25 1_555 1_555
H20 C26 1_555 1_555
C27 C26 1_555 1_555
H21 C27 1_555 1_555
C28 C23 1_555 1_555
H22 C28 1_555 1_555
N9 C29 1_555 1_555
C29 H23 1_555 1_555
C30 C29 1_555 1_555
H24 C30 1_555 1_555
N10 C30 1_555 1_555
C31 N10 1_555 1_555
H25 C31 1_555 1_555
C32 N9 1_555 1_555
N11 N12 1_555 1_555
N12 C33 1_555 1_555
C33 H26 1_555 1_555
C34 C33 1_555 1_555
H27 C34 1_555 1_555
C35 C32 1_555 1_555
C36 N12 1_555 1_555
H28 C36 1_555 1_555
H29 C36 1_555 1_555
N13 Cu1 1_555 1_555
C37 N13 1_555 1_555
H30 C37 1_555 1_555
C38 C37 1_555 1_555
H31 C38 1_555 1_555
N14 C38 1_555 1_555
C39 N14 1_555 1_555
H32 C39 1_555 1_555
C40 N13 1_555 1_555
N15 Cu1 1_555 1_555
N16 N15 1_555 1_555
C41 N16 1_555 1_555
H33 C41 1_555 1_555
C42 C41 1_555 1_555
H34 C42 1_555 1_555
C43 C40 1_555 1_555
C44 N16 1_555 1_555
H35 C44 1_555 1_555
H36 C44 1_555 1_555
C45 C44 1_555 1_555
C46 C45 1_555 1_555
H37 C46 1_555 1_555
C47 C46 1_555 1_555
C48 C47 1_555 1_555
H38 C48 1_555 1_555
C49 C48 1_555 1_555
H39 C49 1_555 1_555
C50 C45 1_555 1_555
H40 C50 1_555 1_555
C51 H41 1_555 1_555
C52 C51 1_555 1_555
H42 C52 1_555 1_555
C53 C47 1_555 1_555
C54 C53 1_555 1_555
H43 C54 1_555 1_555
C55 C36 1_555 1_555
C56 C51 1_555 1_555
H44 C56 1_555 1_555
B1 F1 1_555 1_555
F2 B1 1_555 1_555
F3 B1 1_555 1_555
F4 B1 1_555 1_555
B2 F5 1_555 1_555
F6 B2 1_555 1_555
F7 B2 1_555 1_555
F8 B2 1_555 1_555
B3 F9 1_555 1_555
F10 B3 1_555 1_555
C57 H45 1_555 1_555
H46 C57 1_555 1_555
H47 C57 1_555 1_555
C58 C57 1_555 1_555
O1 C58 1_555 1_555
O2 C58 1_555 1_555
C59 O2 1_555 1_555
H48 C59 1_555 1_555
H49 C59 1_555 1_555
C60 C59 1_555 1_555
H50 C60 1_555 1_555
H51 C60 1_555 1_555
H52 C60 1_555 1_555
Cu1G N9 1_555 1_555
Cu1J N1J 1_555 1_555
N1G Cu1G 1_555 1_555
N1J C1J 1_555 1_555
C1G N1G 1_555 1_555
C1J H1J 1_555 1_555
H1G C1G 1_555 1_555
C2G C1G 1_555 1_555
C2J C1J 1_555 1_555
H2G C2G 1_555 1_555
H2J C2J 1_555 1_555
N2G C2G 1_555 1_555
N2J C2J 1_555 1_555
C3G N2G 1_555 1_555
C3J N2J 1_555 1_555
H3G C3G 1_555 1_555
H3J C3J 1_555 1_555
C4G N1G 1_555 1_555
C4J N1J 1_555 1_555
N3G Cu1G 1_555 1_555
N3J Cu1J 1_555 1_555
N4G N3G 1_555 1_555
N4J N3J 1_555 1_555
C5G N4G 1_555 1_555
C5J N4J 1_555 1_555
H4G C5G 1_555 1_555
H4J C5J 1_555 1_555
C6G C5G 1_555 1_555
C6J C5J 1_555 1_555
H5G C6G 1_555 1_555
H5J C6J 1_555 1_555
C7G C4G 1_555 1_555
C7J C4J 1_555 1_555
C8G N4G 1_555 1_555
C8J N4J 1_555 1_555
H6G C8G 1_555 1_555
H6J C8J 1_555 1_555
H7G C8G 1_555 1_555
H7J C8J 1_555 1_555
N5G Cu2 1_555 1_555
N5J Cu2 1_555 1_555
C9G N5G 1_555 1_555
C9J N5J 1_555 1_555
H8G C9G 1_555 1_555
H8J C9J 1_555 1_555
C10G C9G 1_555 1_555
C10J C9J 1_555 1_555
H9G C10G 1_555 1_555
H9J C10J 1_555 1_555
N6G C10G 1_555 1_555
N6J C10J 1_555 1_555
C11G N6G 1_555 1_555
C11J N6J 1_555 1_555
H10G C11G 1_555 1_555
H10J C11J 1_555 1_555
C12G N5G 1_555 1_555
C12J N5J 1_555 1_555
N7G Cu2 1_555 1_555
N7J Cu2 1_555 1_555
N8G N7G 1_555 1_555
N8J N7J 1_555 1_555
C13G N8G 1_555 1_555
C13J N8J 1_555 1_555
H11G C13G 1_555 1_555
H11J C13J 1_555 1_555
C14G C13G 1_555 1_555
C14J C13J 1_555 1_555
H12G C14G 1_555 1_555
H12J C14J 1_555 1_555
C15G C12G 1_555 1_555
C15J C12J 1_555 1_555
C16G N8G 1_555 1_555
C16J N8J 1_555 1_555
H13G C16G 1_555 1_555
H13J C16J 1_555 1_555
H14G C16G 1_555 1_555
H14J C16J 1_555 1_555
C17G C16G 1_555 1_555
C17J C16J 1_555 1_555
C18G C17G 1_555 1_555
C18J C17J 1_555 1_555
H15G C18G 1_555 1_555
H15J C18J 1_555 1_555
C19G C18G 1_555 1_555
C19J C18J 1_555 1_555
C20G C19G 1_555 1_555
C20J C19J 1_555 1_555
H16G C20G 1_555 1_555
H16J C20J 1_555 1_555
C21G C20G 1_555 1_555
C21J C20J 1_555 1_555
H17G C21G 1_555 1_555
H17J C21J 1_555 1_555
C22G C17G 1_555 1_555
C22J C17J 1_555 1_555
H18G C22G 1_555 1_555
H18J C22J 1_555 1_555
C23G C8G 1_555 1_555
C23J C8J 1_555 1_555
C24G C23G 1_555 1_555
C24J C23J 1_555 1_555
H19G C24G 1_555 1_555
H19J C24J 1_555 1_555
C25G C19G 1_555 1_555
C25J C19J 1_555 1_555
C26G C25G 1_555 1_555
C26J C25J 1_555 1_555
H20G C26G 1_555 1_555
H20J C26J 1_555 1_555
C27G C26G 1_555 1_555
C27J C26J 1_555 1_555
H21G C27G 1_555 1_555
H21J C27J 1_555 1_555
C28G C23G 1_555 1_555
C28J C23J 1_555 1_555
H22G C28G 1_555 1_555
H22J C28J 1_555 1_555
N9G Cu1J 1_555 1_555
N9J Cu1 1_555 1_555
C29G N9G 1_555 1_555
C29J N9J 1_555 1_555
H23G C29G 1_555 1_555
H23J C29J 1_555 1_555
C30G C29G 1_555 1_555
C30J C29J 1_555 1_555
H24G C30G 1_555 1_555
H24J C30J 1_555 1_555
N10G C30G 1_555 1_555
N10J C30J 1_555 1_555
C31G N10G 1_555 1_555
C31J N10J 1_555 1_555
H25G C31G 1_555 1_555
H25J C31J 1_555 1_555
C32G N9G 1_555 1_555
C32J N9J 1_555 1_555
N11G Cu1J 1_555 1_555
N11J Cu1 1_555 1_555
N12G N11G 1_555 1_555
N12J N11J 1_555 1_555
C33G N12G 1_555 1_555
C33J N12J 1_555 1_555
H26G C33G 1_555 1_555
H26J C33J 1_555 1_555
C34G C33G 1_555 1_555
C34J C33J 1_555 1_555
H27G C34G 1_555 1_555
H27J C34J 1_555 1_555
C35G C32G 1_555 1_555
C35J C32J 1_555 1_555
C36G N12G 1_555 1_555
C36J N12J 1_555 1_555
H28G C36G 1_555 1_555
H28J C36J 1_555 1_555
H29G C36G 1_555 1_555
H29J C36J 1_555 1_555
N13G Cu1G 1_555 1_555
N13J Cu1J 1_555 1_555
C37G N13G 1_555 1_555
C37J N13J 1_555 1_555
H30G C37G 1_555 1_555
H30J C37J 1_555 1_555
C38G C37G 1_555 1_555
C38J C37J 1_555 1_555
H31G C38G 1_555 1_555
H31J C38J 1_555 1_555
N14G C38G 1_555 1_555
N14J C38J 1_555 1_555
C39G N14G 1_555 1_555
C39J N14J 1_555 1_555
H32G C39G 1_555 1_555
H32J C39J 1_555 1_555
C40G N13G 1_555 1_555
C40J N13J 1_555 1_555
N15G Cu1G 1_555 1_555
N15J Cu1J 1_555 1_555
N16G N15G 1_555 1_555
N16J N15J 1_555 1_555
C41G N16G 1_555 1_555
C41J N16J 1_555 1_555
H33G C41G 1_555 1_555
H33J C41J 1_555 1_555
C42G C41G 1_555 1_555
C42J C41J 1_555 1_555
H34G C42G 1_555 1_555
H34J C42J 1_555 1_555
C43G C40G 1_555 1_555
C43J C40J 1_555 1_555
C44G N16G 1_555 1_555
C44J N16J 1_555 1_555
H35G C44G 1_555 1_555
H35J C44J 1_555 1_555
H36G C44G 1_555 1_555
H36J C44J 1_555 1_555
C45G C44G 1_555 1_555
C45J C44J 1_555 1_555
C46G C45G 1_555 1_555
C46J C45J 1_555 1_555
H37G C46G 1_555 1_555
H37J C46J 1_555 1_555
C47G C46G 1_555 1_555
C47J C46J 1_555 1_555
C48G C47G 1_555 1_555
C48J C47J 1_555 1_555
H38G C48G 1_555 1_555
H38J C48J 1_555 1_555
C49G C48G 1_555 1_555
C49J C48J 1_555 1_555
H39G C49G 1_555 1_555
H39J C49J 1_555 1_555
C50G C45G 1_555 1_555
C50J C45J 1_555 1_555
H40G C50G 1_555 1_555
H40J C50J 1_555 1_555
C51G H41G 1_555 1_555
C51J H41J 1_555 1_555
C52G C51G 1_555 1_555
C52J C51J 1_555 1_555
H42G C52G 1_555 1_555
H42J C52J 1_555 1_555
C53G C47G 1_555 1_555
C53J C47J 1_555 1_555
C54G C53G 1_555 1_555
C54J C53J 1_555 1_555
H43G C54G 1_555 1_555
H43J C54J 1_555 1_555
C55G C36G 1_555 1_555
C55J C36J 1_555 1_555
C56G C51G 1_555 1_555
C56J C51J 1_555 1_555
H44G C56G 1_555 1_555
H44J C56J 1_555 1_555
F10G B3 1_555 1_555
F10J B3 1_555 1_555
C3 C4 1_555 1_555
N3 C7 1_555 1_555
C6 C7 1_555 1_555
C11 C12 1_555 1_555
N7 C15 1_555 1_555
C14 C15 1_555 1_555
C21 C22 1_555 1_555
C24 C25 1_555 1_555
C27 C28 1_555 1_555
C31 C32 1_555 1_555
N11 C35 1_555 1_555
N11 Cu1G 1_555 1_555
C34 C35 1_555 1_555
C39 C40 1_555 1_555
N15 C43 1_555 1_555
C42 C43 1_555 1_555
C49 C50 1_555 1_555
C52 C53 1_555 1_555
C54 C55 1_555 1_555
C55 C56 1_555 1_555
C3G C4G 1_555 1_555
C3J C4J 1_555 1_555
N3G C7G 1_555 1_555
N3J C7J 1_555 1_555
C6G C7G 1_555 1_555
C6J C7J 1_555 1_555
C11G C12G 1_555 1_555
C11J C12J 1_555 1_555
N7G C15G 1_555 1_555
N7J C15J 1_555 1_555
C14G C15G 1_555 1_555
C14J C15J 1_555 1_555
C21G C22G 1_555 1_555
C21J C22J 1_555 1_555
C24G C25G 1_555 1_555
C24J C25J 1_555 1_555
C27G C28G 1_555 1_555
C27J C28J 1_555 1_555
C31G C32G 1_555 1_555
C31J C32J 1_555 1_555
N11G C35G 1_555 1_555
N11J C35J 1_555 1_555
C34G C35G 1_555 1_555
C34J C35J 1_555 1_555
C39G C40G 1_555 1_555
C39J C40J 1_555 1_555
N15G C43G 1_555 1_555
N15J C43J 1_555 1_555
C42G C43G 1_555 1_555
C42J C43J 1_555 1_555
C49G C50G 1_555 1_555
C49J C50J 1_555 1_555
C52G C53G 1_555 1_555
C52J C53J 1_555 1_555
C54G C55G 1_555 1_555
C54J C55J 1_555 1_555
C55G C56G 1_555 1_555
C55J C56J 1_555 1_555

#END
